data_PCOD9507590
_publ_section_title
;
Structure prediction by ZEFSAII (Michael W. Deem and Ramdas Pophale) SiO2 
 PCOD9507590
Probable space group: C C C A
;
_chemical_formula_sum "Si O2"
_cell_formula_units_Z 88
_cell_length_a 14.555350
_cell_length_b 14.177215
_cell_length_c 18.900935
_cell_angle_alpha 90.000000
_cell_angle_beta 90.000000
_cell_angle_gamma 90.000000
_cell_volume 3900.289709
_symmetry_space_group_name_H-M "C C C A"
_symmetry_group_IT_number 68
_space_group.IT_coordinate_system_code '2'
_symmetry_cell_setting 'orthorhombic'
loop_
_space_group_symop_operation_xyz
x,y,z
-x,1/2-y,z
x,1/2-y,1/2-z
-x,y,1/2-z
-x,-y,-z
x,1/2+y,-z
-x,1/2+y,1/2+z
x,-y,1/2+z
1/2+x,1/2+y,z
1/2-x,-y,z
1/2+x,-y,1/2-z
1/2-x,1/2+y,1/2-z
1/2-x,1/2-y,-z
1/2+x,y,-z
1/2-x,y,1/2+z
1/2+x,1/2-y,1/2+z
loop_
_atom_site_type_symbol
_atom_site_label
_atom_site_fract_x
_atom_site_fract_y
_atom_site_fract_z
Si Si1 0.019994 0.360692 0.537584
Si Si2 0.726122 0.250000 0.750000
Si Si3 0.721198 0.900639 0.354823
Si Si4 0.022435 0.044289 0.113229
Si Si5 0.672283 0.423681 0.843640
Si Si6 0.233285 0.358931 0.516224
O O1 0.002493 0.393260 0.456958
O O2 0.130129 0.375088 0.545444
O O3 0.000000 0.250000 0.548407
O O4 0.965039 0.436190 0.585753
O O5 0.768141 0.315117 0.687523
O O6 0.677106 0.330494 0.795903
O O7 0.609968 0.905093 0.352065
O O8 0.742935 0.900523 0.438059
O O9 0.750000 0.000000 0.324401
O O10 0.931263 0.040616 0.159627
O O11 0.750000 0.500000 0.825051
O O12 0.698012 0.395876 0.924548
O O13 0.250000 0.250000 0.500000
#
# Coordination Sequence:
#
# PCOD9507590 Si02
#       6
#    16   8  16  16  16  16
#     4  10  21  36  61 101 142 167 212 286 339 393
#     4  12  28  47  70  95 140 186 228 273 344 413
#     4  11  26  45  69 100 137 177 228 283 337 409
#     4  10  24  40  64 103 135 173 228 277 338 402
#     4  12  24  45  70  99 138 178 228 280 338 404
#     4  11  21  39  69 102 131 172 224 279 339 392
#
# _framework density 22.562425999999999
#
# number of rings (size 3 to 8) (size 9 to 14) (size 15 to 20)
#    0.000    1.091    3.636    2.182   10.182    1.455 
#    0.000    0.000    0.000    1.091    0.000    0.000 
#    0.000    0.000    0.000    0.000    0.000    0.000 
#
# Total GULP energy -245649.127877 kJ/mol
# GULP energy per Si atom -5582.934724 kJ/mol
# Density = 2.251107 g / cm^3
# Si number density = 22.562426 Si / 1000 Ang^3
#
#
#
# Elastic Constant Matrix: (Units=GPa)
#
#
# Indices 1 2 3 4 5 6 
#
# 1 82.8367 -5.3082 16.7867 0.0000 0.0000 0.0000
# 2 -5.3082 155.4437 38.0445 0.0000 0.0000 0.0000
# 3 16.7867 38.0445 104.8387 0.0000 0.0000 0.0000
# 4 0.0000 0.0000 0.0000 22.5200 0.0000 0.0000
# 5 0.0000 0.0000 0.0000 0.0000 -13.4703 0.0000
# 6 0.0000 0.0000 0.0000 0.0000 0.0000 27.7327
#
#
#
# Elastic Compliance Matrix: (Units=1/GPa)
#
#
# Indices 1 2 3 4 5 6 
#
# 1 0.012621 0.001016 -0.002390 0.000000 0.000000 0.000000
# 2 0.001016 0.007142 -0.002754 0.000000 0.000000 0.000000
# 3 -0.002390 -0.002754 0.010921 0.000000 0.000000 0.000000
# 4 0.000000 0.000000 0.000000 0.044405 0.000000 0.000000
# 5 0.000000 0.000000 0.000000 0.000000 -0.074237 0.000000
# 6 0.000000 0.000000 0.000000 0.000000 0.000000 0.036058
#
#
# Mechanical properties :
#
#
# Convention : Reuss Voigt Hill
#
# Bulk Modulus (GPa) = 44.58773 49.12946 46.85859
# Shear Modulus (GPa) = 94.98091 26.92956 60.95523
#
# Velocity S-wave (km/s) = 6.49525 3.45854 5.20336
# Velocity P-wave (km/s) = 8.72101 6.14580 7.54410
#
# Compressibility (1/GPa) = 0.02242770
#
# Stress axis : x y z
#
# Youngs Moduli (GPa) = 79.23135 140.01642 91.56997
#
# Poissons Ratio (x) = -0.14223 0.21881
# Poissons Ratio (y) = -0.08049 0.25222
# Poissons Ratio (z) = 0.18933 0.38566
#
# Static dielectric constant tensor:
#      x y z
#    x 1.919130 0.000000 0.000000 
#    y 0.000000 1.801160 0.000000 
#    z 0.000000 0.000000 1.866740 
# 
# From -- ./inp_files/38466.got.cif
#   From: 2010.05.17/outbox.cif.g08.bks.cpg/sg68_20_cif.got.tgz:38466.got - 2010.06.03 18:57:09.
