data_PCOD9507788
_publ_section_title
;
Structure prediction by ZEFSAII (Michael W. Deem and Ramdas Pophale) SiO2 
 PCOD9507788
Probable space group: C C C A
;
_chemical_formula_sum "Si O2"
_cell_formula_units_Z 72
_cell_length_a 14.835082
_cell_length_b 22.888848
_cell_length_c 9.761120
_cell_angle_alpha 90.000000
_cell_angle_beta 90.000000
_cell_angle_gamma 90.000000
_cell_volume 3314.465770
_symmetry_space_group_name_H-M "C C C A"
_symmetry_group_IT_number 68
_space_group.IT_coordinate_system_code '2'
_symmetry_cell_setting 'orthorhombic'
loop_
_space_group_symop_operation_xyz
x,y,z
-x,1/2-y,z
x,1/2-y,1/2-z
-x,y,1/2-z
-x,-y,-z
x,1/2+y,-z
-x,1/2+y,1/2+z
x,-y,1/2+z
1/2+x,1/2+y,z
1/2-x,-y,z
1/2+x,-y,1/2-z
1/2-x,1/2+y,1/2-z
1/2-x,1/2-y,-z
1/2+x,y,-z
1/2-x,y,1/2+z
1/2+x,1/2-y,1/2+z
loop_
_atom_site_type_symbol
_atom_site_label
_atom_site_fract_x
_atom_site_fract_y
_atom_site_fract_z
Si Si1 0.367298 0.280915 0.103045
Si Si2 0.500000 0.591844 0.250000
Si Si3 0.041957 0.167754 0.516899
Si Si4 0.233462 0.127644 0.520736
Si Si5 0.304970 0.943402 0.258039
O O1 0.350853 0.250000 0.250000
O O2 0.281840 0.315460 0.044595
O O3 0.408946 0.231220 0.002633
O O4 0.453676 0.324143 0.110000
O O5 0.509396 0.635110 0.380247
O O6 0.587787 0.551080 0.257258
O O7 0.129770 0.133197 0.568069
O O8 0.288857 0.108651 0.651478
O O9 0.231754 0.078577 0.403559
O O10 0.250000 0.000000 0.214560
#
# Coordination Sequence:
#
# PCOD9507788 Si02
#       5
#    16   8  16  16  16
#     4  11  22  39  62  98 139 178 217 264 338 413
#     4  10  22  45  66  94 132 178 221 278 340 396
#     4  10  21  38  63  93 133 174 212 265 330 414
#     4  11  23  43  67  97 137 174 228 281 338 397
#     4  11  24  46  68  96 128 178 234 288 339 391
#
# _framework density 21.722957999999998
#
# number of rings (size 3 to 8) (size 9 to 14) (size 15 to 20)
#    0.000    1.333    2.222    4.000    0.000    1.778 
#    8.000    3.333    0.000    0.000    0.000    0.000 
#    0.000    0.000    0.000    0.000    0.000    0.000 
#
# Total GULP energy -200790.486032 kJ/mol
# GULP energy per Si atom -5577.513501 kJ/mol
# Density = 2.167352 g / cm^3
# Si number density = 21.722958 Si / 1000 Ang^3
#
#
#
# Elastic Constant Matrix: (Units=GPa)
#
#
# Indices 1 2 3 4 5 6 
#
# 1 70.1642 8.9574 7.0137 0.0000 0.0000 0.0000
# 2 8.9574 57.5644 8.9324 0.0000 0.0000 0.0000
# 3 7.0137 8.9324 41.2788 0.0000 0.0000 0.0000
# 4 0.0000 0.0000 0.0000 23.6344 0.0000 0.0000
# 5 0.0000 0.0000 0.0000 0.0000 23.2631 0.0000
# 6 0.0000 0.0000 0.0000 0.0000 0.0000 25.8673
#
#
#
# Elastic Compliance Matrix: (Units=1/GPa)
#
#
# Indices 1 2 3 4 5 6 
#
# 1 0.014711 -0.001967 -0.002074 0.000000 0.000000 0.000000
# 2 -0.001967 0.018239 -0.003612 0.000000 0.000000 0.000000
# 3 -0.002074 -0.003612 0.025360 0.000000 0.000000 0.000000
# 4 0.000000 0.000000 0.000000 0.042311 0.000000 0.000000
# 5 0.000000 0.000000 0.000000 0.000000 0.042986 0.000000
# 6 0.000000 0.000000 0.000000 0.000000 0.000000 0.038659
#
#
# Mechanical properties :
#
#
# Convention : Reuss Voigt Hill
#
# Bulk Modulus (GPa) = 23.25483 24.31272 23.78377
# Shear Modulus (GPa) = 23.59533 24.15989 23.87761
#
# Velocity S-wave (km/s) = 3.29932 3.33856 3.31900
# Velocity P-wave (km/s) = 5.02419 5.10664 5.06558
#
# Compressibility (1/GPa) = 0.04300181
#
# Stress axis : x y z
#
# Youngs Moduli (GPa) = 67.97752 54.82896 39.43279
#
# Poissons Ratio (x) = 0.10786 0.08178
# Poissons Ratio (y) = 0.13373 0.14245
# Poissons Ratio (z) = 0.14097 0.19807
#
# Static dielectric constant tensor:
#      x y z
#    x 1.873460 0.000000 0.000000 
#    y 0.000000 1.824850 0.000000 
#    z 0.000000 0.000000 1.789960 
# 
# From -- ./inp_files/5237.got.cif
#   From: 2010.05.17/outbox.cif.g08.bks.cpg/sg68_3_cif.got.tgz:5237.got - 2010.06.03 18:57:09.
