data_PCOD9507454
_publ_section_title
;
Structure prediction by ZEFSAII (Michael W. Deem and Ramdas Pophale) SiO2 
 PCOD9507454
Probable space group: C C C A
;
_chemical_formula_sum "Si O2"
_cell_formula_units_Z 72
_cell_length_a 12.943740
_cell_length_b 15.084757
_cell_length_c 16.939018
_cell_angle_alpha 90.000000
_cell_angle_beta 90.000000
_cell_angle_gamma 90.000000
_cell_volume 3307.397005
_symmetry_space_group_name_H-M "C C C A"
_symmetry_group_IT_number 68
_space_group.IT_coordinate_system_code '2'
_symmetry_cell_setting 'orthorhombic'
loop_
_space_group_symop_operation_xyz
x,y,z
-x,1/2-y,z
x,1/2-y,1/2-z
-x,y,1/2-z
-x,-y,-z
x,1/2+y,-z
-x,1/2+y,1/2+z
x,-y,1/2+z
1/2+x,1/2+y,z
1/2-x,-y,z
1/2+x,-y,1/2-z
1/2-x,1/2+y,1/2-z
1/2-x,1/2-y,-z
1/2+x,y,-z
1/2-x,y,1/2+z
1/2+x,1/2-y,1/2+z
loop_
_atom_site_type_symbol
_atom_site_label
_atom_site_fract_x
_atom_site_fract_y
_atom_site_fract_z
Si Si1 0.348008 0.893264 0.809306
Si Si2 0.000000 0.479459 0.250000
Si Si3 0.000000 0.750000 0.379587
Si Si4 0.250000 0.000000 0.946511
Si Si5 0.616535 0.674134 0.314763
Si Si6 0.843883 0.181336 0.007073
O O1 0.424583 0.812942 0.829346
O O2 0.231797 0.861645 0.793435
O O3 0.402158 0.954972 0.743675
O O4 0.332502 0.952028 0.888550
O O5 0.963768 0.407600 0.313843
O O6 0.074209 0.695035 0.438074
O O7 0.302389 0.080518 0.992562
O O8 0.599690 0.750000 0.250000
O O9 0.615547 0.703568 0.405086
O O10 0.750000 0.250000 0.000000
#
# Coordination Sequence:
#
# PCOD9507454 Si02
#       6
#    16   8   8   8  16  16
#     4  11  24  45  67 101 140 179 236 295 345 430
#     4  12  23  43  72  94 136 188 228 285 365 412
#     4  12  26  43  73 104 134 194 236 288 374 418
#     4  10  20  48  64  96 148 176 222 308 334 416
#     4  11  25  45  68 101 141 181 233 297 348 429
#     4  11  23  46  71 100 145 183 232 299 355 422
#
# _framework density 21.769386999999998
#
# number of rings (size 3 to 8) (size 9 to 14) (size 15 to 20)
#    0.000    0.889    8.889    0.333    6.222    0.889 
#    4.000    0.000    0.000    0.000    0.000    0.000 
#    0.000    0.000    0.000    0.000    0.000    0.000 
#
# Total GULP energy -200828.108150 kJ/mol
# GULP energy per Si atom -5578.558560 kJ/mol
# Density = 2.171984 g / cm^3
# Si number density = 21.769387 Si / 1000 Ang^3
#
#
#
# Elastic Constant Matrix: (Units=GPa)
#
#
# Indices 1 2 3 4 5 6 
#
# 1 116.7461 62.4158 26.7407 0.0000 0.0000 0.0000
# 2 62.4158 156.1345 45.2411 0.0000 0.0000 0.0000
# 3 26.7407 45.2411 70.3336 0.0000 0.0000 0.0000
# 4 0.0000 0.0000 0.0000 32.7053 0.0000 0.0000
# 5 0.0000 0.0000 0.0000 0.0000 41.2879 0.0000
# 6 0.0000 0.0000 0.0000 0.0000 0.0000 70.8936
#
#
#
# Elastic Compliance Matrix: (Units=1/GPa)
#
#
# Indices 1 2 3 4 5 6 
#
# 1 0.011051 -0.003934 -0.001672 0.000000 0.000000 0.000000
# 2 -0.003934 0.009272 -0.004469 0.000000 0.000000 0.000000
# 3 -0.001672 -0.004469 0.017728 0.000000 0.000000 0.000000
# 4 0.000000 0.000000 0.000000 0.030576 0.000000 0.000000
# 5 0.000000 0.000000 0.000000 0.000000 0.024220 0.000000
# 6 0.000000 0.000000 0.000000 0.000000 0.000000 0.014106
#
#
# Mechanical properties :
#
#
# Convention : Reuss Voigt Hill
#
# Bulk Modulus (GPa) = 55.85356 68.00104 61.92730
# Shear Modulus (GPa) = 37.57466 42.89846 40.23656
#
# Velocity S-wave (km/s) = 4.15906 4.44394 4.30386
# Velocity P-wave (km/s) = 6.98401 7.59186 7.29427
#
# Compressibility (1/GPa) = 0.01790396
#
# Stress axis : x y z
#
# Youngs Moduli (GPa) = 90.48582 107.85170 56.40858
#
# Poissons Ratio (x) = 0.42424 0.09429
# Poissons Ratio (y) = 0.35593 0.25206
# Poissons Ratio (z) = 0.15125 0.48194
#
# Static dielectric constant tensor:
#      x y z
#    x 1.836430 0.000000 0.000000 
#    y 0.000000 1.859980 0.000000 
#    z 0.000000 0.000000 1.795580 
# 
# From -- ./inp_files/30728.got.cif
#   From: 2010.05.17/outbox.cif.g08.bks.cpg/sg68_16_cif.got.tgz:30728.got - 2010.06.03 18:57:09.
