data_PCOD9507680
_publ_section_title
;
Structure prediction by ZEFSAII (Michael W. Deem and Ramdas Pophale) SiO2 
 PCOD9507680
Probable space group: C C C A
;
_chemical_formula_sum "Si O2"
_cell_formula_units_Z 96
_cell_length_a 22.606124
_cell_length_b 24.988934
_cell_length_c 8.725674
_cell_angle_alpha 90.000000
_cell_angle_beta 90.000000
_cell_angle_gamma 90.000000
_cell_volume 4929.158902
_symmetry_space_group_name_H-M "C C C A"
_symmetry_group_IT_number 68
_space_group.IT_coordinate_system_code '2'
_symmetry_cell_setting 'orthorhombic'
loop_
_space_group_symop_operation_xyz
x,y,z
-x,1/2-y,z
x,1/2-y,1/2-z
-x,y,1/2-z
-x,-y,-z
x,1/2+y,-z
-x,1/2+y,1/2+z
x,-y,1/2+z
1/2+x,1/2+y,z
1/2-x,-y,z
1/2+x,-y,1/2-z
1/2-x,1/2+y,1/2-z
1/2-x,1/2-y,-z
1/2+x,y,-z
1/2-x,y,1/2+z
1/2+x,1/2-y,1/2+z
loop_
_atom_site_type_symbol
_atom_site_label
_atom_site_fract_x
_atom_site_fract_y
_atom_site_fract_z
Si Si1 0.413404 0.933999 0.159160
Si Si2 0.487216 0.139405 0.462896
Si Si3 0.430676 0.456411 0.482453
Si Si4 0.588302 0.310317 0.192846
Si Si5 0.679223 0.900197 0.829561
Si Si6 0.785796 0.057252 0.494715
O O1 0.423144 0.946178 0.336979
O O2 0.447238 0.879601 0.107370
O O3 0.344489 0.937784 0.110703
O O4 0.441925 0.983250 0.065879
O O5 0.521998 0.085454 0.420848
O O6 0.442237 0.158797 0.334490
O O7 0.541867 0.182130 0.449744
O O8 0.369097 0.439222 0.404894
O O9 0.594833 0.250000 0.250000
O O10 0.648810 0.342130 0.167660
O O11 0.694213 0.924966 0.663720
O O12 0.738048 0.901738 0.928964
O O13 0.750000 0.000000 0.495182
#
# Coordination Sequence:
#
# PCOD9507680 Si02
#       6
#    16  16  16  16  16  16
#     4  12  23  38  58  94 139 173 209 249 307 388
#     4  10  21  37  63  90 125 158 209 256 323 373
#     4  11  24  36  58  94 136 174 206 247 316 382
#     4  10  22  43  70  95 119 164 221 274 330 379
#     4  11  23  41  61  94 126 172 218 262 312 375
#     4  12  23  37  62  92 132 171 214 250 308 383
#
# _framework density 19.475940999999999
#
# number of rings (size 3 to 8) (size 9 to 14) (size 15 to 20)
#    0.000    1.000    3.333    4.500    4.667    0.000 
#    0.000    0.833    0.000   17.000    0.000    0.000 
#    0.000    0.000    0.000    0.000    0.000    0.000 
#
# Total GULP energy -267800.266037 kJ/mol
# GULP energy per Si atom -5579.172209 kJ/mol
# Density = 1.943161 g / cm^3
# Si number density = 19.475941 Si / 1000 Ang^3
#
#
#
# Elastic Constant Matrix: (Units=GPa)
#
#
# Indices 1 2 3 4 5 6 
#
# 1 118.1630 63.1809 47.1811 0.0000 0.0000 0.0000
# 2 63.1809 109.7359 47.4648 0.0000 0.0000 0.0000
# 3 47.1811 47.4648 138.7826 0.0000 0.0000 0.0000
# 4 0.0000 0.0000 0.0000 19.7118 0.0000 0.0000
# 5 0.0000 0.0000 0.0000 0.0000 34.1076 0.0000
# 6 0.0000 0.0000 0.0000 0.0000 0.0000 4.7131
#
#
#
# Elastic Compliance Matrix: (Units=1/GPa)
#
#
# Indices 1 2 3 4 5 6 
#
# 1 0.012746 -0.006413 -0.002140 0.000000 0.000000 0.000000
# 2 -0.006413 0.013922 -0.002581 0.000000 0.000000 0.000000
# 3 -0.002140 -0.002581 0.008816 0.000000 0.000000 0.000000
# 4 0.000000 0.000000 0.000000 0.050731 0.000000 0.000000
# 5 0.000000 0.000000 0.000000 0.000000 0.029319 0.000000
# 6 0.000000 0.000000 0.000000 0.000000 0.000000 0.212177
#
#
# Mechanical properties :
#
#
# Convention : Reuss Voigt Hill
#
# Bulk Modulus (GPa) = 75.66936 75.81502 75.74219
# Shear Modulus (GPa) = 14.10898 25.63013 19.86956
#
# Velocity S-wave (km/s) = 2.69445 3.63159 3.19754
# Velocity P-wave (km/s) = 6.97260 7.52307 7.25306
#
# Compressibility (1/GPa) = 0.01321539
#
# Stress axis : x y z
#
# Youngs Moduli (GPa) = 78.45323 71.83073 113.43314
#
# Poissons Ratio (x) = 0.46067 0.24274
# Poissons Ratio (y) = 0.50314 0.29278
# Poissons Ratio (z) = 0.16789 0.18540
#
# Static dielectric constant tensor:
#      x y z
#    x 1.745640 0.000000 0.000000 
#    y 0.000000 1.693500 0.000000 
#    z 0.000000 0.000000 1.704990 
# 
# From -- ./inp_files/8126.got.cif
#   From: 2010.05.17/outbox.cif.g08.bks.cpg/sg68_5_cif.got.tgz:8126.got - 2010.06.03 18:57:09.
