data_PCOD9507525
_publ_section_title
;
Structure prediction by ZEFSAII (Michael W. Deem and Ramdas Pophale) SiO2 
 PCOD9507525
Probable space group: C C C A
;
_chemical_formula_sum "Si O2"
_cell_formula_units_Z 104
_cell_length_a 27.283019
_cell_length_b 21.176217
_cell_length_c 8.858383
_cell_angle_alpha 90.000000
_cell_angle_beta 90.000000
_cell_angle_gamma 90.000000
_cell_volume 5117.940795
_symmetry_space_group_name_H-M "C C C A"
_symmetry_group_IT_number 68
_space_group.IT_coordinate_system_code '2'
_symmetry_cell_setting 'orthorhombic'
loop_
_space_group_symop_operation_xyz
x,y,z
-x,1/2-y,z
x,1/2-y,1/2-z
-x,y,1/2-z
-x,-y,-z
x,1/2+y,-z
-x,1/2+y,1/2+z
x,-y,1/2+z
1/2+x,1/2+y,z
1/2-x,-y,z
1/2+x,-y,1/2-z
1/2-x,1/2+y,1/2-z
1/2-x,1/2-y,-z
1/2+x,y,-z
1/2-x,y,1/2+z
1/2+x,1/2-y,1/2+z
loop_
_atom_site_type_symbol
_atom_site_label
_atom_site_fract_x
_atom_site_fract_y
_atom_site_fract_z
Si Si1 0.678923 0.152117 0.660690
Si Si2 0.611059 0.250000 0.750000
Si Si3 0.525554 0.183814 0.910565
Si Si4 0.730132 0.125829 0.964714
Si Si5 0.615473 0.971180 0.210825
Si Si6 0.454003 0.548245 0.489232
Si Si7 0.208001 0.045849 0.769340
O O1 0.642588 0.208830 0.636684
O O2 0.696958 0.156159 0.835357
O O3 0.727309 0.159895 0.559897
O O4 0.646610 0.087993 0.643139
O O5 0.578723 0.204624 0.853820
O O6 0.500000 0.250000 0.965642
O O7 0.500000 0.167242 0.750000
O O8 0.527802 0.120820 0.012071
O O9 0.763162 0.078187 0.865855
O O10 0.697288 0.093001 0.092943
O O11 0.574013 0.949956 0.328415
O O12 0.586837 0.017815 0.098455
O O13 0.659678 0.011088 0.284916
O O14 0.500000 0.500000 0.500000
O O15 0.250000 0.000000 0.835205
#
# Coordination Sequence:
#
# PCOD9507525 Si02
#       7
#    16   8  16  16  16  16  16
#     4  11  22  37  60  90 121 171 207 256 299 364
#     4  10  21  38  64  86 120 158 228 246 289 376
#     4   9  20  41  66  86 118 164 207 255 311 380
#     4  10  21  35  55  86 131 161 206 247 304 359
#     4  12  23  36  62  94 128 157 204 255 321 362
#     4  12  25  40  63  98 126 152 206 269 320 368
#     4  11  20  33  57  88 127 165 195 246 310 376
#
# _framework density 20.320671999999998
#
# number of rings (size 3 to 8) (size 9 to 14) (size 15 to 20)
#    0.000    1.385    4.615    3.692    2.154    0.615 
#    0.000    0.000    0.000    1.846    0.000    0.000 
#    0.000    0.000    0.000    0.000    0.000    0.000 
#
# Total GULP energy -289691.676325 kJ/mol
# GULP energy per Si atom -5570.993775 kJ/mol
# Density = 2.027442 g / cm^3
# Si number density = 20.320672 Si / 1000 Ang^3
#
#
#
# Elastic Constant Matrix: (Units=GPa)
#
#
# Indices 1 2 3 4 5 6 
#
# 1 108.9007 46.2872 4.8158 0.0000 0.0000 0.0000
# 2 46.2872 104.3767 15.7762 0.0000 0.0000 0.0000
# 3 4.8158 15.7762 48.9346 0.0000 0.0000 0.0000
# 4 0.0000 0.0000 0.0000 15.3916 0.0000 0.0000
# 5 0.0000 0.0000 0.0000 0.0000 25.2580 0.0000
# 6 0.0000 0.0000 0.0000 0.0000 0.0000 -3.2439
#
#
#
# Elastic Compliance Matrix: (Units=1/GPa)
#
#
# Indices 1 2 3 4 5 6 
#
# 1 0.011329 -0.005104 0.000531 0.000000 0.000000 0.000000
# 2 -0.005104 0.012371 -0.003486 0.000000 0.000000 0.000000
# 3 0.000531 -0.003486 0.021507 0.000000 0.000000 0.000000
# 4 0.000000 0.000000 0.000000 0.064970 0.000000 0.000000
# 5 0.000000 0.000000 0.000000 0.000000 0.039591 0.000000
# 6 0.000000 0.000000 0.000000 0.000000 0.000000 -0.308275
#
#
# Mechanical properties :
#
#
# Convention : Reuss Voigt Hill
#
# Bulk Modulus (GPa) = 34.37860 43.99671 39.18766
# Shear Modulus (GPa) = -37.68149 20.50334 -8.58907
#
# Velocity S-wave (km/s) = -4.31088 3.17991 -2.05814
# Velocity P-wave (km/s) = 2.79705 5.93132 3.69845
#
# Compressibility (1/GPa) = 0.02908786
#
# Stress axis : x y z
#
# Youngs Moduli (GPa) = 88.27193 80.83396 46.49630
#
# Poissons Ratio (x) = 0.41258 -0.02467
# Poissons Ratio (y) = 0.45054 0.16209
# Poissons Ratio (z) = -0.04684 0.28179
#
# Static dielectric constant tensor:
#      x y z
#    x 1.077730 0.000000 0.000000 
#    y 0.000000 1.807410 0.000000 
#    z 0.000000 0.000000 1.764570 
# 
# From -- ./inp_files/9027.got.cif
#   From: 2010.05.17/outbox.cif.g08.bks.cpg/sg68_5_cif.got.tgz:9027.got - 2010.06.03 18:57:09.
