data_PCOD9507790
_publ_section_title
;
Structure prediction by ZEFSAII (Michael W. Deem and Ramdas Pophale) SiO2 
 PCOD9507790
Probable space group: C C C A
;
_chemical_formula_sum "Si O2"
_cell_formula_units_Z 88
_cell_length_a 14.232815
_cell_length_b 18.404033
_cell_length_c 15.411837
_cell_angle_alpha 90.000000
_cell_angle_beta 90.000000
_cell_angle_gamma 90.000000
_cell_volume 4036.995031
_symmetry_space_group_name_H-M "C C C A"
_symmetry_group_IT_number 68
_space_group.IT_coordinate_system_code '2'
_symmetry_cell_setting 'orthorhombic'
loop_
_space_group_symop_operation_xyz
x,y,z
-x,1/2-y,z
x,1/2-y,1/2-z
-x,y,1/2-z
-x,-y,-z
x,1/2+y,-z
-x,1/2+y,1/2+z
x,-y,1/2+z
1/2+x,1/2+y,z
1/2-x,-y,z
1/2+x,-y,1/2-z
1/2-x,1/2+y,1/2-z
1/2-x,1/2-y,-z
1/2+x,y,-z
1/2-x,y,1/2+z
1/2+x,1/2-y,1/2+z
loop_
_atom_site_type_symbol
_atom_site_label
_atom_site_fract_x
_atom_site_fract_y
_atom_site_fract_z
Si Si1 0.486106 0.670042 0.505142
Si Si2 0.822456 0.101581 0.074918
Si Si3 0.500000 0.058468 0.750000
Si Si4 0.551770 0.026368 0.086664
Si Si5 0.674420 0.167730 0.752985
Si Si6 0.784521 0.181017 0.440402
O O1 0.500000 0.750000 0.542729
O O2 0.578794 0.641943 0.454098
O O3 0.453570 0.612274 0.577080
O O4 0.397392 0.678746 0.441452
O O5 0.782966 0.143102 0.159906
O O6 0.851169 0.018299 0.090834
O O7 0.755411 0.113300 0.993700
O O8 0.590266 0.109985 0.757608
O O9 0.501691 0.006028 0.832043
O O10 0.500000 0.000000 0.000000
O O11 0.636824 0.250000 0.750000
O O12 0.739991 0.171699 0.838827
O O13 0.750000 0.250000 0.500000
#
# Coordination Sequence:
#
# PCOD9507790 Si02
#       6
#    16  16   8  16  16  16
#     4  11  21  39  65  91 123 166 214 266 323 386
#     4  10  22  40  61  95 127 166 212 262 320 388
#     4  10  21  38  63  96 120 158 222 266 323 388
#     4   9  20  38  63  89 127 161 204 266 324 381
#     4  11  19  33  61  93 126 161 206 270 316 366
#     4  12  22  36  62  97 131 164 213 262 319 390
#
# _framework density 21.798392
#
# number of rings (size 3 to 8) (size 9 to 14) (size 15 to 20)
#    0.000    1.455    3.636    3.545    0.000    0.727 
#    0.000    4.091    4.000    6.545    0.000    0.000 
#    0.000    0.000    0.000    0.000    0.000    0.000 
#
# Total GULP energy -245361.904600 kJ/mol
# GULP energy per Si atom -5576.406923 kJ/mol
# Density = 2.174878 g / cm^3
# Si number density = 21.798392 Si / 1000 Ang^3
#
#
#
# Elastic Constant Matrix: (Units=GPa)
#
#
# Indices 1 2 3 4 5 6 
#
# 1 52.2733 -9.4256 15.3788 0.0000 0.0000 0.0000
# 2 -9.4256 152.8491 56.0048 0.0000 0.0000 0.0000
# 3 15.3788 56.0048 170.1421 0.0000 0.0000 0.0000
# 4 0.0000 0.0000 0.0000 35.5966 0.0000 0.0000
# 5 0.0000 0.0000 0.0000 0.0000 28.1190 0.0000
# 6 0.0000 0.0000 0.0000 0.0000 0.0000 15.2178
#
#
#
# Elastic Compliance Matrix: (Units=1/GPa)
#
#
# Indices 1 2 3 4 5 6 
#
# 1 0.020275 0.002185 -0.002552 0.000000 0.000000 0.000000
# 2 0.002185 0.007675 -0.002724 0.000000 0.000000 0.000000
# 3 -0.002552 -0.002724 0.007005 0.000000 0.000000 0.000000
# 4 0.000000 0.000000 0.000000 0.028093 0.000000 0.000000
# 5 0.000000 0.000000 0.000000 0.000000 0.035563 0.000000
# 6 0.000000 0.000000 0.000000 0.000000 0.000000 0.065713
#
#
# Mechanical properties :
#
#
# Convention : Reuss Voigt Hill
#
# Bulk Modulus (GPa) = 34.75374 55.46451 45.10912
# Shear Modulus (GPa) = 27.76301 36.67378 32.21840
#
# Velocity S-wave (km/s) = 3.57266 4.10617 3.84867
# Velocity P-wave (km/s) = 5.74425 6.92678 6.36305
#
# Compressibility (1/GPa) = 0.02877388
#
# Stress axis : x y z
#
# Youngs Moduli (GPa) = 49.32166 130.28930 142.76060
#
# Poissons Ratio (x) = -0.28473 0.36432
# Poissons Ratio (y) = -0.10778 0.38887
# Poissons Ratio (z) = 0.12587 0.35490
#
# Static dielectric constant tensor:
#      x y z
#    x 1.861980 0.000000 0.000000 
#    y 0.000000 1.865660 0.000000 
#    z 0.000000 0.000000 1.827980 
# 
# From -- ./inp_files/22255.got.cif
#   From: 2010.05.17/outbox.cif.g08.bks.cpg/sg68_12_cif.got.tgz:22255.got - 2010.06.03 18:57:09.
