data_PCOD9507885
_publ_section_title
;
Structure prediction by ZEFSAII (Michael W. Deem and Ramdas Pophale) SiO2 
 PCOD9507885
Probable space group: C C C A
;
_chemical_formula_sum "Si O2"
_cell_formula_units_Z 80
_cell_length_a 15.365366
_cell_length_b 8.169337
_cell_length_c 27.067361
_cell_angle_alpha 90.000000
_cell_angle_beta 90.000000
_cell_angle_gamma 90.000000
_cell_volume 3397.626510
_symmetry_space_group_name_H-M "C C C A"
_symmetry_group_IT_number 68
_space_group.IT_coordinate_system_code '2'
_symmetry_cell_setting 'orthorhombic'
loop_
_space_group_symop_operation_xyz
x,y,z
-x,1/2-y,z
x,1/2-y,1/2-z
-x,y,1/2-z
-x,-y,-z
x,1/2+y,-z
-x,1/2+y,1/2+z
x,-y,1/2+z
1/2+x,1/2+y,z
1/2-x,-y,z
1/2+x,-y,1/2-z
1/2-x,1/2+y,1/2-z
1/2-x,1/2-y,-z
1/2+x,y,-z
1/2-x,y,1/2+z
1/2+x,1/2-y,1/2+z
loop_
_atom_site_type_symbol
_atom_site_label
_atom_site_fract_x
_atom_site_fract_y
_atom_site_fract_z
Si Si1 0.341292 0.407393 0.568321
Si Si2 0.270097 0.307389 0.198855
Si Si3 0.158769 0.097505 0.611815
Si Si4 0.598146 0.281694 0.485186
Si Si5 0.593104 0.708976 0.160935
O O1 0.250000 0.500000 0.576201
O O2 0.338155 0.252675 0.531179
O O3 0.396095 0.538198 0.537436
O O4 0.383496 0.341743 0.618274
O O5 0.313076 0.250000 0.250000
O O6 0.250000 0.500000 0.198216
O O7 0.322615 0.242499 0.151213
O O8 0.176917 0.214641 0.195794
O O9 0.124755 0.166399 0.560505
O O10 0.250000 0.000000 0.606373
O O11 0.092470 0.967770 0.635149
O O12 0.500000 0.250000 0.501893
O O13 0.500000 0.750000 0.183170
#
# Coordination Sequence:
#
# PCOD9507885 Si02
#       5
#    16  16  16  16  16
#     4  12  23  38  58  85 120 166 209 251 301 365
#     4  11  23  43  67  91 119 157 201 247 303 372
#     4  10  21  39  61  87 116 156 199 245 299 366
#     4  12  23  37  57  85 121 159 204 255 306 358
#     4  11  22  39  62  91 124 157 200 254 309 362
#
# _framework density 23.545849
#
# number of rings (size 3 to 8) (size 9 to 14) (size 15 to 20)
#    0.000    0.800    0.000   10.800    0.000    0.400 
#    0.000    0.000    0.000    4.200    0.000    0.000 
#    0.000    0.000    0.000    0.000    0.000    0.000 
#
# Total GULP energy -224049.849863 kJ/mol
# GULP energy per Si atom -5601.246247 kJ/mol
# Density = 2.349226 g / cm^3
# Si number density = 23.545849 Si / 1000 Ang^3
#
#
#
# Elastic Constant Matrix: (Units=GPa)
#
#
# Indices 1 2 3 4 5 6 
#
# 1 71.2119 -2.1287 -1.0862 0.0000 0.0000 0.0000
# 2 -2.1287 108.6823 13.8292 0.0000 0.0000 0.0000
# 3 -1.0862 13.8292 98.8079 0.0000 0.0000 0.0000
# 4 0.0000 0.0000 0.0000 31.8305 0.0000 0.0000
# 5 0.0000 0.0000 0.0000 0.0000 17.5188 0.0000
# 6 0.0000 0.0000 0.0000 0.0000 0.0000 24.6406
#
#
#
# Elastic Compliance Matrix: (Units=1/GPa)
#
#
# Indices 1 2 3 4 5 6 
#
# 1 0.014052 0.000260 0.000118 0.000000 0.000000 0.000000
# 2 0.000260 0.009373 -0.001309 0.000000 0.000000 0.000000
# 3 0.000118 -0.001309 0.010305 0.000000 0.000000 0.000000
# 4 0.000000 0.000000 0.000000 0.031416 0.000000 0.000000
# 5 0.000000 0.000000 0.000000 0.000000 0.057081 0.000000
# 6 0.000000 0.000000 0.000000 0.000000 0.000000 0.040583
#
#
# Mechanical properties :
#
#
# Convention : Reuss Voigt Hill
#
# Bulk Modulus (GPa) = 31.37875 33.32565 32.35220
# Shear Modulus (GPa) = 28.52323 32.67050 30.59687
#
# Velocity S-wave (km/s) = 3.48428 3.72899 3.60871
# Velocity P-wave (km/s) = 5.43530 5.72056 5.57975
#
# Compressibility (1/GPa) = 0.03186870
#
# Stress axis : x y z
#
# Youngs Moduli (GPa) = 71.16340 106.69187 97.03889
#
# Poissons Ratio (x) = -0.02776 -0.01146
# Poissons Ratio (y) = -0.01852 0.12702
# Poissons Ratio (z) = -0.00840 0.13966
#
# Static dielectric constant tensor:
#      x y z
#    x 1.876210 0.000000 0.000000 
#    y 0.000000 1.992610 0.000000 
#    z 0.000000 0.000000 1.864970 
# 
# From -- ./inp_files/51289.got.cif
#   From: 2010.05.17/outbox.cif.g08.bks.cpg/sg68_26_cif.got.tgz:51289.got - 2010.06.03 18:57:09.
