data_PCOD9507184
_publ_section_title
;
Structure prediction by ZEFSAII (Michael W. Deem and Ramdas Pophale) SiO2 
 PCOD9507184
Probable space group: C C C A
;
_chemical_formula_sum "Si O2"
_cell_formula_units_Z 64
_cell_length_a 16.316521
_cell_length_b 11.384658
_cell_length_c 15.119655
_cell_angle_alpha 90.000000
_cell_angle_beta 90.000000
_cell_angle_gamma 90.000000
_cell_volume 2808.597045
_symmetry_space_group_name_H-M "C C C A"
_symmetry_group_IT_number 68
_space_group.IT_coordinate_system_code '2'
_symmetry_cell_setting 'orthorhombic'
loop_
_space_group_symop_operation_xyz
x,y,z
-x,1/2-y,z
x,1/2-y,1/2-z
-x,y,1/2-z
-x,-y,-z
x,1/2+y,-z
-x,1/2+y,1/2+z
x,-y,1/2+z
1/2+x,1/2+y,z
1/2-x,-y,z
1/2+x,-y,1/2-z
1/2-x,1/2+y,1/2-z
1/2-x,1/2-y,-z
1/2+x,y,-z
1/2-x,y,1/2+z
1/2+x,1/2-y,1/2+z
loop_
_atom_site_type_symbol
_atom_site_label
_atom_site_fract_x
_atom_site_fract_y
_atom_site_fract_z
Si Si1 0.837538 0.055944 0.345247
Si Si2 0.500000 0.750000 0.583039
Si Si3 0.910556 0.443647 0.487366
Si Si4 0.117678 0.925153 0.316532
Si Si5 0.241721 0.750000 0.750000
O O1 0.819044 0.189072 0.320423
O O2 0.750000 0.000000 0.325647
O O3 0.858149 0.017592 0.442964
O O4 0.897577 0.991673 0.276055
O O5 0.430174 0.812264 0.521912
O O6 0.453029 0.658869 0.646022
O O7 0.875369 0.472929 0.391020
O O8 0.000000 0.500000 0.500000
O O9 0.196533 0.840360 0.300289
#
# Coordination Sequence:
#
# PCOD9507184 Si02
#       5
#    16   8  16  16   8
#     4  10  22  38  59  92 123 161 213 255 308 378
#     4  10  20  39  64  89 124 166 208 263 316 361
#     4  10  23  38  60  93 123 160 211 256 310 377
#     4  10  22  40  65  92 123 165 212 257 312 380
#     4  10  22  39  60  87 128 168 202 262 320 360
#
# _framework density 22.787178000000001
#
# number of rings (size 3 to 8) (size 9 to 14) (size 15 to 20)
#    0.000    2.000    0.000    3.000    0.000   17.500 
#    0.000    0.000    0.000   12.000    0.000    0.000 
#    0.000    0.000    0.000    0.000    0.000    0.000 
#
# Total GULP energy -178434.872050 kJ/mol
# GULP energy per Si atom -5576.089752 kJ/mol
# Density = 2.273531 g / cm^3
# Si number density = 22.787178 Si / 1000 Ang^3
#
#
#
# Elastic Constant Matrix: (Units=GPa)
#
#
# Indices 1 2 3 4 5 6 
#
# 1 52.8648 35.7348 9.9739 0.0000 0.0000 0.0000
# 2 35.7348 57.7909 6.3153 0.0000 0.0000 0.0000
# 3 9.9739 6.3153 76.8436 0.0000 0.0000 0.0000
# 4 0.0000 0.0000 0.0000 26.3519 0.0000 0.0000
# 5 0.0000 0.0000 0.0000 0.0000 113.4172 0.0000
# 6 0.0000 0.0000 0.0000 0.0000 0.0000 24.8718
#
#
#
# Elastic Compliance Matrix: (Units=1/GPa)
#
#
# Indices 1 2 3 4 5 6 
#
# 1 0.033020 -0.020130 -0.002631 0.000000 0.000000 0.000000
# 2 -0.020130 0.029733 0.000169 0.000000 0.000000 0.000000
# 3 -0.002631 0.000169 0.013341 0.000000 0.000000 0.000000
# 4 0.000000 0.000000 0.000000 0.037948 0.000000 0.000000
# 5 0.000000 0.000000 0.000000 0.000000 0.008817 0.000000
# 6 0.000000 0.000000 0.000000 0.000000 0.000000 0.040206
#
#
# Mechanical properties :
#
#
# Convention : Reuss Voigt Hill
#
# Bulk Modulus (GPa) = 32.35310 32.39415 32.37363
# Shear Modulus (GPa) = 22.87778 41.95987 32.41882
#
# Velocity S-wave (km/s) = 3.17200 4.29579 3.77593
# Velocity P-wave (km/s) = 5.25777 6.23313 5.76611
#
# Compressibility (1/GPa) = 0.03090894
#
# Stress axis : x y z
#
# Youngs Moduli (GPa) = 30.28471 33.63298 74.95642
#
# Poissons Ratio (x) = 0.67704 0.19724
# Poissons Ratio (y) = 0.60964 -0.01269
# Poissons Ratio (z) = 0.07969 -0.00569
#
# Static dielectric constant tensor:
#      x y z
#    x 1.413910 0.000000 0.000000 
#    y 0.000000 1.963980 0.000000 
#    z 0.000000 0.000000 1.786030 
# 
# From -- ./inp_files/20482.got.cif
#   From: 2010.05.17/outbox.cif.g08.bks.cpg/sg68_11_cif.got.tgz:20482.got - 2010.06.03 18:57:09.
