data_PCOD9507920
_publ_section_title
;
Structure prediction by ZEFSAII (Michael W. Deem and Ramdas Pophale) SiO2 
 PCOD9507920
Probable space group: C C C A
;
_chemical_formula_sum "Si O2"
_cell_formula_units_Z 48
_cell_length_a 5.196903
_cell_length_b 14.172331
_cell_length_c 27.740942
_cell_angle_alpha 90.000000
_cell_angle_beta 90.000000
_cell_angle_gamma 90.000000
_cell_volume 2043.182226
_symmetry_space_group_name_H-M "C C C A"
_symmetry_group_IT_number 68
_space_group.IT_coordinate_system_code '2'
_symmetry_cell_setting 'orthorhombic'
loop_
_space_group_symop_operation_xyz
x,y,z
-x,1/2-y,z
x,1/2-y,1/2-z
-x,y,1/2-z
-x,-y,-z
x,1/2+y,-z
-x,1/2+y,1/2+z
x,-y,1/2+z
1/2+x,1/2+y,z
1/2-x,-y,z
1/2+x,-y,1/2-z
1/2-x,1/2+y,1/2-z
1/2-x,1/2-y,-z
1/2+x,y,-z
1/2-x,y,1/2+z
1/2+x,1/2-y,1/2+z
loop_
_atom_site_type_symbol
_atom_site_label
_atom_site_fract_x
_atom_site_fract_y
_atom_site_fract_z
Si Si1 0.745854 0.207875 0.696133
Si Si2 0.250000 0.000000 0.329604
Si Si3 0.750000 0.500000 0.106147
Si Si4 0.008569 0.637288 0.971666
O O1 0.500000 0.250000 0.669628
O O2 0.748143 0.250000 0.750000
O O3 0.000000 0.250000 0.672218
O O4 0.716691 0.096199 0.699692
O O5 0.503894 0.022461 0.360810
O O6 0.865049 0.417080 0.072778
O O7 0.000000 0.750000 0.964762
O O8 0.213531 0.613041 0.014559
#
# Coordination Sequence:
#
# PCOD9507920 Si02
#       4
#    16   8   8  16
#     4  10  23  43  68  92 123 167 215 268 322 395
#     4  12  26  41  63 100 132 168 216 272 338 385
#     4  12  24  39  63  94 136 168 206 276 332 377
#     4  10  21  39  63  90 124 173 222 258 308 385
#
# _framework density 23.492766
#
# number of rings (size 3 to 8) (size 9 to 14) (size 15 to 20)
#    0.000    1.333    0.000    5.000    0.000    9.333 
#    0.000    0.000    0.000    0.000    0.000    0.000 
#    0.000    0.000    0.000    0.000    0.000    0.000 
#
# Total GULP energy -134100.303283 kJ/mol
# GULP energy per Si atom -5587.512637 kJ/mol
# Density = 2.343930 g / cm^3
# Si number density = 23.492766 Si / 1000 Ang^3
#
#
#
# Elastic Constant Matrix: (Units=GPa)
#
#
# Indices 1 2 3 4 5 6 
#
# 1 197.6162 40.4336 20.1372 0.0000 0.0000 0.0000
# 2 40.4336 212.3555 45.1488 0.0000 0.0000 0.0000
# 3 20.1372 45.1488 64.0981 0.0000 0.0000 0.0000
# 4 0.0000 0.0000 0.0000 19.5932 0.0000 0.0000
# 5 0.0000 0.0000 0.0000 0.0000 -24.1605 0.0000
# 6 0.0000 0.0000 0.0000 0.0000 0.0000 33.7208
#
#
#
# Elastic Compliance Matrix: (Units=1/GPa)
#
#
# Indices 1 2 3 4 5 6 
#
# 1 0.005334 -0.000775 -0.001130 0.000000 0.000000 0.000000
# 2 -0.000775 0.005651 -0.003737 0.000000 0.000000 0.000000
# 3 -0.001130 -0.003737 0.018588 0.000000 0.000000 0.000000
# 4 0.000000 0.000000 0.000000 0.051038 0.000000 0.000000
# 5 0.000000 0.000000 0.000000 0.000000 -0.041390 0.000000
# 6 0.000000 0.000000 0.000000 0.000000 0.000000 0.029655
#
#
# Mechanical properties :
#
#
# Convention : Reuss Voigt Hill
#
# Bulk Modulus (GPa) = 54.67608 76.16769 65.42189
# Shear Modulus (GPa) = 57.96592 30.38737 44.17665
#
# Velocity S-wave (km/s) = 4.97268 3.60040 4.34110
# Velocity P-wave (km/s) = 7.50294 7.05521 7.28252
#
# Compressibility (1/GPa) = 0.01828953
#
# Stress axis : x y z
#
# Youngs Moduli (GPa) = 187.47362 176.95196 53.79773
#
# Poissons Ratio (x) = 0.13722 0.06077
# Poissons Ratio (y) = 0.14538 0.20104
# Poissons Ratio (z) = 0.21176 0.66126
#
# Static dielectric constant tensor:
#      x y z
#    x 1.856360 0.000000 0.000000 
#    y 0.000000 1.824150 0.000000 
#    z 0.000000 0.000000 1.722470 
# 
# From -- ./inp_files/47871.got.cif
#   From: 2010.05.17/outbox.cif.g08.bks.cpg/sg68_24_cif.got.tgz:47871.got - 2010.06.03 18:57:09.
