data_PCOD9507629
_publ_section_title
;
Structure prediction by ZEFSAII (Michael W. Deem and Ramdas Pophale) SiO2 
 PCOD9507629
Probable space group: C C C A
;
_chemical_formula_sum "Si O2"
_cell_formula_units_Z 80
_cell_length_a 4.858962
_cell_length_b 26.313805
_cell_length_c 28.199385
_cell_angle_alpha 90.000000
_cell_angle_beta 90.000000
_cell_angle_gamma 90.000000
_cell_volume 3605.510723
_symmetry_space_group_name_H-M "C C C A"
_symmetry_group_IT_number 68
_space_group.IT_coordinate_system_code '2'
_symmetry_cell_setting 'orthorhombic'
loop_
_space_group_symop_operation_xyz
x,y,z
-x,1/2-y,z
x,1/2-y,1/2-z
-x,y,1/2-z
-x,-y,-z
x,1/2+y,-z
-x,1/2+y,1/2+z
x,-y,1/2+z
1/2+x,1/2+y,z
1/2-x,-y,z
1/2+x,-y,1/2-z
1/2-x,1/2+y,1/2-z
1/2-x,1/2-y,-z
1/2+x,y,-z
1/2-x,y,1/2+z
1/2+x,1/2-y,1/2+z
loop_
_atom_site_type_symbol
_atom_site_label
_atom_site_fract_x
_atom_site_fract_y
_atom_site_fract_z
Si Si1 0.000000 0.659500 0.250000
Si Si2 0.750000 0.000000 0.821414
Si Si3 0.750000 0.500000 0.387020
Si Si4 0.025069 0.179458 0.030303
Si Si5 0.000000 0.250000 0.385877
Si Si6 0.000000 0.250000 0.820928
Si Si7 0.000000 0.915832 0.750000
Si Si8 0.445188 0.940840 0.030810
O O1 0.250915 0.622177 0.235925
O O2 0.914742 0.700305 0.209476
O O3 0.622781 0.045621 0.789729
O O4 0.495340 0.979572 0.853324
O O5 0.583535 0.537062 0.422330
O O6 0.046229 0.119524 0.036445
O O7 0.100475 0.206368 0.078663
O O8 0.720503 0.193261 0.013569
O O9 0.247322 0.232933 0.353016
O O10 0.133708 0.953176 0.015486
#
# Coordination Sequence:
#
# PCOD9507629 Si02
#       8
#     8   8   8  16   8   8   8  16
#     4  11  25  48  73  92 131 176 207 265 342 398
#     4  12  27  43  66 102 126 160 224 267 323 414
#     4  12  23  39  64  94 130 162 210 279 321 370
#     4  10  21  37  57  85 124 171 214 252 308 375
#     4  12  22  38  64  93 132 163 208 278 318 364
#     4  11  26  43  66 105 128 161 226 267 320 411
#     4  12  25  49  73  92 133 177 207 268 342 398
#     4  10  21  38  59  87 127 174 217 257 315 383
#
# _framework density 22.188255000000002
#
# number of rings (size 3 to 8) (size 9 to 14) (size 15 to 20)
#    0.000    1.000    0.000    7.200    0.000    6.400 
#    0.000    0.000    0.000    0.000    0.000    0.000 
#    0.000    0.000    0.000    0.000    0.000    0.000 
#
# Total GULP energy -223553.688053 kJ/mol
# GULP energy per Si atom -5588.842201 kJ/mol
# Density = 2.213775 g / cm^3
# Si number density = 22.188255 Si / 1000 Ang^3
#
#
#
# Elastic Constant Matrix: (Units=GPa)
#
#
# Indices 1 2 3 4 5 6 
#
# 1 117.5036 19.4677 34.7507 0.0000 0.0000 0.0000
# 2 19.4677 111.9724 34.4860 0.0000 0.0000 0.0000
# 3 34.7507 34.4860 102.8277 0.0000 0.0000 0.0000
# 4 0.0000 0.0000 0.0000 64.0493 0.0000 0.0000
# 5 0.0000 0.0000 0.0000 0.0000 38.6152 0.0000
# 6 0.0000 0.0000 0.0000 0.0000 0.0000 36.5784
#
#
#
# Elastic Compliance Matrix: (Units=1/GPa)
#
#
# Indices 1 2 3 4 5 6 
#
# 1 0.009510 -0.000740 -0.002966 0.000000 0.000000 0.000000
# 2 -0.000740 0.010017 -0.003109 0.000000 0.000000 0.000000
# 3 -0.002966 -0.003109 0.011770 0.000000 0.000000 0.000000
# 4 0.000000 0.000000 0.000000 0.015613 0.000000 0.000000
# 5 0.000000 0.000000 0.000000 0.000000 0.025897 0.000000
# 6 0.000000 0.000000 0.000000 0.000000 0.000000 0.027339
#
#
# Mechanical properties :
#
#
# Convention : Reuss Voigt Hill
#
# Bulk Modulus (GPa) = 56.60299 56.63472 56.61885
# Shear Modulus (GPa) = 41.78344 44.08855 42.93599
#
# Velocity S-wave (km/s) = 4.34422 4.46244 4.40372
# Velocity P-wave (km/s) = 7.12241 7.22019 7.17147
#
# Compressibility (1/GPa) = 0.01766691
#
# Stress axis : x y z
#
# Youngs Moduli (GPa) = 105.15163 99.82938 84.96099
#
# Poissons Ratio (x) = 0.07388 0.25197
# Poissons Ratio (y) = 0.07782 0.26418
# Poissons Ratio (z) = 0.31185 0.31041
#
# Static dielectric constant tensor:
#      x y z
#    x 1.808390 0.000000 0.000000 
#    y 0.000000 1.809680 0.000000 
#    z 0.000000 0.000000 1.789540 
# 
# From -- ./inp_files/48479.got.cif
#   From: 2010.05.17/outbox.cif.g08.bks.cpg/sg68_25_cif.got.tgz:48479.got - 2010.06.03 18:57:09.
