data_PCOD9507676
_publ_section_title
;
Structure prediction by ZEFSAII (Michael W. Deem and Ramdas Pophale) SiO2 
 PCOD9507676
Probable space group: C C C A
;
_chemical_formula_sum "Si O2"
_cell_formula_units_Z 104
_cell_length_a 8.776025
_cell_length_b 25.951423
_cell_length_c 22.423240
_cell_angle_alpha 90.000000
_cell_angle_beta 90.000000
_cell_angle_gamma 90.000000
_cell_volume 5106.900467
_symmetry_space_group_name_H-M "C C C A"
_symmetry_group_IT_number 68
_space_group.IT_coordinate_system_code '2'
_symmetry_cell_setting 'orthorhombic'
loop_
_space_group_symop_operation_xyz
x,y,z
-x,1/2-y,z
x,1/2-y,1/2-z
-x,y,1/2-z
-x,-y,-z
x,1/2+y,-z
-x,1/2+y,1/2+z
x,-y,1/2+z
1/2+x,1/2+y,z
1/2-x,-y,z
1/2+x,-y,1/2-z
1/2-x,1/2+y,1/2-z
1/2-x,1/2-y,-z
1/2+x,y,-z
1/2-x,y,1/2+z
1/2+x,1/2-y,1/2+z
loop_
_atom_site_type_symbol
_atom_site_label
_atom_site_fract_x
_atom_site_fract_y
_atom_site_fract_z
Si Si1 0.752160 0.441508 0.559096
Si Si2 0.500000 0.444759 0.750000
Si Si3 0.071390 0.628403 0.849419
Si Si4 0.280062 0.657317 0.646790
Si Si5 0.239441 0.729522 0.812748
Si Si6 0.750000 0.500000 0.832838
Si Si7 0.391414 0.923228 0.931286
Si Si8 0.000000 0.833575 0.250000
O O1 0.750000 0.500000 0.582939
O O2 0.647024 0.402816 0.596742
O O3 0.689810 0.440454 0.491832
O O4 0.928418 0.426835 0.561503
O O5 0.399994 0.406962 0.791602
O O6 0.614595 0.477368 0.791502
O O7 0.139291 0.685393 0.842347
O O8 0.889980 0.634957 0.851715
O O9 0.269266 0.719084 0.650087
O O10 0.353519 0.634984 0.587404
O O11 0.383182 0.639870 0.703913
O O12 0.171348 0.750000 0.750000
O O13 0.393858 0.701122 0.792374
O O14 0.673488 0.541797 0.877302
#
# Coordination Sequence:
#
# PCOD9507676 Si02
#       8
#    16   8  16  16  16   8  16   8
#     4  12  27  48  77  98 136 185 249 297 350 419
#     4  12  26  43  64 106 148 182 235 284 366 428
#     4  12  25  43  68 104 140 189 233 290 352 425
#     4  11  22  41  67 102 142 176 237 282 355 426
#     4  10  21  39  66 101 142 188 227 287 354 435
#     4  12  28  44  68 102 148 188 226 302 352 428
#     4  12  26  47  72 100 135 186 238 298 357 418
#     4  10  21  37  63 100 142 187 223 278 350 429
#
# _framework density 20.364604
#
# number of rings (size 3 to 8) (size 9 to 14) (size 15 to 20)
#    0.000    0.615    2.308    7.615    3.231    2.462 
#    0.000    0.769    0.000    1.846    0.000    0.000 
#    0.000    0.000    0.000    0.000    0.000    0.000 
#
# Total GULP energy -290679.056538 kJ/mol
# GULP energy per Si atom -5589.981857 kJ/mol
# Density = 2.031825 g / cm^3
# Si number density = 20.364604 Si / 1000 Ang^3
#
#
#
# Elastic Constant Matrix: (Units=GPa)
#
#
# Indices 1 2 3 4 5 6 
#
# 1 167.0998 41.8478 51.9618 0.0000 0.0000 0.0000
# 2 41.8478 106.5886 46.6744 0.0000 0.0000 0.0000
# 3 51.9618 46.6744 89.0560 0.0000 0.0000 0.0000
# 4 0.0000 0.0000 0.0000 33.1274 0.0000 0.0000
# 5 0.0000 0.0000 0.0000 0.0000 19.0340 0.0000
# 6 0.0000 0.0000 0.0000 0.0000 0.0000 29.9251
#
#
#
# Elastic Compliance Matrix: (Units=1/GPa)
#
#
# Indices 1 2 3 4 5 6 
#
# 1 0.007453 -0.001326 -0.003653 0.000000 0.000000 0.000000
# 2 -0.001326 0.012412 -0.005732 0.000000 0.000000 0.000000
# 3 -0.003653 -0.005732 0.016364 0.000000 0.000000 0.000000
# 4 0.000000 0.000000 0.000000 0.030186 0.000000 0.000000
# 5 0.000000 0.000000 0.000000 0.000000 0.052537 0.000000
# 6 0.000000 0.000000 0.000000 0.000000 0.000000 0.033417
#
#
# Mechanical properties :
#
#
# Convention : Reuss Voigt Hill
#
# Bulk Modulus (GPa) = 67.53452 71.52360 69.52906
# Shear Modulus (GPa) = 27.97547 31.23467 29.60507
#
# Velocity S-wave (km/s) = 3.71041 3.92059 3.81695
# Velocity P-wave (km/s) = 7.18268 7.46274 7.32405
#
# Compressibility (1/GPa) = 0.01480724
#
# Stress axis : x y z
#
# Youngs Moduli (GPa) = 134.18088 80.56495 61.10824
#
# Poissons Ratio (x) = 0.10685 0.22325
# Poissons Ratio (y) = 0.17795 0.35024
# Poissons Ratio (z) = 0.49021 0.46176
#
# Static dielectric constant tensor:
#      x y z
#    x 1.776730 0.000000 0.000000 
#    y 0.000000 1.756770 0.000000 
#    z 0.000000 0.000000 1.723330 
# 
# From -- ./inp_files/36624.got.cif
#   From: 2010.05.17/outbox.cif.g08.bks.cpg/sg68_19_cif.got.tgz:36624.got - 2010.06.03 18:57:09.
