data_PCOD9507223
_publ_section_title
;
Structure prediction by ZEFSAII (Michael W. Deem and Ramdas Pophale) SiO2 
 PCOD9507223
Probable space group: C C C A
;
_chemical_formula_sum "Si O2"
_cell_formula_units_Z 120
_cell_length_a 19.934977
_cell_length_b 11.422860
_cell_length_c 23.522806
_cell_angle_alpha 90.000000
_cell_angle_beta 90.000000
_cell_angle_gamma 90.000000
_cell_volume 5356.482863
_symmetry_space_group_name_H-M "C C C A"
_symmetry_group_IT_number 68
_space_group.IT_coordinate_system_code '2'
_symmetry_cell_setting 'orthorhombic'
loop_
_space_group_symop_operation_xyz
x,y,z
-x,1/2-y,z
x,1/2-y,1/2-z
-x,y,1/2-z
-x,-y,-z
x,1/2+y,-z
-x,1/2+y,1/2+z
x,-y,1/2+z
1/2+x,1/2+y,z
1/2-x,-y,z
1/2+x,-y,1/2-z
1/2-x,1/2+y,1/2-z
1/2-x,1/2-y,-z
1/2+x,y,-z
1/2-x,y,1/2+z
1/2+x,1/2-y,1/2+z
loop_
_atom_site_type_symbol
_atom_site_label
_atom_site_fract_x
_atom_site_fract_y
_atom_site_fract_z
Si Si1 0.869015 0.272759 0.424962
Si Si2 0.233523 0.866162 0.084295
Si Si3 0.394597 0.756350 0.543630
Si Si4 0.173039 0.030671 0.907166
Si Si5 0.288727 0.126707 0.218642
Si Si6 0.000000 0.250000 0.859725
Si Si7 0.902141 0.070346 0.702596
Si Si8 0.075172 0.704121 0.693492
O O1 0.796070 0.214847 0.432748
O O2 0.916601 0.247631 0.478378
O O3 0.865205 0.411749 0.419185
O O4 0.892281 0.239490 0.362112
O O5 0.168553 0.841659 0.046953
O O6 0.217449 0.849127 0.151288
O O7 0.250000 0.000000 0.076100
O O8 0.361360 0.631905 0.557527
O O9 0.444815 0.793441 0.593855
O O10 0.250000 0.000000 0.916998
O O11 0.159678 0.071714 0.842508
O O12 0.268368 0.250000 0.250000
O O13 0.366181 0.105203 0.238692
O O14 0.250000 0.000000 0.229670
O O15 0.039430 0.155616 0.820836
O O16 0.925830 0.936248 0.699387
O O17 0.110868 0.750000 0.750000
O O18 0.000000 0.750000 0.692771
#
# Coordination Sequence:
#
# PCOD9507223 Si02
#       8
#    16  16  16  16  16   8  16  16
#     4  11  25  40  72 100 136 182 230 300 361 422
#     4  11  26  41  65 110 142 181 228 300 371 422
#     4  11  24  44  68 102 142 183 238 294 350 431
#     4  10  20  39  67  97 131 180 227 283 360 428
#     4  11  25  42  72 110 146 190 238 303 375 443
#     4  10  24  48  71 102 141 192 252 286 354 416
#     4  10  23  45  70 100 137 191 238 296 352 433
#     4  10  25  48  69  97 135 185 240 288 360 427
#
# _framework density 22.402759
#
# number of rings (size 3 to 8) (size 9 to 14) (size 15 to 20)
#    0.000    1.467    1.333    2.400   10.267    1.067 
#    7.200    2.667    0.000    0.000    0.000    0.000 
#    0.000    0.000    0.000    0.000    0.000    0.000 
#
# Total GULP energy -335001.481094 kJ/mol
# GULP energy per Si atom -5583.358018 kJ/mol
# Density = 2.235177 g / cm^3
# Si number density = 22.402759 Si / 1000 Ang^3
#
#
#
# Elastic Constant Matrix: (Units=GPa)
#
#
# Indices 1 2 3 4 5 6 
#
# 1 90.9136 16.6062 29.9215 0.0000 0.0000 0.0000
# 2 16.6062 97.5764 24.9179 0.0000 0.0000 0.0000
# 3 29.9215 24.9179 112.7383 0.0000 0.0000 0.0000
# 4 0.0000 0.0000 0.0000 -120.6015 0.0000 0.0000
# 5 0.0000 0.0000 0.0000 0.0000 -391.9608 0.0000
# 6 0.0000 0.0000 0.0000 0.0000 0.0000 23.3408
#
#
#
# Elastic Compliance Matrix: (Units=1/GPa)
#
#
# Indices 1 2 3 4 5 6 
#
# 1 0.012212 -0.001325 -0.002948 0.000000 0.000000 0.000000
# 2 -0.001325 0.011005 -0.002081 0.000000 0.000000 0.000000
# 3 -0.002948 -0.002081 0.010112 0.000000 0.000000 0.000000
# 4 0.000000 0.000000 0.000000 -0.008292 0.000000 0.000000
# 5 0.000000 0.000000 0.000000 0.000000 -0.002551 0.000000
# 6 0.000000 0.000000 0.000000 0.000000 0.000000 0.042843
#
#
# Mechanical properties :
#
#
# Convention : Reuss Voigt Hill
#
# Bulk Modulus (GPa) = 48.49406 49.34663 48.92035
# Shear Modulus (GPa) = 58.88443 -82.52546 -11.82051
#
# Velocity S-wave (km/s) = 5.13240 -6.07595 -2.29953
# Velocity P-wave (km/s) = 7.53760 5.21038 3.85146
#
# Compressibility (1/GPa) = 0.02062108
#
# Stress axis : x y z
#
# Youngs Moduli (GPa) = 81.88768 90.86539 98.88815
#
# Poissons Ratio (x) = 0.12044 0.29154
# Poissons Ratio (y) = 0.10854 0.20575
# Poissons Ratio (z) = 0.24142 0.18906
#
# Static dielectric constant tensor:
#      x y z
#    x 1.857990 0.000000 0.000000 
#    y 0.000000 1.788470 0.000000 
#    z 0.000000 0.000000 1.965890 
# 
# From -- ./inp_files/46709.got.cif
#   From: 2010.05.17/outbox.cif.g08.bks.cpg/sg68_24_cif.got.tgz:46709.got - 2010.06.03 18:57:09.
