data_PCOD9507100
_publ_section_title
;
Structure prediction by ZEFSAII (Michael W. Deem and Ramdas Pophale) SiO2 
 PCOD9507100
Probable space group: C C C A
;
_chemical_formula_sum "Si O2"
_cell_formula_units_Z 112
_cell_length_a 14.499386
_cell_length_b 15.370918
_cell_length_c 22.693966
_cell_angle_alpha 90.000000
_cell_angle_beta 90.000000
_cell_angle_gamma 90.000000
_cell_volume 5057.778632
_symmetry_space_group_name_H-M "C C C A"
_symmetry_group_IT_number 68
_space_group.IT_coordinate_system_code '2'
_symmetry_cell_setting 'orthorhombic'
loop_
_space_group_symop_operation_xyz
x,y,z
-x,1/2-y,z
x,1/2-y,1/2-z
-x,y,1/2-z
-x,-y,-z
x,1/2+y,-z
-x,1/2+y,1/2+z
x,-y,1/2+z
1/2+x,1/2+y,z
1/2-x,-y,z
1/2+x,-y,1/2-z
1/2-x,1/2+y,1/2-z
1/2-x,1/2-y,-z
1/2+x,y,-z
1/2-x,y,1/2+z
1/2+x,1/2-y,1/2+z
loop_
_atom_site_type_symbol
_atom_site_label
_atom_site_fract_x
_atom_site_fract_y
_atom_site_fract_z
Si Si1 0.894806 0.779768 0.911207
Si Si2 0.222627 0.657804 0.222059
Si Si3 0.285214 0.825984 0.916480
Si Si4 0.916903 0.442579 0.705792
Si Si5 0.568517 0.817447 0.902486
Si Si6 0.935610 0.413407 0.990815
Si Si7 0.591124 0.142573 0.785598
O O1 0.819590 0.706294 0.930008
O O2 0.879704 0.802807 0.842720
O O3 0.000000 0.750000 0.915714
O O4 0.896965 0.867666 0.950180
O O5 0.189676 0.750000 0.250000
O O6 0.208637 0.653642 0.152753
O O7 0.171688 0.581780 0.256455
O O8 0.328529 0.648284 0.238355
O O9 0.343882 0.736657 0.924051
O O10 0.342030 0.902979 0.949969
O O11 0.911928 0.391670 0.644487
O O12 0.923436 0.544117 0.693184
O O13 0.000000 0.417346 0.750000
O O14 0.500000 0.750000 0.870254
O O15 0.508814 0.852303 0.956763
O O16 0.000000 0.500000 0.000000
O O17 0.500000 0.165250 0.750000
#
# Coordination Sequence:
#
# PCOD9507100 Si02
#       7
#    16  16  16  16  16  16  16
#     4  12  24  43  69  96 132 182 240 286 341 427
#     4  12  22  39  66  99 132 174 231 281 341 420
#     4  11  23  42  69  98 131 179 234 289 346 423
#     4  11  22  36  60  97 133 169 215 281 357 415
#     4  10  20  38  65  92 127 170 224 284 338 412
#     4  11  25  45  67  97 137 176 228 293 361 420
#     4  11  25  41  63  95 139 183 224 284 354 417
#
# _framework density 22.144107000000002
#
# number of rings (size 3 to 8) (size 9 to 14) (size 15 to 20)
#    0.000    0.857    2.857    5.571    0.000    1.143 
#    0.000    5.714    0.000    0.000    0.000    0.000 
#    0.000    0.000    0.000    0.000    0.000    0.000 
#
# Total GULP energy -312640.459237 kJ/mol
# GULP energy per Si atom -5582.865344 kJ/mol
# Density = 2.209371 g / cm^3
# Si number density = 22.144107 Si / 1000 Ang^3
#
#
#
# Elastic Constant Matrix: (Units=GPa)
#
#
# Indices 1 2 3 4 5 6 
#
# 1 129.6391 25.2818 19.2948 0.0000 0.0000 0.0000
# 2 25.2818 88.8786 25.1196 0.0000 0.0000 0.0000
# 3 19.2948 25.1196 111.8282 0.0000 0.0000 0.0000
# 4 0.0000 0.0000 0.0000 19.5000 0.0000 0.0000
# 5 0.0000 0.0000 0.0000 0.0000 29.3279 0.0000
# 6 0.0000 0.0000 0.0000 0.0000 0.0000 38.0992
#
#
#
# Elastic Compliance Matrix: (Units=1/GPa)
#
#
# Indices 1 2 3 4 5 6 
#
# 1 0.008262 -0.002079 -0.000958 0.000000 0.000000 0.000000
# 2 -0.002079 0.012537 -0.002457 0.000000 0.000000 0.000000
# 3 -0.000958 -0.002457 0.009660 0.000000 0.000000 0.000000
# 4 0.000000 0.000000 0.000000 0.051282 0.000000 0.000000
# 5 0.000000 0.000000 0.000000 0.000000 0.034097 0.000000
# 6 0.000000 0.000000 0.000000 0.000000 0.000000 0.026247
#
#
# Mechanical properties :
#
#
# Convention : Reuss Voigt Hill
#
# Bulk Modulus (GPa) = 51.36490 52.19314 51.77902
# Shear Modulus (GPa) = 31.33515 34.76205 33.04860
#
# Velocity S-wave (km/s) = 3.76580 3.96638 3.86739
# Velocity P-wave (km/s) = 6.49265 6.67811 6.58603
#
# Compressibility (1/GPa) = 0.01946855
#
# Stress axis : x y z
#
# Youngs Moduli (GPa) = 121.03814 79.76201 103.52316
#
# Poissons Ratio (x) = 0.16584 0.09922
# Poissons Ratio (y) = 0.25167 0.25440
# Poissons Ratio (z) = 0.11601 0.19601
#
# Static dielectric constant tensor:
#      x y z
#    x 1.814070 0.000000 0.000000 
#    y 0.000000 1.872080 0.000000 
#    z 0.000000 0.000000 1.817540 
# 
# From -- ./inp_files/45553.got.cif
#   From: 2010.05.17/outbox.cif.g08.bks.cpg/sg68_23_cif.got.tgz:45553.got - 2010.06.03 18:57:09.
