data_PCOD9507360
_publ_section_title
;
Structure prediction by ZEFSAII (Michael W. Deem and Ramdas Pophale) SiO2 
 PCOD9507360
Probable space group: C C C A
;
_chemical_formula_sum "Si O2"
_cell_formula_units_Z 60
_cell_length_a 29.998335
_cell_length_b 5.521096
_cell_length_c 15.584530
_cell_angle_alpha 90.000000
_cell_angle_beta 90.000000
_cell_angle_gamma 90.000000
_cell_volume 2581.167325
_symmetry_space_group_name_H-M "C C C A"
_symmetry_group_IT_number 68
_space_group.IT_coordinate_system_code '2'
_symmetry_cell_setting 'orthorhombic'
loop_
_space_group_symop_operation_xyz
x,y,z
-x,1/2-y,z
x,1/2-y,1/2-z
-x,y,1/2-z
-x,-y,-z
x,1/2+y,-z
-x,1/2+y,1/2+z
x,-y,1/2+z
1/2+x,1/2+y,z
1/2-x,-y,z
1/2+x,-y,1/2-z
1/2-x,1/2+y,1/2-z
1/2-x,1/2-y,-z
1/2+x,y,-z
1/2-x,y,1/2+z
1/2+x,1/2-y,1/2+z
loop_
_atom_site_type_symbol
_atom_site_label
_atom_site_fract_x
_atom_site_fract_y
_atom_site_fract_z
Si Si1 0.301004 0.919577 0.407311
Si Si2 0.572505 0.402306 0.667658
Si Si3 0.835026 0.084802 0.896800
Si Si4 0.500000 0.750000 0.050482
Si Si5 0.500000 0.750000 0.750000
O O1 0.323736 0.894629 0.501496
O O2 0.323037 0.150069 0.360481
O O3 0.250000 0.000000 0.420038
O O4 0.307359 0.653438 0.366808
O O5 0.587823 0.250000 0.750000
O O6 0.613868 0.527841 0.622512
O O7 0.545440 0.230033 0.604667
O O8 0.533619 0.586193 0.695695
O O9 0.500000 0.500000 0.000000
#
# Coordination Sequence:
#
# PCOD9507360 Si02
#       5
#    16  16  16   8   4
#     4  10  20  41  68 106 142 178 221 297 369 412
#     4  12  27  47  70 101 146 200 237 289 371 433
#     4  10  22  35  68 101 132 175 238 280 333 430
#     4  12  28  44  73 103 140 180 246 314 350 418
#     4  12  24  52  72  88 148 210 242 270 366 446
#
# _framework density 23.245297999999998
#
# number of rings (size 3 to 8) (size 9 to 14) (size 15 to 20)
#    0.000    1.067    2.667    4.800   11.200    0.000 
#    0.000    0.000    0.000    4.800    0.000    0.000 
#    0.000    0.000    0.000    0.000    0.000    0.000 
#
# Total GULP energy -167723.327503 kJ/mol
# GULP energy per Si atom -5590.777583 kJ/mol
# Density = 2.319239 g / cm^3
# Si number density = 23.245298 Si / 1000 Ang^3
#
#
#
# Elastic Constant Matrix: (Units=GPa)
#
#
# Indices 1 2 3 4 5 6 
#
# 1 118.7499 -3.4071 16.2177 0.0000 0.0000 0.0000
# 2 -3.4071 152.4158 7.2621 0.0000 0.0000 0.0000
# 3 16.2177 7.2621 32.2018 0.0000 0.0000 0.0000
# 4 0.0000 0.0000 0.0000 43.8276 0.0000 0.0000
# 5 0.0000 0.0000 0.0000 0.0000 42.0817 0.0000
# 6 0.0000 0.0000 0.0000 0.0000 0.0000 38.9540
#
#
#
# Elastic Compliance Matrix: (Units=1/GPa)
#
#
# Indices 1 2 3 4 5 6 
#
# 1 0.009070 0.000425 -0.004664 0.000000 0.000000 0.000000
# 2 0.000425 0.006652 -0.001714 0.000000 0.000000 0.000000
# 3 -0.004664 -0.001714 0.033790 0.000000 0.000000 0.000000
# 4 0.000000 0.000000 0.000000 0.022817 0.000000 0.000000
# 5 0.000000 0.000000 0.000000 0.000000 0.023763 0.000000
# 6 0.000000 0.000000 0.000000 0.000000 0.000000 0.025671
#
#
# Mechanical properties :
#
#
# Convention : Reuss Voigt Hill
#
# Bulk Modulus (GPa) = 26.59165 38.16809 32.37987
# Shear Modulus (GPa) = 34.19864 43.85899 39.02882
#
# Velocity S-wave (km/s) = 3.83979 4.34843 4.10200
# Velocity P-wave (km/s) = 5.57881 6.45501 6.03284
#
# Compressibility (1/GPa) = 0.03760579
#
# Stress axis : x y z
#
# Youngs Moduli (GPa) = 110.25115 150.32673 29.59492
#
# Poissons Ratio (x) = -0.06388 0.13803
# Poissons Ratio (y) = -0.04685 0.05073
# Poissons Ratio (z) = 0.51419 0.25769
#
# Static dielectric constant tensor:
#      x y z
#    x 1.853040 0.000000 0.000000 
#    y 0.000000 1.970990 0.000000 
#    z 0.000000 0.000000 2.479900 
# 
# From -- ./inp_files/33876.got.cif
#   From: 2010.05.17/outbox.cif.g08.bks.cpg/sg68_17_cif.got.tgz:33876.got - 2010.06.03 18:57:09.
