data_PCOD9507469
_publ_section_title
;
Structure prediction by ZEFSAII (Michael W. Deem and Ramdas Pophale) SiO2 
 PCOD9507469
Probable space group: C C C A
;
_chemical_formula_sum "Si O2"
_cell_formula_units_Z 120
_cell_length_a 28.226642
_cell_length_b 7.856875
_cell_length_c 27.743134
_cell_angle_alpha 90.000000
_cell_angle_beta 90.000000
_cell_angle_gamma 90.000000
_cell_volume 6152.683546
_symmetry_space_group_name_H-M "C C C A"
_symmetry_group_IT_number 68
_space_group.IT_coordinate_system_code '2'
_symmetry_cell_setting 'orthorhombic'
loop_
_space_group_symop_operation_xyz
x,y,z
-x,1/2-y,z
x,1/2-y,1/2-z
-x,y,1/2-z
-x,-y,-z
x,1/2+y,-z
-x,1/2+y,1/2+z
x,-y,1/2+z
1/2+x,1/2+y,z
1/2-x,-y,z
1/2+x,-y,1/2-z
1/2-x,1/2+y,1/2-z
1/2-x,1/2-y,-z
1/2+x,y,-z
1/2-x,y,1/2+z
1/2+x,1/2-y,1/2+z
loop_
_atom_site_type_symbol
_atom_site_label
_atom_site_fract_x
_atom_site_fract_y
_atom_site_fract_z
Si Si1 0.197055 0.539895 0.147886
Si Si2 0.445160 0.727802 0.844641
Si Si3 0.602743 0.387819 0.678800
Si Si4 0.608007 0.492532 0.788227
Si Si5 0.136223 0.225175 0.921293
Si Si6 0.154695 0.908937 0.989504
Si Si7 0.329440 0.693565 0.406413
Si Si8 0.250000 0.000000 0.535639
O O1 0.250000 0.500000 0.164541
O O2 0.158711 0.545056 0.190112
O O3 0.182586 0.697756 0.112884
O O4 0.185493 0.372711 0.116958
O O5 0.500000 0.750000 0.855313
O O6 0.436403 0.527514 0.834971
O O7 0.428207 0.855521 0.801579
O O8 0.409499 0.780839 0.887673
O O9 0.616143 0.451440 0.732294
O O10 0.642232 0.398975 0.636548
O O11 0.591931 0.186107 0.686065
O O12 0.134968 0.385786 0.956647
O O13 0.139887 0.073051 0.959683
O O14 0.211527 0.909467 0.000609
O O15 0.141534 0.756388 0.953227
O O16 0.283297 0.606753 0.428687
#
# Coordination Sequence:
#
# PCOD9507469 Si02
#       8
#    16  16  16  16  16  16  16   8
#     4   9  18  34  57  82 126 163 204 249 299 357
#     4  11  24  43  67  95 121 152 207 261 321 385
#     4  10  21  42  65  85 129 160 196 256 317 373
#     4   9  21  41  65  94 120 165 201 248 317 374
#     4  10  22  37  58  84 118 161 199 252 311 357
#     4  11  21  35  56  81 123 161 212 248 306 355
#     4  10  21  32  52  85 118 165 203 253 305 358
#     4  12  20  30  52  86 118 160 222 256 290 350
#
# _framework density 19.503685000000001
#
# number of rings (size 3 to 8) (size 9 to 14) (size 15 to 20)
#    0.000    1.867    1.333    3.200    3.733    2.667 
#    1.200    2.000    8.800    0.000    0.000    0.000 
#    0.000    0.000    0.000    0.000    0.000    0.000 
#
# Total GULP energy -334079.132894 kJ/mol
# GULP energy per Si atom -5567.985548 kJ/mol
# Density = 1.945929 g / cm^3
# Si number density = 19.503685 Si / 1000 Ang^3
#
#
#
# Elastic Constant Matrix: (Units=GPa)
#
#
# Indices 1 2 3 4 5 6 
#
# 1 93.4921 19.4355 29.5464 0.0000 0.0000 0.0000
# 2 19.4355 64.5559 21.2603 0.0000 0.0000 0.0000
# 3 29.5464 21.2603 89.3093 0.0000 0.0000 0.0000
# 4 0.0000 0.0000 0.0000 29.7802 0.0000 0.0000
# 5 0.0000 0.0000 0.0000 0.0000 7.0538 0.0000
# 6 0.0000 0.0000 0.0000 0.0000 0.0000 23.3760
#
#
#
# Elastic Compliance Matrix: (Units=1/GPa)
#
#
# Indices 1 2 3 4 5 6 
#
# 1 0.012326 -0.002569 -0.003466 0.000000 0.000000 0.000000
# 2 -0.002569 0.017344 -0.003279 0.000000 0.000000 0.000000
# 3 -0.003466 -0.003279 0.013124 0.000000 0.000000 0.000000
# 4 0.000000 0.000000 0.000000 0.033579 0.000000 0.000000
# 5 0.000000 0.000000 0.000000 0.000000 0.141768 0.000000
# 6 0.000000 0.000000 0.000000 0.000000 0.000000 0.042779
#
#
# Mechanical properties :
#
#
# Convention : Reuss Voigt Hill
#
# Bulk Modulus (GPa) = 41.38148 43.09352 42.23750
# Shear Modulus (GPa) = 17.38503 23.84965 20.61734
#
# Velocity S-wave (km/s) = 2.98882 3.50069 3.25483
# Velocity P-wave (km/s) = 5.75969 6.20345 5.98569
#
# Compressibility (1/GPa) = 0.02416540
#
# Stress axis : x y z
#
# Youngs Moduli (GPa) = 81.13194 57.65759 76.19488
#
# Poissons Ratio (x) = 0.14814 0.26410
# Poissons Ratio (y) = 0.20845 0.24982
# Poissons Ratio (z) = 0.28121 0.18904
#
# Static dielectric constant tensor:
#      x y z
#    x 1.643870 0.000000 0.000000 
#    y 0.000000 1.851450 0.000000 
#    z 0.000000 0.000000 1.713750 
# 
# From -- ./inp_files/52395.got.cif
#   From: 2010.05.17/outbox.cif.g08.bks.cpg/sg68_27_cif.got.tgz:52395.got - 2010.06.03 18:57:09.
