data_PCOD9507214
_publ_section_title
;
Structure prediction by ZEFSAII (Michael W. Deem and Ramdas Pophale) SiO2 
 PCOD9507214
Probable space group: C C C A
;
_chemical_formula_sum "Si O2"
_cell_formula_units_Z 92
_cell_length_a 21.916697
_cell_length_b 7.801634
_cell_length_c 24.231337
_cell_angle_alpha 90.000000
_cell_angle_beta 90.000000
_cell_angle_gamma 90.000000
_cell_volume 4143.220563
_symmetry_space_group_name_H-M "C C C A"
_symmetry_group_IT_number 68
_space_group.IT_coordinate_system_code '2'
_symmetry_cell_setting 'orthorhombic'
loop_
_space_group_symop_operation_xyz
x,y,z
-x,1/2-y,z
x,1/2-y,1/2-z
-x,y,1/2-z
-x,-y,-z
x,1/2+y,-z
-x,1/2+y,1/2+z
x,-y,1/2+z
1/2+x,1/2+y,z
1/2-x,-y,z
1/2+x,-y,1/2-z
1/2-x,1/2+y,1/2-z
1/2-x,1/2-y,-z
1/2+x,y,-z
1/2-x,y,1/2+z
1/2+x,1/2-y,1/2+z
loop_
_atom_site_type_symbol
_atom_site_label
_atom_site_fract_x
_atom_site_fract_y
_atom_site_fract_z
Si Si1 0.331438 0.750000 0.750000
Si Si2 0.500000 0.750000 0.250000
Si Si3 0.435359 0.839923 0.069211
Si Si4 0.625403 0.983542 0.020142
Si Si5 0.291943 0.277879 0.447467
Si Si6 0.605894 0.435649 0.685780
Si Si7 0.766270 0.698143 0.670348
O O1 0.371401 0.605101 0.781239
O O2 0.282337 0.687906 0.703806
O O3 0.454234 0.635982 0.285701
O O4 0.500000 0.750000 0.080754
O O5 0.389418 0.683010 0.055445
O O6 0.412940 0.951385 0.121381
O O7 0.433305 0.943419 0.011616
O O8 0.659670 0.123733 0.056439
O O9 0.669151 0.939790 0.967956
O O10 0.250000 0.250000 0.500000
O O11 0.251471 0.285887 0.393412
O O12 0.662263 0.298068 0.684787
O O13 0.750000 0.500000 0.684184
#
# Coordination Sequence:
#
# PCOD9507214 Si02
#       7
#     8   4  16  16  16  16  16
#     4  10  23  43  70  99 125 176 234 294 364 418
#     4  12  26  46  64  88 130 186 240 294 352 400
#     4  11  22  43  66  98 139 193 236 285 342 416
#     4  10  22  36  64 101 144 184 223 279 344 429
#     4  11  20  36  61 101 141 179 218 274 357 425
#     4  11  24  44  69  95 136 183 238 293 353 423
#     4  10  20  39  66  98 132 166 219 290 356 421
#
# _framework density 22.204948999999999
#
# number of rings (size 3 to 8) (size 9 to 14) (size 15 to 20)
#    0.000    1.391    0.870    6.783    0.000    1.739 
#    0.000    6.957    7.652    0.000    0.000    0.000 
#    0.000    0.000    0.000    0.000    0.000    0.000 
#
# Total GULP energy -256680.888017 kJ/mol
# GULP energy per Si atom -5580.019305 kJ/mol
# Density = 2.215441 g / cm^3
# Si number density = 22.204949 Si / 1000 Ang^3
#
#
#
# Elastic Constant Matrix: (Units=GPa)
#
#
# Indices 1 2 3 4 5 6 
#
# 1 151.0995 37.0561 57.4221 0.0000 0.0000 0.0000
# 2 37.0561 84.3664 38.4076 0.0000 0.0000 0.0000
# 3 57.4221 38.4076 122.1630 0.0000 0.0000 0.0000
# 4 0.0000 0.0000 0.0000 34.8439 0.0000 0.0000
# 5 0.0000 0.0000 0.0000 0.0000 40.3137 0.0000
# 6 0.0000 0.0000 0.0000 0.0000 0.0000 32.0480
#
#
#
# Elastic Compliance Matrix: (Units=1/GPa)
#
#
# Indices 1 2 3 4 5 6 
#
# 1 0.008395 -0.002207 -0.003252 0.000000 0.000000 0.000000
# 2 -0.002207 0.014413 -0.003494 0.000000 0.000000 0.000000
# 3 -0.003252 -0.003494 0.010813 0.000000 0.000000 0.000000
# 4 0.000000 0.000000 0.000000 0.028699 0.000000 0.000000
# 5 0.000000 0.000000 0.000000 0.000000 0.024805 0.000000
# 6 0.000000 0.000000 0.000000 0.000000 0.000000 0.031203
#
#
# Mechanical properties :
#
#
# Convention : Reuss Voigt Hill
#
# Bulk Modulus (GPa) = 63.63404 69.26673 66.45038
# Shear Modulus (GPa) = 35.34206 36.42399 35.88303
#
# Velocity S-wave (km/s) = 3.99385 4.05452 4.02430
# Velocity P-wave (km/s) = 7.07019 7.29252 7.18222
#
# Compressibility (1/GPa) = 0.01571486
#
# Stress axis : x y z
#
# Youngs Moduli (GPa) = 119.11331 69.38164 92.48056
#
# Poissons Ratio (x) = 0.15311 0.30078
# Poissons Ratio (y) = 0.26286 0.32314
# Poissons Ratio (z) = 0.38740 0.24243
#
# Static dielectric constant tensor:
#      x y z
#    x 1.893520 0.000000 0.000000 
#    y 0.000000 1.929840 0.000000 
#    z 0.000000 0.000000 1.863720 
# 
# From -- ./inp_files/46529.got.cif
#   From: 2010.05.17/outbox.cif.g08.bks.cpg/sg68_24_cif.got.tgz:46529.got - 2010.06.03 18:57:09.
