data_PCOD9507253
_publ_section_title
;
Structure prediction by ZEFSAII (Michael W. Deem and Ramdas Pophale) SiO2 
 PCOD9507253
Probable space group: C C C A
;
_chemical_formula_sum "Si O2"
_cell_formula_units_Z 68
_cell_length_a 22.906152
_cell_length_b 15.197281
_cell_length_c 8.553456
_cell_angle_alpha 90.000000
_cell_angle_beta 90.000000
_cell_angle_gamma 90.000000
_cell_volume 2977.554077
_symmetry_space_group_name_H-M "C C C A"
_symmetry_group_IT_number 68
_space_group.IT_coordinate_system_code '2'
_symmetry_cell_setting 'orthorhombic'
loop_
_space_group_symop_operation_xyz
x,y,z
-x,1/2-y,z
x,1/2-y,1/2-z
-x,y,1/2-z
-x,-y,-z
x,1/2+y,-z
-x,1/2+y,1/2+z
x,-y,1/2+z
1/2+x,1/2+y,z
1/2-x,-y,z
1/2+x,-y,1/2-z
1/2-x,1/2+y,1/2-z
1/2-x,1/2-y,-z
1/2+x,y,-z
1/2-x,y,1/2+z
1/2+x,1/2-y,1/2+z
loop_
_atom_site_type_symbol
_atom_site_label
_atom_site_fract_x
_atom_site_fract_y
_atom_site_fract_z
Si Si1 0.000000 0.033902 0.250000
Si Si2 0.662866 0.787275 0.417627
Si Si3 0.500000 0.750000 0.750000
Si Si4 0.436409 0.894060 0.950609
Si Si5 0.290528 0.129076 0.076329
Si Si6 0.750000 0.000000 0.682810
O O1 0.050320 0.973487 0.330623
O O2 0.973362 0.087568 0.392845
O O3 0.641631 0.750000 0.250000
O O4 0.627178 0.868220 0.488195
O O5 0.663998 0.705958 0.540348
O O6 0.729002 0.821094 0.395167
O O7 0.460955 0.810322 0.860149
O O8 0.283972 0.069609 0.922729
O O9 0.294355 0.057921 0.213341
#
# Coordination Sequence:
#
# PCOD9507253 Si02
#       6
#     8  16   4  16  16   8
#     4   9  22  48  70 101 136 172 224 305 330 416
#     4  11  23  40  64 101 129 182 223 272 337 414
#     4  10  24  42  64 110 120 180 216 286 348 416
#     4  10  23  43  71  97 138 169 227 278 357 396
#     4  10  22  40  62  92 138 171 231 265 326 399
#     4  10  20  40  62  84 128 190 206 284 322 362
#
# _framework density 22.837536
#
# number of rings (size 3 to 8) (size 9 to 14) (size 15 to 20)
#    0.000    1.882    2.353    0.000    3.294    3.765 
#    0.000    0.000    0.000    0.000    0.000    0.000 
#    0.000    0.000    0.000    0.000    0.000    0.000 
#
# Total GULP energy -190064.605476 kJ/mol
# GULP energy per Si atom -5590.135455 kJ/mol
# Density = 2.278556 g / cm^3
# Si number density = 22.837536 Si / 1000 Ang^3
#
#
#
# Elastic Constant Matrix: (Units=GPa)
#
#
# Indices 1 2 3 4 5 6 
#
# 1 50.9900 20.0352 25.3398 0.0000 0.0000 0.0000
# 2 20.0352 102.2618 57.5631 0.0000 0.0000 0.0000
# 3 25.3398 57.5631 147.1894 0.0000 0.0000 0.0000
# 4 0.0000 0.0000 0.0000 0.4803 0.0000 0.0000
# 5 0.0000 0.0000 0.0000 0.0000 38.5859 0.0000
# 6 0.0000 0.0000 0.0000 0.0000 0.0000 49.6075
#
#
#
# Elastic Compliance Matrix: (Units=1/GPa)
#
#
# Indices 1 2 3 4 5 6 
#
# 1 0.022055 -0.002800 -0.002702 0.000000 0.000000 0.000000
# 2 -0.002800 0.012895 -0.004561 0.000000 0.000000 0.000000
# 3 -0.002702 -0.004561 0.009043 0.000000 0.000000 0.000000
# 4 0.000000 0.000000 0.000000 2.082027 0.000000 0.000000
# 5 0.000000 0.000000 0.000000 0.000000 0.025916 0.000000
# 6 0.000000 0.000000 0.000000 0.000000 0.000000 0.020158
#
#
# Mechanical properties :
#
#
# Convention : Reuss Voigt Hill
#
# Bulk Modulus (GPa) = 41.89958 56.25750 49.07854
# Shear Modulus (GPa) = 2.27255 30.90161 16.58708
#
# Velocity S-wave (km/s) = 0.99863 3.68245 2.69793
# Velocity P-wave (km/s) = 4.44030 6.53971 5.58946
#
# Compressibility (1/GPa) = 0.02386659
#
# Stress axis : x y z
#
# Youngs Moduli (GPa) = 45.34205 77.55120 110.58566
#
# Poissons Ratio (x) = 0.21715 0.29878
# Poissons Ratio (y) = 0.12696 0.50436
# Poissons Ratio (z) = 0.12251 0.35370
#
# Static dielectric constant tensor:
#      x y z
#    x 1.877670 0.000000 0.000000 
#    y 0.000000 1.865530 0.000000 
#    z 0.000000 0.000000 1.867120 
# 
# From -- ./inp_files/5983.got.cif
#   From: 2010.05.17/outbox.cif.g08.bks.cpg/sg68_3_cif.got.tgz:5983.got - 2010.06.03 18:57:09.
