data_PCOD9507285
_publ_section_title
;
Structure prediction by ZEFSAII (Michael W. Deem and Ramdas Pophale) SiO2 
 PCOD9507285
Probable space group: C C C A
;
_chemical_formula_sum "Si O2"
_cell_formula_units_Z 92
_cell_length_a 9.268286
_cell_length_b 18.096040
_cell_length_c 23.147188
_cell_angle_alpha 90.000000
_cell_angle_beta 90.000000
_cell_angle_gamma 90.000000
_cell_volume 3882.229571
_symmetry_space_group_name_H-M "C C C A"
_symmetry_group_IT_number 68
_space_group.IT_coordinate_system_code '2'
_symmetry_cell_setting 'orthorhombic'
loop_
_space_group_symop_operation_xyz
x,y,z
-x,1/2-y,z
x,1/2-y,1/2-z
-x,y,1/2-z
-x,-y,-z
x,1/2+y,-z
-x,1/2+y,1/2+z
x,-y,1/2+z
1/2+x,1/2+y,z
1/2-x,-y,z
1/2+x,-y,1/2-z
1/2-x,1/2+y,1/2-z
1/2-x,1/2-y,-z
1/2+x,y,-z
1/2-x,y,1/2+z
1/2+x,1/2-y,1/2+z
loop_
_atom_site_type_symbol
_atom_site_label
_atom_site_fract_x
_atom_site_fract_y
_atom_site_fract_z
Si Si1 0.099433 0.857633 0.066190
Si Si2 0.250000 0.000000 0.118106
Si Si3 0.000000 0.750000 0.164667
Si Si4 0.778218 0.325225 0.326705
Si Si5 0.031296 0.025942 0.314604
Si Si6 0.250000 0.500000 0.595507
Si Si7 0.264644 0.647961 0.542655
Si Si8 0.500000 0.750000 0.250000
O O1 0.171206 0.935796 0.082259
O O2 0.086192 0.806889 0.122843
O O3 0.937074 0.861105 0.041020
O O4 0.196225 0.822912 0.015666
O O5 0.375183 0.962122 0.156960
O O6 0.883331 0.804302 0.194424
O O7 0.863633 0.401980 0.310570
O O8 0.774128 0.317206 0.395794
O O9 0.880103 0.267434 0.298042
O O10 0.120840 0.976555 0.360745
O O11 0.000000 0.997786 0.250000
O O12 0.201367 0.565717 0.554790
#
# Coordination Sequence:
#
# PCOD9507285 Si02
#       8
#    16   8   8  16  16   8  16   4
#     4  11  25  43  71 105 140 193 237 296 376 433
#     4  12  26  42  70 110 144 184 244 300 372 450
#     4  10  26  50  68 102 146 192 240 298 362 448
#     4  10  25  44  68 100 140 185 246 296 355 432
#     4  11  23  44  68 103 142 188 238 304 362 433
#     4  10  20  40  64  96 144 180 234 298 358 430
#     4  10  23  41  66 102 142 184 239 299 356 439
#     4  12  24  44  72 104 136 192 248 290 366 434
#
# _framework density 23.697721999999999
#
# number of rings (size 3 to 8) (size 9 to 14) (size 15 to 20)
#    0.000    1.391    2.609    1.043    7.304    5.217 
#    0.000    1.739    0.000    0.000    0.000    0.000 
#    0.000    0.000    0.000    0.000    0.000    0.000 
#
# Total GULP energy -256310.986417 kJ/mol
# GULP energy per Si atom -5571.977966 kJ/mol
# Density = 2.364379 g / cm^3
# Si number density = 23.697722 Si / 1000 Ang^3
#
#
#
# Elastic Constant Matrix: (Units=GPa)
#
#
# Indices 1 2 3 4 5 6 
#
# 1 171.8676 14.5385 62.5551 0.0000 0.0000 0.0000
# 2 14.5385 85.5429 6.1026 0.0000 0.0000 0.0000
# 3 62.5551 6.1026 76.3771 0.0000 0.0000 0.0000
# 4 0.0000 0.0000 0.0000 20.1874 0.0000 0.0000
# 5 0.0000 0.0000 0.0000 0.0000 38.8649 0.0000
# 6 0.0000 0.0000 0.0000 0.0000 0.0000 26.5333
#
#
#
# Elastic Compliance Matrix: (Units=1/GPa)
#
#
# Indices 1 2 3 4 5 6 
#
# 1 0.008364 -0.000938 -0.006775 0.000000 0.000000 0.000000
# 2 -0.000938 0.011862 -0.000179 0.000000 0.000000 0.000000
# 3 -0.006775 -0.000179 0.018656 0.000000 0.000000 0.000000
# 4 0.000000 0.000000 0.000000 0.049536 0.000000 0.000000
# 5 0.000000 0.000000 0.000000 0.000000 0.025730 0.000000
# 6 0.000000 0.000000 0.000000 0.000000 0.000000 0.037689
#
#
# Mechanical properties :
#
#
# Convention : Reuss Voigt Hill
#
# Bulk Modulus (GPa) = 43.29602 55.57556 49.43579
# Shear Modulus (GPa) = 28.51904 33.82322 31.17113
#
# Velocity S-wave (km/s) = 3.47284 3.78203 3.63073
# Velocity P-wave (km/s) = 5.86435 6.52491 6.20343
#
# Compressibility (1/GPa) = 0.02309681
#
# Stress axis : x y z
#
# Youngs Moduli (GPa) = 119.56315 84.30083 53.60101
#
# Poissons Ratio (x) = 0.07908 0.36316
# Poissons Ratio (y) = 0.11217 0.00962
# Poissons Ratio (z) = 0.81007 0.01513
#
# Static dielectric constant tensor:
#      x y z
#    x 1.869870 0.000000 0.000000 
#    y 0.000000 2.007630 0.000000 
#    z 0.000000 0.000000 1.917170 
# 
# From -- ./inp_files/43224.got.cif
#   From: 2010.05.17/outbox.cif.g08.bks.cpg/sg68_22_cif.got.tgz:43224.got - 2010.06.03 18:57:09.
