data_PCOD9507628
_publ_section_title
;
Structure prediction by ZEFSAII (Michael W. Deem and Ramdas Pophale) SiO2 
 PCOD9507628
Probable space group: C C C A
;
_chemical_formula_sum "Si O2"
_cell_formula_units_Z 40
_cell_length_a 4.870075
_cell_length_b 13.205405
_cell_length_c 28.280413
_cell_angle_alpha 90.000000
_cell_angle_beta 90.000000
_cell_angle_gamma 90.000000
_cell_volume 1818.750485
_symmetry_space_group_name_H-M "C C C A"
_symmetry_group_IT_number 68
_space_group.IT_coordinate_system_code '2'
_symmetry_cell_setting 'orthorhombic'
loop_
_space_group_symop_operation_xyz
x,y,z
-x,1/2-y,z
x,1/2-y,1/2-z
-x,y,1/2-z
-x,-y,-z
x,1/2+y,-z
-x,1/2+y,1/2+z
x,-y,1/2+z
1/2+x,1/2+y,z
1/2-x,-y,z
1/2+x,-y,1/2-z
1/2-x,1/2+y,1/2-z
1/2-x,1/2-y,-z
1/2+x,y,-z
1/2-x,y,1/2+z
1/2+x,1/2-y,1/2+z
loop_
_atom_site_type_symbol
_atom_site_label
_atom_site_fract_x
_atom_site_fract_y
_atom_site_fract_z
Si Si1 0.000000 0.074850 0.750000
Si Si2 0.775900 0.380136 0.969831
Si Si3 0.500000 0.250000 0.889589
Si Si4 0.500000 0.250000 0.175990
O O1 0.080517 0.153360 0.791819
O O2 0.750000 0.000000 0.762342
O O3 0.750000 0.500000 0.963516
O O4 0.648756 0.329178 0.924126
O O5 0.586152 0.354987 0.015536
O O6 0.745267 0.213939 0.855838
#
# Coordination Sequence:
#
# PCOD9507628 Si02
#       4
#     8  16   8   8
#     4  11  24  47  70  88 126 167 196 251 322 380
#     4  10  21  37  57  84 122 169 211 247 300 362
#     4  12  22  38  62  91 128 157 202 268 306 350
#     4  11  26  41  64 101 122 155 214 253 308 389
#
# _framework density 21.993120999999999
#
# number of rings (size 3 to 8) (size 9 to 14) (size 15 to 20)
#    0.000    1.200    0.000    6.000    0.000    8.000 
#    0.000    0.000    0.000    0.000    0.000    0.000 
#    0.000    0.000    0.000    0.000    0.000    0.000 
#
# Total GULP energy -111851.238364 kJ/mol
# GULP energy per Si atom -5592.561918 kJ/mol
# Density = 2.194306 g / cm^3
# Si number density = 21.993121 Si / 1000 Ang^3
#
#
#
# Elastic Constant Matrix: (Units=GPa)
#
#
# Indices 1 2 3 4 5 6 
#
# 1 95.4791 -1.4958 18.2894 0.0000 0.0000 0.0000
# 2 -1.4958 119.2617 30.5894 0.0000 0.0000 0.0000
# 3 18.2894 30.5894 97.8306 0.0000 0.0000 0.0000
# 4 0.0000 0.0000 0.0000 -11.1378 0.0000 0.0000
# 5 0.0000 0.0000 0.0000 0.0000 43.0841 0.0000
# 6 0.0000 0.0000 0.0000 0.0000 0.0000 35.9468
#
#
#
# Elastic Compliance Matrix: (Units=1/GPa)
#
#
# Indices 1 2 3 4 5 6 
#
# 1 0.010919 0.000718 -0.002266 0.000000 0.000000 0.000000
# 2 0.000718 0.009163 -0.002999 0.000000 0.000000 0.000000
# 3 -0.002266 -0.002999 0.011583 0.000000 0.000000 0.000000
# 4 0.000000 0.000000 0.000000 -0.089784 0.000000 0.000000
# 5 0.000000 0.000000 0.000000 0.000000 0.023210 0.000000
# 6 0.000000 0.000000 0.000000 0.000000 0.000000 0.027819
#
#
# Mechanical properties :
#
#
# Convention : Reuss Voigt Hill
#
# Bulk Modulus (GPa) = 44.30457 45.25970 44.78213
# Shear Modulus (GPa) = 524.77034 31.25785 278.01409
#
# Velocity S-wave (km/s) = 15.46365 3.77404 11.25540
# Velocity P-wave (km/s) = 18.41253 6.29404 13.75929
#
# Compressibility (1/GPa) = 0.02257103
#
# Stress axis : x y z
#
# Youngs Moduli (GPa) = 91.58543 109.13168 86.33203
#
# Poissons Ratio (x) = -0.07837 0.19561
# Poissons Ratio (y) = -0.06577 0.25894
# Poissons Ratio (z) = 0.20751 0.32733
#
# Static dielectric constant tensor:
#      x y z
#    x 1.796250 0.000000 0.000000 
#    y 0.000000 1.798540 0.000000 
#    z 0.000000 0.000000 1.802370 
# 
# From -- ./inp_files/41802.got.cif
#   From: 2010.05.17/outbox.cif.g08.bks.cpg/sg68_21_cif.got.tgz:41802.got - 2010.06.03 18:57:09.
