data_PCOD9507652
_publ_section_title
;
Structure prediction by ZEFSAII (Michael W. Deem and Ramdas Pophale) SiO2 
 PCOD9507652
Probable space group: C C C A
;
_chemical_formula_sum "Si O2"
_cell_formula_units_Z 112
_cell_length_a 29.017528
_cell_length_b 16.656261
_cell_length_c 11.716862
_cell_angle_alpha 90.000000
_cell_angle_beta 90.000000
_cell_angle_gamma 90.000000
_cell_volume 5663.034985
_symmetry_space_group_name_H-M "C C C A"
_symmetry_group_IT_number 68
_space_group.IT_coordinate_system_code '2'
_symmetry_cell_setting 'orthorhombic'
loop_
_space_group_symop_operation_xyz
x,y,z
-x,1/2-y,z
x,1/2-y,1/2-z
-x,y,1/2-z
-x,-y,-z
x,1/2+y,-z
-x,1/2+y,1/2+z
x,-y,1/2+z
1/2+x,1/2+y,z
1/2-x,-y,z
1/2+x,-y,1/2-z
1/2-x,1/2+y,1/2-z
1/2-x,1/2-y,-z
1/2+x,y,-z
1/2-x,y,1/2+z
1/2+x,1/2-y,1/2+z
loop_
_atom_site_type_symbol
_atom_site_label
_atom_site_fract_x
_atom_site_fract_y
_atom_site_fract_z
Si Si1 0.370046 0.382512 0.385004
Si Si2 0.871216 0.066778 0.629318
Si Si3 0.795367 0.450961 0.448988
Si Si4 0.637793 0.222501 0.983989
Si Si5 0.227269 0.774047 0.876177
Si Si6 0.455366 0.215042 0.876314
Si Si7 0.951567 0.541802 0.963165
O O1 0.373473 0.393053 0.251680
O O2 0.327567 0.430121 0.442808
O O3 0.358079 0.291129 0.419180
O O4 0.417677 0.418344 0.439813
O O5 0.861159 0.134604 0.535751
O O6 0.829677 0.003072 0.628665
O O7 0.918763 0.022759 0.597783
O O8 0.750000 0.500000 0.480342
O O9 0.779907 0.369550 0.386017
O O10 0.677232 0.233429 0.889943
O O11 0.589530 0.247795 0.931417
O O12 0.246692 0.750000 0.750000
O O13 0.250000 0.750000 0.000000
O O14 0.500000 0.250000 0.939135
O O15 0.455077 0.250000 0.750000
O O16 0.458800 0.119040 0.881771
O O17 0.000000 0.500000 0.000000
#
# Coordination Sequence:
#
# PCOD9507652 Si02
#       7
#    16  16  16  16  16  16  16
#     4   9  22  39  58  86 120 156 202 246 304 373
#     4  11  22  37  62  89 116 157 200 251 308 365
#     4  10  23  40  59  89 120 153 196 250 302 357
#     4  10  21  40  60  84 121 158 196 246 304 369
#     4  11  25  43  64  90 122 164 206 249 306 373
#     4  10  21  37  60  86 114 155 199 241 297 368
#     4  10  22  39  57  87 123 155 200 257 311 365
#
# _framework density 19.777380000000001
#
# number of rings (size 3 to 8) (size 9 to 14) (size 15 to 20)
#    0.000    1.857    0.000    3.429    0.000   13.714 
#    0.000    0.000    0.000    2.571    0.000    0.000 
#    0.000    0.000    0.000    0.000    0.000    0.000 
#
# Total GULP energy -312268.598000 kJ/mol
# GULP energy per Si atom -5576.224964 kJ/mol
# Density = 1.973237 g / cm^3
# Si number density = 19.777380 Si / 1000 Ang^3
#
#
#
# Elastic Constant Matrix: (Units=GPa)
#
#
# Indices 1 2 3 4 5 6 
#
# 1 112.9128 31.3193 20.8858 0.0000 0.0000 0.0000
# 2 31.3193 121.3222 41.9806 0.0000 0.0000 0.0000
# 3 20.8858 41.9806 78.4047 0.0000 0.0000 0.0000
# 4 0.0000 0.0000 0.0000 57.6024 0.0000 0.0000
# 5 0.0000 0.0000 0.0000 0.0000 18.1837 0.0000
# 6 0.0000 0.0000 0.0000 0.0000 0.0000 28.7094
#
#
#
# Elastic Compliance Matrix: (Units=1/GPa)
#
#
# Indices 1 2 3 4 5 6 
#
# 1 0.009686 -0.001973 -0.001524 0.000000 0.000000 0.000000
# 2 -0.001973 0.010519 -0.005107 0.000000 0.000000 0.000000
# 3 -0.001524 -0.005107 0.015894 0.000000 0.000000 0.000000
# 4 0.000000 0.000000 0.000000 0.017360 0.000000 0.000000
# 5 0.000000 0.000000 0.000000 0.000000 0.054994 0.000000
# 6 0.000000 0.000000 0.000000 0.000000 0.000000 0.034832
#
#
# Mechanical properties :
#
#
# Convention : Reuss Voigt Hill
#
# Bulk Modulus (GPa) = 52.93171 55.66792 54.29981
# Shear Modulus (GPa) = 29.97791 35.46269 32.72030
#
# Velocity S-wave (km/s) = 3.89751 4.23909 4.07188
# Velocity P-wave (km/s) = 6.86119 7.22275 7.04429
#
# Compressibility (1/GPa) = 0.01889227
#
# Stress axis : x y z
#
# Youngs Moduli (GPa) = 103.24705 95.06716 62.91514
#
# Poissons Ratio (x) = 0.18758 0.09586
# Poissons Ratio (y) = 0.20372 0.32128
# Poissons Ratio (z) = 0.15731 0.48547
#
# Static dielectric constant tensor:
#      x y z
#    x 1.758170 0.000000 0.000000 
#    y 0.000000 1.715150 0.000000 
#    z 0.000000 0.000000 1.697620 
# 
# From -- ./inp_files/17804.got.cif
#   From: 2010.05.17/outbox.cif.g08.bks.cpg/sg68_9_cif.got.tgz:17804.got - 2010.06.03 18:57:09.
