data_PCOD9507061
_publ_section_title
;
Structure prediction by ZEFSAII (Michael W. Deem and Ramdas Pophale) SiO2 
 PCOD9507061
Probable space group: C C C A
;
_chemical_formula_sum "Si O2"
_cell_formula_units_Z 84
_cell_length_a 14.536018
_cell_length_b 24.763386
_cell_length_c 9.797235
_cell_angle_alpha 90.000000
_cell_angle_beta 90.000000
_cell_angle_gamma 90.000000
_cell_volume 3526.622749
_symmetry_space_group_name_H-M "C C C A"
_symmetry_group_IT_number 68
_space_group.IT_coordinate_system_code '2'
_symmetry_cell_setting 'orthorhombic'
loop_
_space_group_symop_operation_xyz
x,y,z
-x,1/2-y,z
x,1/2-y,1/2-z
-x,y,1/2-z
-x,-y,-z
x,1/2+y,-z
-x,1/2+y,1/2+z
x,-y,1/2+z
1/2+x,1/2+y,z
1/2-x,-y,z
1/2+x,-y,1/2-z
1/2-x,1/2+y,1/2-z
1/2-x,1/2-y,-z
1/2+x,y,-z
1/2-x,y,1/2+z
1/2+x,1/2-y,1/2+z
loop_
_atom_site_type_symbol
_atom_site_label
_atom_site_fract_x
_atom_site_fract_y
_atom_site_fract_z
Si Si1 0.623949 0.069429 0.529230
Si Si2 0.500000 0.750000 0.250000
Si Si3 0.161769 0.189228 0.399952
Si Si4 0.855253 0.779703 0.125789
Si Si5 0.112458 0.983307 0.254514
Si Si6 0.552666 0.612504 0.895529
O O1 0.663754 0.129239 0.539655
O O2 0.643996 0.036259 0.666349
O O3 0.515522 0.083983 0.502258
O O4 0.646811 0.033438 0.395289
O O5 0.571055 0.707887 0.320525
O O6 0.161355 0.232661 0.519858
O O7 0.257650 0.197104 0.321016
O O8 0.903324 0.750000 0.250000
O O9 0.909063 0.829924 0.061360
O O10 0.000000 0.988454 0.250000
O O11 0.128206 0.931667 0.353167
O O12 0.500000 0.622674 0.750000
#
# Coordination Sequence:
#
# PCOD9507061 Si02
#       6
#    16   4  16  16  16  16
#     4  10  20  38  62  96 127 180 219 288 329 414
#     4  12  24  48  62 112 134 176 228 278 346 432
#     4  11  25  40  67  95 141 175 227 282 353 410
#     4  11  22  43  64  98 135 181 221 289 348 417
#     4   9  18  35  60  92 124 165 228 271 336 389
#     4   9  18  34  64  92 124 169 228 272 335 415
#
# _framework density 23.818822999999998
#
# number of rings (size 3 to 8) (size 9 to 14) (size 15 to 20)
#    0.000    2.286    0.952    5.714    1.333    1.905 
#    3.429    0.952    0.000   11.429    0.000    0.000 
#    0.000    0.000    0.000    0.000    0.000    0.000 
#
# Total GULP energy -234372.814363 kJ/mol
# GULP energy per Si atom -5580.305104 kJ/mol
# Density = 2.376461 g / cm^3
# Si number density = 23.818823 Si / 1000 Ang^3
#
#
#
# Elastic Constant Matrix: (Units=GPa)
#
#
# Indices 1 2 3 4 5 6 
#
# 1 84.6532 32.3837 31.7011 0.0000 0.0000 0.0000
# 2 32.3837 188.6663 55.8742 0.0000 0.0000 0.0000
# 3 31.7011 55.8742 70.5698 0.0000 0.0000 0.0000
# 4 0.0000 0.0000 0.0000 45.1000 0.0000 0.0000
# 5 0.0000 0.0000 0.0000 0.0000 -6.3559 0.0000
# 6 0.0000 0.0000 0.0000 0.0000 0.0000 23.6514
#
#
#
# Elastic Compliance Matrix: (Units=1/GPa)
#
#
# Indices 1 2 3 4 5 6 
#
# 1 0.014276 -0.000720 -0.005843 0.000000 0.000000 0.000000
# 2 -0.000720 0.006960 -0.005187 0.000000 0.000000 0.000000
# 3 -0.005843 -0.005187 0.020902 0.000000 0.000000 0.000000
# 4 0.000000 0.000000 0.000000 0.022173 0.000000 0.000000
# 5 0.000000 0.000000 0.000000 0.000000 -0.157333 0.000000
# 6 0.000000 0.000000 0.000000 0.000000 0.000000 0.042281
#
#
# Mechanical properties :
#
#
# Convention : Reuss Voigt Hill
#
# Bulk Modulus (GPa) = 53.65386 64.86747 59.26067
# Shear Modulus (GPa) = -237.79345 27.40779 -105.19283
#
# Velocity S-wave (km/s) = -10.00255 3.39584 -6.65279
# Velocity P-wave (km/s) = 10.52742 6.53211 5.83773
#
# Compressibility (1/GPa) = 0.01863799
#
# Stress axis : x y z
#
# Youngs Moduli (GPa) = 70.04523 143.67393 47.84161
#
# Poissons Ratio (x) = 0.10345 0.27954
# Poissons Ratio (y) = 0.05043 0.24817
# Poissons Ratio (z) = 0.40928 0.74529
#
# Static dielectric constant tensor:
#      x y z
#    x 2.020710 0.000000 0.000000 
#    y 0.000000 1.898740 0.000000 
#    z 0.000000 0.000000 1.906810 
# 
# From -- ./inp_files/13337.got.cif
#   From: 2010.05.17/outbox.cif.g08.bks.cpg/sg68_7_cif.got.tgz:13337.got - 2010.06.03 18:57:09.
