data_PCOD9507846
_publ_section_title
;
Structure prediction by ZEFSAII (Michael W. Deem and Ramdas Pophale) SiO2 
 PCOD9507846
Probable space group: C C C A
;
_chemical_formula_sum "Si O2"
_cell_formula_units_Z 92
_cell_length_a 20.360606
_cell_length_b 17.243125
_cell_length_c 11.261475
_cell_angle_alpha 90.000000
_cell_angle_beta 90.000000
_cell_angle_gamma 90.000000
_cell_volume 3953.683985
_symmetry_space_group_name_H-M "C C C A"
_symmetry_group_IT_number 68
_space_group.IT_coordinate_system_code '2'
_symmetry_cell_setting 'orthorhombic'
loop_
_space_group_symop_operation_xyz
x,y,z
-x,1/2-y,z
x,1/2-y,1/2-z
-x,y,1/2-z
-x,-y,-z
x,1/2+y,-z
-x,1/2+y,1/2+z
x,-y,1/2+z
1/2+x,1/2+y,z
1/2-x,-y,z
1/2+x,-y,1/2-z
1/2-x,1/2+y,1/2-z
1/2-x,1/2-y,-z
1/2+x,y,-z
1/2-x,y,1/2+z
1/2+x,1/2-y,1/2+z
loop_
_atom_site_type_symbol
_atom_site_label
_atom_site_fract_x
_atom_site_fract_y
_atom_site_fract_z
Si Si1 0.594447 0.189411 0.565217
Si Si2 0.287071 0.623355 0.708108
Si Si3 0.250000 0.500000 0.533092
Si Si4 0.583478 0.307105 0.361391
Si Si5 0.697740 0.750000 0.250000
Si Si6 0.500000 0.250000 0.750000
Si Si7 0.000000 0.942589 0.250000
Si Si8 0.623199 0.959642 0.899822
O O1 0.571447 0.256620 0.476092
O O2 0.657693 0.219243 0.637621
O O3 0.541660 0.191345 0.669439
O O4 0.604234 0.110688 0.490094
O O5 0.243975 0.572848 0.620185
O O6 0.339597 0.673098 0.635819
O O7 0.243077 0.678615 0.787862
O O8 0.332776 0.572893 0.792600
O O9 0.320159 0.510234 0.465621
O O10 0.573223 0.250000 0.250000
O O11 0.540806 0.384057 0.337164
O O12 0.054974 0.985028 0.166647
#
# Coordination Sequence:
#
# PCOD9507846 Si02
#       8
#    16  16   8  16   8   4   8  16
#     4  11  21  37  63  98 145 176 222 295 368 426
#     4  11  23  41  62 100 131 177 244 298 360 430
#     4  12  26  44  66  94 144 198 234 300 362 430
#     4  11  20  36  67  99 131 175 228 295 354 416
#     4  11  22  37  62  99 138 177 240 296 370 435
#     4  10  24  36  58 106 146 174 212 286 372 438
#     4  10  21  38  68 105 133 176 244 291 354 433
#     4  11  23  42  68  96 137 188 235 299 356 431
#
# _framework density 23.269437
#
# number of rings (size 3 to 8) (size 9 to 14) (size 15 to 20)
#    0.000    1.043    6.087    1.826    2.435    1.391 
#    0.000    3.478    0.000    5.217    0.000    0.000 
#    0.000    0.000    0.000    0.000    0.000    0.000 
#
# Total GULP energy -256687.686415 kJ/mol
# GULP energy per Si atom -5580.167096 kJ/mol
# Density = 2.321647 g / cm^3
# Si number density = 23.269437 Si / 1000 Ang^3
#
#
#
# Elastic Constant Matrix: (Units=GPa)
#
#
# Indices 1 2 3 4 5 6 
#
# 1 119.6935 25.3695 33.8560 0.0000 0.0000 0.0000
# 2 25.3695 27.6095 15.7805 0.0000 0.0000 0.0000
# 3 33.8560 15.7805 90.8967 0.0000 0.0000 0.0000
# 4 0.0000 0.0000 0.0000 1.8095 0.0000 0.0000
# 5 0.0000 0.0000 0.0000 0.0000 -3.1132 0.0000
# 6 0.0000 0.0000 0.0000 0.0000 0.0000 0.9340
#
#
#
# Elastic Compliance Matrix: (Units=1/GPa)
#
#
# Indices 1 2 3 4 5 6 
#
# 1 0.010892 -0.008537 -0.002575 0.000000 0.000000 0.000000
# 2 -0.008537 0.046900 -0.004963 0.000000 0.000000 0.000000
# 3 -0.002575 -0.004963 0.012822 0.000000 0.000000 0.000000
# 4 0.000000 0.000000 0.000000 0.552646 0.000000 0.000000
# 5 0.000000 0.000000 0.000000 0.000000 -0.321210 0.000000
# 6 0.000000 0.000000 0.000000 0.000000 0.000000 1.070657
#
#
# Mechanical properties :
#
#
# Convention : Reuss Voigt Hill
#
# Bulk Modulus (GPa) = 25.99718 43.13461 34.56589
# Shear Modulus (GPa) = 3.52689 10.80563 7.16626
#
# Velocity S-wave (km/s) = 1.23246 2.15726 1.75681
# Velocity P-wave (km/s) = 3.63618 4.97818 4.35913
#
# Compressibility (1/GPa) = 0.03846571
#
# Stress axis : x y z
#
# Youngs Moduli (GPa) = 91.80661 21.32192 77.99007
#
# Poissons Ratio (x) = 0.18202 0.20082
# Poissons Ratio (y) = 0.78375 0.38703
# Poissons Ratio (z) = 0.23640 0.10581
#
# Static dielectric constant tensor:
#      x y z
#    x 2.049440 0.000000 0.000000 
#    y 0.000000 1.906190 0.000000 
#    z 0.000000 0.000000 1.637070 
# 
# From -- ./inp_files/15475.got.cif
#   From: 2010.05.17/outbox.cif.g08.bks.cpg/sg68_8_cif.got.tgz:15475.got - 2010.06.03 18:57:09.
