data_PCOD9507327
_publ_section_title
;
Structure prediction by ZEFSAII (Michael W. Deem and Ramdas Pophale) SiO2 
 PCOD9507327
Probable space group: C C C A
;
_chemical_formula_sum "Si O2"
_cell_formula_units_Z 64
_cell_length_a 16.192252
_cell_length_b 17.389515
_cell_length_c 9.810229
_cell_angle_alpha 90.000000
_cell_angle_beta 90.000000
_cell_angle_gamma 90.000000
_cell_volume 2762.319243
_symmetry_space_group_name_H-M "C C C A"
_symmetry_group_IT_number 68
_space_group.IT_coordinate_system_code '2'
_symmetry_cell_setting 'orthorhombic'
loop_
_space_group_symop_operation_xyz
x,y,z
-x,1/2-y,z
x,1/2-y,1/2-z
-x,y,1/2-z
-x,-y,-z
x,1/2+y,-z
-x,1/2+y,1/2+z
x,-y,1/2+z
1/2+x,1/2+y,z
1/2-x,-y,z
1/2+x,-y,1/2-z
1/2-x,1/2+y,1/2-z
1/2-x,1/2-y,-z
1/2+x,y,-z
1/2-x,y,1/2+z
1/2+x,1/2-y,1/2+z
loop_
_atom_site_type_symbol
_atom_site_label
_atom_site_fract_x
_atom_site_fract_y
_atom_site_fract_z
Si Si1 0.315599 0.815633 0.636177
Si Si2 0.657341 0.472792 0.278523
Si Si3 0.124176 0.783480 0.602286
Si Si4 0.570865 0.557188 0.051615
O O1 0.323620 0.750000 0.750000
O O2 0.351482 0.893355 0.696700
O O3 0.216949 0.821443 0.608274
O O4 0.362602 0.785691 0.503358
O O5 0.750000 0.500000 0.261574
O O6 0.639918 0.459733 0.436834
O O7 0.598282 0.532873 0.202867
O O8 0.104574 0.750000 0.750000
O O9 0.062138 0.850453 0.554798
O O10 0.500000 0.500000 0.000000
#
# Coordination Sequence:
#
# PCOD9507327 Si02
#       4
#    16  16  16  16
#     4  10  20  40  69 105 137 177 245 306 352 418
#     4  12  25  43  74 105 140 193 253 302 359 429
#     4  10  22  39  72 105 141 183 243 306 363 427
#     4  12  27  46  69 106 153 194 236 305 380 445
#
# _framework density 23.168935999999999
#
# number of rings (size 3 to 8) (size 9 to 14) (size 15 to 20)
#    0.000    1.000    5.000    1.500    3.500    0.000 
#    0.000    1.250    0.000    0.000    0.000    0.000 
#    0.000    0.000    0.000    0.000    0.000    0.000 
#
# Total GULP energy -179120.197453 kJ/mol
# GULP energy per Si atom -5597.506170 kJ/mol
# Density = 2.311620 g / cm^3
# Si number density = 23.168936 Si / 1000 Ang^3
#
#
#
# Elastic Constant Matrix: (Units=GPa)
#
#
# Indices 1 2 3 4 5 6 
#
# 1 60.6130 25.3566 13.5508 0.0000 0.0000 0.0000
# 2 25.3566 102.4839 21.4140 0.0000 0.0000 0.0000
# 3 13.5508 21.4140 123.3201 0.0000 0.0000 0.0000
# 4 0.0000 0.0000 0.0000 44.2052 0.0000 0.0000
# 5 0.0000 0.0000 0.0000 0.0000 10.7590 0.0000
# 6 0.0000 0.0000 0.0000 0.0000 0.0000 27.9542
#
#
#
# Elastic Compliance Matrix: (Units=1/GPa)
#
#
# Indices 1 2 3 4 5 6 
#
# 1 0.018599 -0.004332 -0.001292 0.000000 0.000000 0.000000
# 2 -0.004332 0.011134 -0.001457 0.000000 0.000000 0.000000
# 3 -0.001292 -0.001457 0.008504 0.000000 0.000000 0.000000
# 4 0.000000 0.000000 0.000000 0.022622 0.000000 0.000000
# 5 0.000000 0.000000 0.000000 0.000000 0.092946 0.000000
# 6 0.000000 0.000000 0.000000 0.000000 0.000000 0.035773
#
#
# Mechanical properties :
#
#
# Convention : Reuss Voigt Hill
#
# Bulk Modulus (GPa) = 41.53622 45.22889 43.38256
# Shear Modulus (GPa) = 23.61120 31.65671 27.63396
#
# Velocity S-wave (km/s) = 3.19578 3.70042 3.45732
# Velocity P-wave (km/s) = 5.61995 6.14989 5.89088
#
# Compressibility (1/GPa) = 0.02407537
#
# Stress axis : x y z
#
# Youngs Moduli (GPa) = 53.76624 89.81532 117.59234
#
# Poissons Ratio (x) = 0.38907 0.15187
# Poissons Ratio (y) = 0.23291 0.17137
# Poissons Ratio (z) = 0.06944 0.13089
#
# Static dielectric constant tensor:
#      x y z
#    x 1.952980 0.000000 0.000000 
#    y 0.000000 1.954260 0.000000 
#    z 0.000000 0.000000 1.796380 
# 
# From -- ./inp_files/6770.got.cif
#   From: 2010.05.17/outbox.cif.g08.bks.cpg/sg68_4_cif.got.tgz:6770.got - 2010.06.03 18:57:09.
