data_PCOD9507501
_publ_section_title
;
Structure prediction by ZEFSAII (Michael W. Deem and Ramdas Pophale) SiO2 
 PCOD9507501
Probable space group: C C C A
;
_chemical_formula_sum "Si O2"
_cell_formula_units_Z 52
_cell_length_a 14.772491
_cell_length_b 21.147844
_cell_length_c 7.696292
_cell_angle_alpha 90.000000
_cell_angle_beta 90.000000
_cell_angle_gamma 90.000000
_cell_volume 2404.370378
_symmetry_space_group_name_H-M "C C C A"
_symmetry_group_IT_number 68
_space_group.IT_coordinate_system_code '2'
_symmetry_cell_setting 'orthorhombic'
loop_
_space_group_symop_operation_xyz
x,y,z
-x,1/2-y,z
x,1/2-y,1/2-z
-x,y,1/2-z
-x,-y,-z
x,1/2+y,-z
-x,1/2+y,1/2+z
x,-y,1/2+z
1/2+x,1/2+y,z
1/2-x,-y,z
1/2+x,-y,1/2-z
1/2-x,1/2+y,1/2-z
1/2-x,1/2-y,-z
1/2+x,y,-z
1/2-x,y,1/2+z
1/2+x,1/2-y,1/2+z
loop_
_atom_site_type_symbol
_atom_site_label
_atom_site_fract_x
_atom_site_fract_y
_atom_site_fract_z
Si Si1 0.832508 0.449267 0.195964
Si Si2 0.598828 0.363633 0.414104
Si Si3 0.500000 0.750000 0.750000
Si Si4 0.094840 0.570082 0.428232
O O1 0.750000 0.500000 0.182440
O O2 0.911178 0.497801 0.133741
O O3 0.851292 0.429231 0.392230
O O4 0.838127 0.388872 0.068991
O O5 0.566045 0.292760 0.370750
O O6 0.502182 0.397474 0.447519
O O7 0.637749 0.391530 0.233767
#
# Coordination Sequence:
#
# PCOD9507501 Si02
#       4
#    16  16   4  16
#     4  12  22  33  56  96 132 160 196 261 342 394
#     4  10  22  39  64  86 125 165 217 272 314 370
#     4   8  20  44  66  92 116 178 232 268 294 368
#     4  10  21  34  56  91 123 159 208 264 325 384
#
# _framework density 21.627284
#
# number of rings (size 3 to 8) (size 9 to 14) (size 15 to 20)
#    0.000    1.846    3.077    2.769    4.308    1.231 
#    0.000   12.308    0.000    7.385    0.000    0.000 
#    0.000    0.000    0.000    0.000    0.000    0.000 
#
# Total GULP energy -144948.256866 kJ/mol
# GULP energy per Si atom -5574.932956 kJ/mol
# Density = 2.157806 g / cm^3
# Si number density = 21.627284 Si / 1000 Ang^3
#
#
#
# Elastic Constant Matrix: (Units=GPa)
#
#
# Indices 1 2 3 4 5 6 
#
# 1 82.2080 30.6371 51.6287 0.0000 0.0000 0.0000
# 2 30.6371 134.5619 63.4657 0.0000 0.0000 0.0000
# 3 51.6287 63.4657 222.5648 0.0000 0.0000 0.0000
# 4 0.0000 0.0000 0.0000 29.9677 0.0000 0.0000
# 5 0.0000 0.0000 0.0000 0.0000 33.8999 0.0000
# 6 0.0000 0.0000 0.0000 0.0000 0.0000 20.3644
#
#
#
# Elastic Compliance Matrix: (Units=1/GPa)
#
#
# Indices 1 2 3 4 5 6 
#
# 1 0.014694 -0.002008 -0.002836 0.000000 0.000000 0.000000
# 2 -0.002008 0.008861 -0.002061 0.000000 0.000000 0.000000
# 3 -0.002836 -0.002061 0.005739 0.000000 0.000000 0.000000
# 4 0.000000 0.000000 0.000000 0.033369 0.000000 0.000000
# 5 0.000000 0.000000 0.000000 0.000000 0.029499 0.000000
# 6 0.000000 0.000000 0.000000 0.000000 0.000000 0.049105
#
#
# Mechanical properties :
#
#
# Convention : Reuss Voigt Hill
#
# Bulk Modulus (GPa) = 64.58505 81.19972 72.89239
# Shear Modulus (GPa) = 31.20382 36.41993 33.81188
#
# Velocity S-wave (km/s) = 3.80254 4.10809 3.95826
# Velocity P-wave (km/s) = 7.01475 7.75425 7.39375
#
# Compressibility (1/GPa) = 0.01548346
#
# Stress axis : x y z
#
# Youngs Moduli (GPa) = 68.05681 112.85790 174.25816
#
# Poissons Ratio (x) = 0.22660 0.49419
# Poissons Ratio (y) = 0.13665 0.35913
# Poissons Ratio (z) = 0.19301 0.23259
#
# Static dielectric constant tensor:
#      x y z
#    x 2.002060 0.000000 0.000000 
#    y 0.000000 1.781290 0.000000 
#    z 0.000000 0.000000 1.830530 
# 
# From -- ./inp_files/4646.got.cif
#   From: 2010.05.17/outbox.cif.g08.bks.cpg/sg68_3_cif.got.tgz:4646.got - 2010.06.03 18:57:09.
