data_PCOD9507522
_publ_section_title
;
Structure prediction by ZEFSAII (Michael W. Deem and Ramdas Pophale) SiO2 
 PCOD9507522
Probable space group: C C C A
;
_chemical_formula_sum "Si O2"
_cell_formula_units_Z 56
_cell_length_a 14.202618
_cell_length_b 5.185312
_cell_length_c 32.366920
_cell_angle_alpha 90.000000
_cell_angle_beta 90.000000
_cell_angle_gamma 90.000000
_cell_volume 2383.662003
_symmetry_space_group_name_H-M "C C C A"
_symmetry_group_IT_number 68
_space_group.IT_coordinate_system_code '2'
_symmetry_cell_setting 'orthorhombic'
loop_
_space_group_symop_operation_xyz
x,y,z
-x,1/2-y,z
x,1/2-y,1/2-z
-x,y,1/2-z
-x,-y,-z
x,1/2+y,-z
-x,1/2+y,1/2+z
x,-y,1/2+z
1/2+x,1/2+y,z
1/2-x,-y,z
1/2+x,-y,1/2-z
1/2-x,1/2+y,1/2-z
1/2-x,1/2-y,-z
1/2+x,y,-z
1/2-x,y,1/2+z
1/2+x,1/2-y,1/2+z
loop_
_atom_site_type_symbol
_atom_site_label
_atom_site_fract_x
_atom_site_fract_y
_atom_site_fract_z
Si Si1 0.750000 0.500000 0.971338
Si Si2 0.103699 0.688931 0.865667
Si Si3 0.863412 0.998832 0.776523
Si Si4 0.888167 0.314938 0.902913
O O1 0.840592 0.454477 0.941776
O O2 0.750000 0.250000 0.000000
O O3 0.094174 0.549991 0.821576
O O4 0.150686 0.471052 0.893766
O O5 0.000000 0.750000 0.882576
O O6 0.139991 0.982893 0.866085
O O7 0.887723 0.750000 0.750000
O O8 0.889020 0.250000 0.750000
O O9 0.750000 0.000000 0.782608
O O10 0.000000 0.250000 0.906525
#
# Coordination Sequence:
#
# PCOD9507522 Si02
#       4
#     8  16  16  16
#     4  12  26  42  66  98 122 158 204 246 324 398
#     4  10  21  39  61  87 120 165 212 254 310 369
#     4  10  21  35  54  86 122 160 206 259 313 361
#     4  10  23  41  63  92 124 161 207 257 309 378
#
# _framework density 23.493265000000001
#
# number of rings (size 3 to 8) (size 9 to 14) (size 15 to 20)
#    0.000    1.714    0.000    3.429    4.000    1.714 
#    0.000    1.429    0.000    0.000    0.000    0.000 
#    0.000    0.000    0.000    0.000    0.000    0.000 
#
# Total GULP energy -156127.078271 kJ/mol
# GULP energy per Si atom -5575.967081 kJ/mol
# Density = 2.343979 g / cm^3
# Si number density = 23.493265 Si / 1000 Ang^3
#
#
#
# Elastic Constant Matrix: (Units=GPa)
#
#
# Indices 1 2 3 4 5 6 
#
# 1 116.1790 47.6360 7.1655 0.0000 0.0000 0.0000
# 2 47.6360 257.3859 80.1413 0.0000 0.0000 0.0000
# 3 7.1655 80.1413 91.5142 0.0000 0.0000 0.0000
# 4 0.0000 0.0000 0.0000 20.5807 0.0000 0.0000
# 5 0.0000 0.0000 0.0000 0.0000 35.0787 0.0000
# 6 0.0000 0.0000 0.0000 0.0000 0.0000 -80.8127
#
#
#
# Elastic Compliance Matrix: (Units=1/GPa)
#
#
# Indices 1 2 3 4 5 6 
#
# 1 0.009391 -0.002075 0.001082 0.000000 0.000000 0.000000
# 2 -0.002075 0.005800 -0.004917 0.000000 0.000000 0.000000
# 3 0.001082 -0.004917 0.015148 0.000000 0.000000 0.000000
# 4 0.000000 0.000000 0.000000 0.048589 0.000000 0.000000
# 5 0.000000 0.000000 0.000000 0.000000 0.028507 0.000000
# 6 0.000000 0.000000 0.000000 0.000000 0.000000 -0.012374
#
#
# Mechanical properties :
#
#
# Convention : Reuss Voigt Hill
#
# Bulk Modulus (GPa) = 53.99612 81.66274 67.82943
# Shear Modulus (GPa) = 44.22595 16.97843 30.60219
#
# Velocity S-wave (km/s) = 4.34348 2.69121 3.61306
# Velocity P-wave (km/s) = 6.94176 6.67026 6.80736
#
# Compressibility (1/GPa) = 0.01851985
#
# Stress axis : x y z
#
# Youngs Moduli (GPa) = 106.47963 172.40779 66.01340
#
# Poissons Ratio (x) = 0.35774 -0.07141
# Poissons Ratio (y) = 0.22094 0.32458
# Poissons Ratio (z) = -0.11518 0.84771
#
# Static dielectric constant tensor:
#      x y z
#    x 2.008760 0.000000 0.000000 
#    y 0.000000 1.970860 0.000000 
#    z 0.000000 0.000000 2.096300 
# 
# From -- ./inp_files/55039.got.cif
#   From: 2010.05.17/outbox.cif.g08.bks.cpg/sg68_28_cif.got.tgz:55039.got - 2010.06.03 18:57:09.
