data_PCOD9507269
_publ_section_title
;
Structure prediction by ZEFSAII (Michael W. Deem and Ramdas Pophale) SiO2 
 PCOD9507269
Probable space group: C C C A
;
_chemical_formula_sum "Si O2"
_cell_formula_units_Z 116
_cell_length_a 8.937136
_cell_length_b 18.026031
_cell_length_c 29.172187
_cell_angle_alpha 90.000000
_cell_angle_beta 90.000000
_cell_angle_gamma 90.000000
_cell_volume 4699.671141
_symmetry_space_group_name_H-M "C C C A"
_symmetry_group_IT_number 68
_space_group.IT_coordinate_system_code '2'
_symmetry_cell_setting 'orthorhombic'
loop_
_space_group_symop_operation_xyz
x,y,z
-x,1/2-y,z
x,1/2-y,1/2-z
-x,y,1/2-z
-x,-y,-z
x,1/2+y,-z
-x,1/2+y,1/2+z
x,-y,1/2+z
1/2+x,1/2+y,z
1/2-x,-y,z
1/2+x,-y,1/2-z
1/2-x,1/2+y,1/2-z
1/2-x,1/2-y,-z
1/2+x,y,-z
1/2-x,y,1/2+z
1/2+x,1/2-y,1/2+z
loop_
_atom_site_type_symbol
_atom_site_label
_atom_site_fract_x
_atom_site_fract_y
_atom_site_fract_z
Si Si1 0.000000 0.250000 0.250000
Si Si2 0.522960 0.457889 0.110594
Si Si3 0.608848 0.873011 0.185399
Si Si4 0.351475 0.218162 0.341258
Si Si5 0.529451 0.615950 0.057246
Si Si6 0.693313 0.862517 0.359973
Si Si7 0.298197 0.412833 0.036037
Si Si8 0.105224 0.572924 0.207903
O O1 0.906345 0.196008 0.218717
O O2 0.536612 0.535517 0.083620
O O3 0.678885 0.419267 0.123857
O O4 0.421463 0.408900 0.076282
O O5 0.437802 0.463209 0.159017
O O6 0.714687 0.838916 0.144805
O O7 0.442871 0.893378 0.170446
O O8 0.714486 0.929253 0.212643
O O9 0.500000 0.250000 0.367375
O O10 0.267797 0.295352 0.333036
O O11 0.582118 0.337340 0.302513
O O12 0.612068 0.667460 0.094081
O O13 0.357149 0.629122 0.044965
O O14 0.624327 0.610020 0.011108
O O15 0.250000 0.500000 0.032541
O O16 0.000000 0.552291 0.250000
#
# Coordination Sequence:
#
# PCOD9507269 Si02
#       8
#     4  16  16  16  16  16  16  16
#     4  12  20  32  58  84 128 144 226 280 304 354
#     4  11  22  38  61  96 133 171 216 272 340 395
#     4  10  23  34  57  92 120 164 219 276 324 364
#     4  10  21  38  58  89 120 168 223 269 324 380
#     4  11  23  38  72  99 134 164 220 273 340 403
#     4  12  20  39  59  95 133 170 210 279 334 396
#     4  10  20  40  64 102 128 165 226 276 320 404
#     4  10  23  39  62  91 129 173 228 270 331 388
#
# _framework density 24.682576999999998
#
# number of rings (size 3 to 8) (size 9 to 14) (size 15 to 20)
#    0.828    0.552    2.759    4.552    3.862    0.276 
#    0.000    0.000    1.517    4.138    3.586    0.000 
#    0.000    0.000    0.000    0.000    0.000    0.000 
#
# Total GULP energy -323394.938902 kJ/mol
# GULP energy per Si atom -5575.774809 kJ/mol
# Density = 2.462640 g / cm^3
# Si number density = 24.682577 Si / 1000 Ang^3
#
#
#
# Elastic Constant Matrix: (Units=GPa)
#
#
# Indices 1 2 3 4 5 6 
#
# 1 178.5124 19.1618 45.5102 0.0000 0.0000 0.0000
# 2 19.1618 66.7729 6.2256 0.0000 0.0000 0.0000
# 3 45.5102 6.2256 132.1189 0.0000 0.0000 0.0000
# 4 0.0000 0.0000 0.0000 37.9758 0.0000 0.0000
# 5 0.0000 0.0000 0.0000 0.0000 40.0420 0.0000
# 6 0.0000 0.0000 0.0000 0.0000 0.0000 34.2474
#
#
#
# Elastic Compliance Matrix: (Units=1/GPa)
#
#
# Indices 1 2 3 4 5 6 
#
# 1 0.006310 -0.001615 -0.002097 0.000000 0.000000 0.000000
# 2 -0.001615 0.015456 -0.000172 0.000000 0.000000 0.000000
# 3 -0.002097 -0.000172 0.008300 0.000000 0.000000 0.000000
# 4 0.000000 0.000000 0.000000 0.026333 0.000000 0.000000
# 5 0.000000 0.000000 0.000000 0.000000 0.024974 0.000000
# 6 0.000000 0.000000 0.000000 0.000000 0.000000 0.029199
#
#
# Mechanical properties :
#
#
# Convention : Reuss Voigt Hill
#
# Bulk Modulus (GPa) = 44.85097 57.68880 51.26989
# Shear Modulus (GPa) = 39.75449 42.88681 41.32065
#
# Velocity S-wave (km/s) = 4.01762 4.17290 4.09599
# Velocity P-wave (km/s) = 6.30335 6.82938 6.57163
#
# Compressibility (1/GPa) = 0.02229606
#
# Stress axis : x y z
#
# Youngs Moduli (GPa) = 158.47971 64.70109 120.48869
#
# Poissons Ratio (x) = 0.10451 0.25272
# Poissons Ratio (y) = 0.25598 0.02071
# Poissons Ratio (z) = 0.33240 0.01112
#
# Static dielectric constant tensor:
#      x y z
#    x 2.191130 0.000000 0.000000 
#    y 0.000000 2.092680 0.000000 
#    z 0.000000 0.000000 1.952160 
# 
# From -- ./inp_files/54222.got.cif
#   From: 2010.05.17/outbox.cif.g08.bks.cpg/sg68_28_cif.got.tgz:54222.got - 2010.06.03 18:57:09.
