data_PCOD9508745
_publ_section_title
;
Structure prediction by ZEFSAII (Michael W. Deem and Ramdas Pophale) SiO2 
 PCOD9508745
Probable space group: C C C A
;
_chemical_formula_sum "Si O2"
_cell_formula_units_Z 68
_cell_length_a 9.826350
_cell_length_b 21.490528
_cell_length_c 16.483712
_cell_angle_alpha 90.000000
_cell_angle_beta 90.000000
_cell_angle_gamma 90.000000
_cell_volume 3480.922329
_symmetry_space_group_name_H-M "C C C A"
_symmetry_group_IT_number 68
_space_group.IT_coordinate_system_code '2'
_symmetry_cell_setting 'orthorhombic'
loop_
_space_group_symop_operation_xyz
x,y,z
-x,1/2-y,z
x,1/2-y,1/2-z
-x,y,1/2-z
-x,-y,-z
x,1/2+y,-z
-x,1/2+y,1/2+z
x,-y,1/2+z
1/2+x,1/2+y,z
1/2-x,-y,z
1/2+x,-y,1/2-z
1/2-x,1/2+y,1/2-z
1/2-x,1/2-y,-z
1/2+x,y,-z
1/2-x,y,1/2+z
1/2+x,1/2-y,1/2+z
loop_
_atom_site_type_symbol
_atom_site_label
_atom_site_fract_x
_atom_site_fract_y
_atom_site_fract_z
Si Si1 0.200678 0.287829 0.383307
Si Si2 0.000000 0.750000 0.750000
Si Si3 0.764823 0.344033 0.950106
Si Si4 0.032226 0.139704 0.656187
Si Si5 0.622608 0.544156 0.526820
O O1 0.173546 0.332007 0.460060
O O2 0.190188 0.218326 0.420096
O O3 0.354916 0.305838 0.356644
O O4 0.098638 0.290313 0.307979
O O5 0.890371 0.350531 0.889899
O O6 0.664884 0.402394 0.961569
O O7 0.092319 0.079752 0.610452
O O8 0.000000 0.131893 0.750000
O O9 0.500000 0.500000 0.500000
O O10 0.750000 0.500000 0.536709
#
# Coordination Sequence:
#
# PCOD9508745 Si02
#       5
#    16   4  16  16  16
#     4  10  24  37  64 101 138 172 221 274 351 420
#     4  12  24  36  58 104 142 168 216 290 332 422
#     4  10  22  41  69  92 133 184 221 274 345 419
#     4  11  23  43  68 100 131 176 223 284 348 410
#     4  11  23  44  69  95 130 181 237 282 336 411
#
# _framework density 19.535052
#
# number of rings (size 3 to 8) (size 9 to 14) (size 15 to 20)
#    0.000    1.412    2.353    2.118    9.882    0.941 
#    4.235    0.000    2.588    0.000    0.000    0.000 
#    0.000    0.000    0.000    0.000    0.000    0.000 
#
# Total GULP energy -189848.857325 kJ/mol
# GULP energy per Si atom -5583.789921 kJ/mol
# Density = 1.949059 g / cm^3
# Si number density = 19.535052 Si / 1000 Ang^3
#
#
#
# Elastic Constant Matrix: (Units=GPa)
#
#
# Indices 1 2 3 4 5 6 
#
# 1 103.9878 41.4272 64.0372 0.0000 0.0000 0.0000
# 2 41.4272 110.9596 34.4659 0.0000 0.0000 0.0000
# 3 64.0372 34.4659 150.0759 0.0000 0.0000 0.0000
# 4 0.0000 0.0000 0.0000 7.4771 0.0000 0.0000
# 5 0.0000 0.0000 0.0000 0.0000 49.8434 0.0000
# 6 0.0000 0.0000 0.0000 0.0000 0.0000 29.5554
#
#
#
# Elastic Compliance Matrix: (Units=1/GPa)
#
#
# Indices 1 2 3 4 5 6 
#
# 1 0.014340 -0.003719 -0.005265 0.000000 0.000000 0.000000
# 2 -0.003719 0.010669 -0.000863 0.000000 0.000000 0.000000
# 3 -0.005265 -0.000863 0.009108 0.000000 0.000000 0.000000
# 4 0.000000 0.000000 0.000000 0.133742 0.000000 0.000000
# 5 0.000000 0.000000 0.000000 0.000000 0.020063 0.000000
# 6 0.000000 0.000000 0.000000 0.000000 0.000000 0.033835
#
#
# Mechanical properties :
#
#
# Convention : Reuss Voigt Hill
#
# Bulk Modulus (GPa) = 69.33274 71.65376 70.49325
# Shear Modulus (GPa) = 20.30389 32.38136 26.34263
#
# Velocity S-wave (km/s) = 3.22740 4.07578 3.67615
# Velocity P-wave (km/s) = 7.03254 7.67519 7.36088
#
# Compressibility (1/GPa) = 0.01442320
#
# Stress axis : x y z
#
# Youngs Moduli (GPa) = 69.73414 93.73090 109.79187
#
# Poissons Ratio (x) = 0.34855 0.57805
# Poissons Ratio (y) = 0.25931 0.09480
# Poissons Ratio (z) = 0.36715 0.08093
#
# Static dielectric constant tensor:
#      x y z
#    x 1.944570 0.000000 0.000000 
#    y 0.000000 1.710170 0.000000 
#    z 0.000000 0.000000 1.656450 
# 
# From -- ./inp_files/20688.got.cif
#   From: 2010.05.17/outbox.cif.g08.bks.cpg/sg68_11_cif.got.tgz:20688.got - 2010.06.03 18:57:09.
