data_PCOD9508457
_publ_section_title
;
Structure prediction by ZEFSAII (Michael W. Deem and Ramdas Pophale) SiO2 
 PCOD9508457
Probable space group: C C C A
;
_chemical_formula_sum "Si O2"
_cell_formula_units_Z 112
_cell_length_a 25.202316
_cell_length_b 12.546648
_cell_length_c 14.212016
_cell_angle_alpha 90.000000
_cell_angle_beta 90.000000
_cell_angle_gamma 90.000000
_cell_volume 4493.904659
_symmetry_space_group_name_H-M "C C C A"
_symmetry_group_IT_number 68
_space_group.IT_coordinate_system_code '2'
_symmetry_cell_setting 'orthorhombic'
loop_
_space_group_symop_operation_xyz
x,y,z
-x,1/2-y,z
x,1/2-y,1/2-z
-x,y,1/2-z
-x,-y,-z
x,1/2+y,-z
-x,1/2+y,1/2+z
x,-y,1/2+z
1/2+x,1/2+y,z
1/2-x,-y,z
1/2+x,-y,1/2-z
1/2-x,1/2+y,1/2-z
1/2-x,1/2-y,-z
1/2+x,y,-z
1/2-x,y,1/2+z
1/2+x,1/2-y,1/2+z
loop_
_atom_site_type_symbol
_atom_site_label
_atom_site_fract_x
_atom_site_fract_y
_atom_site_fract_z
Si Si1 0.447748 0.294991 0.642850
Si Si2 0.918764 0.089651 0.830328
Si Si3 0.535384 0.546293 0.875521
Si Si4 0.335173 0.739750 0.087351
Si Si5 0.375038 0.310293 0.093396
Si Si6 0.810159 0.001256 0.103870
Si Si7 0.309773 0.965369 0.122768
O O1 0.500000 0.250000 0.597265
O O2 0.445844 0.250000 0.750000
O O3 0.450563 0.421560 0.631789
O O4 0.397629 0.246508 0.594289
O O5 0.945054 0.086959 0.727301
O O6 0.899821 0.207675 0.857446
O O7 0.972058 0.059605 0.891387
O O8 0.865901 0.015313 0.840491
O O9 0.575267 0.614667 0.940213
O O10 0.327297 0.621502 0.123602
O O11 0.309484 0.838180 0.139403
O O12 0.329716 0.758789 0.975788
O O13 0.341218 0.401687 0.147108
O O14 0.750000 0.000000 0.132195
O O15 0.813894 0.986320 0.990373
O O16 0.250000 0.000000 0.150765
#
# Coordination Sequence:
#
# PCOD9508457 Si02
#       7
#    16  16  16  16  16  16  16
#     4  11  22  41  65  91 124 174 214 262 325 393
#     4  11  22  41  64  94 129 176 215 264 321 395
#     4  11  23  41  64  92 131 171 220 263 331 389
#     4  11  22  41  64  96 130 162 218 274 323 387
#     4  11  23  39  64  96 127 166 214 267 327 388
#     4  10  22  40  65  93 127 172 213 267 330 385
#     4  10  22  38  65  96 127 169 215 267 322 385
#
# _framework density 24.922647000000001
#
# number of rings (size 3 to 8) (size 9 to 14) (size 15 to 20)
#    0.000    1.286    2.857    4.286    2.000    4.000 
#    0.000    3.571    0.000    0.000    0.000    0.000 
#    0.000    0.000    0.000    0.000    0.000    0.000 
#
# Total GULP energy -312480.576450 kJ/mol
# GULP energy per Si atom -5580.010294 kJ/mol
# Density = 2.486592 g / cm^3
# Si number density = 24.922647 Si / 1000 Ang^3
#
#
#
# Elastic Constant Matrix: (Units=GPa)
#
#
# Indices 1 2 3 4 5 6 
#
# 1 157.9046 45.6684 -5.5166 0.0000 0.0000 0.0000
# 2 45.6684 184.7187 14.9295 0.0000 0.0000 0.0000
# 3 -5.5166 14.9295 40.3946 0.0000 0.0000 0.0000
# 4 0.0000 0.0000 0.0000 14.9258 0.0000 0.0000
# 5 0.0000 0.0000 0.0000 0.0000 12.4456 0.0000
# 6 0.0000 0.0000 0.0000 0.0000 0.0000 48.3157
#
#
#
# Elastic Compliance Matrix: (Units=1/GPa)
#
#
# Indices 1 2 3 4 5 6 
#
# 1 0.006923 -0.001843 0.001627 0.000000 0.000000 0.000000
# 2 -0.001843 0.006071 -0.002495 0.000000 0.000000 0.000000
# 3 0.001627 -0.002495 0.025900 0.000000 0.000000 0.000000
# 4 0.000000 0.000000 0.000000 0.066998 0.000000 0.000000
# 5 0.000000 0.000000 0.000000 0.000000 0.080350 0.000000
# 6 0.000000 0.000000 0.000000 0.000000 0.000000 0.020697
#
#
# Mechanical properties :
#
#
# Convention : Reuss Voigt Hill
#
# Bulk Modulus (GPa) = 29.87730 54.79783 42.33756
# Shear Modulus (GPa) = 22.36937 36.99985 29.68461
#
# Velocity S-wave (km/s) = 2.99917 3.85721 3.45493
# Velocity P-wave (km/s) = 4.89973 6.47089 5.73933
#
# Compressibility (1/GPa) = 0.03347023
#
# Stress axis : x y z
#
# Youngs Moduli (GPa) = 144.45048 164.71813 38.60969
#
# Poissons Ratio (x) = 0.30358 -0.06280
# Poissons Ratio (y) = 0.26622 0.09635
# Poissons Ratio (z) = -0.23496 0.41105
#
# Static dielectric constant tensor:
#      x y z
#    x 2.168080 0.000000 0.000000 
#    y 0.000000 1.940890 0.000000 
#    z 0.000000 0.000000 1.680350 
# 
# From -- ./inp_files/40874.got.cif
#   From: 2010.05.17/outbox.cif.g08.bks.cpg/sg68_21_cif.got.tgz:40874.got - 2010.06.03 18:57:09.
