data_PCOD9508287
_publ_section_title
;
Structure prediction by ZEFSAII (Michael W. Deem and Ramdas Pophale) SiO2 
 PCOD9508287
Probable space group: C C C A
;
_chemical_formula_sum "Si O2"
_cell_formula_units_Z 80
_cell_length_a 17.573875
_cell_length_b 8.908611
_cell_length_c 23.939740
_cell_angle_alpha 90.000000
_cell_angle_beta 90.000000
_cell_angle_gamma 90.000000
_cell_volume 3747.977353
_symmetry_space_group_name_H-M "C C C A"
_symmetry_group_IT_number 68
_space_group.IT_coordinate_system_code '2'
_symmetry_cell_setting 'orthorhombic'
loop_
_space_group_symop_operation_xyz
x,y,z
-x,1/2-y,z
x,1/2-y,1/2-z
-x,y,1/2-z
-x,-y,-z
x,1/2+y,-z
-x,1/2+y,1/2+z
x,-y,1/2+z
1/2+x,1/2+y,z
1/2-x,-y,z
1/2+x,-y,1/2-z
1/2-x,1/2+y,1/2-z
1/2-x,1/2-y,-z
1/2+x,y,-z
1/2-x,y,1/2+z
1/2+x,1/2-y,1/2+z
loop_
_atom_site_type_symbol
_atom_site_label
_atom_site_fract_x
_atom_site_fract_y
_atom_site_fract_z
Si Si1 0.582243 0.888749 0.572861
Si Si2 0.581677 0.192772 0.813486
Si Si3 0.587080 0.082798 0.385700
Si Si4 0.807187 0.634268 0.890572
Si Si5 0.814389 0.108221 0.470926
O O1 0.492623 0.912162 0.580143
O O2 0.605722 0.759352 0.617482
O O3 0.619579 0.842159 0.513824
O O4 0.620907 0.046458 0.584555
O O5 0.500000 0.250000 0.837313
O O6 0.582253 0.250000 0.750000
O O7 0.655662 0.267961 0.841448
O O8 0.581619 0.015456 0.829248
O O9 0.645858 0.994846 0.424237
O O10 0.750000 0.500000 0.874790
O O11 0.778982 0.751952 0.937331
O O12 0.750000 0.000000 0.496396
#
# Coordination Sequence:
#
# PCOD9508287 Si02
#       5
#    16  16  16  16  16
#     4  11  21  37  59  92 132 168 216 262 315 385
#     4  10  21  44  71  90 117 166 219 270 337 397
#     4  10  22  38  61  93 126 166 214 273 317 385
#     4  11  23  39  63  92 132 169 215 274 325 385
#     4  11  23  38  59  90 133 185 220 252 319 390
#
# _framework density 21.344844999999999
#
# number of rings (size 3 to 8) (size 9 to 14) (size 15 to 20)
#    0.000    1.400    2.000    3.600    0.000    4.000 
#    0.000    7.000    0.000    0.000    0.000    0.000 
#    0.000    0.000    0.000    0.000    0.000    0.000 
#
# Total GULP energy -223099.899295 kJ/mol
# GULP energy per Si atom -5577.497482 kJ/mol
# Density = 2.129626 g / cm^3
# Si number density = 21.344845 Si / 1000 Ang^3
#
#
#
# Elastic Constant Matrix: (Units=GPa)
#
#
# Indices 1 2 3 4 5 6 
#
# 1 83.4625 34.2361 22.4594 0.0000 0.0000 0.0000
# 2 34.2361 136.4199 36.0167 0.0000 0.0000 0.0000
# 3 22.4594 36.0167 73.4494 0.0000 0.0000 0.0000
# 4 0.0000 0.0000 0.0000 22.5028 0.0000 0.0000
# 5 0.0000 0.0000 0.0000 0.0000 21.5721 0.0000
# 6 0.0000 0.0000 0.0000 0.0000 0.0000 39.3487
#
#
#
# Elastic Compliance Matrix: (Units=1/GPa)
#
#
# Indices 1 2 3 4 5 6 
#
# 1 0.013879 -0.002714 -0.002913 0.000000 0.000000 0.000000
# 2 -0.002714 0.008951 -0.003559 0.000000 0.000000 0.000000
# 3 -0.002913 -0.003559 0.016251 0.000000 0.000000 0.000000
# 4 0.000000 0.000000 0.000000 0.044439 0.000000 0.000000
# 5 0.000000 0.000000 0.000000 0.000000 0.046356 0.000000
# 6 0.000000 0.000000 0.000000 0.000000 0.000000 0.025414
#
#
# Mechanical properties :
#
#
# Convention : Reuss Voigt Hill
#
# Bulk Modulus (GPa) = 48.29058 53.19514 50.74286
# Shear Modulus (GPa) = 27.69088 30.05936 28.87512
#
# Velocity S-wave (km/s) = 3.60573 3.75677 3.68202
# Velocity P-wave (km/s) = 6.32520 6.61767 6.47309
#
# Compressibility (1/GPa) = 0.02070797
#
# Stress axis : x y z
#
# Youngs Moduli (GPa) = 72.05365 111.71774 61.53489
#
# Poissons Ratio (x) = 0.30319 0.17925
# Poissons Ratio (y) = 0.19555 0.21903
# Poissons Ratio (z) = 0.20989 0.39765
#
# Static dielectric constant tensor:
#      x y z
#    x 1.828920 0.000000 0.000000 
#    y 0.000000 1.794200 0.000000 
#    z 0.000000 0.000000 1.793560 
# 
# From -- ./inp_files/51288.got.cif
#   From: 2010.05.17/outbox.cif.g08.bks.cpg/sg68_26_cif.got.tgz:51288.got - 2010.06.03 18:57:09.
