data_PCOD9508920
_publ_section_title
;
Structure prediction by ZEFSAII (Michael W. Deem and Ramdas Pophale) SiO2 
 PCOD9508920
Probable space group: C C C A
;
_chemical_formula_sum "Si O2"
_cell_formula_units_Z 88
_cell_length_a 19.643472
_cell_length_b 7.913444
_cell_length_c 27.349960
_cell_angle_alpha 90.000000
_cell_angle_beta 90.000000
_cell_angle_gamma 90.000000
_cell_volume 4251.483335
_symmetry_space_group_name_H-M "C C C A"
_symmetry_group_IT_number 68
_space_group.IT_coordinate_system_code '2'
_symmetry_cell_setting 'orthorhombic'
loop_
_space_group_symop_operation_xyz
x,y,z
-x,1/2-y,z
x,1/2-y,1/2-z
-x,y,1/2-z
-x,-y,-z
x,1/2+y,-z
-x,1/2+y,1/2+z
x,-y,1/2+z
1/2+x,1/2+y,z
1/2-x,-y,z
1/2+x,-y,1/2-z
1/2-x,1/2+y,1/2-z
1/2-x,1/2-y,-z
1/2+x,y,-z
1/2-x,y,1/2+z
1/2+x,1/2-y,1/2+z
loop_
_atom_site_type_symbol
_atom_site_label
_atom_site_fract_x
_atom_site_fract_y
_atom_site_fract_z
Si Si1 0.979920 0.057796 0.369790
Si Si2 0.792802 0.336113 0.866865
Si Si3 0.386760 0.619523 0.459851
Si Si4 0.921757 0.201132 0.806689
Si Si5 0.250000 0.000000 0.582892
Si Si6 0.103950 0.512280 0.064615
O O1 0.935089 0.044162 0.418525
O O2 0.000000 0.250000 0.358570
O O3 0.050275 0.978168 0.390793
O O4 0.931514 0.989857 0.326270
O O5 0.750000 0.500000 0.848489
O O6 0.855018 0.280347 0.831649
O O7 0.753383 0.166133 0.882451
O O8 0.828111 0.400435 0.916485
O O9 0.315231 0.526355 0.451718
O O10 0.382536 0.816990 0.447334
O O11 0.416761 0.597000 0.513779
O O12 0.916812 0.250000 0.750000
O O13 0.000000 0.250000 0.820845
#
# Coordination Sequence:
#
# PCOD9508920 Si02
#       6
#    16  16  16  16   8  16
#     4  10  22  43  70  99 136 179 229 292 351 412
#     4  12  25  45  70  98 142 184 228 289 352 417
#     4  11  23  37  61 101 139 184 230 274 340 419
#     4  11  24  47  77 101 130 178 238 300 362 411
#     4  12  24  40  66  94 140 192 230 276 338 424
#     4  11  23  39  64  96 137 185 229 280 337 410
#
# _framework density 20.698657999999998
#
# number of rings (size 3 to 8) (size 9 to 14) (size 15 to 20)
#    0.000    0.909    5.455    1.636    1.273    1.455 
#    1.636    1.818    0.000    0.000    0.000    0.000 
#    0.000    0.000    0.000    0.000    0.000    0.000 
#
# Total GULP energy -245165.773588 kJ/mol
# GULP energy per Si atom -5571.949400 kJ/mol
# Density = 2.065155 g / cm^3
# Si number density = 20.698658 Si / 1000 Ang^3
#
#
#
# Elastic Constant Matrix: (Units=GPa)
#
#
# Indices 1 2 3 4 5 6 
#
# 1 69.7455 51.9755 29.8279 0.0000 0.0000 0.0000
# 2 51.9755 83.3533 44.6338 0.0000 0.0000 0.0000
# 3 29.8279 44.6338 77.2108 0.0000 0.0000 0.0000
# 4 0.0000 0.0000 0.0000 -8.8171 0.0000 0.0000
# 5 0.0000 0.0000 0.0000 0.0000 69.0742 0.0000
# 6 0.0000 0.0000 0.0000 0.0000 0.0000 33.6798
#
#
#
# Elastic Compliance Matrix: (Units=1/GPa)
#
#
# Indices 1 2 3 4 5 6 
#
# 1 0.026838 -0.016197 -0.001005 0.000000 0.000000 0.000000
# 2 -0.016197 0.027151 -0.009438 0.000000 0.000000 0.000000
# 3 -0.001005 -0.009438 0.018796 0.000000 0.000000 0.000000
# 4 0.000000 0.000000 0.000000 -0.113416 0.000000 0.000000
# 5 0.000000 0.000000 0.000000 0.000000 0.014477 0.000000
# 6 0.000000 0.000000 0.000000 0.000000 0.000000 0.029691
#
#
# Mechanical properties :
#
#
# Convention : Reuss Voigt Hill
#
# Bulk Modulus (GPa) = 51.27002 53.68712 52.47857
# Shear Modulus (GPa) = 78.96664 25.71219 52.33942
#
# Velocity S-wave (km/s) = 6.18332 3.52833 5.03401
# Velocity P-wave (km/s) = 8.70640 6.52630 7.69396
#
# Compressibility (1/GPa) = 0.01950458
#
# Stress axis : x y z
#
# Youngs Moduli (GPa) = 37.26102 36.83166 53.20370
#
# Poissons Ratio (x) = 0.59655 0.05347
# Poissons Ratio (y) = 0.60351 0.50214
# Poissons Ratio (z) = 0.03745 0.34762
#
# Static dielectric constant tensor:
#      x y z
#    x 1.813540 0.000000 0.000000 
#    y 0.000000 2.043090 0.000000 
#    z 0.000000 0.000000 1.722230 
# 
# From -- ./inp_files/46512.got.cif
#   From: 2010.05.17/outbox.cif.g08.bks.cpg/sg68_24_cif.got.tgz:46512.got - 2010.06.03 18:57:09.
