data_PCOD9508269
_publ_section_title
;
Structure prediction by ZEFSAII (Michael W. Deem and Ramdas Pophale) SiO2 
 PCOD9508269
Probable space group: C C C A
;
_chemical_formula_sum "Si O2"
_cell_formula_units_Z 72
_cell_length_a 22.525087
_cell_length_b 10.911894
_cell_length_c 13.435974
_cell_angle_alpha 90.000000
_cell_angle_beta 90.000000
_cell_angle_gamma 90.000000
_cell_volume 3302.446345
_symmetry_space_group_name_H-M "C C C A"
_symmetry_group_IT_number 68
_space_group.IT_coordinate_system_code '2'
_symmetry_cell_setting 'orthorhombic'
loop_
_space_group_symop_operation_xyz
x,y,z
-x,1/2-y,z
x,1/2-y,1/2-z
-x,y,1/2-z
-x,-y,-z
x,1/2+y,-z
-x,1/2+y,1/2+z
x,-y,1/2+z
1/2+x,1/2+y,z
1/2-x,-y,z
1/2+x,-y,1/2-z
1/2-x,1/2+y,1/2-z
1/2-x,1/2-y,-z
1/2+x,y,-z
1/2-x,y,1/2+z
1/2+x,1/2-y,1/2+z
loop_
_atom_site_type_symbol
_atom_site_label
_atom_site_fract_x
_atom_site_fract_y
_atom_site_fract_z
Si Si1 0.500000 0.250000 0.250000
Si Si2 0.000000 0.750000 0.750000
Si Si3 0.891202 0.612171 0.318960
Si Si4 0.750000 0.000000 0.346118
Si Si5 0.398652 0.850185 0.392174
Si Si6 0.699179 0.250000 0.750000
Si Si7 0.856978 0.646309 0.103440
O O1 0.456567 0.170861 0.318922
O O2 0.956423 0.822744 0.674904
O O3 0.885242 0.492520 0.380776
O O4 0.883722 0.582816 0.201987
O O5 0.845692 0.716074 0.355877
O O6 0.730997 0.880455 0.278707
O O7 0.800530 0.938785 0.415262
O O8 0.344299 0.775810 0.343617
O O9 0.399363 0.831808 0.510060
#
# Coordination Sequence:
#
# PCOD9508269 Si02
#       7
#     4   4  16   8  16   8  16
#     4   8  18  36  68  88 124 182 212 268 364 392
#     4  10  26  46  68 106 136 174 224 290 364 402
#     4  10  21  44  63 101 140 175 230 297 332 427
#     4  12  24  46  68 104 140 192 226 290 344 400
#     4  11  24  44  70  99 137 180 229 292 345 422
#     4  11  26  42  72 100 146 176 240 285 342 406
#     4  10  24  41  69  97 139 181 233 279 350 408
#
# _framework density 21.802019000000001
#
# number of rings (size 3 to 8) (size 9 to 14) (size 15 to 20)
#    0.000    1.778    2.222    2.000    3.111    5.333 
#    0.000    6.667    0.000    0.000    0.000    0.000 
#    0.000    0.000    0.000    0.000    0.000    0.000 
#
# Total GULP energy -200499.820417 kJ/mol
# GULP energy per Si atom -5569.439456 kJ/mol
# Density = 2.175240 g / cm^3
# Si number density = 21.802019 Si / 1000 Ang^3
#
#
#
# Elastic Constant Matrix: (Units=GPa)
#
#
# Indices 1 2 3 4 5 6 
#
# 1 77.1157 44.6062 21.1519 0.0000 0.0000 0.0000
# 2 44.6062 125.8788 23.8637 0.0000 0.0000 0.0000
# 3 21.1519 23.8637 122.1238 0.0000 0.0000 0.0000
# 4 0.0000 0.0000 0.0000 24.8462 0.0000 0.0000
# 5 0.0000 0.0000 0.0000 0.0000 23.9659 0.0000
# 6 0.0000 0.0000 0.0000 0.0000 0.0000 26.0415
#
#
#
# Elastic Compliance Matrix: (Units=1/GPa)
#
#
# Indices 1 2 3 4 5 6 
#
# 1 0.016684 -0.005571 -0.001801 0.000000 0.000000 0.000000
# 2 -0.005571 0.010110 -0.001011 0.000000 0.000000 0.000000
# 3 -0.001801 -0.001011 0.008698 0.000000 0.000000 0.000000
# 4 0.000000 0.000000 0.000000 0.040248 0.000000 0.000000
# 5 0.000000 0.000000 0.000000 0.000000 0.041726 0.000000
# 6 0.000000 0.000000 0.000000 0.000000 0.000000 0.038400
#
#
# Mechanical properties :
#
#
# Convention : Reuss Voigt Hill
#
# Bulk Modulus (GPa) = 53.39994 56.04022 54.72008
# Shear Modulus (GPa) = 27.95294 30.67049 29.31171
#
# Velocity S-wave (km/s) = 3.58456 3.75477 3.67065
# Velocity P-wave (km/s) = 6.45588 6.67515 6.56643
#
# Compressibility (1/GPa) = 0.01872661
#
# Stress axis : x y z
#
# Youngs Moduli (GPa) = 59.93862 98.91462 114.97089
#
# Poissons Ratio (x) = 0.55101 0.20707
# Poissons Ratio (y) = 0.33389 0.11620
# Poissons Ratio (z) = 0.10796 0.09997
#
# Static dielectric constant tensor:
#      x y z
#    x 1.903020 0.000000 0.000000 
#    y 0.000000 1.808830 0.000000 
#    z 0.000000 0.000000 1.793950 
# 
# From -- ./inp_files/25142.got.cif
#   From: 2010.05.17/outbox.cif.g08.bks.cpg/sg68_13_cif.got.tgz:25142.got - 2010.06.03 18:57:09.
