data_PCOD9508354
_publ_section_title
;
Structure prediction by ZEFSAII (Michael W. Deem and Ramdas Pophale) SiO2 
 PCOD9508354
Probable space group: C C C A
;
_chemical_formula_sum "Si O2"
_cell_formula_units_Z 96
_cell_length_a 24.380598
_cell_length_b 9.164247
_cell_length_c 22.600776
_cell_angle_alpha 90.000000
_cell_angle_beta 90.000000
_cell_angle_gamma 90.000000
_cell_volume 5049.687361
_symmetry_space_group_name_H-M "C C C A"
_symmetry_group_IT_number 68
_space_group.IT_coordinate_system_code '2'
_symmetry_cell_setting 'orthorhombic'
loop_
_space_group_symop_operation_xyz
x,y,z
-x,1/2-y,z
x,1/2-y,1/2-z
-x,y,1/2-z
-x,-y,-z
x,1/2+y,-z
-x,1/2+y,1/2+z
x,-y,1/2+z
1/2+x,1/2+y,z
1/2-x,-y,z
1/2+x,-y,1/2-z
1/2-x,1/2+y,1/2-z
1/2-x,1/2-y,-z
1/2+x,y,-z
1/2-x,y,1/2+z
1/2+x,1/2-y,1/2+z
loop_
_atom_site_type_symbol
_atom_site_label
_atom_site_fract_x
_atom_site_fract_y
_atom_site_fract_z
Si Si1 0.645821 0.250000 0.750000
Si Si2 0.599855 0.895854 0.433141
Si Si3 0.812807 0.997897 0.833890
Si Si4 0.052112 0.176950 0.338130
Si Si5 0.139667 0.250000 0.750000
Si Si6 0.563397 0.289869 0.032770
Si Si7 0.552465 0.346195 0.341293
O O1 0.679898 0.366823 0.713238
O O2 0.605017 0.174165 0.703459
O O3 0.565445 0.789416 0.390508
O O4 0.606902 0.786161 0.488762
O O5 0.647602 0.960093 0.389905
O O6 0.570522 0.036952 0.461162
O O7 0.828579 0.142946 0.795707
O O8 0.750000 0.000000 0.853789
O O9 0.000000 0.250000 0.308579
O O10 0.037479 0.012531 0.355132
O O11 0.098714 0.341776 0.708395
O O12 0.500000 0.250000 0.016543
O O13 0.572504 0.226365 0.098231
O O14 0.500000 0.250000 0.322382
#
# Coordination Sequence:
#
# PCOD9508354 Si02
#       7
#     8  16  16  16   8  16  16
#     4  10  22  36  60  84 118 162 204 256 320 370
#     4  11  23  40  63  92 125 171 211 259 309 375
#     4  11  24  44  65  89 120 164 219 272 324 367
#     4  11  21  34  56  89 128 164 202 247 304 382
#     4  12  22  42  66  90 132 160 212 266 318 376
#     4  11  21  38  62  93 131 167 204 248 311 383
#     4  11  23  36  61  96 132 170 202 246 311 385
#
# _framework density 19.011077
#
# number of rings (size 3 to 8) (size 9 to 14) (size 15 to 20)
#    0.000    1.000    3.333    5.000    2.333    1.333 
#    0.000    0.833    0.000    0.000    0.000    0.000 
#    0.000    0.000    0.000    0.000    0.000    0.000 
#
# Total GULP energy -267632.742778 kJ/mol
# GULP energy per Si atom -5575.682141 kJ/mol
# Density = 1.896781 g / cm^3
# Si number density = 19.011077 Si / 1000 Ang^3
#
#
#
# Elastic Constant Matrix: (Units=GPa)
#
#
# Indices 1 2 3 4 5 6 
#
# 1 84.0633 40.8045 25.1011 0.0000 0.0000 0.0000
# 2 40.8045 158.8786 26.9901 0.0000 0.0000 0.0000
# 3 25.1011 26.9901 86.5492 0.0000 0.0000 0.0000
# 4 0.0000 0.0000 0.0000 46.0036 0.0000 0.0000
# 5 0.0000 0.0000 0.0000 0.0000 11.0820 0.0000
# 6 0.0000 0.0000 0.0000 0.0000 0.0000 14.5476
#
#
#
# Elastic Compliance Matrix: (Units=1/GPa)
#
#
# Indices 1 2 3 4 5 6 
#
# 1 0.014377 -0.003151 -0.003187 0.000000 0.000000 0.000000
# 2 -0.003151 0.007337 -0.001374 0.000000 0.000000 0.000000
# 3 -0.003187 -0.001374 0.012907 0.000000 0.000000 0.000000
# 4 0.000000 0.000000 0.000000 0.021737 0.000000 0.000000
# 5 0.000000 0.000000 0.000000 0.000000 0.090236 0.000000
# 6 0.000000 0.000000 0.000000 0.000000 0.000000 0.068740
#
#
# Mechanical properties :
#
#
# Convention : Reuss Voigt Hill
#
# Bulk Modulus (GPa) = 52.09286 57.25361 54.67324
# Shear Modulus (GPa) = 21.08308 30.09968 25.59138
#
# Velocity S-wave (km/s) = 3.33376 3.98335 3.67294
# Velocity P-wave (km/s) = 6.50226 7.16501 6.84167
#
# Compressibility (1/GPa) = 0.01919649
#
# Stress axis : x y z
#
# Youngs Moduli (GPa) = 69.55591 136.29902 77.47778
#
# Poissons Ratio (x) = 0.42948 0.24692
# Poissons Ratio (y) = 0.21917 0.10646
# Poissons Ratio (z) = 0.22167 0.18729
#
# Static dielectric constant tensor:
#      x y z
#    x 1.654950 0.000000 0.000000 
#    y 0.000000 1.704370 0.000000 
#    z 0.000000 0.000000 1.698680 
# 
# From -- ./inp_files/47217.got.cif
#   From: 2010.05.17/outbox.cif.g08.bks.cpg/sg68_24_cif.got.tgz:47217.got - 2010.06.03 18:57:09.
