data_PCOD9508330
_publ_section_title
;
Structure prediction by ZEFSAII (Michael W. Deem and Ramdas Pophale) SiO2 
 PCOD9508330
Probable space group: C C C A
;
_chemical_formula_sum "Si O2"
_cell_formula_units_Z 72
_cell_length_a 8.291972
_cell_length_b 16.555007
_cell_length_c 22.663574
_cell_angle_alpha 90.000000
_cell_angle_beta 90.000000
_cell_angle_gamma 90.000000
_cell_volume 3111.111627
_symmetry_space_group_name_H-M "C C C A"
_symmetry_group_IT_number 68
_space_group.IT_coordinate_system_code '2'
_symmetry_cell_setting 'orthorhombic'
loop_
_space_group_symop_operation_xyz
x,y,z
-x,1/2-y,z
x,1/2-y,1/2-z
-x,y,1/2-z
-x,-y,-z
x,1/2+y,-z
-x,1/2+y,1/2+z
x,-y,1/2+z
1/2+x,1/2+y,z
1/2-x,-y,z
1/2+x,-y,1/2-z
1/2-x,1/2+y,1/2-z
1/2-x,1/2-y,-z
1/2+x,y,-z
1/2-x,y,1/2+z
1/2+x,1/2-y,1/2+z
loop_
_atom_site_type_symbol
_atom_site_label
_atom_site_fract_x
_atom_site_fract_y
_atom_site_fract_z
Si Si1 0.555089 0.599286 0.683469
Si Si2 0.104791 0.084850 0.141481
Si Si3 0.000000 0.750000 0.491090
Si Si4 0.248510 0.865786 0.527821
Si Si5 0.755456 0.596473 0.888947
O O1 0.500000 0.612459 0.750000
O O2 0.738977 0.628586 0.670261
O O3 0.576278 0.502566 0.670969
O O4 0.403655 0.628563 0.643894
O O5 0.166832 0.074302 0.073662
O O6 0.927857 0.124784 0.137373
O O7 0.133770 0.788330 0.532075
O O8 0.079381 0.674124 0.457990
O O9 0.255437 0.892190 0.459866
O O10 0.750000 0.500000 0.879712
#
# Coordination Sequence:
#
# PCOD9508330 Si02
#       5
#    16  16   8  16  16
#     4  10  23  37  56  88 124 164 199 240 300 364
#     4  10  22  35  58  83 122 160 193 242 298 362
#     4  10  22  34  60  80 130 152 202 246 282 376
#     4  11  20  39  56  94 118 160 197 242 312 356
#     4  10  22  35  60  89 128 156 190 247 299 379
#
# _framework density 23.142852000000001
#
# number of rings (size 3 to 8) (size 9 to 14) (size 15 to 20)
#    0.000    1.778    2.222    1.333   12.444    1.778 
#    0.000    0.000    0.000    0.000    0.000   39.667 
#    0.000    0.000    0.000    0.000    0.000    0.000 
#
# Total GULP energy -200461.124735 kJ/mol
# GULP energy per Si atom -5568.364576 kJ/mol
# Density = 2.309018 g / cm^3
# Si number density = 23.142852 Si / 1000 Ang^3
#
#
#
# Elastic Constant Matrix: (Units=GPa)
#
#
# Indices 1 2 3 4 5 6 
#
# 1 233.5430 12.7035 87.3109 0.0000 0.0000 0.0000
# 2 12.7035 6.2475 -5.6017 0.0000 0.0000 0.0000
# 3 87.3109 -5.6017 137.5951 0.0000 0.0000 0.0000
# 4 0.0000 0.0000 0.0000 -1.6570 0.0000 0.0000
# 5 0.0000 0.0000 0.0000 0.0000 28.6256 0.0000
# 6 0.0000 0.0000 0.0000 0.0000 0.0000 29.7557
#
#
#
# Elastic Compliance Matrix: (Units=1/GPa)
#
#
# Indices 1 2 3 4 5 6 
#
# 1 0.007450 -0.020122 -0.005547 0.000000 0.000000 0.000000
# 2 -0.020122 0.220477 0.021744 0.000000 0.000000 0.000000
# 3 -0.005547 0.021744 0.011673 0.000000 0.000000 0.000000
# 4 0.000000 0.000000 0.000000 -0.603504 0.000000 0.000000
# 5 0.000000 0.000000 0.000000 0.000000 0.034934 0.000000
# 6 0.000000 0.000000 0.000000 0.000000 0.000000 0.033607
#
#
# Mechanical properties :
#
#
# Convention : Reuss Voigt Hill
#
# Bulk Modulus (GPa) = 4.31498 62.91232 33.61365
# Shear Modulus (GPa) = -23.77948 30.20973 3.21512
#
# Velocity S-wave (km/s) = -3.20896 3.61689 1.17994
# Velocity P-wave (km/s) = 3.44403 6.68475 4.05121
#
# Compressibility (1/GPa) = 0.23175075
#
# Stress axis : x y z
#
# Youngs Moduli (GPa) = 134.22804 4.53563 85.67109
#
# Poissons Ratio (x) = 0.09127 0.47518
# Poissons Ratio (y) = 2.70093 -1.86286
# Poissons Ratio (z) = 0.74451 -0.09862
#
# Static dielectric constant tensor:
#      x y z
#    x 2.003480 0.000000 0.000000 
#    y 0.000000 1.955840 0.000000 
#    z 0.000000 0.000000 1.881470 
# 
# From -- ./inp_files/28140.got.cif
#   From: 2010.05.17/outbox.cif.g08.bks.cpg/sg68_15_cif.got.tgz:28140.got - 2010.06.03 18:57:09.
