data_PCOD9508512
_publ_section_title
;
Structure prediction by ZEFSAII (Michael W. Deem and Ramdas Pophale) SiO2 
 PCOD9508512
Probable space group: C C C A
;
_chemical_formula_sum "Si O2"
_cell_formula_units_Z 88
_cell_length_a 9.360494
_cell_length_b 20.300712
_cell_length_c 22.999182
_cell_angle_alpha 90.000000
_cell_angle_beta 90.000000
_cell_angle_gamma 90.000000
_cell_volume 4370.412496
_symmetry_space_group_name_H-M "C C C A"
_symmetry_group_IT_number 68
_space_group.IT_coordinate_system_code '2'
_symmetry_cell_setting 'orthorhombic'
loop_
_space_group_symop_operation_xyz
x,y,z
-x,1/2-y,z
x,1/2-y,1/2-z
-x,y,1/2-z
-x,-y,-z
x,1/2+y,-z
-x,1/2+y,1/2+z
x,-y,1/2+z
1/2+x,1/2+y,z
1/2-x,-y,z
1/2+x,-y,1/2-z
1/2-x,1/2+y,1/2-z
1/2-x,1/2-y,-z
1/2+x,y,-z
1/2-x,y,1/2+z
1/2+x,1/2-y,1/2+z
loop_
_atom_site_type_symbol
_atom_site_label
_atom_site_fract_x
_atom_site_fract_y
_atom_site_fract_z
Si Si1 0.500000 0.860811 0.750000
Si Si2 0.234681 0.750000 0.250000
Si Si3 0.250000 0.000000 0.948206
Si Si4 0.443816 0.329388 0.940851
Si Si5 0.649890 0.110935 0.471416
Si Si6 0.572443 0.104462 0.124722
Si Si7 0.678538 0.705222 0.372974
O O1 0.369001 0.811520 0.735041
O O2 0.455338 0.901149 0.806773
O O3 0.321079 0.768841 0.307476
O O4 0.340875 0.952832 0.906771
O O5 0.150097 0.954620 0.989223
O O6 0.316179 0.374733 0.962192
O O7 0.359130 0.264623 0.917294
O O8 0.548784 0.345229 0.886578
O O9 0.558325 0.334062 0.993660
O O10 0.575604 0.107454 0.409347
O O11 0.670242 0.170135 0.116640
#
# Coordination Sequence:
#
# PCOD9508512 Si02
#       7
#     8   8   8  16  16  16  16
#     4   9  20  40  70  98 120 174 213 258 324 384
#     4   9  18  39  66  96 132 166 206 256 326 398
#     4  12  24  44  66  88 130 174 220 270 332 374
#     4  11  23  38  59  94 129 165 207 260 328 381
#     4  12  24  41  63  93 129 177 209 269 321 394
#     4  11  23  43  69  92 130 168 222 268 320 393
#     4  10  22  39  63  96 131 167 208 266 329 390
#
# _framework density 20.135400000000001
#
# number of rings (size 3 to 8) (size 9 to 14) (size 15 to 20)
#    0.000    1.273    3.636    1.636    0.000   10.182 
#    0.000    0.909    8.000    0.000    0.000    0.000 
#    0.000    0.000    0.000    0.000    0.000    0.000 
#
# Total GULP energy -245235.994123 kJ/mol
# GULP energy per Si atom -5573.545321 kJ/mol
# Density = 2.008957 g / cm^3
# Si number density = 20.135400 Si / 1000 Ang^3
#
#
#
# Elastic Constant Matrix: (Units=GPa)
#
#
# Indices 1 2 3 4 5 6 
#
# 1 99.0517 7.4236 52.5352 0.0000 0.0000 0.0000
# 2 7.4236 48.3628 47.1743 0.0000 0.0000 0.0000
# 3 52.5352 47.1743 139.9851 0.0000 0.0000 0.0000
# 4 0.0000 0.0000 0.0000 34.0104 0.0000 0.0000
# 5 0.0000 0.0000 0.0000 0.0000 42.4072 0.0000
# 6 0.0000 0.0000 0.0000 0.0000 0.0000 11.3768
#
#
#
# Elastic Compliance Matrix: (Units=1/GPa)
#
#
# Indices 1 2 3 4 5 6 
#
# 1 0.013144 0.004162 -0.006335 0.000000 0.000000 0.000000
# 2 0.004162 0.032120 -0.012386 0.000000 0.000000 0.000000
# 3 -0.006335 -0.012386 0.013695 0.000000 0.000000 0.000000
# 4 0.000000 0.000000 0.000000 0.029403 0.000000 0.000000
# 5 0.000000 0.000000 0.000000 0.000000 0.023581 0.000000
# 6 0.000000 0.000000 0.000000 0.000000 0.000000 0.087898
#
#
# Mechanical properties :
#
#
# Convention : Reuss Voigt Hill
#
# Bulk Modulus (GPa) = 33.51172 55.74061 44.62617
# Shear Modulus (GPa) = 20.92862 29.57666 25.25264
#
# Velocity S-wave (km/s) = 3.22746 3.83677 3.54523
# Velocity P-wave (km/s) = 5.52883 6.88264 6.24254
#
# Compressibility (1/GPa) = 0.02984030
#
# Stress axis : x y z
#
# Youngs Moduli (GPa) = 76.08021 31.13312 73.01714
#
# Poissons Ratio (x) = -0.12958 0.46260
# Poissons Ratio (y) = -0.31666 0.90442
# Poissons Ratio (z) = 0.48200 0.38563
#
# Static dielectric constant tensor:
#      x y z
#    x 1.758780 0.000000 0.000000 
#    y 0.000000 1.802260 0.000000 
#    z 0.000000 0.000000 1.695930 
# 
# From -- ./inp_files/36328.got.cif
#   From: 2010.05.17/outbox.cif.g08.bks.cpg/sg68_19_cif.got.tgz:36328.got - 2010.06.03 18:57:09.
