data_PCOD9508477
_publ_section_title
;
Structure prediction by ZEFSAII (Michael W. Deem and Ramdas Pophale) SiO2 
 PCOD9508477
Probable space group: C C C A
;
_chemical_formula_sum "Si O2"
_cell_formula_units_Z 104
_cell_length_a 14.915415
_cell_length_b 19.448887
_cell_length_c 17.763869
_cell_angle_alpha 90.000000
_cell_angle_beta 90.000000
_cell_angle_gamma 90.000000
_cell_volume 5153.089154
_symmetry_space_group_name_H-M "C C C A"
_symmetry_group_IT_number 68
_space_group.IT_coordinate_system_code '2'
_symmetry_cell_setting 'orthorhombic'
loop_
_space_group_symop_operation_xyz
x,y,z
-x,1/2-y,z
x,1/2-y,1/2-z
-x,y,1/2-z
-x,-y,-z
x,1/2+y,-z
-x,1/2+y,1/2+z
x,-y,1/2+z
1/2+x,1/2+y,z
1/2-x,-y,z
1/2+x,-y,1/2-z
1/2-x,1/2+y,1/2-z
1/2-x,1/2-y,-z
1/2+x,y,-z
1/2-x,y,1/2+z
1/2+x,1/2-y,1/2+z
loop_
_atom_site_type_symbol
_atom_site_label
_atom_site_fract_x
_atom_site_fract_y
_atom_site_fract_z
Si Si1 0.226016 0.115009 0.183728
Si Si2 0.150862 0.892773 0.405554
Si Si3 0.011405 0.581807 0.515015
Si Si4 0.282793 0.576730 0.980369
Si Si5 0.901874 0.170429 0.741547
Si Si6 0.750000 0.500000 0.304497
Si Si7 0.034088 0.171390 0.165372
O O1 0.241261 0.084200 0.101610
O O2 0.323149 0.144743 0.204869
O O3 0.208422 0.057628 0.248603
O O4 0.142029 0.165938 0.174972
O O5 0.234491 0.876620 0.458044
O O6 0.134276 0.838985 0.341604
O O7 0.065180 0.891659 0.459187
O O8 0.175801 0.961958 0.356699
O O9 0.112810 0.592217 0.487073
O O10 0.000000 0.500000 0.500000
O O11 0.995361 0.617799 0.597722
O O12 0.250000 0.500000 0.002113
O O13 0.912888 0.250000 0.750000
O O14 0.000000 0.135671 0.750000
O O15 0.000000 0.250000 0.149322
O O16 0.000000 0.152869 0.250000
#
# Coordination Sequence:
#
# PCOD9508477 Si02
#       7
#    16  16  16  16  16   8  16
#     4  11  23  44  69 100 137 186 230 297 348 428
#     4  11  22  42  63 100 132 173 222 278 364 407
#     4  12  24  43  72 103 140 183 235 304 355 430
#     4  12  22  41  64 100 138 171 227 286 357 415
#     4  10  24  45  67  93 131 176 227 278 343 426
#     4  10  22  38  72 100 140 176 232 292 360 426
#     4  11  28  48  70 104 145 196 247 291 362 444
#
# _framework density 20.18207
#
# number of rings (size 3 to 8) (size 9 to 14) (size 15 to 20)
#    0.000    0.923    4.615    0.923    8.615    0.000 
#    5.538    1.538    0.000    0.000    0.000    0.000 
#    0.000    0.000    0.000    0.000    0.000    0.000 
#
# Total GULP energy -289571.773971 kJ/mol
# GULP energy per Si atom -5568.687961 kJ/mol
# Density = 2.013613 g / cm^3
# Si number density = 20.182070 Si / 1000 Ang^3
#
#
#
# Elastic Constant Matrix: (Units=GPa)
#
#
# Indices 1 2 3 4 5 6 
#
# 1 159.4695 35.5300 39.8509 0.0000 0.0000 0.0000
# 2 35.5300 76.8320 50.9898 0.0000 0.0000 0.0000
# 3 39.8509 50.9898 149.4004 0.0000 0.0000 0.0000
# 4 0.0000 0.0000 0.0000 -7.5217 0.0000 0.0000
# 5 0.0000 0.0000 0.0000 0.0000 40.5763 0.0000
# 6 0.0000 0.0000 0.0000 0.0000 0.0000 -30.3855
#
#
#
# Elastic Compliance Matrix: (Units=1/GPa)
#
#
# Indices 1 2 3 4 5 6 
#
# 1 0.007105 -0.002622 -0.001000 0.000000 0.000000 0.000000
# 2 -0.002622 0.017794 -0.005374 0.000000 0.000000 0.000000
# 3 -0.001000 -0.005374 0.008794 0.000000 0.000000 0.000000
# 4 0.000000 0.000000 0.000000 -0.132948 0.000000 0.000000
# 5 0.000000 0.000000 0.000000 0.000000 0.024645 0.000000
# 6 0.000000 0.000000 0.000000 0.000000 0.000000 -0.032910
#
#
# Mechanical properties :
#
#
# Convention : Reuss Voigt Hill
#
# Bulk Modulus (GPa) = 63.68749 70.93814 67.31282
# Shear Modulus (GPa) = -59.31538 17.82257 -20.74640
#
# Velocity S-wave (km/s) = -5.42715 2.97491 -3.20966
# Velocity P-wave (km/s) = 2.76531 6.85751 4.43726
#
# Compressibility (1/GPa) = 0.01570167
#
# Stress axis : x y z
#
# Youngs Moduli (GPa) = 140.74807 56.19853 113.70988
#
# Poissons Ratio (x) = 0.14733 0.11375
# Poissons Ratio (y) = 0.36899 0.61105
# Poissons Ratio (z) = 0.14080 0.30200
#
# Static dielectric constant tensor:
#      x y z
#    x 1.780270 0.000000 0.000000 
#    y 0.000000 1.519490 0.000000 
#    z 0.000000 0.000000 1.598520 
# 
# From -- ./inp_files/31100.got.cif
#   From: 2010.05.17/outbox.cif.g08.bks.cpg/sg68_16_cif.got.tgz:31100.got - 2010.06.03 18:57:09.
