data_PCOD9508313
_publ_section_title
;
Structure prediction by ZEFSAII (Michael W. Deem and Ramdas Pophale) SiO2 
 PCOD9508313
Probable space group: C C C A
;
_chemical_formula_sum "Si O2"
_cell_formula_units_Z 60
_cell_length_a 25.145735
_cell_length_b 10.290891
_cell_length_c 9.013251
_cell_angle_alpha 90.000000
_cell_angle_beta 90.000000
_cell_angle_gamma 90.000000
_cell_volume 2332.377150
_symmetry_space_group_name_H-M "C C C A"
_symmetry_group_IT_number 68
_space_group.IT_coordinate_system_code '2'
_symmetry_cell_setting 'orthorhombic'
loop_
_space_group_symop_operation_xyz
x,y,z
-x,1/2-y,z
x,1/2-y,1/2-z
-x,y,1/2-z
-x,-y,-z
x,1/2+y,-z
-x,1/2+y,1/2+z
x,-y,1/2+z
1/2+x,1/2+y,z
1/2-x,-y,z
1/2+x,-y,1/2-z
1/2-x,1/2+y,1/2-z
1/2-x,1/2-y,-z
1/2+x,y,-z
1/2-x,y,1/2+z
1/2+x,1/2-y,1/2+z
loop_
_atom_site_type_symbol
_atom_site_label
_atom_site_fract_x
_atom_site_fract_y
_atom_site_fract_z
Si Si1 0.821614 0.890460 0.391004
Si Si2 0.075823 0.196487 0.505656
Si Si3 0.000000 0.750000 0.250000
Si Si4 0.750000 0.000000 0.648975
Si Si5 0.399815 0.385822 0.788160
O O1 0.789920 0.925221 0.539811
O O2 0.861909 0.007157 0.350304
O O3 0.864807 0.779770 0.426921
O O4 0.780293 0.898323 0.255925
O O5 0.076814 0.088720 0.374965
O O6 0.060980 0.326812 0.412532
O O7 0.037751 0.169183 0.641525
O O8 0.368641 0.250000 0.750000
#
# Coordination Sequence:
#
# PCOD9508313 Si02
#       5
#    16  16   4   8  16
#     4  11  19  42  61  95 131 171 206 265 315 376
#     4   9  23  40  64  90 128 164 210 277 309 381
#     4  12  24  42  68 100 114 166 232 260 332 384
#     4  10  22  32  70  94 128 172 216 242 322 392
#     4   8  20  42  63  86 133 168 205 270 316 365
#
# _framework density 25.724827000000001
#
# number of rings (size 3 to 8) (size 9 to 14) (size 15 to 20)
#    1.600    0.533    2.667    0.000    3.733    2.133 
#    0.000   20.000    0.000    0.000    0.000    0.000 
#    0.000    0.000    0.000    0.000    0.000    0.000 
#
# Total GULP energy -167263.865827 kJ/mol
# GULP energy per Si atom -5575.462194 kJ/mol
# Density = 2.566628 g / cm^3
# Si number density = 25.724827 Si / 1000 Ang^3
#
#
#
# Elastic Constant Matrix: (Units=GPa)
#
#
# Indices 1 2 3 4 5 6 
#
# 1 116.3211 0.1202 91.4736 0.0000 0.0000 0.0000
# 2 0.1202 36.2955 19.7025 0.0000 0.0000 0.0000
# 3 91.4736 19.7025 235.3351 0.0000 0.0000 0.0000
# 4 0.0000 0.0000 0.0000 26.9464 0.0000 0.0000
# 5 0.0000 0.0000 0.0000 0.0000 56.3721 0.0000
# 6 0.0000 0.0000 0.0000 0.0000 0.0000 26.0950
#
#
#
# Elastic Compliance Matrix: (Units=1/GPa)
#
#
# Indices 1 2 3 4 5 6 
#
# 1 0.012638 0.002750 -0.005143 0.000000 0.000000 0.000000
# 2 0.002750 0.029462 -0.003535 0.000000 0.000000 0.000000
# 3 -0.005143 -0.003535 0.006544 0.000000 0.000000 0.000000
# 4 0.000000 0.000000 0.000000 0.037111 0.000000 0.000000
# 5 0.000000 0.000000 0.000000 0.000000 0.017739 0.000000
# 6 0.000000 0.000000 0.000000 0.000000 0.000000 0.038321
#
#
# Mechanical properties :
#
#
# Convention : Reuss Voigt Hill
#
# Bulk Modulus (GPa) = 27.18318 67.83826 47.51072
# Shear Modulus (GPa) = 30.13241 40.32641 35.22941
#
# Velocity S-wave (km/s) = 3.42619 3.96360 3.70465
# Velocity P-wave (km/s) = 5.12265 6.88293 6.06697
#
# Compressibility (1/GPa) = 0.03678745
#
# Stress axis : x y z
#
# Youngs Moduli (GPa) = 79.12573 33.94243 152.80852
#
# Poissons Ratio (x) = -0.09333 0.78583
# Poissons Ratio (y) = -0.21757 0.54023
# Poissons Ratio (z) = 0.40691 0.12000
#
# Static dielectric constant tensor:
#      x y z
#    x 2.103880 0.000000 0.000000 
#    y 0.000000 2.058960 0.000000 
#    z 0.000000 0.000000 2.168870 
# 
# From -- ./inp_files/7710.got.cif
#   From: 2010.05.17/outbox.cif.g08.bks.cpg/sg68_4_cif.got.tgz:7710.got - 2010.06.03 18:57:09.
