data_PCOD9508184
_publ_section_title
;
Structure prediction by ZEFSAII (Michael W. Deem and Ramdas Pophale) SiO2 
 PCOD9508184
Probable space group: C C C A
;
_chemical_formula_sum "Si O2"
_cell_formula_units_Z 64
_cell_length_a 5.545680
_cell_length_b 13.953436
_cell_length_c 38.877812
_cell_angle_alpha 90.000000
_cell_angle_beta 90.000000
_cell_angle_gamma 90.000000
_cell_volume 3008.415282
_symmetry_space_group_name_H-M "C C C A"
_symmetry_group_IT_number 68
_space_group.IT_coordinate_system_code '2'
_symmetry_cell_setting 'orthorhombic'
loop_
_space_group_symop_operation_xyz
x,y,z
-x,1/2-y,z
x,1/2-y,1/2-z
-x,y,1/2-z
-x,-y,-z
x,1/2+y,-z
-x,1/2+y,1/2+z
x,-y,1/2+z
1/2+x,1/2+y,z
1/2-x,-y,z
1/2+x,-y,1/2-z
1/2-x,1/2+y,1/2-z
1/2-x,1/2-y,-z
1/2+x,y,-z
1/2-x,y,1/2+z
1/2+x,1/2-y,1/2+z
loop_
_atom_site_type_symbol
_atom_site_label
_atom_site_fract_x
_atom_site_fract_y
_atom_site_fract_z
Si Si1 0.000000 0.750000 0.891937
Si Si2 0.499802 0.560132 0.787442
Si Si3 0.856404 0.600646 0.426376
Si Si4 0.393774 0.645663 0.860403
Si Si5 0.500000 0.750000 0.978887
O O1 0.838585 0.682512 0.916254
O O2 0.884245 0.830543 0.866700
O O3 0.500000 0.611300 0.750000
O O4 0.250000 0.500000 0.786870
O O5 0.474041 0.617656 0.822651
O O6 0.750000 0.500000 0.789388
O O7 0.750000 0.500000 0.438217
O O8 0.005185 0.580830 0.391088
O O9 0.010451 0.655135 0.454937
O O10 0.500000 0.750000 0.867916
O O11 0.250000 0.750000 0.000000
#
# Coordination Sequence:
#
# PCOD9508184 Si02
#       5
#     8  16  16  16   8
#     4  10  21  42  64 107 139 174 232 307 336 410
#     4  10  23  41  62  94 137 180 229 285 344 414
#     4  11  24  44  71 102 138 184 235 287 355 416
#     4  10  22  38  66  96 135 176 234 290 344 408
#     4  12  27  50  72 102 150 182 231 299 348 436
#
# _framework density 21.273658999999999
#
# number of rings (size 3 to 8) (size 9 to 14) (size 15 to 20)
#    0.000    1.500    3.750    1.500   10.500    1.500 
#    0.000    0.000    0.000    0.000    0.000    0.000 
#    0.000    0.000    0.000    0.000    0.000    0.000 
#
# Total GULP energy -178259.064598 kJ/mol
# GULP energy per Si atom -5570.595769 kJ/mol
# Density = 2.122524 g / cm^3
# Si number density = 21.273659 Si / 1000 Ang^3
#
#
#
# Elastic Constant Matrix: (Units=GPa)
#
#
# Indices 1 2 3 4 5 6 
#
# 1 99.9996 30.8978 38.3675 0.0000 0.0000 0.0000
# 2 30.8978 94.4054 48.3382 0.0000 0.0000 0.0000
# 3 38.3675 48.3382 128.3578 0.0000 0.0000 0.0000
# 4 0.0000 0.0000 0.0000 168.4899 0.0000 0.0000
# 5 0.0000 0.0000 0.0000 0.0000 26.5434 0.0000
# 6 0.0000 0.0000 0.0000 0.0000 0.0000 25.0147
#
#
#
# Elastic Compliance Matrix: (Units=1/GPa)
#
#
# Indices 1 2 3 4 5 6 
#
# 1 0.011767 -0.002540 -0.002561 0.000000 0.000000 0.000000
# 2 -0.002540 0.013671 -0.004389 0.000000 0.000000 0.000000
# 3 -0.002561 -0.004389 0.010209 0.000000 0.000000 0.000000
# 4 0.000000 0.000000 0.000000 0.005935 0.000000 0.000000
# 5 0.000000 0.000000 0.000000 0.000000 0.037674 0.000000
# 6 0.000000 0.000000 0.000000 0.000000 0.000000 0.039977
#
#
# Mechanical properties :
#
#
# Convention : Reuss Voigt Hill
#
# Bulk Modulus (GPa) = 59.99677 61.99663 60.99670
# Shear Modulus (GPa) = 34.77782 57.68689 46.23236
#
# Velocity S-wave (km/s) = 4.04763 5.21301 4.66684
# Velocity P-wave (km/s) = 7.07870 8.08948 7.60091
#
# Compressibility (1/GPa) = 0.01666756
#
# Stress axis : x y z
#
# Youngs Moduli (GPa) = 84.98048 73.14554 97.95176
#
# Poissons Ratio (x) = 0.18580 0.25084
# Poissons Ratio (y) = 0.21586 0.42993
# Poissons Ratio (z) = 0.21762 0.32105
#
# Static dielectric constant tensor:
#      x y z
#    x 2.076600 0.000000 0.000000 
#    y 0.000000 1.751920 0.000000 
#    z 0.000000 0.000000 1.819800 
# 
# From -- ./inp_files/52951.got.cif
#   From: 2010.05.17/outbox.cif.g08.bks.cpg/sg68_27_cif.got.tgz:52951.got - 2010.06.03 18:57:09.
