data_PCOD9508880
_publ_section_title
;
Structure prediction by ZEFSAII (Michael W. Deem and Ramdas Pophale) SiO2 
 PCOD9508880
Probable space group: C C C A
;
_chemical_formula_sum "Si O2"
_cell_formula_units_Z 116
_cell_length_a 18.558465
_cell_length_b 12.410648
_cell_length_c 22.019211
_cell_angle_alpha 90.000000
_cell_angle_beta 90.000000
_cell_angle_gamma 90.000000
_cell_volume 5071.521411
_symmetry_space_group_name_H-M "C C C A"
_symmetry_group_IT_number 68
_space_group.IT_coordinate_system_code '2'
_symmetry_cell_setting 'orthorhombic'
loop_
_space_group_symop_operation_xyz
x,y,z
-x,1/2-y,z
x,1/2-y,1/2-z
-x,y,1/2-z
-x,-y,-z
x,1/2+y,-z
-x,1/2+y,1/2+z
x,-y,1/2+z
1/2+x,1/2+y,z
1/2-x,-y,z
1/2+x,-y,1/2-z
1/2-x,1/2+y,1/2-z
1/2-x,1/2-y,-z
1/2+x,y,-z
1/2-x,y,1/2+z
1/2+x,1/2-y,1/2+z
loop_
_atom_site_type_symbol
_atom_site_label
_atom_site_fract_x
_atom_site_fract_y
_atom_site_fract_z
Si Si1 0.566769 0.181512 0.561622
Si Si2 0.792247 0.814906 0.946248
Si Si3 0.668270 0.523647 0.963544
Si Si4 0.000000 0.250000 0.750000
Si Si5 0.411420 0.593129 0.835980
Si Si6 0.470450 0.576397 0.183683
Si Si7 0.833791 0.274577 0.878637
Si Si8 0.172604 0.054132 0.777114
O O1 0.500000 0.250000 0.532849
O O2 0.631898 0.262338 0.561722
O O3 0.546974 0.159023 0.631390
O O4 0.607343 0.069421 0.538771
O O5 0.742462 0.783029 0.890379
O O6 0.750000 0.750000 0.000000
O O7 0.811994 0.933900 0.969151
O O8 0.750000 0.500000 0.937945
O O9 0.646264 0.628390 0.924318
O O10 0.954412 0.171658 0.791081
O O11 0.466676 0.497503 0.846132
O O12 0.387905 0.674679 0.888031
O O13 0.343168 0.559598 0.794921
O O14 0.500000 0.610852 0.250000
O O15 0.395917 0.512575 0.196866
O O16 0.831612 0.332351 0.813052
O O17 0.250000 0.000000 0.788854
#
# Coordination Sequence:
#
# PCOD9508880 Si02
#       8
#    16  16  16   4  16  16  16  16
#     4  12  25  46  73 105 141 190 247 298 379 451
#     4  10  23  45  73 104 132 179 244 302 368 435
#     4  11  22  46  74 100 136 185 235 305 372 434
#     4  12  16  36  60  92 150 180 222 284 360 408
#     4  11  21  37  62 101 147 185 231 291 352 430
#     4  10  22  43  64  99 148 198 232 288 369 439
#     4  11  19  37  69 102 130 183 242 286 362 434
#     4  11  19  34  63  96 138 187 240 289 347 429
#
# _framework density 22.872820000000001
#
# number of rings (size 3 to 8) (size 9 to 14) (size 15 to 20)
#    0.000    1.103    7.586    1.241    0.000    0.828 
#    7.448    2.759    0.000    0.000    0.000    0.000 
#    0.000    0.000    0.000    0.000    0.000    0.000 
#
# Total GULP energy -323278.300364 kJ/mol
# GULP energy per Si atom -5573.763799 kJ/mol
# Density = 2.282076 g / cm^3
# Si number density = 22.872820 Si / 1000 Ang^3
#
#
#
# Elastic Constant Matrix: (Units=GPa)
#
#
# Indices 1 2 3 4 5 6 
#
# 1 153.2330 70.1683 32.5131 0.0000 0.0000 0.0000
# 2 70.1683 100.5380 45.5183 0.0000 0.0000 0.0000
# 3 32.5131 45.5183 30.3183 0.0000 0.0000 0.0000
# 4 0.0000 0.0000 0.0000 1154.3852 0.0000 0.0000
# 5 0.0000 0.0000 0.0000 0.0000 11.0615 0.0000
# 6 0.0000 0.0000 0.0000 0.0000 0.0000 61.4990
#
#
#
# Elastic Compliance Matrix: (Units=1/GPa)
#
#
# Indices 1 2 3 4 5 6 
#
# 1 0.009597 -0.006365 -0.000736 0.000000 0.000000 0.000000
# 2 -0.006365 0.035278 -0.046139 0.000000 0.000000 0.000000
# 3 -0.000736 -0.046139 0.103043 0.000000 0.000000 0.000000
# 4 0.000000 0.000000 0.000000 0.000866 0.000000 0.000000
# 5 0.000000 0.000000 0.000000 0.000000 0.090404 0.000000
# 6 0.000000 0.000000 0.000000 0.000000 0.000000 0.016260
#
#
# Mechanical properties :
#
#
# Convention : Reuss Voigt Hill
#
# Bulk Modulus (GPa) = 24.13194 64.49875 44.31535
# Shear Modulus (GPa) = 13.30707 254.44845 133.87776
#
# Velocity S-wave (km/s) = 2.41464 10.55871 7.65888
# Velocity P-wave (km/s) = 4.28338 13.30070 9.88069
#
# Compressibility (1/GPa) = 0.04143885
#
# Stress axis : x y z
#
# Youngs Moduli (GPa) = 104.20345 28.34642 9.70465
#
# Poissons Ratio (x) = 0.18041 0.00714
# Poissons Ratio (y) = 0.66321 0.44776
# Poissons Ratio (z) = 0.07668 1.30788
#
# Static dielectric constant tensor:
#      x y z
#    x 2.500610 0.000000 0.000000 
#    y 0.000000 1.867680 0.000000 
#    z 0.000000 0.000000 1.936200 
# 
# From -- ./inp_files/51496.got.cif
#   From: 2010.05.17/outbox.cif.g08.bks.cpg/sg68_26_cif.got.tgz:51496.got - 2010.06.03 18:57:09.
