data_PCOD9508198
_publ_section_title
;
Structure prediction by ZEFSAII (Michael W. Deem and Ramdas Pophale) SiO2 
 PCOD9508198
Probable space group: C C C A
;
_chemical_formula_sum "Si O2"
_cell_formula_units_Z 88
_cell_length_a 25.033532
_cell_length_b 11.203890
_cell_length_c 13.495426
_cell_angle_alpha 90.000000
_cell_angle_beta 90.000000
_cell_angle_gamma 90.000000
_cell_volume 3785.101791
_symmetry_space_group_name_H-M "C C C A"
_symmetry_group_IT_number 68
_space_group.IT_coordinate_system_code '2'
_symmetry_cell_setting 'orthorhombic'
loop_
_space_group_symop_operation_xyz
x,y,z
-x,1/2-y,z
x,1/2-y,1/2-z
-x,y,1/2-z
-x,-y,-z
x,1/2+y,-z
-x,1/2+y,1/2+z
x,-y,1/2+z
1/2+x,1/2+y,z
1/2-x,-y,z
1/2+x,-y,1/2-z
1/2-x,1/2+y,1/2-z
1/2-x,1/2-y,-z
1/2+x,y,-z
1/2-x,y,1/2+z
1/2+x,1/2-y,1/2+z
loop_
_atom_site_type_symbol
_atom_site_label
_atom_site_fract_x
_atom_site_fract_y
_atom_site_fract_z
Si Si1 0.492266 0.380036 0.104022
Si Si2 0.707300 0.329261 0.058782
Si Si3 0.158183 0.923683 0.873371
Si Si4 0.121991 0.325871 0.650450
Si Si5 0.265985 0.250000 0.750000
Si Si6 0.966697 0.367738 0.385930
O O1 0.500000 0.250000 0.151936
O O2 0.428740 0.375571 0.091337
O O3 0.498236 0.511931 0.148352
O O4 0.526622 0.375128 0.005137
O O5 0.653632 0.255778 0.075847
O O6 0.731972 0.328936 0.170274
O O7 0.750000 0.250000 0.000000
O O8 0.685765 0.431853 0.983828
O O9 0.196624 0.838446 0.811756
O O10 0.096943 0.872490 0.866534
O O11 0.155456 0.055487 0.827182
O O12 0.110355 0.250000 0.750000
O O13 0.000000 0.250000 0.356584
#
# Coordination Sequence:
#
# PCOD9508198 Si02
#       6
#    16  16  16  16   8  16
#     4   9  18  34  62  93 130 173 224 277 347 421
#     4  10  21  42  66  97 131 180 235 289 357 425
#     4  10  23  44  68  98 142 183 231 298 361 433
#     4  11  23  44  65 100 142 182 237 298 357 427
#     4  10  22  44  65 102 135 182 238 296 364 426
#     4   9  17  35  64  95 129 173 225 281 340 425
#
# _framework density 23.249044999999999
#
# number of rings (size 3 to 8) (size 9 to 14) (size 15 to 20)
#    0.000    2.182    0.909    2.182    0.000    3.273 
#   13.091    0.455    0.000    0.000    0.000    0.000 
#    0.000    0.000    0.000    0.000    0.000    0.000 
#
# Total GULP energy -244943.985293 kJ/mol
# GULP energy per Si atom -5566.908757 kJ/mol
# Density = 2.319613 g / cm^3
# Si number density = 23.249045 Si / 1000 Ang^3
#
#
#
# Elastic Constant Matrix: (Units=GPa)
#
#
# Indices 1 2 3 4 5 6 
#
# 1 59.5949 31.6625 33.7694 0.0000 0.0000 0.0000
# 2 31.6625 159.7321 35.8079 0.0000 0.0000 0.0000
# 3 33.7694 35.8079 123.5818 0.0000 0.0000 0.0000
# 4 0.0000 0.0000 0.0000 3.7488 0.0000 0.0000
# 5 0.0000 0.0000 0.0000 0.0000 5.7433 0.0000
# 6 0.0000 0.0000 0.0000 0.0000 0.0000 20.7855
#
#
#
# Elastic Compliance Matrix: (Units=1/GPa)
#
#
# Indices 1 2 3 4 5 6 
#
# 1 0.021203 -0.003106 -0.004894 0.000000 0.000000 0.000000
# 2 -0.003106 0.007150 -0.001223 0.000000 0.000000 0.000000
# 3 -0.004894 -0.001223 0.009784 0.000000 0.000000 0.000000
# 4 0.000000 0.000000 0.000000 0.266751 0.000000 0.000000
# 5 0.000000 0.000000 0.000000 0.000000 0.174116 0.000000
# 6 0.000000 0.000000 0.000000 0.000000 0.000000 0.048110
#
#
# Mechanical properties :
#
#
# Convention : Reuss Voigt Hill
#
# Bulk Modulus (GPa) = 50.78416 60.59872 55.69144
# Shear Modulus (GPa) = 9.05593 22.16679 15.61136
#
# Velocity S-wave (km/s) = 1.97576 3.09115 2.59411
# Velocity P-wave (km/s) = 5.20536 6.23393 5.74272
#
# Compressibility (1/GPa) = 0.01969118
#
# Stress axis : x y z
#
# Youngs Moduli (GPa) = 47.16257 139.85378 102.21277
#
# Poissons Ratio (x) = 0.43437 0.50023
# Poissons Ratio (y) = 0.14648 0.12502
# Poissons Ratio (z) = 0.23081 0.17106
#
# Static dielectric constant tensor:
#      x y z
#    x 1.908010 0.000000 0.000000 
#    y 0.000000 1.951100 0.000000 
#    z 0.000000 0.000000 1.927210 
# 
# From -- ./inp_files/25240.got.cif
#   From: 2010.05.17/outbox.cif.g08.bks.cpg/sg68_13_cif.got.tgz:25240.got - 2010.06.03 18:57:09.
