data_PCOD9508889
_publ_section_title
;
Structure prediction by ZEFSAII (Michael W. Deem and Ramdas Pophale) SiO2 
 PCOD9508889
Probable space group: C C C A
;
_chemical_formula_sum "Si O2"
_cell_formula_units_Z 96
_cell_length_a 25.092096
_cell_length_b 11.348014
_cell_length_c 17.330300
_cell_angle_alpha 90.000000
_cell_angle_beta 90.000000
_cell_angle_gamma 90.000000
_cell_volume 4934.724188
_symmetry_space_group_name_H-M "C C C A"
_symmetry_group_IT_number 68
_space_group.IT_coordinate_system_code '2'
_symmetry_cell_setting 'orthorhombic'
loop_
_space_group_symop_operation_xyz
x,y,z
-x,1/2-y,z
x,1/2-y,1/2-z
-x,y,1/2-z
-x,-y,-z
x,1/2+y,-z
-x,1/2+y,1/2+z
x,-y,1/2+z
1/2+x,1/2+y,z
1/2-x,-y,z
1/2+x,-y,1/2-z
1/2-x,1/2+y,1/2-z
1/2-x,1/2-y,-z
1/2+x,y,-z
1/2-x,y,1/2+z
1/2+x,1/2-y,1/2+z
loop_
_atom_site_type_symbol
_atom_site_label
_atom_site_fract_x
_atom_site_fract_y
_atom_site_fract_z
Si Si1 0.677259 0.795200 0.664858
Si Si2 0.567240 0.088301 0.120580
Si Si3 0.918403 0.750000 0.750000
Si Si4 0.000000 0.250000 0.504067
Si Si5 0.000000 0.453802 0.250000
Si Si6 0.250000 0.500000 0.090804
Si Si7 0.803384 0.676868 0.013886
Si Si8 0.101457 0.664448 0.585680
O O1 0.688401 0.750000 0.750000
O O2 0.615585 0.835843 0.656664
O O3 0.717978 0.901373 0.640187
O O4 0.685455 0.688687 0.603908
O O5 0.531188 0.158692 0.059547
O O6 0.527475 0.033772 0.185016
O O7 0.597693 0.976717 0.083910
O O8 0.954539 0.638810 0.723044
O O9 0.888796 0.795113 0.673716
O O10 0.955864 0.301570 0.447129
O O11 0.208177 0.442657 0.031384
O O12 0.750000 0.750000 0.000000
O O13 0.855016 0.723714 0.969216
#
# Coordination Sequence:
#
# PCOD9508889 Si02
#       8
#    16  16   8   8   8   8  16  16
#     4  11  24  43  67  98 131 164 219 271 322 389
#     4  11  23  38  60  92 127 173 209 259 319 387
#     4   9  20  40  62  88 124 164 218 263 302 378
#     4  12  24  36  62  90 128 166 216 258 315 395
#     4   9  20  37  56  88 130 165 208 257 312 370
#     4  10  22  48  70  88 130 170 216 276 320 388
#     4  10  22  43  67  92 124 169 212 268 329 381
#     4  11  21  42  64  91 124 167 216 266 320 380
#
# _framework density 19.453976000000001
#
# number of rings (size 3 to 8) (size 9 to 14) (size 15 to 20)
#    0.000    1.500    3.333    2.500    2.333    0.667 
#    6.000    8.333    0.000    0.000    0.000    0.000 
#    0.000    0.000    0.000    0.000    0.000    0.000 
#
# Total GULP energy -267467.436153 kJ/mol
# GULP energy per Si atom -5572.238253 kJ/mol
# Density = 1.940970 g / cm^3
# Si number density = 19.453976 Si / 1000 Ang^3
#
#
#
# Elastic Constant Matrix: (Units=GPa)
#
#
# Indices 1 2 3 4 5 6 
#
# 1 93.6165 20.6257 51.8402 0.0000 0.0000 0.0000
# 2 20.6257 64.6872 55.6001 0.0000 0.0000 0.0000
# 3 51.8402 55.6001 155.2214 0.0000 0.0000 0.0000
# 4 0.0000 0.0000 0.0000 24.4235 0.0000 0.0000
# 5 0.0000 0.0000 0.0000 0.0000 18.6530 0.0000
# 6 0.0000 0.0000 0.0000 0.0000 0.0000 11.7585
#
#
#
# Elastic Compliance Matrix: (Units=1/GPa)
#
#
# Indices 1 2 3 4 5 6 
#
# 1 0.013122 -0.000603 -0.004166 0.000000 0.000000 0.000000
# 2 -0.000603 0.022363 -0.007809 0.000000 0.000000 0.000000
# 3 -0.004166 -0.007809 0.010631 0.000000 0.000000 0.000000
# 4 0.000000 0.000000 0.000000 0.040944 0.000000 0.000000
# 5 0.000000 0.000000 0.000000 0.000000 0.053611 0.000000
# 6 0.000000 0.000000 0.000000 0.000000 0.000000 0.085045
#
#
# Mechanical properties :
#
#
# Convention : Reuss Voigt Hill
#
# Bulk Modulus (GPa) = 47.71105 63.29523 55.50314
# Shear Modulus (GPa) = 19.39039 23.33094 21.36067
#
# Velocity S-wave (km/s) = 3.16053 3.46683 3.31722
# Velocity P-wave (km/s) = 6.15605 6.97365 6.57756
#
# Compressibility (1/GPa) = 0.02095951
#
# Stress axis : x y z
#
# Youngs Moduli (GPa) = 76.20867 44.71589 94.06303
#
# Poissons Ratio (x) = 0.02695 0.39191
# Poissons Ratio (y) = 0.04594 0.73456
# Poissons Ratio (z) = 0.31752 0.34920
#
# Static dielectric constant tensor:
#      x y z
#    x 1.560380 0.000000 0.000000 
#    y 0.000000 1.728440 0.000000 
#    z 0.000000 0.000000 1.667250 
# 
# From -- ./inp_files/33615.got.cif
#   From: 2010.05.17/outbox.cif.g08.bks.cpg/sg68_17_cif.got.tgz:33615.got - 2010.06.03 18:57:09.
