data_PCOD9508470
_publ_section_title
;
Structure prediction by ZEFSAII (Michael W. Deem and Ramdas Pophale) SiO2 
 PCOD9508470
Probable space group: C C C A
;
_chemical_formula_sum "Si O2"
_cell_formula_units_Z 68
_cell_length_a 13.921048
_cell_length_b 10.918564
_cell_length_c 22.103694
_cell_angle_alpha 90.000000
_cell_angle_beta 90.000000
_cell_angle_gamma 90.000000
_cell_volume 3359.714043
_symmetry_space_group_name_H-M "C C C A"
_symmetry_group_IT_number 68
_space_group.IT_coordinate_system_code '2'
_symmetry_cell_setting 'orthorhombic'
loop_
_space_group_symop_operation_xyz
x,y,z
-x,1/2-y,z
x,1/2-y,1/2-z
-x,y,1/2-z
-x,-y,-z
x,1/2+y,-z
-x,1/2+y,1/2+z
x,-y,1/2+z
1/2+x,1/2+y,z
1/2-x,-y,z
1/2+x,-y,1/2-z
1/2-x,1/2+y,1/2-z
1/2-x,1/2-y,-z
1/2+x,y,-z
1/2-x,y,1/2+z
1/2+x,1/2-y,1/2+z
loop_
_atom_site_type_symbol
_atom_site_label
_atom_site_fract_x
_atom_site_fract_y
_atom_site_fract_z
Si Si1 0.883268 0.427207 0.663006
Si Si2 0.395964 0.192047 0.037039
Si Si3 0.220998 0.635239 0.579761
Si Si4 0.000000 0.250000 0.750000
Si Si5 0.172153 0.186563 0.185174
O O1 0.904226 0.402016 0.592693
O O2 0.896955 0.570090 0.677405
O O3 0.776122 0.377509 0.676654
O O4 0.944382 0.340031 0.705468
O O5 0.500000 0.250000 0.024862
O O6 0.318331 0.293826 0.059362
O O7 0.348533 0.130951 0.978295
O O8 0.250000 0.500000 0.600516
O O9 0.169718 0.713033 0.632250
O O10 0.163493 0.250000 0.250000
#
# Coordination Sequence:
#
# PCOD9508470 Si02
#       5
#    16  16  16   4  16
#     4  10  22  38  67  92 127 163 224 257 325 392
#     4  10  22  42  64  94 125 174 213 270 321 385
#     4  10  24  40  65  96 130 166 222 263 326 393
#     4  12  20  40  66 104 116 166 218 278 312 412
#     4  10  22  41  63  91 128 174 207 270 327 386
#
# _framework density 20.239816999999999
#
# number of rings (size 3 to 8) (size 9 to 14) (size 15 to 20)
#    0.000    1.882    2.353    0.000   13.176    0.941 
#    0.000    0.588    0.000    0.000    0.000    0.000 
#    0.000    0.000    0.000    0.000    0.000    0.000 
#
# Total GULP energy -189873.671979 kJ/mol
# GULP energy per Si atom -5584.519764 kJ/mol
# Density = 2.019375 g / cm^3
# Si number density = 20.239817 Si / 1000 Ang^3
#
#
#
# Elastic Constant Matrix: (Units=GPa)
#
#
# Indices 1 2 3 4 5 6 
#
# 1 52.9044 18.1409 29.9925 0.0000 0.0000 0.0000
# 2 18.1409 165.8997 82.4246 0.0000 0.0000 0.0000
# 3 29.9925 82.4246 159.3466 0.0000 0.0000 0.0000
# 4 0.0000 0.0000 0.0000 14.7335 0.0000 0.0000
# 5 0.0000 0.0000 0.0000 0.0000 2.0943 0.0000
# 6 0.0000 0.0000 0.0000 0.0000 0.0000 -26.3363
#
#
#
# Elastic Compliance Matrix: (Units=1/GPa)
#
#
# Indices 1 2 3 4 5 6 
#
# 1 0.021185 -0.000451 -0.003754 0.000000 0.000000 0.000000
# 2 -0.000451 0.008122 -0.004116 0.000000 0.000000 0.000000
# 3 -0.003754 -0.004116 0.009111 0.000000 0.000000 0.000000
# 4 0.000000 0.000000 0.000000 0.067872 0.000000 0.000000
# 5 0.000000 0.000000 0.000000 0.000000 0.477497 0.000000
# 6 0.000000 0.000000 0.000000 0.000000 0.000000 -0.037970
#
#
# Mechanical properties :
#
#
# Convention : Reuss Voigt Hill
#
# Bulk Modulus (GPa) = 45.92394 71.02963 58.47679
# Shear Modulus (GPa) = 8.77625 14.60448 11.69036
#
# Velocity S-wave (km/s) = 2.08460 2.68912 2.40592
# Velocity P-wave (km/s) = 5.34165 6.69418 6.05579
#
# Compressibility (1/GPa) = 0.02177514
#
# Stress axis : x y z
#
# Youngs Moduli (GPa) = 47.20317 123.11827 109.75168
#
# Poissons Ratio (x) = 0.05558 0.41200
# Poissons Ratio (y) = 0.02131 0.45178
# Poissons Ratio (z) = 0.17720 0.50680
#
# Static dielectric constant tensor:
#      x y z
#    x 1.727340 0.000000 0.000000 
#    y 0.000000 1.715460 0.000000 
#    z 0.000000 0.000000 1.708410 
# 
# From -- ./inp_files/37198.got.cif
#   From: 2010.05.17/outbox.cif.g08.bks.cpg/sg68_19_cif.got.tgz:37198.got - 2010.06.03 18:57:09.
