data_PCOD9508053
_publ_section_title
;
Structure prediction by ZEFSAII (Michael W. Deem and Ramdas Pophale) SiO2 
 PCOD9508053
Probable space group: C C C A
;
_chemical_formula_sum "Si O2"
_cell_formula_units_Z 80
_cell_length_a 11.851595
_cell_length_b 10.420140
_cell_length_c 28.938922
_cell_angle_alpha 90.000000
_cell_angle_beta 90.000000
_cell_angle_gamma 90.000000
_cell_volume 3573.820250
_symmetry_space_group_name_H-M "C C C A"
_symmetry_group_IT_number 68
_space_group.IT_coordinate_system_code '2'
_symmetry_cell_setting 'orthorhombic'
loop_
_space_group_symop_operation_xyz
x,y,z
-x,1/2-y,z
x,1/2-y,1/2-z
-x,y,1/2-z
-x,-y,-z
x,1/2+y,-z
-x,1/2+y,1/2+z
x,-y,1/2+z
1/2+x,1/2+y,z
1/2-x,-y,z
1/2+x,-y,1/2-z
1/2-x,1/2+y,1/2-z
1/2-x,1/2-y,-z
1/2+x,y,-z
1/2-x,y,1/2+z
1/2+x,1/2-y,1/2+z
loop_
_atom_site_type_symbol
_atom_site_label
_atom_site_fract_x
_atom_site_fract_y
_atom_site_fract_z
Si Si1 0.592751 0.524802 0.842393
Si Si2 0.558758 0.120186 0.061923
Si Si3 0.250944 0.205992 0.802264
Si Si4 0.362809 0.419335 0.964912
Si Si5 0.100834 0.352396 0.364963
O O1 0.626546 0.557881 0.895617
O O2 0.663142 0.409085 0.818333
O O3 0.628211 0.649065 0.813354
O O4 0.462775 0.482257 0.848852
O O5 0.500000 0.250000 0.078849
O O6 0.465302 0.016696 0.046273
O O7 0.621598 0.150710 0.013782
O O8 0.264774 0.250000 0.750000
O O9 0.291707 0.322076 0.834201
O O10 0.250000 0.500000 0.968055
O O11 0.361883 0.338086 0.918128
O O12 0.000000 0.250000 0.358812
#
# Coordination Sequence:
#
# PCOD9508053 Si02
#       5
#    16  16  16  16  16
#     4   9  21  40  61  92 124 160 210 265 319 397
#     4  10  22  40  59  91 136 165 213 269 325 389
#     4  10  21  40  66  94 118 168 217 262 336 395
#     4  10  22  37  59  95 124 173 217 256 317 403
#     4   9  19  39  64  88 126 161 209 266 323 381
#
# _framework density 22.385010999999999
#
# number of rings (size 3 to 8) (size 9 to 14) (size 15 to 20)
#    0.000    2.400    0.000    0.600    5.600    6.000 
#    3.600    2.000    0.000    0.000    0.000    0.000 
#    0.000    0.000    0.000    0.000    0.000    0.000 
#
# Total GULP energy -222985.777976 kJ/mol
# GULP energy per Si atom -5574.644449 kJ/mol
# Density = 2.233406 g / cm^3
# Si number density = 22.385011 Si / 1000 Ang^3
#
#
#
# Elastic Constant Matrix: (Units=GPa)
#
#
# Indices 1 2 3 4 5 6 
#
# 1 41.5946 25.5909 43.2283 0.0000 0.0000 0.0000
# 2 25.5909 54.5703 57.4038 0.0000 0.0000 0.0000
# 3 43.2283 57.4038 181.8565 0.0000 0.0000 0.0000
# 4 0.0000 0.0000 0.0000 28.7304 0.0000 0.0000
# 5 0.0000 0.0000 0.0000 0.0000 34.5755 0.0000
# 6 0.0000 0.0000 0.0000 0.0000 0.0000 23.3977
#
#
#
# Elastic Compliance Matrix: (Units=1/GPa)
#
#
# Indices 1 2 3 4 5 6 
#
# 1 0.036491 -0.011959 -0.004899 0.000000 0.000000 0.000000
# 2 -0.011959 0.031354 -0.007054 0.000000 0.000000 0.000000
# 3 -0.004899 -0.007054 0.008890 0.000000 0.000000 0.000000
# 4 0.000000 0.000000 0.000000 0.034806 0.000000 0.000000
# 5 0.000000 0.000000 0.000000 0.000000 0.028922 0.000000
# 6 0.000000 0.000000 0.000000 0.000000 0.000000 0.042739
#
#
# Mechanical properties :
#
#
# Convention : Reuss Voigt Hill
#
# Bulk Modulus (GPa) = 34.59012 58.94081 46.76546
# Shear Modulus (GPa) = 20.77590 27.46064 24.11827
#
# Velocity S-wave (km/s) = 3.04981 3.50629 3.28598
# Velocity P-wave (km/s) = 5.28088 6.54062 5.94421
#
# Compressibility (1/GPa) = 0.02890999
#
# Stress axis : x y z
#
# Youngs Moduli (GPa) = 27.40412 31.89423 112.48463
#
# Poissons Ratio (x) = 0.38142 0.55108
# Poissons Ratio (y) = 0.32772 0.79349
# Poissons Ratio (z) = 0.13426 0.22499
#
# Static dielectric constant tensor:
#      x y z
#    x 1.854530 0.000000 0.000000 
#    y 0.000000 1.925060 0.000000 
#    z 0.000000 0.000000 1.838530 
# 
# From -- ./inp_files/54527.got.cif
#   From: 2010.05.17/outbox.cif.g08.bks.cpg/sg68_28_cif.got.tgz:54527.got - 2010.06.03 18:57:09.
