data_PCOD9508522
_publ_section_title
;
Structure prediction by ZEFSAII (Michael W. Deem and Ramdas Pophale) SiO2 
 PCOD9508522
Probable space group: C C C A
;
_chemical_formula_sum "Si O2"
_cell_formula_units_Z 72
_cell_length_a 24.864895
_cell_length_b 8.241104
_cell_length_c 17.989871
_cell_angle_alpha 90.000000
_cell_angle_beta 90.000000
_cell_angle_gamma 90.000000
_cell_volume 3686.379766
_symmetry_space_group_name_H-M "C C C A"
_symmetry_group_IT_number 68
_space_group.IT_coordinate_system_code '2'
_symmetry_cell_setting 'orthorhombic'
loop_
_space_group_symop_operation_xyz
x,y,z
-x,1/2-y,z
x,1/2-y,1/2-z
-x,y,1/2-z
-x,-y,-z
x,1/2+y,-z
-x,1/2+y,1/2+z
x,-y,1/2+z
1/2+x,1/2+y,z
1/2-x,-y,z
1/2+x,-y,1/2-z
1/2-x,1/2+y,1/2-z
1/2-x,1/2-y,-z
1/2+x,y,-z
1/2-x,y,1/2+z
1/2+x,1/2-y,1/2+z
loop_
_atom_site_type_symbol
_atom_site_label
_atom_site_fract_x
_atom_site_fract_y
_atom_site_fract_z
Si Si1 0.437343 0.289248 0.902183
Si Si2 0.877720 0.555193 0.017718
Si Si3 0.196929 0.927621 0.278472
Si Si4 0.202663 0.697077 0.058132
Si Si5 0.375315 0.250000 0.750000
O O1 0.500000 0.250000 0.901292
O O2 0.404937 0.161997 0.953728
O O3 0.411676 0.287562 0.821094
O O4 0.424053 0.461508 0.939245
O O5 0.834723 0.434076 0.982018
O O6 0.839394 0.657897 0.071290
O O7 0.177635 0.750000 0.250000
O O8 0.215997 0.875643 0.361842
O O9 0.250000 0.000000 0.237989
O O10 0.157502 0.083894 0.271590
O O11 0.250000 0.750000 0.000000
#
# Coordination Sequence:
#
# PCOD9508522 Si02
#       5
#    16  16  16  16   8
#     4  11  23  43  68  92 128 176 230 291 346 401
#     4  10  22  39  65  98 128 169 223 278 341 408
#     4  12  25  41  64  95 138 179 216 269 343 422
#     4  11  22  39  64  97 134 172 216 273 338 418
#     4  12  25  46  66 100 136 178 231 282 356 418
#
# _framework density 19.531357
#
# number of rings (size 3 to 8) (size 9 to 14) (size 15 to 20)
#    0.000    0.889    3.333    4.333    3.111    1.778 
#    0.000    0.000    0.000    1.333    0.000    0.000 
#    0.000    0.000    0.000    0.000    0.000    0.000 
#
# Total GULP energy -200575.802366 kJ/mol
# GULP energy per Si atom -5571.550066 kJ/mol
# Density = 1.948690 g / cm^3
# Si number density = 19.531357 Si / 1000 Ang^3
#
#
#
# Elastic Constant Matrix: (Units=GPa)
#
#
# Indices 1 2 3 4 5 6 
#
# 1 93.5940 28.2958 23.8474 0.0000 0.0000 0.0000
# 2 28.2958 107.9652 29.0403 0.0000 0.0000 0.0000
# 3 23.8474 29.0403 107.8028 0.0000 0.0000 0.0000
# 4 0.0000 0.0000 0.0000 23.4332 0.0000 0.0000
# 5 0.0000 0.0000 0.0000 0.0000 108.6035 0.0000
# 6 0.0000 0.0000 0.0000 0.0000 0.0000 33.8379
#
#
#
# Elastic Compliance Matrix: (Units=1/GPa)
#
#
# Indices 1 2 3 4 5 6 
#
# 1 0.011970 -0.002614 -0.001944 0.000000 0.000000 0.000000
# 2 -0.002614 0.010557 -0.002265 0.000000 0.000000 0.000000
# 3 -0.001944 -0.002265 0.010316 0.000000 0.000000 0.000000
# 4 0.000000 0.000000 0.000000 0.042674 0.000000 0.000000
# 5 0.000000 0.000000 0.000000 0.000000 0.009208 0.000000
# 6 0.000000 0.000000 0.000000 0.000000 0.000000 0.029553
#
#
# Mechanical properties :
#
#
# Convention : Reuss Voigt Hill
#
# Bulk Modulus (GPa) = 52.09344 52.41433 52.25389
# Shear Modulus (GPa) = 37.22343 48.38683 42.80513
#
# Velocity S-wave (km/s) = 4.37032 4.98274 4.68654
# Velocity P-wave (km/s) = 7.22467 7.74583 7.48978
#
# Compressibility (1/GPa) = 0.01919628
#
# Stress axis : x y z
#
# Youngs Moduli (GPa) = 83.54177 94.72581 96.93256
#
# Poissons Ratio (x) = 0.24765 0.18841
# Poissons Ratio (y) = 0.21841 0.21960
# Poissons Ratio (z) = 0.16238 0.21460
#
# Static dielectric constant tensor:
#      x y z
#    x 1.663880 0.000000 0.000000 
#    y 0.000000 1.708840 0.000000 
#    z 0.000000 0.000000 1.770950 
# 
# From -- ./inp_files/33423.got.cif
#   From: 2010.05.17/outbox.cif.g08.bks.cpg/sg68_17_cif.got.tgz:33423.got - 2010.06.03 18:57:09.
