data_PCOD9508429
_publ_section_title
;
Structure prediction by ZEFSAII (Michael W. Deem and Ramdas Pophale) SiO2 
 PCOD9508429
Probable space group: C C C A
;
_chemical_formula_sum "Si O2"
_cell_formula_units_Z 116
_cell_length_a 16.273666
_cell_length_b 21.082956
_cell_length_c 16.625808
_cell_angle_alpha 90.000000
_cell_angle_beta 90.000000
_cell_angle_gamma 90.000000
_cell_volume 5704.264585
_symmetry_space_group_name_H-M "C C C A"
_symmetry_group_IT_number 68
_space_group.IT_coordinate_system_code '2'
_symmetry_cell_setting 'orthorhombic'
loop_
_space_group_symop_operation_xyz
x,y,z
-x,1/2-y,z
x,1/2-y,1/2-z
-x,y,1/2-z
-x,-y,-z
x,1/2+y,-z
-x,1/2+y,1/2+z
x,-y,1/2+z
1/2+x,1/2+y,z
1/2-x,-y,z
1/2+x,-y,1/2-z
1/2-x,1/2+y,1/2-z
1/2-x,1/2-y,-z
1/2+x,y,-z
1/2-x,y,1/2+z
1/2+x,1/2-y,1/2+z
loop_
_atom_site_type_symbol
_atom_site_label
_atom_site_fract_x
_atom_site_fract_y
_atom_site_fract_z
Si Si1 0.234613 0.169174 0.297023
Si Si2 0.682981 0.445452 0.910811
Si Si3 0.538387 0.521522 0.826465
Si Si4 0.000000 0.750000 0.750000
Si Si5 0.949429 0.562357 0.027740
Si Si6 0.079646 0.837061 0.305101
Si Si7 0.145257 0.701328 0.850869
Si Si8 0.447533 0.812955 0.992946
O O1 0.219061 0.112462 0.359852
O O2 0.329701 0.183567 0.280272
O O3 0.194222 0.155507 0.209705
O O4 0.190235 0.230782 0.336677
O O5 0.750000 0.500000 0.917911
O O6 0.602461 0.474852 0.867676
O O7 0.643152 0.430502 0.997571
O O8 0.500000 0.488408 0.750000
O O9 0.463236 0.551699 0.877993
O O10 0.584846 0.586344 0.804519
O O11 0.056858 0.708638 0.808105
O O12 0.998370 0.623717 0.996568
O O13 0.000000 0.500000 0.000000
O O14 0.071653 0.813857 0.397627
O O15 0.000000 0.820415 0.250000
O O16 0.128144 0.685549 0.943887
O O17 0.500000 0.750000 0.010534
#
# Coordination Sequence:
#
# PCOD9508429 Si02
#       8
#    16  16  16   4  16  16  16  16
#     4  10  22  39  62  93 127 167 206 263 337 369
#     4  11  20  36  64  91 123 163 208 264 316 382
#     4   9  19  39  60  84 119 161 212 257 305 389
#     4   8  16  36  60  80 136 152 180 248 334 364
#     4   9  21  38  61  88 121 165 207 250 324 380
#     4  10  22  42  65  82 126 172 213 262 318 391
#     4  10  22  38  60  94 130 156 203 270 314 388
#     4  11  22  39  66  96 121 163 222 261 317 384
#
# _framework density 20.335661999999999
#
# number of rings (size 3 to 8) (size 9 to 14) (size 15 to 20)
#    0.000    2.207    2.069    0.828    1.931    5.241 
#    1.241    4.828    0.000    0.000    0.000    0.000 
#    0.000    0.000    0.000    0.000    0.000    0.000 
#
# Total GULP energy -323003.196000 kJ/mol
# GULP energy per Si atom -5569.020621 kJ/mol
# Density = 2.028938 g / cm^3
# Si number density = 20.335662 Si / 1000 Ang^3
#
#
#
# Elastic Constant Matrix: (Units=GPa)
#
#
# Indices 1 2 3 4 5 6 
#
# 1 129.0127 17.8800 61.3830 0.0000 0.0000 0.0000
# 2 17.8800 77.0930 11.2823 0.0000 0.0000 0.0000
# 3 61.3830 11.2823 102.8589 0.0000 0.0000 0.0000
# 4 0.0000 0.0000 0.0000 14.1712 0.0000 0.0000
# 5 0.0000 0.0000 0.0000 0.0000 11.6728 0.0000
# 6 0.0000 0.0000 0.0000 0.0000 0.0000 -2.1551
#
#
#
# Elastic Compliance Matrix: (Units=1/GPa)
#
#
# Indices 1 2 3 4 5 6 
#
# 1 0.011020 -0.001619 -0.006399 0.000000 0.000000 0.000000
# 2 -0.001619 0.013421 -0.000506 0.000000 0.000000 0.000000
# 3 -0.006399 -0.000506 0.013596 0.000000 0.000000 0.000000
# 4 0.000000 0.000000 0.000000 0.070566 0.000000 0.000000
# 5 0.000000 0.000000 0.000000 0.000000 0.085669 0.000000
# 6 0.000000 0.000000 0.000000 0.000000 0.000000 -0.464015
#
#
# Mechanical properties :
#
#
# Convention : Reuss Voigt Hill
#
# Bulk Modulus (GPa) = 47.64329 54.45058 51.04693
# Shear Modulus (GPa) = -20.35016 19.29907 -0.52555
#
# Velocity S-wave (km/s) = -3.16684 3.08397 -0.50892
# Velocity P-wave (km/s) = 3.17923 6.28611 4.98110
#
# Compressibility (1/GPa) = 0.02098932
#
# Stress axis : x y z
#
# Youngs Moduli (GPa) = 90.74324 74.51047 73.55029
#
# Poissons Ratio (x) = 0.12066 0.47064
# Poissons Ratio (y) = 0.14695 0.03719
# Poissons Ratio (z) = 0.58065 0.03768
#
# Static dielectric constant tensor:
#      x y z
#    x 1.718570 0.000000 0.000000 
#    y 0.000000 1.721250 0.000000 
#    z 0.000000 0.000000 1.906340 
# 
# From -- ./inp_files/31247.got.cif
#   From: 2010.05.17/outbox.cif.g08.bks.cpg/sg68_16_cif.got.tgz:31247.got - 2010.06.03 18:57:09.
