data_PCOD9508322
_publ_section_title
;
Structure prediction by ZEFSAII (Michael W. Deem and Ramdas Pophale) SiO2 
 PCOD9508322
Probable space group: C C C A
;
_chemical_formula_sum "Si O2"
_cell_formula_units_Z 76
_cell_length_a 26.732667
_cell_length_b 9.899136
_cell_length_c 17.814872
_cell_angle_alpha 90.000000
_cell_angle_beta 90.000000
_cell_angle_gamma 90.000000
_cell_volume 4714.355034
_symmetry_space_group_name_H-M "C C C A"
_symmetry_group_IT_number 68
_space_group.IT_coordinate_system_code '2'
_symmetry_cell_setting 'orthorhombic'
loop_
_space_group_symop_operation_xyz
x,y,z
-x,1/2-y,z
x,1/2-y,1/2-z
-x,y,1/2-z
-x,-y,-z
x,1/2+y,-z
-x,1/2+y,1/2+z
x,-y,1/2+z
1/2+x,1/2+y,z
1/2-x,-y,z
1/2+x,-y,1/2-z
1/2-x,1/2+y,1/2-z
1/2-x,1/2-y,-z
1/2+x,y,-z
1/2-x,y,1/2+z
1/2+x,1/2-y,1/2+z
loop_
_atom_site_type_symbol
_atom_site_label
_atom_site_fract_x
_atom_site_fract_y
_atom_site_fract_z
Si Si1 0.902901 0.363153 0.308011
Si Si2 0.673381 0.318672 0.937983
Si Si3 0.190163 0.003122 0.078568
Si Si4 0.000000 0.750000 0.750000
Si Si5 0.250000 0.500000 0.153885
Si Si6 0.841701 0.092854 0.757078
O O1 0.880745 0.250000 0.250000
O O2 0.875324 0.346036 0.386812
O O3 0.961927 0.335569 0.301574
O O4 0.887099 0.506569 0.276007
O O5 0.677692 0.157409 0.943745
O O6 0.721566 0.385987 0.895457
O O7 0.671610 0.397086 0.016351
O O8 0.250000 0.000000 0.082902
O O9 0.168873 0.959611 0.159142
O O10 0.207218 0.562453 0.206425
O O11 0.851798 0.250000 0.750000
#
# Coordination Sequence:
#
# PCOD9508322 Si02
#       6
#    16  16  16   4   8  16
#     4   9  19  39  62  79 100 137 191 234 281 337
#     4  11  23  35  50  82 112 150 188 227 269 335
#     4  12  22  34  49  76 120 157 185 218 269 331
#     4   8  16  40  70  80  92 144 188 240 292 342
#     4  10  22  34  52  76 114 154 202 220 264 316
#     4  11  22  34  56  82 112 151 192 237 268 317
#
# _framework density 16.120975999999999
#
# number of rings (size 3 to 8) (size 9 to 14) (size 15 to 20)
#    0.632    0.842    4.211    1.895    5.895    0.000 
#    0.000    0.526    0.000    5.053    0.000    0.000 
#    0.000    0.000    0.000    0.000    0.000    0.000 
#
# Total GULP energy -211865.872691 kJ/mol
# GULP energy per Si atom -5575.417702 kJ/mol
# Density = 1.608428 g / cm^3
# Si number density = 16.120976 Si / 1000 Ang^3
#
#
#
# Elastic Constant Matrix: (Units=GPa)
#
#
# Indices 1 2 3 4 5 6 
#
# 1 102.2567 32.8168 24.4955 0.0000 0.0000 0.0000
# 2 32.8168 149.2996 31.3371 0.0000 0.0000 0.0000
# 3 24.4955 31.3371 71.6023 0.0000 0.0000 0.0000
# 4 0.0000 0.0000 0.0000 24.5009 0.0000 0.0000
# 5 0.0000 0.0000 0.0000 0.0000 0.7850 0.0000
# 6 0.0000 0.0000 0.0000 0.0000 0.0000 17.2667
#
#
#
# Elastic Compliance Matrix: (Units=1/GPa)
#
#
# Indices 1 2 3 4 5 6 
#
# 1 0.011077 -0.001805 -0.002999 0.000000 0.000000 0.000000
# 2 -0.001805 0.007670 -0.002739 0.000000 0.000000 0.000000
# 3 -0.002999 -0.002739 0.016191 0.000000 0.000000 0.000000
# 4 0.000000 0.000000 0.000000 0.040815 0.000000 0.000000
# 5 0.000000 0.000000 0.000000 0.000000 1.273857 0.000000
# 6 0.000000 0.000000 0.000000 0.000000 0.000000 0.057915
#
#
# Mechanical properties :
#
#
# Convention : Reuss Voigt Hill
#
# Bulk Modulus (GPa) = 50.37741 55.60637 52.99189
# Shear Modulus (GPa) = 3.49839 24.14445 13.82142
#
# Velocity S-wave (km/s) = 1.47472 3.87422 2.93124
# Velocity P-wave (km/s) = 5.84954 7.38788 6.66326
#
# Compressibility (1/GPa) = 0.01985017
#
# Stress axis : x y z
#
# Youngs Moduli (GPa) = 90.27566 130.38386 61.76288
#
# Poissons Ratio (x) = 0.23537 0.18526
# Poissons Ratio (y) = 0.16297 0.16917
# Poissons Ratio (z) = 0.27078 0.35713
#
# Static dielectric constant tensor:
#      x y z
#    x 1.510840 0.000000 0.000000 
#    y 0.000000 1.556470 0.000000 
#    z 0.000000 0.000000 1.558260 
# 
# From -- ./inp_files/28381.got.cif
#   From: 2010.05.17/outbox.cif.g08.bks.cpg/sg68_15_cif.got.tgz:28381.got - 2010.06.03 18:57:09.
