data_PCOD9508427
_publ_section_title
;
Structure prediction by ZEFSAII (Michael W. Deem and Ramdas Pophale) SiO2 
 PCOD9508427
Probable space group: C C C A
;
_chemical_formula_sum "Si O2"
_cell_formula_units_Z 84
_cell_length_a 20.488722
_cell_length_b 22.977147
_cell_length_c 8.624452
_cell_angle_alpha 90.000000
_cell_angle_beta 90.000000
_cell_angle_gamma 90.000000
_cell_volume 4060.153770
_symmetry_space_group_name_H-M "C C C A"
_symmetry_group_IT_number 68
_space_group.IT_coordinate_system_code '2'
_symmetry_cell_setting 'orthorhombic'
loop_
_space_group_symop_operation_xyz
x,y,z
-x,1/2-y,z
x,1/2-y,1/2-z
-x,y,1/2-z
-x,-y,-z
x,1/2+y,-z
-x,1/2+y,1/2+z
x,-y,1/2+z
1/2+x,1/2+y,z
1/2-x,-y,z
1/2+x,-y,1/2-z
1/2-x,1/2+y,1/2-z
1/2-x,1/2-y,-z
1/2+x,y,-z
1/2-x,y,1/2+z
1/2+x,1/2-y,1/2+z
loop_
_atom_site_type_symbol
_atom_site_label
_atom_site_fract_x
_atom_site_fract_y
_atom_site_fract_z
Si Si1 0.376697 0.750000 0.750000
Si Si2 0.100368 0.853628 0.056601
Si Si3 0.079094 0.917389 0.734729
Si Si4 0.051356 0.330432 0.507217
Si Si5 0.154126 0.039418 0.716105
Si Si6 0.000000 0.750000 0.750000
Si Si7 0.750000 0.000000 0.041605
O O1 0.355670 0.701276 0.883646
O O2 0.413610 0.704927 0.639684
O O3 0.110559 0.905517 0.179129
O O4 0.107258 0.879520 0.880079
O O5 0.023508 0.838754 0.057792
O O6 0.086178 0.886945 0.565943
O O7 0.000000 0.921996 0.750000
O O8 0.112288 0.980546 0.736573
O O9 0.044704 0.289301 0.357102
O O10 0.199751 0.033347 0.565875
O O11 0.206224 0.042228 0.853871
#
# Coordination Sequence:
#
# PCOD9508427 Si02
#       7
#     8  16  16  16  16   4   8
#     4  12  23  34  58  92 131 171 208 242 303 384
#     4  11  21  36  57  90 124 160 201 248 304 373
#     4  10  22  38  60  93 133 163 196 256 327 382
#     4  11  20  34  55  87 133 170 198 244 302 388
#     4  11  23  43  65  92 117 163 210 264 319 370
#     4  12  16  34  52  76 134 184 200 222 288 394
#     4  10  24  44  66  86 114 166 220 262 306 368
#
# _framework density 20.688872
#
# number of rings (size 3 to 8) (size 9 to 14) (size 15 to 20)
#    0.000    1.143    6.667    1.143    2.667    4.571 
#    0.000    0.000    0.000    1.143    0.000    0.000 
#    0.000    0.000    0.000    0.000    0.000    0.000 
#
# Total GULP energy -233914.778826 kJ/mol
# GULP energy per Si atom -5569.399496 kJ/mol
# Density = 2.064178 g / cm^3
# Si number density = 20.688872 Si / 1000 Ang^3
#
#
#
# Elastic Constant Matrix: (Units=GPa)
#
#
# Indices 1 2 3 4 5 6 
#
# 1 34.7448 20.8301 24.5217 0.0000 0.0000 0.0000
# 2 20.8301 117.3196 35.4259 0.0000 0.0000 0.0000
# 3 24.5217 35.4259 107.0013 0.0000 0.0000 0.0000
# 4 0.0000 0.0000 0.0000 32.9384 0.0000 0.0000
# 5 0.0000 0.0000 0.0000 0.0000 27.3355 0.0000
# 6 0.0000 0.0000 0.0000 0.0000 0.0000 -5.0992
#
#
#
# Elastic Compliance Matrix: (Units=1/GPa)
#
#
# Indices 1 2 3 4 5 6 
#
# 1 0.036239 -0.004363 -0.006861 0.000000 0.000000 0.000000
# 2 -0.004363 0.009996 -0.002310 0.000000 0.000000 0.000000
# 3 -0.006861 -0.002310 0.011683 0.000000 0.000000 0.000000
# 4 0.000000 0.000000 0.000000 0.030360 0.000000 0.000000
# 5 0.000000 0.000000 0.000000 0.000000 0.036582 0.000000
# 6 0.000000 0.000000 0.000000 0.000000 0.000000 -0.196110
#
#
# Mechanical properties :
#
#
# Convention : Reuss Voigt Hill
#
# Bulk Modulus (GPa) = 32.41327 46.73571 39.57449
# Shear Modulus (GPa) = -147.48539 22.92081 -62.28229
#
# Velocity S-wave (km/s) = -8.45234 3.33210 -5.49269
# Velocity P-wave (km/s) = 8.91936 6.11904 4.58870
#
# Compressibility (1/GPa) = 0.03085156
#
# Stress axis : x y z
#
# Youngs Moduli (GPa) = 27.59481 100.04296 85.59750
#
# Poissons Ratio (x) = 0.43644 0.58725
# Poissons Ratio (y) = 0.12038 0.19770
# Poissons Ratio (z) = 0.18932 0.23106
#
# Static dielectric constant tensor:
#      x y z
#    x 1.713730 0.000000 0.000000 
#    y 0.000000 1.823710 0.000000 
#    z 0.000000 0.000000 1.841780 
# 
# From -- ./inp_files/7088.got.cif
#   From: 2010.05.17/outbox.cif.g08.bks.cpg/sg68_4_cif.got.tgz:7088.got - 2010.06.03 18:57:09.
