data_PCOD9508760
_publ_section_title
;
Structure prediction by ZEFSAII (Michael W. Deem and Ramdas Pophale) SiO2 
 PCOD9508760
Probable space group: C C C A
;
_chemical_formula_sum "Si O2"
_cell_formula_units_Z 116
_cell_length_a 22.635759
_cell_length_b 9.543009
_cell_length_c 25.861278
_cell_angle_alpha 90.000000
_cell_angle_beta 90.000000
_cell_angle_gamma 90.000000
_cell_volume 5586.378758
_symmetry_space_group_name_H-M "C C C A"
_symmetry_group_IT_number 68
_space_group.IT_coordinate_system_code '2'
_symmetry_cell_setting 'orthorhombic'
loop_
_space_group_symop_operation_xyz
x,y,z
-x,1/2-y,z
x,1/2-y,1/2-z
-x,y,1/2-z
-x,-y,-z
x,1/2+y,-z
-x,1/2+y,1/2+z
x,-y,1/2+z
1/2+x,1/2+y,z
1/2-x,-y,z
1/2+x,-y,1/2-z
1/2-x,1/2+y,1/2-z
1/2-x,1/2-y,-z
1/2+x,y,-z
1/2-x,y,1/2+z
1/2+x,1/2-y,1/2+z
loop_
_atom_site_type_symbol
_atom_site_label
_atom_site_fract_x
_atom_site_fract_y
_atom_site_fract_z
Si Si1 0.042092 0.623888 0.519473
Si Si2 0.091396 0.503648 0.122038
Si Si3 0.470749 0.513121 0.824713
Si Si4 0.401649 0.175650 0.089626
Si Si5 0.291087 0.137930 0.150512
Si Si6 0.309125 0.340445 0.676157
Si Si7 0.000000 0.250000 0.750000
Si Si8 0.858160 0.430216 0.213677
O O1 0.079052 0.571431 0.567899
O O2 0.080206 0.670411 0.469939
O O3 0.000000 0.750000 0.536225
O O4 0.000000 0.500000 0.500000
O O5 0.085821 0.670043 0.112587
O O6 0.155017 0.450659 0.141680
O O7 0.037489 0.469596 0.161821
O O8 0.439196 0.558659 0.878613
O O9 0.467158 0.650110 0.789186
O O10 0.428634 0.416377 0.789902
O O11 0.332686 0.152759 0.100884
O O12 0.256920 0.282870 0.164290
O O13 0.250000 0.000000 0.144610
O O14 0.335429 0.082623 0.195533
O O15 0.322579 0.394779 0.734220
O O16 0.341083 0.190149 0.672941
#
# Coordination Sequence:
#
# PCOD9508760 Si02
#       8
#    16  16  16  16  16  16   4  16
#     4  12  24  42  71  99 131 173 221 282 349 420
#     4  12  24  40  66 100 134 168 223 279 342 415
#     4  11  21  36  60  93 130 169 213 263 333 401
#     4  11  22  44  64  94 131 169 226 283 328 412
#     4   9  21  44  67  89 128 177 223 279 333 398
#     4  10  22  42  60  96 128 173 225 270 334 391
#     4  12  20  32  56  86 132 172 200 252 330 392
#     4   9  21  41  61  92 128 173 222 268 324 402
#
# _framework density 20.764793000000001
#
# number of rings (size 3 to 8) (size 9 to 14) (size 15 to 20)
#    0.000    1.379    4.138    0.828    1.931    1.655 
#   14.897    2.069    0.000    0.000    0.000    0.000 
#    0.000    0.000    0.000    0.000    0.000    0.000 
#
# Total GULP energy -323105.394325 kJ/mol
# GULP energy per Si atom -5570.782661 kJ/mol
# Density = 2.071753 g / cm^3
# Si number density = 20.764793 Si / 1000 Ang^3
#
#
#
# Elastic Constant Matrix: (Units=GPa)
#
#
# Indices 1 2 3 4 5 6 
#
# 1 91.1314 33.5799 24.0077 0.0000 0.0000 0.0000
# 2 33.5799 60.7069 16.3898 0.0000 0.0000 0.0000
# 3 24.0077 16.3898 79.1357 0.0000 0.0000 0.0000
# 4 0.0000 0.0000 0.0000 18.9286 0.0000 0.0000
# 5 0.0000 0.0000 0.0000 0.0000 13.4440 0.0000
# 6 0.0000 0.0000 0.0000 0.0000 0.0000 55.4954
#
#
#
# Elastic Compliance Matrix: (Units=1/GPa)
#
#
# Indices 1 2 3 4 5 6 
#
# 1 0.014374 -0.007175 -0.002875 0.000000 0.000000 0.000000
# 2 -0.007175 0.021030 -0.002179 0.000000 0.000000 0.000000
# 3 -0.002875 -0.002179 0.013960 0.000000 0.000000 0.000000
# 4 0.000000 0.000000 0.000000 0.052830 0.000000 0.000000
# 5 0.000000 0.000000 0.000000 0.000000 0.074383 0.000000
# 6 0.000000 0.000000 0.000000 0.000000 0.000000 0.018020
#
#
# Mechanical properties :
#
#
# Convention : Reuss Voigt Hill
#
# Bulk Modulus (GPa) = 40.14961 42.10318 41.12640
# Shear Modulus (GPa) = 21.99201 28.04006 25.01604
#
# Velocity S-wave (km/s) = 3.25791 3.67872 3.47469
# Velocity P-wave (km/s) = 5.79046 6.19388 5.99557
#
# Compressibility (1/GPa) = 0.02490684
#
# Stress axis : x y z
#
# Youngs Moduli (GPa) = 69.56850 47.55191 71.63383
#
# Poissons Ratio (x) = 0.34118 0.20593
# Poissons Ratio (y) = 0.49915 0.15607
# Poissons Ratio (z) = 0.19999 0.10360
#
# Static dielectric constant tensor:
#      x y z
#    x 1.972740 0.000000 0.000000 
#    y 0.000000 1.878850 0.000000 
#    z 0.000000 0.000000 1.745070 
# 
# From -- ./inp_files/52189.got.cif
#   From: 2010.05.17/outbox.cif.g08.bks.cpg/sg68_27_cif.got.tgz:52189.got - 2010.06.03 18:57:09.
