data_PCOD9508157
_publ_section_title
;
Structure prediction by ZEFSAII (Michael W. Deem and Ramdas Pophale) SiO2 
 PCOD9508157
Probable space group: C C C A
;
_chemical_formula_sum "Si O2"
_cell_formula_units_Z 64
_cell_length_a 16.570542
_cell_length_b 10.694407
_cell_length_c 17.631688
_cell_angle_alpha 90.000000
_cell_angle_beta 90.000000
_cell_angle_gamma 90.000000
_cell_volume 3124.548816
_symmetry_space_group_name_H-M "C C C A"
_symmetry_group_IT_number 68
_space_group.IT_coordinate_system_code '2'
_symmetry_cell_setting 'orthorhombic'
loop_
_space_group_symop_operation_xyz
x,y,z
-x,1/2-y,z
x,1/2-y,1/2-z
-x,y,1/2-z
-x,-y,-z
x,1/2+y,-z
-x,1/2+y,1/2+z
x,-y,1/2+z
1/2+x,1/2+y,z
1/2-x,-y,z
1/2+x,-y,1/2-z
1/2-x,1/2+y,1/2-z
1/2-x,1/2-y,-z
1/2+x,y,-z
1/2-x,y,1/2+z
1/2+x,1/2-y,1/2+z
loop_
_atom_site_type_symbol
_atom_site_label
_atom_site_fract_x
_atom_site_fract_y
_atom_site_fract_z
Si Si1 0.500000 0.250000 0.590995
Si Si2 0.237852 0.196072 0.899146
Si Si3 0.750000 0.500000 0.268879
Si Si4 0.640470 0.917628 0.361925
Si Si5 0.630536 0.863751 0.983643
O O1 0.438601 0.168213 0.640505
O O2 0.446516 0.337690 0.535807
O O3 0.286546 0.324897 0.884966
O O4 0.153768 0.238431 0.936001
O O5 0.233773 0.117798 0.822904
O O6 0.294157 0.123319 0.958845
O O7 0.672445 0.523173 0.215729
O O8 0.625869 0.021701 0.426082
#
# Coordination Sequence:
#
# PCOD9508157 Si02
#       5
#     8  16   8  16  16
#     4  10  24  40  69  99 138 178 228 268 346 405
#     4  10  23  38  68 102 124 171 235 282 326 390
#     4  12  24  38  68  98 138 170 224 282 344 400
#     4  11  22  43  65 100 135 174 221 282 341 398
#     4  10  21  41  69  93 134 173 232 281 328 395
#
# _framework density 20.482959000000001
#
# number of rings (size 3 to 8) (size 9 to 14) (size 15 to 20)
#    0.000    1.500    2.500    1.500   10.500    0.000 
#    0.000   10.000    0.000    1.500    0.000    0.000 
#    0.000    0.000    0.000    0.000    0.000    0.000 
#
# Total GULP energy -178856.045355 kJ/mol
# GULP energy per Si atom -5589.251417 kJ/mol
# Density = 2.043634 g / cm^3
# Si number density = 20.482959 Si / 1000 Ang^3
#
#
#
# Elastic Constant Matrix: (Units=GPa)
#
#
# Indices 1 2 3 4 5 6 
#
# 1 87.5622 34.2568 41.0433 0.0000 0.0000 0.0000
# 2 34.2568 75.5436 58.8595 0.0000 0.0000 0.0000
# 3 41.0433 58.8595 130.2419 0.0000 0.0000 0.0000
# 4 0.0000 0.0000 0.0000 24.8080 0.0000 0.0000
# 5 0.0000 0.0000 0.0000 0.0000 15.9220 0.0000
# 6 0.0000 0.0000 0.0000 0.0000 0.0000 32.0104
#
#
#
# Elastic Compliance Matrix: (Units=1/GPa)
#
#
# Indices 1 2 3 4 5 6 
#
# 1 0.014371 -0.004612 -0.002444 0.000000 0.000000 0.000000
# 2 -0.004612 0.021912 -0.008449 0.000000 0.000000 0.000000
# 3 -0.002444 -0.008449 0.012267 0.000000 0.000000 0.000000
# 4 0.000000 0.000000 0.000000 0.040310 0.000000 0.000000
# 5 0.000000 0.000000 0.000000 0.000000 0.062806 0.000000
# 6 0.000000 0.000000 0.000000 0.000000 0.000000 0.031240
#
#
# Mechanical properties :
#
#
# Convention : Reuss Voigt Hill
#
# Bulk Modulus (GPa) = 57.01881 62.40742 59.71312
# Shear Modulus (GPa) = 22.75187 25.16062 23.95624
#
# Velocity S-wave (km/s) = 3.33644 3.50861 3.42361
# Velocity P-wave (km/s) = 6.53759 6.85185 6.69657
#
# Compressibility (1/GPa) = 0.01753807
#
# Stress axis : x y z
#
# Youngs Moduli (GPa) = 69.58660 45.63711 81.52187
#
# Poissons Ratio (x) = 0.21049 0.19926
# Poissons Ratio (y) = 0.32095 0.68879
# Poissons Ratio (z) = 0.17009 0.38559
#
# Static dielectric constant tensor:
#      x y z
#    x 1.723850 0.000000 0.000000 
#    y 0.000000 1.792120 0.000000 
#    z 0.000000 0.000000 1.742130 
# 
# From -- ./inp_files/31588.got.cif
#   From: 2010.05.17/outbox.cif.g08.bks.cpg/sg68_16_cif.got.tgz:31588.got - 2010.06.03 18:57:09.
