data_PCOD9508911
_publ_section_title
;
Structure prediction by ZEFSAII (Michael W. Deem and Ramdas Pophale) SiO2 
 PCOD9508911
Probable space group: C C C A
;
_chemical_formula_sum "Si O2"
_cell_formula_units_Z 116
_cell_length_a 19.458486
_cell_length_b 10.476669
_cell_length_c 26.919765
_cell_angle_alpha 90.000000
_cell_angle_beta 90.000000
_cell_angle_gamma 90.000000
_cell_volume 5487.866444
_symmetry_space_group_name_H-M "C C C A"
_symmetry_group_IT_number 68
_space_group.IT_coordinate_system_code '2'
_symmetry_cell_setting 'orthorhombic'
loop_
_space_group_symop_operation_xyz
x,y,z
-x,1/2-y,z
x,1/2-y,1/2-z
-x,y,1/2-z
-x,-y,-z
x,1/2+y,-z
-x,1/2+y,1/2+z
x,-y,1/2+z
1/2+x,1/2+y,z
1/2-x,-y,z
1/2+x,-y,1/2-z
1/2-x,1/2+y,1/2-z
1/2-x,1/2-y,-z
1/2+x,y,-z
1/2-x,y,1/2+z
1/2+x,1/2-y,1/2+z
loop_
_atom_site_type_symbol
_atom_site_label
_atom_site_fract_x
_atom_site_fract_y
_atom_site_fract_z
Si Si1 0.077747 0.050360 0.459431
Si Si2 0.101540 0.559542 0.302340
Si Si3 0.667982 0.493581 0.799196
Si Si4 0.924954 0.740951 0.453806
Si Si5 0.664506 0.693724 0.385902
Si Si6 0.541626 0.627799 0.117194
Si Si7 0.500000 0.750000 0.750000
Si Si8 0.678071 0.754026 0.636203
O O1 0.143806 0.086127 0.425869
O O2 0.923342 0.348786 0.504046
O O3 0.009484 0.072900 0.425172
O O4 0.081593 0.903020 0.474592
O O5 0.129063 0.492483 0.252739
O O6 0.061561 0.471356 0.340882
O O7 0.164495 0.631827 0.329238
O O8 0.048255 0.664712 0.283996
O O9 0.750000 0.500000 0.790439
O O10 0.649051 0.371881 0.832730
O O11 0.655024 0.621393 0.831960
O O12 0.868708 0.760462 0.412045
O O13 0.000000 0.750000 0.429424
O O14 0.614343 0.810757 0.399356
O O15 0.743843 0.729681 0.381761
O O16 0.500000 0.750000 0.137394
#
# Coordination Sequence:
#
# PCOD9508911 Si02
#       8
#    16  16  16  16  16  16   4  16
#     4  11  25  48  72 104 140 186 242 295 361 436
#     4  12  26  42  68 101 139 180 241 287 342 423
#     4  10  22  43  69  96 138 185 229 283 349 421
#     4  12  25  42  75 102 140 186 237 296 368 421
#     4  10  23  46  70  97 147 181 229 289 354 427
#     4  10  25  45  69  97 145 184 232 287 354 423
#     4  12  28  40  66  96 140 168 238 298 324 408
#     4  11  24  43  70 105 133 187 228 293 355 414
#
# _framework density 21.137540000000001
#
# number of rings (size 3 to 8) (size 9 to 14) (size 15 to 20)
#    0.000    1.103    2.759    2.483    8.690    3.310 
#    0.000    0.000    0.000    0.000    0.000    0.000 
#    0.000    0.000    0.000    0.000    0.000    0.000 
#
# Total GULP energy -324331.820633 kJ/mol
# GULP energy per Si atom -5591.927942 kJ/mol
# Density = 2.108943 g / cm^3
# Si number density = 21.137540 Si / 1000 Ang^3
#
#
#
# Elastic Constant Matrix: (Units=GPa)
#
#
# Indices 1 2 3 4 5 6 
#
# 1 94.2401 4.7378 47.0794 0.0000 0.0000 0.0000
# 2 4.7378 61.3902 27.8640 0.0000 0.0000 0.0000
# 3 47.0794 27.8640 114.8305 0.0000 0.0000 0.0000
# 4 0.0000 0.0000 0.0000 37.4805 0.0000 0.0000
# 5 0.0000 0.0000 0.0000 0.0000 59.2144 0.0000
# 6 0.0000 0.0000 0.0000 0.0000 0.0000 16.6064
#
#
#
# Elastic Compliance Matrix: (Units=1/GPa)
#
#
# Indices 1 2 3 4 5 6 
#
# 1 0.013492 0.001651 -0.005932 0.000000 0.000000 0.000000
# 2 0.001651 0.018507 -0.005168 0.000000 0.000000 0.000000
# 3 -0.005932 -0.005168 0.012395 0.000000 0.000000 0.000000
# 4 0.000000 0.000000 0.000000 0.026681 0.000000 0.000000
# 5 0.000000 0.000000 0.000000 0.000000 0.016888 0.000000
# 6 0.000000 0.000000 0.000000 0.000000 0.000000 0.060218
#
#
# Mechanical properties :
#
#
# Convention : Reuss Voigt Hill
#
# Bulk Modulus (GPa) = 39.22152 47.75813 43.48982
# Shear Modulus (GPa) = 28.47770 35.37891 31.92830
#
# Velocity S-wave (km/s) = 3.67448 4.09558 3.89073
# Velocity P-wave (km/s) = 6.04964 6.70881 6.38773
#
# Compressibility (1/GPa) = 0.02549621
#
# Stress axis : x y z
#
# Youngs Moduli (GPa) = 74.11972 54.03233 80.68019
#
# Poissons Ratio (x) = -0.08922 0.47861
# Poissons Ratio (y) = -0.12239 0.41695
# Poissons Ratio (z) = 0.43969 0.27923
#
# Static dielectric constant tensor:
#      x y z
#    x 1.757580 0.000000 0.000000 
#    y 0.000000 1.793600 0.000000 
#    z 0.000000 0.000000 1.758470 
# 
# From -- ./inp_files/51487.got.cif
#   From: 2010.05.17/outbox.cif.g08.bks.cpg/sg68_26_cif.got.tgz:51487.got - 2010.06.03 18:57:09.
