data_PCOD9508990
_publ_section_title
;
Structure prediction by ZEFSAII (Michael W. Deem and Ramdas Pophale) SiO2 
 PCOD9508990
Probable space group: C C C A
;
_chemical_formula_sum "Si O2"
_cell_formula_units_Z 88
_cell_length_a 12.831842
_cell_length_b 26.097549
_cell_length_c 11.507154
_cell_angle_alpha 90.000000
_cell_angle_beta 90.000000
_cell_angle_gamma 90.000000
_cell_volume 3853.511420
_symmetry_space_group_name_H-M "C C C A"
_symmetry_group_IT_number 68
_space_group.IT_coordinate_system_code '2'
_symmetry_cell_setting 'orthorhombic'
loop_
_space_group_symop_operation_xyz
x,y,z
-x,1/2-y,z
x,1/2-y,1/2-z
-x,y,1/2-z
-x,-y,-z
x,1/2+y,-z
-x,1/2+y,1/2+z
x,-y,1/2+z
1/2+x,1/2+y,z
1/2-x,-y,z
1/2+x,-y,1/2-z
1/2-x,1/2+y,1/2-z
1/2-x,1/2-y,-z
1/2+x,y,-z
1/2-x,y,1/2+z
1/2+x,1/2-y,1/2+z
loop_
_atom_site_type_symbol
_atom_site_label
_atom_site_fract_x
_atom_site_fract_y
_atom_site_fract_z
Si Si1 0.386601 0.892862 0.713736
Si Si2 0.377234 0.247392 0.617307
Si Si3 0.368100 0.990487 0.578495
Si Si4 0.200959 0.426824 0.123190
Si Si5 0.268465 0.666847 0.961273
Si Si6 0.500000 0.436548 0.750000
O O1 0.500000 0.874519 0.750000
O O2 0.413971 0.936849 0.620655
O O3 0.304388 0.922396 0.797437
O O4 0.325838 0.845340 0.658855
O O5 0.500000 0.250000 0.616978
O O6 0.338899 0.250000 0.750000
O O7 0.330534 0.293690 0.542215
O O8 0.340228 0.193842 0.562816
O O9 0.345143 0.978376 0.440925
O O10 0.250000 0.000000 0.622186
O O11 0.441337 0.031518 0.644939
O O12 0.098668 0.407621 0.193368
O O13 0.235154 0.388000 0.022131
#
# Coordination Sequence:
#
# PCOD9508990 Si02
#       6
#    16  16  16  16  16   8
#     4  11  24  43  66  98 141 185 233 291 342 419
#     4  10  22  44  73  98 136 172 218 280 348 429
#     4  11  24  42  66  98 137 188 239 292 350 410
#     4  11  26  42  69  98 140 183 238 292 352 419
#     4  10  24  43  67 105 131 176 224 281 351 419
#     4  12  24  44  68 102 139 190 237 296 354 410
#
# _framework density 22.836317000000001
#
# number of rings (size 3 to 8) (size 9 to 14) (size 15 to 20)
#    0.000    1.273    2.727    1.636    5.091    5.818 
#    0.000    0.000    0.000    0.000    0.000    0.000 
#    0.000    0.000    0.000    0.000    0.000    0.000 
#
# Total GULP energy -245086.523311 kJ/mol
# GULP energy per Si atom -5570.148257 kJ/mol
# Density = 2.278434 g / cm^3
# Si number density = 22.836317 Si / 1000 Ang^3
#
#
#
# Elastic Constant Matrix: (Units=GPa)
#
#
# Indices 1 2 3 4 5 6 
#
# 1 147.6692 15.1605 52.2071 0.0000 0.0000 0.0000
# 2 15.1605 41.8825 29.5929 0.0000 0.0000 0.0000
# 3 52.2071 29.5929 93.1554 0.0000 0.0000 0.0000
# 4 0.0000 0.0000 0.0000 41.0070 0.0000 0.0000
# 5 0.0000 0.0000 0.0000 0.0000 20.3141 0.0000
# 6 0.0000 0.0000 0.0000 0.0000 0.0000 50.1987
#
#
#
# Elastic Compliance Matrix: (Units=1/GPa)
#
#
# Indices 1 2 3 4 5 6 
#
# 1 0.008450 0.000370 -0.004853 0.000000 0.000000 0.000000
# 2 0.000370 0.030803 -0.009993 0.000000 0.000000 0.000000
# 3 -0.004853 -0.009993 0.016629 0.000000 0.000000 0.000000
# 4 0.000000 0.000000 0.000000 0.024386 0.000000 0.000000
# 5 0.000000 0.000000 0.000000 0.000000 0.049227 0.000000
# 6 0.000000 0.000000 0.000000 0.000000 0.000000 0.019921
#
#
# Mechanical properties :
#
#
# Convention : Reuss Voigt Hill
#
# Bulk Modulus (GPa) = 37.13251 52.95867 45.04559
# Shear Modulus (GPa) = 26.68899 34.68707 30.68803
#
# Velocity S-wave (km/s) = 3.42235 3.90159 3.66980
# Velocity P-wave (km/s) = 5.64909 6.59829 6.14205
#
# Compressibility (1/GPa) = 0.02693058
#
# Stress axis : x y z
#
# Youngs Moduli (GPa) = 118.34836 32.46451 60.13577
#
# Poissons Ratio (x) = -0.01203 0.29185
# Poissons Ratio (y) = -0.04385 0.60093
# Poissons Ratio (z) = 0.57436 0.32441
#
# Static dielectric constant tensor:
#      x y z
#    x 1.921950 0.000000 0.000000 
#    y 0.000000 1.882180 0.000000 
#    z 0.000000 0.000000 2.017940 
# 
# From -- ./inp_files/12025.got.cif
#   From: 2010.05.17/outbox.cif.g08.bks.cpg/sg68_7_cif.got.tgz:12025.got - 2010.06.03 18:57:09.
