data_PCOD9508472
_publ_section_title
;
Structure prediction by ZEFSAII (Michael W. Deem and Ramdas Pophale) SiO2 
 PCOD9508472
Probable space group: C C C A
;
_chemical_formula_sum "Si O2"
_cell_formula_units_Z 116
_cell_length_a 17.163201
_cell_length_b 24.717221
_cell_length_c 12.055034
_cell_angle_alpha 90.000000
_cell_angle_beta 90.000000
_cell_angle_gamma 90.000000
_cell_volume 5114.066475
_symmetry_space_group_name_H-M "C C C A"
_symmetry_group_IT_number 68
_space_group.IT_coordinate_system_code '2'
_symmetry_cell_setting 'orthorhombic'
loop_
_space_group_symop_operation_xyz
x,y,z
-x,1/2-y,z
x,1/2-y,1/2-z
-x,y,1/2-z
-x,-y,-z
x,1/2+y,-z
-x,1/2+y,1/2+z
x,-y,1/2+z
1/2+x,1/2+y,z
1/2-x,-y,z
1/2+x,-y,1/2-z
1/2-x,1/2+y,1/2-z
1/2-x,1/2-y,-z
1/2+x,y,-z
1/2-x,y,1/2+z
1/2+x,1/2-y,1/2+z
loop_
_atom_site_type_symbol
_atom_site_label
_atom_site_fract_x
_atom_site_fract_y
_atom_site_fract_z
Si Si1 0.973783 0.399979 0.366659
Si Si2 0.306394 0.690974 0.356729
Si Si3 0.359548 0.304673 0.380796
Si Si4 0.632385 0.906802 0.499218
Si Si5 0.125577 0.196812 0.364770
Si Si6 0.591091 0.095000 0.256288
Si Si7 0.500000 0.750000 0.750000
Si Si8 0.087548 0.021244 0.531302
O O1 0.948064 0.339595 0.338063
O O2 0.907292 0.433731 0.433382
O O3 0.000000 0.426819 0.250000
O O4 0.047362 0.394873 0.447239
O O5 0.224687 0.722543 0.369394
O O6 0.316545 0.640861 0.441749
O O7 0.372172 0.737787 0.367659
O O8 0.314425 0.675406 0.227948
O O9 0.362403 0.317833 0.508592
O O10 0.356711 0.359505 0.312363
O O11 0.436894 0.276349 0.334679
O O12 0.622543 0.909212 0.631718
O O13 0.645447 0.970062 0.469510
O O14 0.500000 0.112609 0.250000
O O15 0.589511 0.046541 0.345801
O O16 0.000000 0.000000 0.500000
#
# Coordination Sequence:
#
# PCOD9508472 Si02
#       8
#    16  16  16  16  16  16   4  16
#     4  11  21  39  67 102 142 187 243 302 355 422
#     4  11  27  47  68 101 146 202 238 296 378 462
#     4  12  27  47  72 102 142 183 243 305 379 452
#     4  11  25  40  68 104 147 191 241 300 375 433
#     4  11  24  46  69  99 142 192 248 293 360 447
#     4  12  22  42  68 107 139 180 244 309 370 434
#     4  12  28  44  76 110 132 178 244 320 390 430
#     4  10  22  38  68 104 143 182 236 306 362 426
#
# _framework density 22.682535999999999
#
# number of rings (size 3 to 8) (size 9 to 14) (size 15 to 20)
#    0.000    0.828    6.207    1.241    7.724    0.552 
#    0.000    0.690    0.000    1.655    0.000    0.000 
#    0.000    0.000    0.000    0.000    0.000    0.000 
#
# Total GULP energy -322936.871331 kJ/mol
# GULP energy per Si atom -5567.877092 kJ/mol
# Density = 2.263091 g / cm^3
# Si number density = 22.682536 Si / 1000 Ang^3
#
#
#
# Elastic Constant Matrix: (Units=GPa)
#
#
# Indices 1 2 3 4 5 6 
#
# 1 58.6419 45.4489 42.2595 0.0000 0.0000 0.0000
# 2 45.4489 112.2446 53.8162 0.0000 0.0000 0.0000
# 3 42.2595 53.8162 200.4070 0.0000 0.0000 0.0000
# 4 0.0000 0.0000 0.0000 16.2008 0.0000 0.0000
# 5 0.0000 0.0000 0.0000 0.0000 93.7104 0.0000
# 6 0.0000 0.0000 0.0000 0.0000 0.0000 -696.7015
#
#
#
# Elastic Compliance Matrix: (Units=1/GPa)
#
#
# Indices 1 2 3 4 5 6 
#
# 1 0.026427 -0.009215 -0.003098 0.000000 0.000000 0.000000
# 2 -0.009215 0.013439 -0.001666 0.000000 0.000000 0.000000
# 3 -0.003098 -0.001666 0.006090 0.000000 0.000000 0.000000
# 4 0.000000 0.000000 0.000000 0.061726 0.000000 0.000000
# 5 0.000000 0.000000 0.000000 0.000000 0.010671 0.000000
# 6 0.000000 0.000000 0.000000 0.000000 0.000000 -0.001435
#
#
# Mechanical properties :
#
#
# Convention : Reuss Voigt Hill
#
# Bulk Modulus (GPa) = 55.55922 72.70477 64.13200
# Shear Modulus (GPa) = 33.13983 -102.04015 -34.45016
#
# Velocity S-wave (km/s) = 3.82649 -6.71445 -3.90140
# Velocity P-wave (km/s) = 6.63853 5.29047 2.83558
#
# Compressibility (1/GPa) = 0.01799881
#
# Stress axis : x y z
#
# Youngs Moduli (GPa) = 37.83958 74.40986 164.19242
#
# Poissons Ratio (x) = 0.68571 0.50868
# Poissons Ratio (y) = 0.34870 0.27349
# Poissons Ratio (z) = 0.11723 0.12394
#
# Static dielectric constant tensor:
#      x y z
#    x 1.881020 0.000000 0.000000 
#    y 0.000000 2.063690 0.000000 
#    z 0.000000 0.000000 1.996330 
# 
# From -- ./inp_files/14821.got.cif
#   From: 2010.05.17/outbox.cif.g08.bks.cpg/sg68_8_cif.got.tgz:14821.got - 2010.06.03 18:57:09.
