data_PCOD9508791
_publ_section_title
;
Structure prediction by ZEFSAII (Michael W. Deem and Ramdas Pophale) SiO2 
 PCOD9508791
Probable space group: C C C A
;
_chemical_formula_sum "Si O2"
_cell_formula_units_Z 88
_cell_length_a 22.955145
_cell_length_b 13.843374
_cell_length_c 12.599014
_cell_angle_alpha 90.000000
_cell_angle_beta 90.000000
_cell_angle_gamma 90.000000
_cell_volume 4003.672556
_symmetry_space_group_name_H-M "C C C A"
_symmetry_group_IT_number 68
_space_group.IT_coordinate_system_code '2'
_symmetry_cell_setting 'orthorhombic'
loop_
_space_group_symop_operation_xyz
x,y,z
-x,1/2-y,z
x,1/2-y,1/2-z
-x,y,1/2-z
-x,-y,-z
x,1/2+y,-z
-x,1/2+y,1/2+z
x,-y,1/2+z
1/2+x,1/2+y,z
1/2-x,-y,z
1/2+x,-y,1/2-z
1/2-x,1/2+y,1/2-z
1/2-x,1/2-y,-z
1/2+x,y,-z
1/2-x,y,1/2+z
1/2+x,1/2-y,1/2+z
loop_
_atom_site_type_symbol
_atom_site_label
_atom_site_fract_x
_atom_site_fract_y
_atom_site_fract_z
Si Si1 0.250000 0.000000 0.659762
Si Si2 0.937515 0.537808 0.122254
Si Si3 0.963493 0.848472 0.015388
Si Si4 0.835649 0.420229 0.487344
Si Si5 0.367841 0.400155 0.163373
Si Si6 0.235657 0.658131 0.688889
O O1 0.205123 0.052259 0.584762
O O2 0.283935 0.070020 0.737438
O O3 0.905571 0.560085 0.235159
O O4 0.999184 0.587490 0.099952
O O5 0.946116 0.425010 0.080976
O O6 0.898007 0.596083 0.037091
O O7 0.905892 0.830776 0.086641
O O8 0.000000 0.750000 0.988176
O O9 0.847763 0.511243 0.411243
O O10 0.797426 0.345872 0.421523
O O11 0.305822 0.349912 0.188119
O O12 0.216206 0.750000 0.750000
#
# Coordination Sequence:
#
# PCOD9508791 Si02
#       6
#     8  16  16  16  16  16
#     4  12  20  44  64  84 140 172 216 268 340 398
#     4  10  22  42  65  94 131 173 219 278 342 399
#     4  10  24  42  67  96 126 170 231 283 332 393
#     4  11  21  43  65  92 135 178 216 271 338 411
#     4  11  21  40  68  94 132 176 221 279 337 397
#     4  12  25  39  63 102 134 178 227 276 336 409
#
# _framework density 21.97982
#
# number of rings (size 3 to 8) (size 9 to 14) (size 15 to 20)
#    0.000    1.091    5.455    0.545    2.545    1.455 
#    9.818    0.000    0.000    9.818    0.000    0.000 
#    0.000    0.000    0.000    0.000    0.000    0.000 
#
# Total GULP energy -245044.826241 kJ/mol
# GULP energy per Si atom -5569.200596 kJ/mol
# Density = 2.192979 g / cm^3
# Si number density = 21.979820 Si / 1000 Ang^3
#
#
#
# Elastic Constant Matrix: (Units=GPa)
#
#
# Indices 1 2 3 4 5 6 
#
# 1 83.4337 12.2623 36.8409 0.0000 0.0000 0.0000
# 2 12.2623 76.3491 22.1544 0.0000 0.0000 0.0000
# 3 36.8409 22.1544 76.0347 0.0000 0.0000 0.0000
# 4 0.0000 0.0000 0.0000 9.8012 0.0000 0.0000
# 5 0.0000 0.0000 0.0000 0.0000 67.5724 0.0000
# 6 0.0000 0.0000 0.0000 0.0000 0.0000 2003.2501
#
#
#
# Elastic Compliance Matrix: (Units=1/GPa)
#
#
# Indices 1 2 3 4 5 6 
#
# 1 0.015256 -0.000333 -0.007295 0.000000 0.000000 0.000000
# 2 -0.000333 0.014315 -0.004009 0.000000 0.000000 0.000000
# 3 -0.007295 -0.004009 0.017855 0.000000 0.000000 0.000000
# 4 0.000000 0.000000 0.000000 0.102028 0.000000 0.000000
# 5 0.000000 0.000000 0.000000 0.000000 0.014799 0.000000
# 6 0.000000 0.000000 0.000000 0.000000 0.000000 0.000499
#
#
# Mechanical properties :
#
#
# Convention : Reuss Voigt Hill
#
# Bulk Modulus (GPa) = 41.40784 42.03696 41.72240
# Shear Modulus (GPa) = 25.50034 427.09542 226.29788
#
# Velocity S-wave (km/s) = 3.40982 13.95473 10.15779
# Velocity P-wave (km/s) = 5.86365 16.69768 12.51389
#
# Compressibility (1/GPa) = 0.02415001
#
# Stress axis : x y z
#
# Youngs Moduli (GPa) = 65.54985 69.85834 56.00828
#
# Poissons Ratio (x) = 0.02330 0.40856
# Poissons Ratio (y) = 0.02186 0.22455
# Poissons Ratio (z) = 0.47816 0.28008
#
# Static dielectric constant tensor:
#      x y z
#    x 1.942690 0.000000 0.000000 
#    y 0.000000 1.808550 0.000000 
#    z 0.000000 0.000000 1.784410 
# 
# From -- ./inp_files/16327.got.cif
#   From: 2010.05.17/outbox.cif.g08.bks.cpg/sg68_9_cif.got.tgz:16327.got - 2010.06.03 18:57:09.
