data_PCOD9508638
_publ_section_title
;
Structure prediction by ZEFSAII (Michael W. Deem and Ramdas Pophale) SiO2 
 PCOD9508638
Probable space group: C C C A
;
_chemical_formula_sum "Si O2"
_cell_formula_units_Z 60
_cell_length_a 14.520991
_cell_length_b 7.250666
_cell_length_c 24.170906
_cell_angle_alpha 90.000000
_cell_angle_beta 90.000000
_cell_angle_gamma 90.000000
_cell_volume 2544.878693
_symmetry_space_group_name_H-M "C C C A"
_symmetry_group_IT_number 68
_space_group.IT_coordinate_system_code '2'
_symmetry_cell_setting 'orthorhombic'
loop_
_space_group_symop_operation_xyz
x,y,z
-x,1/2-y,z
x,1/2-y,1/2-z
-x,y,1/2-z
-x,-y,-z
x,1/2+y,-z
-x,1/2+y,1/2+z
x,-y,1/2+z
1/2+x,1/2+y,z
1/2-x,-y,z
1/2+x,-y,1/2-z
1/2-x,1/2+y,1/2-z
1/2-x,1/2-y,-z
1/2+x,y,-z
1/2-x,y,1/2+z
1/2+x,1/2-y,1/2+z
loop_
_atom_site_type_symbol
_atom_site_label
_atom_site_fract_x
_atom_site_fract_y
_atom_site_fract_z
Si Si1 0.500000 0.750000 0.750000
Si Si2 0.102625 0.460709 0.567046
Si Si3 0.393918 0.977552 0.555769
Si Si4 0.250000 0.500000 0.357293
Si Si5 0.830836 0.614424 0.317428
O O1 0.570662 0.868062 0.712656
O O2 0.101100 0.238799 0.568263
O O3 0.142184 0.506847 0.506820
O O4 0.150727 0.496278 0.625168
O O5 0.999269 0.540197 0.562565
O O6 0.328701 0.071524 0.600303
O O7 0.206215 0.676063 0.326501
O O8 0.750000 0.500000 0.287994
#
# Coordination Sequence:
#
# PCOD9508638 Si02
#       5
#     4  16  16   8  16
#     4  12  28  56  74  98 148 174 244 344 342 420
#     4   9  19  36  56  96 138 185 217 274 343 416
#     4   9  18  32  58  91 144 181 216 268 336 414
#     4  10  22  40  68 104 140 178 234 282 338 454
#     4  11  26  46  75 100 136 185 239 295 370 413
#
# _framework density 23.576761000000001
#
# number of rings (size 3 to 8) (size 9 to 14) (size 15 to 20)
#    0.000    2.133    0.000    3.200    7.467    2.133 
#    0.000    5.333    0.000    0.000    0.000    0.000 
#    0.000    0.000    0.000    0.000    0.000    0.000 
#
# Total GULP energy -167464.058650 kJ/mol
# GULP energy per Si atom -5582.135288 kJ/mol
# Density = 2.352310 g / cm^3
# Si number density = 23.576761 Si / 1000 Ang^3
#
#
#
# Elastic Constant Matrix: (Units=GPa)
#
#
# Indices 1 2 3 4 5 6 
#
# 1 178.1191 35.8717 67.4659 0.0000 0.0000 0.0000
# 2 35.8717 81.7831 35.6077 0.0000 0.0000 0.0000
# 3 67.4659 35.6077 104.5126 0.0000 0.0000 0.0000
# 4 0.0000 0.0000 0.0000 387.0908 0.0000 0.0000
# 5 0.0000 0.0000 0.0000 0.0000 40.6569 0.0000
# 6 0.0000 0.0000 0.0000 0.0000 0.0000 33.2825
#
#
#
# Elastic Compliance Matrix: (Units=1/GPa)
#
#
# Indices 1 2 3 4 5 6 
#
# 1 0.007565 -0.001400 -0.004407 0.000000 0.000000 0.000000
# 2 -0.001400 0.014616 -0.004076 0.000000 0.000000 0.000000
# 3 -0.004407 -0.004076 0.013802 0.000000 0.000000 0.000000
# 4 0.000000 0.000000 0.000000 0.002583 0.000000 0.000000
# 5 0.000000 0.000000 0.000000 0.000000 0.024596 0.000000
# 6 0.000000 0.000000 0.000000 0.000000 0.000000 0.030046
#
#
# Mechanical properties :
#
#
# Convention : Reuss Voigt Hill
#
# Bulk Modulus (GPa) = 61.66045 71.36727 66.51386
# Shear Modulus (GPa) = 42.23705 107.23732 74.73719
#
# Velocity S-wave (km/s) = 4.23717 6.75152 5.63634
# Velocity P-wave (km/s) = 7.08152 9.54533 8.40420
#
# Compressibility (1/GPa) = 0.01621785
#
# Stress axis : x y z
#
# Youngs Moduli (GPa) = 132.18400 68.41755 72.45498
#
# Poissons Ratio (x) = 0.09576 0.31929
# Poissons Ratio (y) = 0.18501 0.29535
# Poissons Ratio (z) = 0.58250 0.27889
#
# Static dielectric constant tensor:
#      x y z
#    x 1.929390 0.000000 0.000000 
#    y 0.000000 1.853800 0.000000 
#    z 0.000000 0.000000 2.020110 
# 
# From -- ./inp_files/42720.got.cif
#   From: 2010.05.17/outbox.cif.g08.bks.cpg/sg68_22_cif.got.tgz:42720.got - 2010.06.03 18:57:09.
