data_PCOD9508674
_publ_section_title
;
Structure prediction by ZEFSAII (Michael W. Deem and Ramdas Pophale) SiO2 
 PCOD9508674
Probable space group: C C C A
;
_chemical_formula_sum "Si O2"
_cell_formula_units_Z 60
_cell_length_a 19.100208
_cell_length_b 5.213465
_cell_length_c 25.634772
_cell_angle_alpha 90.000000
_cell_angle_beta 90.000000
_cell_angle_gamma 90.000000
_cell_volume 2552.666143
_symmetry_space_group_name_H-M "C C C A"
_symmetry_group_IT_number 68
_space_group.IT_coordinate_system_code '2'
_symmetry_cell_setting 'orthorhombic'
loop_
_space_group_symop_operation_xyz
x,y,z
-x,1/2-y,z
x,1/2-y,1/2-z
-x,y,1/2-z
-x,-y,-z
x,1/2+y,-z
-x,1/2+y,1/2+z
x,-y,1/2+z
1/2+x,1/2+y,z
1/2-x,-y,z
1/2+x,-y,1/2-z
1/2-x,1/2+y,1/2-z
1/2-x,1/2-y,-z
1/2+x,y,-z
1/2-x,y,1/2+z
1/2+x,1/2-y,1/2+z
loop_
_atom_site_type_symbol
_atom_site_label
_atom_site_fract_x
_atom_site_fract_y
_atom_site_fract_z
Si Si1 0.896278 0.625382 0.693709
Si Si2 0.250000 0.000000 0.213602
Si Si3 0.093733 0.464425 0.964056
Si Si4 0.500000 0.750000 0.113826
Si Si5 0.250000 0.000000 0.536376
Si Si6 0.500000 0.250000 0.250000
O O1 0.884685 0.750000 0.750000
O O2 0.819281 0.535233 0.679398
O O3 0.934673 0.806693 0.652281
O O4 0.950695 0.407572 0.710690
O O5 0.262577 0.250000 0.250000
O O6 0.033631 0.531394 0.922470
O O7 0.171908 0.491013 0.939342
O O8 0.088183 0.190203 0.992286
O O9 0.250000 0.750000 0.500000
#
# Coordination Sequence:
#
# PCOD9508674 Si02
#       6
#    16   8  16   8   8   4
#     4  11  23  41  60  93 126 166 211 264 321 384
#     4  10  22  41  64  87 124 172 208 261 320 383
#     4  10  22  41  61  91 127 166 211 264 319 382
#     4  12  23  38  63  92 128 163 213 268 324 384
#     4   8  16  35  62  81 118 166 202 251 316 369
#     4  12  18  40  66  86 128 160 210 264 322 376
#
# _framework density 23.504837999999999
#
# number of rings (size 3 to 8) (size 9 to 14) (size 15 to 20)
#    0.000    1.600    4.000    0.800    0.000    3.200 
#    0.000    0.000    0.000   11.200    0.000    0.000 
#    0.000    0.000    0.000    0.000    0.000    0.000 
#
# Total GULP energy -167368.620146 kJ/mol
# GULP energy per Si atom -5578.954005 kJ/mol
# Density = 2.345134 g / cm^3
# Si number density = 23.504838 Si / 1000 Ang^3
#
#
#
# Elastic Constant Matrix: (Units=GPa)
#
#
# Indices 1 2 3 4 5 6 
#
# 1 241.0708 28.3822 57.6030 0.0000 0.0000 0.0000
# 2 28.3822 93.6738 17.2295 0.0000 0.0000 0.0000
# 3 57.6030 17.2295 102.5908 0.0000 0.0000 0.0000
# 4 0.0000 0.0000 0.0000 -2.9739 0.0000 0.0000
# 5 0.0000 0.0000 0.0000 0.0000 56.1821 0.0000
# 6 0.0000 0.0000 0.0000 0.0000 0.0000 35.4533
#
#
#
# Elastic Compliance Matrix: (Units=1/GPa)
#
#
# Indices 1 2 3 4 5 6 
#
# 1 0.004881 -0.001006 -0.002572 0.000000 0.000000 0.000000
# 2 -0.001006 0.011223 -0.001320 0.000000 0.000000 0.000000
# 3 -0.002572 -0.001320 0.011413 0.000000 0.000000 0.000000
# 4 0.000000 0.000000 0.000000 -0.336263 0.000000 0.000000
# 5 0.000000 0.000000 0.000000 0.000000 0.017799 0.000000
# 6 0.000000 0.000000 0.000000 0.000000 0.000000 0.028206
#
#
# Mechanical properties :
#
#
# Convention : Reuss Voigt Hill
#
# Bulk Modulus (GPa) = 56.42750 71.52941 63.97846
# Shear Modulus (GPa) = -20.23977 40.00702 9.88362
#
# Velocity S-wave (km/s) = -2.93762 4.13010 2.05282
# Velocity P-wave (km/s) = 3.54299 7.29667 5.73560
#
# Compressibility (1/GPa) = 0.01772185
#
# Stress axis : x y z
#
# Youngs Moduli (GPa) = 204.87229 89.10347 87.61839
#
# Poissons Ratio (x) = 0.08963 0.22533
# Poissons Ratio (y) = 0.20608 0.11566
# Poissons Ratio (z) = 0.52687 0.11762
#
# Static dielectric constant tensor:
#      x y z
#    x 6.289430 0.000000 0.000000 
#    y 0.000000 1.919320 0.000000 
#    z 0.000000 0.000000 1.948410 
# 
# From -- ./inp_files/42079.got.cif
#   From: 2010.05.17/outbox.cif.g08.bks.cpg/sg68_22_cif.got.tgz:42079.got - 2010.06.03 18:57:09.
