data_PCOD9508435
_publ_section_title
;
Structure prediction by ZEFSAII (Michael W. Deem and Ramdas Pophale) SiO2 
 PCOD9508435
Probable space group: C C C A
;
_chemical_formula_sum "Si O2"
_cell_formula_units_Z 96
_cell_length_a 26.408489
_cell_length_b 8.821055
_cell_length_c 20.352667
_cell_angle_alpha 90.000000
_cell_angle_beta 90.000000
_cell_angle_gamma 90.000000
_cell_volume 4741.168715
_symmetry_space_group_name_H-M "C C C A"
_symmetry_group_IT_number 68
_space_group.IT_coordinate_system_code '2'
_symmetry_cell_setting 'orthorhombic'
loop_
_space_group_symop_operation_xyz
x,y,z
-x,1/2-y,z
x,1/2-y,1/2-z
-x,y,1/2-z
-x,-y,-z
x,1/2+y,-z
-x,1/2+y,1/2+z
x,-y,1/2+z
1/2+x,1/2+y,z
1/2-x,-y,z
1/2+x,-y,1/2-z
1/2-x,1/2+y,1/2-z
1/2-x,1/2-y,-z
1/2+x,y,-z
1/2-x,y,1/2+z
1/2+x,1/2-y,1/2+z
loop_
_atom_site_type_symbol
_atom_site_label
_atom_site_fract_x
_atom_site_fract_y
_atom_site_fract_z
Si Si1 0.135312 0.610795 0.088283
Si Si2 0.802165 0.589579 0.286111
Si Si3 0.099062 0.425603 0.270884
Si Si4 0.050838 0.445141 0.409740
Si Si5 0.095889 0.826968 0.985103
Si Si6 0.965616 0.102317 0.667909
O O1 0.181364 0.616772 0.138423
O O2 0.125277 0.441049 0.062600
O O3 0.084827 0.652105 0.129486
O O4 0.134708 0.723435 0.026752
O O5 0.798742 0.750000 0.250000
O O6 0.750000 0.500000 0.281622
O O7 0.847715 0.493807 0.252886
O O8 0.095260 0.250000 0.250000
O O9 0.089497 0.445440 0.348097
O O10 0.055584 0.519308 0.232380
O O11 0.064377 0.570979 0.463881
O O12 0.059445 0.286516 0.446023
O O13 0.997215 0.485902 0.377265
O O14 0.000000 0.250000 0.677529
#
# Coordination Sequence:
#
# PCOD9508435 Si02
#       6
#    16  16  16  16  16  16
#     4  10  22  41  61  95 130 170 219 266 322 399
#     4  11  24  44  73  98 127 163 216 281 350 402
#     4  11  25  43  67  97 132 169 222 286 339 393
#     4  11  22  38  59  90 131 172 225 256 322 383
#     4  10  22  38  62  89 129 180 216 263 316 389
#     4  11  23  38  64  92 133 179 222 268 332 387
#
# _framework density 20.248173000000001
#
# number of rings (size 3 to 8) (size 9 to 14) (size 15 to 20)
#    0.000    1.333    1.667    4.000    2.333    8.000 
#    0.000    0.833    0.000    4.000    0.000    0.000 
#    0.000    0.000    0.000    0.000    0.000    0.000 
#
# Total GULP energy -268691.546291 kJ/mol
# GULP energy per Si atom -5597.740548 kJ/mol
# Density = 2.020209 g / cm^3
# Si number density = 20.248173 Si / 1000 Ang^3
#
#
#
# Elastic Constant Matrix: (Units=GPa)
#
#
# Indices 1 2 3 4 5 6 
#
# 1 119.5845 65.3353 51.0952 0.0000 0.0000 0.0000
# 2 65.3353 178.9007 77.2987 0.0000 0.0000 0.0000
# 3 51.0952 77.2987 129.4213 0.0000 0.0000 0.0000
# 4 0.0000 0.0000 0.0000 37.1378 0.0000 0.0000
# 5 0.0000 0.0000 0.0000 0.0000 16.8577 0.0000
# 6 0.0000 0.0000 0.0000 0.0000 0.0000 26.1456
#
#
#
# Elastic Compliance Matrix: (Units=1/GPa)
#
#
# Indices 1 2 3 4 5 6 
#
# 1 0.011077 -0.002906 -0.002638 0.000000 0.000000 0.000000
# 2 -0.002906 0.008296 -0.003808 0.000000 0.000000 0.000000
# 3 -0.002638 -0.003808 0.011042 0.000000 0.000000 0.000000
# 4 0.000000 0.000000 0.000000 0.026927 0.000000 0.000000
# 5 0.000000 0.000000 0.000000 0.000000 0.059320 0.000000
# 6 0.000000 0.000000 0.000000 0.000000 0.000000 0.038247
#
#
# Mechanical properties :
#
#
# Convention : Reuss Voigt Hill
#
# Bulk Modulus (GPa) = 85.37536 90.59611 87.98574
# Shear Modulus (GPa) = 28.16650 31.64005 29.90327
#
# Velocity S-wave (km/s) = 3.73374 3.95728 3.84713
# Velocity P-wave (km/s) = 7.80024 8.10679 7.95499
#
# Compressibility (1/GPa) = 0.01171298
#
# Stress axis : x y z
#
# Youngs Moduli (GPa) = 90.27895 120.53842 90.56059
#
# Poissons Ratio (x) = 0.35024 0.23887
# Poissons Ratio (y) = 0.26232 0.34484
# Poissons Ratio (z) = 0.23813 0.45899
#
# Static dielectric constant tensor:
#      x y z
#    x 1.680040 0.000000 0.000000 
#    y 0.000000 1.728520 0.000000 
#    z 0.000000 0.000000 1.750970 
# 
# From -- ./inp_files/41259.got.cif
#   From: 2010.05.17/outbox.cif.g08.bks.cpg/sg68_21_cif.got.tgz:41259.got - 2010.06.03 18:57:09.
