data_PCOD9508290
_publ_section_title
;
Structure prediction by ZEFSAII (Michael W. Deem and Ramdas Pophale) SiO2 
 PCOD9508290
Probable space group: C C C A
;
_chemical_formula_sum "Si O2"
_cell_formula_units_Z 88
_cell_length_a 13.453773
_cell_length_b 23.056489
_cell_length_c 13.431159
_cell_angle_alpha 90.000000
_cell_angle_beta 90.000000
_cell_angle_gamma 90.000000
_cell_volume 4166.302128
_symmetry_space_group_name_H-M "C C C A"
_symmetry_group_IT_number 68
_space_group.IT_coordinate_system_code '2'
_symmetry_cell_setting 'orthorhombic'
loop_
_space_group_symop_operation_xyz
x,y,z
-x,1/2-y,z
x,1/2-y,1/2-z
-x,y,1/2-z
-x,-y,-z
x,1/2+y,-z
-x,1/2+y,1/2+z
x,-y,1/2+z
1/2+x,1/2+y,z
1/2-x,-y,z
1/2+x,-y,1/2-z
1/2-x,1/2+y,1/2-z
1/2-x,1/2-y,-z
1/2+x,y,-z
1/2-x,y,1/2+z
1/2+x,1/2-y,1/2+z
loop_
_atom_site_type_symbol
_atom_site_label
_atom_site_fract_x
_atom_site_fract_y
_atom_site_fract_z
Si Si1 0.376124 0.197109 0.671966
Si Si2 0.500000 0.750000 0.497220
Si Si3 0.376802 0.429324 0.332562
Si Si4 0.856022 0.796910 0.336719
Si Si5 0.250000 0.000000 0.527437
Si Si6 0.500000 0.405445 0.750000
Si Si7 0.076088 0.989196 0.370711
O O1 0.392137 0.250000 0.750000
O O2 0.444530 0.205877 0.575991
O O3 0.261425 0.201371 0.642783
O O4 0.409374 0.137078 0.722045
O O5 0.580836 0.720132 0.567380
O O6 0.382760 0.362129 0.306566
O O7 0.284930 0.447280 0.402017
O O8 0.478709 0.449636 0.386310
O O9 0.373569 0.465459 0.230548
O O10 0.874820 0.750000 0.250000
O O11 0.155860 0.986739 0.457664
O O12 0.465553 0.447415 0.660057
#
# Coordination Sequence:
#
# PCOD9508290 Si02
#       7
#    16   8  16  16   8   8  16
#     4  11  23  45  70 101 138 182 234 282 347 416
#     4  12  24  44  68 106 134 176 234 296 336 408
#     4  10  25  47  67  99 140 179 222 281 348 412
#     4  11  28  45  71  98 140 186 231 284 356 411
#     4  12  24  42  74 106 134 176 238 286 336 420
#     4  10  21  44  72  92 145 180 222 278 344 404
#     4  10  26  44  68 102 139 180 225 280 350 410
#
# _framework density 21.121846999999999
#
# number of rings (size 3 to 8) (size 9 to 14) (size 15 to 20)
#    0.000    1.455    1.818    1.909   15.273    1.455 
#    3.273    0.000    0.000    0.000    0.000    0.000 
#    0.000    0.000    0.000    0.000    0.000    0.000 
#
# Total GULP energy -246070.936323 kJ/mol
# GULP energy per Si atom -5592.521280 kJ/mol
# Density = 2.107377 g / cm^3
# Si number density = 21.121847 Si / 1000 Ang^3
#
#
#
# Elastic Constant Matrix: (Units=GPa)
#
#
# Indices 1 2 3 4 5 6 
#
# 1 138.3047 52.2448 59.8723 0.0000 0.0000 0.0000
# 2 52.2448 150.8613 41.7907 0.0000 0.0000 0.0000
# 3 59.8723 41.7907 93.5402 0.0000 0.0000 0.0000
# 4 0.0000 0.0000 0.0000 5.3309 0.0000 0.0000
# 5 0.0000 0.0000 0.0000 0.0000 43.6645 0.0000
# 6 0.0000 0.0000 0.0000 0.0000 0.0000 19.8441
#
#
#
# Elastic Compliance Matrix: (Units=1/GPa)
#
#
# Indices 1 2 3 4 5 6 
#
# 1 0.010519 -0.002029 -0.005827 0.000000 0.000000 0.000000
# 2 -0.002029 0.007956 -0.002256 0.000000 0.000000 0.000000
# 3 -0.005827 -0.002256 0.015428 0.000000 0.000000 0.000000
# 4 0.000000 0.000000 0.000000 0.187586 0.000000 0.000000
# 5 0.000000 0.000000 0.000000 0.000000 0.022902 0.000000
# 6 0.000000 0.000000 0.000000 0.000000 0.000000 0.050393
#
#
# Mechanical properties :
#
#
# Convention : Reuss Voigt Hill
#
# Bulk Modulus (GPa) = 73.09696 76.72465 74.91081
# Shear Modulus (GPa) = 15.64620 29.02112 22.33366
#
# Velocity S-wave (km/s) = 2.72464 3.71075 3.25525
# Velocity P-wave (km/s) = 6.67687 7.40022 7.04783
#
# Compressibility (1/GPa) = 0.01368046
#
# Stress axis : x y z
#
# Youngs Moduli (GPa) = 95.06476 125.68906 64.81766
#
# Poissons Ratio (x) = 0.25500 0.37766
# Poissons Ratio (y) = 0.19287 0.14623
# Poissons Ratio (z) = 0.55390 0.28355
#
# Static dielectric constant tensor:
#      x y z
#    x 1.797010 0.000000 0.000000 
#    y 0.000000 1.749500 0.000000 
#    z 0.000000 0.000000 1.758040 
# 
# From -- ./inp_files/13371.got.cif
#   From: 2010.05.17/outbox.cif.g08.bks.cpg/sg68_7_cif.got.tgz:13371.got - 2010.06.03 18:57:09.
