data_PCOD9508456
_publ_section_title
;
Structure prediction by ZEFSAII (Michael W. Deem and Ramdas Pophale) SiO2 
 PCOD9508456
Probable space group: C C C A
;
_chemical_formula_sum "Si O2"
_cell_formula_units_Z 72
_cell_length_a 9.336127
_cell_length_b 13.271056
_cell_length_c 25.370318
_cell_angle_alpha 90.000000
_cell_angle_beta 90.000000
_cell_angle_gamma 90.000000
_cell_volume 3143.389104
_symmetry_space_group_name_H-M "C C C A"
_symmetry_group_IT_number 68
_space_group.IT_coordinate_system_code '2'
_symmetry_cell_setting 'orthorhombic'
loop_
_space_group_symop_operation_xyz
x,y,z
-x,1/2-y,z
x,1/2-y,1/2-z
-x,y,1/2-z
-x,-y,-z
x,1/2+y,-z
-x,1/2+y,1/2+z
x,-y,1/2+z
1/2+x,1/2+y,z
1/2-x,-y,z
1/2+x,-y,1/2-z
1/2-x,1/2+y,1/2-z
1/2-x,1/2-y,-z
1/2+x,y,-z
1/2-x,y,1/2+z
1/2+x,1/2-y,1/2+z
loop_
_atom_site_type_symbol
_atom_site_label
_atom_site_fract_x
_atom_site_fract_y
_atom_site_fract_z
Si Si1 0.500000 0.250000 0.161634
Si Si2 0.721451 0.818844 0.111847
Si Si3 0.000000 0.103106 0.750000
Si Si4 0.566515 0.360280 0.991503
Si Si5 0.750000 0.500000 0.313578
Si Si6 0.699168 0.899683 0.421514
O O1 0.386760 0.304916 0.125596
O O2 0.567332 0.328617 0.203084
O O3 0.686480 0.857505 0.054088
O O4 0.663448 0.702368 0.111139
O O5 0.681505 0.908971 0.151582
O O6 0.124611 0.042674 0.777665
O O7 0.500000 0.250000 0.998108
O O8 0.433418 0.417839 0.962644
O O9 0.659065 0.379508 0.043433
O O10 0.750000 0.000000 0.390910
#
# Coordination Sequence:
#
# PCOD9508456 Si02
#       6
#     8  16   8  16   8  16
#     4   9  20  40  70  90 124 170 210 260 328 411
#     4  10  22  38  65  95 130 162 220 263 313 384
#     4   9  20  44  66  99 120 162 213 260 345 390
#     4  10  22  41  60  91 136 173 224 263 315 371
#     4  10  22  44  70  98 124 166 206 276 324 404
#     4  11  24  40  63  93 134 178 221 265 318 372
#
# _framework density 22.905213
#
# number of rings (size 3 to 8) (size 9 to 14) (size 15 to 20)
#    0.000    2.000    0.000    3.333    6.222    3.556 
#   14.000    0.000    0.000    0.000    0.000    0.000 
#    0.000    0.000    0.000    0.000    0.000    0.000 
#
# Total GULP energy -200637.978878 kJ/mol
# GULP energy per Si atom -5573.277191 kJ/mol
# Density = 2.285308 g / cm^3
# Si number density = 22.905213 Si / 1000 Ang^3
#
#
#
# Elastic Constant Matrix: (Units=GPa)
#
#
# Indices 1 2 3 4 5 6 
#
# 1 54.4005 28.8335 36.1982 0.0000 0.0000 0.0000
# 2 28.8335 124.1198 51.4771 0.0000 0.0000 0.0000
# 3 36.1982 51.4771 77.4409 0.0000 0.0000 0.0000
# 4 0.0000 0.0000 0.0000 -0.7124 0.0000 0.0000
# 5 0.0000 0.0000 0.0000 0.0000 34.1652 0.0000
# 6 0.0000 0.0000 0.0000 0.0000 0.0000 24.1672
#
#
#
# Elastic Compliance Matrix: (Units=1/GPa)
#
#
# Indices 1 2 3 4 5 6 
#
# 1 0.026862 -0.001426 -0.011608 0.000000 0.000000 0.000000
# 2 -0.001426 0.011199 -0.006778 0.000000 0.000000 0.000000
# 3 -0.011608 -0.006778 0.022845 0.000000 0.000000 0.000000
# 4 0.000000 0.000000 0.000000 -1.403784 0.000000 0.000000
# 5 0.000000 0.000000 0.000000 0.000000 0.029270 0.000000
# 6 0.000000 0.000000 0.000000 0.000000 0.000000 0.041378
#
#
# Mechanical properties :
#
#
# Convention : Reuss Voigt Hill
#
# Bulk Modulus (GPa) = 46.98870 54.33096 50.65983
# Shear Modulus (GPa) = -4.07993 20.82084 8.37046
#
# Velocity S-wave (km/s) = -1.33607 3.01823 1.91372
# Velocity P-wave (km/s) = 4.26366 5.99314 5.20080
#
# Compressibility (1/GPa) = 0.02128171
#
# Stress axis : x y z
#
# Youngs Moduli (GPa) = 37.22715 89.29411 43.77397
#
# Poissons Ratio (x) = 0.12731 0.50815
# Poissons Ratio (y) = 0.05308 0.29669
# Poissons Ratio (z) = 0.43215 0.60522
#
# Static dielectric constant tensor:
#      x y z
#    x 1.873880 0.000000 0.000000 
#    y 0.000000 2.056620 0.000000 
#    z 0.000000 0.000000 1.823090 
# 
# From -- ./inp_files/48995.got.cif
#   From: 2010.05.17/outbox.cif.g08.bks.cpg/sg68_25_cif.got.tgz:48995.got - 2010.06.03 18:57:09.
