data_PCOD9508110
_publ_section_title
;
Structure prediction by ZEFSAII (Michael W. Deem and Ramdas Pophale) SiO2 
 PCOD9508110
Probable space group: C C C A
;
_chemical_formula_sum "Si O2"
_cell_formula_units_Z 112
_cell_length_a 10.047083
_cell_length_b 16.472625
_cell_length_c 31.365104
_cell_angle_alpha 90.000000
_cell_angle_beta 90.000000
_cell_angle_gamma 90.000000
_cell_volume 5190.982129
_symmetry_space_group_name_H-M "C C C A"
_symmetry_group_IT_number 68
_space_group.IT_coordinate_system_code '2'
_symmetry_cell_setting 'orthorhombic'
loop_
_space_group_symop_operation_xyz
x,y,z
-x,1/2-y,z
x,1/2-y,1/2-z
-x,y,1/2-z
-x,-y,-z
x,1/2+y,-z
-x,1/2+y,1/2+z
x,-y,1/2+z
1/2+x,1/2+y,z
1/2-x,-y,z
1/2+x,-y,1/2-z
1/2-x,1/2+y,1/2-z
1/2-x,1/2-y,-z
1/2+x,y,-z
1/2-x,y,1/2+z
1/2+x,1/2-y,1/2+z
loop_
_atom_site_type_symbol
_atom_site_label
_atom_site_fract_x
_atom_site_fract_y
_atom_site_fract_z
Si Si1 0.349423 0.721970 0.704443
Si Si2 0.731048 0.206048 0.880805
Si Si3 0.681676 0.125624 0.464789
Si Si4 0.391345 0.680593 0.052373
Si Si5 0.110586 0.537582 0.850618
Si Si6 0.943634 0.477071 0.056423
Si Si7 0.395036 0.035301 0.288466
O O1 0.500000 0.750000 0.707113
O O2 0.285656 0.750000 0.750000
O O3 0.292341 0.765835 0.663255
O O4 0.356928 0.625921 0.697097
O O5 0.822722 0.175344 0.920514
O O6 0.665112 0.283300 0.903872
O O7 0.637210 0.130521 0.865827
O O8 0.691433 0.172620 0.508991
O O9 0.817117 0.074398 0.459757
O O10 0.558189 0.062118 0.468526
O O11 0.500000 0.750000 0.041605
O O12 0.440937 0.588716 0.059719
O O13 0.250000 0.500000 0.832595
O O14 0.087421 0.493550 0.895586
O O15 0.982254 0.518486 0.821754
O O16 0.500000 0.044324 0.250000
O O17 0.250000 0.000000 0.276949
#
# Coordination Sequence:
#
# PCOD9508110 Si02
#       7
#    16  16  16  16  16  16  16
#     4  11  25  48  72 103 144 183 226 297 360 427
#     4  11  24  42  73 100 137 182 236 292 360 417
#     4  10  21  41  63  92 126 186 238 270 349 426
#     4  12  23  38  63  94 140 174 227 303 340 404
#     4  11  21  44  77  98 137 193 238 284 353 434
#     4  10  21  41  63  91 131 184 231 285 349 411
#     4  12  28  47  75 106 143 182 237 291 357 431
#
# _framework density 21.575877999999999
#
# number of rings (size 3 to 8) (size 9 to 14) (size 15 to 20)
#    0.000    1.000    7.143    2.143    4.000    0.571 
#    0.000    2.857    0.000    0.000    0.000    0.000 
#    0.000    0.000    0.000    0.000    0.000    0.000 
#
# Total GULP energy -311945.666035 kJ/mol
# GULP energy per Si atom -5570.458322 kJ/mol
# Density = 2.152677 g / cm^3
# Si number density = 21.575878 Si / 1000 Ang^3
#
#
#
# Elastic Constant Matrix: (Units=GPa)
#
#
# Indices 1 2 3 4 5 6 
#
# 1 57.5892 19.7025 34.1349 0.0000 0.0000 0.0000
# 2 19.7025 60.1669 10.1635 0.0000 0.0000 0.0000
# 3 34.1349 10.1635 138.0115 0.0000 0.0000 0.0000
# 4 0.0000 0.0000 0.0000 35.7172 0.0000 0.0000
# 5 0.0000 0.0000 0.0000 0.0000 -56.7496 0.0000
# 6 0.0000 0.0000 0.0000 0.0000 0.0000 32.5150
#
#
#
# Elastic Compliance Matrix: (Units=1/GPa)
#
#
# Indices 1 2 3 4 5 6 
#
# 1 0.022638 -0.006549 -0.005117 0.000000 0.000000 0.000000
# 2 -0.006549 0.018724 0.000241 0.000000 0.000000 0.000000
# 3 -0.005117 0.000241 0.008494 0.000000 0.000000 0.000000
# 4 0.000000 0.000000 0.000000 0.027998 0.000000 0.000000
# 5 0.000000 0.000000 0.000000 0.000000 -0.017621 0.000000
# 6 0.000000 0.000000 0.000000 0.000000 0.000000 0.030755
#
#
# Mechanical properties :
#
#
# Convention : Reuss Voigt Hill
#
# Bulk Modulus (GPa) = 37.02861 42.64106 39.83483
# Shear Modulus (GPa) = 40.70387 15.08097 27.89242
#
# Velocity S-wave (km/s) = 4.34815 2.64668 3.59940
# Velocity P-wave (km/s) = 6.51213 5.39871 5.98138
#
# Compressibility (1/GPa) = 0.02700614
#
# Stress axis : x y z
#
# Youngs Moduli (GPa) = 44.17406 53.40678 117.73577
#
# Poissons Ratio (x) = 0.34975 0.60243
# Poissons Ratio (y) = 0.28928 -0.02835
# Poissons Ratio (z) = 0.22603 -0.01286
#
# Static dielectric constant tensor:
#      x y z
#    x 1.857060 0.000000 0.000000 
#    y 0.000000 1.546200 0.000000 
#    z 0.000000 0.000000 1.847030 
# 
# From -- ./inp_files/54825.got.cif
#   From: 2010.05.17/outbox.cif.g08.bks.cpg/sg68_28_cif.got.tgz:54825.got - 2010.06.03 18:57:09.
