data_PCOD9508839
_publ_section_title
;
Structure prediction by ZEFSAII (Michael W. Deem and Ramdas Pophale) SiO2 
 PCOD9508839
Probable space group: C C C A
;
_chemical_formula_sum "Si O2"
_cell_formula_units_Z 72
_cell_length_a 26.727309
_cell_length_b 8.875464
_cell_length_c 12.871211
_cell_angle_alpha 90.000000
_cell_angle_beta 90.000000
_cell_angle_gamma 90.000000
_cell_volume 3053.273520
_symmetry_space_group_name_H-M "C C C A"
_symmetry_group_IT_number 68
_space_group.IT_coordinate_system_code '2'
_symmetry_cell_setting 'orthorhombic'
loop_
_space_group_symop_operation_xyz
x,y,z
-x,1/2-y,z
x,1/2-y,1/2-z
-x,y,1/2-z
-x,-y,-z
x,1/2+y,-z
-x,1/2+y,1/2+z
x,-y,1/2+z
1/2+x,1/2+y,z
1/2-x,-y,z
1/2+x,-y,1/2-z
1/2-x,1/2+y,1/2-z
1/2-x,1/2-y,-z
1/2+x,y,-z
1/2-x,y,1/2+z
1/2+x,1/2-y,1/2+z
loop_
_atom_site_type_symbol
_atom_site_label
_atom_site_fract_x
_atom_site_fract_y
_atom_site_fract_z
Si Si1 0.500000 0.750000 0.429360
Si Si2 0.916466 0.250000 0.750000
Si Si3 0.602880 0.163612 0.035976
Si Si4 0.000000 0.504301 0.750000
Si Si5 0.663739 0.888507 0.069702
Si Si6 0.216032 0.250000 0.250000
Si Si7 0.750000 0.500000 0.587610
O O1 0.452541 0.707428 0.500208
O O2 0.494257 0.890873 0.350988
O O3 0.885666 0.256834 0.854796
O O4 0.952224 0.395567 0.743887
O O5 0.614621 0.990462 0.055131
O O6 0.643287 0.223422 0.955572
O O7 0.684589 0.874185 0.185294
O O8 0.705502 0.950179 0.991137
O O9 0.242918 0.352845 0.337743
#
# Coordination Sequence:
#
# PCOD9508839 Si02
#       7
#     8   8  16   8  16   8   8
#     4  11  24  47  70 104 150 203 248 321 372 448
#     4  11  24  39  66 105 140 200 251 314 375 441
#     4  12  27  45  74 106 155 196 257 312 378 454
#     4  10  22  42  70  96 142 198 262 308 384 434
#     4  12  28  50  74 116 151 199 253 317 380 462
#     4  12  28  49  88 112 156 201 251 314 403 460
#     4  12  28  54  80 116 154 194 252 324 386 466
#
# _framework density 23.581247999999999
#
# number of rings (size 3 to 8) (size 9 to 14) (size 15 to 20)
#    0.000    0.444    2.222    5.333    6.222    6.222 
#    0.000    0.000    0.000    0.000    0.000    0.000 
#    0.000    0.000    0.000    0.000    0.000    0.000 
#
# Total GULP energy -201358.395511 kJ/mol
# GULP energy per Si atom -5593.288764 kJ/mol
# Density = 2.352758 g / cm^3
# Si number density = 23.581248 Si / 1000 Ang^3
#
#
#
# Elastic Constant Matrix: (Units=GPa)
#
#
# Indices 1 2 3 4 5 6 
#
# 1 97.7197 27.5076 43.5115 0.0000 0.0000 0.0000
# 2 27.5076 106.6053 19.4450 0.0000 0.0000 0.0000
# 3 43.5115 19.4450 130.6435 0.0000 0.0000 0.0000
# 4 0.0000 0.0000 0.0000 34.1129 0.0000 0.0000
# 5 0.0000 0.0000 0.0000 0.0000 36.5120 0.0000
# 6 0.0000 0.0000 0.0000 0.0000 0.0000 15.2151
#
#
#
# Elastic Compliance Matrix: (Units=1/GPa)
#
#
# Indices 1 2 3 4 5 6 
#
# 1 0.012664 -0.002568 -0.003836 0.000000 0.000000 0.000000
# 2 -0.002568 0.010163 -0.000657 0.000000 0.000000 0.000000
# 3 -0.003836 -0.000657 0.009030 0.000000 0.000000 0.000000
# 4 0.000000 0.000000 0.000000 0.029314 0.000000 0.000000
# 5 0.000000 0.000000 0.000000 0.000000 0.027388 0.000000
# 6 0.000000 0.000000 0.000000 0.000000 0.000000 0.065724
#
#
# Mechanical properties :
#
#
# Convention : Reuss Voigt Hill
#
# Bulk Modulus (GPa) = 56.38672 57.32186 56.85429
# Shear Modulus (GPa) = 28.68330 33.46827 31.07579
#
# Velocity S-wave (km/s) = 3.49142 3.77141 3.63411
# Velocity P-wave (km/s) = 6.34168 6.58223 6.46308
#
# Compressibility (1/GPa) = 0.01773467
#
# Stress axis : x y z
#
# Youngs Moduli (GPa) = 78.96300 98.39650 110.74529
#
# Poissons Ratio (x) = 0.25270 0.42478
# Poissons Ratio (y) = 0.20279 0.07280
# Poissons Ratio (z) = 0.30287 0.06468
#
# Static dielectric constant tensor:
#      x y z
#    x 1.860000 0.000000 0.000000 
#    y 0.000000 1.959410 0.000000 
#    z 0.000000 0.000000 1.899140 
# 
# From -- ./inp_files/19536.got.cif
#   From: 2010.05.17/outbox.cif.g08.bks.cpg/sg68_10_cif.got.tgz:19536.got - 2010.06.03 18:57:09.
