data_PCOD9508264
_publ_section_title
;
Structure prediction by ZEFSAII (Michael W. Deem and Ramdas Pophale) SiO2 
 PCOD9508264
Probable space group: C C C A
;
_chemical_formula_sum "Si O2"
_cell_formula_units_Z 88
_cell_length_a 5.192093
_cell_length_b 23.985607
_cell_length_c 32.820027
_cell_angle_alpha 90.000000
_cell_angle_beta 90.000000
_cell_angle_gamma 90.000000
_cell_volume 4087.258545
_symmetry_space_group_name_H-M "C C C A"
_symmetry_group_IT_number 68
_space_group.IT_coordinate_system_code '2'
_symmetry_cell_setting 'orthorhombic'
loop_
_space_group_symop_operation_xyz
x,y,z
-x,1/2-y,z
x,1/2-y,1/2-z
-x,y,1/2-z
-x,-y,-z
x,1/2+y,-z
-x,1/2+y,1/2+z
x,-y,1/2+z
1/2+x,1/2+y,z
1/2-x,-y,z
1/2+x,-y,1/2-z
1/2-x,1/2+y,1/2-z
1/2-x,1/2-y,-z
1/2+x,y,-z
1/2-x,y,1/2+z
1/2+x,1/2-y,1/2+z
loop_
_atom_site_type_symbol
_atom_site_label
_atom_site_fract_x
_atom_site_fract_y
_atom_site_fract_z
Si Si1 0.577149 0.314637 0.105285
Si Si2 0.746488 0.812132 0.731973
Si Si3 0.745551 0.622179 0.027980
Si Si4 0.999120 0.536812 0.799045
Si Si5 0.907653 0.149319 0.149716
Si Si6 0.750000 0.500000 0.028696
O O1 0.500000 0.250000 0.106213
O O2 0.688237 0.332287 0.061481
O O3 0.318320 0.350441 0.115806
O O4 0.819248 0.326664 0.135073
O O5 0.741253 0.750000 0.750000
O O6 0.500000 0.842704 0.750000
O O7 0.773276 0.811916 0.684110
O O8 0.000000 0.838253 0.750000
O O9 0.468167 0.626067 0.006415
O O10 0.755310 0.560592 0.049425
O O11 0.750000 0.500000 0.807809
O O12 0.968572 0.591676 0.827007
O O13 0.000000 0.546308 0.750000
O O14 0.250000 0.500000 0.808992
O O15 0.500000 0.500000 0.000000
#
# Coordination Sequence:
#
# PCOD9508264 Si02
#       6
#    16  16  16  16  16   8
#     4  12  28  43  64 101 144 187 222 279 343 399
#     4  10  22  36  61  91 120 171 226 265 329 385
#     4  10  21  43  71  98 132 174 229 274 332 411
#     4  10  22  43  70  95 126 173 233 285 337 411
#     4  12  25  44  65  96 143 176 225 289 345 401
#     4   8  16  34  66  98 120 154 208 280 324 374
#
# _framework density 21.530325000000001
#
# number of rings (size 3 to 8) (size 9 to 14) (size 15 to 20)
#    0.000    1.455    0.000    4.364    7.636    2.909 
#    4.909    0.000    0.000    0.000    0.000    0.000 
#    0.000    0.000    0.000    0.000    0.000    0.000 
#
# Total GULP energy -245611.560709 kJ/mol
# GULP energy per Si atom -5582.080925 kJ/mol
# Density = 2.148132 g / cm^3
# Si number density = 21.530325 Si / 1000 Ang^3
#
#
#
# Elastic Constant Matrix: (Units=GPa)
#
#
# Indices 1 2 3 4 5 6 
#
# 1 169.3031 40.0904 13.5943 0.0000 0.0000 0.0000
# 2 40.0904 133.0825 45.1401 0.0000 0.0000 0.0000
# 3 13.5943 45.1401 55.9953 0.0000 0.0000 0.0000
# 4 0.0000 0.0000 0.0000 33.0619 0.0000 0.0000
# 5 0.0000 0.0000 0.0000 0.0000 38.3385 0.0000
# 6 0.0000 0.0000 0.0000 0.0000 0.0000 9.9822
#
#
#
# Elastic Compliance Matrix: (Units=1/GPa)
#
#
# Indices 1 2 3 4 5 6 
#
# 1 0.006360 -0.001916 0.000001 0.000000 0.000000 0.000000
# 2 -0.001916 0.010919 -0.008337 0.000000 0.000000 0.000000
# 3 0.000001 -0.008337 0.024580 0.000000 0.000000 0.000000
# 4 0.000000 0.000000 0.000000 0.030246 0.000000 0.000000
# 5 0.000000 0.000000 0.000000 0.000000 0.026083 0.000000
# 6 0.000000 0.000000 0.000000 0.000000 0.000000 0.100178
#
#
# Mechanical properties :
#
#
# Convention : Reuss Voigt Hill
#
# Bulk Modulus (GPa) = 46.83110 61.78116 54.30613
# Shear Modulus (GPa) = 22.12479 33.58025 27.85252
#
# Velocity S-wave (km/s) = 3.20911 3.95355 3.60062
# Velocity P-wave (km/s) = 5.96068 7.04259 6.52410
#
# Compressibility (1/GPa) = 0.02135333
#
# Stress axis : x y z
#
# Youngs Moduli (GPa) = 157.22610 91.58100 40.68425
#
# Poissons Ratio (x) = 0.17549 -0.00002
# Poissons Ratio (y) = 0.30128 0.33920
# Poissons Ratio (z) = -0.00010 0.76354
#
# Static dielectric constant tensor:
#      x y z
#    x 1.809010 0.000000 0.000000 
#    y 0.000000 1.746100 0.000000 
#    z 0.000000 0.000000 1.842890 
# 
# From -- ./inp_files/53274.got.cif
#   From: 2010.05.17/outbox.cif.g08.bks.cpg/sg68_27_cif.got.tgz:53274.got - 2010.06.03 18:57:09.
