data_PCOD9508722
_publ_section_title
;
Structure prediction by ZEFSAII (Michael W. Deem and Ramdas Pophale) SiO2 
 PCOD9508722
Probable space group: C C C A
;
_chemical_formula_sum "Si O2"
_cell_formula_units_Z 116
_cell_length_a 25.803294
_cell_length_b 23.549030
_cell_length_c 8.880330
_cell_angle_alpha 90.000000
_cell_angle_beta 90.000000
_cell_angle_gamma 90.000000
_cell_volume 5396.066317
_symmetry_space_group_name_H-M "C C C A"
_symmetry_group_IT_number 68
_space_group.IT_coordinate_system_code '2'
_symmetry_cell_setting 'orthorhombic'
loop_
_space_group_symop_operation_xyz
x,y,z
-x,1/2-y,z
x,1/2-y,1/2-z
-x,y,1/2-z
-x,-y,-z
x,1/2+y,-z
-x,1/2+y,1/2+z
x,-y,1/2+z
1/2+x,1/2+y,z
1/2-x,-y,z
1/2+x,-y,1/2-z
1/2-x,1/2+y,1/2-z
1/2-x,1/2-y,-z
1/2+x,y,-z
1/2-x,y,1/2+z
1/2+x,1/2-y,1/2+z
loop_
_atom_site_type_symbol
_atom_site_label
_atom_site_fract_x
_atom_site_fract_y
_atom_site_fract_z
Si Si1 0.822650 0.798664 0.144545
Si Si2 0.941972 0.541645 0.224304
Si Si3 0.371219 0.009386 0.471750
Si Si4 0.000000 0.750000 0.250000
Si Si5 0.075249 0.832101 0.183718
Si Si6 0.720199 0.095703 0.963503
Si Si7 0.117212 0.720884 0.591298
Si Si8 0.321541 0.602715 0.128154
O O1 0.795931 0.750000 0.250000
O O2 0.866384 0.826443 0.253335
O O3 0.791940 0.848956 0.065239
O O4 0.849394 0.765081 0.007190
O O5 0.911425 0.547421 0.379702
O O6 0.944343 0.604984 0.160126
O O7 0.000000 0.518865 0.250000
O O8 0.903127 0.506375 0.120275
O O9 0.317802 0.044209 0.488158
O O10 0.360735 0.949892 0.386861
O O11 0.958700 0.702669 0.304400
O O12 0.072472 0.799822 0.023491
O O13 0.707714 0.102945 0.787940
O O14 0.780721 0.088265 0.995675
O O15 0.103287 0.750000 0.750000
O O16 0.150575 0.663259 0.614507
#
# Coordination Sequence:
#
# PCOD9508722 Si02
#       8
#    16  16  16   4  16  16  16  16
#     4  10  22  41  66  96 129 179 219 277 344 407
#     4  12  25  44  73 105 132 181 234 289 343 411
#     4  12  26  47  70  97 144 179 227 296 346 403
#     4  12  20  40  70 108 120 172 242 272 330 420
#     4  11  22  39  72  97 133 176 226 278 341 413
#     4  12  27  44  68 100 138 181 235 285 347 418
#     4  11  22  42  65  95 140 178 216 282 353 403
#     4  12  28  42  68 102 135 185 232 282 348 415
#
# _framework density 21.497142
#
# number of rings (size 3 to 8) (size 9 to 14) (size 15 to 20)
#    0.000    0.552    8.276    0.828    5.793    2.207 
#    0.000    0.345    0.000    0.000    0.000    0.000 
#    0.000    0.000    0.000    0.000    0.000    0.000 
#
# Total GULP energy -323402.918389 kJ/mol
# GULP energy per Si atom -5575.912386 kJ/mol
# Density = 2.144821 g / cm^3
# Si number density = 21.497142 Si / 1000 Ang^3
#
#
#
# Elastic Constant Matrix: (Units=GPa)
#
#
# Indices 1 2 3 4 5 6 
#
# 1 62.5605 25.1791 11.7520 0.0000 0.0000 0.0000
# 2 25.1791 77.5033 21.8085 0.0000 0.0000 0.0000
# 3 11.7520 21.8085 104.8400 0.0000 0.0000 0.0000
# 4 0.0000 0.0000 0.0000 19.5360 0.0000 0.0000
# 5 0.0000 0.0000 0.0000 0.0000 11.0693 0.0000
# 6 0.0000 0.0000 0.0000 0.0000 0.0000 14.7001
#
#
#
# Elastic Compliance Matrix: (Units=1/GPa)
#
#
# Indices 1 2 3 4 5 6 
#
# 1 0.018464 -0.005753 -0.000873 0.000000 0.000000 0.000000
# 2 -0.005753 0.015497 -0.002579 0.000000 0.000000 0.000000
# 3 -0.000873 -0.002579 0.010173 0.000000 0.000000 0.000000
# 4 0.000000 0.000000 0.000000 0.051187 0.000000 0.000000
# 5 0.000000 0.000000 0.000000 0.000000 0.090340 0.000000
# 6 0.000000 0.000000 0.000000 0.000000 0.000000 0.068027
#
#
# Mechanical properties :
#
#
# Convention : Reuss Voigt Hill
#
# Bulk Modulus (GPa) = 38.87354 40.26478 39.56916
# Shear Modulus (GPa) = 17.81440 21.47205 19.64322
#
# Velocity S-wave (km/s) = 2.88182 3.16386 3.02613
# Velocity P-wave (km/s) = 5.40329 5.66724 5.53684
#
# Compressibility (1/GPa) = 0.02572444
#
# Stress axis : x y z
#
# Youngs Moduli (GPa) = 54.15976 64.52733 98.30283
#
# Poissons Ratio (x) = 0.37122 0.08582
# Poissons Ratio (y) = 0.31157 0.25351
# Poissons Ratio (z) = 0.04728 0.16641
#
# Static dielectric constant tensor:
#      x y z
#    x 1.770120 0.000000 0.000000 
#    y 0.000000 1.782280 0.000000 
#    z 0.000000 0.000000 1.869760 
# 
# From -- ./inp_files/8354.got.cif
#   From: 2010.05.17/outbox.cif.g08.bks.cpg/sg68_5_cif.got.tgz:8354.got - 2010.06.03 18:57:09.
