data_PCOD9508337
_publ_section_title
;
Structure prediction by ZEFSAII (Michael W. Deem and Ramdas Pophale) SiO2 
 PCOD9508337
Probable space group: C C C A
;
_chemical_formula_sum "Si O2"
_cell_formula_units_Z 96
_cell_length_a 20.798886
_cell_length_b 19.217376
_cell_length_c 11.997809
_cell_angle_alpha 90.000000
_cell_angle_beta 90.000000
_cell_angle_gamma 90.000000
_cell_volume 4795.524409
_symmetry_space_group_name_H-M "C C C A"
_symmetry_group_IT_number 68
_space_group.IT_coordinate_system_code '2'
_symmetry_cell_setting 'orthorhombic'
loop_
_space_group_symop_operation_xyz
x,y,z
-x,1/2-y,z
x,1/2-y,1/2-z
-x,y,1/2-z
-x,-y,-z
x,1/2+y,-z
-x,1/2+y,1/2+z
x,-y,1/2+z
1/2+x,1/2+y,z
1/2-x,-y,z
1/2+x,-y,1/2-z
1/2-x,1/2+y,1/2-z
1/2-x,1/2-y,-z
1/2+x,y,-z
1/2-x,y,1/2+z
1/2+x,1/2-y,1/2+z
loop_
_atom_site_type_symbol
_atom_site_label
_atom_site_fract_x
_atom_site_fract_y
_atom_site_fract_z
Si Si1 0.561882 0.855772 0.892589
Si Si2 0.922391 0.402665 0.843335
Si Si3 0.618318 0.440100 0.777166
Si Si4 0.000000 0.250000 0.445323
Si Si5 0.686026 0.920127 0.007815
Si Si6 0.326197 0.415718 0.964022
Si Si7 0.000000 0.150660 0.250000
O O1 0.495308 0.901309 0.891775
O O2 0.576289 0.849387 0.760525
O O3 0.624066 0.891175 0.945056
O O4 0.547158 0.789448 0.969881
O O5 0.900468 0.478521 0.795127
O O6 0.872566 0.385257 0.941085
O O7 0.640282 0.418615 0.654905
O O8 0.554469 0.396997 0.802982
O O9 0.674006 0.415427 0.860499
O O10 0.972596 0.195472 0.353829
O O11 0.753318 0.887800 0.968556
O O12 0.683459 0.002622 0.989157
#
# Coordination Sequence:
#
# PCOD9508337 Si02
#       7
#    16  16  16   8  16  16   8
#     4  11  21  42  59  90 125 168 215 269 316 385
#     4  10  23  37  64  96 129 164 208 264 341 394
#     4  11  21  37  64  94 131 158 207 272 333 392
#     4  11  24  39  62  88 126 169 223 270 318 366
#     4  10  22  35  57  92 134 171 198 250 325 407
#     4  10  22  35  59  95 137 167 199 254 332 405
#     4  11  22  38  62  98 116 165 218 278 326 377
#
# _framework density 20.018666
#
# number of rings (size 3 to 8) (size 9 to 14) (size 15 to 20)
#    0.000    1.500    3.333    2.000    2.333    4.000 
#    0.000    0.000    0.000    4.000    8.667    0.000 
#    0.000    0.000    0.000    0.000    0.000    0.000 
#
# Total GULP energy -267491.186056 kJ/mol
# GULP energy per Si atom -5572.733043 kJ/mol
# Density = 1.997310 g / cm^3
# Si number density = 20.018666 Si / 1000 Ang^3
#
#
#
# Elastic Constant Matrix: (Units=GPa)
#
#
# Indices 1 2 3 4 5 6 
#
# 1 121.9229 15.6092 51.2168 0.0000 0.0000 0.0000
# 2 15.6092 32.8922 29.8886 0.0000 0.0000 0.0000
# 3 51.2168 29.8886 138.3804 0.0000 0.0000 0.0000
# 4 0.0000 0.0000 0.0000 -3.3126 0.0000 0.0000
# 5 0.0000 0.0000 0.0000 0.0000 -379.4903 0.0000
# 6 0.0000 0.0000 0.0000 0.0000 0.0000 6.1160
#
#
#
# Elastic Compliance Matrix: (Units=1/GPa)
#
#
# Indices 1 2 3 4 5 6 
#
# 1 0.009786 -0.001683 -0.003258 0.000000 0.000000 0.000000
# 2 -0.001683 0.038116 -0.007610 0.000000 0.000000 0.000000
# 3 -0.003258 -0.007610 0.010076 0.000000 0.000000 0.000000
# 4 0.000000 0.000000 0.000000 -0.301876 0.000000 0.000000
# 5 0.000000 0.000000 0.000000 0.000000 -0.002635 0.000000
# 6 0.000000 0.000000 0.000000 0.000000 0.000000 0.163505
#
#
# Mechanical properties :
#
#
# Convention : Reuss Voigt Hill
#
# Bulk Modulus (GPa) = 30.41776 54.06944 42.24360
# Shear Modulus (GPa) = -106.45728 -62.23864 -84.34796
#
# Velocity S-wave (km/s) = -7.30031 -5.58192 -6.49816
# Velocity P-wave (km/s) = 7.47205 3.80468 5.92905
#
# Compressibility (1/GPa) = 0.03287553
#
# Stress axis : x y z
#
# Youngs Moduli (GPa) = 102.18468 26.23581 99.24508
#
# Poissons Ratio (x) = 0.04416 0.32339
# Poissons Ratio (y) = 0.17200 0.75522
# Poissons Ratio (z) = 0.33297 0.19964
#
# Static dielectric constant tensor:
#      x y z
#    x 1.707570 0.000000 0.000000 
#    y 0.000000 1.727190 0.000000 
#    z 0.000000 0.000000 1.768080 
# 
# From -- ./inp_files/15619.got.cif
#   From: 2010.05.17/outbox.cif.g08.bks.cpg/sg68_8_cif.got.tgz:15619.got - 2010.06.03 18:57:09.
