data_PCOD9508940
_publ_section_title
;
Structure prediction by ZEFSAII (Michael W. Deem and Ramdas Pophale) SiO2 
 PCOD9508940
Probable space group: C C C A
;
_chemical_formula_sum "Si O2"
_cell_formula_units_Z 72
_cell_length_a 25.992424
_cell_length_b 12.940802
_cell_length_c 9.458830
_cell_angle_alpha 90.000000
_cell_angle_beta 90.000000
_cell_angle_gamma 90.000000
_cell_volume 3181.598662
_symmetry_space_group_name_H-M "C C C A"
_symmetry_group_IT_number 68
_space_group.IT_coordinate_system_code '2'
_symmetry_cell_setting 'orthorhombic'
loop_
_space_group_symop_operation_xyz
x,y,z
-x,1/2-y,z
x,1/2-y,1/2-z
-x,y,1/2-z
-x,-y,-z
x,1/2+y,-z
-x,1/2+y,1/2+z
x,-y,1/2+z
1/2+x,1/2+y,z
1/2-x,-y,z
1/2+x,-y,1/2-z
1/2-x,1/2+y,1/2-z
1/2-x,1/2-y,-z
1/2+x,y,-z
1/2-x,y,1/2+z
1/2+x,1/2-y,1/2+z
loop_
_atom_site_type_symbol
_atom_site_label
_atom_site_fract_x
_atom_site_fract_y
_atom_site_fract_z
Si Si1 0.424876 0.750000 0.750000
Si Si2 0.834601 0.980226 0.636670
Si Si3 0.000000 0.917261 0.750000
Si Si4 0.099116 0.034704 0.628267
Si Si5 0.261833 0.171998 0.377172
Si Si6 0.000000 0.750000 0.991791
O O1 0.397082 0.850867 0.693247
O O2 0.456884 0.782547 0.892476
O O3 0.883241 0.964956 0.533178
O O4 0.789430 0.897489 0.628902
O O5 0.856602 0.971730 0.793413
O O6 0.808168 0.090847 0.607626
O O7 0.984712 0.841918 0.617174
O O8 0.955282 0.987382 0.820890
O O9 0.271730 0.250000 0.250000
O O10 0.250000 0.250000 0.500000
#
# Coordination Sequence:
#
# PCOD9508940 Si02
#       6
#     8  16   8  16  16   8
#     4  11  24  38  68  94 134 182 240 286 354 403
#     4  11  26  44  70 108 137 183 239 283 359 426
#     4  11  24  45  66  96 148 185 232 295 350 408
#     4  12  25  44  68 102 142 184 233 292 343 427
#     4  11  24  47  74 101 142 182 227 297 359 423
#     4  10  22  44  64  94 128 194 240 286 348 414
#
# _framework density 22.630134000000002
#
# number of rings (size 3 to 8) (size 9 to 14) (size 15 to 20)
#    0.000    0.889    0.000    6.667    4.667    6.222 
#   16.000    0.000    0.000    0.000    0.000    0.000 
#    0.000    0.000    0.000    0.000    0.000    0.000 
#
# Total GULP energy -201002.065402 kJ/mol
# GULP energy per Si atom -5583.390706 kJ/mol
# Density = 2.257863 g / cm^3
# Si number density = 22.630134 Si / 1000 Ang^3
#
#
#
# Elastic Constant Matrix: (Units=GPa)
#
#
# Indices 1 2 3 4 5 6 
#
# 1 87.0646 43.7201 8.5723 0.0000 0.0000 0.0000
# 2 43.7201 131.2978 25.8184 0.0000 0.0000 0.0000
# 3 8.5723 25.8184 105.0336 0.0000 0.0000 0.0000
# 4 0.0000 0.0000 0.0000 38.9206 0.0000 0.0000
# 5 0.0000 0.0000 0.0000 0.0000 37.2200 0.0000
# 6 0.0000 0.0000 0.0000 0.0000 0.0000 14.5599
#
#
#
# Elastic Compliance Matrix: (Units=1/GPa)
#
#
# Indices 1 2 3 4 5 6 
#
# 1 0.013792 -0.004593 0.000003 0.000000 0.000000 0.000000
# 2 -0.004593 0.009533 -0.001968 0.000000 0.000000 0.000000
# 3 0.000003 -0.001968 0.010004 0.000000 0.000000 0.000000
# 4 0.000000 0.000000 0.000000 0.025693 0.000000 0.000000
# 5 0.000000 0.000000 0.000000 0.000000 0.026867 0.000000
# 6 0.000000 0.000000 0.000000 0.000000 0.000000 0.068682
#
#
# Mechanical properties :
#
#
# Convention : Reuss Voigt Hill
#
# Bulk Modulus (GPa) = 49.47374 53.29088 51.38231
# Shear Modulus (GPa) = 28.66558 34.49246 31.57902
#
# Velocity S-wave (km/s) = 3.56293 3.90831 3.73961
# Velocity P-wave (km/s) = 6.23180 6.63071 6.43435
#
# Compressibility (1/GPa) = 0.02021274
#
# Stress axis : x y z
#
# Youngs Moduli (GPa) = 72.50653 104.90117 99.95664
#
# Poissons Ratio (x) = 0.48183 -0.00034
# Poissons Ratio (y) = 0.33303 0.19675
# Poissons Ratio (z) = -0.00025 0.20649
#
# Static dielectric constant tensor:
#      x y z
#    x 1.859390 0.000000 0.000000 
#    y 0.000000 1.826390 0.000000 
#    z 0.000000 0.000000 1.750210 
# 
# From -- ./inp_files/8692.got.cif
#   From: 2010.05.17/outbox.cif.g08.bks.cpg/sg68_5_cif.got.tgz:8692.got - 2010.06.03 18:57:09.
