data_PCOD9508011
_publ_section_title
;
Structure prediction by ZEFSAII (Michael W. Deem and Ramdas Pophale) SiO2 
 PCOD9508011
Probable space group: C C C A
;
_chemical_formula_sum "Si O2"
_cell_formula_units_Z 88
_cell_length_a 19.300528
_cell_length_b 7.900727
_cell_length_c 25.042118
_cell_angle_alpha 90.000000
_cell_angle_beta 90.000000
_cell_angle_gamma 90.000000
_cell_volume 3818.627565
_symmetry_space_group_name_H-M "C C C A"
_symmetry_group_IT_number 68
_space_group.IT_coordinate_system_code '2'
_symmetry_cell_setting 'orthorhombic'
loop_
_space_group_symop_operation_xyz
x,y,z
-x,1/2-y,z
x,1/2-y,1/2-z
-x,y,1/2-z
-x,-y,-z
x,1/2+y,-z
-x,1/2+y,1/2+z
x,-y,1/2+z
1/2+x,1/2+y,z
1/2-x,-y,z
1/2+x,-y,1/2-z
1/2-x,1/2+y,1/2-z
1/2-x,1/2-y,-z
1/2+x,y,-z
1/2-x,y,1/2+z
1/2+x,1/2-y,1/2+z
loop_
_atom_site_type_symbol
_atom_site_label
_atom_site_fract_x
_atom_site_fract_y
_atom_site_fract_z
Si Si1 0.000000 0.750000 0.898048
Si Si2 0.053086 0.890091 0.421658
Si Si3 0.593722 0.781412 0.809261
Si Si4 0.745728 0.294869 0.335267
Si Si5 0.711032 0.174330 0.050531
Si Si6 0.396481 0.675293 0.307744
O O1 0.065520 0.757638 0.857938
O O2 0.984818 0.572419 0.928045
O O3 0.066943 0.835081 0.358606
O O4 0.128568 0.864190 0.449274
O O5 0.000000 0.750000 0.442418
O O6 0.567423 0.750000 0.750000
O O7 0.675531 0.751411 0.806611
O O8 0.584043 0.980582 0.816870
O O9 0.750000 0.500000 0.332758
O O10 0.731057 0.228375 0.395422
O O11 0.814978 0.212116 0.313057
O O12 0.750000 0.000000 0.058031
O O13 0.750000 0.250000 0.000000
O O14 0.418013 0.750000 0.250000
#
# Coordination Sequence:
#
# PCOD9508011 Si02
#       6
#     8  16  16  16  16  16
#     4  12  23  42  66  96 142 182 232 272 362 425
#     4  11  24  47  71 104 142 190 233 296 364 435
#     4  11  22  38  61  95 136 183 235 285 339 415
#     4  10  21  40  63  91 130 178 232 292 355 412
#     4  10  23  46  75 103 136 178 239 302 369 435
#     4  12  23  36  59  95 135 184 234 282 340 417
#
# _framework density 23.044930000000001
#
# number of rings (size 3 to 8) (size 9 to 14) (size 15 to 20)
#    0.000    1.091    1.818    6.818    0.000    3.273 
#    3.273    0.909    2.000    0.000    0.000    0.000 
#    0.000    0.000    0.000    0.000    0.000    0.000 
#
# Total GULP energy -245594.274313 kJ/mol
# GULP energy per Si atom -5581.688053 kJ/mol
# Density = 2.299248 g / cm^3
# Si number density = 23.044930 Si / 1000 Ang^3
#
#
#
# Elastic Constant Matrix: (Units=GPa)
#
#
# Indices 1 2 3 4 5 6 
#
# 1 186.3705 30.1637 35.6082 0.0000 0.0000 0.0000
# 2 30.1637 135.6273 21.9076 0.0000 0.0000 0.0000
# 3 35.6082 21.9076 99.4140 0.0000 0.0000 0.0000
# 4 0.0000 0.0000 0.0000 81.4016 0.0000 0.0000
# 5 0.0000 0.0000 0.0000 0.0000 31.0713 0.0000
# 6 0.0000 0.0000 0.0000 0.0000 0.0000 49.6676
#
#
#
# Elastic Compliance Matrix: (Units=1/GPa)
#
#
# Indices 1 2 3 4 5 6 
#
# 1 0.005889 -0.001005 -0.001888 0.000000 0.000000 0.000000
# 2 -0.001005 0.007817 -0.001363 0.000000 0.000000 0.000000
# 3 -0.001888 -0.001363 0.011035 0.000000 0.000000 0.000000
# 4 0.000000 0.000000 0.000000 0.012285 0.000000 0.000000
# 5 0.000000 0.000000 0.000000 0.000000 0.032184 0.000000
# 6 0.000000 0.000000 0.000000 0.000000 0.000000 0.020134
#
#
# Mechanical properties :
#
#
# Convention : Reuss Voigt Hill
#
# Bulk Modulus (GPa) = 61.61248 66.30786 63.96017
# Shear Modulus (GPa) = 48.41930 54.67693 51.54812
#
# Velocity S-wave (km/s) = 4.58873 4.87624 4.73467
# Velocity P-wave (km/s) = 7.40737 7.78071 7.59633
#
# Compressibility (1/GPa) = 0.01623048
#
# Stress axis : x y z
#
# Youngs Moduli (GPa) = 169.80873 127.93098 90.61712
#
# Poissons Ratio (x) = 0.12854 0.17108
# Poissons Ratio (y) = 0.17062 0.12348
# Poissons Ratio (z) = 0.32058 0.17433
#
# Static dielectric constant tensor:
#      x y z
#    x 1.841350 0.000000 0.000000 
#    y 0.000000 2.187970 0.000000 
#    z 0.000000 0.000000 2.029110 
# 
# From -- ./inp_files/46476.got.cif
#   From: 2010.05.17/outbox.cif.g08.bks.cpg/sg68_24_cif.got.tgz:46476.got - 2010.06.03 18:57:09.
