data_PCOD9508735
_publ_section_title
;
Structure prediction by ZEFSAII (Michael W. Deem and Ramdas Pophale) SiO2 
 PCOD9508735
Probable space group: C C C A
;
_chemical_formula_sum "Si O2"
_cell_formula_units_Z 104
_cell_length_a 26.125151
_cell_length_b 18.696456
_cell_length_c 9.569803
_cell_angle_alpha 90.000000
_cell_angle_beta 90.000000
_cell_angle_gamma 90.000000
_cell_volume 4674.348611
_symmetry_space_group_name_H-M "C C C A"
_symmetry_group_IT_number 68
_space_group.IT_coordinate_system_code '2'
_symmetry_cell_setting 'orthorhombic'
loop_
_space_group_symop_operation_xyz
x,y,z
-x,1/2-y,z
x,1/2-y,1/2-z
-x,y,1/2-z
-x,-y,-z
x,1/2+y,-z
-x,1/2+y,1/2+z
x,-y,1/2+z
1/2+x,1/2+y,z
1/2-x,-y,z
1/2+x,-y,1/2-z
1/2-x,1/2+y,1/2-z
1/2-x,1/2-y,-z
1/2+x,y,-z
1/2-x,y,1/2+z
1/2+x,1/2-y,1/2+z
loop_
_atom_site_type_symbol
_atom_site_label
_atom_site_fract_x
_atom_site_fract_y
_atom_site_fract_z
Si Si1 0.370284 0.491005 0.757747
Si Si2 0.307612 0.379477 0.169824
Si Si3 0.000000 0.924663 0.250000
Si Si4 0.939638 0.267105 0.409596
Si Si5 0.429495 0.566069 0.001489
Si Si6 0.724214 0.420509 0.617706
Si Si7 0.912956 0.184456 0.663887
O O1 0.335016 0.542795 0.665812
O O2 0.416908 0.466041 0.656477
O O3 0.331199 0.430598 0.809832
O O4 0.385874 0.535289 0.897048
O O5 0.263620 0.381637 0.281930
O O6 0.355147 0.330107 0.207556
O O7 0.283129 0.373555 0.019129
O O8 0.977495 0.953681 0.398683
O O9 0.951120 0.879584 0.195723
O O10 0.925975 0.250000 0.250000
O O11 0.930510 0.348121 0.466895
O O12 0.912067 0.208942 0.505195
O O13 0.000000 0.250000 0.424265
O O14 0.750000 0.500000 0.090397
O O15 0.935231 0.250000 0.750000
#
# Coordination Sequence:
#
# PCOD9508735 Si02
#       7
#    16  16   8  16  16  16  16
#     4  11  23  42  70 105 138 182 234 303 361 423
#     4  11  23  40  69 100 132 183 234 295 365 432
#     4  12  23  42  72 100 142 188 237 296 346 434
#     4  11  24  43  71 102 140 194 245 290 347 427
#     4  12  25  44  71 106 146 188 241 293 364 423
#     4  10  22  41  67  99 136 177 236 289 368 439
#     4  12  22  44  72  98 134 191 245 287 356 429
#
# _framework density 22.249088
#
# number of rings (size 3 to 8) (size 9 to 14) (size 15 to 20)
#    0.000    0.769    6.154    1.615    4.308    0.615 
#    0.000    2.308    0.000    0.000    0.000    0.000 
#    0.000    0.000    0.000    0.000    0.000    0.000 
#
# Total GULP energy -290013.900193 kJ/mol
# GULP energy per Si atom -5577.190388 kJ/mol
# Density = 2.219845 g / cm^3
# Si number density = 22.249088 Si / 1000 Ang^3
#
#
#
# Elastic Constant Matrix: (Units=GPa)
#
#
# Indices 1 2 3 4 5 6 
#
# 1 106.2458 27.9738 48.5669 0.0000 0.0000 0.0000
# 2 27.9738 52.3834 45.2625 0.0000 0.0000 0.0000
# 3 48.5669 45.2625 123.7416 0.0000 0.0000 0.0000
# 4 0.0000 0.0000 0.0000 34.8570 0.0000 0.0000
# 5 0.0000 0.0000 0.0000 0.0000 46.9892 0.0000
# 6 0.0000 0.0000 0.0000 0.0000 0.0000 15.2922
#
#
#
# Elastic Compliance Matrix: (Units=1/GPa)
#
#
# Indices 1 2 3 4 5 6 
#
# 1 0.011866 -0.003381 -0.003420 0.000000 0.000000 0.000000
# 2 -0.003381 0.028875 -0.009235 0.000000 0.000000 0.000000
# 3 -0.003420 -0.009235 0.012802 0.000000 0.000000 0.000000
# 4 0.000000 0.000000 0.000000 0.028689 0.000000 0.000000
# 5 0.000000 0.000000 0.000000 0.000000 0.021281 0.000000
# 6 0.000000 0.000000 0.000000 0.000000 0.000000 0.065393
#
#
# Mechanical properties :
#
#
# Convention : Reuss Voigt Hill
#
# Bulk Modulus (GPa) = 46.57711 58.44193 52.50952
# Shear Modulus (GPa) = 24.02278 30.13219 27.07749
#
# Velocity S-wave (km/s) = 3.28947 3.68409 3.49236
# Velocity P-wave (km/s) = 5.95041 6.66489 6.31776
#
# Compressibility (1/GPa) = 0.02146978
#
# Stress axis : x y z
#
# Youngs Moduli (GPa) = 84.27493 34.63175 78.11384
#
# Poissons Ratio (x) = 0.11710 0.26718
# Poissons Ratio (y) = 0.28495 0.72138
# Poissons Ratio (z) = 0.28826 0.31982
#
# Static dielectric constant tensor:
#      x y z
#    x 1.847890 0.000000 0.000000 
#    y 0.000000 1.854230 0.000000 
#    z 0.000000 0.000000 1.866740 
# 
# From -- ./inp_files/9029.got.cif
#   From: 2010.05.17/outbox.cif.g08.bks.cpg/sg68_5_cif.got.tgz:9029.got - 2010.06.03 18:57:09.
