data_PCOD9508672
_publ_section_title
;
Structure prediction by ZEFSAII (Michael W. Deem and Ramdas Pophale) SiO2 
 PCOD9508672
Probable space group: C C C A
;
_chemical_formula_sum "Si O2"
_cell_formula_units_Z 104
_cell_length_a 17.678827
_cell_length_b 15.185314
_cell_length_c 21.224102
_cell_angle_alpha 90.000000
_cell_angle_beta 90.000000
_cell_angle_gamma 90.000000
_cell_volume 5697.791418
_symmetry_space_group_name_H-M "C C C A"
_symmetry_group_IT_number 68
_space_group.IT_coordinate_system_code '2'
_symmetry_cell_setting 'orthorhombic'
loop_
_space_group_symop_operation_xyz
x,y,z
-x,1/2-y,z
x,1/2-y,1/2-z
-x,y,1/2-z
-x,-y,-z
x,1/2+y,-z
-x,1/2+y,1/2+z
x,-y,1/2+z
1/2+x,1/2+y,z
1/2-x,-y,z
1/2+x,-y,1/2-z
1/2-x,1/2+y,1/2-z
1/2-x,1/2-y,-z
1/2+x,y,-z
1/2-x,y,1/2+z
1/2+x,1/2-y,1/2+z
loop_
_atom_site_type_symbol
_atom_site_label
_atom_site_fract_x
_atom_site_fract_y
_atom_site_fract_z
Si Si1 0.066430 0.683255 0.356539
Si Si2 0.566277 0.524937 0.452190
Si Si3 0.810910 0.631007 0.463120
Si Si4 0.678173 0.250000 0.250000
Si Si5 0.348695 0.331784 0.481346
Si Si6 0.796103 0.589640 0.318586
Si Si7 0.466652 0.024320 0.311760
O O1 0.123214 0.730744 0.308835
O O2 0.114774 0.645748 0.414129
O O3 0.000000 0.750000 0.378657
O O4 0.023325 0.605774 0.321305
O O5 0.500000 0.500000 0.500000
O O6 0.631797 0.451396 0.465516
O O7 0.599127 0.620641 0.467674
O O8 0.539094 0.521417 0.379979
O O9 0.735174 0.630083 0.505344
O O10 0.847187 0.725402 0.480786
O O11 0.788515 0.629329 0.389031
O O12 0.725676 0.335462 0.268806
O O13 0.750000 0.500000 0.315775
O O14 0.882542 0.563093 0.303361
O O15 0.500000 0.976054 0.250000
#
# Coordination Sequence:
#
# PCOD9508672 Si02
#       7
#    16  16  16   8  16  16  16
#     4  12  19  35  63  99 125 151 211 274 329 372
#     4  11  22  36  59  95 126 158 211 268 317 380
#     4  10  22  41  60  88 122 169 204 263 319 373
#     4  12  21  36  62  98 125 162 204 276 317 384
#     4  11  22  37  63  89 125 163 206 261 326 377
#     4  11  22  38  63  92 126 164 205 260 328 389
#     4  11  20  36  62  92 125 162 206 265 325 378
#
# _framework density 18.252686000000001
#
# number of rings (size 3 to 8) (size 9 to 14) (size 15 to 20)
#    0.000    0.923    6.154    3.462    0.000    0.000 
#    0.000    3.077    0.000    0.000    0.000    0.000 
#    0.000    0.000    0.000    0.000    0.000    0.000 
#
# Total GULP energy -290030.859711 kJ/mol
# GULP energy per Si atom -5577.516533 kJ/mol
# Density = 1.821114 g / cm^3
# Si number density = 18.252686 Si / 1000 Ang^3
#
#
#
# Elastic Constant Matrix: (Units=GPa)
#
#
# Indices 1 2 3 4 5 6 
#
# 1 61.5102 34.9874 50.8133 0.0000 0.0000 0.0000
# 2 34.9874 103.7444 48.2912 0.0000 0.0000 0.0000
# 3 50.8133 48.2912 120.2368 0.0000 0.0000 0.0000
# 4 0.0000 0.0000 0.0000 33.8808 0.0000 0.0000
# 5 0.0000 0.0000 0.0000 0.0000 28.7279 0.0000
# 6 0.0000 0.0000 0.0000 0.0000 0.0000 27.0280
#
#
#
# Elastic Compliance Matrix: (Units=1/GPa)
#
#
# Indices 1 2 3 4 5 6 
#
# 1 0.026655 -0.004607 -0.009414 0.000000 0.000000 0.000000
# 2 -0.004607 0.012652 -0.003134 0.000000 0.000000 0.000000
# 3 -0.009414 -0.003134 0.013554 0.000000 0.000000 0.000000
# 4 0.000000 0.000000 0.000000 0.029515 0.000000 0.000000
# 5 0.000000 0.000000 0.000000 0.000000 0.034809 0.000000
# 6 0.000000 0.000000 0.000000 0.000000 0.000000 0.036999
#
#
# Mechanical properties :
#
#
# Convention : Reuss Voigt Hill
#
# Bulk Modulus (GPa) = 53.90940 61.51947 57.71443
# Shear Modulus (GPa) = 25.68321 28.02064 26.85193
#
# Velocity S-wave (km/s) = 3.75519 3.92235 3.83968
# Velocity P-wave (km/s) = 6.95709 7.36822 7.16560
#
# Compressibility (1/GPa) = 0.01854964
#
# Stress axis : x y z
#
# Youngs Moduli (GPa) = 37.51612 79.04014 73.77669
#
# Poissons Ratio (x) = 0.36415 0.69456
# Poissons Ratio (y) = 0.17284 0.23124
# Poissons Ratio (z) = 0.35319 0.24774
#
# Static dielectric constant tensor:
#      x y z
#    x 1.626000 0.000000 0.000000 
#    y 0.000000 1.649140 0.000000 
#    z 0.000000 0.000000 1.646730 
# 
# From -- ./inp_files/38816.got.cif
#   From: 2010.05.17/outbox.cif.g08.bks.cpg/sg68_20_cif.got.tgz:38816.got - 2010.06.03 18:57:09.
