data_PCOD9508237
_publ_section_title
;
Structure prediction by ZEFSAII (Michael W. Deem and Ramdas Pophale) SiO2 
 PCOD9508237
Probable space group: C C C A
;
_chemical_formula_sum "Si O2"
_cell_formula_units_Z 88
_cell_length_a 19.544727
_cell_length_b 8.839636
_cell_length_c 25.036596
_cell_angle_alpha 90.000000
_cell_angle_beta 90.000000
_cell_angle_gamma 90.000000
_cell_volume 4325.529438
_symmetry_space_group_name_H-M "C C C A"
_symmetry_group_IT_number 68
_space_group.IT_coordinate_system_code '2'
_symmetry_cell_setting 'orthorhombic'
loop_
_space_group_symop_operation_xyz
x,y,z
-x,1/2-y,z
x,1/2-y,1/2-z
-x,y,1/2-z
-x,-y,-z
x,1/2+y,-z
-x,1/2+y,1/2+z
x,-y,1/2+z
1/2+x,1/2+y,z
1/2-x,-y,z
1/2+x,-y,1/2-z
1/2-x,1/2+y,1/2-z
1/2-x,1/2-y,-z
1/2+x,y,-z
1/2-x,y,1/2+z
1/2+x,1/2-y,1/2+z
loop_
_atom_site_type_symbol
_atom_site_label
_atom_site_fract_x
_atom_site_fract_y
_atom_site_fract_z
Si Si1 0.146742 0.638349 0.423722
Si Si2 0.250000 0.000000 0.657702
Si Si3 0.065282 0.655995 0.602089
Si Si4 0.119163 0.645926 0.800459
Si Si5 0.525339 0.909052 0.841784
Si Si6 0.669264 0.528772 0.970334
O O1 0.206576 0.610928 0.380570
O O2 0.076213 0.624897 0.391602
O O3 0.154028 0.506558 0.467737
O O4 0.153573 0.800148 0.452411
O O5 0.303790 0.089854 0.693382
O O6 0.100021 0.766979 0.644944
O O7 0.120386 0.587007 0.561803
O O8 0.000000 0.750000 0.578572
O O9 0.033935 0.515972 0.635365
O O10 0.108362 0.750000 0.750000
O O11 0.068931 0.503098 0.799326
O O12 0.500000 0.750000 0.821014
O O13 0.750000 0.500000 0.961023
#
# Coordination Sequence:
#
# PCOD9508237 Si02
#       6
#    16   8  16  16  16  16
#     4  11  24  38  66  95 135 180 226 272 332 402
#     4  10  22  46  66  94 140 166 222 284 338 402
#     4  10  23  41  66  94 137 179 226 279 335 397
#     4  10  23  45  71  97 127 174 224 280 344 406
#     4  10  21  43  65  95 135 172 222 279 334 390
#     4  12  24  38  63  98 135 183 231 269 334 401
#
# _framework density 20.344328999999998
#
# number of rings (size 3 to 8) (size 9 to 14) (size 15 to 20)
#    0.000    1.455    2.727    1.636    7.636    4.727 
#    4.909    1.818    0.000    0.000    0.000    0.000 
#    0.000    0.000    0.000    0.000    0.000    0.000 
#
# Total GULP energy -246065.227225 kJ/mol
# GULP energy per Si atom -5592.391528 kJ/mol
# Density = 2.029802 g / cm^3
# Si number density = 20.344329 Si / 1000 Ang^3
#
#
#
# Elastic Constant Matrix: (Units=GPa)
#
#
# Indices 1 2 3 4 5 6 
#
# 1 104.9278 34.3963 24.3525 0.0000 0.0000 0.0000
# 2 34.3963 127.0111 27.9141 0.0000 0.0000 0.0000
# 3 24.3525 27.9141 55.1258 0.0000 0.0000 0.0000
# 4 0.0000 0.0000 0.0000 33.0996 0.0000 0.0000
# 5 0.0000 0.0000 0.0000 0.0000 7.1900 0.0000
# 6 0.0000 0.0000 0.0000 0.0000 0.0000 26.6763
#
#
#
# Elastic Compliance Matrix: (Units=1/GPa)
#
#
# Indices 1 2 3 4 5 6 
#
# 1 0.011129 -0.002175 -0.003815 0.000000 0.000000 0.000000
# 2 -0.002175 0.009285 -0.003740 0.000000 0.000000 0.000000
# 3 -0.003815 -0.003740 0.021720 0.000000 0.000000 0.000000
# 4 0.000000 0.000000 0.000000 0.030212 0.000000 0.000000
# 5 0.000000 0.000000 0.000000 0.000000 0.139082 0.000000
# 6 0.000000 0.000000 0.000000 0.000000 0.000000 0.037486
#
#
# Mechanical properties :
#
#
# Convention : Reuss Voigt Hill
#
# Bulk Modulus (GPa) = 44.10763 51.15450 47.63106
# Shear Modulus (GPa) = 18.12043 26.75331 22.43687
#
# Velocity S-wave (km/s) = 2.98768 3.63026 3.32453
# Velocity P-wave (km/s) = 5.79907 6.53993 6.18061
#
# Compressibility (1/GPa) = 0.02267182
#
# Stress axis : x y z
#
# Youngs Moduli (GPa) = 89.85660 107.70615 46.04152
#
# Poissons Ratio (x) = 0.23431 0.17563
# Poissons Ratio (y) = 0.19548 0.17221
# Poissons Ratio (z) = 0.34278 0.40286
#
# Static dielectric constant tensor:
#      x y z
#    x 1.718420 0.000000 0.000000 
#    y 0.000000 1.726890 0.000000 
#    z 0.000000 0.000000 1.698060 
# 
# From -- ./inp_files/43130.got.cif
#   From: 2010.05.17/outbox.cif.g08.bks.cpg/sg68_22_cif.got.tgz:43130.got - 2010.06.03 18:57:09.
