data_PCOD9508511
_publ_section_title
;
Structure prediction by ZEFSAII (Michael W. Deem and Ramdas Pophale) SiO2 
 PCOD9508511
Probable space group: C C C A
;
_chemical_formula_sum "Si O2"
_cell_formula_units_Z 88
_cell_length_a 31.476688
_cell_length_b 5.337194
_cell_length_c 20.475419
_cell_angle_alpha 90.000000
_cell_angle_beta 90.000000
_cell_angle_gamma 90.000000
_cell_volume 3439.812863
_symmetry_space_group_name_H-M "C C C A"
_symmetry_group_IT_number 68
_space_group.IT_coordinate_system_code '2'
_symmetry_cell_setting 'orthorhombic'
loop_
_space_group_symop_operation_xyz
x,y,z
-x,1/2-y,z
x,1/2-y,1/2-z
-x,y,1/2-z
-x,-y,-z
x,1/2+y,-z
-x,1/2+y,1/2+z
x,-y,1/2+z
1/2+x,1/2+y,z
1/2-x,-y,z
1/2+x,-y,1/2-z
1/2-x,1/2+y,1/2-z
1/2-x,1/2-y,-z
1/2+x,y,-z
1/2-x,y,1/2+z
1/2+x,1/2-y,1/2+z
loop_
_atom_site_type_symbol
_atom_site_label
_atom_site_fract_x
_atom_site_fract_y
_atom_site_fract_z
Si Si1 0.840356 0.743630 0.532609
Si Si2 0.057502 0.624177 0.816583
Si Si3 0.081690 0.508309 0.070198
Si Si4 0.859896 0.395886 0.648263
Si Si5 0.500000 0.250000 0.097756
Si Si6 0.731923 0.249050 0.174688
O O1 0.822378 0.513528 0.489163
O O2 0.891184 0.815999 0.525795
O O3 0.841567 0.629629 0.605437
O O4 0.043574 0.750000 0.750000
O O5 0.067447 0.838832 0.868468
O O6 0.103149 0.489968 0.804239
O O7 0.024999 0.438947 0.853305
O O8 0.114960 0.707286 0.100770
O O9 0.036933 0.632982 0.052663
O O10 0.818739 0.259738 0.675524
O O11 0.747963 0.250000 0.250000
O O12 0.750000 0.500000 0.142987
O O13 0.750000 0.000000 0.142786
#
# Coordination Sequence:
#
# PCOD9508511 Si02
#       6
#    16  16  16  16   8  16
#     4  11  22  42  68  95 126 168 226 280 340 389
#     4  10  23  37  62  92 130 180 222 268 324 394
#     4  10  22  39  63  94 122 174 216 279 325 399
#     4  10  23  40  68  97 132 171 226 268 326 397
#     4  10  22  41  56  88 136 166 224 270 337 388
#     4  10  24  41  66 102 140 177 209 258 322 394
#
# _framework density 25.582789999999999
#
# number of rings (size 3 to 8) (size 9 to 14) (size 15 to 20)
#    0.000    1.818    1.818    0.545    7.636    5.091 
#    0.000    0.909    0.000    3.273    0.000    0.000 
#    0.000    0.000    0.000    0.000    0.000    0.000 
#
# Total GULP energy -245790.897395 kJ/mol
# GULP energy per Si atom -5586.156759 kJ/mol
# Density = 2.552456 g / cm^3
# Si number density = 25.582790 Si / 1000 Ang^3
#
#
#
# Elastic Constant Matrix: (Units=GPa)
#
#
# Indices 1 2 3 4 5 6 
#
# 1 128.8285 41.8694 -5.0223 0.0000 0.0000 0.0000
# 2 41.8694 160.5770 19.4080 0.0000 0.0000 0.0000
# 3 -5.0223 19.4080 43.0881 0.0000 0.0000 0.0000
# 4 0.0000 0.0000 0.0000 26.5951 0.0000 0.0000
# 5 0.0000 0.0000 0.0000 0.0000 6.8842 0.0000
# 6 0.0000 0.0000 0.0000 0.0000 0.0000 -12.3332
#
#
#
# Elastic Compliance Matrix: (Units=1/GPa)
#
#
# Indices 1 2 3 4 5 6 
#
# 1 0.008664 -0.002518 0.002144 0.000000 0.000000 0.000000
# 2 -0.002518 0.007318 -0.003590 0.000000 0.000000 0.000000
# 3 0.002144 -0.003590 0.025075 0.000000 0.000000 0.000000
# 4 0.000000 0.000000 0.000000 0.037601 0.000000 0.000000
# 5 0.000000 0.000000 0.000000 0.000000 0.145260 0.000000
# 6 0.000000 0.000000 0.000000 0.000000 0.000000 -0.081082
#
#
# Mechanical properties :
#
#
# Convention : Reuss Voigt Hill
#
# Bulk Modulus (GPa) = 30.18439 49.44486 39.81462
# Shear Modulus (GPa) = 30.90092 22.64513 26.77303
#
# Velocity S-wave (km/s) = 3.47923 2.97841 3.23851
# Velocity P-wave (km/s) = 5.28813 5.58545 5.43882
#
# Compressibility (1/GPa) = 0.03312971
#
# Stress axis : x y z
#
# Youngs Moduli (GPa) = 115.41611 136.64842 39.88021
#
# Poissons Ratio (x) = 0.34412 -0.08551
# Poissons Ratio (y) = 0.29065 0.14316
# Poissons Ratio (z) = -0.24748 0.49054
#
# Static dielectric constant tensor:
#      x y z
#    x 2.032870 0.000000 0.000000 
#    y 0.000000 2.154870 0.000000 
#    z 0.000000 0.000000 2.023110 
# 
# From -- ./inp_files/47465.got.cif
#   From: 2010.05.17/outbox.cif.g08.bks.cpg/sg68_24_cif.got.tgz:47465.got - 2010.06.03 18:57:09.
