data_PCOD9508073
_publ_section_title
;
Structure prediction by ZEFSAII (Michael W. Deem and Ramdas Pophale) SiO2 
 PCOD9508073
Probable space group: C C C A
;
_chemical_formula_sum "Si O2"
_cell_formula_units_Z 112
_cell_length_a 15.116657
_cell_length_b 30.938546
_cell_length_c 10.816276
_cell_angle_alpha 90.000000
_cell_angle_beta 90.000000
_cell_angle_gamma 90.000000
_cell_volume 5058.635870
_symmetry_space_group_name_H-M "C C C A"
_symmetry_group_IT_number 68
_space_group.IT_coordinate_system_code '2'
_symmetry_cell_setting 'orthorhombic'
loop_
_space_group_symop_operation_xyz
x,y,z
-x,1/2-y,z
x,1/2-y,1/2-z
-x,y,1/2-z
-x,-y,-z
x,1/2+y,-z
-x,1/2+y,1/2+z
x,-y,1/2+z
1/2+x,1/2+y,z
1/2-x,-y,z
1/2+x,-y,1/2-z
1/2-x,1/2+y,1/2-z
1/2-x,1/2-y,-z
1/2+x,y,-z
1/2-x,y,1/2+z
1/2+x,1/2-y,1/2+z
loop_
_atom_site_type_symbol
_atom_site_label
_atom_site_fract_x
_atom_site_fract_y
_atom_site_fract_z
Si Si1 0.605803 0.921629 0.456396
Si Si2 0.551461 0.072054 0.355103
Si Si3 0.595804 0.240074 0.604077
Si Si4 0.693182 0.428601 0.951835
Si Si5 0.699392 0.657286 0.336131
Si Si6 0.172612 0.329493 0.441359
Si Si7 0.352253 0.010716 0.750414
O O1 0.522238 0.934548 0.539586
O O2 0.702066 0.930397 0.521171
O O3 0.602503 0.869489 0.431575
O O4 0.609227 0.951806 0.336620
O O5 0.500000 0.099533 0.250000
O O6 0.639660 0.086538 0.427205
O O7 0.589444 0.030977 0.279465
O O8 0.500000 0.250000 0.550743
O O9 0.592680 0.250000 0.750000
O O10 0.629259 0.191175 0.605764
O O11 0.652417 0.278719 0.548565
O O12 0.673149 0.392273 0.849934
O O13 0.655182 0.472425 0.891700
O O14 0.779130 0.660778 0.431421
O O15 0.719240 0.667162 0.193381
O O16 0.250000 0.000000 0.714466
#
# Coordination Sequence:
#
# PCOD9508073 Si02
#       7
#    16  16  16  16  16  16  16
#     4  11  25  44  66 101 133 178 230 278 347 404
#     4  12  29  44  68  96 133 178 229 286 346 409
#     4   9  19  36  63  99 135 173 220 276 334 406
#     4  11  26  45  68  98 133 179 224 291 342 414
#     4  10  21  41  70  98 133 174 224 276 345 410
#     4  10  21  40  68 100 134 174 224 276 340 415
#     4  12  25  44  67  93 136 176 228 282 343 398
#
# _framework density 22.140357000000002
#
# number of rings (size 3 to 8) (size 9 to 14) (size 15 to 20)
#    0.000    1.286    2.857    1.714    8.000    1.143 
#    0.000    0.000    0.000    0.857    0.000    0.000 
#    0.000    0.000    0.000    0.000    0.000    0.000 
#
# Total GULP energy -312077.356029 kJ/mol
# GULP energy per Si atom -5572.809929 kJ/mol
# Density = 2.208996 g / cm^3
# Si number density = 22.140357 Si / 1000 Ang^3
#
#
#
# Elastic Constant Matrix: (Units=GPa)
#
#
# Indices 1 2 3 4 5 6 
#
# 1 72.0200 -1.1843 7.5984 0.0000 0.0000 0.0000
# 2 -1.1843 32.5922 1.1856 0.0000 0.0000 0.0000
# 3 7.5984 1.1856 59.7129 0.0000 0.0000 0.0000
# 4 0.0000 0.0000 0.0000 30.3318 0.0000 0.0000
# 5 0.0000 0.0000 0.0000 0.0000 -84.4751 0.0000
# 6 0.0000 0.0000 0.0000 0.0000 0.0000 8.9726
#
#
#
# Elastic Compliance Matrix: (Units=1/GPa)
#
#
# Indices 1 2 3 4 5 6 
#
# 1 0.014085 0.000577 -0.001804 0.000000 0.000000 0.000000
# 2 0.000577 0.030728 -0.000684 0.000000 0.000000 0.000000
# 3 -0.001804 -0.000684 0.016990 0.000000 0.000000 0.000000
# 4 0.000000 0.000000 0.000000 0.032969 0.000000 0.000000
# 5 0.000000 0.000000 0.000000 0.000000 -0.011838 0.000000
# 6 0.000000 0.000000 0.000000 0.000000 0.000000 0.111450
#
#
# Mechanical properties :
#
#
# Convention : Reuss Voigt Hill
#
# Bulk Modulus (GPa) = 17.24645 19.94717 18.59681
# Shear Modulus (GPa) = 22.98523 1.41423 12.19973
#
# Velocity S-wave (km/s) = 3.22554 0.80009 2.34992
# Velocity P-wave (km/s) = 4.65604 3.14364 3.97248
#
# Compressibility (1/GPa) = 0.05798295
#
# Stress axis : x y z
#
# Youngs Moduli (GPa) = 70.99843 32.54354 58.85855
#
# Poissons Ratio (x) = -0.01879 0.10617
# Poissons Ratio (y) = -0.04100 0.04024
# Poissons Ratio (z) = 0.12806 0.02225
#
# Static dielectric constant tensor:
#      x y z
#    x 1.932770 0.000000 0.000000 
#    y 0.000000 1.912130 0.000000 
#    z 0.000000 0.000000 1.835820 
# 
# From -- ./inp_files/13575.got.cif
#   From: 2010.05.17/outbox.cif.g08.bks.cpg/sg68_7_cif.got.tgz:13575.got - 2010.06.03 18:57:09.
