data_PCOD9508916
_publ_section_title
;
Structure prediction by ZEFSAII (Michael W. Deem and Ramdas Pophale) SiO2 
 PCOD9508916
Probable space group: C C C A
;
_chemical_formula_sum "Si O2"
_cell_formula_units_Z 112
_cell_length_a 18.889692
_cell_length_b 12.769063
_cell_length_c 25.250275
_cell_angle_alpha 90.000000
_cell_angle_beta 90.000000
_cell_angle_gamma 90.000000
_cell_volume 6090.458928
_symmetry_space_group_name_H-M "C C C A"
_symmetry_group_IT_number 68
_space_group.IT_coordinate_system_code '2'
_symmetry_cell_setting 'orthorhombic'
loop_
_space_group_symop_operation_xyz
x,y,z
-x,1/2-y,z
x,1/2-y,1/2-z
-x,y,1/2-z
-x,-y,-z
x,1/2+y,-z
-x,1/2+y,1/2+z
x,-y,1/2+z
1/2+x,1/2+y,z
1/2-x,-y,z
1/2+x,-y,1/2-z
1/2-x,1/2+y,1/2-z
1/2-x,1/2-y,-z
1/2+x,y,-z
1/2-x,y,1/2+z
1/2+x,1/2-y,1/2+z
loop_
_atom_site_type_symbol
_atom_site_label
_atom_site_fract_x
_atom_site_fract_y
_atom_site_fract_z
Si Si1 0.434203 0.828222 0.064380
Si Si2 0.197162 0.690804 0.112679
Si Si3 0.434922 0.543430 0.889751
Si Si4 0.919625 0.569197 0.449790
Si Si5 0.580843 0.276891 0.188064
Si Si6 0.328257 0.139085 0.937550
Si Si7 0.794744 0.397224 0.554349
O O1 0.500000 0.750000 0.068687
O O2 0.368176 0.749663 0.064826
O O3 0.432188 0.917329 0.109539
O O4 0.438084 0.893672 0.009182
O O5 0.141802 0.645989 0.070125
O O6 0.145596 0.711411 0.162190
O O7 0.270051 0.625241 0.109071
O O8 0.223781 0.802958 0.092530
O O9 0.511263 0.575215 0.912972
O O10 0.414728 0.604597 0.835710
O O11 0.376558 0.580530 0.932322
O O12 0.885766 0.454056 0.441975
O O13 0.500000 0.250000 0.171410
O O14 0.584049 0.250000 0.250000
O O15 0.286746 0.131740 0.993160
O O16 0.750000 0.500000 0.565487
#
# Coordination Sequence:
#
# PCOD9508916 Si02
#       7
#    16  16  16  16  16  16  16
#     4  12  23  35  55  88 135 182 213 245 302 376
#     4  11  23  35  60  86 122 161 209 263 316 375
#     4  11  22  37  59  91 125 162 214 266 310 374
#     4  12  22  36  53  88 131 175 213 248 293 377
#     4  10  22  43  70  94 111 147 208 283 338 367
#     4  12  23  36  52  82 132 178 211 238 295 381
#     4  11  21  35  54  83 126 177 219 248 298 366
#
# _framework density 18.389419
#
# number of rings (size 3 to 8) (size 9 to 14) (size 15 to 20)
#    0.000    0.714    5.714    3.857    2.000    0.000 
#    0.000    0.000    0.000   10.286    0.000    6.000 
#    0.000    0.000    0.000    0.000    0.000    0.000 
#
# Total GULP energy -312240.106173 kJ/mol
# GULP energy per Si atom -5575.716182 kJ/mol
# Density = 1.834756 g / cm^3
# Si number density = 18.389419 Si / 1000 Ang^3
#
#
#
# Elastic Constant Matrix: (Units=GPa)
#
#
# Indices 1 2 3 4 5 6 
#
# 1 111.6248 30.1626 31.7722 0.0000 0.0000 0.0000
# 2 30.1626 109.9576 45.4216 0.0000 0.0000 0.0000
# 3 31.7722 45.4216 77.2484 0.0000 0.0000 0.0000
# 4 0.0000 0.0000 0.0000 17.0111 0.0000 0.0000
# 5 0.0000 0.0000 0.0000 0.0000 17.3031 0.0000
# 6 0.0000 0.0000 0.0000 0.0000 0.0000 41.1334
#
#
#
# Elastic Compliance Matrix: (Units=1/GPa)
#
#
# Indices 1 2 3 4 5 6 
#
# 1 0.010312 -0.001422 -0.003405 0.000000 0.000000 0.000000
# 2 -0.001422 0.012208 -0.006593 0.000000 0.000000 0.000000
# 3 -0.003405 -0.006593 0.018223 0.000000 0.000000 0.000000
# 4 0.000000 0.000000 0.000000 0.058785 0.000000 0.000000
# 5 0.000000 0.000000 0.000000 0.000000 0.057793 0.000000
# 6 0.000000 0.000000 0.000000 0.000000 0.000000 0.024311
#
#
# Mechanical properties :
#
#
# Convention : Reuss Voigt Hill
#
# Bulk Modulus (GPa) = 55.86106 57.06039 56.46072
# Shear Modulus (GPa) = 23.75968 27.85450 25.80709
#
# Velocity S-wave (km/s) = 3.59838 3.89614 3.75022
# Velocity P-wave (km/s) = 6.90704 7.16493 7.03716
#
# Compressibility (1/GPa) = 0.01790156
#
# Stress axis : x y z
#
# Youngs Moduli (GPa) = 96.97368 81.91264 54.87675
#
# Poissons Ratio (x) = 0.11649 0.18686
# Poissons Ratio (y) = 0.13791 0.36182
# Poissons Ratio (z) = 0.33021 0.54008
#
# Static dielectric constant tensor:
#      x y z
#    x 1.710830 0.000000 0.000000 
#    y 0.000000 1.787730 0.000000 
#    z 0.000000 0.000000 1.604480 
# 
# From -- ./inp_files/46668.got.cif
#   From: 2010.05.17/outbox.cif.g08.bks.cpg/sg68_24_cif.got.tgz:46668.got - 2010.06.03 18:57:09.
