data_PCOD9508075
_publ_section_title
;
Structure prediction by ZEFSAII (Michael W. Deem and Ramdas Pophale) SiO2 
 PCOD9508075
Probable space group: C C C A
;
_chemical_formula_sum "Si O2"
_cell_formula_units_Z 116
_cell_length_a 19.284606
_cell_length_b 16.749094
_cell_length_c 17.163707
_cell_angle_alpha 90.000000
_cell_angle_beta 90.000000
_cell_angle_gamma 90.000000
_cell_volume 5543.871845
_symmetry_space_group_name_H-M "C C C A"
_symmetry_group_IT_number 68
_space_group.IT_coordinate_system_code '2'
_symmetry_cell_setting 'orthorhombic'
loop_
_space_group_symop_operation_xyz
x,y,z
-x,1/2-y,z
x,1/2-y,1/2-z
-x,y,1/2-z
-x,-y,-z
x,1/2+y,-z
-x,1/2+y,1/2+z
x,-y,1/2+z
1/2+x,1/2+y,z
1/2-x,-y,z
1/2+x,-y,1/2-z
1/2-x,1/2+y,1/2-z
1/2-x,1/2-y,-z
1/2+x,y,-z
1/2-x,y,1/2+z
1/2+x,1/2-y,1/2+z
loop_
_atom_site_type_symbol
_atom_site_label
_atom_site_fract_x
_atom_site_fract_y
_atom_site_fract_z
Si Si1 0.061490 0.648528 0.875244
Si Si2 0.692175 0.108564 0.286990
Si Si3 0.342598 0.425882 0.758449
Si Si4 0.500000 0.250000 0.250000
Si Si5 0.533312 0.919001 0.533360
Si Si6 0.890051 0.828063 0.437450
Si Si7 0.604288 0.672205 0.383439
Si Si8 0.388890 0.163988 0.352330
O O1 0.089803 0.591396 0.809324
O O2 0.099156 0.733576 0.864047
O O3 0.977893 0.651832 0.875611
O O4 0.075818 0.616339 0.961045
O O5 0.774290 0.111091 0.299199
O O6 0.650871 0.129861 0.366198
O O7 0.672407 0.159400 0.210218
O O8 0.670936 0.019797 0.259668
O O9 0.353765 0.382007 0.676431
O O10 0.452307 0.193461 0.300197
O O11 0.469355 0.861326 0.559164
O O12 0.586999 0.917182 0.604967
O O13 0.500000 0.000000 0.500000
O O14 0.869312 0.839514 0.527922
O O15 0.882664 0.734911 0.415292
#
# Coordination Sequence:
#
# PCOD9508075 Si02
#       8
#    16  16  16   4  16  16  16  16
#     4  10  21  40  68  96 128 166 211 273 326 384
#     4  11  26  44  64  91 136 179 221 267 336 397
#     4  11  25  47  61  93 133 181 223 271 324 400
#     4  12  20  36  68  92 128 174 208 276 320 380
#     4  11  22  36  64 103 134 163 211 269 333 390
#     4  11  21  42  64  96 132 165 211 278 327 385
#     4  10  22  41  70  97 126 164 220 275 329 390
#     4  12  21  39  63  96 132 173 216 266 330 394
#
# _framework density 20.924004
#
# number of rings (size 3 to 8) (size 9 to 14) (size 15 to 20)
#    0.000    1.103    4.138    1.655    3.862    3.310 
#    4.966    2.759    0.000    0.000    0.000    0.000 
#    0.000    0.000    0.000    0.000    0.000    0.000 
#
# Total GULP energy -323485.142701 kJ/mol
# GULP energy per Si atom -5577.330047 kJ/mol
# Density = 2.087638 g / cm^3
# Si number density = 20.924004 Si / 1000 Ang^3
#
#
#
# Elastic Constant Matrix: (Units=GPa)
#
#
# Indices 1 2 3 4 5 6 
#
# 1 26.5927 21.6084 42.5619 0.0000 0.0000 0.0000
# 2 21.6084 78.3066 37.8624 0.0000 0.0000 0.0000
# 3 42.5619 37.8624 127.9564 0.0000 0.0000 0.0000
# 4 0.0000 0.0000 0.0000 30.3119 0.0000 0.0000
# 5 0.0000 0.0000 0.0000 0.0000 26.2021 0.0000
# 6 0.0000 0.0000 0.0000 0.0000 0.0000 24.3034
#
#
#
# Elastic Compliance Matrix: (Units=1/GPa)
#
#
# Indices 1 2 3 4 5 6 
#
# 1 0.089091 -0.011968 -0.026093 0.000000 0.000000 0.000000
# 2 -0.011968 0.016510 -0.000904 0.000000 0.000000 0.000000
# 3 -0.026093 -0.000904 0.016762 0.000000 0.000000 0.000000
# 4 0.000000 0.000000 0.000000 0.032990 0.000000 0.000000
# 5 0.000000 0.000000 0.000000 0.000000 0.038165 0.000000
# 6 0.000000 0.000000 0.000000 0.000000 0.000000 0.041147
#
#
# Mechanical properties :
#
#
# Convention : Reuss Voigt Hill
#
# Bulk Modulus (GPa) = 22.50605 48.54679 35.52642
# Shear Modulus (GPa) = 15.27155 24.88501 20.07828
#
# Velocity S-wave (km/s) = 2.70452 3.45237 3.10107
# Velocity P-wave (km/s) = 4.53123 6.25649 5.46240
#
# Compressibility (1/GPa) = 0.04443249
#
# Stress axis : x y z
#
# Youngs Moduli (GPa) = 11.22450 60.56877 59.65871
#
# Poissons Ratio (x) = 0.72488 1.55666
# Poissons Ratio (y) = 0.13433 0.05396
# Poissons Ratio (z) = 0.29288 0.05478
#
# Static dielectric constant tensor:
#      x y z
#    x 1.730660 0.000000 0.000000 
#    y 0.000000 1.807650 0.000000 
#    z 0.000000 0.000000 1.765230 
# 
# From -- ./inp_files/32152.got.cif
#   From: 2010.05.17/outbox.cif.g08.bks.cpg/sg68_17_cif.got.tgz:32152.got - 2010.06.03 18:57:09.
