data_PCOD9508679
_publ_section_title
;
Structure prediction by ZEFSAII (Michael W. Deem and Ramdas Pophale) SiO2 
 PCOD9508679
Probable space group: C C C A
;
_chemical_formula_sum "Si O2"
_cell_formula_units_Z 96
_cell_length_a 8.940666
_cell_length_b 21.957241
_cell_length_c 23.108575
_cell_angle_alpha 90.000000
_cell_angle_beta 90.000000
_cell_angle_gamma 90.000000
_cell_volume 4536.498850
_symmetry_space_group_name_H-M "C C C A"
_symmetry_group_IT_number 68
_space_group.IT_coordinate_system_code '2'
_symmetry_cell_setting 'orthorhombic'
loop_
_space_group_symop_operation_xyz
x,y,z
-x,1/2-y,z
x,1/2-y,1/2-z
-x,y,1/2-z
-x,-y,-z
x,1/2+y,-z
-x,1/2+y,1/2+z
x,-y,1/2+z
1/2+x,1/2+y,z
1/2-x,-y,z
1/2+x,-y,1/2-z
1/2-x,1/2+y,1/2-z
1/2-x,1/2-y,-z
1/2+x,y,-z
1/2-x,y,1/2+z
1/2+x,1/2-y,1/2+z
loop_
_atom_site_type_symbol
_atom_site_label
_atom_site_fract_x
_atom_site_fract_y
_atom_site_fract_z
Si Si1 0.503596 0.029213 0.124073
Si Si2 0.813645 0.589647 0.891991
Si Si3 0.694770 0.190985 0.962396
Si Si4 0.939078 0.104781 0.982958
Si Si5 0.992409 0.814021 0.846094
Si Si6 0.250000 0.000000 0.712465
Si Si7 0.000000 0.087360 0.250000
O O1 0.651679 0.070624 0.130586
O O2 0.458802 0.047096 0.058565
O O3 0.368135 0.034213 0.169480
O O4 0.563940 0.960391 0.127511
O O5 0.855804 0.657144 0.872190
O O6 0.842584 0.587453 0.960709
O O7 0.841435 0.152925 0.947716
O O8 0.611351 0.200190 0.901630
O O9 0.750000 0.250000 0.000000
O O10 0.581549 0.144892 0.996444
O O11 0.952152 0.866701 0.801285
O O12 0.000000 0.750000 0.815176
O O13 0.145326 0.956696 0.751404
#
# Coordination Sequence:
#
# PCOD9508679 Si02
#       7
#    16  16  16  16  16   8   8
#     4  11  23  40  65 101 137 185 232 293 361 437
#     4  10  22  41  62 104 145 183 232 287 359 441
#     4  11  22  40  62 101 142 192 234 285 360 449
#     4  11  21  36  61  97 145 188 222 282 354 437
#     4  11  24  44  73  99 138 184 249 296 361 441
#     4  12  28  44  76  98 138 174 242 316 368 448
#     4  12  27  50  72 106 129 192 244 312 378 426
#
# _framework density 21.161694000000001
#
# number of rings (size 3 to 8) (size 9 to 14) (size 15 to 20)
#    0.000    1.000    3.333    4.250    4.667    1.333 
#    0.000    0.000    0.000    0.000    0.000    0.000 
#    0.000    0.000    0.000    0.000    0.000    0.000 
#
# Total GULP energy -267416.331942 kJ/mol
# GULP energy per Si atom -5571.173582 kJ/mol
# Density = 2.111353 g / cm^3
# Si number density = 21.161694 Si / 1000 Ang^3
#
#
#
# Elastic Constant Matrix: (Units=GPa)
#
#
# Indices 1 2 3 4 5 6 
#
# 1 115.1874 52.6667 41.7723 0.0000 0.0000 0.0000
# 2 52.6667 131.5793 53.9101 0.0000 0.0000 0.0000
# 3 41.7723 53.9101 111.0013 0.0000 0.0000 0.0000
# 4 0.0000 0.0000 0.0000 33.2148 0.0000 0.0000
# 5 0.0000 0.0000 0.0000 0.0000 29.6822 0.0000
# 6 0.0000 0.0000 0.0000 0.0000 0.0000 26.4407
#
#
#
# Elastic Compliance Matrix: (Units=1/GPa)
#
#
# Indices 1 2 3 4 5 6 
#
# 1 0.011171 -0.003432 -0.002537 0.000000 0.000000 0.000000
# 2 -0.003432 0.010542 -0.003829 0.000000 0.000000 0.000000
# 3 -0.002537 -0.003829 0.011823 0.000000 0.000000 0.000000
# 4 0.000000 0.000000 0.000000 0.030107 0.000000 0.000000
# 5 0.000000 0.000000 0.000000 0.000000 0.033690 0.000000
# 6 0.000000 0.000000 0.000000 0.000000 0.000000 0.037820
#
#
# Mechanical properties :
#
#
# Convention : Reuss Voigt Hill
#
# Bulk Modulus (GPa) = 71.73020 72.71847 72.22433
# Shear Modulus (GPa) = 31.36848 31.82880 31.59864
#
# Velocity S-wave (km/s) = 3.85427 3.88245 3.86839
# Velocity P-wave (km/s) = 7.33328 7.38483 7.35910
#
# Compressibility (1/GPa) = 0.01394113
#
# Stress axis : x y z
#
# Youngs Moduli (GPa) = 89.52026 94.85651 84.58011
#
# Poissons Ratio (x) = 0.32552 0.21459
# Poissons Ratio (y) = 0.30721 0.32382
# Poissons Ratio (z) = 0.22712 0.36317
#
# Static dielectric constant tensor:
#      x y z
#    x 1.808540 0.000000 0.000000 
#    y 0.000000 1.798090 0.000000 
#    z 0.000000 0.000000 1.909700 
# 
# From -- ./inp_files/43336.got.cif
#   From: 2010.05.17/outbox.cif.g08.bks.cpg/sg68_22_cif.got.tgz:43336.got - 2010.06.03 18:57:09.
