data_PCOD9508374
_publ_section_title
;
Structure prediction by ZEFSAII (Michael W. Deem and Ramdas Pophale) SiO2 
 PCOD9508374
Probable space group: C C C A
;
_chemical_formula_sum "Si O2"
_cell_formula_units_Z 72
_cell_length_a 13.690079
_cell_length_b 23.532835
_cell_length_c 8.971032
_cell_angle_alpha 90.000000
_cell_angle_beta 90.000000
_cell_angle_gamma 90.000000
_cell_volume 2890.164817
_symmetry_space_group_name_H-M "C C C A"
_symmetry_group_IT_number 68
_space_group.IT_coordinate_system_code '2'
_symmetry_cell_setting 'orthorhombic'
loop_
_space_group_symop_operation_xyz
x,y,z
-x,1/2-y,z
x,1/2-y,1/2-z
-x,y,1/2-z
-x,-y,-z
x,1/2+y,-z
-x,1/2+y,1/2+z
x,-y,1/2+z
1/2+x,1/2+y,z
1/2-x,-y,z
1/2+x,-y,1/2-z
1/2-x,1/2+y,1/2-z
1/2-x,1/2-y,-z
1/2+x,y,-z
1/2-x,y,1/2+z
1/2+x,1/2-y,1/2+z
loop_
_atom_site_type_symbol
_atom_site_label
_atom_site_fract_x
_atom_site_fract_y
_atom_site_fract_z
Si Si1 0.744712 0.750000 0.750000
Si Si2 0.383876 0.742716 0.009522
Si Si3 0.868579 0.124227 0.481905
Si Si4 0.731288 0.934844 0.765564
Si Si5 0.462843 0.056681 0.080398
O O1 0.666303 0.780869 0.859222
O O2 0.823285 0.783430 0.646835
O O3 0.500000 0.750000 0.013802
O O4 0.353447 0.809043 0.017371
O O5 0.826151 0.094200 0.335618
O O6 0.815563 0.097874 0.626897
O O7 0.982835 0.109011 0.502015
O O8 0.652168 0.936806 0.900879
O O9 0.750000 0.000000 0.722321
O O10 0.500000 0.053249 0.250000
O O11 0.500000 0.000000 0.000000
#
# Coordination Sequence:
#
# PCOD9508374 Si02
#       5
#     8  16  16  16  16
#     4  10  24  44  72  98 136 172 236 286 356 416
#     4  11  24  45  71 100 139 179 232 295 352 418
#     4  11  24  40  65  96 128 175 218 268 338 399
#     4  11  22  39  65  93 137 173 220 268 327 401
#     4  10  22  37  57  88 130 170 214 256 316 386
#
# _framework density 24.912074
#
# number of rings (size 3 to 8) (size 9 to 14) (size 15 to 20)
#    0.000    1.333    2.222    2.667    3.111    8.889 
#    0.000    4.444    0.000    0.000    0.000    0.000 
#    0.000    0.000    0.000    0.000    0.000    0.000 
#
# Total GULP energy -201295.401840 kJ/mol
# GULP energy per Si atom -5591.538940 kJ/mol
# Density = 2.485537 g / cm^3
# Si number density = 24.912074 Si / 1000 Ang^3
#
#
#
# Elastic Constant Matrix: (Units=GPa)
#
#
# Indices 1 2 3 4 5 6 
#
# 1 158.2447 -7.3940 35.8604 0.0000 0.0000 0.0000
# 2 -7.3940 109.3161 -5.8086 0.0000 0.0000 0.0000
# 3 35.8604 -5.8086 93.9806 0.0000 0.0000 0.0000
# 4 0.0000 0.0000 0.0000 23.6055 0.0000 0.0000
# 5 0.0000 0.0000 0.0000 0.0000 40.3964 0.0000
# 6 0.0000 0.0000 0.0000 0.0000 0.0000 33.8517
#
#
#
# Elastic Compliance Matrix: (Units=1/GPa)
#
#
# Indices 1 2 3 4 5 6 
#
# 1 0.006929 0.000329 -0.002624 0.000000 0.000000 0.000000
# 2 0.000329 0.009194 0.000443 0.000000 0.000000 0.000000
# 3 -0.002624 0.000443 0.011669 0.000000 0.000000 0.000000
# 4 0.000000 0.000000 0.000000 0.042363 0.000000 0.000000
# 5 0.000000 0.000000 0.000000 0.000000 0.024755 0.000000
# 6 0.000000 0.000000 0.000000 0.000000 0.000000 0.029541
#
#
# Mechanical properties :
#
#
# Convention : Reuss Voigt Hill
#
# Bulk Modulus (GPa) = 41.51412 45.20633 43.36022
# Shear Modulus (GPa) = 36.71523 42.16294 39.43909
#
# Velocity S-wave (km/s) = 3.84317 4.11843 3.98317
# Velocity P-wave (km/s) = 6.03272 6.38757 6.21268
#
# Compressibility (1/GPa) = 0.02408819
#
# Stress axis : x y z
#
# Youngs Moduli (GPa) = 144.31528 108.77166 85.69733
#
# Poissons Ratio (x) = -0.03582 0.22484
# Poissons Ratio (y) = -0.04752 -0.03793
# Poissons Ratio (z) = 0.37864 -0.04814
#
# Static dielectric constant tensor:
#      x y z
#    x 2.093640 0.000000 0.000000 
#    y 0.000000 2.010580 0.000000 
#    z 0.000000 0.000000 2.071900 
# 
# From -- ./inp_files/5187.got.cif
#   From: 2010.05.17/outbox.cif.g08.bks.cpg/sg68_3_cif.got.tgz:5187.got - 2010.06.03 18:57:09.
