data_PCOD9508022
_publ_section_title
;
Structure prediction by ZEFSAII (Michael W. Deem and Ramdas Pophale) SiO2 
 PCOD9508022
Probable space group: C C C A
;
_chemical_formula_sum "Si O2"
_cell_formula_units_Z 88
_cell_length_a 17.953108
_cell_length_b 19.145116
_cell_length_c 12.033375
_cell_angle_alpha 90.000000
_cell_angle_beta 90.000000
_cell_angle_gamma 90.000000
_cell_volume 4136.043489
_symmetry_space_group_name_H-M "C C C A"
_symmetry_group_IT_number 68
_space_group.IT_coordinate_system_code '2'
_symmetry_cell_setting 'orthorhombic'
loop_
_space_group_symop_operation_xyz
x,y,z
-x,1/2-y,z
x,1/2-y,1/2-z
-x,y,1/2-z
-x,-y,-z
x,1/2+y,-z
-x,1/2+y,1/2+z
x,-y,1/2+z
1/2+x,1/2+y,z
1/2-x,-y,z
1/2+x,-y,1/2-z
1/2-x,1/2+y,1/2-z
1/2-x,1/2-y,-z
1/2+x,y,-z
1/2-x,y,1/2+z
1/2+x,1/2-y,1/2+z
loop_
_atom_site_type_symbol
_atom_site_label
_atom_site_fract_x
_atom_site_fract_y
_atom_site_fract_z
Si Si1 0.797612 0.595805 0.710276
Si Si2 0.032627 0.328607 0.530548
Si Si3 0.352615 0.040244 0.142839
Si Si4 0.391147 0.623069 0.080188
Si Si5 0.321660 0.225806 0.568347
Si Si6 0.000000 0.914725 0.250000
O O1 0.711371 0.573827 0.721308
O O2 0.827735 0.539113 0.621073
O O3 0.851663 0.586453 0.815660
O O4 0.799532 0.675027 0.668398
O O5 0.118148 0.319782 0.498774
O O6 0.024631 0.366749 0.647372
O O7 0.000000 0.250000 0.539716
O O8 0.980325 0.369847 0.440854
O O9 0.431170 0.041630 0.204252
O O10 0.360082 0.087041 0.032108
O O11 0.364023 0.702709 0.095079
O O12 0.250000 0.250000 0.500000
#
# Coordination Sequence:
#
# PCOD9508022 Si02
#       6
#    16  16  16  16  16   8
#     4  11  24  41  66  95 128 176 212 271 330 387
#     4   9  21  39  63  95 131 168 216 279 324 387
#     4  10  24  41  62  95 132 167 220 266 327 391
#     4  10  22  44  63  94 132 166 219 271 322 390
#     4  11  22  40  66  94 127 167 221 268 321 388
#     4  10  21  40  64  94 129 176 216 266 330 386
#
# _framework density 21.276371000000001
#
# number of rings (size 3 to 8) (size 9 to 14) (size 15 to 20)
#    0.000    1.818    1.818    0.818    2.545    6.545 
#    0.000    6.364    0.000    0.000    0.000    0.000 
#    0.000    0.000    0.000    0.000    0.000    0.000 
#
# Total GULP energy -245445.818029 kJ/mol
# GULP energy per Si atom -5578.314046 kJ/mol
# Density = 2.122794 g / cm^3
# Si number density = 21.276371 Si / 1000 Ang^3
#
#
#
# Elastic Constant Matrix: (Units=GPa)
#
#
# Indices 1 2 3 4 5 6 
#
# 1 133.5877 27.7679 42.3605 0.0000 0.0000 0.0000
# 2 27.7679 87.1078 27.2850 0.0000 0.0000 0.0000
# 3 42.3605 27.2850 70.6497 0.0000 0.0000 0.0000
# 4 0.0000 0.0000 0.0000 16.4147 0.0000 0.0000
# 5 0.0000 0.0000 0.0000 0.0000 22.4433 0.0000
# 6 0.0000 0.0000 0.0000 0.0000 0.0000 23.5092
#
#
#
# Elastic Compliance Matrix: (Units=1/GPa)
#
#
# Indices 1 2 3 4 5 6 
#
# 1 0.009391 -0.001399 -0.005090 0.000000 0.000000 0.000000
# 2 -0.001399 0.013268 -0.004285 0.000000 0.000000 0.000000
# 3 -0.005090 -0.004285 0.018861 0.000000 0.000000 0.000000
# 4 0.000000 0.000000 0.000000 0.060921 0.000000 0.000000
# 5 0.000000 0.000000 0.000000 0.000000 0.044557 0.000000
# 6 0.000000 0.000000 0.000000 0.000000 0.000000 0.042537
#
#
# Mechanical properties :
#
#
# Convention : Reuss Voigt Hill
#
# Bulk Modulus (GPa) = 50.07243 54.01911 52.04577
# Shear Modulus (GPa) = 22.96306 25.40221 24.18263
#
# Velocity S-wave (km/s) = 3.28880 3.45906 3.37500
# Velocity P-wave (km/s) = 6.16498 6.43411 6.30098
#
# Compressibility (1/GPa) = 0.01997107
#
# Stress axis : x y z
#
# Youngs Moduli (GPa) = 106.48933 75.36737 53.01855
#
# Poissons Ratio (x) = 0.10545 0.26987
# Poissons Ratio (y) = 0.14899 0.22720
# Poissons Ratio (z) = 0.54204 0.32298
#
# Static dielectric constant tensor:
#      x y z
#    x 1.817870 0.000000 0.000000 
#    y 0.000000 1.756440 0.000000 
#    z 0.000000 0.000000 1.770510 
# 
# From -- ./inp_files/14472.got.cif
#   From: 2010.05.17/outbox.cif.g08.bks.cpg/sg68_8_cif.got.tgz:14472.got - 2010.06.03 18:57:09.
