data_PCOD9508214
_publ_section_title
;
Structure prediction by ZEFSAII (Michael W. Deem and Ramdas Pophale) SiO2 
 PCOD9508214
Probable space group: C C C A
;
_chemical_formula_sum "Si O2"
_cell_formula_units_Z 88
_cell_length_a 21.870189
_cell_length_b 13.671967
_cell_length_c 13.065037
_cell_angle_alpha 90.000000
_cell_angle_beta 90.000000
_cell_angle_gamma 90.000000
_cell_volume 3906.557146
_symmetry_space_group_name_H-M "C C C A"
_symmetry_group_IT_number 68
_space_group.IT_coordinate_system_code '2'
_symmetry_cell_setting 'orthorhombic'
loop_
_space_group_symop_operation_xyz
x,y,z
-x,1/2-y,z
x,1/2-y,1/2-z
-x,y,1/2-z
-x,-y,-z
x,1/2+y,-z
-x,1/2+y,1/2+z
x,-y,1/2+z
1/2+x,1/2+y,z
1/2-x,-y,z
1/2+x,-y,1/2-z
1/2-x,1/2+y,1/2-z
1/2-x,1/2-y,-z
1/2+x,y,-z
1/2-x,y,1/2+z
1/2+x,1/2-y,1/2+z
loop_
_atom_site_type_symbol
_atom_site_label
_atom_site_fract_x
_atom_site_fract_y
_atom_site_fract_z
Si Si1 0.192684 0.446394 0.014936
Si Si2 0.433718 0.387327 0.507376
Si Si3 0.760500 0.250000 0.750000
Si Si4 0.830607 0.898322 0.859017
Si Si5 0.965122 0.557505 0.649523
Si Si6 0.333891 0.757324 0.952414
O O1 0.250000 0.500000 0.065605
O O2 0.124664 0.443147 0.061786
O O3 0.185990 0.493004 0.900092
O O4 0.294393 0.667967 0.000648
O O5 0.489645 0.373055 0.583944
O O6 0.453978 0.462961 0.420658
O O7 0.401303 0.293221 0.456715
O O8 0.716016 0.161448 0.787789
O O9 0.805319 0.278906 0.842938
O O10 0.899851 0.897733 0.820043
O O11 0.835199 0.844897 0.968963
O O12 0.000000 0.527435 0.750000
#
# Coordination Sequence:
#
# PCOD9508214 Si02
#       6
#    16  16   8  16  16  16
#     4   9  18  40  64  87 134 174 206 277 340 386
#     4   8  20  42  64  93 136 178 212 285 334 395
#     4  12  24  40  63  99 128 180 226 282 332 426
#     4  11  23  41  66  97 134 172 229 280 336 404
#     4  10  21  42  69  97 132 176 234 273 334 413
#     4  10  23  44  63  96 138 169 229 277 343 416
#
# _framework density 22.526229000000001
#
# number of rings (size 3 to 8) (size 9 to 14) (size 15 to 20)
#    1.091    1.091    1.818    0.545    2.545    0.727 
#    9.818    3.636    0.000    0.000    0.000    0.000 
#    0.000    0.000    0.000    0.000    0.000    0.000 
#
# Total GULP energy -245263.123503 kJ/mol
# GULP energy per Si atom -5574.161898 kJ/mol
# Density = 2.247496 g / cm^3
# Si number density = 22.526229 Si / 1000 Ang^3
#
#
#
# Elastic Constant Matrix: (Units=GPa)
#
#
# Indices 1 2 3 4 5 6 
#
# 1 123.3794 -0.0662 26.1737 0.0000 0.0000 0.0000
# 2 -0.0662 36.4758 4.0865 0.0000 0.0000 0.0000
# 3 26.1737 4.0865 69.1188 0.0000 0.0000 0.0000
# 4 0.0000 0.0000 0.0000 17.3117 0.0000 0.0000
# 5 0.0000 0.0000 0.0000 0.0000 32.4074 0.0000
# 6 0.0000 0.0000 0.0000 0.0000 0.0000 17.2674
#
#
#
# Elastic Compliance Matrix: (Units=1/GPa)
#
#
# Indices 1 2 3 4 5 6 
#
# 1 0.008819 0.000393 -0.003363 0.000000 0.000000 0.000000
# 2 0.000393 0.027616 -0.001781 0.000000 0.000000 0.000000
# 3 -0.003363 -0.001781 0.015847 0.000000 0.000000 0.000000
# 4 0.000000 0.000000 0.000000 0.057764 0.000000 0.000000
# 5 0.000000 0.000000 0.000000 0.000000 0.030857 0.000000
# 6 0.000000 0.000000 0.000000 0.000000 0.000000 0.057913
#
#
# Mechanical properties :
#
#
# Convention : Reuss Voigt Hill
#
# Bulk Modulus (GPa) = 23.37639 32.15133 27.76386
# Shear Modulus (GPa) = 22.46411 26.64930 24.55671
#
# Velocity S-wave (km/s) = 3.16134 3.44326 3.30531
# Velocity P-wave (km/s) = 4.87087 5.48743 5.18832
#
# Compressibility (1/GPa) = 0.04277821
#
# Stress axis : x y z
#
# Youngs Moduli (GPa) = 113.39624 36.21121 63.10530
#
# Poissons Ratio (x) = -0.01422 0.21220
# Poissons Ratio (y) = -0.04453 0.11242
# Poissons Ratio (z) = 0.38131 0.06451
#
# Static dielectric constant tensor:
#      x y z
#    x 1.942660 0.000000 0.000000 
#    y 0.000000 1.850600 0.000000 
#    z 0.000000 0.000000 1.828510 
# 
# From -- ./inp_files/24581.got.cif
#   From: 2010.05.17/outbox.cif.g08.bks.cpg/sg68_13_cif.got.tgz:24581.got - 2010.06.03 18:57:09.
