data_PCOD9508808
_publ_section_title
;
Structure prediction by ZEFSAII (Michael W. Deem and Ramdas Pophale) SiO2 
 PCOD9508808
Probable space group: C C C A
;
_chemical_formula_sum "Si O2"
_cell_formula_units_Z 88
_cell_length_a 21.877860
_cell_length_b 7.922422
_cell_length_c 23.703017
_cell_angle_alpha 90.000000
_cell_angle_beta 90.000000
_cell_angle_gamma 90.000000
_cell_volume 4108.340577
_symmetry_space_group_name_H-M "C C C A"
_symmetry_group_IT_number 68
_space_group.IT_coordinate_system_code '2'
_symmetry_cell_setting 'orthorhombic'
loop_
_space_group_symop_operation_xyz
x,y,z
-x,1/2-y,z
x,1/2-y,1/2-z
-x,y,1/2-z
-x,-y,-z
x,1/2+y,-z
-x,1/2+y,1/2+z
x,-y,1/2+z
1/2+x,1/2+y,z
1/2-x,-y,z
1/2+x,-y,1/2-z
1/2-x,1/2+y,1/2-z
1/2-x,1/2-y,-z
1/2+x,y,-z
1/2-x,y,1/2+z
1/2+x,1/2-y,1/2+z
loop_
_atom_site_type_symbol
_atom_site_label
_atom_site_fract_x
_atom_site_fract_y
_atom_site_fract_z
Si Si1 0.995266 0.062291 0.376632
Si Si2 0.609105 0.750000 0.750000
Si Si3 0.376277 0.606513 0.436027
Si Si4 0.386829 0.011663 0.434989
Si Si5 0.500000 0.002112 0.250000
Si Si6 0.250000 0.000000 0.113999
Si Si7 0.703735 0.652851 0.845627
O O1 0.926012 0.020845 0.393975
O O2 0.000000 0.250000 0.402455
O O3 0.048301 0.952175 0.404637
O O4 0.012459 0.078647 0.310708
O O5 0.560731 0.894092 0.766094
O O6 0.652119 0.678333 0.798582
O O7 0.374406 0.810055 0.428900
O O8 0.392278 0.562512 0.500175
O O9 0.310069 0.532520 0.422579
O O10 0.331983 0.107347 0.403381
O O11 0.238917 0.829995 0.149355
O O12 0.750000 0.500000 0.832738
#
# Coordination Sequence:
#
# PCOD9508808 Si02
#       7
#    16   8  16  16   8   8  16
#     4  10  22  42  68 103 139 185 237 297 355 413
#     4  11  26  44  68 100 130 185 232 294 352 417
#     4  11  24  41  69 106 144 189 237 291 358 422
#     4  11  23  45  69 102 144 186 237 299 351 423
#     4  11  21  44  70  98 135 179 240 293 354 421
#     4  12  26  44  70 106 140 190 234 282 354 430
#     4  12  26  48  71 102 146 183 239 292 355 431
#
# _framework density 21.419841000000002
#
# number of rings (size 3 to 8) (size 9 to 14) (size 15 to 20)
#    0.000    0.909    3.636    3.000    2.545    1.455 
#    0.000    0.000    0.000    0.000    0.000    0.000 
#    0.000    0.000    0.000    0.000    0.000    0.000 
#
# Total GULP energy -245663.719233 kJ/mol
# GULP energy per Si atom -5583.266346 kJ/mol
# Density = 2.137109 g / cm^3
# Si number density = 21.419841 Si / 1000 Ang^3
#
#
#
# Elastic Constant Matrix: (Units=GPa)
#
#
# Indices 1 2 3 4 5 6 
#
# 1 131.7867 34.5211 37.5786 0.0000 0.0000 0.0000
# 2 34.5211 104.6415 15.2207 0.0000 0.0000 0.0000
# 3 37.5786 15.2207 70.2050 0.0000 0.0000 0.0000
# 4 0.0000 0.0000 0.0000 30.8872 0.0000 0.0000
# 5 0.0000 0.0000 0.0000 0.0000 32.5091 0.0000
# 6 0.0000 0.0000 0.0000 0.0000 0.0000 23.5728
#
#
#
# Elastic Compliance Matrix: (Units=1/GPa)
#
#
# Indices 1 2 3 4 5 6 
#
# 1 0.009541 -0.002483 -0.004569 0.000000 0.000000 0.000000
# 2 -0.002483 0.010514 -0.000950 0.000000 0.000000 0.000000
# 3 -0.004569 -0.000950 0.016896 0.000000 0.000000 0.000000
# 4 0.000000 0.000000 0.000000 0.032376 0.000000 0.000000
# 5 0.000000 0.000000 0.000000 0.000000 0.030761 0.000000
# 6 0.000000 0.000000 0.000000 0.000000 0.000000 0.042422
#
#
# Mechanical properties :
#
#
# Convention : Reuss Voigt Hill
#
# Bulk Modulus (GPa) = 47.74127 53.47489 50.60808
# Shear Modulus (GPa) = 30.21232 32.01467 31.11350
#
# Velocity S-wave (km/s) = 3.75971 3.87023 3.81537
# Velocity P-wave (km/s) = 6.41748 6.70753 6.56410
#
# Compressibility (1/GPa) = 0.02094624
#
# Stress axis : x y z
#
# Youngs Moduli (GPa) = 104.80828 95.11279 59.18713
#
# Poissons Ratio (x) = 0.23617 0.27041
# Poissons Ratio (y) = 0.26025 0.05625
# Poissons Ratio (z) = 0.47885 0.09039
#
# Static dielectric constant tensor:
#      x y z
#    x 1.797460 0.000000 0.000000 
#    y 0.000000 1.826500 0.000000 
#    z 0.000000 0.000000 1.779940 
# 
# From -- ./inp_files/46519.got.cif
#   From: 2010.05.17/outbox.cif.g08.bks.cpg/sg68_24_cif.got.tgz:46519.got - 2010.06.03 18:57:09.
