data_PCOD9508380
_publ_section_title
;
Structure prediction by ZEFSAII (Michael W. Deem and Ramdas Pophale) SiO2 
 PCOD9508380
Probable space group: C C C A
;
_chemical_formula_sum "Si O2"
_cell_formula_units_Z 128
_cell_length_a 17.906884
_cell_length_b 18.670769
_cell_length_c 19.829789
_cell_angle_alpha 90.000000
_cell_angle_beta 90.000000
_cell_angle_gamma 90.000000
_cell_volume 6629.798349
_symmetry_space_group_name_H-M "C C C A"
_symmetry_group_IT_number 68
_space_group.IT_coordinate_system_code '2'
_symmetry_cell_setting 'orthorhombic'
loop_
_space_group_symop_operation_xyz
x,y,z
-x,1/2-y,z
x,1/2-y,1/2-z
-x,y,1/2-z
-x,-y,-z
x,1/2+y,-z
-x,1/2+y,1/2+z
x,-y,1/2+z
1/2+x,1/2+y,z
1/2-x,-y,z
1/2+x,-y,1/2-z
1/2-x,1/2+y,1/2-z
1/2-x,1/2-y,-z
1/2+x,y,-z
1/2-x,y,1/2+z
1/2+x,1/2-y,1/2+z
loop_
_atom_site_type_symbol
_atom_site_label
_atom_site_fract_x
_atom_site_fract_y
_atom_site_fract_z
Si Si1 0.830347 0.664827 0.532597
Si Si2 0.575419 0.451887 0.165747
Si Si3 0.430273 0.461132 0.962631
Si Si4 0.217273 0.826475 0.280215
Si Si5 0.665687 0.475442 0.930484
Si Si6 0.588130 0.067499 0.182866
Si Si7 0.704460 0.180706 0.579950
Si Si8 0.736394 0.585483 0.649606
O O1 0.908407 0.621811 0.525227
O O2 0.779035 0.666555 0.465424
O O3 0.834902 0.747251 0.555065
O O4 0.782736 0.622852 0.590275
O O5 0.566337 0.518737 0.115747
O O6 0.496640 0.411003 0.166458
O O7 0.589471 0.470996 0.243919
O O8 0.646659 0.406837 0.141188
O O9 0.500000 0.500000 0.000000
O O10 0.358341 0.498979 0.995996
O O11 0.196474 0.750000 0.250000
O O12 0.144946 0.867468 0.308516
O O13 0.271834 0.813598 0.342590
O O14 0.252098 0.876161 0.221263
O O15 0.750000 0.500000 0.916780
O O16 0.616126 0.515722 0.875576
O O17 0.656801 0.390925 0.927162
O O18 0.750000 0.500000 0.652925
#
# Coordination Sequence:
#
# PCOD9508380 Si02
#       8
#    16  16  16  16  16  16  16  16
#     4  11  23  42  61  93 131 165 208 269 329 384
#     4  10  22  37  59  92 127 161 212 261 320 370
#     4  12  23  40  66  93 124 170 214 265 320 392
#     4  11  22  39  61  92 129 165 209 266 335 384
#     4  12  22  39  67  97 121 165 220 265 315 384
#     4  10  22  40  60  89 128 166 212 265 313 383
#     4  11  24  38  62  93 133 163 208 271 328 382
#     4  11  22  37  64  93 123 160 216 265 312 383
#
# _framework density 19.306771999999999
#
# number of rings (size 3 to 8) (size 9 to 14) (size 15 to 20)
#    0.000    1.000    6.250    0.750    3.500    0.000 
#    0.000    5.625    0.000    3.000    0.000    1.750 
#    0.000    0.000    0.000    0.000    0.000    0.000 
#
# Total GULP energy -357177.543248 kJ/mol
# GULP energy per Si atom -5580.899113 kJ/mol
# Density = 1.926283 g / cm^3
# Si number density = 19.306772 Si / 1000 Ang^3
#
#
#
# Elastic Constant Matrix: (Units=GPa)
#
#
# Indices 1 2 3 4 5 6 
#
# 1 63.1427 12.4078 11.6025 0.0000 0.0000 0.0000
# 2 12.4078 137.5071 35.0910 0.0000 0.0000 0.0000
# 3 11.6025 35.0910 88.6275 0.0000 0.0000 0.0000
# 4 0.0000 0.0000 0.0000 32.1109 0.0000 0.0000
# 5 0.0000 0.0000 0.0000 0.0000 28.4217 0.0000
# 6 0.0000 0.0000 0.0000 0.0000 0.0000 24.3038
#
#
#
# Elastic Compliance Matrix: (Units=1/GPa)
#
#
# Indices 1 2 3 4 5 6 
#
# 1 0.016359 -0.001034 -0.001732 0.000000 0.000000 0.000000
# 2 -0.001034 0.008155 -0.003094 0.000000 0.000000 0.000000
# 3 -0.001732 -0.003094 0.012735 0.000000 0.000000 0.000000
# 4 0.000000 0.000000 0.000000 0.031142 0.000000 0.000000
# 5 0.000000 0.000000 0.000000 0.000000 0.035184 0.000000
# 6 0.000000 0.000000 0.000000 0.000000 0.000000 0.041146
#
#
# Mechanical properties :
#
#
# Convention : Reuss Voigt Hill
#
# Bulk Modulus (GPa) = 39.17109 45.27554 42.22331
# Shear Modulus (GPa) = 30.31222 32.31235 31.31228
#
# Velocity S-wave (km/s) = 3.96666 4.09544 4.03156
# Velocity P-wave (km/s) = 6.42744 6.77237 6.60216
#
# Compressibility (1/GPa) = 0.02552903
#
# Stress axis : x y z
#
# Youngs Moduli (GPa) = 61.12982 122.62249 78.52502
#
# Poissons Ratio (x) = 0.12680 0.13602
# Poissons Ratio (y) = 0.06321 0.24292
# Poissons Ratio (z) = 0.10589 0.37934
#
# Static dielectric constant tensor:
#      x y z
#    x 1.713170 0.000000 0.000000 
#    y 0.000000 1.678650 0.000000 
#    z 0.000000 0.000000 1.710840 
# 
# From -- ./inp_files/40478.got.cif
#   From: 2010.05.17/outbox.cif.g08.bks.cpg/sg68_21_cif.got.tgz:40478.got - 2010.06.03 18:57:09.
