data_PCOD9508416
_publ_section_title
;
Structure prediction by ZEFSAII (Michael W. Deem and Ramdas Pophale) SiO2 
 PCOD9508416
Probable space group: C C C A
;
_chemical_formula_sum "Si O2"
_cell_formula_units_Z 96
_cell_length_a 20.328219
_cell_length_b 20.984787
_cell_length_c 9.427699
_cell_angle_alpha 90.000000
_cell_angle_beta 90.000000
_cell_angle_gamma 90.000000
_cell_volume 4021.699383
_symmetry_space_group_name_H-M "C C C A"
_symmetry_group_IT_number 68
_space_group.IT_coordinate_system_code '2'
_symmetry_cell_setting 'orthorhombic'
loop_
_space_group_symop_operation_xyz
x,y,z
-x,1/2-y,z
x,1/2-y,1/2-z
-x,y,1/2-z
-x,-y,-z
x,1/2+y,-z
-x,1/2+y,1/2+z
x,-y,1/2+z
1/2+x,1/2+y,z
1/2-x,-y,z
1/2+x,-y,1/2-z
1/2-x,1/2+y,1/2-z
1/2-x,1/2-y,-z
1/2+x,y,-z
1/2-x,y,1/2+z
1/2+x,1/2-y,1/2+z
loop_
_atom_site_type_symbol
_atom_site_label
_atom_site_fract_x
_atom_site_fract_y
_atom_site_fract_z
Si Si1 0.763259 0.143954 0.081331
Si Si2 0.571161 0.563329 0.265906
Si Si3 0.795482 0.441612 0.154716
Si Si4 0.633010 0.814414 0.678140
Si Si5 0.398426 0.624745 0.957886
Si Si6 0.531797 0.818650 0.427163
O O1 0.776010 0.088702 0.195401
O O2 0.711192 0.191169 0.151282
O O3 0.835234 0.163398 0.024033
O O4 0.720978 0.112938 0.956206
O O5 0.500000 0.531418 0.250000
O O6 0.629353 0.537229 0.169858
O O7 0.595324 0.566378 0.428935
O O8 0.558740 0.635501 0.200708
O O9 0.750000 0.500000 0.117830
O O10 0.608525 0.750000 0.750000
O O11 0.592772 0.817565 0.533772
O O12 0.617817 0.871936 0.790283
O O13 0.471201 0.651448 0.984020
O O14 0.500000 0.750000 0.391453
#
# Coordination Sequence:
#
# PCOD9508416 Si02
#       6
#    16  16  16  16  16  16
#     4  11  23  43  62  93 128 166 217 281 332 398
#     4   9  21  40  64  93 129 169 213 276 328 391
#     4  11  22  42  71  92 122 167 219 279 347 397
#     4  12  23  39  61  91 135 179 222 265 330 398
#     4  10  22  38  59  86 127 170 212 269 321 383
#     4  11  21  39  62  92 129 181 219 259 319 396
#
# _framework density 23.870505999999999
#
# number of rings (size 3 to 8) (size 9 to 14) (size 15 to 20)
#    0.000    1.333    5.000    1.000    0.000    3.667 
#    6.000    0.000    3.667    4.000    0.000    0.000 
#    0.000    0.000    0.000    0.000    0.000    0.000 
#
# Total GULP energy -267543.179196 kJ/mol
# GULP energy per Si atom -5573.816233 kJ/mol
# Density = 2.381618 g / cm^3
# Si number density = 23.870506 Si / 1000 Ang^3
#
#
#
# Elastic Constant Matrix: (Units=GPa)
#
#
# Indices 1 2 3 4 5 6 
#
# 1 82.3659 55.4701 88.8670 0.0000 0.0000 0.0000
# 2 55.4701 10.0548 -27.9889 0.0000 0.0000 0.0000
# 3 88.8670 -27.9889 48.0398 0.0000 0.0000 0.0000
# 4 0.0000 0.0000 0.0000 19.6374 0.0000 0.0000
# 5 0.0000 0.0000 0.0000 0.0000 24.2223 0.0000
# 6 0.0000 0.0000 0.0000 0.0000 0.0000 11.6971
#
#
#
# Elastic Compliance Matrix: (Units=1/GPa)
#
#
# Indices 1 2 3 4 5 6 
#
# 1 0.000569 0.009760 0.004634 0.000000 0.000000 0.000000
# 2 0.009760 0.007464 -0.013705 0.000000 0.000000 0.000000
# 3 0.004634 -0.013705 0.004260 0.000000 0.000000 0.000000
# 4 0.000000 0.000000 0.000000 0.050923 0.000000 0.000000
# 5 0.000000 0.000000 0.000000 0.000000 0.041284 0.000000
# 6 0.000000 0.000000 0.000000 0.000000 0.000000 0.085491
#
#
# Mechanical properties :
#
#
# Convention : Reuss Voigt Hill
#
# Bulk Modulus (GPa) = 73.15364 41.46186 57.30775
# Shear Modulus (GPa) = 25.88363 12.71883 19.30123
#
# Velocity S-wave (km/s) = 3.29650 2.31081 2.84664
# Velocity P-wave (km/s) = 6.72323 4.95247 5.90461
#
# Compressibility (1/GPa) = 0.01366986
#
# Stress axis : x y z
#
# Youngs Moduli (GPa) = 1757.61304 133.96774 234.75173
#
# Poissons Ratio (x) = -1.30746 -1.08775
# Poissons Ratio (y) = -17.15349 3.21724
# Poissons Ratio (z) = -8.14410 1.83601
#
# Static dielectric constant tensor:
#      x y z
#    x 1.906390 0.000000 0.000000 
#    y 0.000000 1.976420 0.000000 
#    z 0.000000 0.000000 1.892950 
# 
# From -- ./inp_files/7275.got.cif
#   From: 2010.05.17/outbox.cif.g08.bks.cpg/sg68_4_cif.got.tgz:7275.got - 2010.06.03 18:57:09.
