data_PCOD9508988
_publ_section_title
;
Structure prediction by ZEFSAII (Michael W. Deem and Ramdas Pophale) SiO2 
 PCOD9508988
Probable space group: C C C A
;
_chemical_formula_sum "Si O2"
_cell_formula_units_Z 60
_cell_length_a 5.198200
_cell_length_b 24.402247
_cell_length_c 18.985227
_cell_angle_alpha 90.000000
_cell_angle_beta 90.000000
_cell_angle_gamma 90.000000
_cell_volume 2408.233525
_symmetry_space_group_name_H-M "C C C A"
_symmetry_group_IT_number 68
_space_group.IT_coordinate_system_code '2'
_symmetry_cell_setting 'orthorhombic'
loop_
_space_group_symop_operation_xyz
x,y,z
-x,1/2-y,z
x,1/2-y,1/2-z
-x,y,1/2-z
-x,-y,-z
x,1/2+y,-z
-x,1/2+y,1/2+z
x,-y,1/2+z
1/2+x,1/2+y,z
1/2-x,-y,z
1/2+x,-y,1/2-z
1/2-x,1/2+y,1/2-z
1/2-x,1/2-y,-z
1/2+x,y,-z
1/2-x,y,1/2+z
1/2+x,1/2-y,1/2+z
loop_
_atom_site_type_symbol
_atom_site_label
_atom_site_fract_x
_atom_site_fract_y
_atom_site_fract_z
Si Si1 0.968255 0.906222 0.951041
Si Si2 0.000000 0.750000 0.250000
Si Si3 0.500000 0.919701 0.750000
Si Si4 0.500000 0.750000 0.547664
Si Si5 0.750000 0.000000 0.862092
Si Si6 0.737886 0.832325 0.647909
O O1 0.445455 0.964104 0.090684
O O2 0.208768 0.904429 0.003843
O O3 0.023322 0.855957 0.896748
O O4 0.203443 0.782609 0.298144
O O5 0.630198 0.956587 0.808827
O O6 0.674497 0.881576 0.700960
O O7 0.750000 0.750000 0.500000
O O8 0.535065 0.806732 0.591396
#
# Coordination Sequence:
#
# PCOD9508988 Si02
#       6
#    16   4   8   8   8  16
#     4  12  26  46  74 107 147 195 247 309 375 446
#     4   8  20  44  76 110 152 200 256 314 380 450
#     4  11  24  45  72 106 146 197 248 307 370 440
#     4  11  24  45  74 109 148 191 242 304 370 445
#     4  12  26  46  74 110 150 198 254 312 374 448
#     4  10  22  44  73 108 149 196 250 309 375 447
#
# _framework density 24.914529000000002
#
# number of rings (size 3 to 8) (size 9 to 14) (size 15 to 20)
#    0.000    1.067    0.000    5.600    0.000    4.267 
#    0.000    5.333    0.000   15.200    0.000    0.000 
#    0.000    0.000    0.000    0.000    0.000    0.000 
#
# Total GULP energy -167497.806830 kJ/mol
# GULP energy per Si atom -5583.260228 kJ/mol
# Density = 2.485782 g / cm^3
# Si number density = 24.914529 Si / 1000 Ang^3
#
#
#
# Elastic Constant Matrix: (Units=GPa)
#
#
# Indices 1 2 3 4 5 6 
#
# 1 148.9246 72.2207 95.8861 0.0000 0.0000 0.0000
# 2 72.2207 149.7822 91.2026 0.0000 0.0000 0.0000
# 3 95.8861 91.2026 180.7229 0.0000 0.0000 0.0000
# 4 0.0000 0.0000 0.0000 52.1999 0.0000 0.0000
# 5 0.0000 0.0000 0.0000 0.0000 23.1024 0.0000
# 6 0.0000 0.0000 0.0000 0.0000 0.0000 25.2334
#
#
#
# Elastic Compliance Matrix: (Units=1/GPa)
#
#
# Indices 1 2 3 4 5 6 
#
# 1 0.010802 -0.002481 -0.004479 0.000000 0.000000 0.000000
# 2 -0.002481 0.010208 -0.003835 0.000000 0.000000 0.000000
# 3 -0.004479 -0.003835 0.009845 0.000000 0.000000 0.000000
# 4 0.000000 0.000000 0.000000 0.019157 0.000000 0.000000
# 5 0.000000 0.000000 0.000000 0.000000 0.043286 0.000000
# 6 0.000000 0.000000 0.000000 0.000000 0.000000 0.039630
#
#
# Mechanical properties :
#
#
# Convention : Reuss Voigt Hill
#
# Bulk Modulus (GPa) = 107.93871 110.89428 109.41649
# Shear Modulus (GPa) = 31.72465 34.78181 33.25323
#
# Velocity S-wave (km/s) = 3.57226 3.74042 3.65731
# Velocity P-wave (km/s) = 7.77383 7.95367 7.86426
#
# Compressibility (1/GPa) = 0.00926452
#
# Stress axis : x y z
#
# Youngs Moduli (GPa) = 92.57659 97.96411 101.57268
#
# Poissons Ratio (x) = 0.24305 0.45495
# Poissons Ratio (y) = 0.22969 0.38954
# Poissons Ratio (z) = 0.41466 0.37570
#
# Static dielectric constant tensor:
#      x y z
#    x 2.000050 0.000000 0.000000 
#    y 0.000000 1.961240 0.000000 
#    z 0.000000 0.000000 2.055890 
# 
# From -- ./inp_files/27041.got.cif
#   From: 2010.05.17/outbox.cif.g08.bks.cpg/sg68_14_cif.got.tgz:27041.got - 2010.06.03 18:57:09.
