data_PCOD9508312
_publ_section_title
;
Structure prediction by ZEFSAII (Michael W. Deem and Ramdas Pophale) SiO2 
 PCOD9508312
Probable space group: C C C A
;
_chemical_formula_sum "Si O2"
_cell_formula_units_Z 88
_cell_length_a 28.035230
_cell_length_b 5.551123
_cell_length_c 27.604908
_cell_angle_alpha 90.000000
_cell_angle_beta 90.000000
_cell_angle_gamma 90.000000
_cell_volume 4296.069295
_symmetry_space_group_name_H-M "C C C A"
_symmetry_group_IT_number 68
_space_group.IT_coordinate_system_code '2'
_symmetry_cell_setting 'orthorhombic'
loop_
_space_group_symop_operation_xyz
x,y,z
-x,1/2-y,z
x,1/2-y,1/2-z
-x,y,1/2-z
-x,-y,-z
x,1/2+y,-z
-x,1/2+y,1/2+z
x,-y,1/2+z
1/2+x,1/2+y,z
1/2-x,-y,z
1/2+x,-y,1/2-z
1/2-x,1/2+y,1/2-z
1/2-x,1/2-y,-z
1/2+x,y,-z
1/2-x,y,1/2+z
1/2+x,1/2-y,1/2+z
loop_
_atom_site_type_symbol
_atom_site_label
_atom_site_fract_x
_atom_site_fract_y
_atom_site_fract_z
Si Si1 0.125344 0.603134 0.609459
Si Si2 0.798018 0.040412 0.345730
Si Si3 0.131370 0.345733 0.702965
Si Si4 0.303355 0.750000 0.250000
Si Si5 0.557081 0.258689 0.527590
Si Si6 0.305417 0.967876 0.970337
O O1 0.163873 0.796801 0.627342
O O2 0.105952 0.468729 0.657269
O O3 0.084461 0.723948 0.577790
O O4 0.157595 0.441430 0.573740
O O5 0.776898 0.187839 0.299212
O O6 0.750000 0.000000 0.376355
O O7 0.830283 0.828921 0.323426
O O8 0.102259 0.250000 0.750000
O O9 0.163090 0.538822 0.731493
O O10 0.500000 0.250000 0.533852
O O11 0.569413 0.518232 0.503971
O O12 0.250000 0.000000 0.954695
O O13 0.313228 0.725669 0.002292
#
# Coordination Sequence:
#
# PCOD9508312 Si02
#       6
#    16  16  16   8  16  16
#     4  11  23  35  61  88 122 169 206 259 321 384
#     4  10  22  31  52  80 118 163 215 256 306 370
#     4   9  20  37  53  82 121 163 214 263 307 372
#     4   8  18  34  48  74 109 164 208 265 308 344
#     4  10  23  44  71 101 130 157 207 270 330 394
#     4  10  23  38  54  79 117 161 209 253 300 368
#
# _framework density 20.483841999999999
#
# number of rings (size 3 to 8) (size 9 to 14) (size 15 to 20)
#    0.000    2.182    0.000    1.091   11.455    2.182 
#    0.000    0.000    0.000    0.000    0.000   29.273 
#    0.000    0.000    0.000    0.000    0.000    0.000 
#
# Total GULP energy -245038.930313 kJ/mol
# GULP energy per Si atom -5569.066598 kJ/mol
# Density = 2.043722 g / cm^3
# Si number density = 20.483842 Si / 1000 Ang^3
#
#
#
# Elastic Constant Matrix: (Units=GPa)
#
#
# Indices 1 2 3 4 5 6 
#
# 1 43.2126 22.0833 49.1671 0.0000 0.0000 0.0000
# 2 22.0833 86.5237 45.1154 0.0000 0.0000 0.0000
# 3 49.1671 45.1154 124.4649 0.0000 0.0000 0.0000
# 4 0.0000 0.0000 0.0000 31.0209 0.0000 0.0000
# 5 0.0000 0.0000 0.0000 0.0000 -15.9049 0.0000
# 6 0.0000 0.0000 0.0000 0.0000 0.0000 15.1866
#
#
#
# Elastic Compliance Matrix: (Units=1/GPa)
#
#
# Indices 1 2 3 4 5 6 
#
# 1 0.042496 -0.002581 -0.015852 0.000000 0.000000 0.000000
# 2 -0.002581 0.014408 -0.004203 0.000000 0.000000 0.000000
# 3 -0.015852 -0.004203 0.015820 0.000000 0.000000 0.000000
# 4 0.000000 0.000000 0.000000 0.032236 0.000000 0.000000
# 5 0.000000 0.000000 0.000000 0.000000 -0.062874 0.000000
# 6 0.000000 0.000000 0.000000 0.000000 0.000000 0.065848
#
#
# Mechanical properties :
#
#
# Convention : Reuss Voigt Hill
#
# Bulk Modulus (GPa) = 36.42621 54.10366 45.26494
# Shear Modulus (GPa) = 30.79647 15.24953 23.02300
#
# Velocity S-wave (km/s) = 3.88164 2.73145 3.35619
# Velocity P-wave (km/s) = 6.15719 6.03473 6.09627
#
# Compressibility (1/GPa) = 0.02745276
#
# Stress axis : x y z
#
# Youngs Moduli (GPa) = 23.53144 69.40714 63.21209
#
# Poissons Ratio (x) = 0.17913 1.00202
# Poissons Ratio (y) = 0.06073 0.26568
# Poissons Ratio (z) = 0.37302 0.29171
#
# Static dielectric constant tensor:
#      x y z
#    x 1.710650 0.000000 0.000000 
#    y 0.000000 1.885430 0.000000 
#    z 0.000000 0.000000 1.844330 
# 
# From -- ./inp_files/42405.got.cif
#   From: 2010.05.17/outbox.cif.g08.bks.cpg/sg68_22_cif.got.tgz:42405.got - 2010.06.03 18:57:09.
