data_PCOD9508207
_publ_section_title
;
Structure prediction by ZEFSAII (Michael W. Deem and Ramdas Pophale) SiO2 
 PCOD9508207
Probable space group: C C C A
;
_chemical_formula_sum "Si O2"
_cell_formula_units_Z 112
_cell_length_a 12.463032
_cell_length_b 14.788710
_cell_length_c 24.507810
_cell_angle_alpha 90.000000
_cell_angle_beta 90.000000
_cell_angle_gamma 90.000000
_cell_volume 4517.087544
_symmetry_space_group_name_H-M "C C C A"
_symmetry_group_IT_number 68
_space_group.IT_coordinate_system_code '2'
_symmetry_cell_setting 'orthorhombic'
loop_
_space_group_symop_operation_xyz
x,y,z
-x,1/2-y,z
x,1/2-y,1/2-z
-x,y,1/2-z
-x,-y,-z
x,1/2+y,-z
-x,1/2+y,1/2+z
x,-y,1/2+z
1/2+x,1/2+y,z
1/2-x,-y,z
1/2+x,-y,1/2-z
1/2-x,1/2+y,1/2-z
1/2-x,1/2-y,-z
1/2+x,y,-z
1/2-x,y,1/2+z
1/2+x,1/2-y,1/2+z
loop_
_atom_site_type_symbol
_atom_site_label
_atom_site_fract_x
_atom_site_fract_y
_atom_site_fract_z
Si Si1 0.811163 0.162025 0.370581
Si Si2 0.223394 0.142339 0.249308
Si Si3 0.923398 0.352088 0.919719
Si Si4 0.533419 0.085712 0.672891
Si Si5 0.305314 0.631870 0.086316
Si Si6 0.558488 0.110381 0.199273
Si Si7 0.359074 0.152484 0.039183
O O1 0.759856 0.123065 0.314871
O O2 0.803158 0.270308 0.381517
O O3 0.743651 0.126339 0.423252
O O4 0.935388 0.141138 0.354537
O O5 0.237445 0.250000 0.250000
O O6 0.106592 0.123088 0.276416
O O7 0.317393 0.096708 0.284026
O O8 0.813564 0.406219 0.920585
O O9 0.945757 0.335892 0.856329
O O10 0.888792 0.257605 0.947848
O O11 0.029780 0.395642 0.944362
O O12 0.616597 0.075948 0.623711
O O13 0.499942 0.985058 0.689056
O O14 0.343526 0.646031 0.024846
O O15 0.500000 0.154060 0.250000
#
# Coordination Sequence:
#
# PCOD9508207 Si02
#       7
#    16  16  16  16  16  16  16
#     4  11  22  40  68 105 137 178 240 298 360 426
#     4  12  23  42  68 105 138 182 240 297 355 438
#     4  10  21  42  68 100 133 185 244 285 373 420
#     4  12  26  42  68 104 147 193 228 295 379 445
#     4  11  23  41  71 102 141 185 240 311 357 417
#     4  12  26  46  68  99 149 193 229 296 374 446
#     4  10  23  41  71 104 139 182 245 319 343 421
#
# _framework density 24.794737999999999
#
# number of rings (size 3 to 8) (size 9 to 14) (size 15 to 20)
#    0.000    0.857    2.857    5.571    6.000    2.000 
#    0.000    2.857    3.143    0.000    0.000    0.000 
#    0.000    0.000    0.000    0.000    0.000    0.000 
#
# Total GULP energy -312870.509062 kJ/mol
# GULP energy per Si atom -5586.973376 kJ/mol
# Density = 2.473830 g / cm^3
# Si number density = 24.794738 Si / 1000 Ang^3
#
#
#
# Elastic Constant Matrix: (Units=GPa)
#
#
# Indices 1 2 3 4 5 6 
#
# 1 126.9872 22.3706 27.1846 0.0000 0.0000 0.0000
# 2 22.3706 48.0233 17.0515 0.0000 0.0000 0.0000
# 3 27.1846 17.0515 197.4863 0.0000 0.0000 0.0000
# 4 0.0000 0.0000 0.0000 12.8174 0.0000 0.0000
# 5 0.0000 0.0000 0.0000 0.0000 31.0556 0.0000
# 6 0.0000 0.0000 0.0000 0.0000 0.0000 21.1263
#
#
#
# Elastic Compliance Matrix: (Units=1/GPa)
#
#
# Indices 1 2 3 4 5 6 
#
# 1 0.008724 -0.003752 -0.000877 0.000000 0.000000 0.000000
# 2 -0.003752 0.023096 -0.001478 0.000000 0.000000 0.000000
# 3 -0.000877 -0.001478 0.005312 0.000000 0.000000 0.000000
# 4 0.000000 0.000000 0.000000 0.078019 0.000000 0.000000
# 5 0.000000 0.000000 0.000000 0.000000 0.032200 0.000000
# 6 0.000000 0.000000 0.000000 0.000000 0.000000 0.047334
#
#
# Mechanical properties :
#
#
# Convention : Reuss Voigt Hill
#
# Bulk Modulus (GPa) = 40.13214 56.19002 48.16108
# Shear Modulus (GPa) = 23.23373 33.39253 28.31313
#
# Velocity S-wave (km/s) = 3.06444 3.67380 3.38287
# Velocity P-wave (km/s) = 5.36115 6.38021 5.89275
#
# Compressibility (1/GPa) = 0.02491769
#
# Stress axis : x y z
#
# Youngs Moduli (GPa) = 114.63224 43.29782 188.25563
#
# Poissons Ratio (x) = 0.16247 0.16507
# Poissons Ratio (y) = 0.43014 0.27817
# Poissons Ratio (z) = 0.10051 0.06398
#
# Static dielectric constant tensor:
#      x y z
#    x 2.431120 0.000000 0.000000 
#    y 0.000000 2.035710 0.000000 
#    z 0.000000 0.000000 1.930230 
# 
# From -- ./inp_files/45560.got.cif
#   From: 2010.05.17/outbox.cif.g08.bks.cpg/sg68_23_cif.got.tgz:45560.got - 2010.06.03 18:57:09.
