data_PCOD9508062
_publ_section_title
;
Structure prediction by ZEFSAII (Michael W. Deem and Ramdas Pophale) SiO2 
 PCOD9508062
Probable space group: C C C A
;
_chemical_formula_sum "Si O2"
_cell_formula_units_Z 104
_cell_length_a 18.352345
_cell_length_b 14.490616
_cell_length_c 21.200543
_cell_angle_alpha 90.000000
_cell_angle_beta 90.000000
_cell_angle_gamma 90.000000
_cell_volume 5638.004226
_symmetry_space_group_name_H-M "C C C A"
_symmetry_group_IT_number 68
_space_group.IT_coordinate_system_code '2'
_symmetry_cell_setting 'orthorhombic'
loop_
_space_group_symop_operation_xyz
x,y,z
-x,1/2-y,z
x,1/2-y,1/2-z
-x,y,1/2-z
-x,-y,-z
x,1/2+y,-z
-x,1/2+y,1/2+z
x,-y,1/2+z
1/2+x,1/2+y,z
1/2-x,-y,z
1/2+x,-y,1/2-z
1/2-x,1/2+y,1/2-z
1/2-x,1/2-y,-z
1/2+x,y,-z
1/2-x,y,1/2+z
1/2+x,1/2-y,1/2+z
loop_
_atom_site_type_symbol
_atom_site_label
_atom_site_fract_x
_atom_site_fract_y
_atom_site_fract_z
Si Si1 0.415344 0.118400 0.759538
Si Si2 0.579302 0.788200 0.591983
Si Si3 0.822093 0.848140 0.329771
Si Si4 0.077728 0.096034 0.782525
Si Si5 0.185261 0.819198 0.521775
Si Si6 0.661616 0.275338 0.659739
Si Si7 0.250000 0.000000 0.087707
O O1 0.500000 0.142408 0.750000
O O2 0.376903 0.137313 0.692709
O O3 0.373943 0.186660 0.807372
O O4 0.411390 0.013671 0.781612
O O5 0.500000 0.750000 0.574042
O O6 0.622723 0.704882 0.624862
O O7 0.575342 0.863677 0.647569
O O8 0.626249 0.824073 0.533381
O O9 0.859247 0.862401 0.262050
O O10 0.747379 0.789490 0.326990
O O11 0.802983 0.943812 0.365089
O O12 0.000000 0.117309 0.750000
O O13 0.250000 0.750000 0.500000
O O14 0.151612 0.775875 0.585254
O O15 0.214967 0.919404 0.544345
#
# Coordination Sequence:
#
# PCOD9508062 Si02
#       7
#    16  16  16  16  16  16   8
#     4  10  23  41  65  97 127 164 218 269 321 371
#     4  12  25  42  63  95 128 171 211 258 328 382
#     4  11  22  41  64  91 126 168 214 259 319 375
#     4  11  23  40  64  92 129 167 213 267 314 377
#     4  11  23  43  65  93 131 170 213 262 318 386
#     4  10  21  40  67  93 127 167 206 266 322 372
#     4  10  22  44  70  88 126 172 212 272 316 380
#
# _framework density 18.446242999999999
#
# number of rings (size 3 to 8) (size 9 to 14) (size 15 to 20)
#    0.000    1.231    4.615    3.231    4.308    2.462 
#    0.000    0.769    0.000    0.000    0.000    0.000 
#    0.000    0.000    0.000    0.000    0.000    0.000 
#
# Total GULP energy -290364.461949 kJ/mol
# GULP energy per Si atom -5583.931961 kJ/mol
# Density = 1.840426 g / cm^3
# Si number density = 18.446243 Si / 1000 Ang^3
#
#
#
# Elastic Constant Matrix: (Units=GPa)
#
#
# Indices 1 2 3 4 5 6 
#
# 1 124.7465 40.2535 57.5043 0.0000 0.0000 0.0000
# 2 40.2535 95.4797 48.0487 0.0000 0.0000 0.0000
# 3 57.5043 48.0487 163.1199 0.0000 0.0000 0.0000
# 4 0.0000 0.0000 0.0000 21.8861 0.0000 0.0000
# 5 0.0000 0.0000 0.0000 0.0000 38.0087 0.0000
# 6 0.0000 0.0000 0.0000 0.0000 0.0000 26.1410
#
#
#
# Elastic Compliance Matrix: (Units=1/GPa)
#
#
# Indices 1 2 3 4 5 6 
#
# 1 0.010226 -0.002932 -0.002741 0.000000 0.000000 0.000000
# 2 -0.002932 0.013137 -0.002836 0.000000 0.000000 0.000000
# 3 -0.002741 -0.002836 0.007932 0.000000 0.000000 0.000000
# 4 0.000000 0.000000 0.000000 0.045691 0.000000 0.000000
# 5 0.000000 0.000000 0.000000 0.000000 0.026310 0.000000
# 6 0.000000 0.000000 0.000000 0.000000 0.000000 0.038254
#
#
# Mechanical properties :
#
#
# Convention : Reuss Voigt Hill
#
# Bulk Modulus (GPa) = 70.04430 74.99546 72.51988
# Shear Modulus (GPa) = 30.61347 33.04312 31.82829
#
# Velocity S-wave (km/s) = 4.07824 4.23699 4.15837
# Velocity P-wave (km/s) = 7.76084 8.04242 7.90289
#
# Compressibility (1/GPa) = 0.01427668
#
# Stress axis : x y z
#
# Youngs Moduli (GPa) = 97.79057 76.12338 126.06744
#
# Poissons Ratio (x) = 0.22316 0.34560
# Poissons Ratio (y) = 0.28668 0.35753
# Poissons Ratio (z) = 0.26808 0.21589
#
# Static dielectric constant tensor:
#      x y z
#    x 1.665900 0.000000 0.000000 
#    y 0.000000 1.650090 0.000000 
#    z 0.000000 0.000000 1.625100 
# 
# From -- ./inp_files/39605.got.cif
#   From: 2010.05.17/outbox.cif.g08.bks.cpg/sg68_20_cif.got.tgz:39605.got - 2010.06.03 18:57:09.
