data_PCOD9508771
_publ_section_title
;
Structure prediction by ZEFSAII (Michael W. Deem and Ramdas Pophale) SiO2 
 PCOD9508771
Probable space group: C C C A
;
_chemical_formula_sum "Si O2"
_cell_formula_units_Z 104
_cell_length_a 9.079872
_cell_length_b 27.139496
_cell_length_c 21.850542
_cell_angle_alpha 90.000000
_cell_angle_beta 90.000000
_cell_angle_gamma 90.000000
_cell_volume 5384.479385
_symmetry_space_group_name_H-M "C C C A"
_symmetry_group_IT_number 68
_space_group.IT_coordinate_system_code '2'
_symmetry_cell_setting 'orthorhombic'
loop_
_space_group_symop_operation_xyz
x,y,z
-x,1/2-y,z
x,1/2-y,1/2-z
-x,y,1/2-z
-x,-y,-z
x,1/2+y,-z
-x,1/2+y,1/2+z
x,-y,1/2+z
1/2+x,1/2+y,z
1/2-x,-y,z
1/2+x,-y,1/2-z
1/2-x,1/2+y,1/2-z
1/2-x,1/2-y,-z
1/2+x,y,-z
1/2-x,y,1/2+z
1/2+x,1/2-y,1/2+z
loop_
_atom_site_type_symbol
_atom_site_label
_atom_site_fract_x
_atom_site_fract_y
_atom_site_fract_z
Si Si1 0.289354 0.121525 0.520410
Si Si2 0.500000 0.750000 0.841281
Si Si3 0.094265 0.408027 0.690463
Si Si4 0.938393 0.914396 0.581873
Si Si5 0.750000 0.000000 0.145474
Si Si6 0.110314 0.152211 0.302875
Si Si7 0.742411 0.750000 0.250000
Si Si8 0.990319 0.344586 0.581012
O O1 0.173443 0.097527 0.473471
O O2 0.394504 0.083554 0.556959
O O3 0.406295 0.150728 0.478480
O O4 0.181905 0.153926 0.563041
O O5 0.639036 0.768112 0.800776
O O6 0.539055 0.703800 0.882954
O O7 0.149165 0.463379 0.683739
O O8 0.233831 0.373813 0.701677
O O9 0.021203 0.390031 0.627079
O O10 0.000000 0.401590 0.750000
O O11 0.940856 0.868536 0.630767
O O12 0.863454 0.963235 0.610327
O O13 0.145603 0.209025 0.285213
O O14 0.000000 0.134433 0.250000
#
# Coordination Sequence:
#
# PCOD9508771 Si02
#       8
#    16   8  16  16   8  16   8  16
#     4  10  22  42  67  86 131 166 215 256 325 366
#     4  11  22  36  68  92 128 164 223 248 322 376
#     4  11  23  44  65  92 132 164 208 266 321 385
#     4  10  22  42  63  95 123 168 207 269 311 388
#     4  10  22  42  66  94 130 160 214 264 328 372
#     4  11  23  39  64  94 130 161 208 265 316 371
#     4  11  21  38  60  98 124 170 204 264 314 390
#     4  11  22  43  63  96 123 175 206 270 308 381
#
# _framework density 19.314774
#
# number of rings (size 3 to 8) (size 9 to 14) (size 15 to 20)
#    0.000    1.385    4.615    1.154    4.308    3.692 
#    0.000    0.000    0.000    0.000    0.000    0.000 
#    0.000    0.000    0.000    0.000    0.000    0.000 
#
# Total GULP energy -289609.629100 kJ/mol
# GULP energy per Si atom -5569.415944 kJ/mol
# Density = 1.927081 g / cm^3
# Si number density = 19.314774 Si / 1000 Ang^3
#
#
#
# Elastic Constant Matrix: (Units=GPa)
#
#
# Indices 1 2 3 4 5 6 
#
# 1 105.9302 4.1878 44.2492 0.0000 0.0000 0.0000
# 2 4.1878 50.6784 9.9297 0.0000 0.0000 0.0000
# 3 44.2492 9.9297 76.3574 0.0000 0.0000 0.0000
# 4 0.0000 0.0000 0.0000 -28.1262 0.0000 0.0000
# 5 0.0000 0.0000 0.0000 0.0000 17.7048 0.0000
# 6 0.0000 0.0000 0.0000 0.0000 0.0000 18.5749
#
#
#
# Elastic Compliance Matrix: (Units=1/GPa)
#
#
# Indices 1 2 3 4 5 6 
#
# 1 0.012463 0.000395 -0.007274 0.000000 0.000000 0.000000
# 2 0.000395 0.020261 -0.002864 0.000000 0.000000 0.000000
# 3 -0.007274 -0.002864 0.017684 0.000000 0.000000 0.000000
# 4 0.000000 0.000000 0.000000 -0.035554 0.000000 0.000000
# 5 0.000000 0.000000 0.000000 0.000000 0.056482 0.000000
# 6 0.000000 0.000000 0.000000 0.000000 0.000000 0.053836
#
#
# Mechanical properties :
#
#
# Convention : Reuss Voigt Hill
#
# Bulk Modulus (GPa) = 32.33831 38.85547 35.59689
# Shear Modulus (GPa) = 32.26562 13.27064 22.76813
#
# Velocity S-wave (km/s) = 4.09163 2.62405 3.43708
# Velocity P-wave (km/s) = 6.25308 5.41678 5.84989
#
# Compressibility (1/GPa) = 0.03092308
#
# Stress axis : x y z
#
# Youngs Moduli (GPa) = 80.23811 49.35651 56.54881
#
# Poissons Ratio (x) = -0.01951 0.41132
# Poissons Ratio (y) = -0.03172 0.16195
# Poissons Ratio (z) = 0.58363 0.14135
#
# Static dielectric constant tensor:
#      x y z
#    x 1.699330 0.000000 0.000000 
#    y 0.000000 1.708870 0.000000 
#    z 0.000000 0.000000 1.673710 
# 
# From -- ./inp_files/43506.got.cif
#   From: 2010.05.17/outbox.cif.g08.bks.cpg/sg68_22_cif.got.tgz:43506.got - 2010.06.03 18:57:09.
