data_PCOD9508484
_publ_section_title
;
Structure prediction by ZEFSAII (Michael W. Deem and Ramdas Pophale) SiO2 
 PCOD9508484
Probable space group: C C C A
;
_chemical_formula_sum "Si O2"
_cell_formula_units_Z 64
_cell_length_a 36.491378
_cell_length_b 13.504979
_cell_length_c 5.135463
_cell_angle_alpha 90.000000
_cell_angle_beta 90.000000
_cell_angle_gamma 90.000000
_cell_volume 2530.834706
_symmetry_space_group_name_H-M "C C C A"
_symmetry_group_IT_number 68
_space_group.IT_coordinate_system_code '2'
_symmetry_cell_setting 'orthorhombic'
loop_
_space_group_symop_operation_xyz
x,y,z
-x,1/2-y,z
x,1/2-y,1/2-z
-x,y,1/2-z
-x,-y,-z
x,1/2+y,-z
-x,1/2+y,1/2+z
x,-y,1/2+z
1/2+x,1/2+y,z
1/2-x,-y,z
1/2+x,-y,1/2-z
1/2-x,1/2+y,1/2-z
1/2-x,1/2-y,-z
1/2+x,y,-z
1/2-x,y,1/2+z
1/2+x,1/2-y,1/2+z
loop_
_atom_site_type_symbol
_atom_site_label
_atom_site_fract_x
_atom_site_fract_y
_atom_site_fract_z
Si Si1 0.657240 0.819944 0.503864
Si Si2 0.541712 0.129647 0.763922
Si Si3 0.734510 0.389464 0.664937
Si Si4 0.913769 0.869884 0.255132
O O1 0.646701 0.750000 0.250000
O O2 0.692951 0.881251 0.424215
O O3 0.625376 0.891463 0.619622
O O4 0.666340 0.750000 0.750000
O O5 0.540218 0.250000 0.750000
O O6 0.500000 0.093727 0.750000
O O7 0.571590 0.102634 0.540846
O O8 0.555848 0.101657 0.047177
O O9 0.750000 0.500000 0.709323
O O10 0.761116 0.344253 0.448589
O O11 0.912355 0.750000 0.250000
#
# Coordination Sequence:
#
# PCOD9508484 Si02
#       4
#    16  16  16  16
#     4  11  21  33  52  77 105 139 181 230 280 329
#     4   9  15  23  37  57  87 131 174 206 242 297
#     4  10  22  39  56  75 102 138 175 226 285 338
#     4   9  16  26  38  60  93 127 167 213 254 298
#
# _framework density 25.288101000000001
#
# number of rings (size 3 to 8) (size 9 to 14) (size 15 to 20)
#    0.000    2.250    0.000    6.000    0.000    6.000 
#    0.000    0.000    0.000    0.000    0.000    0.000 
#    0.000    0.000    0.000   90.000    0.000   94.000 
#
# Total GULP energy -178701.441796 kJ/mol
# GULP energy per Si atom -5584.420056 kJ/mol
# Density = 2.523054 g / cm^3
# Si number density = 25.288101 Si / 1000 Ang^3
#
#
#
# Elastic Constant Matrix: (Units=GPa)
#
#
# Indices 1 2 3 4 5 6 
#
# 1 158.8721 16.4500 5.7355 0.0000 0.0000 0.0000
# 2 16.4500 85.0997 -8.2395 0.0000 0.0000 0.0000
# 3 5.7355 -8.2395 137.0863 0.0000 0.0000 0.0000
# 4 0.0000 0.0000 0.0000 -20.3710 0.0000 0.0000
# 5 0.0000 0.0000 0.0000 0.0000 45.9839 0.0000
# 6 0.0000 0.0000 0.0000 0.0000 0.0000 24.6735
#
#
#
# Elastic Compliance Matrix: (Units=1/GPa)
#
#
# Indices 1 2 3 4 5 6 
#
# 1 0.006439 -0.001278 -0.000346 0.000000 0.000000 0.000000
# 2 -0.001278 0.012073 0.000779 0.000000 0.000000 0.000000
# 3 -0.000346 0.000779 0.007356 0.000000 0.000000 0.000000
# 4 0.000000 0.000000 0.000000 -0.049089 0.000000 0.000000
# 5 0.000000 0.000000 0.000000 0.000000 0.021747 0.000000
# 6 0.000000 0.000000 0.000000 0.000000 0.000000 0.040529
#
#
# Mechanical properties :
#
#
# Convention : Reuss Voigt Hill
#
# Bulk Modulus (GPa) = 41.35991 45.43890 43.39940
# Shear Modulus (GPa) = 102.44798 34.53142 68.48970
#
# Velocity S-wave (km/s) = 6.37183 3.69930 5.20985
# Velocity P-wave (km/s) = 8.39790 6.02113 7.30680
#
# Compressibility (1/GPa) = 0.02417800
#
# Stress axis : x y z
#
# Youngs Moduli (GPa) = 155.29822 82.82637 135.94362
#
# Poissons Ratio (x) = 0.10587 0.04707
# Poissons Ratio (y) = 0.19851 -0.10592
# Poissons Ratio (z) = 0.05377 -0.06453
#
# Static dielectric constant tensor:
#      x y z
#    x 1.995980 0.000000 0.000000 
#    y 0.000000 2.062310 0.000000 
#    z 0.000000 0.000000 2.016130 
# 
# From -- ./inp_files/2655.got.cif
#   From: 2010.05.17/outbox.cif.g08.bks.cpg/sg68_2_cif.got.tgz:2655.got - 2010.06.03 18:57:09.
