data_PCOD9508790
_publ_section_title
;
Structure prediction by ZEFSAII (Michael W. Deem and Ramdas Pophale) SiO2 
 PCOD9508790
Probable space group: C C C A
;
_chemical_formula_sum "Si O2"
_cell_formula_units_Z 72
_cell_length_a 10.512900
_cell_length_b 13.033183
_cell_length_c 26.238131
_cell_angle_alpha 90.000000
_cell_angle_beta 90.000000
_cell_angle_gamma 90.000000
_cell_volume 3595.058177
_symmetry_space_group_name_H-M "C C C A"
_symmetry_group_IT_number 68
_space_group.IT_coordinate_system_code '2'
_symmetry_cell_setting 'orthorhombic'
loop_
_space_group_symop_operation_xyz
x,y,z
-x,1/2-y,z
x,1/2-y,1/2-z
-x,y,1/2-z
-x,-y,-z
x,1/2+y,-z
-x,1/2+y,1/2+z
x,-y,1/2+z
1/2+x,1/2+y,z
1/2-x,-y,z
1/2+x,-y,1/2-z
1/2-x,1/2+y,1/2-z
1/2-x,1/2-y,-z
1/2+x,y,-z
1/2-x,y,1/2+z
1/2+x,1/2-y,1/2+z
loop_
_atom_site_type_symbol
_atom_site_label
_atom_site_fract_x
_atom_site_fract_y
_atom_site_fract_z
Si Si1 0.891298 0.494667 0.290321
Si Si2 0.390929 0.330104 0.627654
Si Si3 0.111781 0.679946 0.131984
Si Si4 0.500000 0.250000 0.466812
Si Si5 0.620928 0.563354 0.478822
O O1 0.750000 0.500000 0.266725
O O2 0.915591 0.387881 0.319235
O O3 0.887424 0.577452 0.335719
O O4 0.000000 0.516390 0.250000
O O5 0.500000 0.250000 0.615730
O O6 0.253689 0.276395 0.632920
O O7 0.381347 0.412043 0.581539
O O8 0.000000 0.750000 0.154370
O O9 0.074597 0.674841 0.072415
O O10 0.401955 0.322320 0.497001
O O11 0.500000 0.500000 0.500000
O O12 0.750000 0.500000 0.491563
#
# Coordination Sequence:
#
# PCOD9508790 Si02
#       5
#    16  16  16   8  16
#     4  10  22  43  66  90 124 163 209 264 325 385
#     4  11  23  41  63  91 130 165 209 268 320 377
#     4   9  22  42  63  90 128 162 210 259 318 381
#     4  10  22  42  65  94 129 170 226 252 320 396
#     4  12  25  39  65  94 132 175 219 264 321 382
#
# _framework density 20.027491999999999
#
# number of rings (size 3 to 8) (size 9 to 14) (size 15 to 20)
#    0.667    0.889    1.111    4.667    3.111    4.444 
#    0.000    5.556    0.000    0.000    0.000    0.000 
#    0.000    0.000    0.000    0.000    0.000    0.000 
#
# Total GULP energy -200663.991991 kJ/mol
# GULP energy per Si atom -5573.999778 kJ/mol
# Density = 1.998191 g / cm^3
# Si number density = 20.027492 Si / 1000 Ang^3
#
#
#
# Elastic Constant Matrix: (Units=GPa)
#
#
# Indices 1 2 3 4 5 6 
#
# 1 187.1972 66.9015 51.9864 0.0000 0.0000 0.0000
# 2 66.9015 60.2761 17.2411 0.0000 0.0000 0.0000
# 3 51.9864 17.2411 75.4236 0.0000 0.0000 0.0000
# 4 0.0000 0.0000 0.0000 -8.9897 0.0000 0.0000
# 5 0.0000 0.0000 0.0000 0.0000 18.7214 0.0000
# 6 0.0000 0.0000 0.0000 0.0000 0.0000 41.0121
#
#
#
# Elastic Compliance Matrix: (Units=1/GPa)
#
#
# Indices 1 2 3 4 5 6 
#
# 1 0.010242 -0.010003 -0.004773 0.000000 0.000000 0.000000
# 2 -0.010003 0.027520 0.000604 0.000000 0.000000 0.000000
# 3 -0.004773 0.000604 0.016410 0.000000 0.000000 0.000000
# 4 0.000000 0.000000 0.000000 -0.111239 0.000000 0.000000
# 5 0.000000 0.000000 0.000000 0.000000 0.053415 0.000000
# 6 0.000000 0.000000 0.000000 0.000000 0.000000 0.024383
#
#
# Mechanical properties :
#
#
# Convention : Reuss Voigt Hill
#
# Bulk Modulus (GPa) = 38.71718 66.12832 52.42275
# Shear Modulus (GPa) = 86.67602 22.59994 54.63798
#
# Velocity S-wave (km/s) = 6.58578 3.36288 5.22883
# Velocity P-wave (km/s) = 8.78658 6.94039 7.91748
#
# Compressibility (1/GPa) = 0.02582832
#
# Stress axis : x y z
#
# Youngs Moduli (GPa) = 97.63345 36.33710 60.93724
#
# Poissons Ratio (x) = 0.36348 0.29086
# Poissons Ratio (y) = 0.97662 -0.03679
# Poissons Ratio (z) = 0.46601 -0.02194
#
# Static dielectric constant tensor:
#      x y z
#    x 1.786010 0.000000 0.000000 
#    y 0.000000 1.752170 0.000000 
#    z 0.000000 0.000000 1.694000 
# 
# From -- ./inp_files/48919.got.cif
#   From: 2010.05.17/outbox.cif.g08.bks.cpg/sg68_25_cif.got.tgz:48919.got - 2010.06.03 18:57:09.
