data_PCOD9508844
_publ_section_title
;
Structure prediction by ZEFSAII (Michael W. Deem and Ramdas Pophale) SiO2 
 PCOD9508844
Probable space group: C C C A
;
_chemical_formula_sum "Si O2"
_cell_formula_units_Z 104
_cell_length_a 20.211219
_cell_length_b 8.600909
_cell_length_c 30.140444
_cell_angle_alpha 90.000000
_cell_angle_beta 90.000000
_cell_angle_gamma 90.000000
_cell_volume 5239.459724
_symmetry_space_group_name_H-M "C C C A"
_symmetry_group_IT_number 68
_space_group.IT_coordinate_system_code '2'
_symmetry_cell_setting 'orthorhombic'
loop_
_space_group_symop_operation_xyz
x,y,z
-x,1/2-y,z
x,1/2-y,1/2-z
-x,y,1/2-z
-x,-y,-z
x,1/2+y,-z
-x,1/2+y,1/2+z
x,-y,1/2+z
1/2+x,1/2+y,z
1/2-x,-y,z
1/2+x,-y,1/2-z
1/2-x,1/2+y,1/2-z
1/2-x,1/2-y,-z
1/2+x,y,-z
1/2-x,y,1/2+z
1/2+x,1/2-y,1/2+z
loop_
_atom_site_type_symbol
_atom_site_label
_atom_site_fract_x
_atom_site_fract_y
_atom_site_fract_z
Si Si1 0.877630 0.084416 0.367490
Si Si2 0.826779 0.862697 0.046345
Si Si3 0.929714 0.237166 0.618346
Si Si4 0.000000 0.750000 0.819183
Si Si5 0.177519 0.250000 0.750000
Si Si6 0.316754 0.764762 0.450053
Si Si7 0.055986 0.936576 0.287032
Si Si8 0.750000 0.000000 0.810251
O O1 0.942281 0.164202 0.346387
O O2 0.856018 0.182447 0.410589
O O3 0.811771 0.068241 0.337809
O O4 0.900643 0.907256 0.373667
O O5 0.878957 0.840782 0.085235
O O6 0.762716 0.753759 0.057312
O O7 0.820028 0.048948 0.045611
O O8 0.840896 0.810008 0.996095
O O9 0.945001 0.144761 0.664265
O O10 0.000000 0.250000 0.594689
O O11 0.958375 0.618252 0.793605
O O12 0.126873 0.378915 0.730259
O O13 0.222017 0.352816 0.782646
O O14 0.000000 0.897375 0.250000
#
# Coordination Sequence:
#
# PCOD9508844 Si02
#       8
#    16  16  16   8   8  16  16   8
#     4  12  25  46  68 103 140 186 237 296 358 439
#     4  10  22  43  69 105 136 187 227 291 354 430
#     4  12  23  44  69  98 138 185 231 286 360 420
#     4  12  27  44  72 104 138 184 248 290 371 442
#     4  12  27  46  70 101 142 180 244 302 370 419
#     4  10  22  42  72 100 141 179 236 286 356 434
#     4  12  25  47  72  99 137 187 239 299 362 441
#     4  12  28  46  68 104 140 190 234 310 364 430
#
# _framework density 19.849374000000001
#
# number of rings (size 3 to 8) (size 9 to 14) (size 15 to 20)
#    0.000    0.615    3.077    5.077    2.154    2.462 
#    1.385    1.538    0.000    0.000    0.000    0.000 
#    0.000    0.000    0.000    0.000    0.000    0.000 
#
# Total GULP energy -289917.594320 kJ/mol
# GULP energy per Si atom -5575.338352 kJ/mol
# Density = 1.980420 g / cm^3
# Si number density = 19.849374 Si / 1000 Ang^3
#
#
#
# Elastic Constant Matrix: (Units=GPa)
#
#
# Indices 1 2 3 4 5 6 
#
# 1 116.1759 46.1727 61.8268 0.0000 0.0000 0.0000
# 2 46.1727 127.2512 56.0105 0.0000 0.0000 0.0000
# 3 61.8268 56.0105 98.2149 0.0000 0.0000 0.0000
# 4 0.0000 0.0000 0.0000 51.8822 0.0000 0.0000
# 5 0.0000 0.0000 0.0000 0.0000 -5.7540 0.0000
# 6 0.0000 0.0000 0.0000 0.0000 0.0000 65.1265
#
#
#
# Elastic Compliance Matrix: (Units=1/GPa)
#
#
# Indices 1 2 3 4 5 6 
#
# 1 0.013157 -0.001507 -0.007423 0.000000 0.000000 0.000000
# 2 -0.001507 0.010665 -0.005133 0.000000 0.000000 0.000000
# 3 -0.007423 -0.005133 0.017782 0.000000 0.000000 0.000000
# 4 0.000000 0.000000 0.000000 0.019274 0.000000 0.000000
# 5 0.000000 0.000000 0.000000 0.000000 -0.173791 0.000000
# 6 0.000000 0.000000 0.000000 0.000000 0.000000 0.015355
#
#
# Mechanical properties :
#
#
# Convention : Reuss Voigt Hill
#
# Bulk Modulus (GPa) = 74.19874 74.40689 74.30282
# Shear Modulus (GPa) = -76.99473 34.09306 -21.45084
#
# Velocity S-wave (km/s) = -6.23488 4.14888 -3.29094
# Velocity P-wave (km/s) = 3.79072 7.77933 4.80357
#
# Compressibility (1/GPa) = 0.01347732
#
# Stress axis : x y z
#
# Youngs Moduli (GPa) = 76.00593 93.76746 56.23602
#
# Poissons Ratio (x) = 0.14127 0.41745
# Poissons Ratio (y) = 0.11451 0.28869
# Poissons Ratio (z) = 0.56420 0.48136
#
# Static dielectric constant tensor:
#      x y z
#    x 1.732130 0.000000 0.000000 
#    y 0.000000 1.869880 0.000000 
#    z 0.000000 0.000000 1.709580 
# 
# From -- ./inp_files/51886.got.cif
#   From: 2010.05.17/outbox.cif.g08.bks.cpg/sg68_26_cif.got.tgz:51886.got - 2010.06.03 18:57:09.
