data_PCOD9508695
_publ_section_title
;
Structure prediction by ZEFSAII (Michael W. Deem and Ramdas Pophale) SiO2 
 PCOD9508695
Probable space group: C C C A
;
_chemical_formula_sum "Si O2"
_cell_formula_units_Z 60
_cell_length_a 12.512498
_cell_length_b 8.594778
_cell_length_c 21.895417
_cell_angle_alpha 90.000000
_cell_angle_beta 90.000000
_cell_angle_gamma 90.000000
_cell_volume 2354.680056
_symmetry_space_group_name_H-M "C C C A"
_symmetry_group_IT_number 68
_space_group.IT_coordinate_system_code '2'
_symmetry_cell_setting 'orthorhombic'
loop_
_space_group_symop_operation_xyz
x,y,z
-x,1/2-y,z
x,1/2-y,1/2-z
-x,y,1/2-z
-x,-y,-z
x,1/2+y,-z
-x,1/2+y,1/2+z
x,-y,1/2+z
1/2+x,1/2+y,z
1/2-x,-y,z
1/2+x,-y,1/2-z
1/2-x,1/2+y,1/2-z
1/2-x,1/2-y,-z
1/2+x,y,-z
1/2-x,y,1/2+z
1/2+x,1/2-y,1/2+z
loop_
_atom_site_type_symbol
_atom_site_label
_atom_site_fract_x
_atom_site_fract_y
_atom_site_fract_z
Si Si1 0.053012 0.605808 0.584114
Si Si2 0.146142 0.397888 0.958639
Si Si3 0.750000 0.500000 0.337756
Si Si4 0.000000 0.750000 0.250000
Si Si5 0.191157 0.166350 0.674796
O O1 0.108488 0.674885 0.522400
O O2 0.143127 0.524053 0.623085
O O3 0.000000 0.750000 0.618773
O O4 0.957576 0.492905 0.564268
O O5 0.250000 0.500000 0.974078
O O6 0.179994 0.304786 0.898539
O O7 0.762769 0.665573 0.303375
O O8 0.075875 0.650778 0.293924
O O9 0.250000 0.000000 0.679699
#
# Coordination Sequence:
#
# PCOD9508695 Si02
#       5
#    16  16   8   4  16
#     4  11  23  36  67 107 152 202 243 289 365 456
#     4  10  22  41  64 101 152 194 242 305 364 441
#     4  12  26  46  78 114 152 198 248 300 382 466
#     4  12  28  52  86 106 144 202 252 332 402 428
#     4  11  27  50  76 108 147 189 251 316 375 451
#
# _framework density 25.481166999999999
#
# number of rings (size 3 to 8) (size 9 to 14) (size 15 to 20)
#    0.000    1.067    1.333    4.800   11.200    2.133 
#    0.000    1.333    0.000    0.000    0.000    0.000 
#    0.000    0.000    0.000    0.000    0.000    0.000 
#
# Total GULP energy -167868.643867 kJ/mol
# GULP energy per Si atom -5595.621462 kJ/mol
# Density = 2.542317 g / cm^3
# Si number density = 25.481167 Si / 1000 Ang^3
#
#
#
# Elastic Constant Matrix: (Units=GPa)
#
#
# Indices 1 2 3 4 5 6 
#
# 1 176.9306 78.4914 39.7662 0.0000 0.0000 0.0000
# 2 78.4914 197.7596 54.9304 0.0000 0.0000 0.0000
# 3 39.7662 54.9304 70.3372 0.0000 0.0000 0.0000
# 4 0.0000 0.0000 0.0000 21.3474 0.0000 0.0000
# 5 0.0000 0.0000 0.0000 0.0000 37.5628 0.0000
# 6 0.0000 0.0000 0.0000 0.0000 0.0000 49.0801
#
#
#
# Elastic Compliance Matrix: (Units=1/GPa)
#
#
# Indices 1 2 3 4 5 6 
#
# 1 0.007147 -0.002189 -0.002331 0.000000 0.000000 0.000000
# 2 -0.002189 0.007128 -0.004329 0.000000 0.000000 0.000000
# 3 -0.002331 -0.004329 0.018916 0.000000 0.000000 0.000000
# 4 0.000000 0.000000 0.000000 0.046844 0.000000 0.000000
# 5 0.000000 0.000000 0.000000 0.000000 0.026622 0.000000
# 6 0.000000 0.000000 0.000000 0.000000 0.000000 0.020375
#
#
# Mechanical properties :
#
#
# Convention : Reuss Voigt Hill
#
# Bulk Modulus (GPa) = 64.54729 87.93371 76.24050
# Shear Modulus (GPa) = 33.35680 39.72067 36.53874
#
# Velocity S-wave (km/s) = 3.62204 3.95248 3.79086
# Velocity P-wave (km/s) = 6.54818 7.44404 7.01043
#
# Compressibility (1/GPa) = 0.01549252
#
# Stress axis : x y z
#
# Youngs Moduli (GPa) = 139.91810 140.29227 52.86575
#
# Poissons Ratio (x) = 0.30713 0.12323
# Poissons Ratio (y) = 0.30631 0.22885
# Poissons Ratio (z) = 0.32615 0.60732
#
# Static dielectric constant tensor:
#      x y z
#    x 1.950300 0.000000 0.000000 
#    y 0.000000 2.085240 0.000000 
#    z 0.000000 0.000000 2.091730 
# 
# From -- ./inp_files/48754.got.cif
#   From: 2010.05.17/outbox.cif.g08.bks.cpg/sg68_25_cif.got.tgz:48754.got - 2010.06.03 18:57:09.
