data_PCOD9508645
_publ_section_title
;
Structure prediction by ZEFSAII (Michael W. Deem and Ramdas Pophale) SiO2 
 PCOD9508645
Probable space group: C C C A
;
_chemical_formula_sum "Si O2"
_cell_formula_units_Z 104
_cell_length_a 20.872554
_cell_length_b 27.613036
_cell_length_c 9.073268
_cell_angle_alpha 90.000000
_cell_angle_beta 90.000000
_cell_angle_gamma 90.000000
_cell_volume 5229.419613
_symmetry_space_group_name_H-M "C C C A"
_symmetry_group_IT_number 68
_space_group.IT_coordinate_system_code '2'
_symmetry_cell_setting 'orthorhombic'
loop_
_space_group_symop_operation_xyz
x,y,z
-x,1/2-y,z
x,1/2-y,1/2-z
-x,y,1/2-z
-x,-y,-z
x,1/2+y,-z
-x,1/2+y,1/2+z
x,-y,1/2+z
1/2+x,1/2+y,z
1/2-x,-y,z
1/2+x,-y,1/2-z
1/2-x,1/2+y,1/2-z
1/2-x,1/2-y,-z
1/2+x,y,-z
1/2-x,y,1/2+z
1/2+x,1/2-y,1/2+z
loop_
_atom_site_type_symbol
_atom_site_label
_atom_site_fract_x
_atom_site_fract_y
_atom_site_fract_z
Si Si1 0.084317 0.702063 0.339885
Si Si2 0.324014 0.364866 0.818449
Si Si3 0.194458 0.847819 0.331494
Si Si4 0.821148 0.476837 0.119612
Si Si5 0.877528 0.944798 0.187267
Si Si6 0.000000 0.612279 0.250000
Si Si7 0.927194 0.298958 0.312484
O O1 0.062820 0.750000 0.250000
O O2 0.150823 0.689853 0.257285
O O3 0.080987 0.709612 0.513794
O O4 0.043906 0.651777 0.332064
O O5 0.267302 0.343588 0.718149
O O6 0.320721 0.423199 0.810391
O O7 0.389486 0.344621 0.751530
O O8 0.315854 0.349100 0.990989
O O9 0.168362 0.899719 0.275119
O O10 0.750000 0.500000 0.124518
O O11 0.870940 0.513935 0.191944
O O12 0.846241 0.467971 0.956177
O O13 0.948424 0.922052 0.168386
O O14 0.896806 0.250000 0.250000
O O15 0.000000 0.301633 0.250000
#
# Coordination Sequence:
#
# PCOD9508645 Si02
#       7
#    16  16  16  16  16   8  16
#     4  11  24  43  73  95 129 177 225 273 341 405
#     4  11  23  42  67 100 138 171 225 280 338 403
#     4  10  22  40  68  97 132 172 220 280 341 395
#     4  11  22  38  67  94 132 176 223 272 337 392
#     4  10  23  40  61  93 131 171 221 270 326 398
#     4  10  25  42  66  92 130 172 221 270 334 394
#     4  11  27  44  67 100 140 172 225 275 338 404
#
# _framework density 19.887484000000001
#
# number of rings (size 3 to 8) (size 9 to 14) (size 15 to 20)
#    0.000    1.385    1.538    2.538   12.923    3.692 
#    1.385    3.077    0.000    0.000    0.000    0.000 
#    0.000    0.000    0.000    0.000    0.000    0.000 
#
# Total GULP energy -289778.257229 kJ/mol
# GULP energy per Si atom -5572.658793 kJ/mol
# Density = 1.984222 g / cm^3
# Si number density = 19.887484 Si / 1000 Ang^3
#
#
#
# Elastic Constant Matrix: (Units=GPa)
#
#
# Indices 1 2 3 4 5 6 
#
# 1 97.3587 49.6829 26.1660 0.0000 0.0000 0.0000
# 2 49.6829 115.7343 61.1978 0.0000 0.0000 0.0000
# 3 26.1660 61.1978 107.7779 0.0000 0.0000 0.0000
# 4 0.0000 0.0000 0.0000 15.3266 0.0000 0.0000
# 5 0.0000 0.0000 0.0000 0.0000 163.1435 0.0000
# 6 0.0000 0.0000 0.0000 0.0000 0.0000 29.1900
#
#
#
# Elastic Compliance Matrix: (Units=1/GPa)
#
#
# Indices 1 2 3 4 5 6 
#
# 1 0.013153 -0.005656 0.000018 0.000000 0.000000 0.000000
# 2 -0.005656 0.014780 -0.007019 0.000000 0.000000 0.000000
# 3 0.000018 -0.007019 0.013259 0.000000 0.000000 0.000000
# 4 0.000000 0.000000 0.000000 0.065246 0.000000 0.000000
# 5 0.000000 0.000000 0.000000 0.000000 0.006130 0.000000
# 6 0.000000 0.000000 0.000000 0.000000 0.000000 0.034258
#
#
# Mechanical properties :
#
#
# Convention : Reuss Voigt Hill
#
# Bulk Modulus (GPa) = 62.97765 66.10713 64.54239
# Shear Modulus (GPa) = 28.17975 53.78698 40.98336
#
# Velocity S-wave (km/s) = 3.76834 5.20618 4.54449
# Velocity P-wave (km/s) = 7.11825 8.33378 7.74988
#
# Compressibility (1/GPa) = 0.01587865
#
# Stress axis : x y z
#
# Youngs Moduli (GPa) = 76.03052 67.65861 75.41772
#
# Poissons Ratio (x) = 0.38267 -0.00138
# Poissons Ratio (y) = 0.43002 0.52937
# Poissons Ratio (z) = -0.00140 0.47491
#
# Static dielectric constant tensor:
#      x y z
#    x 1.762460 0.000000 0.000000 
#    y 0.000000 -0.168930 0.000000 
#    z 0.000000 0.000000 1.682990 
# 
# From -- ./inp_files/7354.got.cif
#   From: 2010.05.17/outbox.cif.g08.bks.cpg/sg68_4_cif.got.tgz:7354.got - 2010.06.03 18:57:09.
