data_PCOD9508493
_publ_section_title
;
Structure prediction by ZEFSAII (Michael W. Deem and Ramdas Pophale) SiO2 
 PCOD9508493
Probable space group: C C C A
;
_chemical_formula_sum "Si O2"
_cell_formula_units_Z 96
_cell_length_a 22.977881
_cell_length_b 10.196095
_cell_length_c 23.064447
_cell_angle_alpha 90.000000
_cell_angle_beta 90.000000
_cell_angle_gamma 90.000000
_cell_volume 5403.646068
_symmetry_space_group_name_H-M "C C C A"
_symmetry_group_IT_number 68
_space_group.IT_coordinate_system_code '2'
_symmetry_cell_setting 'orthorhombic'
loop_
_space_group_symop_operation_xyz
x,y,z
-x,1/2-y,z
x,1/2-y,1/2-z
-x,y,1/2-z
-x,-y,-z
x,1/2+y,-z
-x,1/2+y,1/2+z
x,-y,1/2+z
1/2+x,1/2+y,z
1/2-x,-y,z
1/2+x,-y,1/2-z
1/2-x,1/2+y,1/2-z
1/2-x,1/2-y,-z
1/2+x,y,-z
1/2-x,y,1/2+z
1/2+x,1/2-y,1/2+z
loop_
_atom_site_type_symbol
_atom_site_label
_atom_site_fract_x
_atom_site_fract_y
_atom_site_fract_z
Si Si1 0.747466 0.653861 0.055308
Si Si2 0.128970 0.757401 0.075342
Si Si3 0.570490 0.901124 0.254183
Si Si4 0.555538 0.995772 0.879565
Si Si5 0.620043 0.729037 0.063452
Si Si6 0.916390 0.006770 0.129435
O O1 0.750000 0.500000 0.039101
O O2 0.806110 0.690448 0.089321
O O3 0.684700 0.683239 0.082784
O O4 0.750000 0.750000 0.000000
O O5 0.117043 0.615108 0.101715
O O6 0.082780 0.860269 0.099821
O O7 0.122062 0.752093 0.005588
O O8 0.590212 0.750000 0.250000
O O9 0.500000 0.898241 0.250000
O O10 0.580894 0.965301 0.316426
O O11 0.593957 0.977054 0.198225
O O12 0.575651 0.112631 0.921808
O O13 0.485862 0.988617 0.877735
O O14 0.601686 0.859890 0.096930
#
# Coordination Sequence:
#
# PCOD9508493 Si02
#       6
#    16  16  16  16  16  16
#     4  10  22  39  60  82 113 159 203 235 276 344
#     4  11  24  37  56  88 123 151 188 241 296 345
#     4   9  18  36  59  81 110 156 205 232 268 344
#     4  11  21  38  60  85 120 156 189 240 291 341
#     4  11  22  37  61  85 118 155 194 234 287 349
#     4  11  23  36  59  90 117 154 195 234 291 349
#
# _framework density 17.765782999999999
#
# number of rings (size 3 to 8) (size 9 to 14) (size 15 to 20)
#    0.000    1.500    3.333    2.000    7.000    4.667 
#    0.000    2.500    0.000    6.000    0.000    0.000 
#    0.000    0.000    0.000    0.000    0.000    0.000 
#
# Total GULP energy -267867.496280 kJ/mol
# GULP energy per Si atom -5580.572839 kJ/mol
# Density = 1.772535 g / cm^3
# Si number density = 17.765783 Si / 1000 Ang^3
#
#
#
# Elastic Constant Matrix: (Units=GPa)
#
#
# Indices 1 2 3 4 5 6 
#
# 1 74.7361 13.9992 4.4596 0.0000 0.0000 0.0000
# 2 13.9992 65.3345 -15.0535 0.0000 0.0000 0.0000
# 3 4.4596 -15.0535 64.4585 0.0000 0.0000 0.0000
# 4 0.0000 0.0000 0.0000 -75.7710 0.0000 0.0000
# 5 0.0000 0.0000 0.0000 0.0000 -7.0395 0.0000
# 6 0.0000 0.0000 0.0000 0.0000 0.0000 30.5898
#
#
#
# Elastic Compliance Matrix: (Units=1/GPa)
#
#
# Indices 1 2 3 4 5 6 
#
# 1 0.014131 -0.003438 -0.001781 0.000000 0.000000 0.000000
# 2 -0.003438 0.017013 0.004211 0.000000 0.000000 0.000000
# 3 -0.001781 0.004211 0.016620 0.000000 0.000000 0.000000
# 4 0.000000 0.000000 0.000000 -0.013198 0.000000 0.000000
# 5 0.000000 0.000000 0.000000 0.000000 -0.142055 0.000000
# 6 0.000000 0.000000 0.000000 0.000000 0.000000 0.032691
#
#
# Mechanical properties :
#
#
# Convention : Reuss Voigt Hill
#
# Bulk Modulus (GPa) = 21.85855 23.48220 22.67038
# Shear Modulus (GPa) = -86.90626 2.96412 -41.97107
#
# Velocity S-wave (km/s) = -7.00171 1.29308 -4.86579
# Velocity P-wave (km/s) = 7.28250 3.93393 4.33354
#
# Compressibility (1/GPa) = 0.04574868
#
# Stress axis : x y z
#
# Youngs Moduli (GPa) = 70.76815 58.77945 60.16684
#
# Poissons Ratio (x) = 0.20209 0.10713
# Poissons Ratio (y) = 0.24330 -0.25336
# Poissons Ratio (z) = 0.12601 -0.24752
#
# Static dielectric constant tensor:
#      x y z
#    x 1.621670 0.000000 0.000000 
#    y 0.000000 1.584910 0.000000 
#    z 0.000000 0.000000 1.604590 
# 
# From -- ./inp_files/36508.got.cif
#   From: 2010.05.17/outbox.cif.g08.bks.cpg/sg68_19_cif.got.tgz:36508.got - 2010.06.03 18:57:09.
