data_PCOD9508603
_publ_section_title
;
Structure prediction by ZEFSAII (Michael W. Deem and Ramdas Pophale) SiO2 
 PCOD9508603
Probable space group: C C C A
;
_chemical_formula_sum "Si O2"
_cell_formula_units_Z 104
_cell_length_a 22.606808
_cell_length_b 8.562004
_cell_length_c 23.148743
_cell_angle_alpha 90.000000
_cell_angle_beta 90.000000
_cell_angle_gamma 90.000000
_cell_volume 4480.660985
_symmetry_space_group_name_H-M "C C C A"
_symmetry_group_IT_number 68
_space_group.IT_coordinate_system_code '2'
_symmetry_cell_setting 'orthorhombic'
loop_
_space_group_symop_operation_xyz
x,y,z
-x,1/2-y,z
x,1/2-y,1/2-z
-x,y,1/2-z
-x,-y,-z
x,1/2+y,-z
-x,1/2+y,1/2+z
x,-y,1/2+z
1/2+x,1/2+y,z
1/2-x,-y,z
1/2+x,-y,1/2-z
1/2-x,1/2+y,1/2-z
1/2-x,1/2-y,-z
1/2+x,y,-z
1/2-x,y,1/2+z
1/2+x,1/2-y,1/2+z
loop_
_atom_site_type_symbol
_atom_site_label
_atom_site_fract_x
_atom_site_fract_y
_atom_site_fract_z
Si Si1 0.500000 0.750000 0.848355
Si Si2 0.943262 0.554764 0.961987
Si Si3 0.322853 0.250000 0.250000
Si Si4 0.655277 0.714605 0.316482
Si Si5 0.391137 0.255293 0.437500
Si Si6 0.250000 0.000000 0.323344
Si Si7 0.679001 0.956866 0.855457
Si Si8 0.030785 0.589884 0.669926
O O1 0.555887 0.774729 0.890844
O O2 0.508230 0.584486 0.815881
O O3 0.891849 0.429167 0.947372
O O4 0.968241 0.597587 0.899679
O O5 0.912710 0.683039 0.000977
O O6 0.000000 0.500000 0.000000
O O7 0.287746 0.116077 0.284026
O O8 0.347146 0.148573 0.197008
O O9 0.674944 0.750000 0.250000
O O10 0.703881 0.616347 0.351856
O O11 0.597954 0.609216 0.310141
O O12 0.646175 0.877200 0.349385
O O13 0.336885 0.354490 0.411675
O O14 0.750000 0.000000 0.849361
O O15 0.000000 0.750000 0.689601
#
# Coordination Sequence:
#
# PCOD9508603 Si02
#       8
#     8  16   8  16  16   8  16  16
#     4  10  22  40  64  99 128 166 229 284 340 398
#     4  11  21  41  69  98 125 174 237 288 336 407
#     4  12  20  42  70  93 135 174 234 288 332 414
#     4  12  25  41  69  99 133 182 227 288 347 412
#     4  11  23  39  66 101 130 173 229 289 349 402
#     4  12  20  42  66 100 120 174 240 280 328 396
#     4  12  25  42  67 100 141 175 230 293 347 414
#     4  11  24  41  66  98 136 174 224 282 348 417
#
# _framework density 23.21086
#
# number of rings (size 3 to 8) (size 9 to 14) (size 15 to 20)
#    0.000    0.615    7.692    1.846    6.462    0.308 
#    0.000    0.769    1.692    6.000    0.000    0.000 
#    0.000    0.000    0.000    0.000    0.000    0.000 
#
# Total GULP energy -290048.308707 kJ/mol
# GULP energy per Si atom -5577.852091 kJ/mol
# Density = 2.315803 g / cm^3
# Si number density = 23.210860 Si / 1000 Ang^3
#
#
#
# Elastic Constant Matrix: (Units=GPa)
#
#
# Indices 1 2 3 4 5 6 
#
# 1 58.7442 24.7388 11.8366 0.0000 0.0000 0.0000
# 2 24.7388 181.8933 25.2955 0.0000 0.0000 0.0000
# 3 11.8366 25.2955 91.2285 0.0000 0.0000 0.0000
# 4 0.0000 0.0000 0.0000 -41.5634 0.0000 0.0000
# 5 0.0000 0.0000 0.0000 0.0000 28.6971 0.0000
# 6 0.0000 0.0000 0.0000 0.0000 0.0000 27.3014
#
#
#
# Elastic Compliance Matrix: (Units=1/GPa)
#
#
# Indices 1 2 3 4 5 6 
#
# 1 0.018323 -0.002248 -0.001754 0.000000 0.000000 0.000000
# 2 -0.002248 0.005994 -0.001370 0.000000 0.000000 0.000000
# 3 -0.001754 -0.001370 0.011569 0.000000 0.000000 0.000000
# 4 0.000000 0.000000 0.000000 -0.024060 0.000000 0.000000
# 5 0.000000 0.000000 0.000000 0.000000 0.034847 0.000000
# 6 0.000000 0.000000 0.000000 0.000000 0.000000 0.036628
#
#
# Mechanical properties :
#
#
# Convention : Reuss Voigt Hill
#
# Bulk Modulus (GPa) = 39.77526 50.62310 45.19918
# Shear Modulus (GPa) = 48.81530 20.88668 34.85099
#
# Velocity S-wave (km/s) = 4.59096 3.00303 3.87912
# Velocity P-wave (km/s) = 6.72876 5.82080 6.29118
#
# Compressibility (1/GPa) = 0.02514125
#
# Stress axis : x y z
#
# Youngs Moduli (GPa) = 54.57576 166.83179 86.43774
#
# Poissons Ratio (x) = 0.37506 0.15161
# Poissons Ratio (y) = 0.12269 0.11845
# Poissons Ratio (z) = 0.09573 0.22861
#
# Static dielectric constant tensor:
#      x y z
#    x 1.944320 0.000000 0.000000 
#    y 0.000000 10.357110 0.000000 
#    z 0.000000 0.000000 1.861280 
# 
# From -- ./inp_files/52174.got.cif
#   From: 2010.05.17/outbox.cif.g08.bks.cpg/sg68_27_cif.got.tgz:52174.got - 2010.06.03 18:57:09.
