data_PCOD9508625
_publ_section_title
;
Structure prediction by ZEFSAII (Michael W. Deem and Ramdas Pophale) SiO2 
 PCOD9508625
Probable space group: C C C A
;
_chemical_formula_sum "Si O2"
_cell_formula_units_Z 80
_cell_length_a 13.708052
_cell_length_b 21.239613
_cell_length_c 11.102971
_cell_angle_alpha 90.000000
_cell_angle_beta 90.000000
_cell_angle_gamma 90.000000
_cell_volume 3232.671304
_symmetry_space_group_name_H-M "C C C A"
_symmetry_group_IT_number 68
_space_group.IT_coordinate_system_code '2'
_symmetry_cell_setting 'orthorhombic'
loop_
_space_group_symop_operation_xyz
x,y,z
-x,1/2-y,z
x,1/2-y,1/2-z
-x,y,1/2-z
-x,-y,-z
x,1/2+y,-z
-x,1/2+y,1/2+z
x,-y,1/2+z
1/2+x,1/2+y,z
1/2-x,-y,z
1/2+x,-y,1/2-z
1/2-x,1/2+y,1/2-z
1/2-x,1/2-y,-z
1/2+x,y,-z
1/2-x,y,1/2+z
1/2+x,1/2-y,1/2+z
loop_
_atom_site_type_symbol
_atom_site_label
_atom_site_fract_x
_atom_site_fract_y
_atom_site_fract_z
Si Si1 0.897667 0.226380 0.936423
Si Si2 0.307057 0.685742 0.358234
Si Si3 0.304818 0.065463 0.494968
Si Si4 0.000000 0.476929 0.250000
Si Si5 0.500000 0.500000 0.000000
Si Si6 0.632262 0.128916 0.630334
O O1 0.862083 0.278334 0.034485
O O2 0.911167 0.162018 0.012713
O O3 0.000000 0.250000 0.885521
O O4 0.802836 0.211950 0.856391
O O5 0.304234 0.611970 0.392308
O O6 0.361783 0.682079 0.231864
O O7 0.240448 0.104368 0.398218
O O8 0.250000 0.000000 0.511828
O O9 0.413955 0.048569 0.460048
O O10 0.053289 0.509762 0.361464
O O11 0.067113 0.430612 0.166984
#
# Coordination Sequence:
#
# PCOD9508625 Si02
#       6
#    16  16  16   8   8  16
#     4  10  22  40  67 101 133 181 234 307 364 442
#     4  10  22  40  67  98 140 177 241 291 372 436
#     4  11  24  42  66  98 140 189 237 296 367 433
#     4  12  24  44  73 104 144 195 258 302 374 452
#     4  12  26  46  68 104 146 194 248 304 360 452
#     4  11  22  40  69 102 137 192 239 307 366 456
#
# _framework density 24.747336000000001
#
# number of rings (size 3 to 8) (size 9 to 14) (size 15 to 20)
#    0.000    1.200    4.000    1.800    0.000    3.200 
#    0.000    0.000    0.000   25.200    0.000    0.000 
#    0.000    0.000    0.000    0.000    0.000    0.000 
#
# Total GULP energy -222700.224018 kJ/mol
# GULP energy per Si atom -5567.505600 kJ/mol
# Density = 2.469101 g / cm^3
# Si number density = 24.747336 Si / 1000 Ang^3
#
#
#
# Elastic Constant Matrix: (Units=GPa)
#
#
# Indices 1 2 3 4 5 6 
#
# 1 134.9607 22.7567 -19.2982 0.0000 0.0000 0.0000
# 2 22.7567 99.9949 17.1462 0.0000 0.0000 0.0000
# 3 -19.2982 17.1462 50.6433 0.0000 0.0000 0.0000
# 4 0.0000 0.0000 0.0000 3.1614 0.0000 0.0000
# 5 0.0000 0.0000 0.0000 0.0000 17.4694 0.0000
# 6 0.0000 0.0000 0.0000 0.0000 0.0000 35.9778
#
#
#
# Elastic Compliance Matrix: (Units=1/GPa)
#
#
# Indices 1 2 3 4 5 6 
#
# 1 0.008439 -0.002624 0.004104 0.000000 0.000000 0.000000
# 2 -0.002624 0.011433 -0.004871 0.000000 0.000000 0.000000
# 3 0.004104 -0.004871 0.022959 0.000000 0.000000 0.000000
# 4 0.000000 0.000000 0.000000 0.316313 0.000000 0.000000
# 5 0.000000 0.000000 0.000000 0.000000 0.057243 0.000000
# 6 0.000000 0.000000 0.000000 0.000000 0.000000 0.027795
#
#
# Mechanical properties :
#
#
# Convention : Reuss Voigt Hill
#
# Bulk Modulus (GPa) = 27.73990 36.31204 32.02597
# Shear Modulus (GPa) = 10.79962 28.98801 19.89381
#
# Velocity S-wave (km/s) = 2.09127 3.42622 2.83835
# Velocity P-wave (km/s) = 4.13096 5.50972 4.86938
#
# Compressibility (1/GPa) = 0.03604916
#
# Stress axis : x y z
#
# Youngs Moduli (GPa) = 118.49842 87.46659 43.55588
#
# Poissons Ratio (x) = 0.22954 -0.17876
# Poissons Ratio (y) = 0.31097 0.21215
# Poissons Ratio (z) = -0.48635 0.42603
#
# Static dielectric constant tensor:
#      x y z
#    x 1.649650 0.000000 0.000000 
#    y 0.000000 -8.128520 0.000000 
#    z 0.000000 0.000000 1.960400 
# 
# From -- ./inp_files/13229.got.cif
#   From: 2010.05.17/outbox.cif.g08.bks.cpg/sg68_7_cif.got.tgz:13229.got - 2010.06.03 18:57:09.
