data_PCOD9508759
_publ_section_title
;
Structure prediction by ZEFSAII (Michael W. Deem and Ramdas Pophale) SiO2 
 PCOD9508759
Probable space group: C C C A
;
_chemical_formula_sum "Si O2"
_cell_formula_units_Z 64
_cell_length_a 9.272199
_cell_length_b 12.662650
_cell_length_c 25.539773
_cell_angle_alpha 90.000000
_cell_angle_beta 90.000000
_cell_angle_gamma 90.000000
_cell_volume 2998.640344
_symmetry_space_group_name_H-M "C C C A"
_symmetry_group_IT_number 68
_space_group.IT_coordinate_system_code '2'
_symmetry_cell_setting 'orthorhombic'
loop_
_space_group_symop_operation_xyz
x,y,z
-x,1/2-y,z
x,1/2-y,1/2-z
-x,y,1/2-z
-x,-y,-z
x,1/2+y,-z
-x,1/2+y,1/2+z
x,-y,1/2+z
1/2+x,1/2+y,z
1/2-x,-y,z
1/2+x,-y,1/2-z
1/2-x,1/2+y,1/2-z
1/2-x,1/2-y,-z
1/2+x,y,-z
1/2-x,y,1/2+z
1/2+x,1/2-y,1/2+z
loop_
_atom_site_type_symbol
_atom_site_label
_atom_site_fract_x
_atom_site_fract_y
_atom_site_fract_z
Si Si1 0.473639 0.422055 0.565690
Si Si2 0.250000 0.500000 0.373236
Si Si3 0.015244 0.876203 0.191236
Si Si4 0.000000 0.250000 0.523492
Si Si5 0.815692 0.372455 0.904326
O O1 0.628575 0.444178 0.590668
O O2 0.475620 0.348624 0.514849
O O3 0.354829 0.364884 0.602082
O O4 0.388218 0.533501 0.560433
O O5 0.159825 0.581098 0.336740
O O6 0.000000 0.750000 0.194283
O O7 0.000000 0.919296 0.250000
O O8 0.886975 0.900195 0.150881
O O9 0.130423 0.270232 0.564020
#
# Coordination Sequence:
#
# PCOD9508759 Si02
#       5
#    16   8  16   8  16
#     4  10  24  38  61  93 127 169 213 260 324 390
#     4  10  24  44  64  96 134 164 218 272 318 394
#     4  10  22  42  70  95 127 171 213 264 331 384
#     4  12  22  36  65  90 127 172 212 262 326 384
#     4  10  22  42  60  91 129 166 212 269 319 386
#
# _framework density 21.343008000000001
#
# number of rings (size 3 to 8) (size 9 to 14) (size 15 to 20)
#    0.000    1.750    1.250    1.500    3.500   10.000 
#    0.000    0.000    0.000    3.000    0.000    0.000 
#    0.000    0.000    0.000    0.000    0.000    0.000 
#
# Total GULP energy -178204.915334 kJ/mol
# GULP energy per Si atom -5568.903604 kJ/mol
# Density = 2.129443 g / cm^3
# Si number density = 21.343008 Si / 1000 Ang^3
#
#
#
# Elastic Constant Matrix: (Units=GPa)
#
#
# Indices 1 2 3 4 5 6 
#
# 1 199.4501 29.7138 80.9414 0.0000 0.0000 0.0000
# 2 29.7138 52.7710 48.6381 0.0000 0.0000 0.0000
# 3 80.9414 48.6381 140.4324 0.0000 0.0000 0.0000
# 4 0.0000 0.0000 0.0000 50.1602 0.0000 0.0000
# 5 0.0000 0.0000 0.0000 0.0000 -2.5688 0.0000
# 6 0.0000 0.0000 0.0000 0.0000 0.0000 21.8653
#
#
#
# Elastic Compliance Matrix: (Units=1/GPa)
#
#
# Indices 1 2 3 4 5 6 
#
# 1 0.006548 -0.000306 -0.003668 0.000000 0.000000 0.000000
# 2 -0.000306 0.027850 -0.009469 0.000000 0.000000 0.000000
# 3 -0.003668 -0.009469 0.012515 0.000000 0.000000 0.000000
# 4 0.000000 0.000000 0.000000 0.019936 0.000000 0.000000
# 5 0.000000 0.000000 0.000000 0.000000 -0.389285 0.000000
# 6 0.000000 0.000000 0.000000 0.000000 0.000000 0.045735
#
#
# Mechanical properties :
#
#
# Convention : Reuss Voigt Hill
#
# Bulk Modulus (GPa) = 49.93615 79.02666 64.48141
# Shear Modulus (GPa) = -20.56424 29.44868 4.44222
#
# Velocity S-wave (km/s) = -3.10742 3.71857 1.44425
# Velocity P-wave (km/s) = 3.25162 7.45281 5.74967
#
# Compressibility (1/GPa) = 0.02002557
#
# Stress axis : x y z
#
# Youngs Moduli (GPa) = 152.71913 35.90701 79.90679
#
# Poissons Ratio (x) = 0.01100 0.29310
# Poissons Ratio (y) = 0.04677 0.75665
# Poissons Ratio (z) = 0.56017 0.34001
#
# Static dielectric constant tensor:
#      x y z
#    x 1.847810 0.000000 0.000000 
#    y 0.000000 1.618810 0.000000 
#    z 0.000000 0.000000 1.799440 
# 
# From -- ./inp_files/42788.got.cif
#   From: 2010.05.17/outbox.cif.g08.bks.cpg/sg68_22_cif.got.tgz:42788.got - 2010.06.03 18:57:09.
