data_PCOD9508998
_publ_section_title
;
Structure prediction by ZEFSAII (Michael W. Deem and Ramdas Pophale) SiO2 
 PCOD9508998
Probable space group: C C C A
;
_chemical_formula_sum "Si O2"
_cell_formula_units_Z 68
_cell_length_a 13.540070
_cell_length_b 8.809951
_cell_length_c 20.672879
_cell_angle_alpha 90.000000
_cell_angle_beta 90.000000
_cell_angle_gamma 90.000000
_cell_volume 2466.013020
_symmetry_space_group_name_H-M "C C C A"
_symmetry_group_IT_number 68
_space_group.IT_coordinate_system_code '2'
_symmetry_cell_setting 'orthorhombic'
loop_
_space_group_symop_operation_xyz
x,y,z
-x,1/2-y,z
x,1/2-y,1/2-z
-x,y,1/2-z
-x,-y,-z
x,1/2+y,-z
-x,1/2+y,1/2+z
x,-y,1/2+z
1/2+x,1/2+y,z
1/2-x,-y,z
1/2+x,-y,1/2-z
1/2-x,1/2+y,1/2-z
1/2-x,1/2-y,-z
1/2+x,y,-z
1/2-x,y,1/2+z
1/2+x,1/2-y,1/2+z
loop_
_atom_site_type_symbol
_atom_site_label
_atom_site_fract_x
_atom_site_fract_y
_atom_site_fract_z
Si Si1 0.250000 0.000000 0.172599
Si Si2 0.789447 0.250000 0.250000
Si Si3 0.500000 0.750000 0.750000
Si Si4 0.884585 0.776421 0.056558
Si Si5 0.096346 0.438425 0.421563
Si Si6 0.599087 0.498040 0.842903
O O1 0.287623 0.137107 0.215116
O O2 0.162743 0.091930 0.139609
O O3 0.853023 0.368508 0.296047
O O4 0.546852 0.624962 0.799373
O O5 0.853354 0.602600 0.060926
O O6 0.837947 0.895232 0.106770
O O7 0.000000 0.750000 0.072378
O O8 0.885596 0.838095 0.983975
O O9 0.984328 0.434419 0.394374
#
# Coordination Sequence:
#
# PCOD9508998 Si02
#       6
#     8   8   4  16  16  16
#     4  12  32  48  70 108 154 200 248 308 392 454
#     4  12  32  50  76 110 158 204 258 313 374 475
#     4  12  20  40  76 114 140 182 252 320 372 420
#     4  10  22  44  77 107 142 184 257 318 359 439
#     4  11  25  47  75 108 148 192 251 314 381 438
#     4  11  24  47  78 105 142 199 255 314 364 445
#
# _framework density 27.574874999999999
#
# number of rings (size 3 to 8) (size 9 to 14) (size 15 to 20)
#    0.000    0.941    3.529    4.235    9.882    5.176 
#    0.000    0.000    0.000    0.000    0.000    0.000 
#    0.000    0.000    0.000    0.000    0.000    0.000 
#
# Total GULP energy -189641.769663 kJ/mol
# GULP energy per Si atom -5577.699108 kJ/mol
# Density = 2.751211 g / cm^3
# Si number density = 27.574875 Si / 1000 Ang^3
#
#
#
# Elastic Constant Matrix: (Units=GPa)
#
#
# Indices 1 2 3 4 5 6 
#
# 1 36.8104 21.0625 0.3083 0.0000 0.0000 0.0000
# 2 21.0625 176.1388 65.1611 0.0000 0.0000 0.0000
# 3 0.3083 65.1611 107.0027 0.0000 0.0000 0.0000
# 4 0.0000 0.0000 0.0000 57.4799 0.0000 0.0000
# 5 0.0000 0.0000 0.0000 0.0000 -71.1625 0.0000
# 6 0.0000 0.0000 0.0000 0.0000 0.0000 23.9978
#
#
#
# Elastic Compliance Matrix: (Units=1/GPa)
#
#
# Indices 1 2 3 4 5 6 
#
# 1 0.029748 -0.004551 0.002685 0.000000 0.000000 0.000000
# 2 -0.004551 0.008024 -0.004873 0.000000 0.000000 0.000000
# 3 0.002685 -0.004873 0.012306 0.000000 0.000000 0.000000
# 4 0.000000 0.000000 0.000000 0.017397 0.000000 0.000000
# 5 0.000000 0.000000 0.000000 0.000000 -0.014052 0.000000
# 6 0.000000 0.000000 0.000000 0.000000 0.000000 0.041670
#
#
# Mechanical properties :
#
#
# Convention : Reuss Voigt Hill
#
# Bulk Modulus (GPa) = 27.32218 54.77952 41.05085
# Shear Modulus (GPa) = 41.40083 17.62439 29.51261
#
# Velocity S-wave (km/s) = 3.87899 2.53088 3.27505
# Velocity P-wave (km/s) = 5.47649 5.33379 5.40561
#
# Compressibility (1/GPa) = 0.03660030
#
# Stress axis : x y z
#
# Youngs Moduli (GPa) = 33.61617 124.61967 81.26371
#
# Poissons Ratio (x) = 0.56710 -0.21823
# Poissons Ratio (y) = 0.15298 0.39604
# Poissons Ratio (z) = -0.09028 0.60733
#
# Static dielectric constant tensor:
#      x y z
#    x 2.315520 0.000000 0.000000 
#    y 0.000000 2.337490 0.000000 
#    z 0.000000 0.000000 3.022680 
# 
# From -- ./inp_files/28023.got.cif
#   From: 2010.05.17/outbox.cif.g08.bks.cpg/sg68_15_cif.got.tgz:28023.got - 2010.06.03 18:57:09.
