data_PCOD9508848
_publ_section_title
;
Structure prediction by ZEFSAII (Michael W. Deem and Ramdas Pophale) SiO2 
 PCOD9508848
Probable space group: C C C A
;
_chemical_formula_sum "Si O2"
_cell_formula_units_Z 88
_cell_length_a 10.008549
_cell_length_b 13.202696
_cell_length_c 27.853614
_cell_angle_alpha 90.000000
_cell_angle_beta 90.000000
_cell_angle_gamma 90.000000
_cell_volume 3680.571815
_symmetry_space_group_name_H-M "C C C A"
_symmetry_group_IT_number 68
_space_group.IT_coordinate_system_code '2'
_symmetry_cell_setting 'orthorhombic'
loop_
_space_group_symop_operation_xyz
x,y,z
-x,1/2-y,z
x,1/2-y,1/2-z
-x,y,1/2-z
-x,-y,-z
x,1/2+y,-z
-x,1/2+y,1/2+z
x,-y,1/2+z
1/2+x,1/2+y,z
1/2-x,-y,z
1/2+x,-y,1/2-z
1/2-x,1/2+y,1/2-z
1/2-x,1/2-y,-z
1/2+x,y,-z
1/2-x,y,1/2+z
1/2+x,1/2-y,1/2+z
loop_
_atom_site_type_symbol
_atom_site_label
_atom_site_fract_x
_atom_site_fract_y
_atom_site_fract_z
Si Si1 0.210405 0.399346 0.842996
Si Si2 0.321887 0.635488 0.242564
Si Si3 0.115917 0.660138 0.530975
Si Si4 0.250000 0.500000 0.593778
Si Si5 0.090422 0.063238 0.816069
Si Si6 0.854892 0.214619 0.930154
O O1 0.250000 0.500000 0.871351
O O2 0.305174 0.398822 0.797214
O O3 0.223337 0.313942 0.882270
O O4 0.060094 0.405009 0.823978
O O5 0.368054 0.750000 0.250000
O O6 0.175710 0.636416 0.218025
O O7 0.394493 0.548893 0.209949
O O8 0.134848 0.559313 0.563379
O O9 0.114836 0.636624 0.474047
O O10 0.261266 0.705438 0.543776
O O11 0.000000 0.750000 0.539087
O O12 0.163752 0.435713 0.632454
O O13 0.000000 0.250000 0.915016
#
# Coordination Sequence:
#
# PCOD9508848 Si02
#       6
#    16  16  16   8  16  16
#     4  12  25  40  67  96 133 180 229 283 343 429
#     4  10  23  43  70  91 127 181 221 280 350 403
#     4  10  23  45  68 101 138 183 242 299 352 436
#     4  10  22  42  72  88 142 188 216 296 362 406
#     4  10  24  45  62 100 143 169 233 291 340 426
#     4  10  24  44  66  99 141 177 237 297 355 429
#
# _framework density 23.909327000000001
#
# number of rings (size 3 to 8) (size 9 to 14) (size 15 to 20)
#    0.000    1.818    1.818    1.636   11.455    0.727 
#    0.000    5.455    0.000    0.000    0.000    0.000 
#    0.000    0.000    0.000    0.000    0.000    0.000 
#
# Total GULP energy -245092.312815 kJ/mol
# GULP energy per Si atom -5570.279837 kJ/mol
# Density = 2.385491 g / cm^3
# Si number density = 23.909327 Si / 1000 Ang^3
#
#
#
# Elastic Constant Matrix: (Units=GPa)
#
#
# Indices 1 2 3 4 5 6 
#
# 1 82.5504 3.7498 -6.0146 0.0000 0.0000 0.0000
# 2 3.7498 80.2026 29.8586 0.0000 0.0000 0.0000
# 3 -6.0146 29.8586 123.1596 0.0000 0.0000 0.0000
# 4 0.0000 0.0000 0.0000 19.1585 0.0000 0.0000
# 5 0.0000 0.0000 0.0000 0.0000 23.9130 0.0000
# 6 0.0000 0.0000 0.0000 0.0000 0.0000 16.9447
#
#
#
# Elastic Compliance Matrix: (Units=1/GPa)
#
#
# Indices 1 2 3 4 5 6 
#
# 1 0.012212 -0.000872 0.000808 0.000000 0.000000 0.000000
# 2 -0.000872 0.013768 -0.003380 0.000000 0.000000 0.000000
# 3 0.000808 -0.003380 0.008979 0.000000 0.000000 0.000000
# 4 0.000000 0.000000 0.000000 0.052196 0.000000 0.000000
# 5 0.000000 0.000000 0.000000 0.000000 0.041818 0.000000
# 6 0.000000 0.000000 0.000000 0.000000 0.000000 0.059016
#
#
# Mechanical properties :
#
#
# Convention : Reuss Voigt Hill
#
# Bulk Modulus (GPa) = 35.62551 37.90003 36.76277
# Shear Modulus (GPa) = 24.48178 29.22450 26.85314
#
# Velocity S-wave (km/s) = 3.20338 3.49994 3.35494
# Velocity P-wave (km/s) = 5.34928 5.67616 5.51514
#
# Compressibility (1/GPa) = 0.02806978
#
# Stress axis : x y z
#
# Youngs Moduli (GPa) = 81.88497 72.63397 111.37688
#
# Poissons Ratio (x) = 0.06331 -0.08996
# Poissons Ratio (y) = 0.07138 0.37650
# Poissons Ratio (z) = -0.06614 0.24553
#
# Static dielectric constant tensor:
#      x y z
#    x 1.950150 0.000000 0.000000 
#    y 0.000000 2.207080 0.000000 
#    z 0.000000 0.000000 1.934170 
# 
# From -- ./inp_files/44230.got.cif
#   From: 2010.05.17/outbox.cif.g08.bks.cpg/sg68_23_cif.got.tgz:44230.got - 2010.06.03 18:57:09.
