data_PCOD9508020
_publ_section_title
;
Structure prediction by ZEFSAII (Michael W. Deem and Ramdas Pophale) SiO2 
 PCOD9508020
Probable space group: C C C A
;
_chemical_formula_sum "Si O2"
_cell_formula_units_Z 116
_cell_length_a 25.020582
_cell_length_b 23.626474
_cell_length_c 9.845327
_cell_angle_alpha 90.000000
_cell_angle_beta 90.000000
_cell_angle_gamma 90.000000
_cell_volume 5820.046646
_symmetry_space_group_name_H-M "C C C A"
_symmetry_group_IT_number 68
_space_group.IT_coordinate_system_code '2'
_symmetry_cell_setting 'orthorhombic'
loop_
_space_group_symop_operation_xyz
x,y,z
-x,1/2-y,z
x,1/2-y,1/2-z
-x,y,1/2-z
-x,-y,-z
x,1/2+y,-z
-x,1/2+y,1/2+z
x,-y,1/2+z
1/2+x,1/2+y,z
1/2-x,-y,z
1/2+x,-y,1/2-z
1/2-x,1/2+y,1/2-z
1/2-x,1/2-y,-z
1/2+x,y,-z
1/2-x,y,1/2+z
1/2+x,1/2-y,1/2+z
loop_
_atom_site_type_symbol
_atom_site_label
_atom_site_fract_x
_atom_site_fract_y
_atom_site_fract_z
Si Si1 0.384164 0.184237 0.787138
Si Si2 0.493272 0.445973 0.094041
Si Si3 0.229912 0.629600 0.660493
Si Si4 0.387867 0.385638 0.984195
Si Si5 0.000000 0.750000 0.250000
Si Si6 0.930828 0.838999 0.426444
Si Si7 0.223800 0.560804 0.922378
Si Si8 0.158731 0.183704 0.773895
O O1 0.383188 0.250000 0.750000
O O2 0.324627 0.163980 0.827987
O O3 0.400434 0.144463 0.659563
O O4 0.420950 0.177322 0.918526
O O5 0.500000 0.463825 0.250000
O O6 0.437206 0.416839 0.054387
O O7 0.537371 0.397419 0.074911
O O8 0.500000 0.500000 0.000000
O O9 0.226566 0.577069 0.764462
O O10 0.243519 0.606251 0.512081
O O11 0.279931 0.666077 0.712653
O O12 0.368619 0.336348 0.086247
O O13 0.337936 0.428881 0.965807
O O14 0.964156 0.791272 0.343972
O O15 0.874731 0.845178 0.346877
O O16 0.250000 0.500000 0.945976
O O17 0.154660 0.250000 0.750000
#
# Coordination Sequence:
#
# PCOD9508020 Si02
#       8
#    16  16  16  16   4  16  16  16
#     4  11  25  41  64 104 142 176 212 286 351 414
#     4  12  28  50  70  98 133 181 232 289 344 412
#     4  10  22  39  62  97 139 171 223 268 339 417
#     4  10  24  45  63  98 140 169 231 284 339 416
#     4  12  24  48  74 100 128 180 234 306 320 422
#     4  12  25  44  75  98 136 176 243 275 352 404
#     4  10  21  40  64  93 130 177 227 277 332 398
#     4  11  20  39  71  98 131 184 222 277 336 419
#
# _framework density 19.931111999999999
#
# number of rings (size 3 to 8) (size 9 to 14) (size 15 to 20)
#    0.000    1.103    2.759    2.483    3.862    2.207 
#    2.483    5.517    0.000    0.000    0.000    0.000 
#    0.000    0.000    0.000    0.000    0.000    0.000 
#
# Total GULP energy -324258.005471 kJ/mol
# GULP energy per Si atom -5590.655267 kJ/mol
# Density = 1.988575 g / cm^3
# Si number density = 19.931112 Si / 1000 Ang^3
#
#
#
# Elastic Constant Matrix: (Units=GPa)
#
#
# Indices 1 2 3 4 5 6 
#
# 1 81.6416 57.2712 46.5610 0.0000 0.0000 0.0000
# 2 57.2712 136.6329 56.8531 0.0000 0.0000 0.0000
# 3 46.5610 56.8531 147.0966 0.0000 0.0000 0.0000
# 4 0.0000 0.0000 0.0000 19.3029 0.0000 0.0000
# 5 0.0000 0.0000 0.0000 0.0000 40.3339 0.0000
# 6 0.0000 0.0000 0.0000 0.0000 0.0000 0.5191
#
#
#
# Elastic Compliance Matrix: (Units=1/GPa)
#
#
# Indices 1 2 3 4 5 6 
#
# 1 0.018709 -0.006409 -0.003445 0.000000 0.000000 0.000000
# 2 -0.006409 0.010917 -0.002191 0.000000 0.000000 0.000000
# 3 -0.003445 -0.002191 0.008735 0.000000 0.000000 0.000000
# 4 0.000000 0.000000 0.000000 0.051806 0.000000 0.000000
# 5 0.000000 0.000000 0.000000 0.000000 0.024793 0.000000
# 6 0.000000 0.000000 0.000000 0.000000 0.000000 1.926454
#
#
# Mechanical properties :
#
#
# Convention : Reuss Voigt Hill
#
# Bulk Modulus (GPa) = 70.06601 76.30463 73.18532
# Shear Modulus (GPa) = 2.41515 25.67690 14.04603
#
# Velocity S-wave (km/s) = 1.10199 3.59316 2.65755
# Velocity P-wave (km/s) = 6.07039 7.45531 6.79821
#
# Compressibility (1/GPa) = 0.01427226
#
# Stress axis : x y z
#
# Youngs Moduli (GPa) = 53.45011 91.60272 114.47556
#
# Poissons Ratio (x) = 0.58704 0.39438
# Poissons Ratio (y) = 0.34254 0.25079
# Poissons Ratio (z) = 0.18414 0.20068
#
# Static dielectric constant tensor:
#      x y z
#    x 1.708380 0.000000 0.000000 
#    y 0.000000 1.658600 0.000000 
#    z 0.000000 0.000000 1.719040 
# 
# From -- ./inp_files/9154.got.cif
#   From: 2010.05.17/outbox.cif.g08.bks.cpg/sg68_5_cif.got.tgz:9154.got - 2010.06.03 18:57:09.
