data_PCOD9508476
_publ_section_title
;
Structure prediction by ZEFSAII (Michael W. Deem and Ramdas Pophale) SiO2 
 PCOD9508476
Probable space group: C C C A
;
_chemical_formula_sum "Si O2"
_cell_formula_units_Z 48
_cell_length_a 9.126500
_cell_length_b 16.544006
_cell_length_c 12.229298
_cell_angle_alpha 90.000000
_cell_angle_beta 90.000000
_cell_angle_gamma 90.000000
_cell_volume 1846.487895
_symmetry_space_group_name_H-M "C C C A"
_symmetry_group_IT_number 68
_space_group.IT_coordinate_system_code '2'
_symmetry_cell_setting 'orthorhombic'
loop_
_space_group_symop_operation_xyz
x,y,z
-x,1/2-y,z
x,1/2-y,1/2-z
-x,y,1/2-z
-x,-y,-z
x,1/2+y,-z
-x,1/2+y,1/2+z
x,-y,1/2+z
1/2+x,1/2+y,z
1/2-x,-y,z
1/2+x,-y,1/2-z
1/2-x,1/2+y,1/2-z
1/2-x,1/2-y,-z
1/2+x,y,-z
1/2-x,y,1/2+z
1/2+x,1/2-y,1/2+z
loop_
_atom_site_type_symbol
_atom_site_label
_atom_site_fract_x
_atom_site_fract_y
_atom_site_fract_z
Si Si1 0.348813 0.327206 0.473804
Si Si2 0.000000 0.622523 0.250000
Si Si3 0.250000 0.000000 0.758776
Si Si4 0.081690 0.572049 0.936105
O O1 0.250000 0.250000 0.500000
O O2 0.424235 0.330974 0.352650
O O3 0.237643 0.401830 0.483131
O O4 0.477228 0.350096 0.557202
O O5 0.864412 0.569081 0.300099
O O6 0.133274 0.952910 0.683291
O O7 0.000000 0.500000 0.000000
#
# Coordination Sequence:
#
# PCOD9508476 Si02
#       4
#    16   8   8  16
#     4  11  24  41  70 107 154 201 250 313 399 473
#     4  10  22  42  71 106 155 202 262 326 385 468
#     4  10  22  38  70 110 140 196 262 326 374 464
#     4  11  19  41  70 104 139 193 256 305 388 475
#
# _framework density 25.995294999999999
#
# number of rings (size 3 to 8) (size 9 to 14) (size 15 to 20)
#    0.000    1.333    6.667    1.000    0.000    4.000 
#    0.000    3.333   14.667    0.000    0.000    4.667 
#    0.000    0.000    0.000    0.000    0.000    0.000 
#
# Total GULP energy -133904.208954 kJ/mol
# GULP energy per Si atom -5579.342040 kJ/mol
# Density = 2.593613 g / cm^3
# Si number density = 25.995295 Si / 1000 Ang^3
#
#
#
# Elastic Constant Matrix: (Units=GPa)
#
#
# Indices 1 2 3 4 5 6 
#
# 1 232.5231 90.8361 75.0854 0.0000 0.0000 0.0000
# 2 90.8361 132.6465 48.5020 0.0000 0.0000 0.0000
# 3 75.0854 48.5020 133.9278 0.0000 0.0000 0.0000
# 4 0.0000 0.0000 0.0000 19.4192 0.0000 0.0000
# 5 0.0000 0.0000 0.0000 0.0000 66.6096 0.0000
# 6 0.0000 0.0000 0.0000 0.0000 0.0000 93.2247
#
#
#
# Elastic Compliance Matrix: (Units=1/GPa)
#
#
# Indices 1 2 3 4 5 6 
#
# 1 0.006442 -0.003563 -0.002321 0.000000 0.000000 0.000000
# 2 -0.003563 0.010660 -0.001863 0.000000 0.000000 0.000000
# 3 -0.002321 -0.001863 0.009443 0.000000 0.000000 0.000000
# 4 0.000000 0.000000 0.000000 0.051495 0.000000 0.000000
# 5 0.000000 0.000000 0.000000 0.000000 0.015013 0.000000
# 6 0.000000 0.000000 0.000000 0.000000 0.000000 0.010727
#
#
# Mechanical properties :
#
#
# Convention : Reuss Voigt Hill
#
# Bulk Modulus (GPa) = 90.49469 103.10492 96.79981
# Shear Modulus (GPa) = 40.66443 54.82896 47.74669
#
# Velocity S-wave (km/s) = 3.95941 4.59757 4.29037
# Velocity P-wave (km/s) = 7.46928 8.24212 7.86520
#
# Compressibility (1/GPa) = 0.01105037
#
# Stress axis : x y z
#
# Youngs Moduli (GPa) = 155.22994 93.81060 105.89950
#
# Poissons Ratio (x) = 0.33422 0.24584
# Poissons Ratio (y) = 0.55303 0.19730
# Poissons Ratio (z) = 0.36036 0.17477
#
# Static dielectric constant tensor:
#      x y z
#    x 2.014360 0.000000 0.000000 
#    y 0.000000 2.211100 0.000000 
#    z 0.000000 0.000000 2.161330 
# 
# From -- ./inp_files/18865.got.cif
#   From: 2010.05.17/outbox.cif.g08.bks.cpg/sg68_10_cif.got.tgz:18865.got - 2010.06.03 18:57:09.
