data_PCOD9508399
_publ_section_title
;
Structure prediction by ZEFSAII (Michael W. Deem and Ramdas Pophale) SiO2 
 PCOD9508399
Probable space group: C C C A
;
_chemical_formula_sum "Si O2"
_cell_formula_units_Z 60
_cell_length_a 13.730150
_cell_length_b 18.671575
_cell_length_c 9.047340
_cell_angle_alpha 90.000000
_cell_angle_beta 90.000000
_cell_angle_gamma 90.000000
_cell_volume 2319.407979
_symmetry_space_group_name_H-M "C C C A"
_symmetry_group_IT_number 68
_space_group.IT_coordinate_system_code '2'
_symmetry_cell_setting 'orthorhombic'
loop_
_space_group_symop_operation_xyz
x,y,z
-x,1/2-y,z
x,1/2-y,1/2-z
-x,y,1/2-z
-x,-y,-z
x,1/2+y,-z
-x,1/2+y,1/2+z
x,-y,1/2+z
1/2+x,1/2+y,z
1/2-x,-y,z
1/2+x,-y,1/2-z
1/2-x,1/2+y,1/2-z
1/2-x,1/2-y,-z
1/2+x,y,-z
1/2-x,y,1/2+z
1/2+x,1/2-y,1/2+z
loop_
_atom_site_type_symbol
_atom_site_label
_atom_site_fract_x
_atom_site_fract_y
_atom_site_fract_z
Si Si1 0.348653 0.360946 0.526765
Si Si2 0.000000 0.120691 0.250000
Si Si3 0.854868 0.856778 0.191209
Si Si4 0.500000 0.250000 0.250000
Si Si5 0.366837 0.492897 0.344687
O O1 0.431951 0.335832 0.637750
O O2 0.243758 0.356254 0.601846
O O3 0.336736 0.331233 0.361373
O O4 0.378127 0.443862 0.490422
O O5 0.076470 0.066881 0.166695
O O6 0.893125 0.937363 0.212925
O O7 0.939296 0.803681 0.145673
O O8 0.250000 0.500000 0.330761
#
# Coordination Sequence:
#
# PCOD9508399 Si02
#       5
#    16   8  16   4  16
#     4  10  24  40  63 102 135 177 226 274 343 406
#     4  12  19  38  64 104 144 181 208 276 338 426
#     4  10  25  43  67  95 133 177 231 282 332 399
#     4  12  26  48  72  92 124 190 244 284 340 390
#     4  10  22  37  66 101 141 174 216 269 347 410
#
# _framework density 25.868670999999999
#
# number of rings (size 3 to 8) (size 9 to 14) (size 15 to 20)
#    1.600    0.000    2.667    1.600    3.733    5.333 
#    0.000    0.000    0.000    1.600    0.000    0.000 
#    0.000    0.000    0.000    0.000    0.000    0.000 
#
# Total GULP energy -167635.610207 kJ/mol
# GULP energy per Si atom -5587.853674 kJ/mol
# Density = 2.580979 g / cm^3
# Si number density = 25.868671 Si / 1000 Ang^3
#
#
#
# Elastic Constant Matrix: (Units=GPa)
#
#
# Indices 1 2 3 4 5 6 
#
# 1 134.5984 -6.1592 50.9016 0.0000 0.0000 0.0000
# 2 -6.1592 36.9032 9.4646 0.0000 0.0000 0.0000
# 3 50.9016 9.4646 104.9191 0.0000 0.0000 0.0000
# 4 0.0000 0.0000 0.0000 13.5560 0.0000 0.0000
# 5 0.0000 0.0000 0.0000 0.0000 43.5023 0.0000
# 6 0.0000 0.0000 0.0000 0.0000 0.0000 29.8101
#
#
#
# Elastic Compliance Matrix: (Units=1/GPa)
#
#
# Indices 1 2 3 4 5 6 
#
# 1 0.009372 0.002795 -0.004799 0.000000 0.000000 0.000000
# 2 0.002795 0.028573 -0.003934 0.000000 0.000000 0.000000
# 3 -0.004799 -0.003934 0.012214 0.000000 0.000000 0.000000
# 4 0.000000 0.000000 0.000000 0.073768 0.000000 0.000000
# 5 0.000000 0.000000 0.000000 0.000000 0.022987 0.000000
# 6 0.000000 0.000000 0.000000 0.000000 0.000000 0.033546
#
#
# Mechanical properties :
#
#
# Convention : Reuss Voigt Hill
#
# Bulk Modulus (GPa) = 26.12013 42.75941 34.43977
# Shear Modulus (GPa) = 24.37858 32.18791 28.28325
#
# Velocity S-wave (km/s) = 3.07318 3.53126 3.31016
# Velocity P-wave (km/s) = 4.76568 5.76123 5.28694
#
# Compressibility (1/GPa) = 0.03828464
#
# Stress axis : x y z
#
# Youngs Moduli (GPa) = 106.69721 34.99770 81.87120
#
# Poissons Ratio (x) = -0.09782 0.39291
# Poissons Ratio (y) = -0.29823 0.32205
# Poissons Ratio (z) = 0.51205 0.13767
#
# Static dielectric constant tensor:
#      x y z
#    x 2.087400 0.000000 0.000000 
#    y 0.000000 2.105120 0.000000 
#    z 0.000000 0.000000 2.107700 
# 
# From -- ./inp_files/12982.got.cif
#   From: 2010.05.17/outbox.cif.g08.bks.cpg/sg68_7_cif.got.tgz:12982.got - 2010.06.03 18:57:09.
