data_PCOD9508353
_publ_section_title
;
Structure prediction by ZEFSAII (Michael W. Deem and Ramdas Pophale) SiO2 
 PCOD9508353
Probable space group: C C C A
;
_chemical_formula_sum "Si O2"
_cell_formula_units_Z 116
_cell_length_a 25.073289
_cell_length_b 7.713185
_cell_length_c 28.583673
_cell_angle_alpha 90.000000
_cell_angle_beta 90.000000
_cell_angle_gamma 90.000000
_cell_volume 5527.937056
_symmetry_space_group_name_H-M "C C C A"
_symmetry_group_IT_number 68
_space_group.IT_coordinate_system_code '2'
_symmetry_cell_setting 'orthorhombic'
loop_
_space_group_symop_operation_xyz
x,y,z
-x,1/2-y,z
x,1/2-y,1/2-z
-x,y,1/2-z
-x,-y,-z
x,1/2+y,-z
-x,1/2+y,1/2+z
x,-y,1/2+z
1/2+x,1/2+y,z
1/2-x,-y,z
1/2+x,-y,1/2-z
1/2-x,1/2+y,1/2-z
1/2-x,1/2-y,-z
1/2+x,y,-z
1/2-x,y,1/2+z
1/2+x,1/2-y,1/2+z
loop_
_atom_site_type_symbol
_atom_site_label
_atom_site_fract_x
_atom_site_fract_y
_atom_site_fract_z
Si Si1 0.402097 0.138946 0.611403
Si Si2 0.000000 0.250000 0.750000
Si Si3 0.618533 0.312184 0.441039
Si Si4 0.395339 0.988761 0.844002
Si Si5 0.293318 0.846403 0.799930
Si Si6 0.512528 0.549217 0.187812
Si Si7 0.060587 0.010217 0.018354
Si Si8 0.199293 0.614788 0.393623
O O1 0.385838 0.320742 0.634407
O O2 0.448806 0.065333 0.644049
O O3 0.427250 0.150484 0.559301
O O4 0.351151 0.013867 0.612403
O O5 0.966092 0.394434 0.720923
O O6 0.606879 0.365130 0.388389
O O7 0.576419 0.167302 0.456619
O O8 0.604061 0.460979 0.477556
O O9 0.678620 0.240555 0.435486
O O10 0.454351 0.981693 0.824715
O O11 0.351065 0.935079 0.806814
O O12 0.288784 0.750000 0.750000
O O13 0.288568 0.718191 0.845168
O O14 0.250000 0.000000 0.802908
O O15 0.500000 0.750000 0.202792
O O16 0.000000 0.000000 0.000000
O O17 0.250000 0.500000 0.406139
#
# Coordination Sequence:
#
# PCOD9508353 Si02
#       8
#    16   4  16  16  16  16  16  16
#     4  10  22  42  65  94 134 174 226 284 341 410
#     4  12  26  36  68  78 136 172 222 264 340 404
#     4  10  22  36  58  94 125 169 221 264 337 404
#     4  10  22  41  64  90 132 173 215 279 344 408
#     4  11  24  41  67  99 128 166 226 282 342 406
#     4  10  24  41  61  95 129 176 227 272 338 414
#     4  11  21  35  61  93 133 170 223 282 335 402
#     4  10  22  42  66  92 130 175 222 274 346 409
#
# _framework density 20.984321000000001
#
# number of rings (size 3 to 8) (size 9 to 14) (size 15 to 20)
#    0.000    1.655    0.000    3.517    6.759    3.310 
#    0.000    5.517    0.000    8.276    0.000    0.000 
#    0.000    0.000    0.000    0.000    0.000    0.000 
#
# Total GULP energy -323537.931979 kJ/mol
# GULP energy per Si atom -5578.240207 kJ/mol
# Density = 2.093656 g / cm^3
# Si number density = 20.984321 Si / 1000 Ang^3
#
#
#
# Elastic Constant Matrix: (Units=GPa)
#
#
# Indices 1 2 3 4 5 6 
#
# 1 154.4871 49.5721 62.7646 0.0000 0.0000 0.0000
# 2 49.5721 105.0623 37.8615 0.0000 0.0000 0.0000
# 3 62.7646 37.8615 109.2010 0.0000 0.0000 0.0000
# 4 0.0000 0.0000 0.0000 36.0854 0.0000 0.0000
# 5 0.0000 0.0000 0.0000 0.0000 22.7943 0.0000
# 6 0.0000 0.0000 0.0000 0.0000 0.0000 37.2557
#
#
#
# Elastic Compliance Matrix: (Units=1/GPa)
#
#
# Indices 1 2 3 4 5 6 
#
# 1 0.009091 -0.002750 -0.004272 0.000000 0.000000 0.000000
# 2 -0.002750 0.011709 -0.002479 0.000000 0.000000 0.000000
# 3 -0.004272 -0.002479 0.012472 0.000000 0.000000 0.000000
# 4 0.000000 0.000000 0.000000 0.027712 0.000000 0.000000
# 5 0.000000 0.000000 0.000000 0.000000 0.043871 0.000000
# 6 0.000000 0.000000 0.000000 0.000000 0.000000 0.026842
#
#
# Mechanical properties :
#
#
# Convention : Reuss Voigt Hill
#
# Bulk Modulus (GPa) = 70.07397 74.34963 72.21180
# Shear Modulus (GPa) = 32.16367 33.79723 32.98045
#
# Velocity S-wave (km/s) = 3.91928 4.01757 3.96873
# Velocity P-wave (km/s) = 7.34486 7.55177 7.44903
#
# Compressibility (1/GPa) = 0.01427063
#
# Stress axis : x y z
#
# Youngs Moduli (GPa) = 109.99955 85.40343 80.17866
#
# Poissons Ratio (x) = 0.23486 0.34250
# Poissons Ratio (y) = 0.30250 0.19877
# Poissons Ratio (z) = 0.46988 0.21172
#
# Static dielectric constant tensor:
#      x y z
#    x 1.722300 0.000000 0.000000 
#    y 0.000000 1.864670 0.000000 
#    z 0.000000 0.000000 1.834980 
# 
# From -- ./inp_files/52212.got.cif
#   From: 2010.05.17/outbox.cif.g08.bks.cpg/sg68_27_cif.got.tgz:52212.got - 2010.06.03 18:57:09.
