data_PCOD9508260
_publ_section_title
;
Structure prediction by ZEFSAII (Michael W. Deem and Ramdas Pophale) SiO2 
 PCOD9508260
Probable space group: C C C A
;
_chemical_formula_sum "Si O2"
_cell_formula_units_Z 96
_cell_length_a 23.952411
_cell_length_b 11.454811
_cell_length_c 17.962918
_cell_angle_alpha 90.000000
_cell_angle_beta 90.000000
_cell_angle_gamma 90.000000
_cell_volume 4928.491937
_symmetry_space_group_name_H-M "C C C A"
_symmetry_group_IT_number 68
_space_group.IT_coordinate_system_code '2'
_symmetry_cell_setting 'orthorhombic'
loop_
_space_group_symop_operation_xyz
x,y,z
-x,1/2-y,z
x,1/2-y,1/2-z
-x,y,1/2-z
-x,-y,-z
x,1/2+y,-z
-x,1/2+y,1/2+z
x,-y,1/2+z
1/2+x,1/2+y,z
1/2-x,-y,z
1/2+x,-y,1/2-z
1/2-x,1/2+y,1/2-z
1/2-x,1/2-y,-z
1/2+x,y,-z
1/2-x,y,1/2+z
1/2+x,1/2-y,1/2+z
loop_
_atom_site_type_symbol
_atom_site_label
_atom_site_fract_x
_atom_site_fract_y
_atom_site_fract_z
Si Si1 0.658721 0.280927 0.875946
Si Si2 0.817089 0.010188 0.358710
Si Si3 0.063452 0.292485 0.668809
Si Si4 0.866217 0.004655 0.699314
Si Si5 0.141589 0.306116 0.960327
Si Si6 0.775859 0.386676 0.914869
O O1 0.661582 0.142473 0.868545
O O2 0.632843 0.365789 0.813811
O O3 0.723592 0.320678 0.879253
O O4 0.628156 0.317445 0.952973
O O5 0.750000 0.000000 0.350859
O O6 0.846406 0.969023 0.282536
O O7 0.836513 0.925850 0.425003
O O8 0.084968 0.250000 0.750000
O O9 0.077212 0.430108 0.674715
O O10 0.095689 0.241220 0.597515
O O11 0.000000 0.250000 0.663995
O O12 0.818269 0.060579 0.646020
O O13 0.190240 0.207871 0.960906
O O14 0.750000 0.500000 0.955488
#
# Coordination Sequence:
#
# PCOD9508260 Si02
#       6
#    16  16  16  16  16  16
#     4  11  23  35  56  85 133 165 190 246 316 366
#     4  12  23  34  57  89 130 173 208 234 295 379
#     4  10  21  43  70  88 108 151 211 269 308 349
#     4  10  22  39  58  87 123 156 210 258 299 363
#     4  11  23  36  58  91 118 159 214 248 295 375
#     4   9  19  34  54  79 123 162 198 239 292 350
#
# _framework density 19.478573999999998
#
# number of rings (size 3 to 8) (size 9 to 14) (size 15 to 20)
#    0.000    1.500    3.333    2.500    7.000    0.000 
#    0.000    0.833    0.000    0.000    0.000    0.000 
#    0.000    0.000    0.000    0.000    0.000    0.000 
#
# Total GULP energy -267741.231656 kJ/mol
# GULP energy per Si atom -5577.942326 kJ/mol
# Density = 1.943424 g / cm^3
# Si number density = 19.478574 Si / 1000 Ang^3
#
#
#
# Elastic Constant Matrix: (Units=GPa)
#
#
# Indices 1 2 3 4 5 6 
#
# 1 71.4543 37.1562 25.8296 0.0000 0.0000 0.0000
# 2 37.1562 130.7921 20.0379 0.0000 0.0000 0.0000
# 3 25.8296 20.0379 84.4764 0.0000 0.0000 0.0000
# 4 0.0000 0.0000 0.0000 -800.4905 0.0000 0.0000
# 5 0.0000 0.0000 0.0000 0.0000 25.4412 0.0000
# 6 0.0000 0.0000 0.0000 0.0000 0.0000 19.9583
#
#
#
# Elastic Compliance Matrix: (Units=1/GPa)
#
#
# Indices 1 2 3 4 5 6 
#
# 1 0.017883 -0.004403 -0.004424 0.000000 0.000000 0.000000
# 2 -0.004403 0.009018 -0.000793 0.000000 0.000000 0.000000
# 3 -0.004424 -0.000793 0.013378 0.000000 0.000000 0.000000
# 4 0.000000 0.000000 0.000000 -0.001249 0.000000 0.000000
# 5 0.000000 0.000000 0.000000 0.000000 0.039306 0.000000
# 6 0.000000 0.000000 0.000000 0.000000 0.000000 0.050105
#
#
# Mechanical properties :
#
#
# Convention : Reuss Voigt Hill
#
# Bulk Modulus (GPa) = 47.52614 50.30779 48.91697
# Shear Modulus (GPa) = 32.32194 -137.43825 -52.55815
#
# Velocity S-wave (km/s) = 4.07794 -8.40903 -5.20011
# Velocity P-wave (km/s) = 6.82825 8.27038 3.29956
#
# Compressibility (1/GPa) = 0.02104105
#
# Stress axis : x y z
#
# Youngs Moduli (GPa) = 55.91759 110.89010 74.74783
#
# Poissons Ratio (x) = 0.48822 0.33066
# Poissons Ratio (y) = 0.24619 0.05927
# Poissons Ratio (z) = 0.24736 0.08792
#
# Static dielectric constant tensor:
#      x y z
#    x 1.663510 0.000000 0.000000 
#    y 0.000000 1.732560 0.000000 
#    z 0.000000 0.000000 1.711930 
# 
# From -- ./inp_files/34073.got.cif
#   From: 2010.05.17/outbox.cif.g08.bks.cpg/sg68_18_cif.got.tgz:34073.got - 2010.06.03 18:57:09.
