data_PCOD9508555
_publ_section_title
;
Structure prediction by ZEFSAII (Michael W. Deem and Ramdas Pophale) SiO2 
 PCOD9508555
Probable space group: C C C A
;
_chemical_formula_sum "Si O2"
_cell_formula_units_Z 80
_cell_length_a 12.175218
_cell_length_b 20.511795
_cell_length_c 18.309310
_cell_angle_alpha 90.000000
_cell_angle_beta 90.000000
_cell_angle_gamma 90.000000
_cell_volume 4572.486073
_symmetry_space_group_name_H-M "C C C A"
_symmetry_group_IT_number 68
_space_group.IT_coordinate_system_code '2'
_symmetry_cell_setting 'orthorhombic'
loop_
_space_group_symop_operation_xyz
x,y,z
-x,1/2-y,z
x,1/2-y,1/2-z
-x,y,1/2-z
-x,-y,-z
x,1/2+y,-z
-x,1/2+y,1/2+z
x,-y,1/2+z
1/2+x,1/2+y,z
1/2-x,-y,z
1/2+x,-y,1/2-z
1/2-x,1/2+y,1/2-z
1/2-x,1/2-y,-z
1/2+x,y,-z
1/2-x,y,1/2+z
1/2+x,1/2-y,1/2+z
loop_
_atom_site_type_symbol
_atom_site_label
_atom_site_fract_x
_atom_site_fract_y
_atom_site_fract_z
Si Si1 0.865548 0.534345 0.428026
Si Si2 0.250000 0.000000 0.206378
Si Si3 0.075760 0.055798 0.093110
Si Si4 0.435469 0.310113 0.826922
Si Si5 0.619273 0.114795 0.211786
Si Si6 0.269306 0.750000 0.750000
O O1 0.750000 0.500000 0.413463
O O2 0.871602 0.553981 0.512786
O O3 0.885149 0.593750 0.372710
O O4 0.961523 0.482401 0.412427
O O5 0.151964 0.021987 0.153476
O O6 0.296224 0.061860 0.252091
O O7 0.061061 0.128353 0.121955
O O8 0.500000 0.250000 0.861376
O O9 0.500000 0.324343 0.750000
O O10 0.314338 0.284235 0.807300
O O11 0.500000 0.107722 0.250000
O O12 0.660657 0.189057 0.220573
#
# Coordination Sequence:
#
# PCOD9508555 Si02
#       6
#    16   8  16  16  16   8
#     4  11  25  38  63  94 127 158 201 259 314 363
#     4  12  22  38  68  90 124 160 206 254 308 364
#     4  11  23  43  61  92 127 158 202 259 310 368
#     4   9  21  37  64  91 116 160 209 252 300 367
#     4  12  24  39  63  94 124 165 206 254 308 368
#     4  10  22  40  60  90 126 160 206 256 300 366
#
# _framework density 17.495951999999999
#
# number of rings (size 3 to 8) (size 9 to 14) (size 15 to 20)
#    0.000    1.400    6.000    0.300    8.400    0.000 
#    0.000    3.000    0.000    0.000    0.000    0.000 
#    0.000    0.000    0.000    0.000    0.000    0.000 
#
# Total GULP energy -223212.154126 kJ/mol
# GULP energy per Si atom -5580.303853 kJ/mol
# Density = 1.745613 g / cm^3
# Si number density = 17.495952 Si / 1000 Ang^3
#
#
#
# Elastic Constant Matrix: (Units=GPa)
#
#
# Indices 1 2 3 4 5 6 
#
# 1 76.9453 30.9646 27.4051 0.0000 0.0000 0.0000
# 2 30.9646 147.2377 58.0518 0.0000 0.0000 0.0000
# 3 27.4051 58.0518 81.0604 0.0000 0.0000 0.0000
# 4 0.0000 0.0000 0.0000 27.4720 0.0000 0.0000
# 5 0.0000 0.0000 0.0000 0.0000 5.2200 0.0000
# 6 0.0000 0.0000 0.0000 0.0000 0.0000 366.4926
#
#
#
# Elastic Compliance Matrix: (Units=1/GPa)
#
#
# Indices 1 2 3 4 5 6 
#
# 1 0.015046 -0.001615 -0.003930 0.000000 0.000000 0.000000
# 2 -0.001615 0.009637 -0.006356 0.000000 0.000000 0.000000
# 3 -0.003930 -0.006356 0.018217 0.000000 0.000000 0.000000
# 4 0.000000 0.000000 0.000000 0.036401 0.000000 0.000000
# 5 0.000000 0.000000 0.000000 0.000000 0.191570 0.000000
# 6 0.000000 0.000000 0.000000 0.000000 0.000000 0.002729
#
#
# Mechanical properties :
#
#
# Convention : Reuss Voigt Hill
#
# Bulk Modulus (GPa) = 52.36046 59.78738 56.07392
# Shear Modulus (GPa) = 16.45995 92.42505 54.44250
#
# Velocity S-wave (km/s) = 3.07055 7.27607 5.58433
# Velocity P-wave (km/s) = 6.52405 10.23888 8.58481
#
# Compressibility (1/GPa) = 0.01909838
#
# Stress axis : x y z
#
# Youngs Moduli (GPa) = 66.46349 103.76411 54.89338
#
# Poissons Ratio (x) = 0.16753 0.21576
# Poissons Ratio (y) = 0.10731 0.34890
# Poissons Ratio (z) = 0.26123 0.65952
#
# Static dielectric constant tensor:
#      x y z
#    x 1.609480 0.000000 0.000000 
#    y 0.000000 1.594460 0.000000 
#    z 0.000000 0.000000 1.591590 
# 
# From -- ./inp_files/29570.got.cif
#   From: 2010.05.17/outbox.cif.g08.bks.cpg/sg68_15_cif.got.tgz:29570.got - 2010.06.03 18:57:09.
