data_PCOD9508902
_publ_section_title
;
Structure prediction by ZEFSAII (Michael W. Deem and Ramdas Pophale) SiO2 
 PCOD9508902
Probable space group: C C C A
;
_chemical_formula_sum "Si O2"
_cell_formula_units_Z 104
_cell_length_a 27.221027
_cell_length_b 18.960081
_cell_length_c 9.217615
_cell_angle_alpha 90.000000
_cell_angle_beta 90.000000
_cell_angle_gamma 90.000000
_cell_volume 4757.329795
_symmetry_space_group_name_H-M "C C C A"
_symmetry_group_IT_number 68
_space_group.IT_coordinate_system_code '2'
_symmetry_cell_setting 'orthorhombic'
loop_
_space_group_symop_operation_xyz
x,y,z
-x,1/2-y,z
x,1/2-y,1/2-z
-x,y,1/2-z
-x,-y,-z
x,1/2+y,-z
-x,1/2+y,1/2+z
x,-y,1/2+z
1/2+x,1/2+y,z
1/2-x,-y,z
1/2+x,-y,1/2-z
1/2-x,1/2+y,1/2-z
1/2-x,1/2-y,-z
1/2+x,y,-z
1/2-x,y,1/2+z
1/2+x,1/2-y,1/2+z
loop_
_atom_site_type_symbol
_atom_site_label
_atom_site_fract_x
_atom_site_fract_y
_atom_site_fract_z
Si Si1 0.000000 0.750000 0.750000
Si Si2 0.293832 0.585848 0.607956
Si Si3 0.446759 0.563280 0.325230
Si Si4 0.061824 0.714879 0.980738
Si Si5 0.170814 0.760776 0.423632
Si Si6 0.885114 0.519859 0.949097
Si Si7 0.000000 0.250000 0.750000
Si Si8 0.800451 0.609209 0.053939
O O1 0.038317 0.774904 0.875261
O O2 0.305879 0.663700 0.547742
O O3 0.341698 0.538401 0.572875
O O4 0.240078 0.571260 0.543727
O O5 0.288536 0.592045 0.780280
O O6 0.500000 0.552407 0.250000
O O7 0.444478 0.642079 0.392358
O O8 0.429599 0.511665 0.455533
O O9 0.406439 0.548099 0.201492
O O10 0.117089 0.735060 0.009420
O O11 0.034680 0.708812 0.136348
O O12 0.166476 0.750000 0.250000
O O13 0.199198 0.692354 0.478192
O O14 0.855604 0.582045 0.027741
#
# Coordination Sequence:
#
# PCOD9508902 Si02
#       8
#     4  16  16  16  16  16   4  16
#     4  10  24  38  64 108 138 174 256 304 360 426
#     4  11  24  46  69 103 141 187 241 299 371 449
#     4  12  27  50  70 106 145 196 251 305 366 435
#     4  11  22  44  70 104 143 191 242 303 366 436
#     4  10  22  43  69 102 140 186 232 298 369 440
#     4  12  26  47  72 104 145 193 242 311 365 439
#     4  10  24  42  76 104 142 202 236 302 370 438
#     4  11  26  43  74 104 142 186 245 296 375 438
#
# _framework density 21.861001999999999
#
# number of rings (size 3 to 8) (size 9 to 14) (size 15 to 20)
#    0.000    0.923    4.615    1.385    4.308    1.231 
#    4.154    0.000    0.000    0.000    0.000    0.000 
#    0.000    0.000    0.000    0.000    0.000    0.000 
#
# Total GULP energy -290164.073370 kJ/mol
# GULP energy per Si atom -5580.078334 kJ/mol
# Density = 2.181125 g / cm^3
# Si number density = 21.861002 Si / 1000 Ang^3
#
#
#
# Elastic Constant Matrix: (Units=GPa)
#
#
# Indices 1 2 3 4 5 6 
#
# 1 121.7868 28.9629 38.2436 0.0000 0.0000 0.0000
# 2 28.9629 93.6626 34.9984 0.0000 0.0000 0.0000
# 3 38.2436 34.9984 98.0009 0.0000 0.0000 0.0000
# 4 0.0000 0.0000 0.0000 19.9176 0.0000 0.0000
# 5 0.0000 0.0000 0.0000 0.0000 51.3193 0.0000
# 6 0.0000 0.0000 0.0000 0.0000 0.0000 21.5717
#
#
#
# Elastic Compliance Matrix: (Units=1/GPa)
#
#
# Indices 1 2 3 4 5 6 
#
# 1 0.009618 -0.001814 -0.003105 0.000000 0.000000 0.000000
# 2 -0.001814 0.012663 -0.003814 0.000000 0.000000 0.000000
# 3 -0.003105 -0.003814 0.012778 0.000000 0.000000 0.000000
# 4 0.000000 0.000000 0.000000 0.050207 0.000000 0.000000
# 5 0.000000 0.000000 0.000000 0.000000 0.019486 0.000000
# 6 0.000000 0.000000 0.000000 0.000000 0.000000 0.046357
#
#
# Mechanical properties :
#
#
# Convention : Reuss Voigt Hill
#
# Bulk Modulus (GPa) = 56.84589 57.54001 57.19295
# Shear Modulus (GPa) = 28.66333 32.64474 30.65404
#
# Velocity S-wave (km/s) = 3.62493 3.86850 3.74869
# Velocity P-wave (km/s) = 6.60151 6.80674 6.70491
#
# Compressibility (1/GPa) = 0.01759142
#
# Stress axis : x y z
#
# Youngs Moduli (GPa) = 103.97661 78.97179 78.25901
#
# Poissons Ratio (x) = 0.14322 0.24303
# Poissons Ratio (y) = 0.18857 0.29851
# Poissons Ratio (z) = 0.32289 0.30123
#
# Static dielectric constant tensor:
#      x y z
#    x 1.788780 0.000000 0.000000 
#    y 0.000000 1.930650 0.000000 
#    z 0.000000 0.000000 1.768000 
# 
# From -- ./inp_files/9038.got.cif
#   From: 2010.05.17/outbox.cif.g08.bks.cpg/sg68_5_cif.got.tgz:9038.got - 2010.06.03 18:57:09.
