data_PCOD9508436
_publ_section_title
;
Structure prediction by ZEFSAII (Michael W. Deem and Ramdas Pophale) SiO2 
 PCOD9508436
Probable space group: C C C A
;
_chemical_formula_sum "Si O2"
_cell_formula_units_Z 52
_cell_length_a 23.936948
_cell_length_b 5.467537
_cell_length_c 17.573717
_cell_angle_alpha 90.000000
_cell_angle_beta 90.000000
_cell_angle_gamma 90.000000
_cell_volume 2299.980402
_symmetry_space_group_name_H-M "C C C A"
_symmetry_group_IT_number 68
_space_group.IT_coordinate_system_code '2'
_symmetry_cell_setting 'orthorhombic'
loop_
_space_group_symop_operation_xyz
x,y,z
-x,1/2-y,z
x,1/2-y,1/2-z
-x,y,1/2-z
-x,-y,-z
x,1/2+y,-z
-x,1/2+y,1/2+z
x,-y,1/2+z
1/2+x,1/2+y,z
1/2-x,-y,z
1/2+x,-y,1/2-z
1/2-x,1/2+y,1/2-z
1/2-x,1/2-y,-z
1/2+x,y,-z
1/2-x,y,1/2+z
1/2+x,1/2-y,1/2+z
loop_
_atom_site_type_symbol
_atom_site_label
_atom_site_fract_x
_atom_site_fract_y
_atom_site_fract_z
Si Si1 0.905509 0.597166 0.822594
Si Si2 0.000000 0.250000 0.750000
Si Si3 0.937033 0.211506 0.469724
Si Si4 0.185605 0.496681 0.050899
O O1 0.886178 0.750000 0.750000
O O2 0.955882 0.412917 0.799484
O O3 0.933488 0.793587 0.879938
O O4 0.854519 0.490040 0.873140
O O5 0.912556 0.468814 0.496326
O O6 0.000000 0.250000 0.497936
O O7 0.250000 0.500000 0.078898
O O8 0.181568 0.732775 0.993814
#
# Coordination Sequence:
#
# PCOD9508436 Si02
#       4
#    16   4  16  16
#     4  12  27  45  67 105 151 200 242 303 374 452
#     4  12  30  44  64 102 168 200 248 298 378 456
#     4  10  22  38  62  90 127 178 240 287 339 416
#     4  10  24  51  82 111 143 190 257 325 378 438
#
# _framework density 22.608888
#
# number of rings (size 3 to 8) (size 9 to 14) (size 15 to 20)
#    0.000    1.231    0.000    4.154   15.077    0.000 
#    2.769    0.000    0.000    0.000    0.000    0.000 
#    0.000    0.000    0.000    0.000    0.000    0.000 
#
# Total GULP energy -144897.212457 kJ/mol
# GULP energy per Si atom -5572.969710 kJ/mol
# Density = 2.255743 g / cm^3
# Si number density = 22.608888 Si / 1000 Ang^3
#
#
#
# Elastic Constant Matrix: (Units=GPa)
#
#
# Indices 1 2 3 4 5 6 
#
# 1 167.7092 65.3811 63.9092 0.0000 0.0000 0.0000
# 2 65.3811 127.5640 72.4010 0.0000 0.0000 0.0000
# 3 63.9092 72.4010 152.3868 0.0000 0.0000 0.0000
# 4 0.0000 0.0000 0.0000 44.6050 0.0000 0.0000
# 5 0.0000 0.0000 0.0000 0.0000 50.3470 0.0000
# 6 0.0000 0.0000 0.0000 0.0000 0.0000 46.7210
#
#
#
# Elastic Compliance Matrix: (Units=1/GPa)
#
#
# Indices 1 2 3 4 5 6 
#
# 1 0.007828 -0.002942 -0.001885 0.000000 0.000000 0.000000
# 2 -0.002942 0.011839 -0.004391 0.000000 0.000000 0.000000
# 3 -0.001885 -0.004391 0.009439 0.000000 0.000000 0.000000
# 4 0.000000 0.000000 0.000000 0.022419 0.000000 0.000000
# 5 0.000000 0.000000 0.000000 0.000000 0.019862 0.000000
# 6 0.000000 0.000000 0.000000 0.000000 0.000000 0.021404
#
#
# Mechanical properties :
#
#
# Convention : Reuss Voigt Hill
#
# Bulk Modulus (GPa) = 93.72347 94.56032 94.14189
# Shear Modulus (GPa) = 43.55966 44.73252 44.14609
#
# Velocity S-wave (km/s) = 4.39414 4.45290 4.42362
# Velocity P-wave (km/s) = 8.20298 8.26758 8.23534
#
# Compressibility (1/GPa) = 0.01066969
#
# Stress axis : x y z
#
# Youngs Moduli (GPa) = 127.74498 84.46312 105.94193
#
# Poissons Ratio (x) = 0.24851 0.19971
# Poissons Ratio (y) = 0.37586 0.46521
# Poissons Ratio (z) = 0.24081 0.37089
#
# Static dielectric constant tensor:
#      x y z
#    x -2.980530 0.000000 0.000000 
#    y 0.000000 1.888770 0.000000 
#    z 0.000000 0.000000 1.819060 
# 
# From -- ./inp_files/33839.got.cif
#   From: 2010.05.17/outbox.cif.g08.bks.cpg/sg68_17_cif.got.tgz:33839.got - 2010.06.03 18:57:09.
