data_PCOD9508635
_publ_section_title
;
Structure prediction by ZEFSAII (Michael W. Deem and Ramdas Pophale) SiO2 
 PCOD9508635
Probable space group: C C C A
;
_chemical_formula_sum "Si O2"
_cell_formula_units_Z 56
_cell_length_a 12.842406
_cell_length_b 19.980912
_cell_length_c 8.356685
_cell_angle_alpha 90.000000
_cell_angle_beta 90.000000
_cell_angle_gamma 90.000000
_cell_volume 2144.350309
_symmetry_space_group_name_H-M "C C C A"
_symmetry_group_IT_number 68
_space_group.IT_coordinate_system_code '2'
_symmetry_cell_setting 'orthorhombic'
loop_
_space_group_symop_operation_xyz
x,y,z
-x,1/2-y,z
x,1/2-y,1/2-z
-x,y,1/2-z
-x,-y,-z
x,1/2+y,-z
-x,1/2+y,1/2+z
x,-y,1/2+z
1/2+x,1/2+y,z
1/2-x,-y,z
1/2+x,-y,1/2-z
1/2-x,1/2+y,1/2-z
1/2-x,1/2-y,-z
1/2+x,y,-z
1/2-x,y,1/2+z
1/2+x,1/2-y,1/2+z
loop_
_atom_site_type_symbol
_atom_site_label
_atom_site_fract_x
_atom_site_fract_y
_atom_site_fract_z
Si Si1 0.864640 0.139946 0.908663
Si Si2 0.854060 0.650112 0.707631
Si Si3 0.500000 0.750000 0.007258
Si Si4 0.124203 0.504235 0.943754
O O1 0.860055 0.136786 0.103247
O O2 0.952051 0.193800 0.896565
O O3 0.874711 0.064827 0.842320
O O4 0.762025 0.169871 0.834460
O O5 0.875324 0.577393 0.631915
O O6 0.923524 0.705967 0.620469
O O7 0.250000 0.500000 0.013618
O O8 0.000000 0.500000 0.000000
#
# Coordination Sequence:
#
# PCOD9508635 Si02
#       4
#    16  16   8  16
#     4  11  24  43  69  99 136 180 230 286 350 415
#     4  11  24  43  69  99 136 180 230 286 350 415
#     4  12  23  42  71  98 135 184 231 284 349 420
#     4  10  22  40  68 102 134 174 232 286 340 404
#
# _framework density 26.115136
#
# number of rings (size 3 to 8) (size 9 to 14) (size 15 to 20)
#    0.000    1.143    2.857    3.429    0.000   10.286 
#    0.000    2.857    0.000    0.000    0.000    0.000 
#    0.000    0.000    0.000    0.000    0.000    0.000 
#
# Total GULP energy -155907.180925 kJ/mol
# GULP energy per Si atom -5568.113604 kJ/mol
# Density = 2.605570 g / cm^3
# Si number density = 26.115136 Si / 1000 Ang^3
#
#
#
# Elastic Constant Matrix: (Units=GPa)
#
#
# Indices 1 2 3 4 5 6 
#
# 1 106.3247 -9.6607 39.5808 0.0000 0.0000 0.0000
# 2 -9.6607 150.0509 22.8312 0.0000 0.0000 0.0000
# 3 39.5808 22.8312 76.4122 0.0000 0.0000 0.0000
# 4 0.0000 0.0000 0.0000 12.8034 0.0000 0.0000
# 5 0.0000 0.0000 0.0000 0.0000 33.0455 0.0000
# 6 0.0000 0.0000 0.0000 0.0000 0.0000 64.9585
#
#
#
# Elastic Compliance Matrix: (Units=1/GPa)
#
#
# Indices 1 2 3 4 5 6 
#
# 1 0.012107 0.001816 -0.006814 0.000000 0.000000 0.000000
# 2 0.001816 0.007254 -0.003108 0.000000 0.000000 0.000000
# 3 -0.006814 -0.003108 0.017545 0.000000 0.000000 0.000000
# 4 0.000000 0.000000 0.000000 0.078104 0.000000 0.000000
# 5 0.000000 0.000000 0.000000 0.000000 0.030261 0.000000
# 6 0.000000 0.000000 0.000000 0.000000 0.000000 0.015394
#
#
# Mechanical properties :
#
#
# Convention : Reuss Voigt Hill
#
# Bulk Modulus (GPa) = 48.32238 48.69893 48.51066
# Shear Modulus (GPa) = 27.20700 40.83058 34.01879
#
# Velocity S-wave (km/s) = 3.23121 3.95838 3.61313
# Velocity P-wave (km/s) = 5.69778 6.29126 6.00186
#
# Compressibility (1/GPa) = 0.02069434
#
# Stress axis : x y z
#
# Youngs Moduli (GPa) = 82.59870 137.84949 56.99576
#
# Poissons Ratio (x) = -0.25037 0.38836
# Poissons Ratio (y) = -0.15002 0.17716
# Poissons Ratio (z) = 0.56282 0.42848
#
# Static dielectric constant tensor:
#      x y z
#    x 0.885040 0.000000 0.000000 
#    y 0.000000 1.983720 0.000000 
#    z 0.000000 0.000000 2.136210 
# 
# From -- ./inp_files/11407.got.cif
#   From: 2010.05.17/outbox.cif.g08.bks.cpg/sg68_6_cif.got.tgz:11407.got - 2010.06.03 18:57:09.
