data_PCOD9508444
_publ_section_title
;
Structure prediction by ZEFSAII (Michael W. Deem and Ramdas Pophale) SiO2 
 PCOD9508444
Probable space group: C C C A
;
_chemical_formula_sum "Si O2"
_cell_formula_units_Z 88
_cell_length_a 22.002859
_cell_length_b 13.856250
_cell_length_c 13.673410
_cell_angle_alpha 90.000000
_cell_angle_beta 90.000000
_cell_angle_gamma 90.000000
_cell_volume 4168.709793
_symmetry_space_group_name_H-M "C C C A"
_symmetry_group_IT_number 68
_space_group.IT_coordinate_system_code '2'
_symmetry_cell_setting 'orthorhombic'
loop_
_space_group_symop_operation_xyz
x,y,z
-x,1/2-y,z
x,1/2-y,1/2-z
-x,y,1/2-z
-x,-y,-z
x,1/2+y,-z
-x,1/2+y,1/2+z
x,-y,1/2+z
1/2+x,1/2+y,z
1/2-x,-y,z
1/2+x,-y,1/2-z
1/2-x,1/2+y,1/2-z
1/2-x,1/2-y,-z
1/2+x,y,-z
1/2-x,y,1/2+z
1/2+x,1/2-y,1/2+z
loop_
_atom_site_type_symbol
_atom_site_label
_atom_site_fract_x
_atom_site_fract_y
_atom_site_fract_z
Si Si1 0.951287 0.143754 0.028213
Si Si2 0.411140 0.163333 0.595552
Si Si3 0.936593 0.349457 0.698030
Si Si4 0.852254 0.032341 0.260406
Si Si5 0.146467 0.991233 0.462910
Si Si6 0.250000 0.500000 0.896630
O O1 0.950865 0.171990 0.914535
O O2 0.910055 0.221724 0.085171
O O3 0.918553 0.042231 0.032148
O O4 0.018744 0.140818 0.069696
O O5 0.395983 0.117775 0.701006
O O6 0.367813 0.112204 0.513461
O O7 0.916538 0.250000 0.750000
O O8 0.887449 0.434794 0.704770
O O9 0.000000 0.379554 0.750000
O O10 0.836610 0.006722 0.149410
O O11 0.791308 0.058108 0.320430
O O12 0.198593 0.040267 0.529857
#
# Coordination Sequence:
#
# PCOD9508444 Si02
#       6
#    16  16  16  16  16   8
#     4  11  21  39  61  94 133 165 201 261 322 377
#     4  10  22  38  62  96 131 161 206 256 320 386
#     4  11  21  36  64  98 128 163 215 257 309 382
#     4  11  23  39  66  92 124 169 213 255 326 371
#     4  11  22  40  65  85 127 166 210 266 314 372
#     4  10  22  44  62  86 120 172 216 266 302 376
#
# _framework density 21.109648
#
# number of rings (size 3 to 8) (size 9 to 14) (size 15 to 20)
#    0.000    1.273    3.636    5.455    2.545    0.727 
#    0.000    5.455    8.000    0.000    0.000    0.000 
#    0.000    0.000    0.000    0.000    0.000    0.000 
#
# Total GULP energy -245057.599711 kJ/mol
# GULP energy per Si atom -5569.490903 kJ/mol
# Density = 2.106160 g / cm^3
# Si number density = 21.109648 Si / 1000 Ang^3
#
#
#
# Elastic Constant Matrix: (Units=GPa)
#
#
# Indices 1 2 3 4 5 6 
#
# 1 53.1571 3.8567 27.7588 0.0000 0.0000 0.0000
# 2 3.8567 47.6621 12.8862 0.0000 0.0000 0.0000
# 3 27.7588 12.8862 140.4747 0.0000 0.0000 0.0000
# 4 0.0000 0.0000 0.0000 25.6764 0.0000 0.0000
# 5 0.0000 0.0000 0.0000 0.0000 -87.1004 0.0000
# 6 0.0000 0.0000 0.0000 0.0000 0.0000 0.4173
#
#
#
# Elastic Compliance Matrix: (Units=1/GPa)
#
#
# Indices 1 2 3 4 5 6 
#
# 1 0.020993 -0.000592 -0.004094 0.000000 0.000000 0.000000
# 2 -0.000592 0.021531 -0.001858 0.000000 0.000000 0.000000
# 3 -0.004094 -0.001858 0.008098 0.000000 0.000000 0.000000
# 4 0.000000 0.000000 0.000000 0.038946 0.000000 0.000000
# 5 0.000000 0.000000 0.000000 0.000000 -0.011481 0.000000
# 6 0.000000 0.000000 0.000000 0.000000 0.000000 2.396589
#
#
# Mechanical properties :
#
#
# Convention : Reuss Voigt Hill
#
# Bulk Modulus (GPa) = 26.64222 36.69968 31.67095
# Shear Modulus (GPa) = 1.99978 0.91814 1.45896
#
# Velocity S-wave (km/s) = 0.97436 0.66021 0.83225
# Velocity P-wave (km/s) = 3.73016 4.24313 3.99489
#
# Compressibility (1/GPa) = 0.03753441
#
# Stress axis : x y z
#
# Youngs Moduli (GPa) = 47.63488 46.44398 123.48426
#
# Poissons Ratio (x) = 0.02749 0.50555
# Poissons Ratio (y) = 0.02819 0.22946
# Poissons Ratio (z) = 0.19502 0.08630
#
# Static dielectric constant tensor:
#      x y z
#    x 1.779580 0.000000 0.000000 
#    y 0.000000 1.771640 0.000000 
#    z 0.000000 0.000000 1.836740 
# 
# From -- ./inp_files/22247.got.cif
#   From: 2010.05.17/outbox.cif.g08.bks.cpg/sg68_12_cif.got.tgz:22247.got - 2010.06.03 18:57:09.
