data_PCOD9508046
_publ_section_title
;
Structure prediction by ZEFSAII (Michael W. Deem and Ramdas Pophale) SiO2 
 PCOD9508046
Probable space group: C C C A
;
_chemical_formula_sum "Si O2"
_cell_formula_units_Z 104
_cell_length_a 20.685933
_cell_length_b 17.508227
_cell_length_c 14.705808
_cell_angle_alpha 90.000000
_cell_angle_beta 90.000000
_cell_angle_gamma 90.000000
_cell_volume 5326.061464
_symmetry_space_group_name_H-M "C C C A"
_symmetry_group_IT_number 68
_space_group.IT_coordinate_system_code '2'
_symmetry_cell_setting 'orthorhombic'
loop_
_space_group_symop_operation_xyz
x,y,z
-x,1/2-y,z
x,1/2-y,1/2-z
-x,y,1/2-z
-x,-y,-z
x,1/2+y,-z
-x,1/2+y,1/2+z
x,-y,1/2+z
1/2+x,1/2+y,z
1/2-x,-y,z
1/2+x,-y,1/2-z
1/2-x,1/2+y,1/2-z
1/2-x,1/2-y,-z
1/2+x,y,-z
1/2-x,y,1/2+z
1/2+x,1/2-y,1/2+z
loop_
_atom_site_type_symbol
_atom_site_label
_atom_site_fract_x
_atom_site_fract_y
_atom_site_fract_z
Si Si1 0.528561 0.997682 0.341914
Si Si2 0.580052 0.066448 0.522631
Si Si3 0.783347 0.250000 0.250000
Si Si4 0.704896 0.209222 0.074952
Si Si5 0.924824 0.243160 0.017949
Si Si6 0.378397 0.862089 0.162356
Si Si7 0.809361 0.051053 0.502131
O O1 0.500000 0.034241 0.250000
O O2 0.477029 0.957775 0.409360
O O3 0.574268 0.929016 0.305594
O O4 0.562925 0.053656 0.414971
O O5 0.592584 0.155374 0.537276
O O6 0.637213 0.006656 0.540320
O O7 0.735903 0.239270 0.166213
O O8 0.830980 0.321776 0.233066
O O9 0.629889 0.228042 0.052856
O O10 0.750000 0.250000 0.000000
O O11 0.711097 0.117757 0.070383
O O12 0.000000 0.250000 0.988428
O O13 0.916441 0.295361 0.107952
O O14 0.337057 0.903453 0.083845
O O15 0.750000 0.000000 0.472907
#
# Coordination Sequence:
#
# PCOD9508046 Si02
#       7
#    16  16   8  16  16  16  16
#     4  10  22  40  60  94 130 162 205 263 333 387
#     4  10  22  39  63  91 130 168 205 267 317 389
#     4  12  24  42  68  94 134 162 228 278 322 382
#     4  11  23  43  66  94 131 175 219 269 323 396
#     4  11  21  41  71  95 130 173 217 266 331 392
#     4  10  23  38  64  99 122 161 219 275 323 385
#     4  10  21  40  66  88 124 170 213 257 328 384
#
# _framework density 19.526624999999999
#
# number of rings (size 3 to 8) (size 9 to 14) (size 15 to 20)
#    0.000    1.538    4.615    0.923    4.308    0.000 
#    2.769    1.154    0.000    0.000    0.000    0.000 
#    0.000    0.000    0.000    0.000    0.000    0.000 
#
# Total GULP energy -290061.501748 kJ/mol
# GULP energy per Si atom -5578.105803 kJ/mol
# Density = 1.948218 g / cm^3
# Si number density = 19.526625 Si / 1000 Ang^3
#
#
#
# Elastic Constant Matrix: (Units=GPa)
#
#
# Indices 1 2 3 4 5 6 
#
# 1 93.3942 16.5487 22.2070 0.0000 0.0000 0.0000
# 2 16.5487 86.1959 -5.3014 0.0000 0.0000 0.0000
# 3 22.2070 -5.3014 78.5947 0.0000 0.0000 0.0000
# 4 0.0000 0.0000 0.0000 3.8063 0.0000 0.0000
# 5 0.0000 0.0000 0.0000 0.0000 11.9364 0.0000
# 6 0.0000 0.0000 0.0000 0.0000 0.0000 27.2816
#
#
#
# Elastic Compliance Matrix: (Units=1/GPa)
#
#
# Indices 1 2 3 4 5 6 
#
# 1 0.012001 -0.002523 -0.003561 0.000000 0.000000 0.000000
# 2 -0.002523 0.012180 0.001535 0.000000 0.000000 0.000000
# 3 -0.003561 0.001535 0.013833 0.000000 0.000000 0.000000
# 4 0.000000 0.000000 0.000000 0.262720 0.000000 0.000000
# 5 0.000000 0.000000 0.000000 0.000000 0.083777 0.000000
# 6 0.000000 0.000000 0.000000 0.000000 0.000000 0.036655
#
#
# Mechanical properties :
#
#
# Convention : Reuss Voigt Hill
#
# Bulk Modulus (GPa) = 34.58395 36.12148 35.35272
# Shear Modulus (GPa) = 11.36612 23.58691 17.47652
#
# Velocity S-wave (km/s) = 2.41526 3.47931 2.99492
# Velocity P-wave (km/s) = 5.05248 5.88893 5.48667
#
# Compressibility (1/GPa) = 0.02891515
#
# Stress axis : x y z
#
# Youngs Moduli (GPa) = 83.32547 82.10000 72.28976
#
# Poissons Ratio (x) = 0.20715 0.25743
# Poissons Ratio (y) = 0.21024 -0.11093
# Poissons Ratio (z) = 0.29673 -0.12598
#
# Static dielectric constant tensor:
#      x y z
#    x 1.730460 0.000000 0.000000 
#    y 0.000000 1.682450 0.000000 
#    z 0.000000 0.000000 1.667160 
# 
# From -- ./inp_files/24665.got.cif
#   From: 2010.05.17/outbox.cif.g08.bks.cpg/sg68_13_cif.got.tgz:24665.got - 2010.06.03 18:57:09.
