data_PCOD9508498
_publ_section_title
;
Structure prediction by ZEFSAII (Michael W. Deem and Ramdas Pophale) SiO2 
 PCOD9508498
Probable space group: C C C A
;
_chemical_formula_sum "Si O2"
_cell_formula_units_Z 96
_cell_length_a 23.599993
_cell_length_b 7.675327
_cell_length_c 25.329208
_cell_angle_alpha 90.000000
_cell_angle_beta 90.000000
_cell_angle_gamma 90.000000
_cell_volume 4588.073555
_symmetry_space_group_name_H-M "C C C A"
_symmetry_group_IT_number 68
_space_group.IT_coordinate_system_code '2'
_symmetry_cell_setting 'orthorhombic'
loop_
_space_group_symop_operation_xyz
x,y,z
-x,1/2-y,z
x,1/2-y,1/2-z
-x,y,1/2-z
-x,-y,-z
x,1/2+y,-z
-x,1/2+y,1/2+z
x,-y,1/2+z
1/2+x,1/2+y,z
1/2-x,-y,z
1/2+x,-y,1/2-z
1/2-x,1/2+y,1/2-z
1/2-x,1/2-y,-z
1/2+x,y,-z
1/2-x,y,1/2+z
1/2+x,1/2-y,1/2+z
loop_
_atom_site_type_symbol
_atom_site_label
_atom_site_fract_x
_atom_site_fract_y
_atom_site_fract_z
Si Si1 0.993957 0.543024 0.938620
Si Si2 0.183376 0.956523 0.195063
Si Si3 0.614622 0.990191 0.405987
Si Si4 0.631982 0.911861 0.078475
Si Si5 0.183957 0.040400 0.813224
Si Si6 0.295815 0.114067 0.021461
O O1 0.048306 0.464108 0.908794
O O2 0.000000 0.750000 0.930287
O O3 0.929564 0.499536 0.924570
O O4 0.000000 0.500000 0.000000
O O5 0.177153 0.748548 0.188444
O O6 0.167236 0.017736 0.254081
O O7 0.250000 0.000000 0.187379
O O8 0.141533 0.030611 0.151354
O O9 0.623793 0.797087 0.431270
O O10 0.651598 0.130083 0.439036
O O11 0.674962 0.964939 0.031549
O O12 0.655096 0.953785 0.136360
O O13 0.250000 0.000000 0.818458
O O14 0.250000 0.000000 0.053827
O O15 0.250000 0.250000 0.000000
#
# Coordination Sequence:
#
# PCOD9508498 Si02
#       6
#    16  16  16  16  16  16
#     4  10  22  40  59  83 116 162 206 245 294 355
#     4  10  22  39  62  89 122 154 197 248 305 364
#     4  11  23  39  59  85 122 161 203 249 297 358
#     4  11  23  39  60  86 121 159 204 248 300 361
#     4  10  22  39  61  91 119 158 197 245 306 363
#     4  12  24  35  55  91 124 157 194 245 306 364
#
# _framework density 20.923815000000001
#
# number of rings (size 3 to 8) (size 9 to 14) (size 15 to 20)
#    0.000    1.333    3.333    2.000    4.667    3.333 
#    0.000    0.833    0.000    5.000    0.000    0.000 
#    0.000    0.000    0.000    0.000    0.000    0.000 
#
# Total GULP energy -267724.825153 kJ/mol
# GULP energy per Si atom -5577.600524 kJ/mol
# Density = 2.087619 g / cm^3
# Si number density = 20.923815 Si / 1000 Ang^3
#
#
#
# Elastic Constant Matrix: (Units=GPa)
#
#
# Indices 1 2 3 4 5 6 
#
# 1 177.7814 17.9322 89.1266 0.0000 0.0000 0.0000
# 2 17.9322 35.1585 -0.1529 0.0000 0.0000 0.0000
# 3 89.1266 -0.1529 158.2183 0.0000 0.0000 0.0000
# 4 0.0000 0.0000 0.0000 26.1396 0.0000 0.0000
# 5 0.0000 0.0000 0.0000 0.0000 26.4172 0.0000
# 6 0.0000 0.0000 0.0000 0.0000 0.0000 25.0806
#
#
#
# Elastic Compliance Matrix: (Units=1/GPa)
#
#
# Indices 1 2 3 4 5 6 
#
# 1 0.008450 -0.004331 -0.004764 0.000000 0.000000 0.000000
# 2 -0.004331 0.030662 0.002469 0.000000 0.000000 0.000000
# 3 -0.004764 0.002469 0.009007 0.000000 0.000000 0.000000
# 4 0.000000 0.000000 0.000000 0.038256 0.000000 0.000000
# 5 0.000000 0.000000 0.000000 0.000000 0.037854 0.000000
# 6 0.000000 0.000000 0.000000 0.000000 0.000000 0.039871
#
#
# Mechanical properties :
#
#
# Convention : Reuss Voigt Hill
#
# Bulk Modulus (GPa) = 28.68012 64.99665 46.83839
# Shear Modulus (GPa) = 26.45860 33.14432 29.80146
#
# Velocity S-wave (km/s) = 3.55987 3.98433 3.77806
# Velocity P-wave (km/s) = 5.53476 7.23169 6.43937
#
# Compressibility (1/GPa) = 0.03486736
#
# Stress axis : x y z
#
# Youngs Moduli (GPa) = 118.34090 32.61346 111.03022
#
# Poissons Ratio (x) = 0.14124 0.52898
# Poissons Ratio (y) = 0.51249 -0.27415
# Poissons Ratio (z) = 0.56381 -0.08053
#
# Static dielectric constant tensor:
#      x y z
#    x 1.736980 0.000000 0.000000 
#    y 0.000000 2.045100 0.000000 
#    z 0.000000 0.000000 1.734110 
# 
# From -- ./inp_files/51750.got.cif
#   From: 2010.05.17/outbox.cif.g08.bks.cpg/sg68_26_cif.got.tgz:51750.got - 2010.06.03 18:57:09.
