data_PCOD9508770
_publ_section_title
;
Structure prediction by ZEFSAII (Michael W. Deem and Ramdas Pophale) SiO2 
 PCOD9508770
Probable space group: C C C A
;
_chemical_formula_sum "Si O2"
_cell_formula_units_Z 116
_cell_length_a 25.324708
_cell_length_b 26.694421
_cell_length_c 8.353723
_cell_angle_alpha 90.000000
_cell_angle_beta 90.000000
_cell_angle_gamma 90.000000
_cell_volume 5647.354136
_symmetry_space_group_name_H-M "C C C A"
_symmetry_group_IT_number 68
_space_group.IT_coordinate_system_code '2'
_symmetry_cell_setting 'orthorhombic'
loop_
_space_group_symop_operation_xyz
x,y,z
-x,1/2-y,z
x,1/2-y,1/2-z
-x,y,1/2-z
-x,-y,-z
x,1/2+y,-z
-x,1/2+y,1/2+z
x,-y,1/2+z
1/2+x,1/2+y,z
1/2-x,-y,z
1/2+x,-y,1/2-z
1/2-x,1/2+y,1/2-z
1/2-x,1/2-y,-z
1/2+x,y,-z
1/2-x,y,1/2+z
1/2+x,1/2-y,1/2+z
loop_
_atom_site_type_symbol
_atom_site_label
_atom_site_fract_x
_atom_site_fract_y
_atom_site_fract_z
Si Si1 0.918766 0.826580 0.287254
Si Si2 0.371092 0.511128 0.499009
Si Si3 0.686770 0.307000 0.405335
Si Si4 0.560529 0.057650 0.275515
Si Si5 0.706045 0.958191 0.235017
Si Si6 0.214970 0.846269 0.744416
Si Si7 0.869399 0.281388 0.410210
Si Si8 0.000000 0.250000 0.750000
O O1 0.862714 0.825627 0.198089
O O2 0.937577 0.883108 0.305207
O O3 0.912249 0.801549 0.463303
O O4 0.958244 0.791331 0.184271
O O5 0.412746 0.474438 0.415349
O O6 0.402774 0.544891 0.623575
O O7 0.338483 0.543467 0.372081
O O8 0.326669 0.477207 0.583107
O O9 0.737595 0.309361 0.292391
O O10 0.701306 0.340699 0.558412
O O11 0.668818 0.254702 0.485041
O O12 0.500000 0.042301 0.250000
O O13 0.729871 0.903234 0.215857
O O14 0.750000 0.000000 0.270530
O O15 0.164503 0.828055 0.845319
O O16 0.886020 0.250000 0.250000
#
# Coordination Sequence:
#
# PCOD9508770 Si02
#       8
#    16  16  16  16  16  16  16   4
#     4  12  23  43  70  95 129 175 223 272 331 394
#     4  10  24  42  63  93 133 163 222 275 324 394
#     4  11  23  38  64  93 130 169 214 264 318 393
#     4  11  23  42  70  97 126 173 222 284 343 385
#     4  11  24  39  61  90 130 172 211 259 325 402
#     4  11  24  37  63  94 130 170 211 255 328 397
#     4  10  22  42  63  94 134 168 212 267 324 386
#     4  12  24  44  70  96 124 168 230 276 316 396
#
# _framework density 20.540593000000001
#
# number of rings (size 3 to 8) (size 9 to 14) (size 15 to 20)
#    0.000    1.103    2.069    3.724    7.724    2.207 
#    0.000    0.345    0.000    3.310    0.000    0.000 
#    0.000    0.000    0.000    0.000    0.000    0.000 
#
# Total GULP energy -323900.049588 kJ/mol
# GULP energy per Si atom -5584.483614 kJ/mol
# Density = 2.049384 g / cm^3
# Si number density = 20.540593 Si / 1000 Ang^3
#
#
#
# Elastic Constant Matrix: (Units=GPa)
#
#
# Indices 1 2 3 4 5 6 
#
# 1 82.0754 18.2345 23.6682 0.0000 0.0000 0.0000
# 2 18.2345 121.1112 20.6539 0.0000 0.0000 0.0000
# 3 23.6682 20.6539 77.1424 0.0000 0.0000 0.0000
# 4 0.0000 0.0000 0.0000 -35.8257 0.0000 0.0000
# 5 0.0000 0.0000 0.0000 0.0000 9.2257 0.0000
# 6 0.0000 0.0000 0.0000 0.0000 0.0000 33.8686
#
#
#
# Elastic Compliance Matrix: (Units=1/GPa)
#
#
# Indices 1 2 3 4 5 6 
#
# 1 0.013589 -0.001399 -0.003795 0.000000 0.000000 0.000000
# 2 -0.001399 0.008796 -0.001926 0.000000 0.000000 0.000000
# 3 -0.003795 -0.001926 0.014643 0.000000 0.000000 0.000000
# 4 0.000000 0.000000 0.000000 -0.027913 0.000000 0.000000
# 5 0.000000 0.000000 0.000000 0.000000 0.108393 0.000000
# 6 0.000000 0.000000 0.000000 0.000000 0.000000 0.029526
#
#
# Mechanical properties :
#
#
# Convention : Reuss Voigt Hill
#
# Bulk Modulus (GPa) = 43.88073 45.04915 44.46494
# Shear Modulus (GPa) = 29.60871 15.97186 22.79029
#
# Velocity S-wave (km/s) = 3.80079 2.79153 3.33457
# Velocity P-wave (km/s) = 6.37736 5.68943 6.04319
#
# Compressibility (1/GPa) = 0.02278905
#
# Stress axis : x y z
#
# Youngs Moduli (GPa) = 73.58902 113.68930 68.29233
#
# Poissons Ratio (x) = 0.15903 0.25915
# Poissons Ratio (y) = 0.10294 0.13152
# Poissons Ratio (z) = 0.27925 0.21894
#
# Static dielectric constant tensor:
#      x y z
#    x 1.711700 0.000000 0.000000 
#    y 0.000000 1.712550 0.000000 
#    z 0.000000 0.000000 1.775420 
# 
# From -- ./inp_files/8340.got.cif
#   From: 2010.05.17/outbox.cif.g08.bks.cpg/sg68_5_cif.got.tgz:8340.got - 2010.06.03 18:57:09.
