data_PCOD9508203
_publ_section_title
;
Structure prediction by ZEFSAII (Michael W. Deem and Ramdas Pophale) SiO2 
 PCOD9508203
Probable space group: C C C A
;
_chemical_formula_sum "Si O2"
_cell_formula_units_Z 96
_cell_length_a 10.624617
_cell_length_b 16.281958
_cell_length_c 23.489006
_cell_angle_alpha 90.000000
_cell_angle_beta 90.000000
_cell_angle_gamma 90.000000
_cell_volume 4063.352995
_symmetry_space_group_name_H-M "C C C A"
_symmetry_group_IT_number 68
_space_group.IT_coordinate_system_code '2'
_symmetry_cell_setting 'orthorhombic'
loop_
_space_group_symop_operation_xyz
x,y,z
-x,1/2-y,z
x,1/2-y,1/2-z
-x,y,1/2-z
-x,-y,-z
x,1/2+y,-z
-x,1/2+y,1/2+z
x,-y,1/2+z
1/2+x,1/2+y,z
1/2-x,-y,z
1/2+x,-y,1/2-z
1/2-x,1/2+y,1/2-z
1/2-x,1/2-y,-z
1/2+x,y,-z
1/2-x,y,1/2+z
1/2+x,1/2-y,1/2+z
loop_
_atom_site_type_symbol
_atom_site_label
_atom_site_fract_x
_atom_site_fract_y
_atom_site_fract_z
Si Si1 0.684502 0.387798 0.399384
Si Si2 0.500000 0.395319 0.250000
Si Si3 0.000000 0.750000 0.430295
Si Si4 0.023714 0.977922 0.579136
Si Si5 0.224153 0.662038 0.722704
Si Si6 0.869024 0.113353 0.993717
Si Si7 0.385360 0.961284 0.190461
O O1 0.576857 0.317772 0.395971
O O2 0.605420 0.472882 0.404612
O O3 0.770243 0.365570 0.343962
O O4 0.760283 0.383598 0.459127
O O5 0.629149 0.348408 0.258893
O O6 0.525237 0.460392 0.199918
O O7 0.101912 0.700889 0.467187
O O8 0.125254 0.045313 0.556904
O O9 0.069535 0.923756 0.631882
O O10 0.991914 0.916806 0.528357
O O11 0.186284 0.750000 0.750000
O O12 0.137591 0.596452 0.755806
O O13 0.250000 0.000000 0.180446
#
# Coordination Sequence:
#
# PCOD9508203 Si02
#       7
#    16   8   8  16  16  16  16
#     4  11  23  42  68  94 136 183 230 282 352 416
#     4  10  21  42  67  92 130 170 230 280 333 418
#     4  10  24  40  61  98 135 184 220 292 348 412
#     4  10  22  42  68  97 129 179 230 292 335 420
#     4  11  25  40  67 103 133 181 226 288 353 410
#     4  10  23  40  67  99 132 180 234 282 349 413
#     4  10  23  39  64  97 131 174 225 284 342 409
#
# _framework density 23.625807999999999
#
# number of rings (size 3 to 8) (size 9 to 14) (size 15 to 20)
#    0.000    1.667    1.667    1.250    4.667    8.000 
#    0.000    0.417    0.000    0.000    0.000    0.000 
#    0.000    0.000    0.000    0.000    0.000    0.000 
#
# Total GULP energy -267806.714380 kJ/mol
# GULP energy per Si atom -5579.306550 kJ/mol
# Density = 2.357203 g / cm^3
# Si number density = 23.625808 Si / 1000 Ang^3
#
#
#
# Elastic Constant Matrix: (Units=GPa)
#
#
# Indices 1 2 3 4 5 6 
#
# 1 74.5443 18.0523 34.5897 0.0000 0.0000 0.0000
# 2 18.0523 74.5081 17.7229 0.0000 0.0000 0.0000
# 3 34.5897 17.7229 130.8117 0.0000 0.0000 0.0000
# 4 0.0000 0.0000 0.0000 20.4374 0.0000 0.0000
# 5 0.0000 0.0000 0.0000 0.0000 9.0131 0.0000
# 6 0.0000 0.0000 0.0000 0.0000 0.0000 29.2593
#
#
#
# Elastic Compliance Matrix: (Units=1/GPa)
#
#
# Indices 1 2 3 4 5 6 
#
# 1 0.015893 -0.002946 -0.003803 0.000000 0.000000 0.000000
# 2 -0.002946 0.014414 -0.001174 0.000000 0.000000 0.000000
# 3 -0.003803 -0.001174 0.008809 0.000000 0.000000 0.000000
# 4 0.000000 0.000000 0.000000 0.048930 0.000000 0.000000
# 5 0.000000 0.000000 0.000000 0.000000 0.110950 0.000000
# 6 0.000000 0.000000 0.000000 0.000000 0.000000 0.034177
#
#
# Mechanical properties :
#
#
# Convention : Reuss Voigt Hill
#
# Bulk Modulus (GPa) = 42.97339 46.73264 44.85301
# Shear Modulus (GPa) = 19.47214 25.70857 22.59036
#
# Velocity S-wave (km/s) = 2.87398 3.30230 3.09556
# Velocity P-wave (km/s) = 5.40756 5.86204 5.63938
#
# Compressibility (1/GPa) = 0.02327022
#
# Stress axis : x y z
#
# Youngs Moduli (GPa) = 62.92038 69.37526 113.51608
#
# Poissons Ratio (x) = 0.20438 0.43174
# Poissons Ratio (y) = 0.18536 0.13326
# Poissons Ratio (z) = 0.23931 0.08144
#
# Static dielectric constant tensor:
#      x y z
#    x 1.911680 0.000000 0.000000 
#    y 0.000000 1.867090 0.000000 
#    z 0.000000 0.000000 1.959290 
# 
# From -- ./inp_files/44477.got.cif
#   From: 2010.05.17/outbox.cif.g08.bks.cpg/sg68_23_cif.got.tgz:44477.got - 2010.06.03 18:57:09.
