data_PCOD9508168
_publ_section_title
;
Structure prediction by ZEFSAII (Michael W. Deem and Ramdas Pophale) SiO2 
 PCOD9508168
Probable space group: C C C A
;
_chemical_formula_sum "Si O2"
_cell_formula_units_Z 88
_cell_length_a 14.603190
_cell_length_b 26.297707
_cell_length_c 10.389137
_cell_angle_alpha 90.000000
_cell_angle_beta 90.000000
_cell_angle_gamma 90.000000
_cell_volume 3989.744561
_symmetry_space_group_name_H-M "C C C A"
_symmetry_group_IT_number 68
_space_group.IT_coordinate_system_code '2'
_symmetry_cell_setting 'orthorhombic'
loop_
_space_group_symop_operation_xyz
x,y,z
-x,1/2-y,z
x,1/2-y,1/2-z
-x,y,1/2-z
-x,-y,-z
x,1/2+y,-z
-x,1/2+y,1/2+z
x,-y,1/2+z
1/2+x,1/2+y,z
1/2-x,-y,z
1/2+x,-y,1/2-z
1/2-x,1/2+y,1/2-z
1/2-x,1/2-y,-z
1/2+x,y,-z
1/2-x,y,1/2+z
1/2+x,1/2-y,1/2+z
loop_
_atom_site_type_symbol
_atom_site_label
_atom_site_fract_x
_atom_site_fract_y
_atom_site_fract_z
Si Si1 0.367925 0.598544 0.845951
Si Si2 0.057893 0.646435 0.092840
Si Si3 0.564244 0.490771 0.625650
Si Si4 0.401641 0.297921 0.678803
Si Si5 0.000000 0.750000 0.442032
Si Si6 0.337831 0.618589 0.347060
O O1 0.457213 0.621239 0.916731
O O2 0.388578 0.613131 0.697324
O O3 0.367917 0.538453 0.868254
O O4 0.268891 0.619037 0.879552
O O5 0.107800 0.647976 0.957599
O O6 0.049031 0.704949 0.133270
O O7 0.500000 0.494871 0.750000
O O8 0.500000 0.500000 0.500000
O O9 0.618227 0.437686 0.640792
O O10 0.353536 0.250000 0.750000
O O11 0.500000 0.303162 0.750000
O O12 0.427590 0.279125 0.536270
O O13 0.353408 0.351194 0.712722
#
# Coordination Sequence:
#
# PCOD9508168 Si02
#       6
#    16  16  16  16   8  16
#     4  11  26  45  64 104 143 177 233 282 352 434
#     4  11  23  48  65  95 146 180 226 293 354 406
#     4  12  24  45  74 101 142 187 231 288 357 419
#     4   9  17  36  64 100 132 169 234 287 333 405
#     4  10  21  41  72  94 138 197 229 292 352 420
#     4  12  23  41  74 101 135 184 230 293 347 412
#
# _framework density 22.056550000000001
#
# number of rings (size 3 to 8) (size 9 to 14) (size 15 to 20)
#    0.000    1.273    7.273    1.091    0.000    4.364 
#    3.273    5.455    0.000    0.000    0.000    0.000 
#    0.000    0.000    0.000    0.000    0.000    0.000 
#
# Total GULP energy -245614.683281 kJ/mol
# GULP energy per Si atom -5582.151893 kJ/mol
# Density = 2.200635 g / cm^3
# Si number density = 22.056550 Si / 1000 Ang^3
#
#
#
# Elastic Constant Matrix: (Units=GPa)
#
#
# Indices 1 2 3 4 5 6 
#
# 1 105.6551 15.7620 23.3709 0.0000 0.0000 0.0000
# 2 15.7620 150.2078 14.2685 0.0000 0.0000 0.0000
# 3 23.3709 14.2685 90.2545 0.0000 0.0000 0.0000
# 4 0.0000 0.0000 0.0000 37.8171 0.0000 0.0000
# 5 0.0000 0.0000 0.0000 0.0000 11.7173 0.0000
# 6 0.0000 0.0000 0.0000 0.0000 0.0000 10.2576
#
#
#
# Elastic Compliance Matrix: (Units=1/GPa)
#
#
# Indices 1 2 3 4 5 6 
#
# 1 0.010140 -0.000827 -0.002495 0.000000 0.000000 0.000000
# 2 -0.000827 0.006826 -0.000865 0.000000 0.000000 0.000000
# 3 -0.002495 -0.000865 0.011863 0.000000 0.000000 0.000000
# 4 0.000000 0.000000 0.000000 0.026443 0.000000 0.000000
# 5 0.000000 0.000000 0.000000 0.000000 0.085344 0.000000
# 6 0.000000 0.000000 0.000000 0.000000 0.000000 0.097489
#
#
# Mechanical properties :
#
#
# Convention : Reuss Voigt Hill
#
# Bulk Modulus (GPa) = 48.88795 50.32448 49.60621
# Shear Modulus (GPa) = 19.73964 31.47279 25.60621
#
# Velocity S-wave (km/s) = 2.99483 3.78155 3.41095
# Velocity P-wave (km/s) = 5.84565 6.47553 6.16863
#
# Compressibility (1/GPa) = 0.02045494
#
# Stress axis : x y z
#
# Youngs Moduli (GPa) = 98.61911 146.49003 84.29858
#
# Poissons Ratio (x) = 0.12115 0.21032
# Poissons Ratio (y) = 0.08156 0.07292
# Poissons Ratio (z) = 0.24605 0.12672
#
# Static dielectric constant tensor:
#      x y z
#    x 1.823540 0.000000 0.000000 
#    y 0.000000 1.913630 0.000000 
#    z 0.000000 0.000000 1.699600 
# 
# From -- ./inp_files/13296.got.cif
#   From: 2010.05.17/outbox.cif.g08.bks.cpg/sg68_7_cif.got.tgz:13296.got - 2010.06.03 18:57:09.
