data_PCOD9508506
_publ_section_title
;
Structure prediction by ZEFSAII (Michael W. Deem and Ramdas Pophale) SiO2 
 PCOD9508506
Probable space group: C C C A
;
_chemical_formula_sum "Si O2"
_cell_formula_units_Z 72
_cell_length_a 10.432815
_cell_length_b 10.622958
_cell_length_c 26.816952
_cell_angle_alpha 90.000000
_cell_angle_beta 90.000000
_cell_angle_gamma 90.000000
_cell_volume 2972.051875
_symmetry_space_group_name_H-M "C C C A"
_symmetry_group_IT_number 68
_space_group.IT_coordinate_system_code '2'
_symmetry_cell_setting 'orthorhombic'
loop_
_space_group_symop_operation_xyz
x,y,z
-x,1/2-y,z
x,1/2-y,1/2-z
-x,y,1/2-z
-x,-y,-z
x,1/2+y,-z
-x,1/2+y,1/2+z
x,-y,1/2+z
1/2+x,1/2+y,z
1/2-x,-y,z
1/2+x,-y,1/2-z
1/2-x,1/2+y,1/2-z
1/2-x,1/2-y,-z
1/2+x,y,-z
1/2-x,y,1/2+z
1/2+x,1/2-y,1/2+z
loop_
_atom_site_type_symbol
_atom_site_label
_atom_site_fract_x
_atom_site_fract_y
_atom_site_fract_z
Si Si1 0.373676 0.175761 0.617374
Si Si2 0.500000 0.750000 0.676922
Si Si3 0.164167 0.124132 0.008218
Si Si4 0.344501 0.118382 0.401149
Si Si5 0.758573 0.366225 0.219384
O O1 0.500000 0.250000 0.631188
O O2 0.402590 0.121463 0.562067
O O3 0.251129 0.263678 0.605928
O O4 0.333342 0.105663 0.667718
O O5 0.553225 0.861728 0.641716
O O6 0.381807 0.812217 0.705673
O O7 0.250000 0.000000 0.007937
O O8 0.250000 0.250000 0.000000
O O9 0.089407 0.118165 0.955703
O O10 0.250000 0.000000 0.396311
O O11 0.819709 0.250000 0.250000
O O12 0.750000 0.500000 0.247380
#
# Coordination Sequence:
#
# PCOD9508506 Si02
#       5
#    16   8  16  16  16
#     4  10  22  39  63 100 135 175 225 282 342 410
#     4  10  23  44  72 100 134 180 223 284 350 412
#     4   9  18  37  59  92 137 181 224 268 329 402
#     4   9  20  38  63  98 138 179 224 271 330 403
#     4  11  26  49  73 100 134 178 233 296 358 420
#
# _framework density 24.225687000000001
#
# number of rings (size 3 to 8) (size 9 to 14) (size 15 to 20)
#    0.000    2.222    0.000    1.000    4.667    4.000 
#    4.000    3.333    0.000    0.000    0.000    0.000 
#    0.000    0.000    0.000    0.000    0.000    0.000 
#
# Total GULP energy -200897.665670 kJ/mol
# GULP energy per Si atom -5580.490713 kJ/mol
# Density = 2.417055 g / cm^3
# Si number density = 24.225687 Si / 1000 Ang^3
#
#
#
# Elastic Constant Matrix: (Units=GPa)
#
#
# Indices 1 2 3 4 5 6 
#
# 1 68.2014 -0.0917 36.7396 0.0000 0.0000 0.0000
# 2 -0.0917 123.6415 45.2104 0.0000 0.0000 0.0000
# 3 36.7396 45.2104 108.9991 0.0000 0.0000 0.0000
# 4 0.0000 0.0000 0.0000 -5.1655 0.0000 0.0000
# 5 0.0000 0.0000 0.0000 0.0000 -123.6443 0.0000
# 6 0.0000 0.0000 0.0000 0.0000 0.0000 36.0497
#
#
#
# Elastic Compliance Matrix: (Units=1/GPa)
#
#
# Indices 1 2 3 4 5 6 
#
# 1 0.018665 0.002728 -0.007423 0.000000 0.000000 0.000000
# 2 0.002728 0.009933 -0.005039 0.000000 0.000000 0.000000
# 3 -0.007423 -0.005039 0.013767 0.000000 0.000000 0.000000
# 4 0.000000 0.000000 0.000000 -0.193594 0.000000 0.000000
# 5 0.000000 0.000000 0.000000 0.000000 -0.008088 0.000000
# 6 0.000000 0.000000 0.000000 0.000000 0.000000 0.027740
#
#
# Mechanical properties :
#
#
# Convention : Reuss Voigt Hill
#
# Bulk Modulus (GPa) = 43.67625 51.61761 47.64693
# Shear Modulus (GPa) = -47.85683 -3.95310 -25.90497
#
# Velocity S-wave (km/s) = -4.44943 -1.27880 -3.27359
# Velocity P-wave (km/s) = 2.88593 4.37868 2.32854
#
# Compressibility (1/GPa) = 0.02289574
#
# Stress axis : x y z
#
# Youngs Moduli (GPa) = 53.57716 100.67869 72.64009
#
# Poissons Ratio (x) = -0.27465 0.53918
# Poissons Ratio (y) = -0.14616 0.36606
# Poissons Ratio (z) = 0.39769 0.50735
#
# Static dielectric constant tensor:
#      x y z
#    x 1.833620 0.000000 0.000000 
#    y 0.000000 2.068380 0.000000 
#    z 0.000000 0.000000 2.045040 
# 
# From -- ./inp_files/50019.got.cif
#   From: 2010.05.17/outbox.cif.g08.bks.cpg/sg68_26_cif.got.tgz:50019.got - 2010.06.03 18:57:09.
