data_PCOD9508742
_publ_section_title
;
Structure prediction by ZEFSAII (Michael W. Deem and Ramdas Pophale) SiO2 
 PCOD9508742
Probable space group: C C C A
;
_chemical_formula_sum "Si O2"
_cell_formula_units_Z 52
_cell_length_a 12.248831
_cell_length_b 10.801088
_cell_length_c 16.641542
_cell_angle_alpha 90.000000
_cell_angle_beta 90.000000
_cell_angle_gamma 90.000000
_cell_volume 2201.687681
_symmetry_space_group_name_H-M "C C C A"
_symmetry_group_IT_number 68
_space_group.IT_coordinate_system_code '2'
_symmetry_cell_setting 'orthorhombic'
loop_
_space_group_symop_operation_xyz
x,y,z
-x,1/2-y,z
x,1/2-y,1/2-z
-x,y,1/2-z
-x,-y,-z
x,1/2+y,-z
-x,1/2+y,1/2+z
x,-y,1/2+z
1/2+x,1/2+y,z
1/2-x,-y,z
1/2+x,-y,1/2-z
1/2-x,1/2+y,1/2-z
1/2-x,1/2-y,-z
1/2+x,y,-z
1/2-x,y,1/2+z
1/2+x,1/2-y,1/2+z
loop_
_atom_site_type_symbol
_atom_site_label
_atom_site_fract_x
_atom_site_fract_y
_atom_site_fract_z
Si Si1 0.000000 0.250000 0.750000
Si Si2 0.871689 0.791108 0.663621
Si Si3 0.943427 0.554761 0.378509
Si Si4 0.146511 0.417197 0.449866
O O1 0.937393 0.157754 0.689747
O O2 0.828032 0.750000 0.750000
O O3 0.820861 0.709400 0.593521
O O4 0.000000 0.750000 0.662430
O O5 0.871163 0.936103 0.646319
O O6 0.912540 0.606476 0.465757
O O7 0.064514 0.496050 0.392253
O O8 0.250000 0.500000 0.465949
#
# Coordination Sequence:
#
# PCOD9508742 Si02
#       4
#     4  16  16  16
#     4  12  24  44  66 100 134 182 232 294 336 412
#     4   9  18  39  65  91 128 178 223 276 339 411
#     4  10  23  40  66  96 133 176 227 283 349 407
#     4  10  22  41  68  98 131 175 227 284 345 418
#
# _framework density 23.618245000000002
#
# number of rings (size 3 to 8) (size 9 to 14) (size 15 to 20)
#    0.000    2.154    0.000    3.692   10.769    1.231 
#    2.769    3.077    0.000    0.000    0.000    0.000 
#    0.000    0.000    0.000    0.000    0.000    0.000 
#
# Total GULP energy -145514.441575 kJ/mol
# GULP energy per Si atom -5596.709291 kJ/mol
# Density = 2.356449 g / cm^3
# Si number density = 23.618245 Si / 1000 Ang^3
#
#
#
# Elastic Constant Matrix: (Units=GPa)
#
#
# Indices 1 2 3 4 5 6 
#
# 1 41.5597 7.7272 -7.2082 0.0000 0.0000 0.0000
# 2 7.7272 168.7426 83.7883 0.0000 0.0000 0.0000
# 3 -7.2082 83.7883 127.2518 0.0000 0.0000 0.0000
# 4 0.0000 0.0000 0.0000 34.3626 0.0000 0.0000
# 5 0.0000 0.0000 0.0000 0.0000 -18.6224 0.0000
# 6 0.0000 0.0000 0.0000 0.0000 0.0000 19.4000
#
#
#
# Elastic Compliance Matrix: (Units=1/GPa)
#
#
# Indices 1 2 3 4 5 6 
#
# 1 0.025137 -0.002761 0.003242 0.000000 0.000000 0.000000
# 2 -0.002761 0.009108 -0.006154 0.000000 0.000000 0.000000
# 3 0.003242 -0.006154 0.012094 0.000000 0.000000 0.000000
# 4 0.000000 0.000000 0.000000 0.029101 0.000000 0.000000
# 5 0.000000 0.000000 0.000000 0.000000 -0.053699 0.000000
# 6 0.000000 0.000000 0.000000 0.000000 0.000000 0.051547
#
#
# Mechanical properties :
#
#
# Convention : Reuss Voigt Hill
#
# Bulk Modulus (GPa) = 28.57627 56.24098 42.40863
# Shear Modulus (GPa) = 51.92190 23.91114 37.91652
#
# Velocity S-wave (km/s) = 4.69378 3.18528 4.01108
# Velocity P-wave (km/s) = 6.44212 6.11492 6.28065
#
# Compressibility (1/GPa) = 0.03499407
#
# Stress axis : x y z
#
# Youngs Moduli (GPa) = 39.78144 109.79185 82.68655
#
# Poissons Ratio (x) = 0.30311 -0.26805
# Poissons Ratio (y) = 0.10983 0.50882
# Poissons Ratio (z) = -0.12896 0.67561
#
# Static dielectric constant tensor:
#      x y z
#    x 1.936860 0.000000 0.000000 
#    y 0.000000 2.019020 0.000000 
#    z 0.000000 0.000000 1.874850 
# 
# From -- ./inp_files/28923.got.cif
#   From: 2010.05.17/outbox.cif.g08.bks.cpg/sg68_15_cif.got.tgz:28923.got - 2010.06.03 18:57:09.
