data_PCOD9508164
_publ_section_title
;
Structure prediction by ZEFSAII (Michael W. Deem and Ramdas Pophale) SiO2 
 PCOD9508164
Probable space group: C C C A
;
_chemical_formula_sum "Si O2"
_cell_formula_units_Z 64
_cell_length_a 15.961984
_cell_length_b 8.422251
_cell_length_c 18.685171
_cell_angle_alpha 90.000000
_cell_angle_beta 90.000000
_cell_angle_gamma 90.000000
_cell_volume 2511.956579
_symmetry_space_group_name_H-M "C C C A"
_symmetry_group_IT_number 68
_space_group.IT_coordinate_system_code '2'
_symmetry_cell_setting 'orthorhombic'
loop_
_space_group_symop_operation_xyz
x,y,z
-x,1/2-y,z
x,1/2-y,1/2-z
-x,y,1/2-z
-x,-y,-z
x,1/2+y,-z
-x,1/2+y,1/2+z
x,-y,1/2+z
1/2+x,1/2+y,z
1/2-x,-y,z
1/2+x,-y,1/2-z
1/2-x,1/2+y,1/2-z
1/2-x,1/2-y,-z
1/2+x,y,-z
1/2-x,y,1/2+z
1/2+x,1/2-y,1/2+z
loop_
_atom_site_type_symbol
_atom_site_label
_atom_site_fract_x
_atom_site_fract_y
_atom_site_fract_z
Si Si1 0.657782 0.967119 0.935043
Si Si2 0.224599 0.721898 0.173970
Si Si3 0.545656 0.418037 0.323314
Si Si4 0.883394 0.180205 0.079248
O O1 0.681713 0.873963 0.863469
O O2 0.750000 0.000000 0.967833
O O3 0.611126 0.129682 0.918601
O O4 0.613550 0.865079 0.995777
O O5 0.268717 0.750000 0.250000
O O6 0.143120 0.619224 0.191899
O O7 0.291573 0.660692 0.116531
O O8 0.500000 0.250000 0.346200
O O9 0.500000 0.464968 0.250000
O O10 0.555058 0.561859 0.379029
#
# Coordination Sequence:
#
# PCOD9508164 Si02
#       4
#    16  16  16  16
#     4  10  21  41  70 113 144 184 248 317 371 445
#     4  11  22  43  74 106 147 191 247 309 379 442
#     4  11  23  45  68  97 149 198 237 311 378 444
#     4  11  23  42  74 107 144 193 253 305 375 453
#
# _framework density 25.478148000000001
#
# number of rings (size 3 to 8) (size 9 to 14) (size 15 to 20)
#    0.000    1.250    2.500    6.750    0.000    6.000 
#    0.000    7.500    0.000    0.000    0.000    0.000 
#    0.000    0.000    0.000    0.000    0.000    0.000 
#
# Total GULP energy -178868.396594 kJ/mol
# GULP energy per Si atom -5589.637394 kJ/mol
# Density = 2.542016 g / cm^3
# Si number density = 25.478148 Si / 1000 Ang^3
#
#
#
# Elastic Constant Matrix: (Units=GPa)
#
#
# Indices 1 2 3 4 5 6 
#
# 1 113.9413 24.1437 24.6245 0.0000 0.0000 0.0000
# 2 24.1437 171.3005 85.4161 0.0000 0.0000 0.0000
# 3 24.6245 85.4161 175.4973 0.0000 0.0000 0.0000
# 4 0.0000 0.0000 0.0000 18.7221 0.0000 0.0000
# 5 0.0000 0.0000 0.0000 0.0000 -47.3970 0.0000
# 6 0.0000 0.0000 0.0000 0.0000 0.0000 21.1270
#
#
#
# Elastic Compliance Matrix: (Units=1/GPa)
#
#
# Indices 1 2 3 4 5 6 
#
# 1 0.009145 -0.000857 -0.000866 0.000000 0.000000 0.000000
# 2 -0.000857 0.007789 -0.003671 0.000000 0.000000 0.000000
# 3 -0.000866 -0.003671 0.007606 0.000000 0.000000 0.000000
# 4 0.000000 0.000000 0.000000 0.053413 0.000000 0.000000
# 5 0.000000 0.000000 0.000000 0.000000 -0.021098 0.000000
# 6 0.000000 0.000000 0.000000 0.000000 0.000000 0.047333
#
#
# Mechanical properties :
#
#
# Convention : Reuss Voigt Hill
#
# Bulk Modulus (GPa) = 72.71338 81.01196 76.86267
# Shear Modulus (GPa) = 41.82033 20.26075 31.04054
#
# Velocity S-wave (km/s) = 4.05584 2.82302 3.49423
# Velocity P-wave (km/s) = 7.10877 6.51856 6.82005
#
# Compressibility (1/GPa) = 0.01375263
#
# Stress axis : x y z
#
# Youngs Moduli (GPa) = 109.34659 128.38972 131.47308
#
# Poissons Ratio (x) = 0.11005 0.11386
# Poissons Ratio (y) = 0.09372 0.48259
# Poissons Ratio (z) = 0.09470 0.47127
#
# Static dielectric constant tensor:
#      x y z
#    x 2.039420 0.000000 0.000000 
#    y 0.000000 2.098420 0.000000 
#    z 0.000000 0.000000 1.929440 
# 
# From -- ./inp_files/39120.got.cif
#   From: 2010.05.17/outbox.cif.g08.bks.cpg/sg68_20_cif.got.tgz:39120.got - 2010.06.03 18:57:09.
