data_PCOD9508135
_publ_section_title
;
Structure prediction by ZEFSAII (Michael W. Deem and Ramdas Pophale) SiO2 
 PCOD9508135
Probable space group: C C C A
;
_chemical_formula_sum "Si O2"
_cell_formula_units_Z 112
_cell_length_a 11.185707
_cell_length_b 25.111844
_cell_length_c 19.564728
_cell_angle_alpha 90.000000
_cell_angle_beta 90.000000
_cell_angle_gamma 90.000000
_cell_volume 5495.609409
_symmetry_space_group_name_H-M "C C C A"
_symmetry_group_IT_number 68
_space_group.IT_coordinate_system_code '2'
_symmetry_cell_setting 'orthorhombic'
loop_
_space_group_symop_operation_xyz
x,y,z
-x,1/2-y,z
x,1/2-y,1/2-z
-x,y,1/2-z
-x,-y,-z
x,1/2+y,-z
-x,1/2+y,1/2+z
x,-y,1/2+z
1/2+x,1/2+y,z
1/2-x,-y,z
1/2+x,-y,1/2-z
1/2-x,1/2+y,1/2-z
1/2-x,1/2-y,-z
1/2+x,y,-z
1/2-x,y,1/2+z
1/2+x,1/2-y,1/2+z
loop_
_atom_site_type_symbol
_atom_site_label
_atom_site_fract_x
_atom_site_fract_y
_atom_site_fract_z
Si Si1 0.673737 0.164329 0.145582
Si Si2 0.474646 0.426708 0.326582
Si Si3 0.258135 0.411683 0.536693
Si Si4 0.930246 0.003751 0.068906
Si Si5 0.866329 0.240311 0.950183
Si Si6 0.732011 0.135170 0.389907
Si Si7 0.362694 0.313892 0.763872
O O1 0.565599 0.122923 0.158533
O O2 0.636962 0.222390 0.117955
O O3 0.763952 0.165069 0.209484
O O4 0.737713 0.141210 0.078622
O O5 0.500000 0.441451 0.250000
O O6 0.493960 0.480416 0.369630
O O7 0.345196 0.403394 0.342326
O O8 0.169937 0.458076 0.561300
O O9 0.381542 0.436559 0.564340
O O10 0.234206 0.399609 0.457007
O O11 0.000000 0.000000 0.000000
O O12 0.852100 0.180299 0.923769
O O13 0.000000 0.250000 0.981498
O O14 0.750000 0.250000 0.000000
O O15 0.824363 0.166242 0.340075
O O16 0.359442 0.250000 0.750000
O O17 0.500000 0.330908 0.750000
#
# Coordination Sequence:
#
# PCOD9508135 Si02
#       7
#    16  16  16  16  16  16  16
#     4  11  22  41  63  92 134 172 223 277 330 411
#     4  11  22  39  70  99 128 168 221 278 341 410
#     4  10  23  40  64  96 125 167 221 277 343 396
#     4  10  21  41  66  92 124 164 216 281 337 401
#     4  12  25  39  63 104 138 183 237 286 341 410
#     4  12  22  40  67  95 130 177 225 275 340 414
#     4  11  25  41  60  93 139 185 223 276 344 411
#
# _framework density 20.379905000000001
#
# number of rings (size 3 to 8) (size 9 to 14) (size 15 to 20)
#    0.000    1.000    7.143    0.000    0.000    2.286 
#    0.000    4.286    3.143    0.000    0.000    0.000 
#    0.000    0.000    0.000    0.000    0.000    0.000 
#
# Total GULP energy -311759.238390 kJ/mol
# GULP energy per Si atom -5567.129257 kJ/mol
# Density = 2.033352 g / cm^3
# Si number density = 20.379905 Si / 1000 Ang^3
#
#
#
# Elastic Constant Matrix: (Units=GPa)
#
#
# Indices 1 2 3 4 5 6 
#
# 1 62.5967 -1.3554 5.3363 0.0000 0.0000 0.0000
# 2 -1.3554 38.8262 15.1028 0.0000 0.0000 0.0000
# 3 5.3363 15.1028 97.2385 0.0000 0.0000 0.0000
# 4 0.0000 0.0000 0.0000 20.2190 0.0000 0.0000
# 5 0.0000 0.0000 0.0000 0.0000 26.3878 0.0000
# 6 0.0000 0.0000 0.0000 0.0000 0.0000 6.8569
#
#
#
# Elastic Compliance Matrix: (Units=1/GPa)
#
#
# Indices 1 2 3 4 5 6 
#
# 1 0.016084 0.000963 -0.001032 0.000000 0.000000 0.000000
# 2 0.000963 0.027470 -0.004319 0.000000 0.000000 0.000000
# 3 -0.001032 -0.004319 0.011012 0.000000 0.000000 0.000000
# 4 0.000000 0.000000 0.000000 0.049458 0.000000 0.000000
# 5 0.000000 0.000000 0.000000 0.000000 0.037896 0.000000
# 6 0.000000 0.000000 0.000000 0.000000 0.000000 0.145838
#
#
# Mechanical properties :
#
#
# Convention : Reuss Voigt Hill
#
# Bulk Modulus (GPa) = 21.83975 26.31432 24.07704
# Shear Modulus (GPa) = 16.03605 22.66459 19.35032
#
# Velocity S-wave (km/s) = 2.80814 3.33844 3.08471
# Velocity P-wave (km/s) = 4.61018 5.27259 4.95247
#
# Compressibility (1/GPa) = 0.04578806
#
# Stress axis : x y z
#
# Youngs Moduli (GPa) = 62.17310 36.40387 90.81402
#
# Poissons Ratio (x) = -0.03506 0.09374
# Poissons Ratio (y) = -0.05987 0.39226
# Poissons Ratio (z) = 0.06418 0.15724
#
# Static dielectric constant tensor:
#      x y z
#    x 1.748410 0.000000 0.000000 
#    y 0.000000 1.519140 0.000000 
#    z 0.000000 0.000000 1.704410 
# 
# From -- ./inp_files/37817.got.cif
#   From: 2010.05.17/outbox.cif.g08.bks.cpg/sg68_19_cif.got.tgz:37817.got - 2010.06.03 18:57:09.
