data_PCOD9508644
_publ_section_title
;
Structure prediction by ZEFSAII (Michael W. Deem and Ramdas Pophale) SiO2 
 PCOD9508644
Probable space group: C C C A
;
_chemical_formula_sum "Si O2"
_cell_formula_units_Z 88
_cell_length_a 21.797126
_cell_length_b 5.491147
_cell_length_c 32.534175
_cell_angle_alpha 90.000000
_cell_angle_beta 90.000000
_cell_angle_gamma 90.000000
_cell_volume 3894.055196
_symmetry_space_group_name_H-M "C C C A"
_symmetry_group_IT_number 68
_space_group.IT_coordinate_system_code '2'
_symmetry_cell_setting 'orthorhombic'
loop_
_space_group_symop_operation_xyz
x,y,z
-x,1/2-y,z
x,1/2-y,1/2-z
-x,y,1/2-z
-x,-y,-z
x,1/2+y,-z
-x,1/2+y,1/2+z
x,-y,1/2+z
1/2+x,1/2+y,z
1/2-x,-y,z
1/2+x,-y,1/2-z
1/2-x,1/2+y,1/2-z
1/2-x,1/2-y,-z
1/2+x,y,-z
1/2-x,y,1/2+z
1/2+x,1/2-y,1/2+z
loop_
_atom_site_type_symbol
_atom_site_label
_atom_site_fract_x
_atom_site_fract_y
_atom_site_fract_z
Si Si1 0.865092 0.683694 0.480137
Si Si2 0.855219 0.735522 0.163168
Si Si3 0.291735 0.750000 0.750000
Si Si4 0.337569 0.105735 0.902653
Si Si5 0.500000 0.750000 0.543853
Si Si6 0.250000 0.000000 0.110559
Si Si7 0.450846 0.429117 0.884221
O O1 0.842811 0.447952 0.505581
O O2 0.848478 0.617344 0.433504
O O3 0.939276 0.692391 0.481676
O O4 0.836249 0.737185 0.210352
O O5 0.805155 0.571083 0.140269
O O6 0.920111 0.626533 0.146775
O O7 0.841625 0.998922 0.143214
O O8 0.250000 0.500000 0.748365
O O9 0.277405 0.264159 0.911999
O O10 0.395666 0.280699 0.905127
O O11 0.515159 0.540506 0.576599
O O12 0.500000 0.250000 0.863089
#
# Coordination Sequence:
#
# PCOD9508644 Si02
#       7
#    16  16   8  16   8   8  16
#     4  12  26  41  64 101 137 179 240 306 363 416
#     4  11  23  43  71 104 140 180 231 295 351 428
#     4  12  26  46  76 117 147 176 236 302 360 410
#     4  11  23  41  67  93 140 184 238 287 360 430
#     4  12  22  42  64  99 138 180 236 307 350 432
#     4  10  22  40  68  96 126 190 232 284 352 432
#     4  11  21  39  69 101 136 188 234 280 348 435
#
# _framework density 22.598552000000002
#
# number of rings (size 3 to 8) (size 9 to 14) (size 15 to 20)
#    0.000    0.727    4.545    3.273    5.091    0.000 
#    0.000    0.909    0.000    8.182    0.000    0.000 
#    0.000    0.000    0.000    0.000    0.000    0.000 
#
# Total GULP energy -245989.382073 kJ/mol
# GULP energy per Si atom -5590.667774 kJ/mol
# Density = 2.254712 g / cm^3
# Si number density = 22.598552 Si / 1000 Ang^3
#
#
#
# Elastic Constant Matrix: (Units=GPa)
#
#
# Indices 1 2 3 4 5 6 
#
# 1 70.6229 28.7297 6.4976 0.0000 0.0000 0.0000
# 2 28.7297 128.3852 34.7430 0.0000 0.0000 0.0000
# 3 6.4976 34.7430 98.9567 0.0000 0.0000 0.0000
# 4 0.0000 0.0000 0.0000 20.5293 0.0000 0.0000
# 5 0.0000 0.0000 0.0000 0.0000 31.5110 0.0000
# 6 0.0000 0.0000 0.0000 0.0000 0.0000 44.6466
#
#
#
# Elastic Compliance Matrix: (Units=1/GPa)
#
#
# Indices 1 2 3 4 5 6 
#
# 1 0.015582 -0.003547 0.000222 0.000000 0.000000 0.000000
# 2 -0.003547 0.009414 -0.003072 0.000000 0.000000 0.000000
# 3 0.000222 -0.003072 0.011170 0.000000 0.000000 0.000000
# 4 0.000000 0.000000 0.000000 0.048711 0.000000 0.000000
# 5 0.000000 0.000000 0.000000 0.000000 0.031735 0.000000
# 6 0.000000 0.000000 0.000000 0.000000 0.000000 0.022398
#
#
# Mechanical properties :
#
#
# Convention : Reuss Voigt Hill
#
# Bulk Modulus (GPa) = 42.78711 48.65616 45.72163
# Shear Modulus (GPa) = 31.32930 34.53700 32.93315
#
# Velocity S-wave (km/s) = 3.72740 3.91357 3.82162
# Velocity P-wave (km/s) = 6.12367 6.48064 6.30468
#
# Compressibility (1/GPa) = 0.02337153
#
# Stress axis : x y z
#
# Youngs Moduli (GPa) = 64.17564 106.22194 89.52928
#
# Poissons Ratio (x) = 0.37678 -0.01989
# Poissons Ratio (y) = 0.22764 0.27507
# Poissons Ratio (z) = -0.01426 0.32635
#
# Static dielectric constant tensor:
#      x y z
#    x 1.895570 0.000000 0.000000 
#    y 0.000000 2.044780 0.000000 
#    z 0.000000 0.000000 1.803210 
# 
# From -- ./inp_files/55992.got.cif
#   From: 2010.05.17/outbox.cif.g08.bks.cpg/sg68_28_cif.got.tgz:55992.got - 2010.06.03 18:57:09.
