data_PCOD9508943
_publ_section_title
;
Structure prediction by ZEFSAII (Michael W. Deem and Ramdas Pophale) SiO2 
 PCOD9508943
Probable space group: C C C A
;
_chemical_formula_sum "Si O2"
_cell_formula_units_Z 112
_cell_length_a 15.648782
_cell_length_b 13.041212
_cell_length_c 22.453768
_cell_angle_alpha 90.000000
_cell_angle_beta 90.000000
_cell_angle_gamma 90.000000
_cell_volume 4582.344397
_symmetry_space_group_name_H-M "C C C A"
_symmetry_group_IT_number 68
_space_group.IT_coordinate_system_code '2'
_symmetry_cell_setting 'orthorhombic'
loop_
_space_group_symop_operation_xyz
x,y,z
-x,1/2-y,z
x,1/2-y,1/2-z
-x,y,1/2-z
-x,-y,-z
x,1/2+y,-z
-x,1/2+y,1/2+z
x,-y,1/2+z
1/2+x,1/2+y,z
1/2-x,-y,z
1/2+x,-y,1/2-z
1/2-x,1/2+y,1/2-z
1/2-x,1/2-y,-z
1/2+x,y,-z
1/2-x,y,1/2+z
1/2+x,1/2-y,1/2+z
loop_
_atom_site_type_symbol
_atom_site_label
_atom_site_fract_x
_atom_site_fract_y
_atom_site_fract_z
Si Si1 0.809070 0.308325 0.453260
Si Si2 0.079343 0.915563 0.039536
Si Si3 0.239118 0.616873 0.794138
Si Si4 0.996651 0.138283 0.658557
Si Si5 0.956222 0.410610 0.189894
Si Si6 0.053046 0.867549 0.565190
Si Si7 0.799586 0.671001 0.337514
O O1 0.750000 0.250000 0.500000
O O2 0.845077 0.397379 0.494022
O O3 0.886963 0.229766 0.439910
O O4 0.760124 0.343808 0.394728
O O5 0.049645 0.851389 0.096896
O O6 0.101791 0.024858 0.068296
O O7 0.000623 0.890990 0.994225
O O8 0.250000 0.500000 0.813858
O O9 0.139311 0.634016 0.807012
O O10 0.261935 0.625320 0.723936
O O11 0.294894 0.705228 0.825722
O O12 0.893964 0.125377 0.650761
O O13 0.000000 0.250000 0.688330
O O14 0.034984 0.035768 0.688649
O O15 0.996899 0.371368 0.127959
O O16 0.000000 0.375944 0.250000
#
# Coordination Sequence:
#
# PCOD9508943 Si02
#       7
#    16  16  16  16  16  16  16
#     4  12  24  43  67 105 144 188 233 294 373 436
#     4  10  23  42  71  97 141 185 238 296 353 439
#     4  11  24  47  69 105 150 191 238 309 373 435
#     4  11  22  43  70 103 136 190 246 299 354 439
#     4  11  24  42  70  99 136 190 241 288 358 440
#     4  10  22  44  65 100 136 181 239 288 356 428
#     4  11  25  44  71 108 148 186 248 309 369 438
#
# _framework density 24.441637
#
# number of rings (size 3 to 8) (size 9 to 14) (size 15 to 20)
#    0.000    1.143    1.429    4.714    2.000    3.143 
#    5.143    1.429    0.000    0.000    0.000    0.000 
#    0.000    0.000    0.000    0.000    0.000    0.000 
#
# Total GULP energy -312639.149463 kJ/mol
# GULP energy per Si atom -5582.841955 kJ/mol
# Density = 2.438601 g / cm^3
# Si number density = 24.441637 Si / 1000 Ang^3
#
#
#
# Elastic Constant Matrix: (Units=GPa)
#
#
# Indices 1 2 3 4 5 6 
#
# 1 61.0774 4.4859 30.2801 0.0000 0.0000 0.0000
# 2 4.4859 90.5714 10.8478 0.0000 0.0000 0.0000
# 3 30.2801 10.8478 172.1011 0.0000 0.0000 0.0000
# 4 0.0000 0.0000 0.0000 9.6832 0.0000 0.0000
# 5 0.0000 0.0000 0.0000 0.0000 3.3760 0.0000
# 6 0.0000 0.0000 0.0000 0.0000 0.0000 19.2685
#
#
#
# Elastic Compliance Matrix: (Units=1/GPa)
#
#
# Indices 1 2 3 4 5 6 
#
# 1 0.017961 -0.000515 -0.003128 0.000000 0.000000 0.000000
# 2 -0.000515 0.011140 -0.000612 0.000000 0.000000 0.000000
# 3 -0.003128 -0.000612 0.006399 0.000000 0.000000 0.000000
# 4 0.000000 0.000000 0.000000 0.103271 0.000000 0.000000
# 5 0.000000 0.000000 0.000000 0.000000 0.296213 0.000000
# 6 0.000000 0.000000 0.000000 0.000000 0.000000 0.051898
#
#
# Mechanical properties :
#
#
# Convention : Reuss Voigt Hill
#
# Bulk Modulus (GPa) = 37.04826 46.10860 41.57843
# Shear Modulus (GPa) = 9.91301 25.00794 17.46047
#
# Velocity S-wave (km/s) = 2.01608 3.20217 2.67568
# Velocity P-wave (km/s) = 4.53985 5.70768 5.15693
#
# Compressibility (1/GPa) = 0.02699182
#
# Stress axis : x y z
#
# Youngs Moduli (GPa) = 55.67588 89.76846 156.26512
#
# Poissons Ratio (x) = 0.04623 0.48875
# Poissons Ratio (y) = 0.02867 0.09556
# Poissons Ratio (z) = 0.17414 0.05490
#
# Static dielectric constant tensor:
#      x y z
#    x 1.989110 0.000000 0.000000 
#    y 0.000000 2.024810 0.000000 
#    z 0.000000 0.000000 1.899050 
# 
# From -- ./inp_files/45515.got.cif
#   From: 2010.05.17/outbox.cif.g08.bks.cpg/sg68_23_cif.got.tgz:45515.got - 2010.06.03 18:57:09.
