data_PCOD9508732
_publ_section_title
;
Structure prediction by ZEFSAII (Michael W. Deem and Ramdas Pophale) SiO2 
 PCOD9508732
Probable space group: C C C A
;
_chemical_formula_sum "Si O2"
_cell_formula_units_Z 88
_cell_length_a 16.323525
_cell_length_b 26.291180
_cell_length_c 8.569422
_cell_angle_alpha 90.000000
_cell_angle_beta 90.000000
_cell_angle_gamma 90.000000
_cell_volume 3677.693713
_symmetry_space_group_name_H-M "C C C A"
_symmetry_group_IT_number 68
_space_group.IT_coordinate_system_code '2'
_symmetry_cell_setting 'orthorhombic'
loop_
_space_group_symop_operation_xyz
x,y,z
-x,1/2-y,z
x,1/2-y,1/2-z
-x,y,1/2-z
-x,-y,-z
x,1/2+y,-z
-x,1/2+y,1/2+z
x,-y,1/2+z
1/2+x,1/2+y,z
1/2-x,-y,z
1/2+x,-y,1/2-z
1/2-x,1/2+y,1/2-z
1/2-x,1/2-y,-z
1/2+x,y,-z
1/2-x,y,1/2+z
1/2+x,1/2-y,1/2+z
loop_
_atom_site_type_symbol
_atom_site_label
_atom_site_fract_x
_atom_site_fract_y
_atom_site_fract_z
Si Si1 0.633375 0.433035 0.396801
Si Si2 0.975733 0.808560 0.923763
Si Si3 0.000000 0.640367 0.250000
Si Si4 0.299141 0.307688 0.808134
Si Si5 0.342588 0.517479 0.916575
Si Si6 0.800600 0.624102 0.982920
O O1 0.570824 0.396168 0.313356
O O2 0.602272 0.469545 0.534964
O O3 0.655854 0.474313 0.266713
O O4 0.711711 0.400878 0.447966
O O5 0.876144 0.809159 0.926410
O O6 0.000000 0.750000 0.916972
O O7 0.000000 0.830247 0.750000
O O8 0.014608 0.829205 0.086481
O O9 0.284543 0.250000 0.750000
O O10 0.325606 0.342235 0.662570
O O11 0.219945 0.335880 0.879656
O O12 0.250000 0.500000 0.954517
O O13 0.355269 0.574097 0.986375
#
# Coordination Sequence:
#
# PCOD9508732 Si02
#       6
#    16  16   8  16  16  16
#     4  11  24  42  66 100 135 180 241 294 358 432
#     4  11  25  48  72  99 146 203 242 291 370 446
#     4  12  27  46  70 106 140 190 253 298 362 442
#     4  12  24  44  70 106 143 183 242 296 366 432
#     4  10  22  41  67  95 134 177 228 290 364 422
#     4  11  23  42  69 103 138 181 229 302 362 427
#
# _framework density 23.928039999999999
#
# number of rings (size 3 to 8) (size 9 to 14) (size 15 to 20)
#    0.000    0.909    5.455    2.455    5.091    0.727 
#    3.273    0.000    0.000    0.000    0.000    0.000 
#    0.000    0.000    0.000    0.000    0.000    0.000 
#
# Total GULP energy -245496.872827 kJ/mol
# GULP energy per Si atom -5579.474382 kJ/mol
# Density = 2.387358 g / cm^3
# Si number density = 23.928040 Si / 1000 Ang^3
#
#
#
# Elastic Constant Matrix: (Units=GPa)
#
#
# Indices 1 2 3 4 5 6 
#
# 1 33.0158 30.1090 4.1232 0.0000 0.0000 0.0000
# 2 30.1090 109.6619 52.2669 0.0000 0.0000 0.0000
# 3 4.1232 52.2669 115.7454 0.0000 0.0000 0.0000
# 4 0.0000 0.0000 0.0000 60.8888 0.0000 0.0000
# 5 0.0000 0.0000 0.0000 0.0000 30.9829 0.0000
# 6 0.0000 0.0000 0.0000 0.0000 0.0000 -207.8470
#
#
#
# Elastic Compliance Matrix: (Units=1/GPa)
#
#
# Indices 1 2 3 4 5 6 
#
# 1 0.042377 -0.013909 0.004771 0.000000 0.000000 0.000000
# 2 -0.013909 0.016185 -0.006813 0.000000 0.000000 0.000000
# 3 0.004771 -0.006813 0.011546 0.000000 0.000000 0.000000
# 4 0.000000 0.000000 0.000000 0.016423 0.000000 0.000000
# 5 0.000000 0.000000 0.000000 0.000000 0.032276 0.000000
# 6 0.000000 0.000000 0.000000 0.000000 0.000000 -0.004811
#
#
# Mechanical properties :
#
#
# Convention : Reuss Voigt Hill
#
# Bulk Modulus (GPa) = 26.17351 47.93570 37.05460
# Shear Modulus (GPa) = 31.51890 -11.73346 9.89272
#
# Velocity S-wave (km/s) = 3.63331 -2.21682 2.03552
# Velocity P-wave (km/s) = 5.34448 3.67755 4.58736
#
# Compressibility (1/GPa) = 0.03820657
#
# Stress axis : x y z
#
# Youngs Moduli (GPa) = 23.59746 61.78468 86.60769
#
# Poissons Ratio (x) = 0.85939 -0.41324
# Poissons Ratio (y) = 0.32823 0.59008
# Poissons Ratio (z) = -0.11259 0.42095
#
# Static dielectric constant tensor:
#      x y z
#    x 1.989650 0.000000 0.000000 
#    y 0.000000 1.932160 0.000000 
#    z 0.000000 0.000000 2.008140 
# 
# From -- ./inp_files/7114.got.cif
#   From: 2010.05.17/outbox.cif.g08.bks.cpg/sg68_4_cif.got.tgz:7114.got - 2010.06.03 18:57:09.
