data_PCOD9508185
_publ_section_title
;
Structure prediction by ZEFSAII (Michael W. Deem and Ramdas Pophale) SiO2 
 PCOD9508185
Probable space group: C C C A
;
_chemical_formula_sum "Si O2"
_cell_formula_units_Z 60
_cell_length_a 20.296260
_cell_length_b 5.008469
_cell_length_c 26.812107
_cell_angle_alpha 90.000000
_cell_angle_beta 90.000000
_cell_angle_gamma 90.000000
_cell_volume 2725.536181
_symmetry_space_group_name_H-M "C C C A"
_symmetry_group_IT_number 68
_space_group.IT_coordinate_system_code '2'
_symmetry_cell_setting 'orthorhombic'
loop_
_space_group_symop_operation_xyz
x,y,z
-x,1/2-y,z
x,1/2-y,1/2-z
-x,y,1/2-z
-x,-y,-z
x,1/2+y,-z
-x,1/2+y,1/2+z
x,-y,1/2+z
1/2+x,1/2+y,z
1/2-x,-y,z
1/2+x,-y,1/2-z
1/2-x,1/2+y,1/2-z
1/2-x,1/2-y,-z
1/2+x,y,-z
1/2-x,y,1/2+z
1/2+x,1/2-y,1/2+z
loop_
_atom_site_type_symbol
_atom_site_label
_atom_site_fract_x
_atom_site_fract_y
_atom_site_fract_z
Si Si1 0.750000 0.000000 0.807126
Si Si2 0.500000 0.250000 0.537569
Si Si3 0.108375 0.431245 0.811859
Si Si4 0.890198 0.922205 0.616628
Si Si5 0.000000 0.750000 0.750000
Si Si6 0.250000 0.500000 0.619465
O O1 0.821986 0.026753 0.781847
O O2 0.749181 0.747276 0.843108
O O3 0.500000 0.500000 0.500000
O O4 0.444740 0.361607 0.575942
O O5 0.097385 0.144768 0.839374
O O6 0.047772 0.550718 0.780807
O O7 0.116611 0.638789 0.856639
O O8 0.819805 0.998022 0.592139
#
# Coordination Sequence:
#
# PCOD9508185 Si02
#       6
#     8   8  16  16   4   8
#     4   8  16  36  59  85 116 162 210 254 308 361
#     4  12  25  40  62  95 128 159 200 252 315 386
#     4  10  22  39  63  89 125 167 210 259 309 365
#     4  10  21  42  64  86 122 166 203 251 316 371
#     4  12  26  38  60 102 132 164 220 266 302 362
#     4   8  16  34  65  87 106 156 216 246 292 377
#
# _framework density 22.014016999999999
#
# number of rings (size 3 to 8) (size 9 to 14) (size 15 to 20)
#    0.000    2.133    0.000    2.400    0.000    5.333 
#    0.000    9.333    0.000    3.200    0.000    0.000 
#    0.000    0.000    0.000    0.000    0.000    0.000 
#
# Total GULP energy -167011.522036 kJ/mol
# GULP energy per Si atom -5567.050735 kJ/mol
# Density = 2.196391 g / cm^3
# Si number density = 22.014017 Si / 1000 Ang^3
#
#
#
# Elastic Constant Matrix: (Units=GPa)
#
#
# Indices 1 2 3 4 5 6 
#
# 1 231.4557 19.7023 67.7507 0.0000 0.0000 0.0000
# 2 19.7023 160.8224 21.6396 0.0000 0.0000 0.0000
# 3 67.7507 21.6396 61.1282 0.0000 0.0000 0.0000
# 4 0.0000 0.0000 0.0000 41.8760 0.0000 0.0000
# 5 0.0000 0.0000 0.0000 0.0000 -683.7804 0.0000
# 6 0.0000 0.0000 0.0000 0.0000 0.0000 24.7547
#
#
#
# Elastic Compliance Matrix: (Units=1/GPa)
#
#
# Indices 1 2 3 4 5 6 
#
# 1 0.006400 0.000179 -0.007157 0.000000 0.000000 0.000000
# 2 0.000179 0.006534 -0.002511 0.000000 0.000000 0.000000
# 3 -0.007157 -0.002511 0.025180 0.000000 0.000000 0.000000
# 4 0.000000 0.000000 0.000000 0.023880 0.000000 0.000000
# 5 0.000000 0.000000 0.000000 0.000000 -0.001462 0.000000
# 6 0.000000 0.000000 0.000000 0.000000 0.000000 0.040396
#
#
# Mechanical properties :
#
#
# Convention : Reuss Voigt Hill
#
# Bulk Modulus (GPa) = 52.25787 74.62126 63.43957
# Shear Modulus (GPa) = 39.59273 -100.47568 -30.44147
#
# Velocity S-wave (km/s) = 4.24550 -6.76319 -3.72267
# Velocity P-wave (km/s) = 6.91537 5.19778 3.22532
#
# Compressibility (1/GPa) = 0.01913587
#
# Stress axis : x y z
#
# Youngs Moduli (GPa) = 156.24540 153.04465 39.71350
#
# Poissons Ratio (x) = -0.02738 0.28423
# Poissons Ratio (y) = -0.02795 0.09974
# Poissons Ratio (z) = 1.11823 0.38435
#
# Static dielectric constant tensor:
#      x y z
#    x 2.019000 0.000000 0.000000 
#    y 0.000000 1.776320 0.000000 
#    z 0.000000 0.000000 1.770830 
# 
# From -- ./inp_files/46348.got.cif
#   From: 2010.05.17/outbox.cif.g08.bks.cpg/sg68_24_cif.got.tgz:46348.got - 2010.06.03 18:57:09.
