data_PCOD9508904
_publ_section_title
;
Structure prediction by ZEFSAII (Michael W. Deem and Ramdas Pophale) SiO2 
 PCOD9508904
Probable space group: C C C A
;
_chemical_formula_sum "Si O2"
_cell_formula_units_Z 64
_cell_length_a 10.744679
_cell_length_b 29.195923
_cell_length_c 8.608354
_cell_angle_alpha 90.000000
_cell_angle_beta 90.000000
_cell_angle_gamma 90.000000
_cell_volume 2700.447715
_symmetry_space_group_name_H-M "C C C A"
_symmetry_group_IT_number 68
_space_group.IT_coordinate_system_code '2'
_symmetry_cell_setting 'orthorhombic'
loop_
_space_group_symop_operation_xyz
x,y,z
-x,1/2-y,z
x,1/2-y,1/2-z
-x,y,1/2-z
-x,-y,-z
x,1/2+y,-z
-x,1/2+y,1/2+z
x,-y,1/2+z
1/2+x,1/2+y,z
1/2-x,-y,z
1/2+x,-y,1/2-z
1/2-x,1/2+y,1/2-z
1/2-x,1/2-y,-z
1/2+x,y,-z
1/2-x,y,1/2+z
1/2+x,1/2-y,1/2+z
loop_
_atom_site_type_symbol
_atom_site_label
_atom_site_fract_x
_atom_site_fract_y
_atom_site_fract_z
Si Si1 0.692409 0.750000 0.750000
Si Si2 0.138155 0.035674 0.771463
Si Si3 0.852745 0.686968 0.979687
Si Si4 0.211251 0.094903 0.059160
Si Si5 0.500000 0.131312 0.750000
O O1 0.781467 0.718496 0.855880
O O2 0.620184 0.717003 0.631382
O O3 0.175073 0.063834 0.617370
O O4 0.000000 0.015928 0.750000
O O5 0.250000 0.000000 0.794005
O O6 0.143023 0.070666 0.916133
O O7 0.969435 0.663816 0.895613
O O8 0.762595 0.644981 0.021848
O O9 0.117137 0.100863 0.203169
#
# Coordination Sequence:
#
# PCOD9508904 Si02
#       5
#     8  16  16  16   8
#     4  10  22  43  69 104 150 186 255 311 372 444
#     4  12  29  48  79 114 151 194 252 314 381 459
#     4  11  22  44  71 105 149 196 250 308 379 452
#     4  12  25  49  75 108 149 199 251 307 383 455
#     4  12  24  43  80 102 148 206 246 308 382 451
#
# _framework density 23.699773
#
# number of rings (size 3 to 8) (size 9 to 14) (size 15 to 20)
#    0.000    0.500    5.000    2.250    1.750    2.500 
#    0.000    1.250    0.000    0.000    0.000    0.000 
#    0.000    0.000    0.000    0.000    0.000    0.000 
#
# Total GULP energy -179317.704051 kJ/mol
# GULP energy per Si atom -5603.678252 kJ/mol
# Density = 2.364583 g / cm^3
# Si number density = 23.699773 Si / 1000 Ang^3
#
#
#
# Elastic Constant Matrix: (Units=GPa)
#
#
# Indices 1 2 3 4 5 6 
#
# 1 134.2046 43.7061 26.8571 0.0000 0.0000 0.0000
# 2 43.7061 116.5376 33.3815 0.0000 0.0000 0.0000
# 3 26.8571 33.3815 106.1945 0.0000 0.0000 0.0000
# 4 0.0000 0.0000 0.0000 34.4770 0.0000 0.0000
# 5 0.0000 0.0000 0.0000 0.0000 40.7341 0.0000
# 6 0.0000 0.0000 0.0000 0.0000 0.0000 28.3273
#
#
#
# Elastic Compliance Matrix: (Units=1/GPa)
#
#
# Indices 1 2 3 4 5 6 
#
# 1 0.008644 -0.002874 -0.001283 0.000000 0.000000 0.000000
# 2 -0.002874 0.010386 -0.002538 0.000000 0.000000 0.000000
# 3 -0.001283 -0.002538 0.010539 0.000000 0.000000 0.000000
# 4 0.000000 0.000000 0.000000 0.029005 0.000000 0.000000
# 5 0.000000 0.000000 0.000000 0.000000 0.024549 0.000000
# 6 0.000000 0.000000 0.000000 0.000000 0.000000 0.035302
#
#
# Mechanical properties :
#
#
# Convention : Reuss Voigt Hill
#
# Bulk Modulus (GPa) = 61.80793 62.75844 62.28318
# Shear Modulus (GPa) = 36.44121 37.57383 37.00752
#
# Velocity S-wave (km/s) = 3.92550 3.98604 3.95589
# Velocity P-wave (km/s) = 6.83244 6.90817 6.87041
#
# Compressibility (1/GPa) = 0.01617915
#
# Stress axis : x y z
#
# Youngs Moduli (GPa) = 115.68585 96.28450 94.88769
#
# Poissons Ratio (x) = 0.27677 0.12170
# Poissons Ratio (y) = 0.33254 0.24080
# Poissons Ratio (z) = 0.14837 0.24435
#
# Static dielectric constant tensor:
#      x y z
#    x 1.888650 0.000000 0.000000 
#    y 0.000000 1.870290 0.000000 
#    z 0.000000 0.000000 1.908420 
# 
# From -- ./inp_files/4081.got.cif
#   From: 2010.05.17/outbox.cif.g08.bks.cpg/sg68_3_cif.got.tgz:4081.got - 2010.06.03 18:57:09.
