data_PCOD9508837
_publ_section_title
;
Structure prediction by ZEFSAII (Michael W. Deem and Ramdas Pophale) SiO2 
 PCOD9508837
Probable space group: C C C A
;
_chemical_formula_sum "Si O2"
_cell_formula_units_Z 88
_cell_length_a 22.170999
_cell_length_b 14.348401
_cell_length_c 12.084841
_cell_angle_alpha 90.000000
_cell_angle_beta 90.000000
_cell_angle_gamma 90.000000
_cell_volume 3844.410093
_symmetry_space_group_name_H-M "C C C A"
_symmetry_group_IT_number 68
_space_group.IT_coordinate_system_code '2'
_symmetry_cell_setting 'orthorhombic'
loop_
_space_group_symop_operation_xyz
x,y,z
-x,1/2-y,z
x,1/2-y,1/2-z
-x,y,1/2-z
-x,-y,-z
x,1/2+y,-z
-x,1/2+y,1/2+z
x,-y,1/2+z
1/2+x,1/2+y,z
1/2-x,-y,z
1/2+x,-y,1/2-z
1/2-x,1/2+y,1/2-z
1/2-x,1/2-y,-z
1/2+x,y,-z
1/2-x,y,1/2+z
1/2+x,1/2-y,1/2+z
loop_
_atom_site_type_symbol
_atom_site_label
_atom_site_fract_x
_atom_site_fract_y
_atom_site_fract_z
Si Si1 0.126952 0.084520 0.891463
Si Si2 0.227211 0.323829 0.910618
Si Si3 0.918977 0.613245 0.820559
Si Si4 0.467279 0.414185 0.928631
Si Si5 0.250000 0.000000 0.960014
Si Si6 0.628193 0.750000 0.750000
Si Si7 0.321609 0.750000 0.250000
O O1 0.199709 0.065815 0.899510
O O2 0.102139 0.154258 0.797060
O O3 0.105838 0.981004 0.869543
O O4 0.090638 0.116167 0.000415
O O5 0.168637 0.283075 0.852801
O O6 0.279215 0.320563 0.817374
O O7 0.250000 0.250000 0.000000
O O8 0.216927 0.424822 0.962064
O O9 0.939807 0.581517 0.696664
O O10 0.866530 0.688606 0.822058
O O11 0.974185 0.647017 0.897061
O O12 0.500000 0.500000 0.000000
#
# Coordination Sequence:
#
# PCOD9508837 Si02
#       7
#    16  16  16  16   8   8   8
#     4  11  24  43  66 102 136 183 224 285 355 420
#     4  11  24  43  61 101 139 177 232 284 335 432
#     4  10  22  42  70  94 135 179 231 290 346 410
#     4   9  21  44  68  98 130 177 236 286 345 421
#     4  12  24  42  72  92 134 188 218 270 366 402
#     4  11  26  40  64 100 145 169 233 278 348 422
#     4  11  24  41  66 103 135 176 236 296 344 426
#
# _framework density 22.890377999999998
#
# number of rings (size 3 to 8) (size 9 to 14) (size 15 to 20)
#    0.000    1.455    1.818    2.182    7.636    1.455 
#    0.000    1.818    0.000    9.818    0.000    0.000 
#    0.000    0.000    0.000    0.000    0.000    0.000 
#
# Total GULP energy -244949.170934 kJ/mol
# GULP energy per Si atom -5567.026612 kJ/mol
# Density = 2.283828 g / cm^3
# Si number density = 22.890378 Si / 1000 Ang^3
#
#
#
# Elastic Constant Matrix: (Units=GPa)
#
#
# Indices 1 2 3 4 5 6 
#
# 1 72.2872 -5.6205 12.0754 0.0000 0.0000 0.0000
# 2 -5.6205 95.3532 1.5492 0.0000 0.0000 0.0000
# 3 12.0754 1.5492 62.1002 0.0000 0.0000 0.0000
# 4 0.0000 0.0000 0.0000 34.0557 0.0000 0.0000
# 5 0.0000 0.0000 0.0000 0.0000 -19.8333 0.0000
# 6 0.0000 0.0000 0.0000 0.0000 0.0000 16.8079
#
#
#
# Elastic Compliance Matrix: (Units=1/GPa)
#
#
# Indices 1 2 3 4 5 6 
#
# 1 0.014374 0.000893 -0.002817 0.000000 0.000000 0.000000
# 2 0.000893 0.010547 -0.000437 0.000000 0.000000 0.000000
# 3 -0.002817 -0.000437 0.016662 0.000000 0.000000 0.000000
# 4 0.000000 0.000000 0.000000 0.029364 0.000000 0.000000
# 5 0.000000 0.000000 0.000000 0.000000 -0.050420 0.000000
# 6 0.000000 0.000000 0.000000 0.000000 0.000000 0.059496
#
#
# Mechanical properties :
#
#
# Convention : Reuss Voigt Hill
#
# Bulk Modulus (GPa) = 27.12929 27.30542 27.21735
# Shear Modulus (GPa) = 51.53018 20.98850 36.25934
#
# Velocity S-wave (km/s) = 4.74980 3.03134 3.98432
# Velocity P-wave (km/s) = 6.47753 4.92003 5.75174
#
# Compressibility (1/GPa) = 0.03686053
#
# Stress axis : x y z
#
# Youngs Moduli (GPa) = 69.57118 94.81314 60.01780
#
# Poissons Ratio (x) = -0.08467 0.16909
# Poissons Ratio (y) = -0.06213 0.02621
# Poissons Ratio (z) = 0.19600 0.04141
#
# Static dielectric constant tensor:
#      x y z
#    x 2.061590 0.000000 0.000000 
#    y 0.000000 1.867820 0.000000 
#    z 0.000000 0.000000 1.949790 
# 
# From -- ./inp_files/16372.got.cif
#   From: 2010.05.17/outbox.cif.g08.bks.cpg/sg68_9_cif.got.tgz:16372.got - 2010.06.03 18:57:09.
