data_PCOD9508060
_publ_section_title
;
Structure prediction by ZEFSAII (Michael W. Deem and Ramdas Pophale) SiO2 
 PCOD9508060
Probable space group: C C C A
;
_chemical_formula_sum "Si O2"
_cell_formula_units_Z 72
_cell_length_a 15.998357
_cell_length_b 11.496415
_cell_length_c 17.291558
_cell_angle_alpha 90.000000
_cell_angle_beta 90.000000
_cell_angle_gamma 90.000000
_cell_volume 3180.328215
_symmetry_space_group_name_H-M "C C C A"
_symmetry_group_IT_number 68
_space_group.IT_coordinate_system_code '2'
_symmetry_cell_setting 'orthorhombic'
loop_
_space_group_symop_operation_xyz
x,y,z
-x,1/2-y,z
x,1/2-y,1/2-z
-x,y,1/2-z
-x,-y,-z
x,1/2+y,-z
-x,1/2+y,1/2+z
x,-y,1/2+z
1/2+x,1/2+y,z
1/2-x,-y,z
1/2+x,-y,1/2-z
1/2-x,1/2+y,1/2-z
1/2-x,1/2-y,-z
1/2+x,y,-z
1/2-x,y,1/2+z
1/2+x,1/2-y,1/2+z
loop_
_atom_site_type_symbol
_atom_site_label
_atom_site_fract_x
_atom_site_fract_y
_atom_site_fract_z
Si Si1 0.860212 0.099790 0.955029
Si Si2 0.000000 0.067130 0.750000
Si Si3 0.250000 0.500000 0.089115
Si Si4 0.000000 0.250000 0.889805
Si Si5 0.157372 0.058200 0.182808
Si Si6 0.235319 0.758734 0.333698
O O1 0.939987 0.181415 0.948975
O O2 0.798461 0.182264 0.904778
O O3 0.868903 0.986423 0.901668
O O4 0.822052 0.053319 0.033932
O O5 0.017681 0.147223 0.826175
O O6 0.083076 0.989661 0.735828
O O7 0.228285 0.609920 0.140806
O O8 0.176361 0.194664 0.180678
O O9 0.250000 0.000000 0.199240
O O10 0.189928 0.750000 0.250000
#
# Coordination Sequence:
#
# PCOD9508060 Si02
#       6
#    16   8   8   8  16  16
#     4  10  21  40  66  98 141 184 234 286 351 432
#     4   9  18  34  65 104 144 198 236 310 352 412
#     4  12  24  42  70  96 138 190 230 296 374 434
#     4   9  20  34  66 104 147 186 246 282 351 430
#     4   9  19  37  64  97 143 179 243 289 351 419
#     4  11  25  39  68  99 132 177 243 296 351 433
#
# _framework density 22.639173
#
# number of rings (size 3 to 8) (size 9 to 14) (size 15 to 20)
#    0.000    2.000    3.333    0.667   14.000    0.000 
#    0.000    1.667    4.889    0.000    0.000    0.000 
#    0.000    0.000    0.000    0.000    0.000    0.000 
#
# Total GULP energy -200463.917358 kJ/mol
# GULP energy per Si atom -5568.442149 kJ/mol
# Density = 2.258764 g / cm^3
# Si number density = 22.639173 Si / 1000 Ang^3
#
#
#
# Elastic Constant Matrix: (Units=GPa)
#
#
# Indices 1 2 3 4 5 6 
#
# 1 111.0382 47.9361 41.3219 0.0000 0.0000 0.0000
# 2 47.9361 157.2764 73.3160 0.0000 0.0000 0.0000
# 3 41.3219 73.3160 119.4934 0.0000 0.0000 0.0000
# 4 0.0000 0.0000 0.0000 26.0831 0.0000 0.0000
# 5 0.0000 0.0000 0.0000 0.0000 23.1000 0.0000
# 6 0.0000 0.0000 0.0000 0.0000 0.0000 76.1163
#
#
#
# Elastic Compliance Matrix: (Units=1/GPa)
#
#
# Indices 1 2 3 4 5 6 
#
# 1 0.010845 -0.002181 -0.002412 0.000000 0.000000 0.000000
# 2 -0.002181 0.009344 -0.004979 0.000000 0.000000 0.000000
# 3 -0.002412 -0.004979 0.012258 0.000000 0.000000 0.000000
# 4 0.000000 0.000000 0.000000 0.038339 0.000000 0.000000
# 5 0.000000 0.000000 0.000000 0.000000 0.043290 0.000000
# 6 0.000000 0.000000 0.000000 0.000000 0.000000 0.013138
#
#
# Mechanical properties :
#
#
# Convention : Reuss Voigt Hill
#
# Bulk Modulus (GPa) = 75.17295 79.21733 77.19514
# Shear Modulus (GPa) = 33.15831 40.07546 36.61688
#
# Velocity S-wave (km/s) = 3.83122 4.21192 4.02607
# Velocity P-wave (km/s) = 7.26965 7.66296 7.46889
#
# Compressibility (1/GPa) = 0.01330266
#
# Stress axis : x y z
#
# Youngs Moduli (GPa) = 92.20716 107.02165 81.58208
#
# Poissons Ratio (x) = 0.23342 0.19679
# Poissons Ratio (y) = 0.20111 0.40618
# Poissons Ratio (z) = 0.22242 0.53284
#
# Static dielectric constant tensor:
#      x y z
#    x 2.001070 0.000000 0.000000 
#    y 0.000000 1.941220 0.000000 
#    z 0.000000 0.000000 1.958270 
# 
# From -- ./inp_files/31667.got.cif
#   From: 2010.05.17/outbox.cif.g08.bks.cpg/sg68_16_cif.got.tgz:31667.got - 2010.06.03 18:57:09.
