data_PCOD9508467
_publ_section_title
;
Structure prediction by ZEFSAII (Michael W. Deem and Ramdas Pophale) SiO2 
 PCOD9508467
Probable space group: C C C A
;
_chemical_formula_sum "Si O2"
_cell_formula_units_Z 108
_cell_length_a 14.138623
_cell_length_b 28.930255
_cell_length_c 10.437854
_cell_angle_alpha 90.000000
_cell_angle_beta 90.000000
_cell_angle_gamma 90.000000
_cell_volume 4269.436847
_symmetry_space_group_name_H-M "C C C A"
_symmetry_group_IT_number 68
_space_group.IT_coordinate_system_code '2'
_symmetry_cell_setting 'orthorhombic'
loop_
_space_group_symop_operation_xyz
x,y,z
-x,1/2-y,z
x,1/2-y,1/2-z
-x,y,1/2-z
-x,-y,-z
x,1/2+y,-z
-x,1/2+y,1/2+z
x,-y,1/2+z
1/2+x,1/2+y,z
1/2-x,-y,z
1/2+x,-y,1/2-z
1/2-x,1/2+y,1/2-z
1/2-x,1/2-y,-z
1/2+x,y,-z
1/2-x,y,1/2+z
1/2+x,1/2-y,1/2+z
loop_
_atom_site_type_symbol
_atom_site_label
_atom_site_fract_x
_atom_site_fract_y
_atom_site_fract_z
Si Si1 0.275673 0.671917 0.087425
Si Si2 0.316729 0.250000 0.250000
Si Si3 0.000000 0.250000 0.250000
Si Si4 0.932003 0.825231 0.398364
Si Si5 0.405668 0.327169 0.926715
Si Si6 0.164382 0.900980 0.277215
Si Si7 0.441498 0.072403 0.538999
Si Si8 0.582724 0.975491 0.859346
O O1 0.248221 0.717868 0.162117
O O2 0.252771 0.629575 0.181400
O O3 0.379984 0.669440 0.034330
O O4 0.204786 0.671023 0.964460
O O5 0.384930 0.281142 0.335661
O O6 0.062763 0.214926 0.163042
O O7 0.903759 0.868090 0.308664
O O8 0.040628 0.819894 0.435941
O O9 0.438908 0.378859 0.887385
O O10 0.117637 0.915611 0.411267
O O11 0.171148 0.946938 0.193856
O O12 0.540410 0.051484 0.483758
O O13 0.399032 0.028665 0.611472
O O14 0.500000 0.973635 0.750000
#
# Coordination Sequence:
#
# PCOD9508467 Si02
#       8
#    16   8   4  16  16  16  16  16
#     4  10  23  38  62  91 122 169 219 269 326 391
#     4  10  22  38  66  90 124 162 220 282 332 388
#     4  12  28  38  56  84 140 186 216 258 314 388
#     4  11  22  39  63  89 124 172 217 270 332 386
#     4  11  24  41  58  88 129 170 219 265 322 404
#     4   9  19  36  62  88 120 155 206 271 320 385
#     4   9  18  33  60  96 120 153 210 265 326 395
#     4   9  16  31  62  97 123 152 204 266 333 393
#
# _framework density 25.296077
#
# number of rings (size 3 to 8) (size 9 to 14) (size 15 to 20)
#    0.000    2.074    1.481    1.333    3.111    5.926 
#    0.000    0.000    0.000    7.111    0.000    0.000 
#    0.000    0.000    0.000    0.296    0.000    0.000 
#
# Total GULP energy -302403.661434 kJ/mol
# GULP energy per Si atom -5600.067804 kJ/mol
# Density = 2.523850 g / cm^3
# Si number density = 25.296077 Si / 1000 Ang^3
#
#
#
# Elastic Constant Matrix: (Units=GPa)
#
#
# Indices 1 2 3 4 5 6 
#
# 1 62.9392 25.5298 15.0646 0.0000 0.0000 0.0000
# 2 25.5298 225.9668 60.3717 0.0000 0.0000 0.0000
# 3 15.0646 60.3717 82.8961 0.0000 0.0000 0.0000
# 4 0.0000 0.0000 0.0000 56.7545 0.0000 0.0000
# 5 0.0000 0.0000 0.0000 0.0000 33.9757 0.0000
# 6 0.0000 0.0000 0.0000 0.0000 0.0000 2.8036
#
#
#
# Elastic Compliance Matrix: (Units=1/GPa)
#
#
# Indices 1 2 3 4 5 6 
#
# 1 0.016939 -0.001355 -0.002091 0.000000 0.000000 0.000000
# 2 -0.001355 0.005603 -0.003834 0.000000 0.000000 0.000000
# 3 -0.002091 -0.003834 0.015236 0.000000 0.000000 0.000000
# 4 0.000000 0.000000 0.000000 0.017620 0.000000 0.000000
# 5 0.000000 0.000000 0.000000 0.000000 0.029433 0.000000
# 6 0.000000 0.000000 0.000000 0.000000 0.000000 0.356679
#
#
# Mechanical properties :
#
#
# Convention : Reuss Voigt Hill
#
# Bulk Modulus (GPa) = 43.07383 63.74825 53.41104
# Shear Modulus (GPa) = 10.78030 36.76250 23.77140
#
# Velocity S-wave (km/s) = 2.06662 3.81634 3.06882
# Velocity P-wave (km/s) = 4.77068 6.68392 5.80664
#
# Compressibility (1/GPa) = 0.02321595
#
# Stress axis : x y z
#
# Youngs Moduli (GPa) = 59.03700 178.47848 65.63490
#
# Poissons Ratio (x) = 0.24183 0.13727
# Poissons Ratio (y) = 0.07999 0.25166
# Poissons Ratio (z) = 0.12347 0.68433
#
# Static dielectric constant tensor:
#      x y z
#    x 1.956160 0.000000 0.000000 
#    y 0.000000 2.001640 0.000000 
#    z 0.000000 0.000000 2.018620 
# 
# From -- ./inp_files/13645.got.cif
#   From: 2010.05.17/outbox.cif.g08.bks.cpg/sg68_7_cif.got.tgz:13645.got - 2010.06.03 18:57:09.
