data_PCOD9508609
_publ_section_title
;
Structure prediction by ZEFSAII (Michael W. Deem and Ramdas Pophale) SiO2 
 PCOD9508609
Probable space group: C C C A
;
_chemical_formula_sum "Si O2"
_cell_formula_units_Z 104
_cell_length_a 16.742090
_cell_length_b 21.984080
_cell_length_c 15.213278
_cell_angle_alpha 90.000000
_cell_angle_beta 90.000000
_cell_angle_gamma 90.000000
_cell_volume 5599.390671
_symmetry_space_group_name_H-M "C C C A"
_symmetry_group_IT_number 68
_space_group.IT_coordinate_system_code '2'
_symmetry_cell_setting 'orthorhombic'
loop_
_space_group_symop_operation_xyz
x,y,z
-x,1/2-y,z
x,1/2-y,1/2-z
-x,y,1/2-z
-x,-y,-z
x,1/2+y,-z
-x,1/2+y,1/2+z
x,-y,1/2+z
1/2+x,1/2+y,z
1/2-x,-y,z
1/2+x,-y,1/2-z
1/2-x,1/2+y,1/2-z
1/2-x,1/2-y,-z
1/2+x,y,-z
1/2-x,y,1/2+z
1/2+x,1/2-y,1/2+z
loop_
_atom_site_type_symbol
_atom_site_label
_atom_site_fract_x
_atom_site_fract_y
_atom_site_fract_z
Si Si1 0.478498 0.489831 0.099111
Si Si2 0.500000 0.587733 0.250000
Si Si3 0.752079 0.169544 0.080088
Si Si4 0.682438 0.450773 0.332747
Si Si5 0.786911 0.803663 0.378464
Si Si6 0.927658 0.617262 0.192214
Si Si7 0.859228 0.682388 0.761054
O O1 0.499537 0.543994 0.165591
O O2 0.383737 0.482542 0.107705
O O3 0.525305 0.429455 0.129929
O O4 0.500000 0.500000 0.000000
O O5 0.422381 0.630201 0.257577
O O6 0.715258 0.107051 0.114337
O O7 0.705685 0.230646 0.111005
O O8 0.832553 0.175485 0.137578
O O9 0.761688 0.172532 0.975273
O O10 0.750000 0.500000 0.308645
O O11 0.632263 0.424161 0.250927
O O12 0.870285 0.833845 0.352020
O O13 0.718611 0.818693 0.304609
O O14 0.000000 0.644778 0.250000
O O15 0.893722 0.750000 0.750000
#
# Coordination Sequence:
#
# PCOD9508609 Si02
#       7
#    16   8  16  16  16  16  16
#     4  11  26  42  58  89 129 163 208 259 313 375
#     4  12  23  42  64  86 127 166 198 264 312 364
#     4  10  22  40  65  96 124 161 212 261 305 377
#     4  11  22  41  63  90 124 163 210 254 310 382
#     4  10  22  41  66  94 127 164 211 261 310 372
#     4  10  22  42  63  90 128 166 216 259 313 381
#     4  10  22  40  66  93 121 160 209 258 310 374
#
# _framework density 18.573449
#
# number of rings (size 3 to 8) (size 9 to 14) (size 15 to 20)
#    0.000    1.538    3.846    1.154    6.462    0.000 
#    0.000    5.385    0.000    0.000    0.000    0.000 
#    0.000    0.000    0.000    0.000    0.000    0.000 
#
# Total GULP energy -290095.384074 kJ/mol
# GULP energy per Si atom -5578.757386 kJ/mol
# Density = 1.853118 g / cm^3
# Si number density = 18.573449 Si / 1000 Ang^3
#
#
#
# Elastic Constant Matrix: (Units=GPa)
#
#
# Indices 1 2 3 4 5 6 
#
# 1 94.3504 53.2714 25.0828 0.0000 0.0000 0.0000
# 2 53.2714 90.6243 26.6273 0.0000 0.0000 0.0000
# 3 25.0828 26.6273 98.4582 0.0000 0.0000 0.0000
# 4 0.0000 0.0000 0.0000 12.5905 0.0000 0.0000
# 5 0.0000 0.0000 0.0000 0.0000 1.6206 0.0000
# 6 0.0000 0.0000 0.0000 0.0000 0.0000 -0.6915
#
#
#
# Elastic Compliance Matrix: (Units=1/GPa)
#
#
# Indices 1 2 3 4 5 6 
#
# 1 0.016115 -0.008980 -0.001677 0.000000 0.000000 0.000000
# 2 -0.008980 0.016991 -0.002307 0.000000 0.000000 0.000000
# 3 -0.001677 -0.002307 0.011208 0.000000 0.000000 0.000000
# 4 0.000000 0.000000 0.000000 0.079425 0.000000 0.000000
# 5 0.000000 0.000000 0.000000 0.000000 0.617069 0.000000
# 6 0.000000 0.000000 0.000000 0.000000 0.000000 -1.446153
#
#
# Mechanical properties :
#
#
# Convention : Reuss Voigt Hill
#
# Bulk Modulus (GPa) = 54.39108 54.82174 54.60641
# Shear Modulus (GPa) = -7.42625 14.60067 3.58721
#
# Velocity S-wave (km/s) = -2.00175 2.80680 1.39124
# Velocity P-wave (km/s) = 4.89951 6.33123 5.66081
#
# Compressibility (1/GPa) = 0.01838537
#
# Stress axis : x y z
#
# Youngs Moduli (GPa) = 62.05479 58.85386 89.22371
#
# Poissons Ratio (x) = 0.52851 0.14961
# Poissons Ratio (y) = 0.55725 0.20588
# Poissons Ratio (z) = 0.10405 0.13580
#
# Static dielectric constant tensor:
#      x y z
#    x 1.637930 0.000000 0.000000 
#    y 0.000000 1.694550 0.000000 
#    z 0.000000 0.000000 1.620730 
# 
# From -- ./inp_files/23798.got.cif
#   From: 2010.05.17/outbox.cif.g08.bks.cpg/sg68_12_cif.got.tgz:23798.got - 2010.06.03 18:57:09.
