data_PCOD9508272
_publ_section_title
;
Structure prediction by ZEFSAII (Michael W. Deem and Ramdas Pophale) SiO2 
 PCOD9508272
Probable space group: C C C A
;
_chemical_formula_sum "Si O2"
_cell_formula_units_Z 68
_cell_length_a 9.948907
_cell_length_b 17.026285
_cell_length_c 21.242044
_cell_angle_alpha 90.000000
_cell_angle_beta 90.000000
_cell_angle_gamma 90.000000
_cell_volume 3598.251988
_symmetry_space_group_name_H-M "C C C A"
_symmetry_group_IT_number 68
_space_group.IT_coordinate_system_code '2'
_symmetry_cell_setting 'orthorhombic'
loop_
_space_group_symop_operation_xyz
x,y,z
-x,1/2-y,z
x,1/2-y,1/2-z
-x,y,1/2-z
-x,-y,-z
x,1/2+y,-z
-x,1/2+y,1/2+z
x,-y,1/2+z
1/2+x,1/2+y,z
1/2-x,-y,z
1/2+x,-y,1/2-z
1/2-x,1/2+y,1/2-z
1/2-x,1/2-y,-z
1/2+x,y,-z
1/2-x,y,1/2+z
1/2+x,1/2-y,1/2+z
loop_
_atom_site_type_symbol
_atom_site_label
_atom_site_fract_x
_atom_site_fract_y
_atom_site_fract_z
Si Si1 0.500000 0.750000 0.250000
Si Si2 0.240685 0.662965 0.025427
Si Si3 0.173064 0.130841 0.335879
Si Si4 0.463712 0.925881 0.544265
Si Si5 0.944243 0.956010 0.180189
O O1 0.594524 0.693343 0.292837
O O2 0.318073 0.657672 0.091963
O O3 0.087668 0.634374 0.033368
O O4 0.250000 0.750000 0.000000
O O5 0.321925 0.606793 0.978489
O O6 0.326926 0.109628 0.319012
O O7 0.107095 0.044705 0.331571
O O8 0.463603 0.941015 0.619162
O O9 0.500000 0.000000 0.500000
O O10 0.000000 0.955037 0.250000
#
# Coordination Sequence:
#
# PCOD9508272 Si02
#       5
#     4  16  16  16  16
#     4  12  24  40  66 100 124 170 206 266 320 388
#     4  11  24  41  63  95 133 163 207 269 323 370
#     4  10  23  40  63  92 133 162 208 268 315 371
#     4  11  22  41  66  92 124 168 214 261 305 384
#     4  10  21  44  64  90 127 170 212 258 312 380
#
# _framework density 18.898066
#
# number of rings (size 3 to 8) (size 9 to 14) (size 15 to 20)
#    0.000    1.412    3.529    1.412    3.294    1.882 
#    8.471    2.941    0.000    0.000    0.000    0.000 
#    0.000    0.000    0.000    0.000    0.000    0.000 
#
# Total GULP energy -189693.764487 kJ/mol
# GULP energy per Si atom -5579.228367 kJ/mol
# Density = 1.885505 g / cm^3
# Si number density = 18.898066 Si / 1000 Ang^3
#
#
#
# Elastic Constant Matrix: (Units=GPa)
#
#
# Indices 1 2 3 4 5 6 
#
# 1 23.6312 3.7497 28.7601 0.0000 0.0000 0.0000
# 2 3.7497 86.7560 38.4141 0.0000 0.0000 0.0000
# 3 28.7601 38.4141 165.7950 0.0000 0.0000 0.0000
# 4 0.0000 0.0000 0.0000 17.4042 0.0000 0.0000
# 5 0.0000 0.0000 0.0000 0.0000 36.5837 0.0000
# 6 0.0000 0.0000 0.0000 0.0000 0.0000 22.0234
#
#
#
# Elastic Compliance Matrix: (Units=1/GPa)
#
#
# Indices 1 2 3 4 5 6 
#
# 1 0.053957 0.002019 -0.009828 0.000000 0.000000 0.000000
# 2 0.002019 0.012920 -0.003344 0.000000 0.000000 0.000000
# 3 -0.009828 -0.003344 0.008511 0.000000 0.000000 0.000000
# 4 0.000000 0.000000 0.000000 0.057457 0.000000 0.000000
# 5 0.000000 0.000000 0.000000 0.000000 0.027335 0.000000
# 6 0.000000 0.000000 0.000000 0.000000 0.000000 0.045406
#
#
# Mechanical properties :
#
#
# Convention : Reuss Voigt Hill
#
# Bulk Modulus (GPa) = 18.83808 46.44780 32.64294
# Shear Modulus (GPa) = 20.35953 28.88614 24.62283
#
# Velocity S-wave (km/s) = 3.28584 3.91388 3.61353
# Velocity P-wave (km/s) = 4.93817 6.71238 5.89243
#
# Compressibility (1/GPa) = 0.05308398
#
# Stress axis : x y z
#
# Youngs Moduli (GPa) = 18.53321 77.40016 117.49379
#
# Poissons Ratio (x) = -0.15631 1.15470
# Poissons Ratio (y) = -0.03743 0.39288
# Poissons Ratio (z) = 0.18214 0.25881
#
# Static dielectric constant tensor:
#      x y z
#    x 1.652650 0.000000 0.000000 
#    y 0.000000 1.652290 0.000000 
#    z 0.000000 0.000000 1.743620 
# 
# From -- ./inp_files/35844.got.cif
#   From: 2010.05.17/outbox.cif.g08.bks.cpg/sg68_18_cif.got.tgz:35844.got - 2010.06.03 18:57:09.
