data_PCOD9508516
_publ_section_title
;
Structure prediction by ZEFSAII (Michael W. Deem and Ramdas Pophale) SiO2 
 PCOD9508516
Probable space group: C C C A
;
_chemical_formula_sum "Si O2"
_cell_formula_units_Z 96
_cell_length_a 16.353125
_cell_length_b 19.027763
_cell_length_c 13.933887
_cell_angle_alpha 90.000000
_cell_angle_beta 90.000000
_cell_angle_gamma 90.000000
_cell_volume 4335.715470
_symmetry_space_group_name_H-M "C C C A"
_symmetry_group_IT_number 68
_space_group.IT_coordinate_system_code '2'
_symmetry_cell_setting 'orthorhombic'
loop_
_space_group_symop_operation_xyz
x,y,z
-x,1/2-y,z
x,1/2-y,1/2-z
-x,y,1/2-z
-x,-y,-z
x,1/2+y,-z
-x,1/2+y,1/2+z
x,-y,1/2+z
1/2+x,1/2+y,z
1/2-x,-y,z
1/2+x,-y,1/2-z
1/2-x,1/2+y,1/2-z
1/2-x,1/2-y,-z
1/2+x,y,-z
1/2-x,y,1/2+z
1/2+x,1/2-y,1/2+z
loop_
_atom_site_type_symbol
_atom_site_label
_atom_site_fract_x
_atom_site_fract_y
_atom_site_fract_z
Si Si1 0.078954 0.857653 0.935601
Si Si2 0.881957 0.152195 0.660566
Si Si3 0.000000 0.750000 0.454748
Si Si4 0.775038 0.727780 0.861002
Si Si5 0.750000 0.500000 0.062704
Si Si6 0.583088 0.007701 0.062806
Si Si7 0.820531 0.362319 0.626258
O O1 0.137744 0.800305 0.889500
O O2 0.081271 0.932034 0.882746
O O3 0.116066 0.872926 0.040936
O O4 0.000204 0.815310 0.969190
O O5 0.789455 0.164903 0.623764
O O6 0.868991 0.151327 0.775327
O O7 0.931732 0.218818 0.618343
O O8 0.918236 0.078130 0.626041
O O9 0.776143 0.750000 0.750000
O O10 0.737095 0.797820 0.906159
O O11 0.766902 0.567560 0.128718
O O12 0.668401 0.511816 0.997704
O O13 0.500000 0.000000 0.000000
#
# Coordination Sequence:
#
# PCOD9508516 Si02
#       7
#    16  16   8  16   8  16  16
#     4  11  23  40  65  94 130 176 226 277 350 411
#     4  11  23  40  64  94 135 169 230 289 348 419
#     4  12  24  37  67  98 128 178 219 296 350 413
#     4  10  22  40  64  95 126 173 223 284 340 412
#     4  10  24  40  62  92 132 182 234 278 350 428
#     4  11  23  43  64  98 136 185 235 290 350 426
#     4  10  22  39  64  95 130 173 219 287 347 411
#
# _framework density 22.141674999999999
#
# number of rings (size 3 to 8) (size 9 to 14) (size 15 to 20)
#    0.000    1.333    3.333    2.500    2.333    4.667 
#    0.000    0.417    0.000    4.000    0.000    0.000 
#    0.000    0.000    0.000    0.000    0.000    0.000 
#
# Total GULP energy -267446.045496 kJ/mol
# GULP energy per Si atom -5571.792615 kJ/mol
# Density = 2.209128 g / cm^3
# Si number density = 22.141675 Si / 1000 Ang^3
#
#
#
# Elastic Constant Matrix: (Units=GPa)
#
#
# Indices 1 2 3 4 5 6 
#
# 1 71.9566 16.1191 16.2405 0.0000 0.0000 0.0000
# 2 16.1191 158.3558 23.8827 0.0000 0.0000 0.0000
# 3 16.2405 23.8827 44.2698 0.0000 0.0000 0.0000
# 4 0.0000 0.0000 0.0000 32.1080 0.0000 0.0000
# 5 0.0000 0.0000 0.0000 0.0000 21.6153 0.0000
# 6 0.0000 0.0000 0.0000 0.0000 0.0000 35.9967
#
#
#
# Elastic Compliance Matrix: (Units=1/GPa)
#
#
# Indices 1 2 3 4 5 6 
#
# 1 0.015238 -0.000771 -0.005174 0.000000 0.000000 0.000000
# 2 -0.000771 0.006913 -0.003447 0.000000 0.000000 0.000000
# 3 -0.005174 -0.003447 0.026346 0.000000 0.000000 0.000000
# 4 0.000000 0.000000 0.000000 0.031145 0.000000 0.000000
# 5 0.000000 0.000000 0.000000 0.000000 0.046263 0.000000
# 6 0.000000 0.000000 0.000000 0.000000 0.000000 0.027780
#
#
# Mechanical properties :
#
#
# Convention : Reuss Voigt Hill
#
# Bulk Modulus (GPa) = 33.65431 43.00743 38.33087
# Shear Modulus (GPa) = 27.41619 32.50001 29.95810
#
# Velocity S-wave (km/s) = 3.52265 3.83537 3.68233
# Velocity P-wave (km/s) = 5.63719 6.25135 5.95220
#
# Compressibility (1/GPa) = 0.02971388
#
# Stress axis : x y z
#
# Youngs Moduli (GPa) = 65.62657 144.65131 37.95586
#
# Poissons Ratio (x) = 0.11148 0.19639
# Poissons Ratio (y) = 0.05058 0.13083
# Poissons Ratio (z) = 0.33957 0.49858
#
# Static dielectric constant tensor:
#      x y z
#    x 1.863230 0.000000 0.000000 
#    y 0.000000 2.002510 0.000000 
#    z 0.000000 0.000000 1.833230 
# 
# From -- ./inp_files/22434.got.cif
#   From: 2010.05.17/outbox.cif.g08.bks.cpg/sg68_12_cif.got.tgz:22434.got - 2010.06.03 18:57:09.
