data_PCOD9508684
_publ_section_title
;
Structure prediction by ZEFSAII (Michael W. Deem and Ramdas Pophale) SiO2 
 PCOD9508684
Probable space group: C C C A
;
_chemical_formula_sum "Si O2"
_cell_formula_units_Z 88
_cell_length_a 17.125317
_cell_length_b 29.094383
_cell_length_c 8.141464
_cell_angle_alpha 90.000000
_cell_angle_beta 90.000000
_cell_angle_gamma 90.000000
_cell_volume 4056.488768
_symmetry_space_group_name_H-M "C C C A"
_symmetry_group_IT_number 68
_space_group.IT_coordinate_system_code '2'
_symmetry_cell_setting 'orthorhombic'
loop_
_space_group_symop_operation_xyz
x,y,z
-x,1/2-y,z
x,1/2-y,1/2-z
-x,y,1/2-z
-x,-y,-z
x,1/2+y,-z
-x,1/2+y,1/2+z
x,-y,1/2+z
1/2+x,1/2+y,z
1/2-x,-y,z
1/2+x,-y,1/2-z
1/2-x,1/2+y,1/2-z
1/2-x,1/2-y,-z
1/2+x,y,-z
1/2-x,y,1/2+z
1/2+x,1/2-y,1/2+z
loop_
_atom_site_type_symbol
_atom_site_label
_atom_site_fract_x
_atom_site_fract_y
_atom_site_fract_z
Si Si1 0.815771 0.852510 0.380980
Si Si2 0.091530 0.934554 0.237536
Si Si3 0.500000 0.644775 0.250000
Si Si4 0.834823 0.016184 0.073155
Si Si5 0.460675 0.300012 0.416365
Si Si6 0.664224 0.107660 0.744405
O O1 0.859433 0.887581 0.257124
O O2 0.867019 0.805683 0.383179
O O3 0.724799 0.861030 0.345612
O O4 0.827411 0.872125 0.562202
O O5 0.000000 0.926694 0.250000
O O6 0.119499 0.971370 0.369554
O O7 0.115354 0.957949 0.064598
O O8 0.520335 0.674090 0.413190
O O9 0.575253 0.614814 0.203545
O O10 0.820292 0.053429 0.219973
O O11 0.750000 0.000000 0.015422
O O12 0.500000 0.250000 0.432884
O O13 0.500000 0.319493 0.250000
#
# Coordination Sequence:
#
# PCOD9508684 Si02
#       6
#    16  16   8  16  16  16
#     4  10  22  41  62  94 127 171 214 266 333 389
#     4  11  23  38  57  89 125 169 223 268 314 378
#     4  10  23  44  68  98 134 172 212 268 331 398
#     4  11  22  39  57  86 126 176 221 265 318 372
#     4  10  22  43  72  98 128 166 212 268 336 396
#     4  10  23  39  63  93 130 174 218 262 324 384
#
# _framework density 21.693638
#
# number of rings (size 3 to 8) (size 9 to 14) (size 15 to 20)
#    0.000    1.636    1.818    1.909    6.364    0.000 
#    3.273    0.909    4.000    0.000    0.000    0.000 
#    0.000    0.000    0.000    0.000    0.000    0.000 
#
# Total GULP energy -245511.853386 kJ/mol
# GULP energy per Si atom -5579.814850 kJ/mol
# Density = 2.164426 g / cm^3
# Si number density = 21.693638 Si / 1000 Ang^3
#
#
#
# Elastic Constant Matrix: (Units=GPa)
#
#
# Indices 1 2 3 4 5 6 
#
# 1 169.2892 42.4344 16.6570 0.0000 0.0000 0.0000
# 2 42.4344 89.9607 13.0365 0.0000 0.0000 0.0000
# 3 16.6570 13.0365 67.7003 0.0000 0.0000 0.0000
# 4 0.0000 0.0000 0.0000 -6.4672 0.0000 0.0000
# 5 0.0000 0.0000 0.0000 0.0000 54.0250 0.0000
# 6 0.0000 0.0000 0.0000 0.0000 0.0000 31.8412
#
#
#
# Elastic Compliance Matrix: (Units=1/GPa)
#
#
# Indices 1 2 3 4 5 6 
#
# 1 0.006775 -0.003039 -0.001082 0.000000 0.000000 0.000000
# 2 -0.003039 0.012798 -0.001717 0.000000 0.000000 0.000000
# 3 -0.001082 -0.001717 0.015368 0.000000 0.000000 0.000000
# 4 0.000000 0.000000 0.000000 -0.154626 0.000000 0.000000
# 5 0.000000 0.000000 0.000000 0.000000 0.018510 0.000000
# 6 0.000000 0.000000 0.000000 0.000000 0.000000 0.031406
#
#
# Mechanical properties :
#
#
# Convention : Reuss Voigt Hill
#
# Bulk Modulus (GPa) = 42.98106 52.35620 47.66863
# Shear Modulus (GPa) = -99.32722 32.86795 -33.22963
#
# Velocity S-wave (km/s) = -6.77390 3.89665 -3.91803
# Velocity P-wave (km/s) = 6.42847 6.66573 1.24633
#
# Compressibility (1/GPa) = 0.02326606
#
# Stress axis : x y z
#
# Youngs Moduli (GPa) = 147.59524 78.13544 65.07148
#
# Poissons Ratio (x) = 0.23746 0.07039
# Poissons Ratio (y) = 0.44856 0.11171
# Poissons Ratio (z) = 0.15966 0.13414
#
# Static dielectric constant tensor:
#      x y z
#    x 1.818860 0.000000 0.000000 
#    y 0.000000 1.829150 0.000000 
#    z 0.000000 0.000000 1.844490 
# 
# From -- ./inp_files/6428.got.cif
#   From: 2010.05.17/outbox.cif.g08.bks.cpg/sg68_4_cif.got.tgz:6428.got - 2010.06.03 18:57:09.
