data_PCOD9508582
_publ_section_title
;
Structure prediction by ZEFSAII (Michael W. Deem and Ramdas Pophale) SiO2 
 PCOD9508582
Probable space group: C C C A
;
_chemical_formula_sum "Si O2"
_cell_formula_units_Z 84
_cell_length_a 17.133688
_cell_length_b 10.553373
_cell_length_c 23.505470
_cell_angle_alpha 90.000000
_cell_angle_beta 90.000000
_cell_angle_gamma 90.000000
_cell_volume 4250.216783
_symmetry_space_group_name_H-M "C C C A"
_symmetry_group_IT_number 68
_space_group.IT_coordinate_system_code '2'
_symmetry_cell_setting 'orthorhombic'
loop_
_space_group_symop_operation_xyz
x,y,z
-x,1/2-y,z
x,1/2-y,1/2-z
-x,y,1/2-z
-x,-y,-z
x,1/2+y,-z
-x,1/2+y,1/2+z
x,-y,1/2+z
1/2+x,1/2+y,z
1/2-x,-y,z
1/2+x,-y,1/2-z
1/2-x,1/2+y,1/2-z
1/2-x,1/2-y,-z
1/2+x,y,-z
1/2-x,y,1/2+z
1/2+x,1/2-y,1/2+z
loop_
_atom_site_type_symbol
_atom_site_label
_atom_site_fract_x
_atom_site_fract_y
_atom_site_fract_z
Si Si1 0.000000 0.750000 0.557768
Si Si2 0.242257 0.313101 0.573633
Si Si3 0.367014 0.639724 0.984287
Si Si4 0.651913 0.385775 0.729804
Si Si5 0.000000 0.750000 0.750000
Si Si6 0.750000 0.000000 0.176450
Si Si7 0.857353 0.089571 0.397514
O O1 0.052250 0.660230 0.517327
O O2 0.063172 0.827576 0.594800
O O3 0.300802 0.387975 0.531756
O O4 0.161327 0.272370 0.544629
O O5 0.236648 0.383500 0.633460
O O6 0.288413 0.180823 0.581007
O O7 0.368146 0.532232 0.936811
O O8 0.689226 0.250000 0.750000
O O9 0.561659 0.346335 0.723155
O O10 0.677459 0.476310 0.780994
O O11 0.667443 0.437821 0.667316
#
# Coordination Sequence:
#
# PCOD9508582 Si02
#       7
#     8  16  16  16   4   8  16
#     4  10  23  40  61 102 123 160 215 262 328 378
#     4  10  23  39  61  93 129 163 203 263 334 367
#     4  10  23  40  64  93 127 164 209 260 328 390
#     4  10  22  40  63  92 125 169 222 256 317 379
#     4   8  18  44  60  88 122 170 214 252 308 396
#     4  12  24  38  64 100 130 162 220 282 300 378
#     4  11  21  41  66  89 126 169 207 266 312 392
#
# _framework density 19.763697000000001
#
# number of rings (size 3 to 8) (size 9 to 14) (size 15 to 20)
#    0.571    1.143    1.905    1.714   10.667    0.000 
#    3.429    0.000    0.000    0.000    0.000    0.000 
#    0.000    0.000    0.000    0.000    0.000    0.000 
#
# Total GULP energy -233890.487352 kJ/mol
# GULP energy per Si atom -5568.821127 kJ/mol
# Density = 1.971871 g / cm^3
# Si number density = 19.763697 Si / 1000 Ang^3
#
#
#
# Elastic Constant Matrix: (Units=GPa)
#
#
# Indices 1 2 3 4 5 6 
#
# 1 77.4828 20.0857 32.4489 0.0000 0.0000 0.0000
# 2 20.0857 59.9222 50.7707 0.0000 0.0000 0.0000
# 3 32.4489 50.7707 177.8930 0.0000 0.0000 0.0000
# 4 0.0000 0.0000 0.0000 3.8183 0.0000 0.0000
# 5 0.0000 0.0000 0.0000 0.0000 21.1023 0.0000
# 6 0.0000 0.0000 0.0000 0.0000 0.0000 29.2862
#
#
#
# Elastic Compliance Matrix: (Units=1/GPa)
#
#
# Indices 1 2 3 4 5 6 
#
# 1 0.014496 -0.003454 -0.001658 0.000000 0.000000 0.000000
# 2 -0.003454 0.022834 -0.005887 0.000000 0.000000 0.000000
# 3 -0.001658 -0.005887 0.007604 0.000000 0.000000 0.000000
# 4 0.000000 0.000000 0.000000 0.261894 0.000000 0.000000
# 5 0.000000 0.000000 0.000000 0.000000 0.047388 0.000000
# 6 0.000000 0.000000 0.000000 0.000000 0.000000 0.034146
#
#
# Mechanical properties :
#
#
# Convention : Reuss Voigt Hill
#
# Bulk Modulus (GPa) = 43.60037 57.98986 50.79511
# Shear Modulus (GPa) = 11.96160 24.97423 18.46791
#
# Velocity S-wave (km/s) = 2.46281 3.55863 3.06017
# Velocity P-wave (km/s) = 5.49509 6.80371 6.18411
#
# Compressibility (1/GPa) = 0.02293559
#
# Stress axis : x y z
#
# Youngs Moduli (GPa) = 68.98482 43.79488 131.51072
#
# Poissons Ratio (x) = 0.15126 0.21810
# Poissons Ratio (y) = 0.23826 0.77417
# Poissons Ratio (z) = 0.11441 0.25781
#
# Static dielectric constant tensor:
#      x y z
#    x 2.340220 0.000000 0.000000 
#    y 0.000000 1.755650 0.000000 
#    z 0.000000 0.000000 1.717710 
# 
# From -- ./inp_files/39383.got.cif
#   From: 2010.05.17/outbox.cif.g08.bks.cpg/sg68_20_cif.got.tgz:39383.got - 2010.06.03 18:57:09.
