data_PCOD9508843
_publ_section_title
;
Structure prediction by ZEFSAII (Michael W. Deem and Ramdas Pophale) SiO2 
 PCOD9508843
Probable space group: C C C A
;
_chemical_formula_sum "Si O2"
_cell_formula_units_Z 108
_cell_length_a 30.818510
_cell_length_b 11.027785
_cell_length_c 14.440652
_cell_angle_alpha 90.000000
_cell_angle_beta 90.000000
_cell_angle_gamma 90.000000
_cell_volume 4907.798578
_symmetry_space_group_name_H-M "C C C A"
_symmetry_group_IT_number 68
_space_group.IT_coordinate_system_code '2'
_symmetry_cell_setting 'orthorhombic'
loop_
_space_group_symop_operation_xyz
x,y,z
-x,1/2-y,z
x,1/2-y,1/2-z
-x,y,1/2-z
-x,-y,-z
x,1/2+y,-z
-x,1/2+y,1/2+z
x,-y,1/2+z
1/2+x,1/2+y,z
1/2-x,-y,z
1/2+x,-y,1/2-z
1/2-x,1/2+y,1/2-z
1/2-x,1/2-y,-z
1/2+x,y,-z
1/2-x,y,1/2+z
1/2+x,1/2-y,1/2+z
loop_
_atom_site_type_symbol
_atom_site_label
_atom_site_fract_x
_atom_site_fract_y
_atom_site_fract_z
Si Si1 0.634914 0.493871 0.697190
Si Si2 0.500000 0.750000 0.250000
Si Si3 0.622000 0.170511 0.157455
Si Si4 0.192620 0.822243 0.083140
Si Si5 0.470226 0.135713 0.425158
Si Si6 0.041654 0.957945 0.629138
Si Si7 0.732841 0.865810 0.117174
Si Si8 0.664502 0.750000 0.250000
O O1 0.635278 0.539244 0.803880
O O2 0.672756 0.563702 0.640243
O O3 0.586407 0.520658 0.660026
O O4 0.638669 0.349380 0.691965
O O5 0.470204 0.661900 0.312632
O O6 0.629455 0.250000 0.250000
O O7 0.652128 0.228454 0.078770
O O8 0.572499 0.172464 0.129103
O O9 0.230042 0.737762 0.127766
O O10 0.213129 0.863076 0.986516
O O11 0.500000 0.250000 0.449142
O O12 0.455362 0.073539 0.520438
O O13 0.500161 0.046065 0.365592
O O14 0.695155 0.828571 0.185355
O O15 0.750000 0.000000 0.136937
#
# Coordination Sequence:
#
# PCOD9508843 Si02
#       8
#    16   4  16  16  16  16  16   8
#     4  11  25  45  66 107 143 183 235 287 359 421
#     4  12  22  48  66  96 150 180 240 286 360 422
#     4  10  22  42  72 100 136 180 232 297 348 417
#     4  10  25  46  72  99 140 178 229 294 352 415
#     4  11  23  43  68 103 135 185 245 287 355 416
#     4  11  25  41  69 100 142 193 226 298 348 424
#     4  11  27  46  73 103 134 186 233 288 361 425
#     4  12  29  42  74 105 138 188 233 288 354 427
#
# _framework density 22.005793000000001
#
# number of rings (size 3 to 8) (size 9 to 14) (size 15 to 20)
#    0.000    1.185    0.741    4.000   11.407    2.667 
#    0.000    0.000    0.000    0.000    0.000    0.000 
#    0.000    0.000    0.000    0.000    0.000    0.000 
#
# Total GULP energy -301847.348918 kJ/mol
# GULP energy per Si atom -5589.765721 kJ/mol
# Density = 2.195571 g / cm^3
# Si number density = 22.005793 Si / 1000 Ang^3
#
#
#
# Elastic Constant Matrix: (Units=GPa)
#
#
# Indices 1 2 3 4 5 6 
#
# 1 101.4458 33.5251 3.4137 0.0000 0.0000 0.0000
# 2 33.5251 96.1562 12.9635 0.0000 0.0000 0.0000
# 3 3.4137 12.9635 23.0403 0.0000 0.0000 0.0000
# 4 0.0000 0.0000 0.0000 34.1730 0.0000 0.0000
# 5 0.0000 0.0000 0.0000 0.0000 -0.1407 0.0000
# 6 0.0000 0.0000 0.0000 0.0000 0.0000 45.7263
#
#
#
# Elastic Compliance Matrix: (Units=1/GPa)
#
#
# Indices 1 2 3 4 5 6 
#
# 1 0.011148 -0.003965 0.000579 0.000000 0.000000 0.000000
# 2 -0.003965 0.012664 -0.006538 0.000000 0.000000 0.000000
# 3 0.000579 -0.006538 0.046995 0.000000 0.000000 0.000000
# 4 0.000000 0.000000 0.000000 0.029263 0.000000 0.000000
# 5 0.000000 0.000000 0.000000 0.000000 -7.106516 0.000000
# 6 0.000000 0.000000 0.000000 0.000000 0.000000 0.021869
#
#
# Mechanical properties :
#
#
# Convention : Reuss Voigt Hill
#
# Bulk Modulus (GPa) = 19.62339 35.60521 27.61430
# Shear Modulus (GPa) = -0.71966 27.33437 13.30735
#
# Velocity S-wave (km/s) = -0.57249 3.52823 2.46177
# Velocity P-wave (km/s) = 2.91543 5.72826 4.54492
#
# Compressibility (1/GPa) = 0.05095960
#
# Stress axis : x y z
#
# Youngs Moduli (GPa) = 89.69967 78.96698 21.27901
#
# Poissons Ratio (x) = 0.31310 -0.01232
# Poissons Ratio (y) = 0.35566 0.13911
# Poissons Ratio (z) = -0.05195 0.51625
#
# Static dielectric constant tensor:
#      x y z
#    x 1.775190 0.000000 0.000000 
#    y 0.000000 1.906810 0.000000 
#    z 0.000000 0.000000 1.802500 
# 
# From -- ./inp_files/26449.got.cif
#   From: 2010.05.17/outbox.cif.g08.bks.cpg/sg68_14_cif.got.tgz:26449.got - 2010.06.03 18:57:09.
