data_PCOD9508835
_publ_section_title
;
Structure prediction by ZEFSAII (Michael W. Deem and Ramdas Pophale) SiO2 
 PCOD9508835
Probable space group: C C C A
;
_chemical_formula_sum "Si O2"
_cell_formula_units_Z 92
_cell_length_a 8.317861
_cell_length_b 19.493271
_cell_length_c 23.897894
_cell_angle_alpha 90.000000
_cell_angle_beta 90.000000
_cell_angle_gamma 90.000000
_cell_volume 3874.859943
_symmetry_space_group_name_H-M "C C C A"
_symmetry_group_IT_number 68
_space_group.IT_coordinate_system_code '2'
_symmetry_cell_setting 'orthorhombic'
loop_
_space_group_symop_operation_xyz
x,y,z
-x,1/2-y,z
x,1/2-y,1/2-z
-x,y,1/2-z
-x,-y,-z
x,1/2+y,-z
-x,1/2+y,1/2+z
x,-y,1/2+z
1/2+x,1/2+y,z
1/2-x,-y,z
1/2+x,-y,1/2-z
1/2-x,1/2+y,1/2-z
1/2-x,1/2-y,-z
1/2+x,y,-z
1/2-x,y,1/2+z
1/2+x,1/2-y,1/2+z
loop_
_atom_site_type_symbol
_atom_site_label
_atom_site_fract_x
_atom_site_fract_y
_atom_site_fract_z
Si Si1 0.500000 0.750000 0.750000
Si Si2 0.750000 0.000000 0.952849
Si Si3 0.250000 0.000000 0.777489
Si Si4 0.750000 0.250000 0.000000
Si Si5 0.233028 0.612470 0.547716
Si Si6 0.969029 0.467810 0.873042
Si Si7 0.195283 0.627547 0.305415
Si Si8 0.576810 0.180330 0.895836
O O1 0.381666 0.802431 0.717535
O O2 0.906579 0.994147 0.913832
O O3 0.780111 0.065362 0.992562
O O4 0.227103 0.068601 0.740950
O O5 0.099893 0.991903 0.819830
O O6 0.677094 0.183522 0.034254
O O7 0.795862 0.290673 0.058777
O O8 0.326487 0.566078 0.591542
O O9 0.062123 0.639643 0.570437
O O10 0.065935 0.405314 0.846796
O O11 0.347563 0.640816 0.344422
O O12 0.500000 0.250000 0.872385
#
# Coordination Sequence:
#
# PCOD9508835 Si02
#       8
#     4   8   8   8  16  16  16  16
#     4  12  28  56  82 120 156 222 282 364 408 498
#     4  12  26  48  74 114 160 218 264 336 420 516
#     4  12  28  54  74 116 148 216 278 358 406 502
#     4  10  22  42  70 110 160 198 262 318 410 496
#     4  11  25  46  73 115 159 205 266 337 414 516
#     4  12  27  48  79 111 156 211 271 346 413 503
#     4  12  28  52  83 113 161 214 282 344 426 491
#     4  10  25  48  78 117 156 213 264 337 412 506
#
# _framework density 23.742792999999999
#
# number of rings (size 3 to 8) (size 9 to 14) (size 15 to 20)
#    0.000    0.696    1.739    3.652    4.870   11.130 
#    0.000    5.652    0.000    0.000    0.000    0.000 
#    0.000    0.000    0.000    0.000    0.000    0.000 
#
# Total GULP energy -256426.428883 kJ/mol
# GULP energy per Si atom -5574.487584 kJ/mol
# Density = 2.368875 g / cm^3
# Si number density = 23.742793 Si / 1000 Ang^3
#
#
#
# Elastic Constant Matrix: (Units=GPa)
#
#
# Indices 1 2 3 4 5 6 
#
# 1 76.6704 68.2382 67.1685 0.0000 0.0000 0.0000
# 2 68.2382 174.4943 82.9188 0.0000 0.0000 0.0000
# 3 67.1685 82.9188 158.7911 0.0000 0.0000 0.0000
# 4 0.0000 0.0000 0.0000 -76.6970 0.0000 0.0000
# 5 0.0000 0.0000 0.0000 0.0000 -18.3140 0.0000
# 6 0.0000 0.0000 0.0000 0.0000 0.0000 46.4396
#
#
#
# Elastic Compliance Matrix: (Units=1/GPa)
#
#
# Indices 1 2 3 4 5 6 
#
# 1 0.025078 -0.006339 -0.007298 0.000000 0.000000 0.000000
# 2 -0.006339 0.009225 -0.002135 0.000000 0.000000 0.000000
# 3 -0.007298 -0.002135 0.010500 0.000000 0.000000 0.000000
# 4 0.000000 0.000000 0.000000 -0.013038 0.000000 0.000000
# 5 0.000000 0.000000 0.000000 0.000000 -0.054603 0.000000
# 6 0.000000 0.000000 0.000000 0.000000 0.000000 0.021533
#
#
# Mechanical properties :
#
#
# Convention : Reuss Voigt Hill
#
# Bulk Modulus (GPa) = 75.42914 94.06743 84.74828
# Shear Modulus (GPa) = 144.26195 3.06106 73.66151
#
# Velocity S-wave (km/s) = 7.80335 1.13669 5.57603
# Velocity P-wave (km/s) = 10.63146 6.43647 8.78795
#
# Compressibility (1/GPa) = 0.01325748
#
# Stress axis : x y z
#
# Youngs Moduli (GPa) = 39.87500 108.40464 95.24094
#
# Poissons Ratio (x) = 0.68721 0.69505
# Poissons Ratio (y) = 0.25278 0.20339
# Poissons Ratio (z) = 0.29100 0.23150
#
# Static dielectric constant tensor:
#      x y z
#    x 1.880420 0.000000 0.000000 
#    y 0.000000 1.946700 0.000000 
#    z 0.000000 0.000000 1.873570 
# 
# From -- ./inp_files/43213.got.cif
#   From: 2010.05.17/outbox.cif.g08.bks.cpg/sg68_22_cif.got.tgz:43213.got - 2010.06.03 18:57:09.
