data_PCOD9508259
_publ_section_title
;
Structure prediction by ZEFSAII (Michael W. Deem and Ramdas Pophale) SiO2 
 PCOD9508259
Probable space group: C C C A
;
_chemical_formula_sum "Si O2"
_cell_formula_units_Z 68
_cell_length_a 25.312511
_cell_length_b 11.781752
_cell_length_c 9.334956
_cell_angle_alpha 90.000000
_cell_angle_beta 90.000000
_cell_angle_gamma 90.000000
_cell_volume 2783.924041
_symmetry_space_group_name_H-M "C C C A"
_symmetry_group_IT_number 68
_space_group.IT_coordinate_system_code '2'
_symmetry_cell_setting 'orthorhombic'
loop_
_space_group_symop_operation_xyz
x,y,z
-x,1/2-y,z
x,1/2-y,1/2-z
-x,y,1/2-z
-x,-y,-z
x,1/2+y,-z
-x,1/2+y,1/2+z
x,-y,1/2+z
1/2+x,1/2+y,z
1/2-x,-y,z
1/2+x,-y,1/2-z
1/2-x,1/2+y,1/2-z
1/2-x,1/2-y,-z
1/2+x,y,-z
1/2-x,y,1/2+z
1/2+x,1/2-y,1/2+z
loop_
_atom_site_type_symbol
_atom_site_label
_atom_site_fract_x
_atom_site_fract_y
_atom_site_fract_z
Si Si1 0.176152 0.750000 0.750000
Si Si2 0.179995 0.250000 0.750000
Si Si3 0.917602 0.090935 0.791422
Si Si4 0.000000 0.750000 0.250000
Si Si5 0.109642 0.579686 0.581370
Si Si6 0.796378 0.908618 0.996198
O O1 0.141743 0.690284 0.626234
O O2 0.203739 0.851716 0.661194
O O3 0.139876 0.349359 0.799038
O O4 0.209072 0.189981 0.883071
O O5 0.956592 0.162195 0.689955
O O6 0.914362 0.967537 0.727536
O O7 0.933027 0.096452 0.957108
O O8 0.149706 0.479299 0.527655
O O9 0.750000 0.000000 0.007578
#
# Coordination Sequence:
#
# PCOD9508259 Si02
#       6
#     8   8  16   4  16  16
#     4  12  24  45  69  99 137 191 234 296 342 407
#     4   9  20  44  70  94 139 189 226 295 354 408
#     4  10  21  43  70 103 138 180 232 278 364 415
#     4  10  24  40  74 108 140 176 224 304 344 428
#     4  11  23  43  70  99 140 187 230 284 349 426
#     4  11  25  44  69 102 136 187 247 291 344 413
#
# _framework density 24.425954000000001
#
# number of rings (size 3 to 8) (size 9 to 14) (size 15 to 20)
#    0.000    1.412    4.706    0.000    0.000    3.765 
#    0.000    2.353    0.000    1.412    0.000    0.000 
#    0.000    0.000    0.000    0.000    0.000    0.000 
#
# Total GULP energy -189752.199719 kJ/mol
# GULP energy per Si atom -5580.947051 kJ/mol
# Density = 2.437036 g / cm^3
# Si number density = 24.425954 Si / 1000 Ang^3
#
#
#
# Elastic Constant Matrix: (Units=GPa)
#
#
# Indices 1 2 3 4 5 6 
#
# 1 61.5224 21.5638 26.1860 0.0000 0.0000 0.0000
# 2 21.5638 91.8893 35.7774 0.0000 0.0000 0.0000
# 3 26.1860 35.7774 146.8736 0.0000 0.0000 0.0000
# 4 0.0000 0.0000 0.0000 55.0841 0.0000 0.0000
# 5 0.0000 0.0000 0.0000 0.0000 14.1668 0.0000
# 6 0.0000 0.0000 0.0000 0.0000 0.0000 15.1222
#
#
#
# Elastic Compliance Matrix: (Units=1/GPa)
#
#
# Indices 1 2 3 4 5 6 
#
# 1 0.018491 -0.003376 -0.002474 0.000000 0.000000 0.000000
# 2 -0.003376 0.012639 -0.002477 0.000000 0.000000 0.000000
# 3 -0.002474 -0.002477 0.007853 0.000000 0.000000 0.000000
# 4 0.000000 0.000000 0.000000 0.018154 0.000000 0.000000
# 5 0.000000 0.000000 0.000000 0.000000 0.070587 0.000000
# 6 0.000000 0.000000 0.000000 0.000000 0.000000 0.066128
#
#
# Mechanical properties :
#
#
# Convention : Reuss Voigt Hill
#
# Bulk Modulus (GPa) = 44.78535 51.92662 48.35598
# Shear Modulus (GPa) = 22.94108 31.32517 27.13312
#
# Velocity S-wave (km/s) = 3.06798 3.58502 3.33653
# Velocity P-wave (km/s) = 5.56102 6.20012 5.88924
#
# Compressibility (1/GPa) = 0.02232873
#
# Stress axis : x y z
#
# Youngs Moduli (GPa) = 54.08134 79.11835 127.33828
#
# Poissons Ratio (x) = 0.26709 0.31508
# Poissons Ratio (y) = 0.18257 0.31541
# Poissons Ratio (z) = 0.13382 0.19597
#
# Static dielectric constant tensor:
#      x y z
#    x 2.006760 0.000000 0.000000 
#    y 0.000000 1.928440 0.000000 
#    z 0.000000 0.000000 2.063120 
# 
# From -- ./inp_files/8623.got.cif
#   From: 2010.05.17/outbox.cif.g08.bks.cpg/sg68_5_cif.got.tgz:8623.got - 2010.06.03 18:57:09.
