data_PCOD9508751
_publ_section_title
;
Structure prediction by ZEFSAII (Michael W. Deem and Ramdas Pophale) SiO2 
 PCOD9508751
Probable space group: C C C A
;
_chemical_formula_sum "Si O2"
_cell_formula_units_Z 80
_cell_length_a 22.936279
_cell_length_b 12.977360
_cell_length_c 11.863894
_cell_angle_alpha 90.000000
_cell_angle_beta 90.000000
_cell_angle_gamma 90.000000
_cell_volume 3531.315925
_symmetry_space_group_name_H-M "C C C A"
_symmetry_group_IT_number 68
_space_group.IT_coordinate_system_code '2'
_symmetry_cell_setting 'orthorhombic'
loop_
_space_group_symop_operation_xyz
x,y,z
-x,1/2-y,z
x,1/2-y,1/2-z
-x,y,1/2-z
-x,-y,-z
x,1/2+y,-z
-x,1/2+y,1/2+z
x,-y,1/2+z
1/2+x,1/2+y,z
1/2-x,-y,z
1/2+x,-y,1/2-z
1/2-x,1/2+y,1/2-z
1/2-x,1/2-y,-z
1/2+x,y,-z
1/2-x,y,1/2+z
1/2+x,1/2-y,1/2+z
loop_
_atom_site_type_symbol
_atom_site_label
_atom_site_fract_x
_atom_site_fract_y
_atom_site_fract_z
Si Si1 0.250000 0.000000 0.315763
Si Si2 0.911322 0.601062 0.592603
Si Si3 0.805254 0.303761 0.942465
Si Si4 0.500000 0.250000 0.017681
Si Si5 0.886135 0.362170 0.559330
Si Si6 0.651977 0.143188 0.704245
O O1 0.221182 0.904550 0.382977
O O2 0.304038 0.945881 0.256368
O O3 0.856950 0.652040 0.523233
O O4 0.969837 0.654836 0.548538
O O5 0.901559 0.479640 0.583814
O O6 0.905748 0.630467 0.723030
O O7 0.836399 0.206447 0.879940
O O8 0.750000 0.250000 0.000000
O O9 0.554351 0.300265 0.080040
O O10 0.863823 0.362213 0.427379
O O11 0.678461 0.250000 0.750000
#
# Coordination Sequence:
#
# PCOD9508751 Si02
#       6
#     8  16  16   8  16  16
#     4  12  24  38  64 100 136 174 216 268 326 412
#     4  11  23  40  65  95 126 173 215 271 329 386
#     4  11  19  38  64  87 132 169 205 262 323 388
#     4  10  22  41  70  91 128 162 228 273 328 387
#     4  11  23  41  66  94 130 168 219 268 335 389
#     4  12  23  41  63  96 128 170 217 260 326 397
#
# _framework density 22.654443000000001
#
# number of rings (size 3 to 8) (size 9 to 14) (size 15 to 20)
#    0.000    0.800    8.000    0.600    0.000    5.600 
#    0.000    0.000    0.000    1.200    0.000    0.000 
#    0.000    0.000    0.000    0.000    0.000    0.000 
#
# Total GULP energy -222966.538971 kJ/mol
# GULP energy per Si atom -5574.163474 kJ/mol
# Density = 2.260288 g / cm^3
# Si number density = 22.654443 Si / 1000 Ang^3
#
#
#
# Elastic Constant Matrix: (Units=GPa)
#
#
# Indices 1 2 3 4 5 6 
#
# 1 128.4784 44.9311 -10.9447 0.0000 0.0000 0.0000
# 2 44.9311 219.8288 3.1529 0.0000 0.0000 0.0000
# 3 -10.9447 3.1529 25.4610 0.0000 0.0000 0.0000
# 4 0.0000 0.0000 0.0000 23.8674 0.0000 0.0000
# 5 0.0000 0.0000 0.0000 0.0000 15.8068 0.0000
# 6 0.0000 0.0000 0.0000 0.0000 0.0000 50.7836
#
#
#
# Elastic Compliance Matrix: (Units=1/GPa)
#
#
# Indices 1 2 3 4 5 6 
#
# 1 0.008771 -0.001850 0.003999 0.000000 0.000000 0.000000
# 2 -0.001850 0.004947 -0.001408 0.000000 0.000000 0.000000
# 3 0.003999 -0.001408 0.041169 0.000000 0.000000 0.000000
# 4 0.000000 0.000000 0.000000 0.041898 0.000000 0.000000
# 5 0.000000 0.000000 0.000000 0.000000 0.063264 0.000000
# 6 0.000000 0.000000 0.000000 0.000000 0.000000 0.019691
#
#
# Mechanical properties :
#
#
# Convention : Reuss Voigt Hill
#
# Bulk Modulus (GPa) = 17.73971 49.78297 33.76134
# Shear Modulus (GPa) = 25.37442 40.53348 32.95395
#
# Velocity S-wave (km/s) = 3.35037 4.23449 3.81811
# Velocity P-wave (km/s) = 4.77642 6.77721 5.86279
#
# Compressibility (1/GPa) = 0.05637071
#
# Stress axis : x y z
#
# Youngs Moduli (GPa) = 114.01040 202.12914 24.28991
#
# Poissons Ratio (x) = 0.37396 -0.09715
# Poissons Ratio (y) = 0.21093 0.03420
# Poissons Ratio (z) = -0.45598 0.28458
#
# Static dielectric constant tensor:
#      x y z
#    x 1.836070 0.000000 0.000000 
#    y 0.000000 1.920150 0.000000 
#    z 0.000000 0.000000 1.884700 
# 
# From -- ./inp_files/25207.got.cif
#   From: 2010.05.17/outbox.cif.g08.bks.cpg/sg68_13_cif.got.tgz:25207.got - 2010.06.03 18:57:09.
