data_PCOD9508256
_publ_section_title
;
Structure prediction by ZEFSAII (Michael W. Deem and Ramdas Pophale) SiO2 
 PCOD9508256
Probable space group: C C C A
;
_chemical_formula_sum "Si O2"
_cell_formula_units_Z 76
_cell_length_a 8.065064
_cell_length_b 25.947535
_cell_length_c 16.224104
_cell_angle_alpha 90.000000
_cell_angle_beta 90.000000
_cell_angle_gamma 90.000000
_cell_volume 3395.194401
_symmetry_space_group_name_H-M "C C C A"
_symmetry_group_IT_number 68
_space_group.IT_coordinate_system_code '2'
_symmetry_cell_setting 'orthorhombic'
loop_
_space_group_symop_operation_xyz
x,y,z
-x,1/2-y,z
x,1/2-y,1/2-z
-x,y,1/2-z
-x,-y,-z
x,1/2+y,-z
-x,1/2+y,1/2+z
x,-y,1/2+z
1/2+x,1/2+y,z
1/2-x,-y,z
1/2+x,-y,1/2-z
1/2-x,1/2+y,1/2-z
1/2-x,1/2-y,-z
1/2+x,y,-z
1/2-x,y,1/2+z
1/2+x,1/2-y,1/2+z
loop_
_atom_site_type_symbol
_atom_site_label
_atom_site_fract_x
_atom_site_fract_y
_atom_site_fract_z
Si Si1 0.000000 0.750000 0.530492
Si Si2 0.707516 0.438688 0.889679
Si Si3 0.808172 0.302004 0.603223
Si Si4 0.137321 0.097526 0.033899
Si Si5 0.500000 0.250000 0.250000
Si Si6 0.750000 0.000000 0.377193
Si Si7 0.000000 0.463424 0.250000
O O1 0.949434 0.795529 0.467384
O O2 0.837582 0.739252 0.583561
O O3 0.750000 0.500000 0.897224
O O4 0.545071 0.417183 0.936473
O O5 0.647899 0.432369 0.794775
O O6 0.848087 0.405082 0.934652
O O7 0.712830 0.354631 0.583300
O O8 0.890097 0.286452 0.689676
O O9 0.244739 0.049180 0.065649
O O10 0.589304 0.997072 0.319218
#
# Coordination Sequence:
#
# PCOD9508256 Si02
#       7
#     8  16  16  16   4   8   8
#     4   9  20  42  68  93 134 176 228 293 334 424
#     4  11  22  40  61  91 132 178 219 273 321 393
#     4  10  21  43  69 100 134 177 230 281 358 408
#     4  11  23  37  64  96 125 178 226 259 334 413
#     4  10  24  44  72 106 140 176 220 308 352 408
#     4  10  22  36  54  88 130 170 210 266 318 394
#     4  10  22  37  56  80 128 182 204 269 330 358
#
# _framework density 22.384581000000001
#
# number of rings (size 3 to 8) (size 9 to 14) (size 15 to 20)
#    0.000    1.684    2.105    1.895    2.947    1.263 
#    0.000   23.158    0.000    0.000    0.000    0.000 
#    0.000    0.000    0.000    0.000    0.000    0.000 
#
# Total GULP energy -211833.010578 kJ/mol
# GULP energy per Si atom -5574.552910 kJ/mol
# Density = 2.233363 g / cm^3
# Si number density = 22.384581 Si / 1000 Ang^3
#
#
#
# Elastic Constant Matrix: (Units=GPa)
#
#
# Indices 1 2 3 4 5 6 
#
# 1 88.9631 15.5400 32.5278 0.0000 0.0000 0.0000
# 2 15.5400 81.3307 17.0837 0.0000 0.0000 0.0000
# 3 32.5278 17.0837 92.4447 0.0000 0.0000 0.0000
# 4 0.0000 0.0000 0.0000 10.5208 0.0000 0.0000
# 5 0.0000 0.0000 0.0000 0.0000 -30.9229 0.0000
# 6 0.0000 0.0000 0.0000 0.0000 0.0000 37.3236
#
#
#
# Elastic Compliance Matrix: (Units=1/GPa)
#
#
# Indices 1 2 3 4 5 6 
#
# 1 0.013097 -0.001596 -0.004313 0.000000 0.000000 0.000000
# 2 -0.001596 0.012987 -0.001838 0.000000 0.000000 0.000000
# 3 -0.004313 -0.001838 0.012675 0.000000 0.000000 0.000000
# 4 0.000000 0.000000 0.000000 0.095050 0.000000 0.000000
# 5 0.000000 0.000000 0.000000 0.000000 -0.032339 0.000000
# 6 0.000000 0.000000 0.000000 0.000000 0.000000 0.026793
#
#
# Mechanical properties :
#
#
# Convention : Reuss Voigt Hill
#
# Bulk Modulus (GPa) = 42.98812 43.67129 43.32971
# Shear Modulus (GPa) = 33.00087 16.55676 24.77882
#
# Velocity S-wave (km/s) = 3.84379 2.72260 3.33071
# Velocity P-wave (km/s) = 6.24064 5.42543 5.84726
#
# Compressibility (1/GPa) = 0.02326224
#
# Stress axis : x y z
#
# Youngs Moduli (GPa) = 76.35624 77.00229 78.89783
#
# Poissons Ratio (x) = 0.12293 0.34030
# Poissons Ratio (y) = 0.12189 0.14503
# Poissons Ratio (z) = 0.32934 0.14155
#
# Static dielectric constant tensor:
#      x y z
#    x 1.899980 0.000000 0.000000 
#    y 0.000000 1.869890 0.000000 
#    z 0.000000 0.000000 1.898260 
# 
# From -- ./inp_files/28396.got.cif
#   From: 2010.05.17/outbox.cif.g08.bks.cpg/sg68_15_cif.got.tgz:28396.got - 2010.06.03 18:57:09.
