data_PCOD9508551
_publ_section_title
;
Structure prediction by ZEFSAII (Michael W. Deem and Ramdas Pophale) SiO2 
 PCOD9508551
Probable space group: C C C A
;
_chemical_formula_sum "Si O2"
_cell_formula_units_Z 108
_cell_length_a 22.816082
_cell_length_b 12.850981
_cell_length_c 18.139722
_cell_angle_alpha 90.000000
_cell_angle_beta 90.000000
_cell_angle_gamma 90.000000
_cell_volume 5318.730406
_symmetry_space_group_name_H-M "C C C A"
_symmetry_group_IT_number 68
_space_group.IT_coordinate_system_code '2'
_symmetry_cell_setting 'orthorhombic'
loop_
_space_group_symop_operation_xyz
x,y,z
-x,1/2-y,z
x,1/2-y,1/2-z
-x,y,1/2-z
-x,-y,-z
x,1/2+y,-z
-x,1/2+y,1/2+z
x,-y,1/2+z
1/2+x,1/2+y,z
1/2-x,-y,z
1/2+x,-y,1/2-z
1/2-x,1/2+y,1/2-z
1/2-x,1/2-y,-z
1/2+x,y,-z
1/2-x,y,1/2+z
1/2+x,1/2-y,1/2+z
loop_
_atom_site_type_symbol
_atom_site_label
_atom_site_fract_x
_atom_site_fract_y
_atom_site_fract_z
Si Si1 0.033890 0.052426 0.842949
Si Si2 0.709090 0.270133 0.429236
Si Si3 0.183022 0.959451 0.105115
Si Si4 0.000000 0.750000 0.250000
Si Si5 0.790949 0.911937 0.669306
Si Si6 0.083111 0.948407 0.698286
Si Si7 0.366655 0.961783 0.952039
Si Si8 0.624183 0.750000 0.250000
O O1 0.068515 0.042532 0.918825
O O2 0.032151 0.167985 0.805466
O O3 0.067667 0.983771 0.781364
O O4 0.968916 0.004152 0.847050
O O5 0.750000 0.250000 0.500000
O O6 0.687200 0.164200 0.393771
O O7 0.746848 0.333785 0.370900
O O8 0.656618 0.344117 0.453546
O O9 0.250000 0.000000 0.101111
O O10 0.144768 0.006528 0.170802
O O11 0.148000 0.991009 0.031113
O O12 0.834139 0.836567 0.713446
O O13 0.750000 0.000000 0.707913
O O14 0.827330 0.973248 0.606478
O O15 0.085523 0.822861 0.696290
#
# Coordination Sequence:
#
# PCOD9508551 Si02
#       8
#    16  16  16   4  16  16  16   8
#     4  10  23  47  65  95 128 174 226 275 338 390
#     4  11  21  38  63  91 133 183 206 265 344 397
#     4  12  23  41  66 100 136 168 224 274 329 407
#     4   8  20  40  70  82 124 166 224 278 324 388
#     4  10  22  40  58  95 135 174 216 270 331 401
#     4  10  25  42  68  95 131 175 226 280 323 403
#     4  11  22  41  67  92 135 169 218 274 331 398
#     4  12  22  41  69  92 130 177 229 272 348 392
#
# _framework density 20.305598
#
# number of rings (size 3 to 8) (size 9 to 14) (size 15 to 20)
#    0.000    1.481    4.444    1.333    4.148    3.556 
#    0.000    0.000    0.000    0.000    0.000    0.000 
#    0.000    0.000    0.000    0.000    0.000    0.000 
#
# Total GULP energy -301328.535358 kJ/mol
# GULP energy per Si atom -5580.158062 kJ/mol
# Density = 2.025938 g / cm^3
# Si number density = 20.305598 Si / 1000 Ang^3
#
#
#
# Elastic Constant Matrix: (Units=GPa)
#
#
# Indices 1 2 3 4 5 6 
#
# 1 107.4598 49.0312 41.3477 0.0000 0.0000 0.0000
# 2 49.0312 163.9539 19.5576 0.0000 0.0000 0.0000
# 3 41.3477 19.5576 37.1757 0.0000 0.0000 0.0000
# 4 0.0000 0.0000 0.0000 26.1431 0.0000 0.0000
# 5 0.0000 0.0000 0.0000 0.0000 44.4796 0.0000
# 6 0.0000 0.0000 0.0000 0.0000 0.0000 34.7922
#
#
#
# Elastic Compliance Matrix: (Units=1/GPa)
#
#
# Indices 1 2 3 4 5 6 
#
# 1 0.017659 -0.003135 -0.017991 0.000000 0.000000 0.000000
# 2 -0.003135 0.007064 -0.000230 0.000000 0.000000 0.000000
# 3 -0.017991 -0.000230 0.047031 0.000000 0.000000 0.000000
# 4 0.000000 0.000000 0.000000 0.038251 0.000000 0.000000
# 5 0.000000 0.000000 0.000000 0.000000 0.022482 0.000000
# 6 0.000000 0.000000 0.000000 0.000000 0.000000 0.028742
#
#
# Mechanical properties :
#
#
# Convention : Reuss Voigt Hill
#
# Bulk Modulus (GPa) = 34.43321 58.71805 46.57563
# Shear Modulus (GPa) = 23.40594 34.32650 28.86622
#
# Velocity S-wave (km/s) = 3.39880 4.11602 3.77449
# Velocity P-wave (km/s) = 5.69182 7.18114 6.47941
#
# Compressibility (1/GPa) = 0.02904173
#
# Stress axis : x y z
#
# Youngs Moduli (GPa) = 56.62928 141.55969 21.26277
#
# Poissons Ratio (x) = 0.44376 0.38254
# Poissons Ratio (y) = 0.17752 0.00489
# Poissons Ratio (z) = 1.01883 0.03253
#
# Static dielectric constant tensor:
#      x y z
#    x 1.765000 0.000000 0.000000 
#    y 0.000000 1.707240 0.000000 
#    z 0.000000 0.000000 1.765370 
# 
# From -- ./inp_files/40920.got.cif
#   From: 2010.05.17/outbox.cif.g08.bks.cpg/sg68_21_cif.got.tgz:40920.got - 2010.06.03 18:57:09.
