data_PCOD9508084
_publ_section_title
;
Structure prediction by ZEFSAII (Michael W. Deem and Ramdas Pophale) SiO2 
 PCOD9508084
Probable space group: C C C A
;
_chemical_formula_sum "Si O2"
_cell_formula_units_Z 88
_cell_length_a 29.971626
_cell_length_b 11.332190
_cell_length_c 11.624582
_cell_angle_alpha 90.000000
_cell_angle_beta 90.000000
_cell_angle_gamma 90.000000
_cell_volume 3948.221394
_symmetry_space_group_name_H-M "C C C A"
_symmetry_group_IT_number 68
_space_group.IT_coordinate_system_code '2'
_symmetry_cell_setting 'orthorhombic'
loop_
_space_group_symop_operation_xyz
x,y,z
-x,1/2-y,z
x,1/2-y,1/2-z
-x,y,1/2-z
-x,-y,-z
x,1/2+y,-z
-x,1/2+y,1/2+z
x,-y,1/2+z
1/2+x,1/2+y,z
1/2-x,-y,z
1/2+x,-y,1/2-z
1/2-x,1/2+y,1/2-z
1/2-x,1/2-y,-z
1/2+x,y,-z
1/2-x,y,1/2+z
1/2+x,1/2-y,1/2+z
loop_
_atom_site_type_symbol
_atom_site_label
_atom_site_fract_x
_atom_site_fract_y
_atom_site_fract_z
Si Si1 0.078020 0.085614 0.129005
Si Si2 0.665293 0.908590 0.232753
Si Si3 0.205738 0.716718 0.930529
Si Si4 0.000000 0.750000 0.940357
Si Si5 0.061298 0.323076 0.856508
Si Si6 0.868732 0.626395 0.405856
O O1 0.120078 0.132878 0.201352
O O2 0.034579 0.167926 0.127636
O O3 0.066509 0.957783 0.177566
O O4 0.096068 0.068900 0.997183
O O5 0.681461 0.832111 0.123857
O O6 0.704614 0.878868 0.325167
O O7 0.650221 0.037993 0.190784
O O8 0.250000 0.750000 0.000000
O O9 0.174311 0.658967 0.023416
O O10 0.968237 0.678829 0.028637
O O11 0.042707 0.250000 0.750000
O O12 0.106941 0.249952 0.877100
#
# Coordination Sequence:
#
# PCOD9508084 Si02
#       6
#    16  16  16   8  16  16
#     4  10  21  40  70 101 141 192 240 293 354 436
#     4  10  21  44  70  97 138 188 231 285 366 441
#     4  10  23  44  67  99 135 176 229 300 353 436
#     4  10  23  38  66 105 144 184 238 300 350 422
#     4  11  20  38  64 101 141 185 231 293 356 420
#     4  10  21  40  69  96 138 184 235 286 361 432
#
# _framework density 22.288516000000001
#
# number of rings (size 3 to 8) (size 9 to 14) (size 15 to 20)
#    0.000    1.818    1.818    1.909    0.000    2.182 
#    3.273    7.273    4.000    4.364    0.000    0.000 
#    0.000    0.000    0.000    0.000    0.000    0.000 
#
# Total GULP energy -245217.599900 kJ/mol
# GULP energy per Si atom -5573.127270 kJ/mol
# Density = 2.223779 g / cm^3
# Si number density = 22.288516 Si / 1000 Ang^3
#
#
#
# Elastic Constant Matrix: (Units=GPa)
#
#
# Indices 1 2 3 4 5 6 
#
# 1 91.4504 78.5677 52.2217 0.0000 0.0000 0.0000
# 2 78.5677 100.7796 49.0098 0.0000 0.0000 0.0000
# 3 52.2217 49.0098 85.3220 0.0000 0.0000 0.0000
# 4 0.0000 0.0000 0.0000 41.5109 0.0000 0.0000
# 5 0.0000 0.0000 0.0000 0.0000 38.8796 0.0000
# 6 0.0000 0.0000 0.0000 0.0000 0.0000 28.9491
#
#
#
# Elastic Compliance Matrix: (Units=1/GPa)
#
#
# Indices 1 2 3 4 5 6 
#
# 1 0.037030 -0.024764 -0.008439 0.000000 0.000000 0.000000
# 2 -0.024764 0.030330 -0.002265 0.000000 0.000000 0.000000
# 3 -0.008439 -0.002265 0.018187 0.000000 0.000000 0.000000
# 4 0.000000 0.000000 0.000000 0.024090 0.000000 0.000000
# 5 0.000000 0.000000 0.000000 0.000000 0.025720 0.000000
# 6 0.000000 0.000000 0.000000 0.000000 0.000000 0.034543
#
#
# Mechanical properties :
#
#
# Convention : Reuss Voigt Hill
#
# Bulk Modulus (GPa) = 68.44839 70.79448 69.62144
# Shear Modulus (GPa) = 20.34935 28.38478 24.36707
#
# Velocity S-wave (km/s) = 3.02486 3.57251 3.31003
# Velocity P-wave (km/s) = 6.55565 6.98919 6.77589
#
# Compressibility (1/GPa) = 0.01460955
#
# Stress axis : x y z
#
# Youngs Moduli (GPa) = 27.00521 32.97028 54.98523
#
# Poissons Ratio (x) = 0.81649 0.46405
# Poissons Ratio (y) = 0.66877 0.12454
# Poissons Ratio (z) = 0.22791 0.07467
#
# Static dielectric constant tensor:
#      x y z
#    x 1.841210 0.000000 0.000000 
#    y 0.000000 1.829950 0.000000 
#    z 0.000000 0.000000 1.839570 
# 
# From -- ./inp_files/17640.got.cif
#   From: 2010.05.17/outbox.cif.g08.bks.cpg/sg68_9_cif.got.tgz:17640.got - 2010.06.03 18:57:09.
