data_PCOD9508687
_publ_section_title
;
Structure prediction by ZEFSAII (Michael W. Deem and Ramdas Pophale) SiO2 
 PCOD9508687
Probable space group: C C C A
;
_chemical_formula_sum "Si O2"
_cell_formula_units_Z 80
_cell_length_a 8.000669
_cell_length_b 16.797178
_cell_length_c 26.065119
_cell_angle_alpha 90.000000
_cell_angle_beta 90.000000
_cell_angle_gamma 90.000000
_cell_volume 3502.856449
_symmetry_space_group_name_H-M "C C C A"
_symmetry_group_IT_number 68
_space_group.IT_coordinate_system_code '2'
_symmetry_cell_setting 'orthorhombic'
loop_
_space_group_symop_operation_xyz
x,y,z
-x,1/2-y,z
x,1/2-y,1/2-z
-x,y,1/2-z
-x,-y,-z
x,1/2+y,-z
-x,1/2+y,1/2+z
x,-y,1/2+z
1/2+x,1/2+y,z
1/2-x,-y,z
1/2+x,-y,1/2-z
1/2-x,1/2+y,1/2-z
1/2-x,1/2-y,-z
1/2+x,y,-z
1/2-x,y,1/2+z
1/2+x,1/2-y,1/2+z
loop_
_atom_site_type_symbol
_atom_site_label
_atom_site_fract_x
_atom_site_fract_y
_atom_site_fract_z
Si Si1 0.250000 0.500000 0.870061
Si Si2 0.565482 0.961049 0.193607
Si Si3 0.000000 0.750000 0.100132
Si Si4 0.500000 0.250000 0.539321
Si Si5 0.773418 0.642631 0.887179
Si Si6 0.775509 0.375050 0.541618
Si Si7 0.250000 0.500000 0.540863
O O1 0.415769 0.509033 0.835136
O O2 0.279251 0.426228 0.908875
O O3 0.500000 0.941657 0.250000
O O4 0.604540 0.887380 0.156626
O O5 0.750000 0.000000 0.197747
O O6 0.872124 0.801089 0.132938
O O7 0.906408 0.687969 0.063178
O O8 0.377673 0.303852 0.573642
O O9 0.627921 0.319229 0.519016
O O10 0.693439 0.567484 0.918343
O O11 0.839825 0.440780 0.500311
#
# Coordination Sequence:
#
# PCOD9508687 Si02
#       7
#     8  16   8   8  16  16   8
#     4  11  22  45  72 106 142 189 240 293 354 428
#     4  12  24  44  76 110 140 180 240 307 368 424
#     4  10  24  43  68  95 145 187 237 286 359 418
#     4  10  22  41  63  88 147 185 225 278 355 408
#     4  11  24  44  66  99 136 183 234 291 350 426
#     4  10  23  41  66 100 141 191 232 290 349 425
#     4  11  26  39  68 102 140 185 242 289 346 426
#
# _framework density 22.838504
#
# number of rings (size 3 to 8) (size 9 to 14) (size 15 to 20)
#    0.000    1.200    4.000    1.200    0.000    8.000 
#    0.000    0.500    0.000    1.200    0.000    0.000 
#    0.000    0.000    0.000    0.000    0.000    0.000 
#
# Total GULP energy -223080.631526 kJ/mol
# GULP energy per Si atom -5577.015788 kJ/mol
# Density = 2.278652 g / cm^3
# Si number density = 22.838504 Si / 1000 Ang^3
#
#
#
# Elastic Constant Matrix: (Units=GPa)
#
#
# Indices 1 2 3 4 5 6 
#
# 1 114.5401 49.4618 44.8632 0.0000 0.0000 0.0000
# 2 49.4618 141.8624 45.8510 0.0000 0.0000 0.0000
# 3 44.8632 45.8510 123.2340 0.0000 0.0000 0.0000
# 4 0.0000 0.0000 0.0000 16.4751 0.0000 0.0000
# 5 0.0000 0.0000 0.0000 0.0000 40.6193 0.0000
# 6 0.0000 0.0000 0.0000 0.0000 0.0000 55.3344
#
#
#
# Elastic Compliance Matrix: (Units=1/GPa)
#
#
# Indices 1 2 3 4 5 6 
#
# 1 0.011160 -0.002930 -0.002973 0.000000 0.000000 0.000000
# 2 -0.002930 0.008782 -0.002201 0.000000 0.000000 0.000000
# 3 -0.002973 -0.002201 0.010016 0.000000 0.000000 0.000000
# 4 0.000000 0.000000 0.000000 0.060698 0.000000 0.000000
# 5 0.000000 0.000000 0.000000 0.000000 0.024619 0.000000
# 6 0.000000 0.000000 0.000000 0.000000 0.000000 0.018072
#
#
# Mechanical properties :
#
#
# Convention : Reuss Voigt Hill
#
# Bulk Modulus (GPa) = 72.72397 73.33206 73.02801
# Shear Modulus (GPa) = 32.43861 38.44981 35.44421
#
# Velocity S-wave (km/s) = 3.77284 4.10756 3.94375
# Velocity P-wave (km/s) = 7.13379 7.39424 7.26518
#
# Compressibility (1/GPa) = 0.01375063
#
# Stress axis : x y z
#
# Youngs Moduli (GPa) = 89.60329 113.86834 99.84400
#
# Poissons Ratio (x) = 0.33368 0.29680
# Poissons Ratio (y) = 0.26257 0.21973
# Poissons Ratio (z) = 0.26636 0.25059
#
# Static dielectric constant tensor:
#      x y z
#    x 1.201790 0.000000 0.000000 
#    y 0.000000 1.868360 0.000000 
#    z 0.000000 0.000000 1.854680 
# 
# From -- ./inp_files/49203.got.cif
#   From: 2010.05.17/outbox.cif.g08.bks.cpg/sg68_25_cif.got.tgz:49203.got - 2010.06.03 18:57:09.
