data_PCOD9508031
_publ_section_title
;
Structure prediction by ZEFSAII (Michael W. Deem and Ramdas Pophale) SiO2 
 PCOD9508031
Probable space group: C C C A
;
_chemical_formula_sum "Si O2"
_cell_formula_units_Z 72
_cell_length_a 10.969589
_cell_length_b 15.205893
_cell_length_c 17.992777
_cell_angle_alpha 90.000000
_cell_angle_beta 90.000000
_cell_angle_gamma 90.000000
_cell_volume 3001.238325
_symmetry_space_group_name_H-M "C C C A"
_symmetry_group_IT_number 68
_space_group.IT_coordinate_system_code '2'
_symmetry_cell_setting 'orthorhombic'
loop_
_space_group_symop_operation_xyz
x,y,z
-x,1/2-y,z
x,1/2-y,1/2-z
-x,y,1/2-z
-x,-y,-z
x,1/2+y,-z
-x,1/2+y,1/2+z
x,-y,1/2+z
1/2+x,1/2+y,z
1/2-x,-y,z
1/2+x,-y,1/2-z
1/2-x,1/2+y,1/2-z
1/2-x,1/2-y,-z
1/2+x,y,-z
1/2-x,y,1/2+z
1/2+x,1/2-y,1/2+z
loop_
_atom_site_type_symbol
_atom_site_label
_atom_site_fract_x
_atom_site_fract_y
_atom_site_fract_z
Si Si1 0.240764 0.154546 0.539793
Si Si2 0.500000 0.603181 0.250000
Si Si3 0.122994 0.538163 0.161481
Si Si4 0.484009 0.356517 0.028264
Si Si5 0.769599 0.840045 0.284664
O O1 0.250000 0.250000 0.500000
O O2 0.374608 0.116425 0.526165
O O3 0.216347 0.160295 0.627326
O O4 0.118770 0.109403 0.508040
O O5 0.466409 0.541090 0.180689
O O6 0.375192 0.653095 0.267451
O O7 0.250000 0.500000 0.130203
O O8 0.061808 0.607817 0.107274
O O9 0.162728 0.583039 0.239760
O O10 0.500000 0.250000 0.029664
O O11 0.816643 0.750000 0.250000
#
# Coordination Sequence:
#
# PCOD9508031 Si02
#       5
#    16   8  16  16  16
#     4  10  22  38  62  95 127 161 213 268 313 369
#     4  10  23  38  59  92 130 160 202 264 323 374
#     4  10  22  41  62  92 128 163 208 264 322 379
#     4  10  21  40  65  91 124 167 211 260 310 377
#     4  11  22  39  66  93 120 164 215 262 313 376
#
# _framework density 23.990098
#
# number of rings (size 3 to 8) (size 9 to 14) (size 15 to 20)
#    0.000    1.778    0.000    4.333    0.000    8.889 
#    0.000   12.222    0.000    0.000    0.000    0.000 
#    0.000    0.000    0.000    0.000    0.000    0.000 
#
# Total GULP energy -201317.586899 kJ/mol
# GULP energy per Si atom -5592.155192 kJ/mol
# Density = 2.393550 g / cm^3
# Si number density = 23.990098 Si / 1000 Ang^3
#
#
#
# Elastic Constant Matrix: (Units=GPa)
#
#
# Indices 1 2 3 4 5 6 
#
# 1 181.2349 22.2161 45.6040 0.0000 0.0000 0.0000
# 2 22.2161 66.5981 14.1566 0.0000 0.0000 0.0000
# 3 45.6040 14.1566 120.0172 0.0000 0.0000 0.0000
# 4 0.0000 0.0000 0.0000 21.5222 0.0000 0.0000
# 5 0.0000 0.0000 0.0000 0.0000 23.0453 0.0000
# 6 0.0000 0.0000 0.0000 0.0000 0.0000 20.0674
#
#
#
# Elastic Compliance Matrix: (Units=1/GPa)
#
#
# Indices 1 2 3 4 5 6 
#
# 1 0.006268 -0.001625 -0.002190 0.000000 0.000000 0.000000
# 2 -0.001625 0.015823 -0.001249 0.000000 0.000000 0.000000
# 3 -0.002190 -0.001249 0.009312 0.000000 0.000000 0.000000
# 4 0.000000 0.000000 0.000000 0.046464 0.000000 0.000000
# 5 0.000000 0.000000 0.000000 0.000000 0.043393 0.000000
# 6 0.000000 0.000000 0.000000 0.000000 0.000000 0.049832
#
#
# Mechanical properties :
#
#
# Convention : Reuss Voigt Hill
#
# Bulk Modulus (GPa) = 47.00496 59.08930 53.04713
# Shear Modulus (GPa) = 26.55182 31.98522 29.26852
#
# Velocity S-wave (km/s) = 3.33044 3.65535 3.49667
# Velocity P-wave (km/s) = 5.86730 6.51918 6.20181
#
# Compressibility (1/GPa) = 0.02127435
#
# Stress axis : x y z
#
# Youngs Moduli (GPa) = 159.54031 63.19870 107.39308
#
# Poissons Ratio (x) = 0.10272 0.23519
# Poissons Ratio (y) = 0.25931 0.13411
# Poissons Ratio (z) = 0.34939 0.07892
#
# Static dielectric constant tensor:
#      x y z
#    x 1.986830 0.000000 0.000000 
#    y 0.000000 1.909420 0.000000 
#    z 0.000000 0.000000 1.896950 
# 
# From -- ./inp_files/29374.got.cif
#   From: 2010.05.17/outbox.cif.g08.bks.cpg/sg68_15_cif.got.tgz:29374.got - 2010.06.03 18:57:09.
