data_PCOD9508384
_publ_section_title
;
Structure prediction by ZEFSAII (Michael W. Deem and Ramdas Pophale) SiO2 
 PCOD9508384
Probable space group: C C C A
;
_chemical_formula_sum "Si O2"
_cell_formula_units_Z 96
_cell_length_a 19.587251
_cell_length_b 23.589264
_cell_length_c 9.103489
_cell_angle_alpha 90.000000
_cell_angle_beta 90.000000
_cell_angle_gamma 90.000000
_cell_volume 4206.256486
_symmetry_space_group_name_H-M "C C C A"
_symmetry_group_IT_number 68
_space_group.IT_coordinate_system_code '2'
_symmetry_cell_setting 'orthorhombic'
loop_
_space_group_symop_operation_xyz
x,y,z
-x,1/2-y,z
x,1/2-y,1/2-z
-x,y,1/2-z
-x,-y,-z
x,1/2+y,-z
-x,1/2+y,1/2+z
x,-y,1/2+z
1/2+x,1/2+y,z
1/2-x,-y,z
1/2+x,-y,1/2-z
1/2-x,1/2+y,1/2-z
1/2-x,1/2-y,-z
1/2+x,y,-z
1/2-x,y,1/2+z
1/2+x,1/2-y,1/2+z
loop_
_atom_site_type_symbol
_atom_site_label
_atom_site_fract_x
_atom_site_fract_y
_atom_site_fract_z
Si Si1 0.758082 0.131776 0.976527
Si Si2 0.574272 0.591247 0.198661
Si Si3 0.782678 0.442553 0.275592
Si Si4 0.646691 0.784187 0.604135
Si Si5 0.403918 0.678831 0.061002
Si Si6 0.533239 0.873582 0.606592
O O1 0.752080 0.073451 0.067285
O O2 0.709080 0.181117 0.034822
O O3 0.836375 0.148719 0.996870
O O4 0.737474 0.113717 0.814986
O O5 0.500000 0.571770 0.250000
O O6 0.635798 0.554457 0.262630
O O7 0.586236 0.653844 0.273795
O O8 0.571947 0.592435 0.022292
O O9 0.750000 0.500000 0.222277
O O10 0.668841 0.750000 0.750000
O O11 0.612242 0.743579 0.480892
O O12 0.588141 0.827254 0.657357
O O13 0.471385 0.657786 0.977593
O O14 0.500000 0.902437 0.750000
#
# Coordination Sequence:
#
# PCOD9508384 Si02
#       6
#    16  16  16  16  16  16
#     4  11  24  42  64  96 127 170 220 279 333 394
#     4   9  21  42  65  96 133 171 221 273 325 395
#     4  11  23  44  71  93 125 168 223 286 349 392
#     4  12  22  37  62  93 137 179 223 259 322 395
#     4  10  22  37  61  90 135 175 214 263 318 394
#     4  11  21  38  62  93 132 178 219 257 309 386
#
# _framework density 22.823146000000001
#
# number of rings (size 3 to 8) (size 9 to 14) (size 15 to 20)
#    0.000    1.333    3.333    2.500    0.000    0.667 
#    0.000    2.500    3.667    4.000    0.000    0.000 
#    0.000    0.000    0.000    0.000    0.000    0.000 
#
# Total GULP energy -268097.786776 kJ/mol
# GULP energy per Si atom -5585.370558 kJ/mol
# Density = 2.277120 g / cm^3
# Si number density = 22.823146 Si / 1000 Ang^3
#
#
#
# Elastic Constant Matrix: (Units=GPa)
#
#
# Indices 1 2 3 4 5 6 
#
# 1 112.1131 18.8028 -9.2055 0.0000 0.0000 0.0000
# 2 18.8028 97.4029 -11.6268 0.0000 0.0000 0.0000
# 3 -9.2055 -11.6268 87.4170 0.0000 0.0000 0.0000
# 4 0.0000 0.0000 0.0000 21.4069 0.0000 0.0000
# 5 0.0000 0.0000 0.0000 0.0000 29.3110 0.0000
# 6 0.0000 0.0000 0.0000 0.0000 0.0000 9.5875
#
#
#
# Elastic Compliance Matrix: (Units=1/GPa)
#
#
# Indices 1 2 3 4 5 6 
#
# 1 0.009266 -0.001699 0.000750 0.000000 0.000000 0.000000
# 2 -0.001699 0.010744 0.001250 0.000000 0.000000 0.000000
# 3 0.000750 0.001250 0.011685 0.000000 0.000000 0.000000
# 4 0.000000 0.000000 0.000000 0.046714 0.000000 0.000000
# 5 0.000000 0.000000 0.000000 0.000000 0.034117 0.000000
# 6 0.000000 0.000000 0.000000 0.000000 0.000000 0.104303
#
#
# Mechanical properties :
#
#
# Convention : Reuss Voigt Hill
#
# Bulk Modulus (GPa) = 30.96383 32.54155 31.75269
# Shear Modulus (GPa) = 22.02720 31.99194 27.00957
#
# Velocity S-wave (km/s) = 3.11002 3.74803 3.44383
# Velocity P-wave (km/s) = 5.14709 5.74625 5.45491
#
# Compressibility (1/GPa) = 0.03229574
#
# Stress axis : x y z
#
# Youngs Moduli (GPa) = 107.92013 93.07630 85.58250
#
# Poissons Ratio (x) = 0.15816 -0.06417
# Poissons Ratio (y) = 0.18338 -0.10698
# Poissons Ratio (z) = -0.08092 -0.11635
#
# Static dielectric constant tensor:
#      x y z
#    x 1.816790 0.000000 0.000000 
#    y 0.000000 1.864630 0.000000 
#    z 0.000000 0.000000 1.931890 
# 
# From -- ./inp_files/7274.got.cif
#   From: 2010.05.17/outbox.cif.g08.bks.cpg/sg68_4_cif.got.tgz:7274.got - 2010.06.03 18:57:09.
