data_PCOD9508409
_publ_section_title
;
Structure prediction by ZEFSAII (Michael W. Deem and Ramdas Pophale) SiO2 
 PCOD9508409
Probable space group: C C C A
;
_chemical_formula_sum "Si O2"
_cell_formula_units_Z 88
_cell_length_a 22.460000
_cell_length_b 15.470160
_cell_length_c 11.280414
_cell_angle_alpha 90.000000
_cell_angle_beta 90.000000
_cell_angle_gamma 90.000000
_cell_volume 3919.490320
_symmetry_space_group_name_H-M "C C C A"
_symmetry_group_IT_number 68
_space_group.IT_coordinate_system_code '2'
_symmetry_cell_setting 'orthorhombic'
loop_
_space_group_symop_operation_xyz
x,y,z
-x,1/2-y,z
x,1/2-y,1/2-z
-x,y,1/2-z
-x,-y,-z
x,1/2+y,-z
-x,1/2+y,1/2+z
x,-y,1/2+z
1/2+x,1/2+y,z
1/2-x,-y,z
1/2+x,-y,1/2-z
1/2-x,1/2+y,1/2-z
1/2-x,1/2-y,-z
1/2+x,y,-z
1/2-x,y,1/2+z
1/2+x,1/2-y,1/2+z
loop_
_atom_site_type_symbol
_atom_site_label
_atom_site_fract_x
_atom_site_fract_y
_atom_site_fract_z
Si Si1 0.193355 0.128082 0.782425
Si Si2 0.711928 0.750000 0.250000
Si Si3 0.000000 0.750000 0.750000
Si Si4 0.604082 0.675288 0.098514
Si Si5 0.131630 0.505958 0.026477
Si Si6 0.000000 0.250000 0.750000
Si Si7 0.250000 0.500000 0.378887
Si Si8 0.403234 0.170188 0.084330
O O1 0.239299 0.200079 0.835550
O O2 0.147406 0.162394 0.684500
O O3 0.243608 0.078422 0.709230
O O4 0.154014 0.057922 0.855905
O O5 0.663729 0.693589 0.174936
O O6 0.955213 0.805563 0.828460
O O7 0.598734 0.579402 0.048384
O O8 0.607089 0.744097 0.992230
O O9 0.193846 0.493987 0.961240
O O10 0.099468 0.412969 0.005576
O O11 0.037990 0.311574 0.837767
#
# Coordination Sequence:
#
# PCOD9508409 Si02
#       8
#    16   8   4  16  16   4   8  16
#     4  11  23  39  64 104 143 183 232 288 358 444
#     4  11  23  37  68  99 143 193 226 292 366 443
#     4  10  26  46  70  94 136 176 246 304 356 428
#     4  11  24  45  67 101 139 185 241 297 365 427
#     4  11  24  42  68 104 141 185 234 289 362 433
#     4  12  24  54  70 102 142 194 262 312 368 430
#     4  10  22  38  58 100 142 184 218 278 342 428
#     4  11  27  45  74 102 141 194 243 309 364 428
#
# _framework density 22.451899999999998
#
# number of rings (size 3 to 8) (size 9 to 14) (size 15 to 20)
#    0.000    1.091    1.818    3.818    7.636    3.636 
#    0.000    6.364    0.000    0.000    0.000    0.000 
#    0.000    0.000    0.000    0.000    0.000    0.000 
#
# Total GULP energy -245018.923993 kJ/mol
# GULP energy per Si atom -5568.611909 kJ/mol
# Density = 2.240080 g / cm^3
# Si number density = 22.451900 Si / 1000 Ang^3
#
#
#
# Elastic Constant Matrix: (Units=GPa)
#
#
# Indices 1 2 3 4 5 6 
#
# 1 124.5419 36.4477 32.1221 0.0000 0.0000 0.0000
# 2 36.4477 87.5385 3.4813 0.0000 0.0000 0.0000
# 3 32.1221 3.4813 51.5596 0.0000 0.0000 0.0000
# 4 0.0000 0.0000 0.0000 96.0263 0.0000 0.0000
# 5 0.0000 0.0000 0.0000 0.0000 46.7909 0.0000
# 6 0.0000 0.0000 0.0000 0.0000 0.0000 53.2771
#
#
#
# Elastic Compliance Matrix: (Units=1/GPa)
#
#
# Indices 1 2 3 4 5 6 
#
# 1 0.010981 -0.004311 -0.006550 0.000000 0.000000 0.000000
# 2 -0.004311 0.013147 0.001798 0.000000 0.000000 0.000000
# 3 -0.006550 0.001798 0.023354 0.000000 0.000000 0.000000
# 4 0.000000 0.000000 0.000000 0.010414 0.000000 0.000000
# 5 0.000000 0.000000 0.000000 0.000000 0.021372 0.000000
# 6 0.000000 0.000000 0.000000 0.000000 0.000000 0.018770
#
#
# Mechanical properties :
#
#
# Convention : Reuss Voigt Hill
#
# Bulk Modulus (GPa) = 34.06450 45.30467 39.68458
# Shear Modulus (GPa) = 39.69881 51.99144 45.84512
#
# Velocity S-wave (km/s) = 4.20952 4.81737 4.52367
# Velocity P-wave (km/s) = 6.23153 7.15298 6.70810
#
# Compressibility (1/GPa) = 0.02935607
#
# Stress axis : x y z
#
# Youngs Moduli (GPa) = 91.07032 76.06225 42.81878
#
# Poissons Ratio (x) = 0.32793 0.28046
# Poissons Ratio (y) = 0.39264 -0.07700
# Poissons Ratio (z) = 0.59650 -0.13679
#
# Static dielectric constant tensor:
#      x y z
#    x 1.584730 0.000000 0.000000 
#    y 0.000000 1.807860 0.000000 
#    z 0.000000 0.000000 1.883960 
# 
# From -- ./inp_files/15472.got.cif
#   From: 2010.05.17/outbox.cif.g08.bks.cpg/sg68_8_cif.got.tgz:15472.got - 2010.06.03 18:57:09.
