data_PCOD9508464
_publ_section_title
;
Structure prediction by ZEFSAII (Michael W. Deem and Ramdas Pophale) SiO2 
 PCOD9508464
Probable space group: C C C A
;
_chemical_formula_sum "Si O2"
_cell_formula_units_Z 56
_cell_length_a 15.975937
_cell_length_b 17.253712
_cell_length_c 8.345946
_cell_angle_alpha 90.000000
_cell_angle_beta 90.000000
_cell_angle_gamma 90.000000
_cell_volume 2300.511741
_symmetry_space_group_name_H-M "C C C A"
_symmetry_group_IT_number 68
_space_group.IT_coordinate_system_code '2'
_symmetry_cell_setting 'orthorhombic'
loop_
_space_group_symop_operation_xyz
x,y,z
-x,1/2-y,z
x,1/2-y,1/2-z
-x,y,1/2-z
-x,-y,-z
x,1/2+y,-z
-x,1/2+y,1/2+z
x,-y,1/2+z
1/2+x,1/2+y,z
1/2-x,-y,z
1/2+x,-y,1/2-z
1/2-x,1/2+y,1/2-z
1/2-x,1/2-y,-z
1/2+x,y,-z
1/2-x,y,1/2+z
1/2+x,1/2-y,1/2+z
loop_
_atom_site_type_symbol
_atom_site_label
_atom_site_fract_x
_atom_site_fract_y
_atom_site_fract_z
Si Si1 0.964817 0.838048 0.919077
Si Si2 0.500000 0.929377 0.750000
Si Si3 0.819147 0.063755 0.807881
Si Si4 0.219661 0.663366 0.017728
O O1 0.863990 0.842775 0.910803
O O2 0.000000 0.750000 0.934368
O O3 0.000000 0.867899 0.750000
O O4 0.990290 0.881267 0.083619
O O5 0.588781 0.970006 0.781924
O O6 0.810733 0.137932 0.692097
O O7 0.792447 0.102321 0.974570
O O8 0.750000 0.000000 0.773270
O O9 0.250000 0.750000 0.000000
#
# Coordination Sequence:
#
# PCOD9508464 Si02
#       4
#    16   8  16  16
#     4  10  22  38  66 106 139 183 235 291 353 422
#     4  10  23  46  68  94 145 188 232 292 358 430
#     4  11  25  46  69 101 138 185 231 287 359 423
#     4  11  24  42  70 103 139 180 234 293 345 421
#
# _framework density 24.342409
#
# number of rings (size 3 to 8) (size 9 to 14) (size 15 to 20)
#    0.000    1.429    0.000    3.857   12.000    4.571 
#    2.571    4.286    0.000    0.000    0.000    0.000 
#    0.000    0.000    0.000    0.000    0.000    0.000 
#
# Total GULP energy -156530.312249 kJ/mol
# GULP energy per Si atom -5590.368295 kJ/mol
# Density = 2.428701 g / cm^3
# Si number density = 24.342409 Si / 1000 Ang^3
#
#
#
# Elastic Constant Matrix: (Units=GPa)
#
#
# Indices 1 2 3 4 5 6 
#
# 1 198.4932 51.7853 34.6670 0.0000 0.0000 0.0000
# 2 51.7853 97.3193 14.3308 0.0000 0.0000 0.0000
# 3 34.6670 14.3308 119.1413 0.0000 0.0000 0.0000
# 4 0.0000 0.0000 0.0000 -0.6630 0.0000 0.0000
# 5 0.0000 0.0000 0.0000 0.0000 29.0716 0.0000
# 6 0.0000 0.0000 0.0000 0.0000 0.0000 38.1128
#
#
#
# Elastic Compliance Matrix: (Units=1/GPa)
#
#
# Indices 1 2 3 4 5 6 
#
# 1 0.006072 -0.003024 -0.001403 0.000000 0.000000 0.000000
# 2 -0.003024 0.011967 -0.000559 0.000000 0.000000 0.000000
# 3 -0.001403 -0.000559 0.008869 0.000000 0.000000 0.000000
# 4 0.000000 0.000000 0.000000 -1.508303 0.000000 0.000000
# 5 0.000000 0.000000 0.000000 0.000000 0.034398 0.000000
# 6 0.000000 0.000000 0.000000 0.000000 0.000000 0.026238
#
#
# Mechanical properties :
#
#
# Convention : Reuss Voigt Hill
#
# Bulk Modulus (GPa) = 59.05142 68.50221 63.77682
# Shear Modulus (GPa) = -3.55836 34.24899 15.34531
#
# Velocity S-wave (km/s) = -1.21036 3.75503 2.51349
# Velocity P-wave (km/s) = 4.72843 6.85584 5.88899
#
# Compressibility (1/GPa) = 0.01693439
#
# Stress axis : x y z
#
# Youngs Moduli (GPa) = 164.68917 83.56178 112.75323
#
# Poissons Ratio (x) = 0.25273 0.15819
# Poissons Ratio (y) = 0.49809 0.06308
# Poissons Ratio (z) = 0.23106 0.04675
#
# Static dielectric constant tensor:
#      x y z
#    x 1.971530 0.000000 0.000000 
#    y 0.000000 1.909270 0.000000 
#    z 0.000000 0.000000 1.934360 
# 
# From -- ./inp_files/4733.got.cif
#   From: 2010.05.17/outbox.cif.g08.bks.cpg/sg68_3_cif.got.tgz:4733.got - 2010.06.03 18:57:09.
