data_PCOD9508359
_publ_section_title
;
Structure prediction by ZEFSAII (Michael W. Deem and Ramdas Pophale) SiO2 
 PCOD9508359
Probable space group: C C C A
;
_chemical_formula_sum "Si O2"
_cell_formula_units_Z 72
_cell_length_a 9.582281
_cell_length_b 20.790037
_cell_length_c 17.437193
_cell_angle_alpha 90.000000
_cell_angle_beta 90.000000
_cell_angle_gamma 90.000000
_cell_volume 3473.767432
_symmetry_space_group_name_H-M "C C C A"
_symmetry_group_IT_number 68
_space_group.IT_coordinate_system_code '2'
_symmetry_cell_setting 'orthorhombic'
loop_
_space_group_symop_operation_xyz
x,y,z
-x,1/2-y,z
x,1/2-y,1/2-z
-x,y,1/2-z
-x,-y,-z
x,1/2+y,-z
-x,1/2+y,1/2+z
x,-y,1/2+z
1/2+x,1/2+y,z
1/2-x,-y,z
1/2+x,-y,1/2-z
1/2-x,1/2+y,1/2-z
1/2-x,1/2-y,-z
1/2+x,y,-z
1/2-x,y,1/2+z
1/2+x,1/2-y,1/2+z
loop_
_atom_site_type_symbol
_atom_site_label
_atom_site_fract_x
_atom_site_fract_y
_atom_site_fract_z
Si Si1 0.750000 0.500000 0.153464
Si Si2 0.164759 0.871810 0.248284
Si Si3 0.450523 0.081971 0.550275
Si Si4 0.582806 0.683495 0.178851
Si Si5 0.261267 0.427666 0.094087
O O1 0.801749 0.560917 0.203482
O O2 0.623707 0.525660 0.100009
O O3 0.257603 0.817657 0.206686
O O4 0.218798 0.880517 0.335034
O O5 0.000000 0.860636 0.250000
O O6 0.419743 0.145319 0.599982
O O7 0.384085 0.080425 0.466836
O O8 0.616570 0.079265 0.548940
O O9 0.500000 0.750000 0.170301
O O10 0.500000 0.648728 0.250000
O O11 0.250000 0.500000 0.125965
#
# Coordination Sequence:
#
# PCOD9508359 Si02
#       5
#     8  16  16  16  16
#     4  10  22  36  62 100 138 178 220 258 344 402
#     4  11  23  38  68  99 131 173 232 276 325 404
#     4  11  24  39  61  97 135 179 207 269 335 411
#     4  10  22  46  71  85 121 175 228 277 334 376
#     4  12  23  38  60  97 142 172 206 265 346 409
#
# _framework density 20.726776000000001
#
# number of rings (size 3 to 8) (size 9 to 14) (size 15 to 20)
#    0.000    1.111    4.444    2.000    6.222    0.000 
#    0.000    3.333    0.000    0.000    0.000    0.000 
#    0.000    0.000    0.000    0.000    0.000    0.000 
#
# Total GULP energy -201125.519317 kJ/mol
# GULP energy per Si atom -5586.819981 kJ/mol
# Density = 2.067960 g / cm^3
# Si number density = 20.726776 Si / 1000 Ang^3
#
#
#
# Elastic Constant Matrix: (Units=GPa)
#
#
# Indices 1 2 3 4 5 6 
#
# 1 153.5652 34.3199 7.6408 0.0000 0.0000 0.0000
# 2 34.3199 88.5193 29.8265 0.0000 0.0000 0.0000
# 3 7.6408 29.8265 70.2031 0.0000 0.0000 0.0000
# 4 0.0000 0.0000 0.0000 9.0159 0.0000 0.0000
# 5 0.0000 0.0000 0.0000 0.0000 14.9443 0.0000
# 6 0.0000 0.0000 0.0000 0.0000 0.0000 31.9619
#
#
#
# Elastic Compliance Matrix: (Units=1/GPa)
#
#
# Indices 1 2 3 4 5 6 
#
# 1 0.007143 -0.002926 0.000466 0.000000 0.000000 0.000000
# 2 -0.002926 0.014383 -0.005792 0.000000 0.000000 0.000000
# 3 0.000466 -0.005792 0.016655 0.000000 0.000000 0.000000
# 4 0.000000 0.000000 0.000000 0.110915 0.000000 0.000000
# 5 0.000000 0.000000 0.000000 0.000000 0.066915 0.000000
# 6 0.000000 0.000000 0.000000 0.000000 0.000000 0.031287
#
#
# Mechanical properties :
#
#
# Convention : Reuss Voigt Hill
#
# Bulk Modulus (GPa) = 46.13611 50.65132 48.39372
# Shear Modulus (GPa) = 18.44826 27.21779 22.83303
#
# Velocity S-wave (km/s) = 2.98664 3.62770 3.32267
# Velocity P-wave (km/s) = 5.84815 6.48364 6.17408
#
# Compressibility (1/GPa) = 0.02167500
#
# Stress axis : x y z
#
# Youngs Moduli (GPa) = 140.00312 69.52534 60.04336
#
# Poissons Ratio (x) = 0.20345 -0.02797
# Poissons Ratio (y) = 0.40969 0.34779
# Poissons Ratio (z) = -0.06522 0.40272
#
# Static dielectric constant tensor:
#      x y z
#    x 1.752780 0.000000 0.000000 
#    y 0.000000 1.777210 0.000000 
#    z 0.000000 0.000000 1.706400 
# 
# From -- ./inp_files/28125.got.cif
#   From: 2010.05.17/outbox.cif.g08.bks.cpg/sg68_15_cif.got.tgz:28125.got - 2010.06.03 18:57:09.
