data_PCOD9508247
_publ_section_title
;
Structure prediction by ZEFSAII (Michael W. Deem and Ramdas Pophale) SiO2 
 PCOD9508247
Probable space group: C C C A
;
_chemical_formula_sum "Si O2"
_cell_formula_units_Z 84
_cell_length_a 8.769224
_cell_length_b 22.711181
_cell_length_c 20.140906
_cell_angle_alpha 90.000000
_cell_angle_beta 90.000000
_cell_angle_gamma 90.000000
_cell_volume 4011.251429
_symmetry_space_group_name_H-M "C C C A"
_symmetry_group_IT_number 68
_space_group.IT_coordinate_system_code '2'
_symmetry_cell_setting 'orthorhombic'
loop_
_space_group_symop_operation_xyz
x,y,z
-x,1/2-y,z
x,1/2-y,1/2-z
-x,y,1/2-z
-x,-y,-z
x,1/2+y,-z
-x,1/2+y,1/2+z
x,-y,1/2+z
1/2+x,1/2+y,z
1/2-x,-y,z
1/2+x,-y,1/2-z
1/2-x,1/2+y,1/2-z
1/2-x,1/2-y,-z
1/2+x,y,-z
1/2-x,y,1/2+z
1/2+x,1/2-y,1/2+z
loop_
_atom_site_type_symbol
_atom_site_label
_atom_site_fract_x
_atom_site_fract_y
_atom_site_fract_z
Si Si1 0.054376 0.064756 0.922073
Si Si2 0.561491 0.689655 0.592983
Si Si3 0.000000 0.250000 0.032784
Si Si4 0.750000 0.000000 0.189229
Si Si5 0.000000 0.750000 0.750000
Si Si6 0.750000 0.000000 0.467063
Si Si7 0.500000 0.578218 0.250000
Si Si8 0.122988 0.165937 0.145562
O O1 0.138013 0.037196 0.858448
O O2 0.053181 0.135697 0.918128
O O3 0.883725 0.036504 0.929543
O O4 0.153882 0.044223 0.985678
O O5 0.500000 0.750000 0.626997
O O6 0.607773 0.716582 0.520887
O O7 0.700916 0.659084 0.629765
O O8 0.053608 0.197551 0.080851
O O9 0.648591 0.958908 0.234961
O O10 0.891449 0.786759 0.796448
O O11 0.533324 0.613063 0.180768
#
# Coordination Sequence:
#
# PCOD9508247 Si02
#       8
#    16  16   8   8   4   8   8  16
#     4  10  23  42  68 100 147 179 239 289 361 427
#     4  10  24  37  66 111 139 179 219 291 355 427
#     4   9  22  39  68 107 142 179 222 278 358 443
#     4  11  28  47  68 102 130 191 255 306 340 422
#     4   8  20  40  62  88 128 186 230 260 322 422
#     4   9  22  41  68 102 134 193 225 292 362 436
#     4  11  28  47  74  96 135 194 249 302 360 412
#     4  10  21  43  67  97 139 186 226 283 349 427
#
# _framework density 20.941095000000001
#
# number of rings (size 3 to 8) (size 9 to 14) (size 15 to 20)
#    0.571    1.524    0.000    0.571    8.000    7.619 
#    0.000    2.381    0.000    0.000    0.000    0.000 
#    0.000    0.000    0.000    0.000    0.000    0.000 
#
# Total GULP energy -233878.974274 kJ/mol
# GULP energy per Si atom -5568.547007 kJ/mol
# Density = 2.089343 g / cm^3
# Si number density = 20.941095 Si / 1000 Ang^3
#
#
#
# Elastic Constant Matrix: (Units=GPa)
#
#
# Indices 1 2 3 4 5 6 
#
# 1 97.9107 41.8564 24.3044 0.0000 0.0000 0.0000
# 2 41.8564 122.0751 13.9424 0.0000 0.0000 0.0000
# 3 24.3044 13.9424 63.4485 0.0000 0.0000 0.0000
# 4 0.0000 0.0000 0.0000 17.6419 0.0000 0.0000
# 5 0.0000 0.0000 0.0000 0.0000 -15.6130 0.0000
# 6 0.0000 0.0000 0.0000 0.0000 0.0000 39.1951
#
#
#
# Elastic Compliance Matrix: (Units=1/GPa)
#
#
# Indices 1 2 3 4 5 6 
#
# 1 0.012920 -0.003964 -0.004078 0.000000 0.000000 0.000000
# 2 -0.003964 0.009619 -0.000595 0.000000 0.000000 0.000000
# 3 -0.004078 -0.000595 0.017454 0.000000 0.000000 0.000000
# 4 0.000000 0.000000 0.000000 0.056683 0.000000 0.000000
# 5 0.000000 0.000000 0.000000 0.000000 -0.064049 0.000000
# 6 0.000000 0.000000 0.000000 0.000000 0.000000 0.025513
#
#
# Mechanical properties :
#
#
# Convention : Reuss Voigt Hill
#
# Bulk Modulus (GPa) = 44.01808 49.29341 46.65575
# Shear Modulus (GPa) = 60.24930 21.80020 41.02475
#
# Velocity S-wave (km/s) = 5.36966 3.22999 4.43092
# Velocity P-wave (km/s) = 7.71427 6.12378 6.96458
#
# Compressibility (1/GPa) = 0.02271794
#
# Stress axis : x y z
#
# Youngs Moduli (GPa) = 77.39675 103.96182 57.29425
#
# Poissons Ratio (x) = 0.41214 0.23365
# Poissons Ratio (y) = 0.30683 0.03410
# Poissons Ratio (z) = 0.31563 0.06187
#
# Static dielectric constant tensor:
#      x y z
#    x 1.782740 0.000000 0.000000 
#    y 0.000000 1.775670 0.000000 
#    z 0.000000 0.000000 1.704010 
# 
# From -- ./inp_files/36252.got.cif
#   From: 2010.05.17/outbox.cif.g08.bks.cpg/sg68_19_cif.got.tgz:36252.got - 2010.06.03 18:57:09.
