data_PCOD9508382
_publ_section_title
;
Structure prediction by ZEFSAII (Michael W. Deem and Ramdas Pophale) SiO2 
 PCOD9508382
Probable space group: C C C A
;
_chemical_formula_sum "Si O2"
_cell_formula_units_Z 80
_cell_length_a 11.993423
_cell_length_b 10.727475
_cell_length_c 29.136162
_cell_angle_alpha 90.000000
_cell_angle_beta 90.000000
_cell_angle_gamma 90.000000
_cell_volume 3748.633703
_symmetry_space_group_name_H-M "C C C A"
_symmetry_group_IT_number 68
_space_group.IT_coordinate_system_code '2'
_symmetry_cell_setting 'orthorhombic'
loop_
_space_group_symop_operation_xyz
x,y,z
-x,1/2-y,z
x,1/2-y,1/2-z
-x,y,1/2-z
-x,-y,-z
x,1/2+y,-z
-x,1/2+y,1/2+z
x,-y,1/2+z
1/2+x,1/2+y,z
1/2-x,-y,z
1/2+x,-y,1/2-z
1/2-x,1/2+y,1/2-z
1/2-x,1/2-y,-z
1/2+x,y,-z
1/2-x,y,1/2+z
1/2+x,1/2-y,1/2+z
loop_
_atom_site_type_symbol
_atom_site_label
_atom_site_fract_x
_atom_site_fract_y
_atom_site_fract_z
Si Si1 0.887568 0.171561 0.039122
Si Si2 0.988680 0.936675 0.195563
Si Si3 0.194483 0.373079 0.944138
Si Si4 0.656335 0.783165 0.849770
Si Si5 0.104701 0.840281 0.861136
O O1 0.791197 0.274685 0.044600
O O2 0.883486 0.098945 0.087718
O O3 0.000000 0.250000 0.034393
O O4 0.867889 0.098575 0.991858
O O5 0.909922 0.828159 0.174922
O O6 0.000000 0.932967 0.250000
O O7 0.112036 0.907038 0.175662
O O8 0.930520 0.060721 0.176866
O O9 0.250000 0.500000 0.926476
O O10 0.126709 0.309851 0.902996
O O11 0.785109 0.739730 0.849517
O O12 0.000000 0.750000 0.866008
#
# Coordination Sequence:
#
# PCOD9508382 Si02
#       5
#    16  16  16  16  16
#     4   9  21  38  59  92 134 168 219 267 324 403
#     4  11  25  47  68  96 128 175 230 279 349 407
#     4  10  22  37  60  98 128 177 222 265 331 402
#     4  10  23  43  67  94 136 171 221 277 336 406
#     4  10  23  44  67 100 133 172 220 279 341 402
#
# _framework density 21.341108999999999
#
# number of rings (size 3 to 8) (size 9 to 14) (size 15 to 20)
#    0.000    2.000    0.000    1.800   11.200    6.000 
#   10.800    0.000    0.000    0.000    0.000    0.000 
#    0.000    0.000    0.000    0.000    0.000    0.000 
#
# Total GULP energy -223086.843653 kJ/mol
# GULP energy per Si atom -5577.171091 kJ/mol
# Density = 2.129254 g / cm^3
# Si number density = 21.341109 Si / 1000 Ang^3
#
#
#
# Elastic Constant Matrix: (Units=GPa)
#
#
# Indices 1 2 3 4 5 6 
#
# 1 104.9218 18.5150 71.3646 0.0000 0.0000 0.0000
# 2 18.5150 37.8592 34.1409 0.0000 0.0000 0.0000
# 3 71.3646 34.1409 184.9841 0.0000 0.0000 0.0000
# 4 0.0000 0.0000 0.0000 42.3240 0.0000 0.0000
# 5 0.0000 0.0000 0.0000 0.0000 5.7753 0.0000
# 6 0.0000 0.0000 0.0000 0.0000 0.0000 27.6201
#
#
#
# Elastic Compliance Matrix: (Units=1/GPa)
#
#
# Indices 1 2 3 4 5 6 
#
# 1 0.013074 -0.002214 -0.004635 0.000000 0.000000 0.000000
# 2 -0.002214 0.032063 -0.005063 0.000000 0.000000 0.000000
# 3 -0.004635 -0.005063 0.008129 0.000000 0.000000 0.000000
# 4 0.000000 0.000000 0.000000 0.023627 0.000000 0.000000
# 5 0.000000 0.000000 0.000000 0.000000 0.173150 0.000000
# 6 0.000000 0.000000 0.000000 0.000000 0.000000 0.036206
#
#
# Mechanical properties :
#
#
# Convention : Reuss Voigt Hill
#
# Bulk Modulus (GPa) = 33.96713 63.97846 48.97279
# Shear Modulus (GPa) = 15.63052 28.72685 22.17868
#
# Velocity S-wave (km/s) = 2.70925 3.67288 3.22723
# Velocity P-wave (km/s) = 5.07322 6.93042 6.07323
#
# Compressibility (1/GPa) = 0.02944023
#
# Stress axis : x y z
#
# Youngs Moduli (GPa) = 76.48531 31.18907 123.02191
#
# Poissons Ratio (x) = 0.06905 0.57025
# Poissons Ratio (y) = 0.16933 0.62291
# Poissons Ratio (z) = 0.35454 0.15792
#
# Static dielectric constant tensor:
#      x y z
#    x 1.794410 0.000000 0.000000 
#    y 0.000000 1.768620 0.000000 
#    z 0.000000 0.000000 1.809410 
# 
# From -- ./inp_files/54521.got.cif
#   From: 2010.05.17/outbox.cif.g08.bks.cpg/sg68_28_cif.got.tgz:54521.got - 2010.06.03 18:57:09.
