data_PCOD9508236
_publ_section_title
;
Structure prediction by ZEFSAII (Michael W. Deem and Ramdas Pophale) SiO2 
 PCOD9508236
Probable space group: C C C A
;
_chemical_formula_sum "Si O2"
_cell_formula_units_Z 112
_cell_length_a 22.609847
_cell_length_b 15.798104
_cell_length_c 14.447057
_cell_angle_alpha 90.000000
_cell_angle_beta 90.000000
_cell_angle_gamma 90.000000
_cell_volume 5160.383504
_symmetry_space_group_name_H-M "C C C A"
_symmetry_group_IT_number 68
_space_group.IT_coordinate_system_code '2'
_symmetry_cell_setting 'orthorhombic'
loop_
_space_group_symop_operation_xyz
x,y,z
-x,1/2-y,z
x,1/2-y,1/2-z
-x,y,1/2-z
-x,-y,-z
x,1/2+y,-z
-x,1/2+y,1/2+z
x,-y,1/2+z
1/2+x,1/2+y,z
1/2-x,-y,z
1/2+x,-y,1/2-z
1/2-x,1/2+y,1/2-z
1/2-x,1/2-y,-z
1/2+x,y,-z
1/2-x,y,1/2+z
1/2+x,1/2-y,1/2+z
loop_
_atom_site_type_symbol
_atom_site_label
_atom_site_fract_x
_atom_site_fract_y
_atom_site_fract_z
Si Si1 0.196477 0.191491 0.460307
Si Si2 0.065869 0.255270 0.010854
Si Si3 0.127798 0.978620 0.266115
Si Si4 0.080206 0.061261 0.953271
Si Si5 0.322861 0.344021 0.739079
Si Si6 0.225469 0.086314 0.629956
Si Si7 0.551712 0.928431 0.897077
O O1 0.250000 0.250000 0.500000
O O2 0.129116 0.223612 0.443466
O O3 0.211237 0.152400 0.359964
O O4 0.190591 0.130898 0.548733
O O5 0.078124 0.160090 0.976466
O O6 0.057109 0.332495 0.936648
O O7 0.000000 0.250000 0.057907
O O8 0.126728 0.955852 0.373145
O O9 0.184873 0.941809 0.214997
O O10 0.074840 0.938344 0.206663
O O11 0.130464 0.080110 0.257958
O O12 0.016042 0.042990 0.908198
O O13 0.086441 0.997350 0.039160
O O14 0.347125 0.250000 0.750000
O O15 0.277796 0.359067 0.824424
O O16 0.250000 0.000000 0.588251
#
# Coordination Sequence:
#
# PCOD9508236 Si02
#       7
#    16  16  16  16  16  16  16
#     4  12  24  43  73  97 138 181 227 289 348 420
#     4  10  23  43  69 102 134 176 230 284 347 414
#     4  11  23  40  66  90 135 175 226 284 345 411
#     4  10  23  39  68  95 132 178 224 284 343 409
#     4  11  25  43  62  97 134 176 229 282 343 421
#     4  10  24  43  64 100 134 175 224 287 345 416
#     4  10  21  43  64  97 134 172 229 281 339 419
#
# _framework density 21.703813
#
# number of rings (size 3 to 8) (size 9 to 14) (size 15 to 20)
#    0.000    1.429    2.857    1.286    4.000    2.286 
#    0.000    2.143    0.000    0.000    0.000    0.000 
#    0.000    0.000    0.000    0.000    0.000    0.000 
#
# Total GULP energy -312189.278104 kJ/mol
# GULP energy per Si atom -5574.808538 kJ/mol
# Density = 2.165441 g / cm^3
# Si number density = 21.703813 Si / 1000 Ang^3
#
#
#
# Elastic Constant Matrix: (Units=GPa)
#
#
# Indices 1 2 3 4 5 6 
#
# 1 77.1248 15.5161 1.1255 0.0000 0.0000 0.0000
# 2 15.5161 115.9859 23.5156 0.0000 0.0000 0.0000
# 3 1.1255 23.5156 84.6199 0.0000 0.0000 0.0000
# 4 0.0000 0.0000 0.0000 -2.3142 0.0000 0.0000
# 5 0.0000 0.0000 0.0000 0.0000 23.6061 0.0000
# 6 0.0000 0.0000 0.0000 0.0000 0.0000 30.2357
#
#
#
# Elastic Compliance Matrix: (Units=1/GPa)
#
#
# Indices 1 2 3 4 5 6 
#
# 1 0.013334 -0.001852 0.000337 0.000000 0.000000 0.000000
# 2 -0.001852 0.009394 -0.002586 0.000000 0.000000 0.000000
# 3 0.000337 -0.002586 0.012532 0.000000 0.000000 0.000000
# 4 0.000000 0.000000 0.000000 -0.432117 0.000000 0.000000
# 5 0.000000 0.000000 0.000000 0.000000 0.042362 0.000000
# 6 0.000000 0.000000 0.000000 0.000000 0.000000 0.033073
#
#
# Mechanical properties :
#
#
# Convention : Reuss Voigt Hill
#
# Bulk Modulus (GPa) = 36.95786 39.78280 38.37033
# Shear Modulus (GPa) = -16.43647 26.14375 4.85364
#
# Velocity S-wave (km/s) = -2.75491 3.47446 1.49705
# Velocity P-wave (km/s) = 2.63550 5.87073 4.55035
#
# Compressibility (1/GPa) = 0.02705785
#
# Stress axis : x y z
#
# Youngs Moduli (GPa) = 74.99796 106.45341 79.79786
#
# Poissons Ratio (x) = 0.19717 -0.02692
# Poissons Ratio (y) = 0.13891 0.20635
# Poissons Ratio (z) = -0.02530 0.27527
#
# Static dielectric constant tensor:
#      x y z
#    x 1.857580 0.000000 0.000000 
#    y 0.000000 1.877230 0.000000 
#    z 0.000000 0.000000 1.758120 
# 
# From -- ./inp_files/25483.got.cif
#   From: 2010.05.17/outbox.cif.g08.bks.cpg/sg68_13_cif.got.tgz:25483.got - 2010.06.03 18:57:09.
