data_PCOD9508612
_publ_section_title
;
Structure prediction by ZEFSAII (Michael W. Deem and Ramdas Pophale) SiO2 
 PCOD9508612
Probable space group: C C C A
;
_chemical_formula_sum "Si O2"
_cell_formula_units_Z 116
_cell_length_a 8.693736
_cell_length_b 23.113603
_cell_length_c 24.267023
_cell_angle_alpha 90.000000
_cell_angle_beta 90.000000
_cell_angle_gamma 90.000000
_cell_volume 4876.302053
_symmetry_space_group_name_H-M "C C C A"
_symmetry_group_IT_number 68
_space_group.IT_coordinate_system_code '2'
_symmetry_cell_setting 'orthorhombic'
loop_
_space_group_symop_operation_xyz
x,y,z
-x,1/2-y,z
x,1/2-y,1/2-z
-x,y,1/2-z
-x,-y,-z
x,1/2+y,-z
-x,1/2+y,1/2+z
x,-y,1/2+z
1/2+x,1/2+y,z
1/2-x,-y,z
1/2+x,-y,1/2-z
1/2-x,1/2+y,1/2-z
1/2-x,1/2-y,-z
1/2+x,y,-z
1/2-x,y,1/2+z
1/2+x,1/2-y,1/2+z
loop_
_atom_site_type_symbol
_atom_site_label
_atom_site_fract_x
_atom_site_fract_y
_atom_site_fract_z
Si Si1 0.000000 0.750000 0.750000
Si Si2 0.315988 0.849564 0.657883
Si Si3 0.289998 0.720955 0.678099
Si Si4 0.334016 0.398124 0.233377
Si Si5 0.247261 0.829457 0.439897
Si Si6 0.926417 0.979251 0.943086
Si Si7 0.597435 0.341533 0.555530
Si Si8 0.895117 0.070022 0.621867
O O1 0.118997 0.720502 0.706588
O O2 0.351633 0.785976 0.682710
O O3 0.248018 0.887931 0.708845
O O4 0.198091 0.833212 0.609879
O O5 0.453746 0.888235 0.632319
O O6 0.359606 0.666171 0.709374
O O7 0.306338 0.705895 0.613513
O O8 0.500000 0.423079 0.250000
O O9 0.293101 0.431534 0.177662
O O10 0.427196 0.817408 0.441614
O O11 0.176200 0.819362 0.499685
O O12 0.203469 0.895974 0.424036
O O13 0.923363 0.910663 0.945344
O O14 0.750000 0.000000 0.936695
O O15 0.033936 0.009742 0.897435
O O16 0.000000 0.000000 0.000000
#
# Coordination Sequence:
#
# PCOD9508612 Si02
#       8
#     4  16  16  16  16  16  16  16
#     4  12  20  40  62 104 132 184 232 282 334 420
#     4  11  21  41  66  98 131 184 217 278 336 412
#     4  11  23  39  67  96 138 174 230 274 335 404
#     4   9  20  38  65  94 127 171 222 269 331 399
#     4  11  25  42  62 102 136 181 225 286 338 410
#     4  12  23  41  70  98 123 172 227 283 334 407
#     4  12  24  41  66  94 138 178 228 276 352 405
#     4  10  22  40  65  99 134 166 225 290 336 400
#
# _framework density 23.788518
#
# number of rings (size 3 to 8) (size 9 to 14) (size 15 to 20)
#    0.000    1.103    4.138    2.483    0.000    7.172 
#    0.000    1.379    0.000   18.207    0.000    0.000 
#    0.000    0.000    0.000    0.000    0.000    0.000 
#
# Total GULP energy -323665.576746 kJ/mol
# GULP energy per Si atom -5580.440978 kJ/mol
# Density = 2.373437 g / cm^3
# Si number density = 23.788518 Si / 1000 Ang^3
#
#
#
# Elastic Constant Matrix: (Units=GPa)
#
#
# Indices 1 2 3 4 5 6 
#
# 1 63.9277 -2.6364 38.0606 0.0000 0.0000 0.0000
# 2 -2.6364 81.7369 9.5475 0.0000 0.0000 0.0000
# 3 38.0606 9.5475 180.3328 0.0000 0.0000 0.0000
# 4 0.0000 0.0000 0.0000 13.1462 0.0000 0.0000
# 5 0.0000 0.0000 0.0000 0.0000 12.1639 0.0000
# 6 0.0000 0.0000 0.0000 0.0000 0.0000 27.4039
#
#
#
# Elastic Compliance Matrix: (Units=1/GPa)
#
#
# Indices 1 2 3 4 5 6 
#
# 1 0.017976 0.001029 -0.003849 0.000000 0.000000 0.000000
# 2 0.001029 0.012369 -0.000872 0.000000 0.000000 0.000000
# 3 -0.003849 -0.000872 0.006404 0.000000 0.000000 0.000000
# 4 0.000000 0.000000 0.000000 0.076068 0.000000 0.000000
# 5 0.000000 0.000000 0.000000 0.000000 0.082210 0.000000
# 6 0.000000 0.000000 0.000000 0.000000 0.000000 0.036491
#
#
# Mechanical properties :
#
#
# Convention : Reuss Voigt Hill
#
# Bulk Modulus (GPa) = 34.05188 46.21567 40.13378
# Shear Modulus (GPa) = 20.10529 29.27784 24.69157
#
# Velocity S-wave (km/s) = 2.91033 3.51202 3.22524
# Velocity P-wave (km/s) = 5.06348 5.99296 5.54772
#
# Compressibility (1/GPa) = 0.02936695
#
# Stress axis : x y z
#
# Youngs Moduli (GPa) = 55.62837 80.84432 156.15860
#
# Poissons Ratio (x) = -0.08322 0.60099
# Poissons Ratio (y) = -0.05726 0.13619
# Poissons Ratio (z) = 0.21409 0.07051
#
# Static dielectric constant tensor:
#      x y z
#    x 2.128840 0.000000 0.000000 
#    y 0.000000 1.794840 0.000000 
#    z 0.000000 0.000000 1.899970 
# 
# From -- ./inp_files/43541.got.cif
#   From: 2010.05.17/outbox.cif.g08.bks.cpg/sg68_22_cif.got.tgz:43541.got - 2010.06.03 18:57:09.
