data_PCOD9508850
_publ_section_title
;
Structure prediction by ZEFSAII (Michael W. Deem and Ramdas Pophale) SiO2 
 PCOD9508850
Probable space group: C C C A
;
_chemical_formula_sum "Si O2"
_cell_formula_units_Z 80
_cell_length_a 13.845009
_cell_length_b 11.780114
_cell_length_c 22.554500
_cell_angle_alpha 90.000000
_cell_angle_beta 90.000000
_cell_angle_gamma 90.000000
_cell_volume 3678.543868
_symmetry_space_group_name_H-M "C C C A"
_symmetry_group_IT_number 68
_space_group.IT_coordinate_system_code '2'
_symmetry_cell_setting 'orthorhombic'
loop_
_space_group_symop_operation_xyz
x,y,z
-x,1/2-y,z
x,1/2-y,1/2-z
-x,y,1/2-z
-x,-y,-z
x,1/2+y,-z
-x,1/2+y,1/2+z
x,-y,1/2+z
1/2+x,1/2+y,z
1/2-x,-y,z
1/2+x,-y,1/2-z
1/2-x,1/2+y,1/2-z
1/2-x,1/2-y,-z
1/2+x,y,-z
1/2-x,y,1/2+z
1/2+x,1/2-y,1/2+z
loop_
_atom_site_type_symbol
_atom_site_label
_atom_site_fract_x
_atom_site_fract_y
_atom_site_fract_z
Si Si1 0.500000 0.250000 0.868413
Si Si2 0.666657 0.166673 0.479630
Si Si3 0.958688 0.957787 0.562565
Si Si4 0.209381 0.233038 0.180417
Si Si5 0.591186 0.188194 0.120020
Si Si6 0.250000 0.500000 0.883271
O O1 0.522471 0.140307 0.908519
O O2 0.399661 0.224302 0.834560
O O3 0.750000 0.250000 0.500000
O O4 0.635846 0.106975 0.539954
O O5 0.597702 0.251485 0.444291
O O6 0.684291 0.069495 0.430219
O O7 0.935426 0.058301 0.607413
O O8 0.000000 0.000000 0.500000
O O9 0.223517 0.250000 0.250000
O O10 0.303336 0.291474 0.149125
O O11 0.212015 0.101377 0.158612
O O12 0.500000 0.250000 0.151659
#
# Coordination Sequence:
#
# PCOD9508850 Si02
#       6
#     8  16  16  16  16   8
#     4  12  27  44  70 108 138 182 239 296 364 438
#     4  11  21  38  65 106 142 187 222 269 362 436
#     4  12  22  40  69 103 149 182 219 281 357 445
#     4  11  27  49  72  98 133 187 249 306 365 401
#     4  11  24  43  68 103 139 181 241 288 346 435
#     4  10  22  42  72  98 140 186 230 300 342 434
#
# _framework density 21.747734000000001
#
# number of rings (size 3 to 8) (size 9 to 14) (size 15 to 20)
#    0.000    0.800    2.000    6.300    2.800    4.400 
#    0.000    0.000    0.000    0.000    0.000    0.000 
#    0.000    0.000    0.000    0.000    0.000    0.000 
#
# Total GULP energy -223116.698845 kJ/mol
# GULP energy per Si atom -5577.917471 kJ/mol
# Density = 2.169824 g / cm^3
# Si number density = 21.747734 Si / 1000 Ang^3
#
#
#
# Elastic Constant Matrix: (Units=GPa)
#
#
# Indices 1 2 3 4 5 6 
#
# 1 148.2764 36.3185 52.8074 0.0000 0.0000 0.0000
# 2 36.3185 124.4490 37.1245 0.0000 0.0000 0.0000
# 3 52.8074 37.1245 109.9187 0.0000 0.0000 0.0000
# 4 0.0000 0.0000 0.0000 23.9306 0.0000 0.0000
# 5 0.0000 0.0000 0.0000 0.0000 23.1590 0.0000
# 6 0.0000 0.0000 0.0000 0.0000 0.0000 34.5969
#
#
#
# Elastic Compliance Matrix: (Units=1/GPa)
#
#
# Indices 1 2 3 4 5 6 
#
# 1 0.008343 -0.001378 -0.003543 0.000000 0.000000 0.000000
# 2 -0.001378 0.009163 -0.002433 0.000000 0.000000 0.000000
# 3 -0.003543 -0.002433 0.011621 0.000000 0.000000 0.000000
# 4 0.000000 0.000000 0.000000 0.041788 0.000000 0.000000
# 5 0.000000 0.000000 0.000000 0.000000 0.043180 0.000000
# 6 0.000000 0.000000 0.000000 0.000000 0.000000 0.028904
#
#
# Mechanical properties :
#
#
# Convention : Reuss Voigt Hill
#
# Bulk Modulus (GPa) = 69.34530 70.57165 69.95848
# Shear Modulus (GPa) = 30.76651 33.43020 32.09836
#
# Velocity S-wave (km/s) = 3.76533 3.92494 3.84596
# Velocity P-wave (km/s) = 7.13155 7.28428 7.20832
#
# Compressibility (1/GPa) = 0.01442059
#
# Stress axis : x y z
#
# Youngs Moduli (GPa) = 119.85384 109.13083 86.04777
#
# Poissons Ratio (x) = 0.15038 0.30487
# Poissons Ratio (y) = 0.16516 0.20934
# Poissons Ratio (z) = 0.42464 0.26550
#
# Static dielectric constant tensor:
#      x y z
#    x 1.962560 0.000000 0.000000 
#    y 0.000000 1.828530 0.000000 
#    z 0.000000 0.000000 1.776790 
# 
# From -- ./inp_files/45255.got.cif
#   From: 2010.05.17/outbox.cif.g08.bks.cpg/sg68_23_cif.got.tgz:45255.got - 2010.06.03 18:57:09.
