data_PCOD9508997
_publ_section_title
;
Structure prediction by ZEFSAII (Michael W. Deem and Ramdas Pophale) SiO2 
 PCOD9508997
Probable space group: C C C A
;
_chemical_formula_sum "Si O2"
_cell_formula_units_Z 80
_cell_length_a 27.245560
_cell_length_b 9.586641
_cell_length_c 13.331598
_cell_angle_alpha 90.000000
_cell_angle_beta 90.000000
_cell_angle_gamma 90.000000
_cell_volume 3482.125443
_symmetry_space_group_name_H-M "C C C A"
_symmetry_group_IT_number 68
_space_group.IT_coordinate_system_code '2'
_symmetry_cell_setting 'orthorhombic'
loop_
_space_group_symop_operation_xyz
x,y,z
-x,1/2-y,z
x,1/2-y,1/2-z
-x,y,1/2-z
-x,-y,-z
x,1/2+y,-z
-x,1/2+y,1/2+z
x,-y,1/2+z
1/2+x,1/2+y,z
1/2-x,-y,z
1/2+x,-y,1/2-z
1/2-x,1/2+y,1/2-z
1/2-x,1/2-y,-z
1/2+x,y,-z
1/2-x,y,1/2+z
1/2+x,1/2-y,1/2+z
loop_
_atom_site_type_symbol
_atom_site_label
_atom_site_fract_x
_atom_site_fract_y
_atom_site_fract_z
Si Si1 0.425735 0.250000 0.250000
Si Si2 0.779598 0.750000 0.750000
Si Si3 0.750000 0.500000 0.109811
Si Si4 0.800790 0.325881 0.464638
Si Si5 0.456330 0.911670 0.450207
Si Si6 0.104027 0.828701 0.462438
Si Si7 0.500000 0.992968 0.750000
O O1 0.395518 0.200187 0.344170
O O2 0.459215 0.119567 0.212877
O O3 0.753590 0.869783 0.814522
O O4 0.803867 0.835942 0.656522
O O5 0.794810 0.535800 0.033141
O O6 0.750000 0.250000 0.500000
O O7 0.846966 0.233113 0.493165
O O8 0.441308 0.760648 0.489888
O O9 0.500000 0.000000 0.500000
O O10 0.408992 0.009329 0.471791
O O11 0.472738 0.917159 0.334117
#
# Coordination Sequence:
#
# PCOD9508997 Si02
#       7
#     8   8   8  16  16  16   8
#     4   9  18  39  68  93 122 174 227 264 334 420
#     4  10  22  45  70 101 139 186 234 296 361 420
#     4  10  22  44  76  98 138 190 236 300 360 428
#     4  10  24  44  68 100 144 184 234 290 349 423
#     4  11  22  43  68  96 135 172 220 289 338 418
#     4  11  24  41  70 100 134 176 232 280 347 419
#     4   9  18  38  65  92 128 173 209 272 342 399
#
# _framework density 22.974473
#
# number of rings (size 3 to 8) (size 9 to 14) (size 15 to 20)
#    0.000    1.800    2.000    1.200    5.600    3.200 
#   10.800    1.000    0.000    0.000    0.000    0.000 
#    0.000    0.000    0.000    0.000    0.000    0.000 
#
# Total GULP energy -222925.551348 kJ/mol
# GULP energy per Si atom -5573.138784 kJ/mol
# Density = 2.292218 g / cm^3
# Si number density = 22.974473 Si / 1000 Ang^3
#
#
#
# Elastic Constant Matrix: (Units=GPa)
#
#
# Indices 1 2 3 4 5 6 
#
# 1 85.6498 11.1122 33.4388 0.0000 0.0000 0.0000
# 2 11.1122 124.4450 41.9744 0.0000 0.0000 0.0000
# 3 33.4388 41.9744 135.1083 0.0000 0.0000 0.0000
# 4 0.0000 0.0000 0.0000 29.2191 0.0000 0.0000
# 5 0.0000 0.0000 0.0000 0.0000 -2.1747 0.0000
# 6 0.0000 0.0000 0.0000 0.0000 0.0000 28.1910
#
#
#
# Elastic Compliance Matrix: (Units=1/GPa)
#
#
# Indices 1 2 3 4 5 6 
#
# 1 0.012925 -0.000084 -0.003173 0.000000 0.000000 0.000000
# 2 -0.000084 0.008977 -0.002768 0.000000 0.000000 0.000000
# 3 -0.003173 -0.002768 0.009047 0.000000 0.000000 0.000000
# 4 0.000000 0.000000 0.000000 0.034224 0.000000 0.000000
# 5 0.000000 0.000000 0.000000 0.000000 -0.459833 0.000000
# 6 0.000000 0.000000 0.000000 0.000000 0.000000 0.035472
#
#
# Mechanical properties :
#
#
# Convention : Reuss Voigt Hill
#
# Bulk Modulus (GPa) = 52.91323 57.58378 55.24850
# Shear Modulus (GPa) = -14.66969 28.29225 6.81128
#
# Velocity S-wave (km/s) = -2.52964 3.51303 1.72370
# Velocity P-wave (km/s) = 3.81434 6.44778 5.29731
#
# Compressibility (1/GPa) = 0.01889887
#
# Stress axis : x y z
#
# Youngs Moduli (GPa) = 77.36909 111.39789 110.53755
#
# Poissons Ratio (x) = 0.00935 0.35072
# Poissons Ratio (y) = 0.00650 0.30598
# Poissons Ratio (z) = 0.24548 0.30836
#
# Static dielectric constant tensor:
#      x y z
#    x 1.900780 0.000000 0.000000 
#    y 0.000000 2.006720 0.000000 
#    z 0.000000 0.000000 1.893320 
# 
# From -- ./inp_files/17605.got.cif
#   From: 2010.05.17/outbox.cif.g08.bks.cpg/sg68_9_cif.got.tgz:17605.got - 2010.06.03 18:57:09.
