data_PCOD9508825
_publ_section_title
;
Structure prediction by ZEFSAII (Michael W. Deem and Ramdas Pophale) SiO2 
 PCOD9508825
Probable space group: C C C A
;
_chemical_formula_sum "Si O2"
_cell_formula_units_Z 64
_cell_length_a 17.149002
_cell_length_b 9.045537
_cell_length_c 17.285630
_cell_angle_alpha 90.000000
_cell_angle_beta 90.000000
_cell_angle_gamma 90.000000
_cell_volume 2681.380323
_symmetry_space_group_name_H-M "C C C A"
_symmetry_group_IT_number 68
_space_group.IT_coordinate_system_code '2'
_symmetry_cell_setting 'orthorhombic'
loop_
_space_group_symop_operation_xyz
x,y,z
-x,1/2-y,z
x,1/2-y,1/2-z
-x,y,1/2-z
-x,-y,-z
x,1/2+y,-z
-x,1/2+y,1/2+z
x,-y,1/2+z
1/2+x,1/2+y,z
1/2-x,-y,z
1/2+x,-y,1/2-z
1/2-x,1/2+y,1/2-z
1/2-x,1/2-y,-z
1/2+x,y,-z
1/2-x,y,1/2+z
1/2+x,1/2-y,1/2+z
loop_
_atom_site_type_symbol
_atom_site_label
_atom_site_fract_x
_atom_site_fract_y
_atom_site_fract_z
Si Si1 0.081955 0.330511 0.135091
Si Si2 0.000000 0.750000 0.116348
Si Si3 0.000000 0.530092 0.250000
Si Si4 0.776435 0.656784 0.614232
Si Si5 0.846938 0.885379 0.056663
O O1 0.146141 0.211549 0.154579
O O2 0.127068 0.446630 0.077751
O O3 0.000000 0.250000 0.111406
O O4 0.062423 0.429332 0.208637
O O5 0.029420 0.872850 0.177633
O O6 0.070656 0.697057 0.064181
O O7 0.750000 0.500000 0.646772
O O8 0.807380 0.622705 0.526740
O O9 0.711853 0.788016 0.610354
#
# Coordination Sequence:
#
# PCOD9508825 Si02
#       5
#    16   8   8  16  16
#     4  11  24  42  72  97 141 181 229 286 343 406
#     4   9  20  40  80 100 130 181 238 288 350 399
#     4   9  21  44  68  98 134 176 240 292 318 410
#     4  11  24  41  67 107 146 176 223 288 355 422
#     4  10  22  42  69 104 142 176 224 288 355 420
#
# _framework density 23.868303999999998
#
# number of rings (size 3 to 8) (size 9 to 14) (size 15 to 20)
#    0.000    1.750    0.000    4.125    8.750    1.000 
#    0.000    0.000   38.500    0.000    0.000    0.000 
#    0.000    0.000    0.000    0.000    0.000    0.000 
#
# Total GULP energy -178713.688534 kJ/mol
# GULP energy per Si atom -5584.802767 kJ/mol
# Density = 2.381398 g / cm^3
# Si number density = 23.868304 Si / 1000 Ang^3
#
#
#
# Elastic Constant Matrix: (Units=GPa)
#
#
# Indices 1 2 3 4 5 6 
#
# 1 127.9673 68.3117 6.1504 0.0000 0.0000 0.0000
# 2 68.3117 161.1957 26.3869 0.0000 0.0000 0.0000
# 3 6.1504 26.3869 40.5273 0.0000 0.0000 0.0000
# 4 0.0000 0.0000 0.0000 41.5395 0.0000 0.0000
# 5 0.0000 0.0000 0.0000 0.0000 63.4509 0.0000
# 6 0.0000 0.0000 0.0000 0.0000 0.0000 68.3213
#
#
#
# Elastic Compliance Matrix: (Units=1/GPa)
#
#
# Indices 1 2 3 4 5 6 
#
# 1 0.010171 -0.004542 0.001413 0.000000 0.000000 0.000000
# 2 -0.004542 0.008972 -0.005152 0.000000 0.000000 0.000000
# 3 0.001413 -0.005152 0.027815 0.000000 0.000000 0.000000
# 4 0.000000 0.000000 0.000000 0.024073 0.000000 0.000000
# 5 0.000000 0.000000 0.000000 0.000000 0.015760 0.000000
# 6 0.000000 0.000000 0.000000 0.000000 0.000000 0.014637
#
#
# Mechanical properties :
#
#
# Convention : Reuss Voigt Hill
#
# Bulk Modulus (GPa) = 32.89820 59.04313 45.97066
# Shear Modulus (GPa) = 39.02572 49.91846 44.47209
#
# Velocity S-wave (km/s) = 4.04795 4.57816 4.32120
# Velocity P-wave (km/s) = 5.97169 7.26201 6.64823
#
# Compressibility (1/GPa) = 0.03039680
#
# Stress axis : x y z
#
# Youngs Moduli (GPa) = 98.31879 111.46184 35.95219
#
# Poissons Ratio (x) = 0.50622 -0.05082
# Poissons Ratio (y) = 0.44653 0.18523
# Poissons Ratio (z) = -0.13897 0.57427
#
# Static dielectric constant tensor:
#      x y z
#    x 1.874080 0.000000 0.000000 
#    y 0.000000 2.225040 0.000000 
#    z 0.000000 0.000000 1.951920 
# 
# From -- ./inp_files/45010.got.cif
#   From: 2010.05.17/outbox.cif.g08.bks.cpg/sg68_23_cif.got.tgz:45010.got - 2010.06.03 18:57:09.
