data_PCOD9508271
_publ_section_title
;
Structure prediction by ZEFSAII (Michael W. Deem and Ramdas Pophale) SiO2 
 PCOD9508271
Probable space group: C C C A
;
_chemical_formula_sum "Si O2"
_cell_formula_units_Z 68
_cell_length_a 16.235085
_cell_length_b 10.408898
_cell_length_c 21.599523
_cell_angle_alpha 90.000000
_cell_angle_beta 90.000000
_cell_angle_gamma 90.000000
_cell_volume 3650.089218
_symmetry_space_group_name_H-M "C C C A"
_symmetry_group_IT_number 68
_space_group.IT_coordinate_system_code '2'
_symmetry_cell_setting 'orthorhombic'
loop_
_space_group_symop_operation_xyz
x,y,z
-x,1/2-y,z
x,1/2-y,1/2-z
-x,y,1/2-z
-x,-y,-z
x,1/2+y,-z
-x,1/2+y,1/2+z
x,-y,1/2+z
1/2+x,1/2+y,z
1/2-x,-y,z
1/2+x,-y,1/2-z
1/2-x,1/2+y,1/2-z
1/2-x,1/2-y,-z
1/2+x,y,-z
1/2-x,y,1/2+z
1/2+x,1/2-y,1/2+z
loop_
_atom_site_type_symbol
_atom_site_label
_atom_site_fract_x
_atom_site_fract_y
_atom_site_fract_z
Si Si1 0.500000 0.750000 0.750000
Si Si2 0.151452 0.480642 0.529257
Si Si3 0.186161 0.815244 0.814429
Si Si4 0.902837 0.743496 0.560600
Si Si5 0.368333 0.396240 0.166221
O O1 0.558310 0.665110 0.794684
O O2 0.250000 0.500000 0.535837
O O3 0.118494 0.625628 0.523258
O O4 0.126495 0.383221 0.475377
O O5 0.117385 0.417957 0.592990
O O6 0.166277 0.750000 0.750000
O O7 0.143496 0.752860 0.873941
O O8 0.284475 0.815325 0.825349
O O9 0.154500 0.961272 0.810860
O O10 0.000000 0.750000 0.570843
#
# Coordination Sequence:
#
# PCOD9508271 Si02
#       5
#     4  16  16  16  16
#     4  12  24  40  70 100 118 168 226 246 336 384
#     4  11  22  44  66  91 136 171 210 269 328 375
#     4  10  21  44  64  88 134 169 209 261 327 381
#     4  11  24  41  64  98 128 171 220 266 319 382
#     4  10  22  41  64  94 129 166 204 273 316 375
#
# _framework density 18.629681000000001
#
# number of rings (size 3 to 8) (size 9 to 14) (size 15 to 20)
#    0.000    1.412    5.882    1.412    1.647    4.235 
#    8.471    0.000    0.000    0.000    0.000    0.000 
#    0.000    0.000    0.000    0.000    0.000    0.000 
#
# Total GULP energy -189844.149526 kJ/mol
# GULP energy per Si atom -5583.651457 kJ/mol
# Density = 1.858728 g / cm^3
# Si number density = 18.629681 Si / 1000 Ang^3
#
#
#
# Elastic Constant Matrix: (Units=GPa)
#
#
# Indices 1 2 3 4 5 6 
#
# 1 100.6291 21.3251 32.8809 0.0000 0.0000 0.0000
# 2 21.3251 62.3163 60.4738 0.0000 0.0000 0.0000
# 3 32.8809 60.4738 108.6901 0.0000 0.0000 0.0000
# 4 0.0000 0.0000 0.0000 8.4451 0.0000 0.0000
# 5 0.0000 0.0000 0.0000 0.0000 -3.1656 0.0000
# 6 0.0000 0.0000 0.0000 0.0000 0.0000 12.4895
#
#
#
# Elastic Compliance Matrix: (Units=1/GPa)
#
#
# Indices 1 2 3 4 5 6 
#
# 1 0.011067 -0.001170 -0.002697 0.000000 0.000000 0.000000
# 2 -0.001170 0.035004 -0.019122 0.000000 0.000000 0.000000
# 3 -0.002697 -0.019122 0.020656 0.000000 0.000000 0.000000
# 4 0.000000 0.000000 0.000000 0.118412 0.000000 0.000000
# 5 0.000000 0.000000 0.000000 0.000000 -0.315898 0.000000
# 6 0.000000 0.000000 0.000000 0.000000 0.000000 0.080067
#
#
# Mechanical properties :
#
#
# Convention : Reuss Voigt Hill
#
# Bulk Modulus (GPa) = 48.19562 55.66613 51.93088
# Shear Modulus (GPa) = 2271.02753 14.01751 1142.52252
#
# Velocity S-wave (km/s) = 34.95259 2.74602 24.79137
# Velocity P-wave (km/s) = 40.67970 6.32451 29.11046
#
# Compressibility (1/GPa) = 0.02074877
#
# Stress axis : x y z
#
# Youngs Moduli (GPa) = 90.36162 28.56810 48.41305
#
# Poissons Ratio (x) = 0.03342 0.13057
# Poissons Ratio (y) = 0.10571 0.92575
# Poissons Ratio (z) = 0.24371 0.54628
#
# Static dielectric constant tensor:
#      x y z
#    x 1.652410 0.000000 0.000000 
#    y 0.000000 1.635570 0.000000 
#    z 0.000000 0.000000 1.634380 
# 
# From -- ./inp_files/35874.got.cif
#   From: 2010.05.17/outbox.cif.g08.bks.cpg/sg68_18_cif.got.tgz:35874.got - 2010.06.03 18:57:09.
