data_PCOD9508333
_publ_section_title
;
Structure prediction by ZEFSAII (Michael W. Deem and Ramdas Pophale) SiO2 
 PCOD9508333
Probable space group: C C C A
;
_chemical_formula_sum "Si O2"
_cell_formula_units_Z 100
_cell_length_a 25.806567
_cell_length_b 14.049148
_cell_length_c 11.541686
_cell_angle_alpha 90.000000
_cell_angle_beta 90.000000
_cell_angle_gamma 90.000000
_cell_volume 4184.556898
_symmetry_space_group_name_H-M "C C C A"
_symmetry_group_IT_number 68
_space_group.IT_coordinate_system_code '2'
_symmetry_cell_setting 'orthorhombic'
loop_
_space_group_symop_operation_xyz
x,y,z
-x,1/2-y,z
x,1/2-y,1/2-z
-x,y,1/2-z
-x,-y,-z
x,1/2+y,-z
-x,1/2+y,1/2+z
x,-y,1/2+z
1/2+x,1/2+y,z
1/2-x,-y,z
1/2+x,-y,1/2-z
1/2-x,1/2+y,1/2-z
1/2-x,1/2-y,-z
1/2+x,y,-z
1/2-x,y,1/2+z
1/2+x,1/2-y,1/2+z
loop_
_atom_site_type_symbol
_atom_site_label
_atom_site_fract_x
_atom_site_fract_y
_atom_site_fract_z
Si Si1 0.411085 0.035415 0.858691
Si Si2 0.195515 0.151494 0.083239
Si Si3 0.000000 0.250000 0.596999
Si Si4 0.500000 0.250000 0.750000
Si Si5 0.305129 0.717896 0.868369
Si Si6 0.583293 0.762243 0.409748
Si Si7 0.000000 0.577650 0.250000
Si Si8 0.139401 0.474581 0.894194
O O1 0.413278 0.149792 0.878134
O O2 0.465689 0.988900 0.829907
O O3 0.380980 0.000147 0.737865
O O4 0.392777 0.000305 0.987753
O O5 0.200997 0.194495 0.955126
O O6 0.246576 0.181685 0.151107
O O7 0.139087 0.193940 0.115748
O O8 0.189673 0.040056 0.091448
O O9 0.947082 0.221916 0.529598
O O10 0.977538 0.342835 0.662729
O O11 0.461172 0.191909 0.670887
O O12 0.329667 0.750000 0.750000
O O13 0.341478 0.633270 0.911653
#
# Coordination Sequence:
#
# PCOD9508333 Si02
#       8
#    16  16   8   4  16  16   8  16
#     4  12  26  44  74 110 157 205 265 328 392 481
#     4  11  25  45  73 104 152 195 267 325 393 475
#     4  10  24  44  72 104 158 210 264 320 390 490
#     4  10  22  34  66  98 132 188 236 312 368 460
#     4  11  26  47  73 108 148 208 259 331 405 482
#     4  11  22  43  66 106 148 202 255 318 395 452
#     4  11  25  44  69 113 154 206 266 318 399 473
#     4  12  26  47  74 113 150 210 258 329 400 475
#
# _framework density 23.897393999999998
#
# number of rings (size 3 to 8) (size 9 to 14) (size 15 to 20)
#    0.000    0.800    1.600    4.800    3.360    5.120 
#    0.000    3.200    0.000    0.000    0.000    0.000 
#    0.000    0.000    0.000    0.000    0.000    0.000 
#
# Total GULP energy -278457.137114 kJ/mol
# GULP energy per Si atom -5569.142742 kJ/mol
# Density = 2.384300 g / cm^3
# Si number density = 23.897394 Si / 1000 Ang^3
#
#
#
# Elastic Constant Matrix: (Units=GPa)
#
#
# Indices 1 2 3 4 5 6 
#
# 1 102.0864 -5.2856 25.7095 0.0000 0.0000 0.0000
# 2 -5.2856 64.9111 21.2373 0.0000 0.0000 0.0000
# 3 25.7095 21.2373 115.2580 0.0000 0.0000 0.0000
# 4 0.0000 0.0000 0.0000 45.8696 0.0000 0.0000
# 5 0.0000 0.0000 0.0000 0.0000 4.5133 0.0000
# 6 0.0000 0.0000 0.0000 0.0000 0.0000 22.8426
#
#
#
# Elastic Compliance Matrix: (Units=1/GPa)
#
#
# Indices 1 2 3 4 5 6 
#
# 1 0.010559 0.001735 -0.002675 0.000000 0.000000 0.000000
# 2 0.001735 0.016679 -0.003460 0.000000 0.000000 0.000000
# 3 -0.002675 -0.003460 0.009910 0.000000 0.000000 0.000000
# 4 0.000000 0.000000 0.000000 0.021801 0.000000 0.000000
# 5 0.000000 0.000000 0.000000 0.000000 0.221566 0.000000
# 6 0.000000 0.000000 0.000000 0.000000 0.000000 0.043778
#
#
# Mechanical properties :
#
#
# Convention : Reuss Voigt Hill
#
# Bulk Modulus (GPa) = 35.27573 40.61978 37.94776
# Shear Modulus (GPa) = 14.59670 30.68473 22.64071
#
# Velocity S-wave (km/s) = 2.47413 3.58721 3.08135
# Velocity P-wave (km/s) = 4.79115 5.84738 5.34542
#
# Compressibility (1/GPa) = 0.02834810
#
# Stress axis : x y z
#
# Youngs Moduli (GPa) = 94.70477 59.95531 100.90344
#
# Poissons Ratio (x) = -0.10402 0.26992
# Poissons Ratio (y) = -0.16431 0.34915
# Poissons Ratio (z) = 0.25334 0.20746
#
# Static dielectric constant tensor:
#      x y z
#    x 2.288310 0.000000 0.000000 
#    y 0.000000 1.932310 0.000000 
#    z 0.000000 0.000000 2.088370 
# 
# From -- ./inp_files/17761.got.cif
#   From: 2010.05.17/outbox.cif.g08.bks.cpg/sg68_9_cif.got.tgz:17761.got - 2010.06.03 18:57:09.
