data_PCOD9508873
_publ_section_title
;
Structure prediction by ZEFSAII (Michael W. Deem and Ramdas Pophale) SiO2 
 PCOD9508873
Probable space group: C C C A
;
_chemical_formula_sum "Si O2"
_cell_formula_units_Z 88
_cell_length_a 18.329830
_cell_length_b 15.836291
_cell_length_c 13.578326
_cell_angle_alpha 90.000000
_cell_angle_beta 90.000000
_cell_angle_gamma 90.000000
_cell_volume 3941.469244
_symmetry_space_group_name_H-M "C C C A"
_symmetry_group_IT_number 68
_space_group.IT_coordinate_system_code '2'
_symmetry_cell_setting 'orthorhombic'
loop_
_space_group_symop_operation_xyz
x,y,z
-x,1/2-y,z
x,1/2-y,1/2-z
-x,y,1/2-z
-x,-y,-z
x,1/2+y,-z
-x,1/2+y,1/2+z
x,-y,1/2+z
1/2+x,1/2+y,z
1/2-x,-y,z
1/2+x,-y,1/2-z
1/2-x,1/2+y,1/2-z
1/2-x,1/2-y,-z
1/2+x,y,-z
1/2-x,y,1/2+z
1/2+x,1/2-y,1/2+z
loop_
_atom_site_type_symbol
_atom_site_label
_atom_site_fract_x
_atom_site_fract_y
_atom_site_fract_z
Si Si1 0.618080 0.315053 0.657563
Si Si2 0.071320 0.995563 0.934340
Si Si3 0.706832 0.913596 0.596806
Si Si4 0.220612 0.158918 0.698656
Si Si5 0.841696 0.326688 0.487609
Si Si6 0.000000 0.565462 0.750000
O O1 0.615525 0.250000 0.750000
O O2 0.696399 0.361555 0.665859
O O3 0.622119 0.255636 0.561179
O O4 0.550649 0.376647 0.679088
O O5 0.111522 0.907129 0.954571
O O6 0.049036 0.991085 0.820547
O O7 0.128219 0.071532 0.951277
O O8 0.000000 0.000000 0.000000
O O9 0.698159 0.903183 0.713897
O O10 0.760176 0.839932 0.558320
O O11 0.750000 0.000000 0.576356
O O12 0.221886 0.250000 0.750000
O O13 0.169205 0.166351 0.604176
#
# Coordination Sequence:
#
# PCOD9508873 Si02
#       6
#    16  16  16  16  16   8
#     4  11  20  40  66 100 122 161 220 278 332 381
#     4  11  27  42  62  95 133 182 221 265 333 400
#     4  10  22  43  63  95 130 174 226 266 324 399
#     4  11  23  39  69  99 131 166 217 281 333 391
#     4  11  23  42  67  98 130 171 221 278 332 392
#     4  12  25  42  70  94 137 176 222 278 331 406
#
# _framework density 22.326701
#
# number of rings (size 3 to 8) (size 9 to 14) (size 15 to 20)
#    0.000    1.091    5.455    1.909    5.091    2.182 
#    0.000    0.000    0.000    1.091    0.000    0.000 
#    0.000    0.000    0.000    0.000    0.000    0.000 
#
# Total GULP energy -246080.517100 kJ/mol
# GULP energy per Si atom -5592.739025 kJ/mol
# Density = 2.227588 g / cm^3
# Si number density = 22.326701 Si / 1000 Ang^3
#
#
#
# Elastic Constant Matrix: (Units=GPa)
#
#
# Indices 1 2 3 4 5 6 
#
# 1 119.2878 33.5825 36.7104 0.0000 0.0000 0.0000
# 2 33.5825 52.1041 6.5272 0.0000 0.0000 0.0000
# 3 36.7104 6.5272 98.2470 0.0000 0.0000 0.0000
# 4 0.0000 0.0000 0.0000 30.2500 0.0000 0.0000
# 5 0.0000 0.0000 0.0000 0.0000 37.6499 0.0000
# 6 0.0000 0.0000 0.0000 0.0000 0.0000 1.0706
#
#
#
# Elastic Compliance Matrix: (Units=1/GPa)
#
#
# Indices 1 2 3 4 5 6 
#
# 1 0.011521 -0.006944 -0.003843 0.000000 0.000000 0.000000
# 2 -0.006944 0.023539 0.001031 0.000000 0.000000 0.000000
# 3 -0.003843 0.001031 0.011546 0.000000 0.000000 0.000000
# 4 0.000000 0.000000 0.000000 0.033058 0.000000 0.000000
# 5 0.000000 0.000000 0.000000 0.000000 0.026561 0.000000
# 6 0.000000 0.000000 0.000000 0.000000 0.000000 0.934036
#
#
# Mechanical properties :
#
#
# Convention : Reuss Voigt Hill
#
# Bulk Modulus (GPa) = 36.91070 47.03098 41.97084
# Shear Modulus (GPa) = 4.67813 26.64869 15.66341
#
# Velocity S-wave (km/s) = 1.44909 3.45857 2.65156
# Velocity P-wave (km/s) = 4.40088 6.08766 5.31165
#
# Compressibility (1/GPa) = 0.02709242
#
# Stress axis : x y z
#
# Youngs Moduli (GPa) = 86.79951 42.48303 86.60959
#
# Poissons Ratio (x) = 0.29500 0.33288
# Poissons Ratio (y) = 0.60273 -0.08928
# Poissons Ratio (z) = 0.33361 -0.04379
#
# Static dielectric constant tensor:
#      x y z
#    x 1.840000 0.000000 0.000000 
#    y 0.000000 1.826220 0.000000 
#    z 0.000000 0.000000 1.823920 
# 
# From -- ./inp_files/23585.got.cif
#   From: 2010.05.17/outbox.cif.g08.bks.cpg/sg68_12_cif.got.tgz:23585.got - 2010.06.03 18:57:09.
