data_PCOD9508468
_publ_section_title
;
Structure prediction by ZEFSAII (Michael W. Deem and Ramdas Pophale) SiO2 
 PCOD9508468
Probable space group: C C C A
;
_chemical_formula_sum "Si O2"
_cell_formula_units_Z 72
_cell_length_a 11.612146
_cell_length_b 11.327901
_cell_length_c 24.082011
_cell_angle_alpha 90.000000
_cell_angle_beta 90.000000
_cell_angle_gamma 90.000000
_cell_volume 3167.777596
_symmetry_space_group_name_H-M "C C C A"
_symmetry_group_IT_number 68
_space_group.IT_coordinate_system_code '2'
_symmetry_cell_setting 'orthorhombic'
loop_
_space_group_symop_operation_xyz
x,y,z
-x,1/2-y,z
x,1/2-y,1/2-z
-x,y,1/2-z
-x,-y,-z
x,1/2+y,-z
-x,1/2+y,1/2+z
x,-y,1/2+z
1/2+x,1/2+y,z
1/2-x,-y,z
1/2+x,-y,1/2-z
1/2-x,1/2+y,1/2-z
1/2-x,1/2-y,-z
1/2+x,y,-z
1/2-x,y,1/2+z
1/2+x,1/2-y,1/2+z
loop_
_atom_site_type_symbol
_atom_site_label
_atom_site_fract_x
_atom_site_fract_y
_atom_site_fract_z
Si Si1 0.309948 0.750000 0.250000
Si Si2 0.309704 0.610553 0.596012
Si Si3 0.122141 0.683822 0.322987
Si Si4 0.500000 0.250000 0.657410
Si Si5 0.449793 0.489498 0.904558
Si Si6 0.750000 0.500000 0.006591
O O1 0.214050 0.660697 0.274402
O O2 0.394354 0.779261 0.300859
O O3 0.250000 0.500000 0.627900
O O4 0.320147 0.727563 0.631646
O O5 0.436525 0.563841 0.580749
O O6 0.243771 0.609790 0.537060
O O7 0.098976 0.561501 0.352420
O O8 0.000000 0.750000 0.309457
O O9 0.476621 0.139561 0.617986
O O10 0.359712 0.490528 0.954240
#
# Coordination Sequence:
#
# PCOD9508468 Si02
#       6
#     8  16  16   8  16   8
#     4  11  23  46  64  96 123 171 226 270 354 391
#     4   9  21  40  63  97 127 171 218 272 320 401
#     4  10  22  43  68  95 131 170 223 283 335 403
#     4  11  26  44  64  96 134 176 216 287 338 402
#     4  11  22  45  61  94 138 167 223 271 336 407
#     4  10  22  38  66  98 126 190 208 272 340 394
#
# _framework density 22.728867999999999
#
# number of rings (size 3 to 8) (size 9 to 14) (size 15 to 20)
#    0.667    1.111    0.000    3.667    0.000    0.889 
#   38.000    0.000    0.000    0.000    0.000    0.000 
#    0.000    0.000    0.000    0.000    0.000    0.000 
#
# Total GULP energy -200844.454736 kJ/mol
# GULP energy per Si atom -5579.012632 kJ/mol
# Density = 2.267714 g / cm^3
# Si number density = 22.728868 Si / 1000 Ang^3
#
#
#
# Elastic Constant Matrix: (Units=GPa)
#
#
# Indices 1 2 3 4 5 6 
#
# 1 110.6939 12.1194 44.9761 0.0000 0.0000 0.0000
# 2 12.1194 104.7652 20.8557 0.0000 0.0000 0.0000
# 3 44.9761 20.8557 86.4377 0.0000 0.0000 0.0000
# 4 0.0000 0.0000 0.0000 18.3563 0.0000 0.0000
# 5 0.0000 0.0000 0.0000 0.0000 -37.8391 0.0000
# 6 0.0000 0.0000 0.0000 0.0000 0.0000 20.9646
#
#
#
# Elastic Compliance Matrix: (Units=1/GPa)
#
#
# Indices 1 2 3 4 5 6 
#
# 1 0.011458 -0.000146 -0.005927 0.000000 0.000000 0.000000
# 2 -0.000146 0.010029 -0.002344 0.000000 0.000000 0.000000
# 3 -0.005927 -0.002344 0.015218 0.000000 0.000000 0.000000
# 4 0.000000 0.000000 0.000000 0.054477 0.000000 0.000000
# 5 0.000000 0.000000 0.000000 0.000000 -0.026428 0.000000
# 6 0.000000 0.000000 0.000000 0.000000 0.000000 0.047699
#
#
# Mechanical properties :
#
#
# Convention : Reuss Voigt Hill
#
# Bulk Modulus (GPa) = 50.32118 50.86659 50.59389
# Shear Modulus (GPa) = 36.78880 15.22606 26.00743
#
# Velocity S-wave (km/s) = 4.02754 2.59105 3.38634
# Velocity P-wave (km/s) = 6.61936 5.60176 6.13171
#
# Compressibility (1/GPa) = 0.01987235
#
# Stress axis : x y z
#
# Youngs Moduli (GPa) = 87.27531 99.71476 65.70962
#
# Poissons Ratio (x) = 0.01452 0.38945
# Poissons Ratio (y) = 0.01271 0.15402
# Poissons Ratio (z) = 0.51726 0.23372
#
# Static dielectric constant tensor:
#      x y z
#    x 2.109310 0.000000 0.000000 
#    y 0.000000 1.990650 0.000000 
#    z 0.000000 0.000000 1.887240 
# 
# From -- ./inp_files/50050.got.cif
#   From: 2010.05.17/outbox.cif.g08.bks.cpg/sg68_26_cif.got.tgz:50050.got - 2010.06.03 18:57:09.
