data_PCOD9508194
_publ_section_title
;
Structure prediction by ZEFSAII (Michael W. Deem and Ramdas Pophale) SiO2 
 PCOD9508194
Probable space group: C C C A
;
_chemical_formula_sum "Si O2"
_cell_formula_units_Z 68
_cell_length_a 28.709820
_cell_length_b 9.828533
_cell_length_c 12.536107
_cell_angle_alpha 90.000000
_cell_angle_beta 90.000000
_cell_angle_gamma 90.000000
_cell_volume 3537.381174
_symmetry_space_group_name_H-M "C C C A"
_symmetry_group_IT_number 68
_space_group.IT_coordinate_system_code '2'
_symmetry_cell_setting 'orthorhombic'
loop_
_space_group_symop_operation_xyz
x,y,z
-x,1/2-y,z
x,1/2-y,1/2-z
-x,y,1/2-z
-x,-y,-z
x,1/2+y,-z
-x,1/2+y,1/2+z
x,-y,1/2+z
1/2+x,1/2+y,z
1/2-x,-y,z
1/2+x,-y,1/2-z
1/2-x,1/2+y,1/2-z
1/2-x,1/2-y,-z
1/2+x,y,-z
1/2-x,y,1/2+z
1/2+x,1/2-y,1/2+z
loop_
_atom_site_type_symbol
_atom_site_label
_atom_site_fract_x
_atom_site_fract_y
_atom_site_fract_z
Si Si1 0.500000 0.750000 0.750000
Si Si2 0.163688 0.750000 0.750000
Si Si3 0.836291 0.250000 0.750000
Si Si4 0.918210 0.646441 0.108415
Si Si5 0.198125 0.009456 0.888556
Si Si6 0.882724 0.882630 0.956494
O O1 0.535499 0.830460 0.824907
O O2 0.188810 0.626175 0.683396
O O3 0.134887 0.675678 0.843905
O O4 0.872306 0.156203 0.816300
O O5 0.805631 0.354874 0.816434
O O6 0.920115 0.499759 0.057835
O O7 0.905991 0.763041 0.024122
O O8 0.250000 0.000000 0.935107
O O9 0.159340 0.042381 0.978503
#
# Coordination Sequence:
#
# PCOD9508194 Si02
#       6
#     4   8   8  16  16  16
#     4  10  24  40  74  96 120 168 204 276 328 408
#     4  12  23  40  65  93 125 185 214 264 324 369
#     4   9  19  39  60  86 127 173 204 267 320 380
#     4  10  21  42  65  93 127 161 216 256 340 381
#     4  11  23  38  61  94 130 174 226 265 309 375
#     4  11  23  41  64  91 133 173 210 270 319 392
#
# _framework density 19.223261000000001
#
# number of rings (size 3 to 8) (size 9 to 14) (size 15 to 20)
#    0.000    1.412    4.706    0.706    0.000    2.824 
#    0.000    0.000    0.000    1.412    0.000    0.000 
#    0.000    0.000    0.000    0.000    0.000    0.000 
#
# Total GULP energy -189510.187222 kJ/mol
# GULP energy per Si atom -5573.829036 kJ/mol
# Density = 1.917951 g / cm^3
# Si number density = 19.223261 Si / 1000 Ang^3
#
#
#
# Elastic Constant Matrix: (Units=GPa)
#
#
# Indices 1 2 3 4 5 6 
#
# 1 96.5642 50.6213 48.5626 0.0000 0.0000 0.0000
# 2 50.6213 79.3585 34.3251 0.0000 0.0000 0.0000
# 3 48.5626 34.3251 97.9826 0.0000 0.0000 0.0000
# 4 0.0000 0.0000 0.0000 30.6726 0.0000 0.0000
# 5 0.0000 0.0000 0.0000 0.0000 9.1655 0.0000
# 6 0.0000 0.0000 0.0000 0.0000 0.0000 16.9997
#
#
#
# Elastic Compliance Matrix: (Units=1/GPa)
#
#
# Indices 1 2 3 4 5 6 
#
# 1 0.017947 -0.008958 -0.005757 0.000000 0.000000 0.000000
# 2 -0.008958 0.019323 -0.002329 0.000000 0.000000 0.000000
# 3 -0.005757 -0.002329 0.013875 0.000000 0.000000 0.000000
# 4 0.000000 0.000000 0.000000 0.032602 0.000000 0.000000
# 5 0.000000 0.000000 0.000000 0.000000 0.109105 0.000000
# 6 0.000000 0.000000 0.000000 0.000000 0.000000 0.058825
#
#
# Mechanical properties :
#
#
# Convention : Reuss Voigt Hill
#
# Bulk Modulus (GPa) = 58.62850 60.10257 59.36554
# Shear Modulus (GPa) = 17.15560 20.72732 18.94146
#
# Velocity S-wave (km/s) = 2.99061 3.28722 3.14242
# Velocity P-wave (km/s) = 6.51843 6.76322 6.64196
#
# Compressibility (1/GPa) = 0.01705655
#
# Stress axis : x y z
#
# Youngs Moduli (GPa) = 55.71977 51.75265 72.07159
#
# Poissons Ratio (x) = 0.46360 0.41490
# Poissons Ratio (y) = 0.49914 0.16787
# Poissons Ratio (z) = 0.32077 0.12055
#
# Static dielectric constant tensor:
#      x y z
#    x 1.681410 0.000000 0.000000 
#    y 0.000000 1.479960 0.000000 
#    z 0.000000 0.000000 1.696740 
# 
# From -- ./inp_files/11874.got.cif
#   From: 2010.05.17/outbox.cif.g08.bks.cpg/sg68_6_cif.got.tgz:11874.got - 2010.06.03 18:57:09.
