data_PCOD9508309
_publ_section_title
;
Structure prediction by ZEFSAII (Michael W. Deem and Ramdas Pophale) SiO2 
 PCOD9508309
Probable space group: C C C A
;
_chemical_formula_sum "Si O2"
_cell_formula_units_Z 88
_cell_length_a 11.136560
_cell_length_b 17.346672
_cell_length_c 21.014238
_cell_angle_alpha 90.000000
_cell_angle_beta 90.000000
_cell_angle_gamma 90.000000
_cell_volume 4059.577853
_symmetry_space_group_name_H-M "C C C A"
_symmetry_group_IT_number 68
_space_group.IT_coordinate_system_code '2'
_symmetry_cell_setting 'orthorhombic'
loop_
_space_group_symop_operation_xyz
x,y,z
-x,1/2-y,z
x,1/2-y,1/2-z
-x,y,1/2-z
-x,-y,-z
x,1/2+y,-z
-x,1/2+y,1/2+z
x,-y,1/2+z
1/2+x,1/2+y,z
1/2-x,-y,z
1/2+x,-y,1/2-z
1/2-x,1/2+y,1/2-z
1/2-x,1/2-y,-z
1/2+x,y,-z
1/2-x,y,1/2+z
1/2+x,1/2-y,1/2+z
loop_
_atom_site_type_symbol
_atom_site_label
_atom_site_fract_x
_atom_site_fract_y
_atom_site_fract_z
Si Si1 0.701189 0.750000 0.250000
Si Si2 0.500000 0.378193 0.750000
Si Si3 0.000000 0.750000 0.071168
Si Si4 0.688377 0.665561 0.859818
Si Si5 0.250000 0.500000 0.945065
Si Si6 0.250000 0.500000 0.138082
Si Si7 0.358014 0.354471 0.520589
Si Si8 0.997934 0.447617 0.109570
O O1 0.614013 0.677420 0.242276
O O2 0.780752 0.767492 0.189103
O O3 0.506355 0.423896 0.816387
O O4 0.943540 0.818176 0.113799
O O5 0.897704 0.711472 0.027762
O O6 0.721334 0.582062 0.829181
O O7 0.776595 0.670301 0.920123
O O8 0.370358 0.484523 0.904483
O O9 0.287133 0.576440 0.984985
O O10 0.124345 0.492990 0.099775
O O11 0.481004 0.382232 0.555983
#
# Coordination Sequence:
#
# PCOD9508309 Si02
#       8
#     8   8   8  16   8   8  16  16
#     4  11  24  45  74  94 134 191 238 307 344 447
#     4  11  24  44  72  96 134 181 246 293 350 430
#     4  12  26  39  68 113 144 190 234 324 356 432
#     4  11  24  44  73  98 147 185 250 287 381 422
#     4  12  25  43  74 110 154 189 249 296 364 450
#     4  10  21  49  68 100 140 195 223 296 358 448
#     4  11  23  43  67 104 148 196 238 297 367 441
#     4  11  24  43  73 104 142 193 242 296 358 433
#
# _framework density 21.677130999999999
#
# number of rings (size 3 to 8) (size 9 to 14) (size 15 to 20)
#    0.000    0.909    3.636    5.455    5.091    1.091 
#    0.000    0.000    0.000    0.000    0.000    0.000 
#    0.000    0.000    0.000    0.000    0.000    0.000 
#
# Total GULP energy -245290.368225 kJ/mol
# GULP energy per Si atom -5574.781096 kJ/mol
# Density = 2.162779 g / cm^3
# Si number density = 21.677131 Si / 1000 Ang^3
#
#
#
# Elastic Constant Matrix: (Units=GPa)
#
#
# Indices 1 2 3 4 5 6 
#
# 1 104.7621 31.0449 34.4036 0.0000 0.0000 0.0000
# 2 31.0449 81.4558 51.1301 0.0000 0.0000 0.0000
# 3 34.4036 51.1301 100.9339 0.0000 0.0000 0.0000
# 4 0.0000 0.0000 0.0000 17.4907 0.0000 0.0000
# 5 0.0000 0.0000 0.0000 0.0000 40.5634 0.0000
# 6 0.0000 0.0000 0.0000 0.0000 0.0000 -32.0557
#
#
#
# Elastic Compliance Matrix: (Units=1/GPa)
#
#
# Indices 1 2 3 4 5 6 
#
# 1 0.011149 -0.002733 -0.002416 0.000000 0.000000 0.000000
# 2 -0.002733 0.018670 -0.008526 0.000000 0.000000 0.000000
# 3 -0.002416 -0.008526 0.015050 0.000000 0.000000 0.000000
# 4 0.000000 0.000000 0.000000 0.057173 0.000000 0.000000
# 5 0.000000 0.000000 0.000000 0.000000 0.024653 0.000000
# 6 0.000000 0.000000 0.000000 0.000000 0.000000 -0.031196
#
#
# Mechanical properties :
#
#
# Convention : Reuss Voigt Hill
#
# Bulk Modulus (GPa) = 57.07972 57.81210 57.44591
# Shear Modulus (GPa) = 38.85369 16.57124 27.71246
#
# Velocity S-wave (km/s) = 4.23825 2.76788 3.57938
# Velocity P-wave (km/s) = 7.09501 6.07803 6.60612
#
# Compressibility (1/GPa) = 0.01751936
#
# Stress axis : x y z
#
# Youngs Moduli (GPa) = 89.69787 53.56179 66.44500
#
# Poissons Ratio (x) = 0.14636 0.16051
# Poissons Ratio (y) = 0.24511 0.56653
# Poissons Ratio (z) = 0.21669 0.45668
#
# Static dielectric constant tensor:
#      x y z
#    x 1.802780 0.000000 0.000000 
#    y 0.000000 1.885200 0.000000 
#    z 0.000000 0.000000 1.810220 
# 
# From -- ./inp_files/37538.got.cif
#   From: 2010.05.17/outbox.cif.g08.bks.cpg/sg68_19_cif.got.tgz:37538.got - 2010.06.03 18:57:09.
