data_PCOD9508387
_publ_section_title
;
Structure prediction by ZEFSAII (Michael W. Deem and Ramdas Pophale) SiO2 
 PCOD9508387
Probable space group: C C C A
;
_chemical_formula_sum "Si O2"
_cell_formula_units_Z 104
_cell_length_a 19.517486
_cell_length_b 18.841742
_cell_length_c 12.789255
_cell_angle_alpha 90.000000
_cell_angle_beta 90.000000
_cell_angle_gamma 90.000000
_cell_volume 4703.164574
_symmetry_space_group_name_H-M "C C C A"
_symmetry_group_IT_number 68
_space_group.IT_coordinate_system_code '2'
_symmetry_cell_setting 'orthorhombic'
loop_
_space_group_symop_operation_xyz
x,y,z
-x,1/2-y,z
x,1/2-y,1/2-z
-x,y,1/2-z
-x,-y,-z
x,1/2+y,-z
-x,1/2+y,1/2+z
x,-y,1/2+z
1/2+x,1/2+y,z
1/2-x,-y,z
1/2+x,-y,1/2-z
1/2-x,1/2+y,1/2-z
1/2-x,1/2-y,-z
1/2+x,y,-z
1/2-x,y,1/2+z
1/2+x,1/2-y,1/2+z
loop_
_atom_site_type_symbol
_atom_site_label
_atom_site_fract_x
_atom_site_fract_y
_atom_site_fract_z
Si Si1 0.381137 0.167696 0.550478
Si Si2 0.640977 0.542385 0.406784
Si Si3 0.000000 0.400738 0.750000
Si Si4 0.647445 0.620815 0.825151
Si Si5 0.000000 0.250000 0.996053
Si Si6 0.750000 0.500000 0.071993
Si Si7 0.291321 0.378743 0.777952
Si Si8 0.007131 0.907852 0.025442
O O1 0.348226 0.162837 0.435139
O O2 0.432683 0.232905 0.560406
O O3 0.328862 0.174006 0.644286
O O4 0.435620 0.100427 0.539604
O O5 0.646521 0.463614 0.354858
O O6 0.697322 0.541271 0.498494
O O7 0.664335 0.599754 0.321888
O O8 0.568329 0.562598 0.456896
O O9 0.925446 0.364267 0.769613
O O10 0.993139 0.443258 0.640010
O O11 0.713868 0.636544 0.756399
O O12 0.984697 0.175553 0.940677
O O13 0.710277 0.552618 0.146866
#
# Coordination Sequence:
#
# PCOD9508387 Si02
#       8
#    16  16   8  16   8   8  16  16
#     4   9  21  41  67  93 130 179 225 274 337 388
#     4  12  22  36  60  99 132 177 214 270 341 411
#     4  10  22  37  62  96 124 173 216 278 338 398
#     4  11  21  37  59 101 130 169 217 269 343 409
#     4   8  20  49  65  90 126 176 224 296 314 370
#     4  12  20  38  58  86 146 176 206 266 332 406
#     4  12  21  37  63  94 134 181 206 264 338 413
#     4   9  22  40  65  94 127 172 226 280 326 391
#
# _framework density 22.112770000000001
#
# number of rings (size 3 to 8) (size 9 to 14) (size 15 to 20)
#    0.923    0.615    4.615    0.923    0.000    4.615 
#    0.000    1.538    0.000   12.000    0.000    0.000 
#    0.000    0.000    0.000    0.000    0.000    0.000 
#
# Total GULP energy -289594.543267 kJ/mol
# GULP energy per Si atom -5569.125832 kJ/mol
# Density = 2.206244 g / cm^3
# Si number density = 22.112770 Si / 1000 Ang^3
#
#
#
# Elastic Constant Matrix: (Units=GPa)
#
#
# Indices 1 2 3 4 5 6 
#
# 1 159.1548 6.8081 112.0197 0.0000 0.0000 0.0000
# 2 6.8081 41.1131 9.7138 0.0000 0.0000 0.0000
# 3 112.0197 9.7138 133.2546 0.0000 0.0000 0.0000
# 4 0.0000 0.0000 0.0000 22.5547 0.0000 0.0000
# 5 0.0000 0.0000 0.0000 0.0000 34.6649 0.0000
# 6 0.0000 0.0000 0.0000 0.0000 0.0000 31.6925
#
#
#
# Elastic Compliance Matrix: (Units=1/GPa)
#
#
# Indices 1 2 3 4 5 6 
#
# 1 0.015399 0.000517 -0.012983 0.000000 0.000000 0.000000
# 2 0.000517 0.024767 -0.002240 0.000000 0.000000 0.000000
# 3 -0.012983 -0.002240 0.018581 0.000000 0.000000 0.000000
# 4 0.000000 0.000000 0.000000 0.044337 0.000000 0.000000
# 5 0.000000 0.000000 0.000000 0.000000 0.028848 0.000000
# 6 0.000000 0.000000 0.000000 0.000000 0.000000 0.031553
#
#
# Mechanical properties :
#
#
# Convention : Reuss Voigt Hill
#
# Bulk Modulus (GPa) = 34.08789 65.62285 49.85537
# Shear Modulus (GPa) = 24.67016 31.44783 28.05900
#
# Velocity S-wave (km/s) = 3.34376 3.77524 3.56603
# Velocity P-wave (km/s) = 5.50968 6.98170 6.28891
#
# Compressibility (1/GPa) = 0.02933593
#
# Stress axis : x y z
#
# Youngs Moduli (GPa) = 64.94055 40.37667 53.81714
#
# Poissons Ratio (x) = -0.02089 0.69868
# Poissons Ratio (y) = -0.03360 0.12057
# Poissons Ratio (z) = 0.84309 0.09046
#
# Static dielectric constant tensor:
#      x y z
#    x 1.805990 0.000000 0.000000 
#    y 0.000000 0.758980 0.000000 
#    z 0.000000 0.000000 1.806460 
# 
# From -- ./inp_files/14810.got.cif
#   From: 2010.05.17/outbox.cif.g08.bks.cpg/sg68_8_cif.got.tgz:14810.got - 2010.06.03 18:57:09.
