data_PCOD9508145
_publ_section_title
;
Structure prediction by ZEFSAII (Michael W. Deem and Ramdas Pophale) SiO2 
 PCOD9508145
Probable space group: C C C A
;
_chemical_formula_sum "Si O2"
_cell_formula_units_Z 116
_cell_length_a 25.626387
_cell_length_b 16.561254
_cell_length_c 12.064515
_cell_angle_alpha 90.000000
_cell_angle_beta 90.000000
_cell_angle_gamma 90.000000
_cell_volume 5120.241746
_symmetry_space_group_name_H-M "C C C A"
_symmetry_group_IT_number 68
_space_group.IT_coordinate_system_code '2'
_symmetry_cell_setting 'orthorhombic'
loop_
_space_group_symop_operation_xyz
x,y,z
-x,1/2-y,z
x,1/2-y,1/2-z
-x,y,1/2-z
-x,-y,-z
x,1/2+y,-z
-x,1/2+y,1/2+z
x,-y,1/2+z
1/2+x,1/2+y,z
1/2-x,-y,z
1/2+x,-y,1/2-z
1/2-x,1/2+y,1/2-z
1/2-x,1/2-y,-z
1/2+x,y,-z
1/2-x,y,1/2+z
1/2+x,1/2-y,1/2+z
loop_
_atom_site_type_symbol
_atom_site_label
_atom_site_fract_x
_atom_site_fract_y
_atom_site_fract_z
Si Si1 0.999920 0.585833 0.941801
Si Si2 0.612033 0.835668 0.093877
Si Si3 0.701474 0.112304 0.430620
Si Si4 0.101341 0.078879 0.192524
Si Si5 0.430108 0.210188 0.427078
Si Si6 0.500000 0.250000 0.250000
Si Si7 0.355784 0.407987 0.211372
Si Si8 0.310653 0.074135 0.520344
O O1 0.040465 0.581577 0.839154
O O2 0.939792 0.608660 0.922820
O O3 0.026597 0.652111 0.020020
O O4 0.000000 0.500000 0.000000
O O5 0.618294 0.849640 0.224337
O O6 0.664360 0.861171 0.030616
O O7 0.596302 0.754712 0.030091
O O8 0.674027 0.133154 0.314432
O O9 0.762626 0.131728 0.444963
O O10 0.699708 0.015563 0.436049
O O11 0.134685 0.091171 0.080570
O O12 0.116440 0.990991 0.245861
O O13 0.456596 0.274879 0.342699
O O14 0.394348 0.153898 0.349871
O O15 0.316046 0.429573 0.111987
#
# Coordination Sequence:
#
# PCOD9508145 Si02
#       8
#    16  16  16  16  16   4  16  16
#     4  12  24  44  69 105 138 179 234 293 356 428
#     4  12  24  45  64 101 140 187 230 283 353 436
#     4  10  23  38  70  99 137 176 236 297 355 410
#     4  11  24  42  73 104 139 182 233 299 359 421
#     4  12  26  43  69  98 141 184 235 286 353 434
#     4  12  24  44  68  94 132 188 230 276 342 418
#     4  11  22  43  68 101 135 176 231 300 346 417
#     4  10  21  41  67 105 130 179 237 293 353 411
#
# _framework density 22.655180000000001
#
# number of rings (size 3 to 8) (size 9 to 14) (size 15 to 20)
#    0.000    0.828    4.138    3.724    3.862    1.655 
#    0.000    2.069    3.034    0.000    0.000    0.000 
#    0.000    0.000    0.000    0.000    0.000    0.000 
#
# Total GULP energy -323320.919075 kJ/mol
# GULP energy per Si atom -5574.498605 kJ/mol
# Density = 2.260362 g / cm^3
# Si number density = 22.655180 Si / 1000 Ang^3
#
#
#
# Elastic Constant Matrix: (Units=GPa)
#
#
# Indices 1 2 3 4 5 6 
#
# 1 95.1867 10.3227 16.7519 0.0000 0.0000 0.0000
# 2 10.3227 63.7824 12.3501 0.0000 0.0000 0.0000
# 3 16.7519 12.3501 121.7484 0.0000 0.0000 0.0000
# 4 0.0000 0.0000 0.0000 57.2117 0.0000 0.0000
# 5 0.0000 0.0000 0.0000 0.0000 -133.2780 0.0000
# 6 0.0000 0.0000 0.0000 0.0000 0.0000 -20.7288
#
#
#
# Elastic Compliance Matrix: (Units=1/GPa)
#
#
# Indices 1 2 3 4 5 6 
#
# 1 0.010906 -0.001504 -0.001348 0.000000 0.000000 0.000000
# 2 -0.001504 0.016200 -0.001436 0.000000 0.000000 0.000000
# 3 -0.001348 -0.001436 0.008545 0.000000 0.000000 0.000000
# 4 0.000000 0.000000 0.000000 0.017479 0.000000 0.000000
# 5 0.000000 0.000000 0.000000 0.000000 -0.007503 0.000000
# 6 0.000000 0.000000 0.000000 0.000000 0.000000 -0.048242
#
#
# Mechanical properties :
#
#
# Convention : Reuss Voigt Hill
#
# Bulk Modulus (GPa) = 36.93601 39.95187 38.44394
# Shear Modulus (GPa) = 333.64617 -3.27282 165.18668
#
# Velocity S-wave (km/s) = 12.14871 -1.20323 8.54820
# Velocity P-wave (km/s) = 14.59888 3.96771 10.69743
#
# Compressibility (1/GPa) = 0.02707385
#
# Stress axis : x y z
#
# Youngs Moduli (GPa) = 91.69246 61.72899 117.02960
#
# Poissons Ratio (x) = 0.09284 0.15776
# Poissons Ratio (y) = 0.13791 0.16810
# Poissons Ratio (z) = 0.12361 0.08866
#
# Static dielectric constant tensor:
#      x y z
#    x 1.926980 0.000000 0.000000 
#    y 0.000000 1.869370 0.000000 
#    z 0.000000 0.000000 1.824180 
# 
# From -- ./inp_files/17256.got.cif
#   From: 2010.05.17/outbox.cif.g08.bks.cpg/sg68_9_cif.got.tgz:17256.got - 2010.06.03 18:57:09.
