data_PCOD9508255
_publ_section_title
;
Structure prediction by ZEFSAII (Michael W. Deem and Ramdas Pophale) SiO2 
 PCOD9508255
Probable space group: C C C A
;
_chemical_formula_sum "Si O2"
_cell_formula_units_Z 64
_cell_length_a 26.242697
_cell_length_b 11.302002
_cell_length_c 9.211194
_cell_angle_alpha 90.000000
_cell_angle_beta 90.000000
_cell_angle_gamma 90.000000
_cell_volume 2731.994213
_symmetry_space_group_name_H-M "C C C A"
_symmetry_group_IT_number 68
_space_group.IT_coordinate_system_code '2'
_symmetry_cell_setting 'orthorhombic'
loop_
_space_group_symop_operation_xyz
x,y,z
-x,1/2-y,z
x,1/2-y,1/2-z
-x,y,1/2-z
-x,-y,-z
x,1/2+y,-z
-x,1/2+y,1/2+z
x,-y,1/2+z
1/2+x,1/2+y,z
1/2-x,-y,z
1/2+x,-y,1/2-z
1/2-x,1/2+y,1/2-z
1/2-x,1/2-y,-z
1/2+x,y,-z
1/2-x,y,1/2+z
1/2+x,1/2-y,1/2+z
loop_
_atom_site_type_symbol
_atom_site_label
_atom_site_fract_x
_atom_site_fract_y
_atom_site_fract_z
Si Si1 0.500000 0.750000 0.250000
Si Si2 0.702163 0.750000 0.250000
Si Si3 0.345079 0.975334 0.095353
Si Si4 0.787171 0.906776 0.187378
Si Si5 0.044886 0.594391 0.997822
Si Si6 0.500000 0.250000 0.250000
O O1 0.465033 0.825629 0.143071
O O2 0.667062 0.645856 0.186174
O O3 0.746518 0.806030 0.146718
O O4 0.401543 0.969078 0.029312
O O5 0.332661 0.091576 0.193598
O O6 0.309576 0.963869 0.955506
O O7 0.750000 0.000000 0.265258
O O8 0.000000 0.500000 0.000000
O O9 0.035843 0.671757 0.143246
#
# Coordination Sequence:
#
# PCOD9508255 Si02
#       6
#     4   8  16  16  16   4
#     4  10  24  46  68  96 134 182 234 292 360 416
#     4  10  21  43  68  99 139 172 229 289 338 426
#     4  11  24  40  68  99 131 184 224 277 364 412
#     4  10  22  41  63  97 135 171 223 277 341 419
#     4  11  25  46  72  99 147 182 245 303 356 430
#     4  10  26  48  68 104 142 186 244 298 368 416
#
# _framework density 23.426110999999999
#
# number of rings (size 3 to 8) (size 9 to 14) (size 15 to 20)
#    0.000    1.500    0.000    4.500    7.000    3.000 
#    9.000    0.000    0.000    0.000    0.000    0.000 
#    0.000    0.000    0.000    0.000    0.000    0.000 
#
# Total GULP energy -178268.588866 kJ/mol
# GULP energy per Si atom -5570.893402 kJ/mol
# Density = 2.337279 g / cm^3
# Si number density = 23.426111 Si / 1000 Ang^3
#
#
#
# Elastic Constant Matrix: (Units=GPa)
#
#
# Indices 1 2 3 4 5 6 
#
# 1 139.2596 27.3816 32.3081 0.0000 0.0000 0.0000
# 2 27.3816 48.6726 12.0892 0.0000 0.0000 0.0000
# 3 32.3081 12.0892 124.0777 0.0000 0.0000 0.0000
# 4 0.0000 0.0000 0.0000 4.9998 0.0000 0.0000
# 5 0.0000 0.0000 0.0000 0.0000 -91.6953 0.0000
# 6 0.0000 0.0000 0.0000 0.0000 0.0000 28.0729
#
#
#
# Elastic Compliance Matrix: (Units=1/GPa)
#
#
# Indices 1 2 3 4 5 6 
#
# 1 0.008440 -0.004306 -0.001778 0.000000 0.000000 0.000000
# 2 -0.004306 0.023252 -0.001144 0.000000 0.000000 0.000000
# 3 -0.001778 -0.001144 0.008634 0.000000 0.000000 0.000000
# 4 0.000000 0.000000 0.000000 0.200010 0.000000 0.000000
# 5 0.000000 0.000000 0.000000 0.000000 -0.010906 0.000000
# 6 0.000000 0.000000 0.000000 0.000000 0.000000 0.035622
#
#
# Mechanical properties :
#
#
# Convention : Reuss Voigt Hill
#
# Bulk Modulus (GPa) = 38.65653 50.61864 44.63759
# Shear Modulus (GPa) = 17.35314 4.29087 10.82200
#
# Velocity S-wave (km/s) = 2.72464 1.35486 2.15166
# Velocity P-wave (km/s) = 5.14155 4.90940 5.02682
#
# Compressibility (1/GPa) = 0.02586885
#
# Stress axis : x y z
#
# Youngs Moduli (GPa) = 118.48198 43.00643 115.82200
#
# Poissons Ratio (x) = 0.18521 0.20594
# Poissons Ratio (y) = 0.51024 0.13252
# Poissons Ratio (z) = 0.21067 0.04921
#
# Static dielectric constant tensor:
#      x y z
#    x 1.934320 0.000000 0.000000 
#    y 0.000000 2.101430 0.000000 
#    z 0.000000 0.000000 1.910240 
# 
# From -- ./inp_files/4136.got.cif
#   From: 2010.05.17/outbox.cif.g08.bks.cpg/sg68_3_cif.got.tgz:4136.got - 2010.06.03 18:57:09.
