data_PCOD9508558
_publ_section_title
;
Structure prediction by ZEFSAII (Michael W. Deem and Ramdas Pophale) SiO2 
 PCOD9508558
Probable space group: C C C A
;
_chemical_formula_sum "Si O2"
_cell_formula_units_Z 92
_cell_length_a 9.925432
_cell_length_b 20.315837
_cell_length_c 20.739293
_cell_angle_alpha 90.000000
_cell_angle_beta 90.000000
_cell_angle_gamma 90.000000
_cell_volume 4181.942771
_symmetry_space_group_name_H-M "C C C A"
_symmetry_group_IT_number 68
_space_group.IT_coordinate_system_code '2'
_symmetry_cell_setting 'orthorhombic'
loop_
_space_group_symop_operation_xyz
x,y,z
-x,1/2-y,z
x,1/2-y,1/2-z
-x,y,1/2-z
-x,-y,-z
x,1/2+y,-z
-x,1/2+y,1/2+z
x,-y,1/2+z
1/2+x,1/2+y,z
1/2-x,-y,z
1/2+x,-y,1/2-z
1/2-x,1/2+y,1/2-z
1/2-x,1/2-y,-z
1/2+x,y,-z
1/2-x,y,1/2+z
1/2+x,1/2-y,1/2+z
loop_
_atom_site_type_symbol
_atom_site_label
_atom_site_fract_x
_atom_site_fract_y
_atom_site_fract_z
Si Si1 0.500000 0.750000 0.750000
Si Si2 0.100655 0.108174 0.408631
Si Si3 0.432281 0.320347 0.455079
Si Si4 0.122738 0.138803 0.842007
Si Si5 0.500000 0.028833 0.250000
Si Si6 0.750000 0.500000 0.978170
Si Si7 0.300953 0.605517 0.411502
Si Si8 0.750000 0.500000 0.182750
O O1 0.586589 0.702394 0.797458
O O2 0.086747 0.149733 0.474536
O O3 0.221951 0.132651 0.363708
O O4 0.139766 0.034699 0.432940
O O5 0.949267 0.112509 0.383356
O O6 0.500000 0.250000 0.460052
O O7 0.534472 0.358085 0.407491
O O8 0.282449 0.328472 0.425217
O O9 0.073450 0.076447 0.801103
O O10 0.380651 0.985252 0.223164
O O11 0.694499 0.558341 0.024707
O O12 0.216447 0.562020 0.361536
#
# Coordination Sequence:
#
# PCOD9508558 Si02
#       8
#     4  16  16  16   8   8  16   8
#     4  10  24  52  72  82 132 200 230 268 330 420
#     4  11  24  37  68 107 137 171 227 290 348 411
#     4  11  22  44  68  95 134 182 230 281 347 416
#     4  11  24  45  70  96 131 184 234 271 344 416
#     4  11  26  43  66 100 132 191 232 269 336 422
#     4   9  20  37  64  96 152 189 199 270 366 442
#     4  10  22  40  61 100 139 178 222 280 354 409
#     4  11  24  41  68  92 134 175 233 280 332 418
#
# _framework density 21.999344000000001
#
# number of rings (size 3 to 8) (size 9 to 14) (size 15 to 20)
#    0.000    1.391    2.609    2.609    4.870    2.783 
#    0.000    0.000    0.000    1.043    0.000    0.000 
#    0.000    0.000    0.000    0.000    0.000    0.000 
#
# Total GULP energy -256932.134708 kJ/mol
# GULP energy per Si atom -5585.481189 kJ/mol
# Density = 2.194927 g / cm^3
# Si number density = 21.999344 Si / 1000 Ang^3
#
#
#
# Elastic Constant Matrix: (Units=GPa)
#
#
# Indices 1 2 3 4 5 6 
#
# 1 173.2606 47.5148 38.4182 0.0000 0.0000 0.0000
# 2 47.5148 91.1912 34.2988 0.0000 0.0000 0.0000
# 3 38.4182 34.2988 79.3767 0.0000 0.0000 0.0000
# 4 0.0000 0.0000 0.0000 7.1835 0.0000 0.0000
# 5 0.0000 0.0000 0.0000 0.0000 32.8073 0.0000
# 6 0.0000 0.0000 0.0000 0.0000 0.0000 34.0484
#
#
#
# Elastic Compliance Matrix: (Units=1/GPa)
#
#
# Indices 1 2 3 4 5 6 
#
# 1 0.007035 -0.002848 -0.002174 0.000000 0.000000 0.000000
# 2 -0.002848 0.014247 -0.004778 0.000000 0.000000 0.000000
# 3 -0.002174 -0.004778 0.015715 0.000000 0.000000 0.000000
# 4 0.000000 0.000000 0.000000 0.139207 0.000000 0.000000
# 5 0.000000 0.000000 0.000000 0.000000 0.030481 0.000000
# 6 0.000000 0.000000 0.000000 0.000000 0.000000 0.029370
#
#
# Mechanical properties :
#
#
# Convention : Reuss Voigt Hill
#
# Bulk Modulus (GPa) = 57.48120 64.92132 61.20126
# Shear Modulus (GPa) = 19.12388 29.71431 24.41910
#
# Velocity S-wave (km/s) = 2.95158 3.67916 3.33527
# Velocity P-wave (km/s) = 6.14826 6.90094 6.53544
#
# Compressibility (1/GPa) = 0.01739699
#
# Stress axis : x y z
#
# Youngs Moduli (GPa) = 142.15244 70.19161 63.63342
#
# Poissons Ratio (x) = 0.19988 0.13836
# Poissons Ratio (y) = 0.40479 0.30403
# Poissons Ratio (z) = 0.30909 0.33536
#
# Static dielectric constant tensor:
#      x y z
#    x 1.833550 0.000000 0.000000 
#    y 0.000000 1.824480 0.000000 
#    z 0.000000 0.000000 1.868680 
# 
# From -- ./inp_files/36364.got.cif
#   From: 2010.05.17/outbox.cif.g08.bks.cpg/sg68_19_cif.got.tgz:36364.got - 2010.06.03 18:57:09.
