data_PCOD9508685
_publ_section_title
;
Structure prediction by ZEFSAII (Michael W. Deem and Ramdas Pophale) SiO2 
 PCOD9508685
Probable space group: C C C A
;
_chemical_formula_sum "Si O2"
_cell_formula_units_Z 112
_cell_length_a 27.714400
_cell_length_b 11.590503
_cell_length_c 14.404834
_cell_angle_alpha 90.000000
_cell_angle_beta 90.000000
_cell_angle_gamma 90.000000
_cell_volume 4627.176039
_symmetry_space_group_name_H-M "C C C A"
_symmetry_group_IT_number 68
_space_group.IT_coordinate_system_code '2'
_symmetry_cell_setting 'orthorhombic'
loop_
_space_group_symop_operation_xyz
x,y,z
-x,1/2-y,z
x,1/2-y,1/2-z
-x,y,1/2-z
-x,-y,-z
x,1/2+y,-z
-x,1/2+y,1/2+z
x,-y,1/2+z
1/2+x,1/2+y,z
1/2-x,-y,z
1/2+x,-y,1/2-z
1/2-x,1/2+y,1/2-z
1/2-x,1/2-y,-z
1/2+x,y,-z
1/2-x,y,1/2+z
1/2+x,1/2-y,1/2+z
loop_
_atom_site_type_symbol
_atom_site_label
_atom_site_fract_x
_atom_site_fract_y
_atom_site_fract_z
Si Si1 0.938784 0.843810 0.170407
Si Si2 0.343434 0.464094 0.251361
Si Si3 0.731630 0.701822 0.650264
Si Si4 0.338287 0.133512 0.597571
Si Si5 0.798481 0.557381 0.432329
Si Si6 0.994834 0.556778 0.900835
Si Si7 0.070942 0.232839 0.046921
O O1 0.950386 0.750000 0.250000
O O2 0.887013 0.893413 0.205249
O O3 0.975079 0.952998 0.162437
O O4 0.936377 0.788580 0.065128
O O5 0.310278 0.388293 0.321780
O O6 0.357641 0.573419 0.310862
O O7 0.310748 0.501313 0.164944
O O8 0.746809 0.750000 0.750000
O O9 0.781612 0.657670 0.608300
O O10 0.710026 0.807931 0.592318
O O11 0.340353 0.049482 0.507903
O O12 0.372765 0.236932 0.569930
O O13 0.750000 0.500000 0.467702
O O14 0.954504 0.654101 0.914718
O O15 0.044921 0.628400 0.895126
O O16 0.000000 0.500000 0.000000
#
# Coordination Sequence:
#
# PCOD9508685 Si02
#       7
#    16  16  16  16  16  16  16
#     4  11  23  45  76 110 148 194 249 313 385 462
#     4  11  23  42  67 102 149 186 258 319 371 459
#     4  10  22  41  62  94 142 189 249 315 373 452
#     4  12  24  41  67 101 139 201 251 307 387 455
#     4  11  22  40  62  94 140 193 251 310 379 449
#     4   9  22  48  76 107 147 189 240 318 385 457
#     4  10  23  47  74 109 150 194 250 315 388 471
#
# _framework density 24.204829
#
# number of rings (size 3 to 8) (size 9 to 14) (size 15 to 20)
#    0.000    1.429    1.429    4.714    0.000    4.571 
#    0.000   12.143    0.000    3.429    0.000    0.000 
#    0.000    0.000    0.000    0.000    0.000    0.000 
#
# Total GULP energy -312893.553534 kJ/mol
# GULP energy per Si atom -5587.384885 kJ/mol
# Density = 2.414974 g / cm^3
# Si number density = 24.204829 Si / 1000 Ang^3
#
#
#
# Elastic Constant Matrix: (Units=GPa)
#
#
# Indices 1 2 3 4 5 6 
#
# 1 106.8952 22.5040 43.4788 0.0000 0.0000 0.0000
# 2 22.5040 61.2923 39.2539 0.0000 0.0000 0.0000
# 3 43.4788 39.2539 104.0253 0.0000 0.0000 0.0000
# 4 0.0000 0.0000 0.0000 27.1128 0.0000 0.0000
# 5 0.0000 0.0000 0.0000 0.0000 31.2621 0.0000
# 6 0.0000 0.0000 0.0000 0.0000 0.0000 25.3990
#
#
#
# Elastic Compliance Matrix: (Units=1/GPa)
#
#
# Indices 1 2 3 4 5 6 
#
# 1 0.011374 -0.001492 -0.004191 0.000000 0.000000 0.000000
# 2 -0.001492 0.021710 -0.007569 0.000000 0.000000 0.000000
# 3 -0.004191 -0.007569 0.014221 0.000000 0.000000 0.000000
# 4 0.000000 0.000000 0.000000 0.036883 0.000000 0.000000
# 5 0.000000 0.000000 0.000000 0.000000 0.031988 0.000000
# 6 0.000000 0.000000 0.000000 0.000000 0.000000 0.039372
#
#
# Mechanical properties :
#
#
# Convention : Reuss Voigt Hill
#
# Bulk Modulus (GPa) = 48.07320 53.63179 50.85249
# Shear Modulus (GPa) = 26.45727 27.88652 27.17189
#
# Velocity S-wave (km/s) = 3.30973 3.39795 3.35413
# Velocity P-wave (km/s) = 5.87451 6.13191 6.00459
#
# Compressibility (1/GPa) = 0.02080161
#
# Stress axis : x y z
#
# Youngs Moduli (GPa) = 87.92283 46.06082 70.31999
#
# Poissons Ratio (x) = 0.06872 0.29469
# Poissons Ratio (y) = 0.13118 0.53224
# Poissons Ratio (z) = 0.36846 0.34863
#
# Static dielectric constant tensor:
#      x y z
#    x 1.943510 0.000000 0.000000 
#    y 0.000000 1.990350 0.000000 
#    z 0.000000 0.000000 1.906850 
# 
# From -- ./inp_files/26428.got.cif
#   From: 2010.05.17/outbox.cif.g08.bks.cpg/sg68_14_cif.got.tgz:26428.got - 2010.06.03 18:57:09.
