data_PCOD9508486
_publ_section_title
;
Structure prediction by ZEFSAII (Michael W. Deem and Ramdas Pophale) SiO2 
 PCOD9508486
Probable space group: C C C A
;
_chemical_formula_sum "Si O2"
_cell_formula_units_Z 48
_cell_length_a 5.117203
_cell_length_b 13.823077
_cell_length_c 27.193822
_cell_angle_alpha 90.000000
_cell_angle_beta 90.000000
_cell_angle_gamma 90.000000
_cell_volume 1923.568354
_symmetry_space_group_name_H-M "C C C A"
_symmetry_group_IT_number 68
_space_group.IT_coordinate_system_code '2'
_symmetry_cell_setting 'orthorhombic'
loop_
_space_group_symop_operation_xyz
x,y,z
-x,1/2-y,z
x,1/2-y,1/2-z
-x,y,1/2-z
-x,-y,-z
x,1/2+y,-z
-x,1/2+y,1/2+z
x,-y,1/2+z
1/2+x,1/2+y,z
1/2-x,-y,z
1/2+x,-y,1/2-z
1/2-x,1/2+y,1/2-z
1/2-x,1/2-y,-z
1/2+x,y,-z
1/2-x,y,1/2+z
1/2+x,1/2-y,1/2+z
loop_
_atom_site_type_symbol
_atom_site_label
_atom_site_fract_x
_atom_site_fract_y
_atom_site_fract_z
Si Si1 0.506495 0.567816 0.621286
Si Si2 0.256519 0.617245 0.781244
Si Si3 0.199387 0.358211 0.520665
O O1 0.250000 0.500000 0.637771
O O2 0.647736 0.634888 0.662777
O O3 0.402163 0.629634 0.575615
O O4 0.750000 0.500000 0.606589
O O5 0.500000 0.648868 0.750000
O O6 0.250000 0.500000 0.781718
O O7 0.000000 0.646170 0.750000
O O8 0.250000 0.250000 0.500000
O O9 0.484069 0.402563 0.515304
#
# Coordination Sequence:
#
# PCOD9508486 Si02
#       3
#    16  16  16
#     4  11  21  33  55  87 120 158 206 257 306 367
#     4   9  16  28  46  73 113 150 180 230 300 363
#     4  10  22  39  56  78 116 164 207 251 308 370
#
# _framework density 24.953620999999998
#
# number of rings (size 3 to 8) (size 9 to 14) (size 15 to 20)
#    0.000    2.000    0.000    7.000    0.000    4.000 
#    0.000    0.000    0.000    0.000    0.000    4.667 
#    0.000  128.000    0.000    0.000    0.000    0.000 
#
# Total GULP energy -133671.853681 kJ/mol
# GULP energy per Si atom -5569.660570 kJ/mol
# Density = 2.489683 g / cm^3
# Si number density = 24.953621 Si / 1000 Ang^3
#
#
#
# Elastic Constant Matrix: (Units=GPa)
#
#
# Indices 1 2 3 4 5 6 
#
# 1 258.0997 14.8776 90.2670 0.0000 0.0000 0.0000
# 2 14.8776 99.9417 34.7369 0.0000 0.0000 0.0000
# 3 90.2670 34.7369 225.3890 0.0000 0.0000 0.0000
# 4 0.0000 0.0000 0.0000 -17.8035 0.0000 0.0000
# 5 0.0000 0.0000 0.0000 0.0000 58.6259 0.0000
# 6 0.0000 0.0000 0.0000 0.0000 0.0000 67.3451
#
#
#
# Elastic Compliance Matrix: (Units=1/GPa)
#
#
# Indices 1 2 3 4 5 6 
#
# 1 0.004506 -0.000046 -0.001797 0.000000 0.000000 0.000000
# 2 -0.000046 0.010573 -0.001611 0.000000 0.000000 0.000000
# 3 -0.001797 -0.001611 0.005405 0.000000 0.000000 0.000000
# 4 0.000000 0.000000 0.000000 -0.056169 0.000000 0.000000
# 5 0.000000 0.000000 0.000000 0.000000 0.017057 0.000000
# 6 0.000000 0.000000 0.000000 0.000000 0.000000 0.014849
#
#
# Mechanical properties :
#
#
# Convention : Reuss Voigt Hill
#
# Bulk Modulus (GPa) = 73.66822 95.91038 84.78930
# Shear Modulus (GPa) = 653.21014 51.20343 352.20678
#
# Velocity S-wave (km/s) = 16.19685 4.53475 11.89332
# Velocity P-wave (km/s) = 19.47742 8.12019 14.92159
#
# Compressibility (1/GPa) = 0.01357438
#
# Stress axis : x y z
#
# Youngs Moduli (GPa) = 221.93839 94.58389 185.01631
#
# Poissons Ratio (x) = 0.00435 0.33256
# Poissons Ratio (y) = 0.01021 0.29807
# Poissons Ratio (z) = 0.39892 0.15238
#
# Static dielectric constant tensor:
#      x y z
#    x 1.897330 0.000000 0.000000 
#    y 0.000000 1.862850 0.000000 
#    z 0.000000 0.000000 1.849600 
# 
# From -- ./inp_files/41888.got.cif
#   From: 2010.05.17/outbox.cif.g08.bks.cpg/sg68_21_cif.got.tgz:41888.got - 2010.06.03 18:57:09.
