data_PCOD9508995
_publ_section_title
;
Structure prediction by ZEFSAII (Michael W. Deem and Ramdas Pophale) SiO2 
 PCOD9508995
Probable space group: C C C A
;
_chemical_formula_sum "Si O2"
_cell_formula_units_Z 56
_cell_length_a 14.362712
_cell_length_b 9.014254
_cell_length_c 15.666913
_cell_angle_alpha 90.000000
_cell_angle_beta 90.000000
_cell_angle_gamma 90.000000
_cell_volume 2028.381660
_symmetry_space_group_name_H-M "C C C A"
_symmetry_group_IT_number 68
_space_group.IT_coordinate_system_code '2'
_symmetry_cell_setting 'orthorhombic'
loop_
_space_group_symop_operation_xyz
x,y,z
-x,1/2-y,z
x,1/2-y,1/2-z
-x,y,1/2-z
-x,-y,-z
x,1/2+y,-z
-x,1/2+y,1/2+z
x,-y,1/2+z
1/2+x,1/2+y,z
1/2-x,-y,z
1/2+x,-y,1/2-z
1/2-x,1/2+y,1/2-z
1/2-x,1/2-y,-z
1/2+x,y,-z
1/2-x,y,1/2+z
1/2+x,1/2-y,1/2+z
loop_
_atom_site_type_symbol
_atom_site_label
_atom_site_fract_x
_atom_site_fract_y
_atom_site_fract_z
Si Si1 0.861853 0.250000 0.250000
Si Si2 0.568520 0.911079 0.082148
Si Si3 0.157951 0.276481 0.556965
Si Si4 0.911519 0.452224 0.682892
O O1 0.841523 0.081820 0.286068
O O2 0.644077 0.309124 0.147719
O O3 0.591401 0.814486 0.165127
O O4 0.468451 0.980593 0.102421
O O5 0.637644 0.051788 0.073473
O O6 0.585154 0.802216 0.004738
O O7 0.250000 0.250000 0.500000
O O8 0.000000 0.424806 0.750000
#
# Coordination Sequence:
#
# PCOD9508995 Si02
#       4
#     8  16  16  16
#     4  10  23  44  74 110 144 188 261 334 383 454
#     4  11  23  43  70 102 147 199 254 317 385 474
#     4  12  26  44  68 106 152 199 251 322 401 470
#     4  10  22  44  75 111 144 195 265 329 386 467
#
# _framework density 27.608217
#
# number of rings (size 3 to 8) (size 9 to 14) (size 15 to 20)
#    0.000    1.143    0.000    8.143    0.000   10.286 
#    0.000   11.429    0.000    0.000    0.000    0.000 
#    0.000    0.000    0.000    0.000    0.000    0.000 
#
# Total GULP energy -156063.783873 kJ/mol
# GULP energy per Si atom -5573.706567 kJ/mol
# Density = 2.754538 g / cm^3
# Si number density = 27.608217 Si / 1000 Ang^3
#
#
#
# Elastic Constant Matrix: (Units=GPa)
#
#
# Indices 1 2 3 4 5 6 
#
# 1 127.0354 82.2074 48.4056 0.0000 0.0000 0.0000
# 2 82.2074 231.5250 63.6690 0.0000 0.0000 0.0000
# 3 48.4056 63.6690 133.5783 0.0000 0.0000 0.0000
# 4 0.0000 0.0000 0.0000 70.3327 0.0000 0.0000
# 5 0.0000 0.0000 0.0000 0.0000 89.0479 0.0000
# 6 0.0000 0.0000 0.0000 0.0000 0.0000 30.4782
#
#
#
# Elastic Compliance Matrix: (Units=1/GPa)
#
#
# Indices 1 2 3 4 5 6 
#
# 1 0.010856 -0.003191 -0.002413 0.000000 0.000000 0.000000
# 2 -0.003191 0.005909 -0.001660 0.000000 0.000000 0.000000
# 3 -0.002413 -0.001660 0.009152 0.000000 0.000000 0.000000
# 4 0.000000 0.000000 0.000000 0.014218 0.000000 0.000000
# 5 0.000000 0.000000 0.000000 0.000000 0.011230 0.000000
# 6 0.000000 0.000000 0.000000 0.000000 0.000000 0.032810
#
#
# Mechanical properties :
#
#
# Convention : Reuss Voigt Hill
#
# Bulk Modulus (GPa) = 87.80665 97.85587 92.83126
# Shear Modulus (GPa) = 48.78049 57.82888 53.30469
#
# Velocity S-wave (km/s) = 4.20799 4.58167 4.39880
# Velocity P-wave (km/s) = 7.44870 7.96934 7.71342
#
# Compressibility (1/GPa) = 0.01138866
#
# Stress axis : x y z
#
# Youngs Moduli (GPa) = 92.11183 169.24019 109.26720
#
# Poissons Ratio (x) = 0.54008 0.26367
# Poissons Ratio (y) = 0.29395 0.18138
# Poissons Ratio (z) = 0.22227 0.28093
#
# Static dielectric constant tensor:
#      x y z
#    x 2.448220 0.000000 0.000000 
#    y 0.000000 2.110860 0.000000 
#    z 0.000000 0.000000 2.209660 
# 
# From -- ./inp_files/38162.got.cif
#   From: 2010.05.17/outbox.cif.g08.bks.cpg/sg68_20_cif.got.tgz:38162.got - 2010.06.03 18:57:09.
