data_PCOD9508788
_publ_section_title
;
Structure prediction by ZEFSAII (Michael W. Deem and Ramdas Pophale) SiO2 
 PCOD9508788
Probable space group: C C C A
;
_chemical_formula_sum "Si O2"
_cell_formula_units_Z 112
_cell_length_a 23.211360
_cell_length_b 11.793478
_cell_length_c 22.168590
_cell_angle_alpha 90.000000
_cell_angle_beta 90.000000
_cell_angle_gamma 90.000000
_cell_volume 6068.488873
_symmetry_space_group_name_H-M "C C C A"
_symmetry_group_IT_number 68
_space_group.IT_coordinate_system_code '2'
_symmetry_cell_setting 'orthorhombic'
loop_
_space_group_symop_operation_xyz
x,y,z
-x,1/2-y,z
x,1/2-y,1/2-z
-x,y,1/2-z
-x,-y,-z
x,1/2+y,-z
-x,1/2+y,1/2+z
x,-y,1/2+z
1/2+x,1/2+y,z
1/2-x,-y,z
1/2+x,-y,1/2-z
1/2-x,1/2+y,1/2-z
1/2-x,1/2-y,-z
1/2+x,y,-z
1/2-x,y,1/2+z
1/2+x,1/2-y,1/2+z
loop_
_atom_site_type_symbol
_atom_site_label
_atom_site_fract_x
_atom_site_fract_y
_atom_site_fract_z
Si Si1 0.111283 0.391183 0.924583
Si Si2 0.641134 0.640641 0.105484
Si Si3 0.242425 0.868286 0.037562
Si Si4 0.929349 0.127365 0.278419
Si Si5 0.941364 0.679006 0.951432
Si Si6 0.953319 0.019734 0.161870
Si Si7 0.932050 0.735032 0.317724
O O1 0.111228 0.525649 0.917184
O O2 0.177474 0.361920 0.938819
O O3 0.092158 0.326072 0.864486
O O4 0.071232 0.359672 0.980925
O O5 0.708232 0.635331 0.089048
O O6 0.622030 0.646255 0.174857
O O7 0.611501 0.743303 0.070322
O O8 0.250000 0.000000 0.010830
O O9 0.250000 0.750000 0.000000
O O10 0.943977 0.250000 0.250000
O O11 0.914653 0.057941 0.218733
O O12 0.982675 0.061384 0.312883
O O13 0.945888 0.581214 0.901476
O O14 0.000000 0.750000 0.948211
O O15 0.933265 0.890822 0.154923
O O16 0.906989 0.750000 0.250000
O O17 0.000000 0.750000 0.310897
#
# Coordination Sequence:
#
# PCOD9508788 Si02
#       7
#    16  16  16  16  16  16  16
#     4  11  25  41  63  86 126 163 203 259 310 372
#     4  11  22  40  61  88 122 159 208 251 309 363
#     4  10  22  42  65  88 119 168 213 260 315 376
#     4  11  19  36  59  90 126 160 201 249 301 366
#     4  12  23  35  59  96 125 157 197 250 311 370
#     4  11  21  34  60  89 127 158 198 242 307 372
#     4  11  23  41  60  87 121 167 205 244 309 380
#
# _framework density 18.455995000000001
#
# number of rings (size 3 to 8) (size 9 to 14) (size 15 to 20)
#    0.000    1.000    4.286    4.714    2.000    0.571 
#    0.000    0.714    0.000    0.000    0.000    0.000 
#    0.000    0.000    0.000    0.000    0.000    0.000 
#
# Total GULP energy -311884.938500 kJ/mol
# GULP energy per Si atom -5569.373902 kJ/mol
# Density = 1.841399 g / cm^3
# Si number density = 18.455995 Si / 1000 Ang^3
#
#
#
# Elastic Constant Matrix: (Units=GPa)
#
#
# Indices 1 2 3 4 5 6 
#
# 1 41.3832 8.1116 19.0480 0.0000 0.0000 0.0000
# 2 8.1116 84.8307 31.6570 0.0000 0.0000 0.0000
# 3 19.0480 31.6570 126.8109 0.0000 0.0000 0.0000
# 4 0.0000 0.0000 0.0000 18.5763 0.0000 0.0000
# 5 0.0000 0.0000 0.0000 0.0000 -21.6488 0.0000
# 6 0.0000 0.0000 0.0000 0.0000 0.0000 16.6214
#
#
#
# Elastic Compliance Matrix: (Units=1/GPa)
#
#
# Indices 1 2 3 4 5 6 
#
# 1 0.026058 -0.001137 -0.003630 0.000000 0.000000 0.000000
# 2 -0.001137 0.013049 -0.003087 0.000000 0.000000 0.000000
# 3 -0.003630 -0.003087 0.009202 0.000000 0.000000 0.000000
# 4 0.000000 0.000000 0.000000 0.053832 0.000000 0.000000
# 5 0.000000 0.000000 0.000000 0.000000 -0.046192 0.000000
# 6 0.000000 0.000000 0.000000 0.000000 0.000000 0.060163
#
#
# Mechanical properties :
#
#
# Convention : Reuss Voigt Hill
#
# Bulk Modulus (GPa) = 30.67422 41.18423 35.92923
# Shear Modulus (GPa) = 35.04176 15.65701 25.34939
#
# Velocity S-wave (km/s) = 4.36210 2.91579 3.71010
# Velocity P-wave (km/s) = 6.48281 5.80509 6.15329
#
# Compressibility (1/GPa) = 0.03260067
#
# Stress axis : x y z
#
# Youngs Moduli (GPa) = 38.37561 76.63539 108.67646
#
# Poissons Ratio (x) = 0.08713 0.39453
# Poissons Ratio (y) = 0.04363 0.33545
# Poissons Ratio (z) = 0.13932 0.23655
#
# Static dielectric constant tensor:
#      x y z
#    x 1.620760 0.000000 0.000000 
#    y 0.000000 1.621840 0.000000 
#    z 0.000000 0.000000 1.650790 
# 
# From -- ./inp_files/40888.got.cif
#   From: 2010.05.17/outbox.cif.g08.bks.cpg/sg68_21_cif.got.tgz:40888.got - 2010.06.03 18:57:09.
