data_PCOD9508630
_publ_section_title
;
Structure prediction by ZEFSAII (Michael W. Deem and Ramdas Pophale) SiO2 
 PCOD9508630
Probable space group: C C C A
;
_chemical_formula_sum "Si O2"
_cell_formula_units_Z 92
_cell_length_a 8.204570
_cell_length_b 21.713630
_cell_length_c 24.936458
_cell_angle_alpha 90.000000
_cell_angle_beta 90.000000
_cell_angle_gamma 90.000000
_cell_volume 4442.454862
_symmetry_space_group_name_H-M "C C C A"
_symmetry_group_IT_number 68
_space_group.IT_coordinate_system_code '2'
_symmetry_cell_setting 'orthorhombic'
loop_
_space_group_symop_operation_xyz
x,y,z
-x,1/2-y,z
x,1/2-y,1/2-z
-x,y,1/2-z
-x,-y,-z
x,1/2+y,-z
-x,1/2+y,1/2+z
x,-y,1/2+z
1/2+x,1/2+y,z
1/2-x,-y,z
1/2+x,-y,1/2-z
1/2-x,1/2+y,1/2-z
1/2-x,1/2-y,-z
1/2+x,y,-z
1/2-x,y,1/2+z
1/2+x,1/2-y,1/2+z
loop_
_atom_site_type_symbol
_atom_site_label
_atom_site_fract_x
_atom_site_fract_y
_atom_site_fract_z
Si Si1 0.137150 0.048233 0.211727
Si Si2 0.708082 0.672245 0.164851
Si Si3 0.554033 0.009404 0.112412
Si Si4 0.000000 0.250000 0.250000
Si Si5 0.981361 0.116499 0.436644
Si Si6 0.366461 0.634334 0.556847
Si Si7 0.000000 0.250000 0.881284
O O1 0.240460 0.104238 0.188220
O O2 0.000000 0.074916 0.250000
O O3 0.250000 0.000000 0.242192
O O4 0.044428 0.008436 0.166075
O O5 0.605076 0.708213 0.209554
O O6 0.607774 0.655088 0.110451
O O7 0.863392 0.714017 0.152356
O O8 0.543475 0.077646 0.087601
O O9 0.750000 0.000000 0.119294
O O10 0.479346 0.957303 0.073059
O O11 0.906826 0.130896 0.494172
O O12 0.173075 0.130412 0.435299
O O13 0.421588 0.698088 0.581777
#
# Coordination Sequence:
#
# PCOD9508630 Si02
#       7
#    16  16  16   4  16  16   8
#     4  11  22  41  65  95 127 166 217 273 330 385
#     4  11  25  45  65  94 126 176 219 274 326 395
#     4   9  20  39  64  94 130 170 216 272 331 388
#     4  12  24  48  72  84 132 172 224 262 342 390
#     4  10  22  40  67  93 132 171 223 275 334 383
#     4  11  22  39  63  99 133 177 214 270 326 398
#     4  12  26  42  64  94 134 166 226 264 322 402
#
# _framework density 20.70927
#
# number of rings (size 3 to 8) (size 9 to 14) (size 15 to 20)
#    0.000    1.391    0.870    4.174    0.000    5.217 
#    6.261    0.870    0.000    0.000    0.000    0.000 
#    0.000    0.000    0.000    0.000    0.000    0.000 
#
# Total GULP energy -256914.207796 kJ/mol
# GULP energy per Si atom -5585.091474 kJ/mol
# Density = 2.066213 g / cm^3
# Si number density = 20.709270 Si / 1000 Ang^3
#
#
#
# Elastic Constant Matrix: (Units=GPa)
#
#
# Indices 1 2 3 4 5 6 
#
# 1 74.5819 69.6459 26.2346 0.0000 0.0000 0.0000
# 2 69.6459 163.4594 65.5634 0.0000 0.0000 0.0000
# 3 26.2346 65.5634 76.0105 0.0000 0.0000 0.0000
# 4 0.0000 0.0000 0.0000 24.9962 0.0000 0.0000
# 5 0.0000 0.0000 0.0000 0.0000 31.8543 0.0000
# 6 0.0000 0.0000 0.0000 0.0000 0.0000 24.6272
#
#
#
# Elastic Compliance Matrix: (Units=1/GPa)
#
#
# Indices 1 2 3 4 5 6 
#
# 1 0.022297 -0.009806 0.000763 0.000000 0.000000 0.000000
# 2 -0.009806 0.013667 -0.008404 0.000000 0.000000 0.000000
# 3 0.000763 -0.008404 0.020142 0.000000 0.000000 0.000000
# 4 0.000000 0.000000 0.000000 0.040006 0.000000 0.000000
# 5 0.000000 0.000000 0.000000 0.000000 0.031393 0.000000
# 6 0.000000 0.000000 0.000000 0.000000 0.000000 0.040606
#
#
# Mechanical properties :
#
#
# Convention : Reuss Voigt Hill
#
# Bulk Modulus (GPa) = 47.14594 70.77110 58.95852
# Shear Modulus (GPa) = 23.80117 26.46940 25.13528
#
# Velocity S-wave (km/s) = 3.39381 3.57899 3.48763
# Velocity P-wave (km/s) = 6.17837 7.16427 6.68951
#
# Compressibility (1/GPa) = 0.02121074
#
# Stress axis : x y z
#
# Youngs Moduli (GPa) = 44.84940 73.17152 49.64871
#
# Poissons Ratio (x) = 0.71752 -0.03786
# Poissons Ratio (y) = 0.43979 0.41723
# Poissons Ratio (z) = -0.03420 0.61491
#
# Static dielectric constant tensor:
#      x y z
#    x 1.823350 0.000000 0.000000 
#    y 0.000000 1.724650 0.000000 
#    z 0.000000 0.000000 1.726730 
# 
# From -- ./inp_files/43168.got.cif
#   From: 2010.05.17/outbox.cif.g08.bks.cpg/sg68_22_cif.got.tgz:43168.got - 2010.06.03 18:57:09.
