data_PCOD9508390
_publ_section_title
;
Structure prediction by ZEFSAII (Michael W. Deem and Ramdas Pophale) SiO2 
 PCOD9508390
Probable space group: C C C A
;
_chemical_formula_sum "Si O2"
_cell_formula_units_Z 68
_cell_length_a 18.148269
_cell_length_b 16.170302
_cell_length_c 9.285473
_cell_angle_alpha 90.000000
_cell_angle_beta 90.000000
_cell_angle_gamma 90.000000
_cell_volume 2724.942675
_symmetry_space_group_name_H-M "C C C A"
_symmetry_group_IT_number 68
_space_group.IT_coordinate_system_code '2'
_symmetry_cell_setting 'orthorhombic'
loop_
_space_group_symop_operation_xyz
x,y,z
-x,1/2-y,z
x,1/2-y,1/2-z
-x,y,1/2-z
-x,-y,-z
x,1/2+y,-z
-x,1/2+y,1/2+z
x,-y,1/2+z
1/2+x,1/2+y,z
1/2-x,-y,z
1/2+x,-y,1/2-z
1/2-x,1/2+y,1/2-z
1/2-x,1/2-y,-z
1/2+x,y,-z
1/2-x,y,1/2+z
1/2+x,1/2-y,1/2+z
loop_
_atom_site_type_symbol
_atom_site_label
_atom_site_fract_x
_atom_site_fract_y
_atom_site_fract_z
Si Si1 0.000000 0.750000 0.750000
Si Si2 0.652541 0.861764 0.469567
Si Si3 0.157503 0.057962 0.559320
Si Si4 0.482444 0.163303 0.018038
Si Si5 0.254900 0.358620 0.702617
O O1 0.045898 0.694044 0.639531
O O2 0.565088 0.863749 0.484184
O O3 0.691119 0.825612 0.327208
O O4 0.692633 0.814938 0.602456
O O5 0.665462 0.960602 0.464115
O O6 0.074831 0.096423 0.575347
O O7 0.201633 0.082417 0.702515
O O8 0.194350 0.100153 0.419591
O O9 0.500000 0.250000 0.098002
#
# Coordination Sequence:
#
# PCOD9508390 Si02
#       5
#     4  16  16  16  16
#     4   8  20  40  60  78 128 164 202 236 316 344
#     4  11  20  39  64  93 121 161 206 257 309 367
#     4  11  20  39  64  93 121 161 206 257 309 367
#     4  10  23  40  60  86 123 166 206 251 301 366
#     4  10  22  37  63  94 127 154 202 263 315 362
#
# _framework density 24.954654999999999
#
# number of rings (size 3 to 8) (size 9 to 14) (size 15 to 20)
#    0.706    0.941    0.000    7.765    0.000    0.941 
#    0.000   14.118    0.000    0.000    0.000    0.000 
#    0.000    0.000    0.000    0.000    0.000    0.000 
#
# Total GULP energy -189465.824062 kJ/mol
# GULP energy per Si atom -5572.524237 kJ/mol
# Density = 2.489786 g / cm^3
# Si number density = 24.954655 Si / 1000 Ang^3
#
#
#
# Elastic Constant Matrix: (Units=GPa)
#
#
# Indices 1 2 3 4 5 6 
#
# 1 204.1041 29.0459 46.4355 0.0000 0.0000 0.0000
# 2 29.0459 48.2919 11.7043 0.0000 0.0000 0.0000
# 3 46.4355 11.7043 157.1164 0.0000 0.0000 0.0000
# 4 0.0000 0.0000 0.0000 10.8376 0.0000 0.0000
# 5 0.0000 0.0000 0.0000 0.0000 24.3861 0.0000
# 6 0.0000 0.0000 0.0000 0.0000 0.0000 31.8960
#
#
#
# Elastic Compliance Matrix: (Units=1/GPa)
#
#
# Indices 1 2 3 4 5 6 
#
# 1 0.005663 -0.003056 -0.001446 0.000000 0.000000 0.000000
# 2 -0.003056 0.022737 -0.000791 0.000000 0.000000 0.000000
# 3 -0.001446 -0.000791 0.006851 0.000000 0.000000 0.000000
# 4 0.000000 0.000000 0.000000 0.092272 0.000000 0.000000
# 5 0.000000 0.000000 0.000000 0.000000 0.041007 0.000000
# 6 0.000000 0.000000 0.000000 0.000000 0.000000 0.031352
#
#
# Mechanical properties :
#
#
# Convention : Reuss Voigt Hill
#
# Bulk Modulus (GPa) = 40.54137 64.87597 52.70867
# Shear Modulus (GPa) = 22.86352 34.91238 28.88795
#
# Velocity S-wave (km/s) = 3.03017 3.74442 3.40607
# Velocity P-wave (km/s) = 5.34077 6.68941 6.05277
#
# Compressibility (1/GPa) = 0.02466616
#
# Stress axis : x y z
#
# Youngs Moduli (GPa) = 176.57414 43.98114 145.96380
#
# Poissons Ratio (x) = 0.13440 0.21109
# Poissons Ratio (y) = 0.53958 0.11541
# Poissons Ratio (z) = 0.25535 0.03477
#
# Static dielectric constant tensor:
#      x y z
#    x 2.038240 0.000000 0.000000 
#    y 0.000000 2.216000 0.000000 
#    z 0.000000 0.000000 1.989920 
# 
# From -- ./inp_files/5958.got.cif
#   From: 2010.05.17/outbox.cif.g08.bks.cpg/sg68_3_cif.got.tgz:5958.got - 2010.06.03 18:57:09.
