data_PCOD9508973
_publ_section_title
;
Structure prediction by ZEFSAII (Michael W. Deem and Ramdas Pophale) SiO2 
 PCOD9508973
Probable space group: C C C A
;
_chemical_formula_sum "Si O2"
_cell_formula_units_Z 80
_cell_length_a 14.052177
_cell_length_b 12.120537
_cell_length_c 24.832681
_cell_angle_alpha 90.000000
_cell_angle_beta 90.000000
_cell_angle_gamma 90.000000
_cell_volume 4229.500521
_symmetry_space_group_name_H-M "C C C A"
_symmetry_group_IT_number 68
_space_group.IT_coordinate_system_code '2'
_symmetry_cell_setting 'orthorhombic'
loop_
_space_group_symop_operation_xyz
x,y,z
-x,1/2-y,z
x,1/2-y,1/2-z
-x,y,1/2-z
-x,-y,-z
x,1/2+y,-z
-x,1/2+y,1/2+z
x,-y,1/2+z
1/2+x,1/2+y,z
1/2-x,-y,z
1/2+x,-y,1/2-z
1/2-x,1/2+y,1/2-z
1/2-x,1/2-y,-z
1/2+x,y,-z
1/2-x,y,1/2+z
1/2+x,1/2-y,1/2+z
loop_
_atom_site_type_symbol
_atom_site_label
_atom_site_fract_x
_atom_site_fract_y
_atom_site_fract_z
Si Si1 0.507992 0.859255 0.933835
Si Si2 0.509811 0.118196 0.812805
Si Si3 0.648165 0.731757 0.472698
Si Si4 0.141857 0.022017 0.395493
Si Si5 0.353989 0.053073 0.601159
O O1 0.500000 0.750000 0.896969
O O2 0.405661 0.922273 0.931197
O O3 0.575846 0.956417 0.915785
O O4 0.571343 0.806688 0.982850
O O5 0.500000 0.250000 0.819845
O O6 0.500000 0.092269 0.750000
O O7 0.428773 0.053890 0.846799
O O8 0.611091 0.088329 0.839657
O O9 0.750000 0.750000 0.500000
O O10 0.648667 0.629970 0.432222
O O11 0.628661 0.843589 0.439027
O O12 0.250000 0.000000 0.377904
O O13 0.250000 0.000000 0.598392
#
# Coordination Sequence:
#
# PCOD9508973 Si02
#       5
#    16  16  16  16  16
#     4  11  26  37  60  91 134 173 213 250 316 380
#     4  10  22  44  70  92 120 162 219 278 329 376
#     4  12  24  38  60  93 133 176 215 252 312 388
#     4  11  25  42  61  92 130 170 213 266 315 386
#     4  11  24  42  64  95 130 168 214 270 319 390
#
# _framework density 18.914762
#
# number of rings (size 3 to 8) (size 9 to 14) (size 15 to 20)
#    0.000    1.000    4.000    1.800   11.200    0.800 
#    0.000    0.000    0.000    9.600    0.000    0.000 
#    0.000    0.000    0.000    0.000    0.000    0.000 
#
# Total GULP energy -222876.697068 kJ/mol
# GULP energy per Si atom -5571.917427 kJ/mol
# Density = 1.887171 g / cm^3
# Si number density = 18.914762 Si / 1000 Ang^3
#
#
#
# Elastic Constant Matrix: (Units=GPa)
#
#
# Indices 1 2 3 4 5 6 
#
# 1 121.1080 48.6012 50.9463 0.0000 0.0000 0.0000
# 2 48.6012 158.6417 48.1252 0.0000 0.0000 0.0000
# 3 50.9463 48.1252 105.6821 0.0000 0.0000 0.0000
# 4 0.0000 0.0000 0.0000 133.0117 0.0000 0.0000
# 5 0.0000 0.0000 0.0000 0.0000 60.9992 0.0000
# 6 0.0000 0.0000 0.0000 0.0000 0.0000 25.9275
#
#
#
# Elastic Compliance Matrix: (Units=1/GPa)
#
#
# Indices 1 2 3 4 5 6 
#
# 1 0.010890 -0.002023 -0.004328 0.000000 0.000000 0.000000
# 2 -0.002023 0.007690 -0.002526 0.000000 0.000000 0.000000
# 3 -0.004328 -0.002526 0.012699 0.000000 0.000000 0.000000
# 4 0.000000 0.000000 0.000000 0.007518 0.000000 0.000000
# 5 0.000000 0.000000 0.000000 0.000000 0.016394 0.000000
# 6 0.000000 0.000000 0.000000 0.000000 0.000000 0.038569
#
#
# Mechanical properties :
#
#
# Convention : Reuss Voigt Hill
#
# Bulk Modulus (GPa) = 73.94777 75.64191 74.79484
# Shear Modulus (GPa) = 43.09480 59.83829 51.46655
#
# Velocity S-wave (km/s) = 4.77840 5.63067 5.22195
# Velocity P-wave (km/s) = 8.34412 9.07471 8.71707
#
# Compressibility (1/GPa) = 0.01352306
#
# Stress axis : x y z
#
# Youngs Moduli (GPa) = 91.82909 130.04358 78.74392
#
# Poissons Ratio (x) = 0.26310 0.34083
# Poissons Ratio (y) = 0.18578 0.19894
# Poissons Ratio (z) = 0.39747 0.32855
#
# Static dielectric constant tensor:
#      x y z
#    x 1.741380 0.000000 0.000000 
#    y 0.000000 1.847480 0.000000 
#    z 0.000000 0.000000 1.791080 
# 
# From -- ./inp_files/44083.got.cif
#   From: 2010.05.17/outbox.cif.g08.bks.cpg/sg68_23_cif.got.tgz:44083.got - 2010.06.03 18:57:09.
