data_PCOD9508547
_publ_section_title
;
Structure prediction by ZEFSAII (Michael W. Deem and Ramdas Pophale) SiO2 
 PCOD9508547
Probable space group: C C C A
;
_chemical_formula_sum "Si O2"
_cell_formula_units_Z 104
_cell_length_a 8.521441
_cell_length_b 20.020953
_cell_length_c 30.321740
_cell_angle_alpha 90.000000
_cell_angle_beta 90.000000
_cell_angle_gamma 90.000000
_cell_volume 5173.112308
_symmetry_space_group_name_H-M "C C C A"
_symmetry_group_IT_number 68
_space_group.IT_coordinate_system_code '2'
_symmetry_cell_setting 'orthorhombic'
loop_
_space_group_symop_operation_xyz
x,y,z
-x,1/2-y,z
x,1/2-y,1/2-z
-x,y,1/2-z
-x,-y,-z
x,1/2+y,-z
-x,1/2+y,1/2+z
x,-y,1/2+z
1/2+x,1/2+y,z
1/2-x,-y,z
1/2+x,-y,1/2-z
1/2-x,1/2+y,1/2-z
1/2-x,1/2-y,-z
1/2+x,y,-z
1/2-x,y,1/2+z
1/2+x,1/2-y,1/2+z
loop_
_atom_site_type_symbol
_atom_site_label
_atom_site_fract_x
_atom_site_fract_y
_atom_site_fract_z
Si Si1 0.188934 0.104387 0.079584
Si Si2 0.811069 0.895613 0.579585
Si Si3 0.191556 0.326303 0.750000
Si Si4 0.689330 0.250000 0.549662
Si Si5 0.250000 0.000000 0.500000
Si Si6 0.187666 0.429211 0.824073
Si Si7 0.687667 0.929211 0.675928
O O1 0.240791 0.180983 0.072093
O O2 0.254288 0.079914 0.126073
O O3 0.000002 0.101773 0.080777
O O4 0.239292 0.057991 0.038807
O O5 0.759210 0.819017 0.572093
O O6 0.760710 0.942009 0.538807
O O7 0.745716 0.920086 0.626074
O O8 0.246728 0.250000 0.750000
O O9 0.240637 0.368428 0.792912
O O10 0.240638 0.368429 0.707089
O O11 0.000000 0.324903 0.750000
O O12 0.500000 0.250000 0.549258
O O13 0.750000 0.250000 0.500000
O O14 0.250000 0.500000 0.807020
O O15 0.999999 0.430824 0.823826
O O16 0.750000 0.000000 0.692981
#
# Coordination Sequence:
#
# PCOD9508547 Si02
#       7
#    16  16  16  16   8  16  16
#     4  11  24  40  61  91 127 164 209 256 309 368
#     4  11  24  40  61  91 127 164 209 256 309 368
#     4   9  21  42  65  93 126 163 208 256 307 370
#     4  10  22  40  58  83 122 165 205 256 307 367
#     4  12  22  38  68  88 130 162 210 256 306 364
#     4  11  23  40  66  93 124 163 206 257 311 369
#     4  11  23  40  66  93 124 163 206 257 311 369
#
# _framework density 20.103952
#
# number of rings (size 3 to 8) (size 9 to 14) (size 15 to 20)
#    0.000    1.385    3.077    1.846    2.154    2.462 
#    0.000    2.308    0.000    3.692    0.000    0.000 
#    0.000    0.000    0.000    0.000    0.000    0.000 
#
# Total GULP energy -289571.915746 kJ/mol
# GULP energy per Si atom -5568.690687 kJ/mol
# Density = 2.005819 g / cm^3
# Si number density = 20.103952 Si / 1000 Ang^3
#
#
#
# Elastic Constant Matrix: (Units=GPa)
#
#
# Indices 1 2 3 4 5 6 
#
# 1 56.7740 31.1561 20.7886 0.0000 0.0000 0.0000
# 2 31.1561 228.0050 93.2937 0.0000 0.0000 0.0000
# 3 20.7886 93.2937 168.8145 0.0000 0.0000 0.0000
# 4 0.0000 0.0000 0.0000 43.3734 0.0000 0.0000
# 5 0.0000 0.0000 0.0000 0.0000 9.0577 0.0000
# 6 0.0000 0.0000 0.0000 0.0000 0.0000 22.2181
#
#
#
# Elastic Compliance Matrix: (Units=1/GPa)
#
#
# Indices 1 2 3 4 5 6 
#
# 1 0.019223 -0.002143 -0.001183 0.000000 0.000000 0.000000
# 2 -0.002143 0.005906 -0.003000 0.000000 0.000000 0.000000
# 3 -0.001183 -0.003000 0.007727 0.000000 0.000000 0.000000
# 4 0.000000 0.000000 0.000000 0.023056 0.000000 0.000000
# 5 0.000000 0.000000 0.000000 0.000000 0.110403 0.000000
# 6 0.000000 0.000000 0.000000 0.000000 0.000000 0.045008
#
#
# Mechanical properties :
#
#
# Convention : Reuss Voigt Hill
#
# Bulk Modulus (GPa) = 49.49375 82.67448 66.08412
# Shear Modulus (GPa) = 21.67221 35.48686 28.57953
#
# Velocity S-wave (km/s) = 3.28686 4.20595 3.77449
# Velocity P-wave (km/s) = 6.25116 8.04981 7.20682
#
# Compressibility (1/GPa) = 0.02020457
#
# Stress axis : x y z
#
# Youngs Moduli (GPa) = 52.02178 169.31228 129.41018
#
# Poissons Ratio (x) = 0.36277 0.15310
# Poissons Ratio (y) = 0.11146 0.38825
# Poissons Ratio (z) = 0.06155 0.50797
#
# Static dielectric constant tensor:
#      x y z
#    x 1.715820 0.000000 0.000000 
#    y 0.000000 1.731730 0.000000 
#    z 0.000000 0.000000 1.668750 
# 
# From -- ./inp_files/49418.got.cif
#   From: 2010.05.17/outbox.cif.g08.bks.cpg/sg68_25_cif.got.tgz:49418.got - 2010.06.03 18:57:09.
