data_PCOD9508671
_publ_section_title
;
Structure prediction by ZEFSAII (Michael W. Deem and Ramdas Pophale) SiO2 
 PCOD9508671
Probable space group: C C C A
;
_chemical_formula_sum "Si O2"
_cell_formula_units_Z 72
_cell_length_a 9.269937
_cell_length_b 20.370038
_cell_length_c 15.776048
_cell_angle_alpha 90.000000
_cell_angle_beta 90.000000
_cell_angle_gamma 90.000000
_cell_volume 2978.974878
_symmetry_space_group_name_H-M "C C C A"
_symmetry_group_IT_number 68
_space_group.IT_coordinate_system_code '2'
_symmetry_cell_setting 'orthorhombic'
loop_
_space_group_symop_operation_xyz
x,y,z
-x,1/2-y,z
x,1/2-y,1/2-z
-x,y,1/2-z
-x,-y,-z
x,1/2+y,-z
-x,1/2+y,1/2+z
x,-y,1/2+z
1/2+x,1/2+y,z
1/2-x,-y,z
1/2+x,-y,1/2-z
1/2-x,1/2+y,1/2-z
1/2-x,1/2-y,-z
1/2+x,y,-z
1/2-x,y,1/2+z
1/2+x,1/2-y,1/2+z
loop_
_atom_site_type_symbol
_atom_site_label
_atom_site_fract_x
_atom_site_fract_y
_atom_site_fract_z
Si Si1 0.500000 0.250000 0.370739
Si Si2 0.737405 0.854469 0.822246
Si Si3 0.271440 0.144734 0.364501
Si Si4 0.996915 0.045907 0.879545
Si Si5 0.986850 0.597741 0.570403
O O1 0.389346 0.300254 0.327160
O O2 0.381488 0.197875 0.404581
O O3 0.796335 0.841101 0.727904
O O4 0.649396 0.920771 0.847172
O O5 0.865117 0.855092 0.891213
O O6 0.366638 0.081290 0.338271
O O7 0.142361 0.131085 0.427414
O O8 0.992878 0.968047 0.871878
O O9 0.029760 0.068084 0.976809
#
# Coordination Sequence:
#
# PCOD9508671 Si02
#       5
#     8  16  16  16  16
#     4  10  23  44  62  84 124 168 201 250 317 352
#     4  11  22  39  63  87 118 160 205 248 295 358
#     4  11  22  39  63  87 118 160 205 248 295 358
#     4  10  22  41  60  86 128 161 185 239 318 370
#     4  11  23  38  61  93 122 153 198 250 302 359
#
# _framework density 24.169388999999999
#
# number of rings (size 3 to 8) (size 9 to 14) (size 15 to 20)
#    0.000    1.333    0.000    7.333    0.000    9.778 
#    0.000   20.000    0.000    0.000    0.000    0.000 
#    0.000    0.000    0.000    0.000    0.000    0.000 
#
# Total GULP energy -200704.494490 kJ/mol
# GULP energy per Si atom -5575.124847 kJ/mol
# Density = 2.411438 g / cm^3
# Si number density = 24.169389 Si / 1000 Ang^3
#
#
#
# Elastic Constant Matrix: (Units=GPa)
#
#
# Indices 1 2 3 4 5 6 
#
# 1 98.0921 13.8299 3.6062 0.0000 0.0000 0.0000
# 2 13.8299 90.7662 -2.3382 0.0000 0.0000 0.0000
# 3 3.6062 -2.3382 46.5074 0.0000 0.0000 0.0000
# 4 0.0000 0.0000 0.0000 6.4045 0.0000 0.0000
# 5 0.0000 0.0000 0.0000 0.0000 -90.7671 0.0000
# 6 0.0000 0.0000 0.0000 0.0000 0.0000 20.5276
#
#
#
# Elastic Compliance Matrix: (Units=1/GPa)
#
#
# Indices 1 2 3 4 5 6 
#
# 1 0.010455 -0.001616 -0.000892 0.000000 0.000000 0.000000
# 2 -0.001616 0.011281 0.000692 0.000000 0.000000 0.000000
# 3 -0.000892 0.000692 0.021606 0.000000 0.000000 0.000000
# 4 0.000000 0.000000 0.000000 0.156140 0.000000 0.000000
# 5 0.000000 0.000000 0.000000 0.000000 -0.011017 0.000000
# 6 0.000000 0.000000 0.000000 0.000000 0.000000 0.048715
#
#
# Mechanical properties :
#
#
# Convention : Reuss Voigt Hill
#
# Bulk Modulus (GPa) = 25.18161 29.50683 27.34422
# Shear Modulus (GPa) = 19.68133 1.91752 10.79943
#
# Velocity S-wave (km/s) = 2.85670 0.89168 2.11611
# Velocity P-wave (km/s) = 4.61762 3.64623 4.16037
#
# Compressibility (1/GPa) = 0.03971152
#
# Stress axis : x y z
#
# Youngs Moduli (GPa) = 95.64680 88.64159 46.28361
#
# Poissons Ratio (x) = 0.14325 0.04128
# Poissons Ratio (y) = 0.15457 -0.03205
# Poissons Ratio (z) = 0.08531 -0.06138
#
# Static dielectric constant tensor:
#      x y z
#    x 1.917400 0.000000 0.000000 
#    y 0.000000 1.997430 0.000000 
#    z 0.000000 0.000000 2.009710 
# 
# From -- ./inp_files/6108.got.cif
#   From: 2010.05.17/outbox.cif.g08.bks.cpg/sg68_4_cif.got.tgz:6108.got - 2010.06.03 18:57:09.
