data_PCOD9508127
_publ_section_title
;
Structure prediction by ZEFSAII (Michael W. Deem and Ramdas Pophale) SiO2 
 PCOD9508127
Probable space group: C C C A
;
_chemical_formula_sum "Si O2"
_cell_formula_units_Z 68
_cell_length_a 35.681645
_cell_length_b 13.733784
_cell_length_c 5.631696
_cell_angle_alpha 90.000000
_cell_angle_beta 90.000000
_cell_angle_gamma 90.000000
_cell_volume 2759.778864
_symmetry_space_group_name_H-M "C C C A"
_symmetry_group_IT_number 68
_space_group.IT_coordinate_system_code '2'
_symmetry_cell_setting 'orthorhombic'
loop_
_space_group_symop_operation_xyz
x,y,z
-x,1/2-y,z
x,1/2-y,1/2-z
-x,y,1/2-z
-x,-y,-z
x,1/2+y,-z
-x,1/2+y,1/2+z
x,-y,1/2+z
1/2+x,1/2+y,z
1/2-x,-y,z
1/2+x,-y,1/2-z
1/2-x,1/2+y,1/2-z
1/2-x,1/2-y,-z
1/2+x,y,-z
1/2-x,y,1/2+z
1/2+x,1/2-y,1/2+z
loop_
_atom_site_type_symbol
_atom_site_label
_atom_site_fract_x
_atom_site_fract_y
_atom_site_fract_z
Si Si1 0.461767 0.641807 0.136601
Si Si2 0.149458 0.618051 0.134623
Si Si3 0.263647 0.860402 0.962628
Si Si4 0.000000 0.250000 0.750000
Si Si5 0.878968 0.397970 0.363207
O O1 0.456086 0.750000 0.250000
O O2 0.500000 0.599543 0.250000
O O3 0.423586 0.584260 0.147550
O O4 0.472537 0.674451 0.876089
O O5 0.193467 0.636683 0.118163
O O6 0.141770 0.501789 0.136102
O O7 0.132552 0.651628 0.387469
O O8 0.131668 0.652164 0.885320
O O9 0.240542 0.900625 0.733603
O O10 0.250000 0.750000 0.000000
#
# Coordination Sequence:
#
# PCOD9508127 Si02
#       5
#    16  16  16   4  16
#     4   9  20  38  62  93 125 168 217 260 316 376
#     4  10  22  42  62  90 131 161 213 255 328 382
#     4  10  21  41  65  92 123 158 211 262 314 378
#     4   8  18  36  60  86 124 160 218 262 314 364
#     4  10  22  41  62  91 129 170 206 261 321 379
#
# _framework density 24.639658000000001
#
# number of rings (size 3 to 8) (size 9 to 14) (size 15 to 20)
#    0.000    2.588    0.000    1.412    6.588    0.000 
#   12.706   18.824    0.000    0.000    0.000    0.000 
#    0.000    0.000    0.000    0.000    0.000    0.000 
#
# Total GULP energy -189767.539385 kJ/mol
# GULP energy per Si atom -5581.398217 kJ/mol
# Density = 2.458358 g / cm^3
# Si number density = 24.639658 Si / 1000 Ang^3
#
#
#
# Elastic Constant Matrix: (Units=GPa)
#
#
# Indices 1 2 3 4 5 6 
#
# 1 213.4761 24.4379 50.4901 0.0000 0.0000 0.0000
# 2 24.4379 92.5404 17.7403 0.0000 0.0000 0.0000
# 3 50.4901 17.7403 230.2968 0.0000 0.0000 0.0000
# 4 0.0000 0.0000 0.0000 -15.1947 0.0000 0.0000
# 5 0.0000 0.0000 0.0000 0.0000 75.6668 0.0000
# 6 0.0000 0.0000 0.0000 0.0000 0.0000 76.0313
#
#
#
# Elastic Compliance Matrix: (Units=1/GPa)
#
#
# Indices 1 2 3 4 5 6 
#
# 1 0.005056 -0.001140 -0.001021 0.000000 0.000000 0.000000
# 2 -0.001140 0.011225 -0.000615 0.000000 0.000000 0.000000
# 3 -0.001021 -0.000615 0.004613 0.000000 0.000000 0.000000
# 4 0.000000 0.000000 0.000000 -0.065812 0.000000 0.000000
# 5 0.000000 0.000000 0.000000 0.000000 0.013216 0.000000
# 6 0.000000 0.000000 0.000000 0.000000 0.000000 0.013152
#
#
# Mechanical properties :
#
#
# Convention : Reuss Voigt Hill
#
# Bulk Modulus (GPa) = 65.17119 80.18334 72.67727
# Shear Modulus (GPa) = -634.16764 56.87698 -288.64533
#
# Velocity S-wave (km/s) = -16.06037 4.80974 -10.83517
# Velocity P-wave (km/s) = 17.81592 7.96604 11.26830
#
# Compressibility (1/GPa) = 0.01534420
#
# Stress axis : x y z
#
# Youngs Moduli (GPa) = 197.77546 89.08769 216.76113
#
# Poissons Ratio (x) = 0.10152 0.22126
# Poissons Ratio (y) = 0.22538 0.13327
# Poissons Ratio (z) = 0.20188 0.05478
#
# Static dielectric constant tensor:
#      x y z
#    x 1.825750 0.000000 0.000000 
#    y 0.000000 1.975360 0.000000 
#    z 0.000000 0.000000 2.048990 
# 
# From -- ./inp_files/2683.got.cif
#   From: 2010.05.17/outbox.cif.g08.bks.cpg/sg68_2_cif.got.tgz:2683.got - 2010.06.03 18:57:09.
