data_PCOD9508958
_publ_section_title
;
Structure prediction by ZEFSAII (Michael W. Deem and Ramdas Pophale) SiO2 
 PCOD9508958
Probable space group: C C C A
;
_chemical_formula_sum "Si O2"
_cell_formula_units_Z 52
_cell_length_a 16.184345
_cell_length_b 30.053356
_cell_length_c 5.486565
_cell_angle_alpha 90.000000
_cell_angle_beta 90.000000
_cell_angle_gamma 90.000000
_cell_volume 2668.631649
_symmetry_space_group_name_H-M "C C C A"
_symmetry_group_IT_number 68
_space_group.IT_coordinate_system_code '2'
_symmetry_cell_setting 'orthorhombic'
loop_
_space_group_symop_operation_xyz
x,y,z
-x,1/2-y,z
x,1/2-y,1/2-z
-x,y,1/2-z
-x,-y,-z
x,1/2+y,-z
-x,1/2+y,1/2+z
x,-y,1/2+z
1/2+x,1/2+y,z
1/2-x,-y,z
1/2+x,-y,1/2-z
1/2-x,1/2+y,1/2-z
1/2-x,1/2-y,-z
1/2+x,y,-z
1/2-x,y,1/2+z
1/2+x,1/2-y,1/2+z
loop_
_atom_site_type_symbol
_atom_site_label
_atom_site_fract_x
_atom_site_fract_y
_atom_site_fract_z
Si Si1 0.400278 0.475287 0.743735
Si Si2 0.500000 0.750000 0.750000
Si Si3 0.697844 0.615242 0.307230
Si Si4 0.408364 0.296815 0.641401
O O1 0.500000 0.473926 0.750000
O O2 0.374168 0.503961 0.505172
O O3 0.364187 0.426310 0.708614
O O4 0.565150 0.716038 0.629109
O O5 0.747537 0.612738 0.561797
O O6 0.649395 0.661917 0.314238
O O7 0.376192 0.250000 0.750000
O O8 0.500000 0.304723 0.750000
#
# Coordination Sequence:
#
# PCOD9508958 Si02
#       4
#    16   4  16  16
#     4  10  22  44  68  91 119 163 215 260 302 364
#     4   8  18  40  68  86 112 168 216 268 298 348
#     4  12  27  40  61  97 133 167 201 253 325 379
#     4   9  21  41  65  90 120 167 218 259 302 364
#
# _framework density 19.485641999999999
#
# number of rings (size 3 to 8) (size 9 to 14) (size 15 to 20)
#    0.000    2.154    0.000    2.769    8.615    4.923 
#    8.308    0.000    0.000    0.000    0.000    0.000 
#    0.000    0.000    0.000    0.000    0.000    0.000 
#
# Total GULP energy -144859.747191 kJ/mol
# GULP energy per Si atom -5571.528738 kJ/mol
# Density = 1.944129 g / cm^3
# Si number density = 19.485642 Si / 1000 Ang^3
#
#
#
# Elastic Constant Matrix: (Units=GPa)
#
#
# Indices 1 2 3 4 5 6 
#
# 1 21.4835 38.2652 28.7925 0.0000 0.0000 0.0000
# 2 38.2652 147.6248 56.6038 0.0000 0.0000 0.0000
# 3 28.7925 56.6038 127.2020 0.0000 0.0000 0.0000
# 4 0.0000 0.0000 0.0000 29.3926 0.0000 0.0000
# 5 0.0000 0.0000 0.0000 0.0000 47.0369 0.0000
# 6 0.0000 0.0000 0.0000 0.0000 0.0000 -796.3307
#
#
#
# Elastic Compliance Matrix: (Units=1/GPa)
#
#
# Indices 1 2 3 4 5 6 
#
# 1 0.103359 -0.021487 -0.013834 0.000000 0.000000 0.000000
# 2 -0.021487 0.012634 -0.000759 0.000000 0.000000 0.000000
# 3 -0.013834 -0.000759 0.011330 0.000000 0.000000 0.000000
# 4 0.000000 0.000000 0.000000 0.034022 0.000000 0.000000
# 5 0.000000 0.000000 0.000000 0.000000 0.021260 0.000000
# 6 0.000000 0.000000 0.000000 0.000000 0.000000 -0.001256
#
#
# Mechanical properties :
#
#
# Convention : Reuss Voigt Hill
#
# Bulk Modulus (GPa) = 18.12752 60.40373 39.26563
# Shear Modulus (GPa) = 18.38928 -132.47031 -57.04052
#
# Velocity S-wave (km/s) = 3.07536 -8.25416 -5.41633
# Velocity P-wave (km/s) = 4.68334 7.73144 4.34980
#
# Compressibility (1/GPa) = 0.05516473
#
# Stress axis : x y z
#
# Youngs Moduli (GPa) = 9.67501 79.14959 88.25772
#
# Poissons Ratio (x) = 1.70068 1.22097
# Poissons Ratio (y) = 0.20789 0.06695
# Poissons Ratio (z) = 0.13385 0.06004
#
# Static dielectric constant tensor:
#      x y z
#    x 1.653550 0.000000 0.000000 
#    y 0.000000 1.629430 0.000000 
#    z 0.000000 0.000000 1.731190 
# 
# From -- ./inp_files/687.got.cif
#   From: 2010.05.17/outbox.cif.g08.bks.cpg/sg68_1_cif.got.tgz:687.got - 2010.06.03 18:57:09.
