data_PCOD9508443
_publ_section_title
;
Structure prediction by ZEFSAII (Michael W. Deem and Ramdas Pophale) SiO2 
 PCOD9508443
Probable space group: C C C A
;
_chemical_formula_sum "Si O2"
_cell_formula_units_Z 112
_cell_length_a 13.613681
_cell_length_b 23.662535
_cell_length_c 14.891949
_cell_angle_alpha 90.000000
_cell_angle_beta 90.000000
_cell_angle_gamma 90.000000
_cell_volume 4797.206124
_symmetry_space_group_name_H-M "C C C A"
_symmetry_group_IT_number 68
_space_group.IT_coordinate_system_code '2'
_symmetry_cell_setting 'orthorhombic'
loop_
_space_group_symop_operation_xyz
x,y,z
-x,1/2-y,z
x,1/2-y,1/2-z
-x,y,1/2-z
-x,-y,-z
x,1/2+y,-z
-x,1/2+y,1/2+z
x,-y,1/2+z
1/2+x,1/2+y,z
1/2-x,-y,z
1/2+x,-y,1/2-z
1/2-x,1/2+y,1/2-z
1/2-x,1/2-y,-z
1/2+x,y,-z
1/2-x,y,1/2+z
1/2+x,1/2-y,1/2+z
loop_
_atom_site_type_symbol
_atom_site_label
_atom_site_fract_x
_atom_site_fract_y
_atom_site_fract_z
Si Si1 0.833403 0.147604 0.099243
Si Si2 0.052552 0.552091 0.045864
Si Si3 0.475735 0.826108 0.999937
Si Si4 0.730432 0.161804 0.914778
Si Si5 0.861267 0.024794 0.190193
Si Si6 0.840151 0.771959 0.152451
Si Si7 0.820189 0.947953 0.873468
O O1 0.862188 0.086035 0.139861
O O2 0.750635 0.182390 0.156153
O O3 0.776374 0.139226 0.006609
O O4 0.929409 0.183170 0.064647
O O5 0.000410 0.612388 0.044370
O O6 0.085203 0.526330 0.139611
O O7 0.135210 0.562016 0.970708
O O8 0.000000 0.500000 0.000000
O O9 0.426667 0.793189 0.914558
O O10 0.383770 0.824737 0.068436
O O11 0.789693 0.217194 0.891125
O O12 0.734481 0.109690 0.846242
O O13 0.893044 0.036905 0.292638
O O14 0.750000 0.000000 0.194309
O O15 0.873193 0.750000 0.250000
O O16 0.750000 0.000000 0.884743
#
# Coordination Sequence:
#
# PCOD9508443 Si02
#       7
#    16  16  16  16  16  16  16
#     4  11  21  40  69  94 129 182 235 283 359 436
#     4  11  21  38  61  94 135 176 222 281 355 428
#     4  10  22  41  66  98 132 180 237 288 357 437
#     4  10  22  40  63  92 132 178 227 288 354 429
#     4  11  21  37  63  93 128 175 224 284 353 427
#     4  11  24  43  67  97 138 179 234 303 361 425
#     4  10  22  38  62  93 129 170 225 283 348 425
#
# _framework density 23.346924000000001
#
# number of rings (size 3 to 8) (size 9 to 14) (size 15 to 20)
#    0.000    1.429    1.429    6.429    0.000    4.000 
#    0.000    4.286    3.143    0.000    0.000    0.000 
#    0.000    0.000    0.000    0.000    0.000    0.000 
#
# Total GULP energy -312076.114671 kJ/mol
# GULP energy per Si atom -5572.787762 kJ/mol
# Density = 2.329379 g / cm^3
# Si number density = 23.346924 Si / 1000 Ang^3
#
#
#
# Elastic Constant Matrix: (Units=GPa)
#
#
# Indices 1 2 3 4 5 6 
#
# 1 95.0449 22.7080 6.5766 0.0000 0.0000 0.0000
# 2 22.7080 138.1496 21.6778 0.0000 0.0000 0.0000
# 3 6.5766 21.6778 64.6532 0.0000 0.0000 0.0000
# 4 0.0000 0.0000 0.0000 -112.6108 0.0000 0.0000
# 5 0.0000 0.0000 0.0000 0.0000 9.3847 0.0000
# 6 0.0000 0.0000 0.0000 0.0000 0.0000 40.4488
#
#
#
# Elastic Compliance Matrix: (Units=1/GPa)
#
#
# Indices 1 2 3 4 5 6 
#
# 1 0.010969 -0.001718 -0.000540 0.000000 0.000000 0.000000
# 2 -0.001718 0.007910 -0.002477 0.000000 0.000000 0.000000
# 3 -0.000540 -0.002477 0.016353 0.000000 0.000000 0.000000
# 4 0.000000 0.000000 0.000000 -0.008880 0.000000 0.000000
# 5 0.000000 0.000000 0.000000 0.000000 0.106556 0.000000
# 6 0.000000 0.000000 0.000000 0.000000 0.000000 0.024723
#
#
# Mechanical properties :
#
#
# Convention : Reuss Voigt Hill
#
# Bulk Modulus (GPa) = 38.81835 44.41916 41.61875
# Shear Modulus (GPa) = 28.45953 3.90356 16.18154
#
# Velocity S-wave (km/s) = 3.49518 1.29445 2.63552
# Velocity P-wave (km/s) = 5.74032 4.61532 5.20828
#
# Compressibility (1/GPa) = 0.02576102
#
# Stress axis : x y z
#
# Youngs Moduli (GPa) = 91.16410 126.42695 61.15218
#
# Poissons Ratio (x) = 0.21725 0.03300
# Poissons Ratio (y) = 0.15665 0.15149
# Poissons Ratio (z) = 0.04920 0.31320
#
# Static dielectric constant tensor:
#      x y z
#    x 1.897570 0.000000 0.000000 
#    y 0.000000 2.159370 0.000000 
#    z 0.000000 0.000000 1.775080 
# 
# From -- ./inp_files/22605.got.cif
#   From: 2010.05.17/outbox.cif.g08.bks.cpg/sg68_12_cif.got.tgz:22605.got - 2010.06.03 18:57:09.
