data_PCOD9508948
_publ_section_title
;
Structure prediction by ZEFSAII (Michael W. Deem and Ramdas Pophale) SiO2 
 PCOD9508948
Probable space group: C C C A
;
_chemical_formula_sum "Si O2"
_cell_formula_units_Z 56
_cell_length_a 16.669330
_cell_length_b 9.935879
_cell_length_c 14.579193
_cell_angle_alpha 90.000000
_cell_angle_beta 90.000000
_cell_angle_gamma 90.000000
_cell_volume 2414.670762
_symmetry_space_group_name_H-M "C C C A"
_symmetry_group_IT_number 68
_space_group.IT_coordinate_system_code '2'
_symmetry_cell_setting 'orthorhombic'
loop_
_space_group_symop_operation_xyz
x,y,z
-x,1/2-y,z
x,1/2-y,1/2-z
-x,y,1/2-z
-x,-y,-z
x,1/2+y,-z
-x,1/2+y,1/2+z
x,-y,1/2+z
1/2+x,1/2+y,z
1/2-x,-y,z
1/2+x,-y,1/2-z
1/2-x,1/2+y,1/2-z
1/2-x,1/2-y,-z
1/2+x,y,-z
1/2-x,y,1/2+z
1/2+x,1/2-y,1/2+z
loop_
_atom_site_type_symbol
_atom_site_label
_atom_site_fract_x
_atom_site_fract_y
_atom_site_fract_z
Si Si1 0.750000 0.000000 0.710435
Si Si2 0.587176 0.066687 0.005076
Si Si3 0.677966 0.684537 0.446825
Si Si4 0.085661 0.597014 0.222426
O O1 0.784660 0.878213 0.646211
O O2 0.668797 0.960157 0.762550
O O3 0.595071 0.100152 0.112887
O O4 0.646822 0.941641 0.994048
O O5 0.609627 0.198150 0.945429
O O6 0.500000 0.000000 0.000000
O O7 0.750000 0.750000 0.500000
O O8 0.081282 0.750000 0.250000
O O9 0.000000 0.531126 0.250000
#
# Coordination Sequence:
#
# PCOD9508948 Si02
#       4
#     8  16  16  16
#     4  10  22  44  66 104 136 180 244 294 344 432
#     4  11  24  39  68 103 134 178 233 286 344 419
#     4  11  19  39  67  97 134 167 230 290 337 399
#     4  10  23  42  65  93 139 183 224 274 357 419
#
# _framework density 23.191569000000001
#
# number of rings (size 3 to 8) (size 9 to 14) (size 15 to 20)
#    0.000    1.429    5.714    0.857    8.000    0.000 
#    5.143    1.429    0.000    0.000    0.000    0.000 
#    0.000    0.000    0.000    0.000    0.000    0.000 
#
# Total GULP energy -156217.272541 kJ/mol
# GULP energy per Si atom -5579.188305 kJ/mol
# Density = 2.313878 g / cm^3
# Si number density = 23.191569 Si / 1000 Ang^3
#
#
#
# Elastic Constant Matrix: (Units=GPa)
#
#
# Indices 1 2 3 4 5 6 
#
# 1 199.6347 56.5102 19.9612 0.0000 0.0000 0.0000
# 2 56.5102 133.1998 27.1664 0.0000 0.0000 0.0000
# 3 19.9612 27.1664 40.9575 0.0000 0.0000 0.0000
# 4 0.0000 0.0000 0.0000 -2.8433 0.0000 0.0000
# 5 0.0000 0.0000 0.0000 0.0000 33.5656 0.0000
# 6 0.0000 0.0000 0.0000 0.0000 0.0000 58.2829
#
#
#
# Elastic Compliance Matrix: (Units=1/GPa)
#
#
# Indices 1 2 3 4 5 6 
#
# 1 0.005759 -0.002163 -0.001372 0.000000 0.000000 0.000000
# 2 -0.002163 0.009495 -0.005243 0.000000 0.000000 0.000000
# 3 -0.001372 -0.005243 0.028562 0.000000 0.000000 0.000000
# 4 0.000000 0.000000 0.000000 -0.351698 0.000000 0.000000
# 5 0.000000 0.000000 0.000000 0.000000 0.029792 0.000000
# 6 0.000000 0.000000 0.000000 0.000000 0.000000 0.017158
#
#
# Mechanical properties :
#
#
# Convention : Reuss Voigt Hill
#
# Bulk Modulus (GPa) = 38.08285 64.56305 51.32295
# Shear Modulus (GPa) = -21.31073 35.81130 7.25029
#
# Velocity S-wave (km/s) = -3.03462 3.93383 1.77004
# Velocity P-wave (km/s) = 2.04403 6.96655 5.13375
#
# Compressibility (1/GPa) = 0.02625854
#
# Stress axis : x y z
#
# Youngs Moduli (GPa) = 173.65087 105.32162 35.01176
#
# Poissons Ratio (x) = 0.22785 0.04802
# Poissons Ratio (y) = 0.37567 0.18358
# Poissons Ratio (z) = 0.23819 0.55224
#
# Static dielectric constant tensor:
#      x y z
#    x 2.156120 0.000000 0.000000 
#    y 0.000000 1.932220 0.000000 
#    z 0.000000 0.000000 1.878890 
# 
# From -- ./inp_files/27673.got.cif
#   From: 2010.05.17/outbox.cif.g08.bks.cpg/sg68_14_cif.got.tgz:27673.got - 2010.06.03 18:57:09.
