data_PCOD9508439
_publ_section_title
;
Structure prediction by ZEFSAII (Michael W. Deem and Ramdas Pophale) SiO2 
 PCOD9508439
Probable space group: C C C A
;
_chemical_formula_sum "Si O2"
_cell_formula_units_Z 88
_cell_length_a 15.681025
_cell_length_b 13.424386
_cell_length_c 22.452596
_cell_angle_alpha 90.000000
_cell_angle_beta 90.000000
_cell_angle_gamma 90.000000
_cell_volume 4726.454053
_symmetry_space_group_name_H-M "C C C A"
_symmetry_group_IT_number 68
_space_group.IT_coordinate_system_code '2'
_symmetry_cell_setting 'orthorhombic'
loop_
_space_group_symop_operation_xyz
x,y,z
-x,1/2-y,z
x,1/2-y,1/2-z
-x,y,1/2-z
-x,-y,-z
x,1/2+y,-z
-x,1/2+y,1/2+z
x,-y,1/2+z
1/2+x,1/2+y,z
1/2-x,-y,z
1/2+x,-y,1/2-z
1/2-x,1/2+y,1/2-z
1/2-x,1/2-y,-z
1/2+x,y,-z
1/2-x,y,1/2+z
1/2+x,1/2-y,1/2+z
loop_
_atom_site_type_symbol
_atom_site_label
_atom_site_fract_x
_atom_site_fract_y
_atom_site_fract_z
Si Si1 0.296666 0.161435 0.886581
Si Si2 0.012524 0.862264 0.848429
Si Si3 0.750000 0.500000 0.182832
Si Si4 0.750000 0.000000 0.515670
Si Si5 0.147967 0.614008 0.916188
Si Si6 0.000000 0.981505 0.250000
Si Si7 0.165541 0.357556 0.723007
O O1 0.386602 0.127782 0.857750
O O2 0.309408 0.276072 0.908263
O O3 0.220362 0.149567 0.838069
O O4 0.282532 0.088051 0.941778
O O5 0.977511 0.942904 0.802726
O O6 0.000000 0.750000 0.825441
O O7 0.953483 0.871402 0.907371
O O8 0.818298 0.452378 0.138471
O O9 0.780219 0.585535 0.227106
O O10 0.679457 0.946341 0.473838
O O11 0.923834 0.915873 0.222906
O O12 0.148701 0.250000 0.750000
#
# Coordination Sequence:
#
# PCOD9508439 Si02
#       7
#    16  16   8   8  16   8  16
#     4  11  23  41  62  94 124 164 214 259 316 372
#     4  10  22  38  62  92 124 163 214 259 311 375
#     4  11  19  40  62  86 119 169 196 246 316 365
#     4  11  23  40  64  90 119 169 210 262 316 373
#     4  10  22  40  64  87 123 164 211 260 308 373
#     4  12  22  38  58  94 132 164 202 258 316 380
#     4  12  24  39  63  91 130 163 202 255 315 385
#
# _framework density 18.618607999999998
#
# number of rings (size 3 to 8) (size 9 to 14) (size 15 to 20)
#    0.000    1.091    3.636    3.818    0.000    0.727 
#    0.000    0.000    0.000    2.182    0.000    0.000 
#    0.000    0.000    0.000    0.000    0.000    0.000 
#
# Total GULP energy -245342.191323 kJ/mol
# GULP energy per Si atom -5575.958894 kJ/mol
# Density = 1.857623 g / cm^3
# Si number density = 18.618608 Si / 1000 Ang^3
#
#
#
# Elastic Constant Matrix: (Units=GPa)
#
#
# Indices 1 2 3 4 5 6 
#
# 1 118.2438 44.1324 50.1793 0.0000 0.0000 0.0000
# 2 44.1324 119.5788 64.3761 0.0000 0.0000 0.0000
# 3 50.1793 64.3761 103.6658 0.0000 0.0000 0.0000
# 4 0.0000 0.0000 0.0000 40.1045 0.0000 0.0000
# 5 0.0000 0.0000 0.0000 0.0000 12.7788 0.0000
# 6 0.0000 0.0000 0.0000 0.0000 0.0000 -180.1815
#
#
#
# Elastic Compliance Matrix: (Units=1/GPa)
#
#
# Indices 1 2 3 4 5 6 
#
# 1 0.010888 -0.001774 -0.004169 0.000000 0.000000 0.000000
# 2 -0.001774 0.012852 -0.007122 0.000000 0.000000 0.000000
# 3 -0.004169 -0.007122 0.016087 0.000000 0.000000 0.000000
# 4 0.000000 0.000000 0.000000 0.024935 0.000000 0.000000
# 5 0.000000 0.000000 0.000000 0.000000 0.078255 0.000000
# 6 0.000000 0.000000 0.000000 0.000000 0.000000 -0.005550
#
#
# Mechanical properties :
#
#
# Convention : Reuss Voigt Hill
#
# Bulk Modulus (GPa) = 73.00822 73.20711 73.10766
# Shear Modulus (GPa) = 29.73319 -13.27292 8.23014
#
# Velocity S-wave (km/s) = 4.00054 -2.67289 2.10475
# Velocity P-wave (km/s) = 7.78695 5.46616 6.72739
#
# Compressibility (1/GPa) = 0.01369709
#
# Stress axis : x y z
#
# Youngs Moduli (GPa) = 91.84085 77.81067 62.16212
#
# Poissons Ratio (x) = 0.13806 0.25913
# Poissons Ratio (y) = 0.16295 0.44272
# Poissons Ratio (z) = 0.38286 0.55417
#
# Static dielectric constant tensor:
#      x y z
#    x 1.290570 0.000000 0.000000 
#    y 0.000000 1.621200 0.000000 
#    z 0.000000 0.000000 1.629710 
# 
# From -- ./inp_files/38507.got.cif
#   From: 2010.05.17/outbox.cif.g08.bks.cpg/sg68_20_cif.got.tgz:38507.got - 2010.06.03 18:57:09.
