data_PCOD9508361
_publ_section_title
;
Structure prediction by ZEFSAII (Michael W. Deem and Ramdas Pophale) SiO2 
 PCOD9508361
Probable space group: C C C A
;
_chemical_formula_sum "Si O2"
_cell_formula_units_Z 88
_cell_length_a 15.380713
_cell_length_b 19.438024
_cell_length_c 14.668623
_cell_angle_alpha 90.000000
_cell_angle_beta 90.000000
_cell_angle_gamma 90.000000
_cell_volume 4385.488023
_symmetry_space_group_name_H-M "C C C A"
_symmetry_group_IT_number 68
_space_group.IT_coordinate_system_code '2'
_symmetry_cell_setting 'orthorhombic'
loop_
_space_group_symop_operation_xyz
x,y,z
-x,1/2-y,z
x,1/2-y,1/2-z
-x,y,1/2-z
-x,-y,-z
x,1/2+y,-z
-x,1/2+y,1/2+z
x,-y,1/2+z
1/2+x,1/2+y,z
1/2-x,-y,z
1/2+x,-y,1/2-z
1/2-x,1/2+y,1/2-z
1/2-x,1/2-y,-z
1/2+x,y,-z
1/2-x,y,1/2+z
1/2+x,1/2-y,1/2+z
loop_
_atom_site_type_symbol
_atom_site_label
_atom_site_fract_x
_atom_site_fract_y
_atom_site_fract_z
Si Si1 0.816956 0.906925 0.903332
Si Si2 0.812876 0.558675 0.790922
Si Si3 0.825013 0.348233 0.461945
Si Si4 0.399820 0.770542 0.145816
Si Si5 0.070116 0.538886 0.439455
Si Si6 0.500000 0.491174 0.250000
O O1 0.771478 0.919923 0.805883
O O2 0.890235 0.851566 0.874183
O O3 0.853322 0.981194 0.933228
O O4 0.757261 0.868886 0.976461
O O5 0.750000 0.500000 0.829145
O O6 0.813686 0.618286 0.863243
O O7 0.912639 0.534026 0.775643
O O8 0.849244 0.270944 0.433943
O O9 0.900546 0.390992 0.513318
O O10 0.500000 0.750000 0.140599
O O11 0.371133 0.750000 0.250000
O O12 0.030057 0.549722 0.339407
O O13 0.000000 0.500000 0.500000
#
# Coordination Sequence:
#
# PCOD9508361 Si02
#       6
#    16  16  16  16  16   8
#     4  11  23  40  61  92 127 168 214 266 332 395
#     4  11  22  38  62  96 131 171 213 273 326 398
#     4  12  23  40  64  94 132 169 220 274 336 395
#     4  11  24  42  67  92 124 170 222 276 330 403
#     4  11  21  37  62  95 129 166 213 269 329 390
#     4  10  22  36  62  91 137 168 214 266 334 386
#
# _framework density 20.066182000000001
#
# number of rings (size 3 to 8) (size 9 to 14) (size 15 to 20)
#    0.000    0.909    3.636    5.455    2.545    0.000 
#    0.000    0.000    0.000    0.000    0.000    0.000 
#    0.000    0.000    0.000    0.000    0.000    0.000 
#
# Total GULP energy -245512.362560 kJ/mol
# GULP energy per Si atom -5579.826422 kJ/mol
# Density = 2.002051 g / cm^3
# Si number density = 20.066182 Si / 1000 Ang^3
#
#
#
# Elastic Constant Matrix: (Units=GPa)
#
#
# Indices 1 2 3 4 5 6 
#
# 1 63.8924 2.8684 17.1768 0.0000 0.0000 0.0000
# 2 2.8684 75.5516 12.6236 0.0000 0.0000 0.0000
# 3 17.1768 12.6236 110.5449 0.0000 0.0000 0.0000
# 4 0.0000 0.0000 0.0000 29.0533 0.0000 0.0000
# 5 0.0000 0.0000 0.0000 0.0000 38.1450 0.0000
# 6 0.0000 0.0000 0.0000 0.0000 0.0000 30.1528
#
#
#
# Elastic Compliance Matrix: (Units=1/GPa)
#
#
# Indices 1 2 3 4 5 6 
#
# 1 0.016337 -0.000200 -0.002516 0.000000 0.000000 0.000000
# 2 -0.000200 0.013496 -0.001510 0.000000 0.000000 0.000000
# 3 -0.002516 -0.001510 0.009609 0.000000 0.000000 0.000000
# 4 0.000000 0.000000 0.000000 0.034420 0.000000 0.000000
# 5 0.000000 0.000000 0.000000 0.000000 0.026216 0.000000
# 6 0.000000 0.000000 0.000000 0.000000 0.000000 0.033164
#
#
# Mechanical properties :
#
#
# Convention : Reuss Voigt Hill
#
# Bulk Modulus (GPa) = 32.26776 35.03629 33.65202
# Shear Modulus (GPa) = 32.88975 33.95822 33.42398
#
# Velocity S-wave (km/s) = 4.05293 4.11823 4.08571
# Velocity P-wave (km/s) = 6.16581 6.33336 6.25014
#
# Compressibility (1/GPa) = 0.03099068
#
# Stress axis : x y z
#
# Youngs Moduli (GPa) = 61.21229 74.09661 104.06447
#
# Poissons Ratio (x) = 0.01481 0.26179
# Poissons Ratio (y) = 0.01224 0.15715
# Poissons Ratio (z) = 0.15399 0.11189
#
# Static dielectric constant tensor:
#      x y z
#    x 1.749920 0.000000 0.000000 
#    y 0.000000 1.749250 0.000000 
#    z 0.000000 0.000000 1.722440 
# 
# From -- ./inp_files/22243.got.cif
#   From: 2010.05.17/outbox.cif.g08.bks.cpg/sg68_12_cif.got.tgz:22243.got - 2010.06.03 18:57:09.
