data_PCOD9508101
_publ_section_title
;
Structure prediction by ZEFSAII (Michael W. Deem and Ramdas Pophale) SiO2 
 PCOD9508101
Probable space group: C C C A
;
_chemical_formula_sum "Si O2"
_cell_formula_units_Z 108
_cell_length_a 24.264746
_cell_length_b 15.747944
_cell_length_c 14.173330
_cell_angle_alpha 90.000000
_cell_angle_beta 90.000000
_cell_angle_gamma 90.000000
_cell_volume 5415.910892
_symmetry_space_group_name_H-M "C C C A"
_symmetry_group_IT_number 68
_space_group.IT_coordinate_system_code '2'
_symmetry_cell_setting 'orthorhombic'
loop_
_space_group_symop_operation_xyz
x,y,z
-x,1/2-y,z
x,1/2-y,1/2-z
-x,y,1/2-z
-x,-y,-z
x,1/2+y,-z
-x,1/2+y,1/2+z
x,-y,1/2+z
1/2+x,1/2+y,z
1/2-x,-y,z
1/2+x,-y,1/2-z
1/2-x,1/2+y,1/2-z
1/2-x,1/2-y,-z
1/2+x,y,-z
1/2-x,y,1/2+z
1/2+x,1/2-y,1/2+z
loop_
_atom_site_type_symbol
_atom_site_label
_atom_site_fract_x
_atom_site_fract_y
_atom_site_fract_z
Si Si1 0.618233 0.250000 0.250000
Si Si2 0.063503 0.224925 0.950650
Si Si3 0.395701 0.031355 0.451319
Si Si4 0.310784 0.913647 0.793439
Si Si5 0.308357 0.026191 0.607352
Si Si6 0.085663 0.151601 0.382471
Si Si7 0.802748 0.153193 0.238748
Si Si8 0.000000 0.750000 0.750000
O O1 0.582950 0.252327 0.153918
O O2 0.657659 0.170386 0.237652
O O3 0.072851 0.122423 0.959319
O O4 0.000000 0.250000 0.961762
O O5 0.093670 0.281557 0.031132
O O6 0.346809 0.047713 0.376317
O O7 0.362381 0.013607 0.546592
O O8 0.426356 0.944464 0.420065
O O9 0.247201 0.893938 0.814611
O O10 0.311813 0.971323 0.701715
O O11 0.306825 0.119015 0.653809
O O12 0.250000 0.000000 0.560575
O O13 0.140527 0.146267 0.318350
O O14 0.037991 0.190945 0.316496
O O15 0.787070 0.250000 0.250000
#
# Coordination Sequence:
#
# PCOD9508101 Si02
#       8
#     8  16  16  16  16  16  16   4
#     4  10  21  43  66  92 135 175 216 286 346 404
#     4  11  25  47  67 101 136 178 241 293 340 415
#     4  11  25  42  70 102 132 184 227 281 357 411
#     4  10  21  41  61  98 138 168 226 270 339 425
#     4  10  22  37  62  99 138 173 220 275 329 420
#     4  12  25  46  72  98 140 183 233 295 344 416
#     4  11  21  39  68  95 137 187 215 279 348 409
#     4  12  28  50  68 102 140 172 248 300 346 398
#
# _framework density 19.941244000000001
#
# number of rings (size 3 to 8) (size 9 to 14) (size 15 to 20)
#    0.000    1.185    3.704    2.000    2.074    0.593 
#    5.333    2.222    0.000    0.000    0.000    0.000 
#    0.000    0.000    0.000    0.000    0.000    0.000 
#
# Total GULP energy -301364.425988 kJ/mol
# GULP energy per Si atom -5580.822703 kJ/mol
# Density = 1.989586 g / cm^3
# Si number density = 19.941244 Si / 1000 Ang^3
#
#
#
# Elastic Constant Matrix: (Units=GPa)
#
#
# Indices 1 2 3 4 5 6 
#
# 1 114.0086 49.6904 39.0262 0.0000 0.0000 0.0000
# 2 49.6904 135.7504 51.9643 0.0000 0.0000 0.0000
# 3 39.0262 51.9643 79.2275 0.0000 0.0000 0.0000
# 4 0.0000 0.0000 0.0000 25.3008 0.0000 0.0000
# 5 0.0000 0.0000 0.0000 0.0000 56.6393 0.0000
# 6 0.0000 0.0000 0.0000 0.0000 0.0000 11.3363
#
#
#
# Elastic Compliance Matrix: (Units=1/GPa)
#
#
# Indices 1 2 3 4 5 6 
#
# 1 0.011226 -0.002660 -0.003785 0.000000 0.000000 0.000000
# 2 -0.002660 0.010466 -0.005554 0.000000 0.000000 0.000000
# 3 -0.003785 -0.005554 0.018129 0.000000 0.000000 0.000000
# 4 0.000000 0.000000 0.000000 0.039524 0.000000 0.000000
# 5 0.000000 0.000000 0.000000 0.000000 0.017656 0.000000
# 6 0.000000 0.000000 0.000000 0.000000 0.000000 0.088212
#
#
# Mechanical properties :
#
#
# Convention : Reuss Voigt Hill
#
# Bulk Modulus (GPa) = 63.20051 67.81647 65.50849
# Shear Modulus (GPa) = 23.31131 31.20900 27.26016
#
# Velocity S-wave (km/s) = 3.42277 3.96036 3.70134
# Velocity P-wave (km/s) = 6.88351 7.41583 7.15462
#
# Compressibility (1/GPa) = 0.01582266
#
# Stress axis : x y z
#
# Youngs Moduli (GPa) = 89.07521 95.54326 55.15935
#
# Poissons Ratio (x) = 0.25419 0.20878
# Poissons Ratio (y) = 0.23698 0.30637
# Poissons Ratio (z) = 0.33715 0.53068
#
# Static dielectric constant tensor:
#      x y z
#    x 1.691480 0.000000 0.000000 
#    y 0.000000 2.279940 0.000000 
#    z 0.000000 0.000000 1.643140 
# 
# From -- ./inp_files/22646.got.cif
#   From: 2010.05.17/outbox.cif.g08.bks.cpg/sg68_12_cif.got.tgz:22646.got - 2010.06.03 18:57:09.
