data_PCOD9508736
_publ_section_title
;
Structure prediction by ZEFSAII (Michael W. Deem and Ramdas Pophale) SiO2 
 PCOD9508736
Probable space group: C C C A
;
_chemical_formula_sum "Si O2"
_cell_formula_units_Z 84
_cell_length_a 21.963531
_cell_length_b 19.388932
_cell_length_c 9.839433
_cell_angle_alpha 90.000000
_cell_angle_beta 90.000000
_cell_angle_gamma 90.000000
_cell_volume 4190.116728
_symmetry_space_group_name_H-M "C C C A"
_symmetry_group_IT_number 68
_space_group.IT_coordinate_system_code '2'
_symmetry_cell_setting 'orthorhombic'
loop_
_space_group_symop_operation_xyz
x,y,z
-x,1/2-y,z
x,1/2-y,1/2-z
-x,y,1/2-z
-x,-y,-z
x,1/2+y,-z
-x,1/2+y,1/2+z
x,-y,1/2+z
1/2+x,1/2+y,z
1/2-x,-y,z
1/2+x,-y,1/2-z
1/2-x,1/2+y,1/2-z
1/2-x,1/2-y,-z
1/2+x,y,-z
1/2-x,y,1/2+z
1/2+x,1/2-y,1/2+z
loop_
_atom_site_type_symbol
_atom_site_label
_atom_site_fract_x
_atom_site_fract_y
_atom_site_fract_z
Si Si1 0.212561 0.318124 0.469263
Si Si2 0.584770 0.850861 0.574867
Si Si3 0.852343 0.473270 0.752782
Si Si4 0.229786 0.098521 0.292626
Si Si5 0.000000 0.250000 0.750000
Si Si6 0.038289 0.459764 0.388109
O O1 0.250000 0.250000 0.500000
O O2 0.144539 0.311215 0.525651
O O3 0.210466 0.342122 0.312925
O O4 0.244816 0.375400 0.564268
O O5 0.608987 0.918147 0.659289
O O6 0.542120 0.800791 0.660798
O O7 0.551285 0.884145 0.446100
O O8 0.824314 0.543761 0.816123
O O9 0.789219 0.434909 0.719157
O O10 0.897949 0.500838 0.638110
O O11 0.000000 0.458819 0.250000
O O12 0.000000 0.500000 0.500000
#
# Coordination Sequence:
#
# PCOD9508736 Si02
#       6
#    16  16  16  16   4  16
#     4  11  24  42  65 100 136 180 221 271 346 416
#     4  11  25  46  69  96 137 185 234 284 342 426
#     4  10  22  41  68 102 132 167 224 283 351 398
#     4  10  23  39  68  98 136 170 216 281 344 410
#     4  12  28  52  66  96 132 204 240 274 348 428
#     4  12  23  41  68 102 136 172 223 284 342 403
#
# _framework density 20.047173999999998
#
# number of rings (size 3 to 8) (size 9 to 14) (size 15 to 20)
#    0.000    1.143    3.810    1.714    8.000    1.524 
#    3.429    0.476    0.000    0.000    0.000    0.000 
#    0.000    0.000    0.000    0.000    0.000    0.000 
#
# Total GULP energy -234393.621849 kJ/mol
# GULP energy per Si atom -5580.800520 kJ/mol
# Density = 2.000155 g / cm^3
# Si number density = 20.047174 Si / 1000 Ang^3
#
#
#
# Elastic Constant Matrix: (Units=GPa)
#
#
# Indices 1 2 3 4 5 6 
#
# 1 109.8211 48.6215 41.5919 0.0000 0.0000 0.0000
# 2 48.6215 86.0686 31.6972 0.0000 0.0000 0.0000
# 3 41.5919 31.6972 94.5369 0.0000 0.0000 0.0000
# 4 0.0000 0.0000 0.0000 10.0995 0.0000 0.0000
# 5 0.0000 0.0000 0.0000 0.0000 35.3288 0.0000
# 6 0.0000 0.0000 0.0000 0.0000 0.0000 48.0799
#
#
#
# Elastic Compliance Matrix: (Units=1/GPa)
#
#
# Indices 1 2 3 4 5 6 
#
# 1 0.013230 -0.006081 -0.003782 0.000000 0.000000 0.000000
# 2 -0.006081 0.016051 -0.002706 0.000000 0.000000 0.000000
# 3 -0.003782 -0.002706 0.013149 0.000000 0.000000 0.000000
# 4 0.000000 0.000000 0.000000 0.099015 0.000000 0.000000
# 5 0.000000 0.000000 0.000000 0.000000 0.028306 0.000000
# 6 0.000000 0.000000 0.000000 0.000000 0.000000 0.020799
#
#
# Mechanical properties :
#
#
# Convention : Reuss Voigt Hill
#
# Bulk Modulus (GPa) = 57.83128 59.36087 58.59608
# Shear Modulus (GPa) = 22.57832 29.93603 26.25717
#
# Velocity S-wave (km/s) = 3.35962 3.86849 3.62300
# Velocity P-wave (km/s) = 6.63020 7.04475 6.84062
#
# Compressibility (1/GPa) = 0.01729168
#
# Stress axis : x y z
#
# Youngs Moduli (GPa) = 75.58377 62.30273 76.05126
#
# Poissons Ratio (x) = 0.37888 0.28761
# Poissons Ratio (y) = 0.45965 0.20580
# Poissons Ratio (z) = 0.28584 0.16860
#
# Static dielectric constant tensor:
#      x y z
#    x 1.764870 0.000000 0.000000 
#    y 0.000000 1.710190 0.000000 
#    z 0.000000 0.000000 1.714970 
# 
# From -- ./inp_files/7953.got.cif
#   From: 2010.05.17/outbox.cif.g08.bks.cpg/sg68_4_cif.got.tgz:7953.got - 2010.06.03 18:57:09.
