data_PCOD9508495
_publ_section_title
;
Structure prediction by ZEFSAII (Michael W. Deem and Ramdas Pophale) SiO2 
 PCOD9508495
Probable space group: C C C A
;
_chemical_formula_sum "Si O2"
_cell_formula_units_Z 52
_cell_length_a 5.181900
_cell_length_b 18.427665
_cell_length_c 24.265792
_cell_angle_alpha 90.000000
_cell_angle_beta 90.000000
_cell_angle_gamma 90.000000
_cell_volume 2317.148177
_symmetry_space_group_name_H-M "C C C A"
_symmetry_group_IT_number 68
_space_group.IT_coordinate_system_code '2'
_symmetry_cell_setting 'orthorhombic'
loop_
_space_group_symop_operation_xyz
x,y,z
-x,1/2-y,z
x,1/2-y,1/2-z
-x,y,1/2-z
-x,-y,-z
x,1/2+y,-z
-x,1/2+y,1/2+z
x,-y,1/2+z
1/2+x,1/2+y,z
1/2-x,-y,z
1/2+x,-y,1/2-z
1/2-x,1/2+y,1/2-z
1/2-x,1/2-y,-z
1/2+x,y,-z
1/2-x,y,1/2+z
1/2+x,1/2-y,1/2+z
loop_
_atom_site_type_symbol
_atom_site_label
_atom_site_fract_x
_atom_site_fract_y
_atom_site_fract_z
Si Si1 0.500000 0.750000 0.539203
Si Si2 0.047366 0.592206 0.038556
Si Si3 0.743468 0.110440 0.284938
Si Si4 0.500000 0.750000 0.750000
Si Si5 0.750000 0.000000 0.880622
O O1 0.250000 0.750000 0.500000
O O2 0.483702 0.671434 0.567668
O O3 0.978279 0.528674 0.080596
O O4 0.820346 0.589212 0.992327
O O5 0.500000 0.077993 0.250000
O O6 0.665880 0.195299 0.287577
O O7 0.000000 0.105436 0.250000
O O8 0.797068 0.067944 0.340739
#
# Coordination Sequence:
#
# PCOD9508495 Si02
#       5
#     8  16  16   4   8
#     4   8  16  35  58  76 113 168 205 252 299 348
#     4  10  22  39  60  89 132 169 214 263 309 373
#     4  10  23  42  67  92 127 164 210 271 321 384
#     4   8  22  46  70  88 130 162 210 272 324 380
#     4  12  24  38  66  98 130 172 212 260 334 386
#
# _framework density 22.441376000000002
#
# number of rings (size 3 to 8) (size 9 to 14) (size 15 to 20)
#    0.923    1.231    0.000    2.308    0.000    6.154 
#    0.000    0.000   13.538    0.000    0.000    0.000 
#    0.000    0.000    0.000    0.000    0.000    0.000 
#
# Total GULP energy -145012.623727 kJ/mol
# GULP energy per Si atom -5577.408605 kJ/mol
# Density = 2.239030 g / cm^3
# Si number density = 22.441376 Si / 1000 Ang^3
#
#
#
# Elastic Constant Matrix: (Units=GPa)
#
#
# Indices 1 2 3 4 5 6 
#
# 1 134.8807 31.3013 21.5594 0.0000 0.0000 0.0000
# 2 31.3013 184.6983 67.7202 0.0000 0.0000 0.0000
# 3 21.5594 67.7202 66.4525 0.0000 0.0000 0.0000
# 4 0.0000 0.0000 0.0000 104.8034 0.0000 0.0000
# 5 0.0000 0.0000 0.0000 0.0000 2.8759 0.0000
# 6 0.0000 0.0000 0.0000 0.0000 0.0000 -3.5521
#
#
#
# Elastic Compliance Matrix: (Units=1/GPa)
#
#
# Indices 1 2 3 4 5 6 
#
# 1 0.007866 -0.000634 -0.001905 0.000000 0.000000 0.000000
# 2 -0.000634 0.008695 -0.008655 0.000000 0.000000 0.000000
# 3 -0.001905 -0.008655 0.024487 0.000000 0.000000 0.000000
# 4 0.000000 0.000000 0.000000 0.009542 0.000000 0.000000
# 5 0.000000 0.000000 0.000000 0.000000 0.347718 0.000000
# 6 0.000000 0.000000 0.000000 0.000000 0.000000 -0.281523
#
#
# Mechanical properties :
#
#
# Convention : Reuss Voigt Hill
#
# Bulk Modulus (GPa) = 53.59717 69.68817 61.64267
# Shear Modulus (GPa) = 34.38935 38.52214 36.45574
#
# Velocity S-wave (km/s) = 3.91885 4.14764 4.03487
# Velocity P-wave (km/s) = 6.66420 7.35242 7.01675
#
# Compressibility (1/GPa) = 0.01865770
#
# Stress axis : x y z
#
# Youngs Moduli (GPa) = 127.13353 115.00543 40.83811
#
# Poissons Ratio (x) = 0.07296 0.07781
# Poissons Ratio (y) = 0.08065 0.35347
# Poissons Ratio (z) = 0.24224 0.99541
#
# Static dielectric constant tensor:
#      x y z
#    x 1.790320 0.000000 0.000000 
#    y 0.000000 1.959600 0.000000 
#    z 0.000000 0.000000 1.831700 
# 
# From -- ./inp_files/34833.got.cif
#   From: 2010.05.17/outbox.cif.g08.bks.cpg/sg68_18_cif.got.tgz:34833.got - 2010.06.03 18:57:09.
