data_PCOD9508633
_publ_section_title
;
Structure prediction by ZEFSAII (Michael W. Deem and Ramdas Pophale) SiO2 
 PCOD9508633
Probable space group: C C C A
;
_chemical_formula_sum "Si O2"
_cell_formula_units_Z 88
_cell_length_a 13.450438
_cell_length_b 23.398471
_cell_length_c 11.890808
_cell_angle_alpha 90.000000
_cell_angle_beta 90.000000
_cell_angle_gamma 90.000000
_cell_volume 3742.271330
_symmetry_space_group_name_H-M "C C C A"
_symmetry_group_IT_number 68
_space_group.IT_coordinate_system_code '2'
_symmetry_cell_setting 'orthorhombic'
loop_
_space_group_symop_operation_xyz
x,y,z
-x,1/2-y,z
x,1/2-y,1/2-z
-x,y,1/2-z
-x,-y,-z
x,1/2+y,-z
-x,1/2+y,1/2+z
x,-y,1/2+z
1/2+x,1/2+y,z
1/2-x,-y,z
1/2+x,-y,1/2-z
1/2-x,1/2+y,1/2-z
1/2-x,1/2-y,-z
1/2+x,y,-z
1/2-x,y,1/2+z
1/2+x,1/2-y,1/2+z
loop_
_atom_site_type_symbol
_atom_site_label
_atom_site_fract_x
_atom_site_fract_y
_atom_site_fract_z
Si Si1 0.665154 0.343028 0.365406
Si Si2 0.368700 0.930463 0.674489
Si Si3 0.058153 0.825608 0.583276
Si Si4 0.869171 0.059773 0.302187
Si Si5 0.370862 0.117195 0.934436
Si Si6 0.308105 0.250000 0.750000
O O1 0.614619 0.388037 0.280055
O O2 0.590390 0.316458 0.455065
O O3 0.752845 0.372772 0.437761
O O4 0.731138 0.296519 0.300251
O O5 0.248624 0.936260 0.675648
O O6 0.402273 0.904826 0.556047
O O7 0.405212 0.995508 0.679837
O O8 0.083818 0.890493 0.622180
O O9 0.121823 0.785121 0.663928
O O10 0.938518 0.827135 0.591464
O O11 0.884277 0.075630 0.171542
#
# Coordination Sequence:
#
# PCOD9508633 Si02
#       6
#    16  16  16  16  16   8
#     4  11  24  46  70  99 136 181 228 284 344 407
#     4  10  22  41  70  99 143 183 218 281 345 413
#     4  12  25  43  70 102 135 180 230 283 344 396
#     4  10  22  40  68 100 138 182 224 272 344 409
#     4  11  23  43  66 104 140 174 230 275 340 416
#     4  12  24  47  70  99 136 180 238 285 336 403
#
# _framework density 23.515131
#
# number of rings (size 3 to 8) (size 9 to 14) (size 15 to 20)
#    0.000    1.091    5.455    1.091    2.545    4.364 
#    3.273    0.000    0.000    4.364    0.000    0.000 
#    0.000    0.000    0.000    0.000    0.000    0.000 
#
# Total GULP energy -246036.249407 kJ/mol
# GULP energy per Si atom -5591.732941 kJ/mol
# Density = 2.346161 g / cm^3
# Si number density = 23.515131 Si / 1000 Ang^3
#
#
#
# Elastic Constant Matrix: (Units=GPa)
#
#
# Indices 1 2 3 4 5 6 
#
# 1 70.5020 26.9816 18.2804 0.0000 0.0000 0.0000
# 2 26.9816 136.6731 66.6256 0.0000 0.0000 0.0000
# 3 18.2804 66.6256 143.6890 0.0000 0.0000 0.0000
# 4 0.0000 0.0000 0.0000 10.6648 0.0000 0.0000
# 5 0.0000 0.0000 0.0000 0.0000 9.9713 0.0000
# 6 0.0000 0.0000 0.0000 0.0000 0.0000 17.8068
#
#
#
# Elastic Compliance Matrix: (Units=1/GPa)
#
#
# Indices 1 2 3 4 5 6 
#
# 1 0.015399 -0.002694 -0.000710 0.000000 0.000000 0.000000
# 2 -0.002694 0.009925 -0.004259 0.000000 0.000000 0.000000
# 3 -0.000710 -0.004259 0.009025 0.000000 0.000000 0.000000
# 4 0.000000 0.000000 0.000000 0.093766 0.000000 0.000000
# 5 0.000000 0.000000 0.000000 0.000000 0.100288 0.000000
# 6 0.000000 0.000000 0.000000 0.000000 0.000000 0.056158
#
#
# Mechanical properties :
#
#
# Convention : Reuss Voigt Hill
#
# Bulk Modulus (GPa) = 52.56969 63.84880 58.20925
# Shear Modulus (GPa) = 16.32767 23.62034 19.97401
#
# Velocity S-wave (km/s) = 2.63791 3.17278 2.91763
# Velocity P-wave (km/s) = 5.62870 6.37442 6.01313
#
# Compressibility (1/GPa) = 0.01902237
#
# Stress axis : x y z
#
# Youngs Moduli (GPa) = 64.93898 100.75719 110.80681
#
# Poissons Ratio (x) = 0.27143 0.07867
# Poissons Ratio (y) = 0.17494 0.47195
# Poissons Ratio (z) = 0.04611 0.42915
#
# Static dielectric constant tensor:
#      x y z
#    x 1.920520 0.000000 0.000000 
#    y 0.000000 1.898330 0.000000 
#    z 0.000000 0.000000 1.847010 
# 
# From -- ./inp_files/13339.got.cif
#   From: 2010.05.17/outbox.cif.g08.bks.cpg/sg68_7_cif.got.tgz:13339.got - 2010.06.03 18:57:09.
