data_PCOD9508989
_publ_section_title
;
Structure prediction by ZEFSAII (Michael W. Deem and Ramdas Pophale) SiO2 
 PCOD9508989
Probable space group: C C C A
;
_chemical_formula_sum "Si O2"
_cell_formula_units_Z 72
_cell_length_a 13.841666
_cell_length_b 8.117125
_cell_length_c 28.374760
_cell_angle_alpha 90.000000
_cell_angle_beta 90.000000
_cell_angle_gamma 90.000000
_cell_volume 3188.032912
_symmetry_space_group_name_H-M "C C C A"
_symmetry_group_IT_number 68
_space_group.IT_coordinate_system_code '2'
_symmetry_cell_setting 'orthorhombic'
loop_
_space_group_symop_operation_xyz
x,y,z
-x,1/2-y,z
x,1/2-y,1/2-z
-x,y,1/2-z
-x,-y,-z
x,1/2+y,-z
-x,1/2+y,1/2+z
x,-y,1/2+z
1/2+x,1/2+y,z
1/2-x,-y,z
1/2+x,-y,1/2-z
1/2-x,1/2+y,1/2-z
1/2-x,1/2-y,-z
1/2+x,y,-z
1/2-x,y,1/2+z
1/2+x,1/2-y,1/2+z
loop_
_atom_site_type_symbol
_atom_site_label
_atom_site_fract_x
_atom_site_fract_y
_atom_site_fract_z
Si Si1 0.564558 0.085115 0.609744
Si Si2 0.250000 0.500000 0.359378
Si Si3 0.359413 0.037261 0.482399
Si Si4 0.117199 0.253686 0.196191
Si Si5 0.595662 0.127312 0.427401
O O1 0.500000 0.250000 0.609052
O O2 0.626514 0.097352 0.657900
O O3 0.625267 0.083357 0.562030
O O4 0.494432 0.926012 0.606011
O O5 0.172924 0.396594 0.329085
O O6 0.311936 0.384608 0.394024
O O7 0.388649 0.212062 0.459936
O O8 0.250000 0.000000 0.496642
O O9 0.414074 0.009494 0.531340
O O10 0.153746 0.250000 0.250000
O O11 0.000000 0.250000 0.200747
#
# Coordination Sequence:
#
# PCOD9508989 Si02
#       5
#    16   8  16  16  16
#     4  11  22  44  67  96 135 185 229 283 355 417
#     4  12  22  44  72 102 136 184 242 284 360 434
#     4  12  25  39  63 100 144 188 234 286 342 425
#     4  10  22  44  73  98 132 182 234 299 364 422
#     4  12  24  40  65 100 143 188 236 282 350 426
#
# _framework density 22.584458999999999
#
# number of rings (size 3 to 8) (size 9 to 14) (size 15 to 20)
#    0.000    0.667    5.556    4.667    0.000    0.000 
#    6.000    0.000    0.000    0.000    0.000    0.000 
#    0.000    0.000    0.000    0.000    0.000    0.000 
#
# Total GULP energy -200559.203022 kJ/mol
# GULP energy per Si atom -5571.088973 kJ/mol
# Density = 2.253306 g / cm^3
# Si number density = 22.584459 Si / 1000 Ang^3
#
#
#
# Elastic Constant Matrix: (Units=GPa)
#
#
# Indices 1 2 3 4 5 6 
#
# 1 68.5325 16.7093 29.0173 0.0000 0.0000 0.0000
# 2 16.7093 113.8289 49.4685 0.0000 0.0000 0.0000
# 3 29.0173 49.4685 199.2411 0.0000 0.0000 0.0000
# 4 0.0000 0.0000 0.0000 4.9410 0.0000 0.0000
# 5 0.0000 0.0000 0.0000 0.0000 13.3444 0.0000
# 6 0.0000 0.0000 0.0000 0.0000 0.0000 34.1409
#
#
#
# Elastic Compliance Matrix: (Units=1/GPa)
#
#
# Indices 1 2 3 4 5 6 
#
# 1 0.015769 -0.001476 -0.001930 0.000000 0.000000 0.000000
# 2 -0.001476 0.009986 -0.002264 0.000000 0.000000 0.000000
# 3 -0.001930 -0.002264 0.005862 0.000000 0.000000 0.000000
# 4 0.000000 0.000000 0.000000 0.202386 0.000000 0.000000
# 5 0.000000 0.000000 0.000000 0.000000 0.074938 0.000000
# 6 0.000000 0.000000 0.000000 0.000000 0.000000 0.029290
#
#
# Mechanical properties :
#
#
# Convention : Reuss Voigt Hill
#
# Bulk Modulus (GPa) = 49.31922 63.55473 56.43698
# Shear Modulus (GPa) = 14.03190 29.57911 21.80551
#
# Velocity S-wave (km/s) = 2.49531 3.62292 3.11064
# Velocity P-wave (km/s) = 5.49429 6.76038 6.15995
#
# Compressibility (1/GPa) = 0.02027607
#
# Stress axis : x y z
#
# Youngs Moduli (GPa) = 63.41684 100.14185 170.58011
#
# Poissons Ratio (x) = 0.14780 0.32923
# Poissons Ratio (y) = 0.09360 0.38626
# Poissons Ratio (z) = 0.12240 0.22676
#
# Static dielectric constant tensor:
#      x y z
#    x 1.985120 0.000000 0.000000 
#    y 0.000000 2.031440 0.000000 
#    z 0.000000 0.000000 1.862640 
# 
# From -- ./inp_files/50742.got.cif
#   From: 2010.05.17/outbox.cif.g08.bks.cpg/sg68_26_cif.got.tgz:50742.got - 2010.06.03 18:57:09.
