data_PCOD9508749
_publ_section_title
;
Structure prediction by ZEFSAII (Michael W. Deem and Ramdas Pophale) SiO2 
 PCOD9508749
Probable space group: C C C A
;
_chemical_formula_sum "Si O2"
_cell_formula_units_Z 64
_cell_length_a 10.492166
_cell_length_b 10.760104
_cell_length_c 23.067902
_cell_angle_alpha 90.000000
_cell_angle_beta 90.000000
_cell_angle_gamma 90.000000
_cell_volume 2604.292257
_symmetry_space_group_name_H-M "C C C A"
_symmetry_group_IT_number 68
_space_group.IT_coordinate_system_code '2'
_symmetry_cell_setting 'orthorhombic'
loop_
_space_group_symop_operation_xyz
x,y,z
-x,1/2-y,z
x,1/2-y,1/2-z
-x,y,1/2-z
-x,-y,-z
x,1/2+y,-z
-x,1/2+y,1/2+z
x,-y,1/2+z
1/2+x,1/2+y,z
1/2-x,-y,z
1/2+x,-y,1/2-z
1/2-x,1/2+y,1/2-z
1/2-x,1/2-y,-z
1/2+x,y,-z
1/2-x,y,1/2+z
1/2+x,1/2-y,1/2+z
loop_
_atom_site_type_symbol
_atom_site_label
_atom_site_fract_x
_atom_site_fract_y
_atom_site_fract_z
Si Si1 0.707371 0.777758 0.185962
Si Si2 0.498725 0.082170 0.858739
Si Si3 0.615187 0.671502 0.593152
Si Si4 0.126162 0.071635 0.475980
O O1 0.756027 0.750000 0.250000
O O2 0.622994 0.903351 0.183514
O O3 0.607859 0.668298 0.168128
O O4 0.814478 0.760783 0.137811
O O5 0.435935 0.131509 0.919018
O O6 0.562117 0.949882 0.873557
O O7 0.500000 0.750000 0.567872
O O8 0.685815 0.634012 0.534067
O O9 0.250000 0.000000 0.452429
O O10 0.000000 0.000000 0.500000
#
# Coordination Sequence:
#
# PCOD9508749 Si02
#       4
#    16  16  16  16
#     4  11  25  48  71  97 136 195 244 294 362 421
#     4  10  23  45  70 101 137 184 237 292 364 434
#     4  11  25  43  68 107 141 180 234 298 363 435
#     4  10  22  41  70 104 147 188 231 297 377 441
#
# _framework density 24.574815000000001
#
# number of rings (size 3 to 8) (size 9 to 14) (size 15 to 20)
#    0.000    1.500    0.000    5.250   10.500    1.500 
#   13.500    0.000    0.000    0.000    0.000    0.000 
#    0.000    0.000    0.000    0.000    0.000    0.000 
#
# Total GULP energy -178531.807038 kJ/mol
# GULP energy per Si atom -5579.118970 kJ/mol
# Density = 2.451888 g / cm^3
# Si number density = 24.574815 Si / 1000 Ang^3
#
#
#
# Elastic Constant Matrix: (Units=GPa)
#
#
# Indices 1 2 3 4 5 6 
#
# 1 67.7807 13.8455 9.1967 0.0000 0.0000 0.0000
# 2 13.8455 56.2086 -16.7337 0.0000 0.0000 0.0000
# 3 9.1967 -16.7337 109.0075 0.0000 0.0000 0.0000
# 4 0.0000 0.0000 0.0000 30.0075 0.0000 0.0000
# 5 0.0000 0.0000 0.0000 0.0000 29.0430 0.0000
# 6 0.0000 0.0000 0.0000 0.0000 0.0000 39.8268
#
#
#
# Elastic Compliance Matrix: (Units=1/GPa)
#
#
# Indices 1 2 3 4 5 6 
#
# 1 0.015958 -0.004539 -0.002043 0.000000 0.000000 0.000000
# 2 -0.004539 0.019934 0.003443 0.000000 0.000000 0.000000
# 3 -0.002043 0.003443 0.009875 0.000000 0.000000 0.000000
# 4 0.000000 0.000000 0.000000 0.033325 0.000000 0.000000
# 5 0.000000 0.000000 0.000000 0.000000 0.034432 0.000000
# 6 0.000000 0.000000 0.000000 0.000000 0.000000 0.025109
#
#
# Mechanical properties :
#
#
# Convention : Reuss Voigt Hill
#
# Bulk Modulus (GPa) = 25.32407 27.29040 26.30724
# Shear Modulus (GPa) = 31.63099 34.88802 33.25950
#
# Velocity S-wave (km/s) = 3.59155 3.77193 3.68285
# Velocity P-wave (km/s) = 5.24655 5.48627 5.36774
#
# Compressibility (1/GPa) = 0.03948812
#
# Stress axis : x y z
#
# Youngs Moduli (GPa) = 62.66503 50.16564 101.26999
#
# Poissons Ratio (x) = 0.22770 0.20691
# Poissons Ratio (y) = 0.28444 -0.34867
# Poissons Ratio (z) = 0.12803 -0.17272
#
# Static dielectric constant tensor:
#      x y z
#    x 1.917220 0.000000 0.000000 
#    y 0.000000 1.724600 0.000000 
#    z 0.000000 0.000000 1.936460 
# 
# From -- ./inp_files/37024.got.cif
#   From: 2010.05.17/outbox.cif.g08.bks.cpg/sg68_19_cif.got.tgz:37024.got - 2010.06.03 18:57:09.
