data_PCOD9508515
_publ_section_title
;
Structure prediction by ZEFSAII (Michael W. Deem and Ramdas Pophale) SiO2 
 PCOD9508515
Probable space group: C C C A
;
_chemical_formula_sum "Si O2"
_cell_formula_units_Z 92
_cell_length_a 8.412197
_cell_length_b 20.686400
_cell_length_c 26.016199
_cell_angle_alpha 90.000000
_cell_angle_beta 90.000000
_cell_angle_gamma 90.000000
_cell_volume 4527.288791
_symmetry_space_group_name_H-M "C C C A"
_symmetry_group_IT_number 68
_space_group.IT_coordinate_system_code '2'
_symmetry_cell_setting 'orthorhombic'
loop_
_space_group_symop_operation_xyz
x,y,z
-x,1/2-y,z
x,1/2-y,1/2-z
-x,y,1/2-z
-x,-y,-z
x,1/2+y,-z
-x,1/2+y,1/2+z
x,-y,1/2+z
1/2+x,1/2+y,z
1/2-x,-y,z
1/2+x,-y,1/2-z
1/2-x,1/2+y,1/2-z
1/2-x,1/2-y,-z
1/2+x,y,-z
1/2-x,y,1/2+z
1/2+x,1/2-y,1/2+z
loop_
_atom_site_type_symbol
_atom_site_label
_atom_site_fract_x
_atom_site_fract_y
_atom_site_fract_z
Si Si1 0.465757 0.132673 0.550161
Si Si2 0.500000 0.250000 0.878786
Si Si3 0.000000 0.250000 0.750000
Si Si4 0.084723 0.631760 0.437497
Si Si5 0.381889 0.046029 0.204944
Si Si6 0.561006 0.999666 0.105507
Si Si7 0.689576 0.318997 0.162464
O O1 0.541055 0.188908 0.585281
O O2 0.275126 0.129614 0.555140
O O3 0.509654 0.149416 0.491822
O O4 0.522678 0.063705 0.571895
O O5 0.651384 0.221941 0.848191
O O6 0.107151 0.290951 0.787908
O O7 0.074809 0.678298 0.387748
O O8 0.005854 0.563007 0.423580
O O9 0.500000 0.068023 0.250000
O O10 0.475784 0.005980 0.160936
O O11 0.292917 0.105110 0.176276
O O12 0.250000 0.000000 0.228982
O O13 0.750000 0.000000 0.112225
#
# Coordination Sequence:
#
# PCOD9508515 Si02
#       7
#    16   8   4  16  16  16  16
#     4  11  22  40  63  97 131 175 214 270 330 397
#     4  10  24  42  64  92 132 168 222 260 326 400
#     4  12  24  44  68  84 132 168 224 270 330 394
#     4  10  22  39  64  93 135 168 221 275 329 392
#     4  11  22  43  66  95 129 165 220 276 332 385
#     4  11  22  38  64  95 131 172 217 273 331 388
#     4  10  24  44  63  93 126 174 217 273 323 394
#
# _framework density 20.321213
#
# number of rings (size 3 to 8) (size 9 to 14) (size 15 to 20)
#    0.000    1.391    0.870    5.739    0.000    8.000 
#    6.261    0.000    0.000    0.000    0.000    0.000 
#    0.000    0.000    0.000    0.000    0.000    0.000 
#
# Total GULP energy -256678.624941 kJ/mol
# GULP energy per Si atom -5579.970107 kJ/mol
# Density = 2.027496 g / cm^3
# Si number density = 20.321213 Si / 1000 Ang^3
#
#
#
# Elastic Constant Matrix: (Units=GPa)
#
#
# Indices 1 2 3 4 5 6 
#
# 1 92.2487 58.6500 48.8670 0.0000 0.0000 0.0000
# 2 58.6500 110.9888 52.5913 0.0000 0.0000 0.0000
# 3 48.8670 52.5913 148.8070 0.0000 0.0000 0.0000
# 4 0.0000 0.0000 0.0000 27.4151 0.0000 0.0000
# 5 0.0000 0.0000 0.0000 0.0000 38.7991 0.0000
# 6 0.0000 0.0000 0.0000 0.0000 0.0000 30.6620
#
#
#
# Elastic Compliance Matrix: (Units=1/GPa)
#
#
# Indices 1 2 3 4 5 6 
#
# 1 0.017340 -0.007765 -0.002950 0.000000 0.000000 0.000000
# 2 -0.007765 0.014300 -0.002504 0.000000 0.000000 0.000000
# 3 -0.002950 -0.002504 0.008574 0.000000 0.000000 0.000000
# 4 0.000000 0.000000 0.000000 0.036476 0.000000 0.000000
# 5 0.000000 0.000000 0.000000 0.000000 0.025774 0.000000
# 6 0.000000 0.000000 0.000000 0.000000 0.000000 0.032614
#
#
# Mechanical properties :
#
#
# Convention : Reuss Voigt Hill
#
# Bulk Modulus (GPa) = 72.59214 74.69566 73.64390
# Shear Modulus (GPa) = 30.10119 32.17099 31.13609
#
# Velocity S-wave (km/s) = 3.85290 3.98316 3.91857
# Velocity P-wave (km/s) = 7.45607 7.61521 7.53606
#
# Compressibility (1/GPa) = 0.01377560
#
# Stress axis : x y z
#
# Youngs Moduli (GPa) = 57.67070 69.93177 116.63547
#
# Poissons Ratio (x) = 0.54303 0.34406
# Poissons Ratio (y) = 0.44782 0.29203
# Poissons Ratio (z) = 0.17012 0.17509
#
# Static dielectric constant tensor:
#      x y z
#    x 1.693140 0.000000 0.000000 
#    y 0.000000 1.645240 0.000000 
#    z 0.000000 0.000000 1.737140 
# 
# From -- ./inp_files/49360.got.cif
#   From: 2010.05.17/outbox.cif.g08.bks.cpg/sg68_25_cif.got.tgz:49360.got - 2010.06.03 18:57:09.
