data_PCOD9508826
_publ_section_title
;
Structure prediction by ZEFSAII (Michael W. Deem and Ramdas Pophale) SiO2 
 PCOD9508826
Probable space group: C C C A
;
_chemical_formula_sum "Si O2"
_cell_formula_units_Z 64
_cell_length_a 11.268417
_cell_length_b 11.082648
_cell_length_c 21.694060
_cell_angle_alpha 90.000000
_cell_angle_beta 90.000000
_cell_angle_gamma 90.000000
_cell_volume 2709.238801
_symmetry_space_group_name_H-M "C C C A"
_symmetry_group_IT_number 68
_space_group.IT_coordinate_system_code '2'
_symmetry_cell_setting 'orthorhombic'
loop_
_space_group_symop_operation_xyz
x,y,z
-x,1/2-y,z
x,1/2-y,1/2-z
-x,y,1/2-z
-x,-y,-z
x,1/2+y,-z
-x,1/2+y,1/2+z
x,-y,1/2+z
1/2+x,1/2+y,z
1/2-x,-y,z
1/2+x,-y,1/2-z
1/2-x,1/2+y,1/2-z
1/2-x,1/2-y,-z
1/2+x,y,-z
1/2-x,y,1/2+z
1/2+x,1/2-y,1/2+z
loop_
_atom_site_type_symbol
_atom_site_label
_atom_site_fract_x
_atom_site_fract_y
_atom_site_fract_z
Si Si1 0.884517 0.446716 0.123028
Si Si2 0.205582 0.805639 0.909760
Si Si3 0.500000 0.495782 0.250000
Si Si4 0.596258 0.655624 0.534632
Si Si5 0.750000 0.000000 0.692284
O O1 0.750000 0.500000 0.131246
O O2 0.875604 0.310921 0.100469
O O3 0.955518 0.445449 0.186531
O O4 0.939791 0.535478 0.071184
O O5 0.331845 0.740146 0.917670
O O6 0.205826 0.894105 0.852626
O O7 0.176134 0.870098 0.974624
O O8 0.633196 0.448281 0.271407
O O9 0.500000 0.750000 0.513082
#
# Coordination Sequence:
#
# PCOD9508826 Si02
#       5
#    16  16   8  16   8
#     4  10  23  46  69 104 145 194 254 306 374 447
#     4  10  25  42  69 106 142 191 244 314 383 449
#     4  12  26  51  73 106 148 202 253 309 372 468
#     4  10  22  42  69 104 145 192 240 309 379 455
#     4  12  28  46  72 108 144 200 254 314 384 458
#
# _framework density 23.622872000000001
#
# number of rings (size 3 to 8) (size 9 to 14) (size 15 to 20)
#    0.000    1.500    1.250    1.500   12.250    3.000 
#    0.000    8.125    0.000    0.000    0.000    0.000 
#    0.000    0.000    0.000    0.000    0.000    0.000 
#
# Total GULP energy -178366.954618 kJ/mol
# GULP energy per Si atom -5573.967332 kJ/mol
# Density = 2.356911 g / cm^3
# Si number density = 23.622872 Si / 1000 Ang^3
#
#
#
# Elastic Constant Matrix: (Units=GPa)
#
#
# Indices 1 2 3 4 5 6 
#
# 1 85.9880 31.1195 15.1359 0.0000 0.0000 0.0000
# 2 31.1195 129.7854 60.1667 0.0000 0.0000 0.0000
# 3 15.1359 60.1667 111.6623 0.0000 0.0000 0.0000
# 4 0.0000 0.0000 0.0000 -3.0239 0.0000 0.0000
# 5 0.0000 0.0000 0.0000 0.0000 50.0452 0.0000
# 6 0.0000 0.0000 0.0000 0.0000 0.0000 27.5333
#
#
#
# Elastic Compliance Matrix: (Units=1/GPa)
#
#
# Indices 1 2 3 4 5 6 
#
# 1 0.012736 -0.003004 -0.000108 0.000000 0.000000 0.000000
# 2 -0.003004 0.010979 -0.005509 0.000000 0.000000 0.000000
# 3 -0.000108 -0.005509 0.011938 0.000000 0.000000 0.000000
# 4 0.000000 0.000000 0.000000 -0.330698 0.000000 0.000000
# 5 0.000000 0.000000 0.000000 0.000000 0.019982 0.000000
# 6 0.000000 0.000000 0.000000 0.000000 0.000000 0.036320
#
#
# Mechanical properties :
#
#
# Convention : Reuss Voigt Hill
#
# Bulk Modulus (GPa) = 54.31063 60.03110 57.17086
# Shear Modulus (GPa) = -23.21629 29.64517 3.21444
#
# Velocity S-wave (km/s) = -3.13835 3.54635 1.16777
# Velocity P-wave (km/s) = 3.14775 6.49894 5.10610
#
# Compressibility (1/GPa) = 0.01841260
#
# Stress axis : x y z
#
# Youngs Moduli (GPa) = 78.52031 91.08338 83.76350
#
# Poissons Ratio (x) = 0.27359 0.00903
# Poissons Ratio (y) = 0.23585 0.46142
# Poissons Ratio (z) = 0.00847 0.50174
#
# Static dielectric constant tensor:
#      x y z
#    x 2.105360 0.000000 0.000000 
#    y 0.000000 1.856690 0.000000 
#    z 0.000000 0.000000 1.860750 
# 
# From -- ./inp_files/43900.got.cif
#   From: 2010.05.17/outbox.cif.g08.bks.cpg/sg68_22_cif.got.tgz:43900.got - 2010.06.03 18:57:09.
