data_PCOD9508662
_publ_section_title
;
Structure prediction by ZEFSAII (Michael W. Deem and Ramdas Pophale) SiO2 
 PCOD9508662
Probable space group: C C C A
;
_chemical_formula_sum "Si O2"
_cell_formula_units_Z 56
_cell_length_a 9.145065
_cell_length_b 18.017819
_cell_length_c 15.240479
_cell_angle_alpha 90.000000
_cell_angle_beta 90.000000
_cell_angle_gamma 90.000000
_cell_volume 2511.236606
_symmetry_space_group_name_H-M "C C C A"
_symmetry_group_IT_number 68
_space_group.IT_coordinate_system_code '2'
_symmetry_cell_setting 'orthorhombic'
loop_
_space_group_symop_operation_xyz
x,y,z
-x,1/2-y,z
x,1/2-y,1/2-z
-x,y,1/2-z
-x,-y,-z
x,1/2+y,-z
-x,1/2+y,1/2+z
x,-y,1/2+z
1/2+x,1/2+y,z
1/2-x,-y,z
1/2+x,-y,1/2-z
1/2-x,1/2+y,1/2-z
1/2-x,1/2-y,-z
1/2+x,y,-z
1/2-x,y,1/2+z
1/2+x,1/2-y,1/2+z
loop_
_atom_site_type_symbol
_atom_site_label
_atom_site_fract_x
_atom_site_fract_y
_atom_site_fract_z
Si Si1 0.250000 0.500000 0.701574
Si Si2 0.849452 0.205918 0.432085
Si Si3 0.452523 0.429159 0.051966
Si Si4 0.350270 0.638320 0.806712
O O1 0.366063 0.533368 0.632980
O O2 0.251348 0.572006 0.765330
O O3 0.750000 0.250000 0.500000
O O4 0.882074 0.128407 0.483258
O O5 0.762195 0.200206 0.340038
O O6 0.000000 0.250000 0.419335
O O7 0.583374 0.387874 0.100637
O O8 0.500000 0.500000 0.000000
O O9 0.500000 0.655567 0.750000
#
# Coordination Sequence:
#
# PCOD9508662 Si02
#       4
#     8  16  16  16
#     4  10  22  40  72 106 146 188 250 320 384 428
#     4  12  25  47  77 110 152 206 257 307 390 475
#     4  11  22  42  76 102 145 196 263 304 373 456
#     4  10  22  43  69 107 151 195 248 323 382 441
#
# _framework density 22.299772000000001
#
# number of rings (size 3 to 8) (size 9 to 14) (size 15 to 20)
#    0.000    1.143    2.857    3.429    0.000    0.000 
#    0.000   10.000   12.571    0.000    0.000    0.000 
#    0.000    0.000    0.000    0.000    0.000    0.000 
#
# Total GULP energy -155892.602768 kJ/mol
# GULP energy per Si atom -5567.592956 kJ/mol
# Density = 2.224902 g / cm^3
# Si number density = 22.299772 Si / 1000 Ang^3
#
#
#
# Elastic Constant Matrix: (Units=GPa)
#
#
# Indices 1 2 3 4 5 6 
#
# 1 135.3223 66.7570 53.0095 0.0000 0.0000 0.0000
# 2 66.7570 111.6406 57.1628 0.0000 0.0000 0.0000
# 3 53.0095 57.1628 123.1605 0.0000 0.0000 0.0000
# 4 0.0000 0.0000 0.0000 40.6192 0.0000 0.0000
# 5 0.0000 0.0000 0.0000 0.0000 68.2533 0.0000
# 6 0.0000 0.0000 0.0000 0.0000 0.0000 42.1297
#
#
#
# Elastic Compliance Matrix: (Units=1/GPa)
#
#
# Indices 1 2 3 4 5 6 
#
# 1 0.010914 -0.005405 -0.002189 0.000000 0.000000 0.000000
# 2 -0.005405 0.014427 -0.004369 0.000000 0.000000 0.000000
# 3 -0.002189 -0.004369 0.011089 0.000000 0.000000 0.000000
# 4 0.000000 0.000000 0.000000 0.024619 0.000000 0.000000
# 5 0.000000 0.000000 0.000000 0.000000 0.014651 0.000000
# 6 0.000000 0.000000 0.000000 0.000000 0.000000 0.023736
#
#
# Mechanical properties :
#
#
# Convention : Reuss Voigt Hill
#
# Bulk Modulus (GPa) = 79.97935 80.44245 80.21090
# Shear Modulus (GPa) = 39.20626 43.08006 41.14316
#
# Velocity S-wave (km/s) = 4.19757 4.40006 4.30001
# Velocity P-wave (km/s) = 7.70949 7.87182 7.79108
#
# Compressibility (1/GPa) = 0.01250323
#
# Stress axis : x y z
#
# Youngs Moduli (GPa) = 91.62837 69.31547 90.17593
#
# Poissons Ratio (x) = 0.37468 0.19735
# Poissons Ratio (y) = 0.49529 0.39402
# Poissons Ratio (z) = 0.20053 0.30287
#
# Static dielectric constant tensor:
#      x y z
#    x 1.988640 0.000000 0.000000 
#    y 0.000000 1.873680 0.000000 
#    z 0.000000 0.000000 0.984320 
# 
# From -- ./inp_files/18982.got.cif
#   From: 2010.05.17/outbox.cif.g08.bks.cpg/sg68_10_cif.got.tgz:18982.got - 2010.06.03 18:57:09.
