data_PCOD9508942
_publ_section_title
;
Structure prediction by ZEFSAII (Michael W. Deem and Ramdas Pophale) SiO2 
 PCOD9508942
Probable space group: C C C A
;
_chemical_formula_sum "Si O2"
_cell_formula_units_Z 96
_cell_length_a 23.765364
_cell_length_b 12.234915
_cell_length_c 16.962749
_cell_angle_alpha 90.000000
_cell_angle_beta 90.000000
_cell_angle_gamma 90.000000
_cell_volume 4932.211175
_symmetry_space_group_name_H-M "C C C A"
_symmetry_group_IT_number 68
_space_group.IT_coordinate_system_code '2'
_symmetry_cell_setting 'orthorhombic'
loop_
_space_group_symop_operation_xyz
x,y,z
-x,1/2-y,z
x,1/2-y,1/2-z
-x,y,1/2-z
-x,-y,-z
x,1/2+y,-z
-x,1/2+y,1/2+z
x,-y,1/2+z
1/2+x,1/2+y,z
1/2-x,-y,z
1/2+x,-y,1/2-z
1/2-x,1/2+y,1/2-z
1/2-x,1/2-y,-z
1/2+x,y,-z
1/2-x,y,1/2+z
1/2+x,1/2-y,1/2+z
loop_
_atom_site_type_symbol
_atom_site_label
_atom_site_fract_x
_atom_site_fract_y
_atom_site_fract_z
Si Si1 0.963250 0.162331 0.331342
Si Si2 0.139981 0.750000 0.750000
Si Si3 0.157264 0.126651 0.602194
Si Si4 0.817364 0.007887 0.239041
Si Si5 0.937250 0.488576 0.032097
Si Si6 0.650540 0.615530 0.913473
Si Si7 0.250000 0.000000 0.006109
O O1 0.904435 0.223735 0.318477
O O2 0.948545 0.058815 0.381012
O O3 0.000000 0.250000 0.378552
O O4 0.000000 0.141131 0.250000
O O5 0.172445 0.862123 0.758973
O O6 0.155756 0.257254 0.609232
O O7 0.161320 0.059170 0.684333
O O8 0.103541 0.090850 0.549336
O O9 0.212524 0.082721 0.557284
O O10 0.750000 0.000000 0.231367
O O11 0.851002 0.957235 0.165442
O O12 0.900716 0.411539 0.973254
O O13 0.000000 0.500000 0.000000
O O14 0.707076 0.573105 0.956142
#
# Coordination Sequence:
#
# PCOD9508942 Si02
#       7
#    16   8  16  16  16  16   8
#     4   9  21  41  70  94 120 172 229 281 317 390
#     4  10  23  42  68  94 126 172 231 278 324 392
#     4  11  24  44  65  97 135 176 224 280 338 407
#     4  12  25  42  67  97 131 182 227 275 338 407
#     4  11  26  42  68  99 136 178 223 273 350 398
#     4  11  26  42  65 101 136 176 220 282 344 409
#     4  10  22  44  64  96 128 178 220 280 336 400
#
# _framework density 19.463887
#
# number of rings (size 3 to 8) (size 9 to 14) (size 15 to 20)
#    0.000    1.500    3.333    1.000    9.333    1.333 
#    0.000    0.000    0.000    2.000    0.000    0.000 
#    0.000    0.000    0.000    0.000    0.000    0.000 
#
# Total GULP energy -267415.450398 kJ/mol
# GULP energy per Si atom -5571.155217 kJ/mol
# Density = 1.941959 g / cm^3
# Si number density = 19.463887 Si / 1000 Ang^3
#
#
#
# Elastic Constant Matrix: (Units=GPa)
#
#
# Indices 1 2 3 4 5 6 
#
# 1 133.4038 52.2511 32.6902 0.0000 0.0000 0.0000
# 2 52.2511 166.5402 43.7698 0.0000 0.0000 0.0000
# 3 32.6902 43.7698 90.9768 0.0000 0.0000 0.0000
# 4 0.0000 0.0000 0.0000 9.0149 0.0000 0.0000
# 5 0.0000 0.0000 0.0000 0.0000 8.9733 0.0000
# 6 0.0000 0.0000 0.0000 0.0000 0.0000 21.3566
#
#
#
# Elastic Compliance Matrix: (Units=1/GPa)
#
#
# Indices 1 2 3 4 5 6 
#
# 1 0.008890 -0.002232 -0.002121 0.000000 0.000000 0.000000
# 2 -0.002232 0.007434 -0.002775 0.000000 0.000000 0.000000
# 3 -0.002121 -0.002775 0.013089 0.000000 0.000000 0.000000
# 4 0.000000 0.000000 0.000000 0.110928 0.000000 0.000000
# 5 0.000000 0.000000 0.000000 0.000000 0.111441 0.000000
# 6 0.000000 0.000000 0.000000 0.000000 0.000000 0.046824
#
#
# Mechanical properties :
#
#
# Convention : Reuss Voigt Hill
#
# Bulk Modulus (GPa) = 65.96970 72.03810 69.00390
# Shear Modulus (GPa) = 15.72761 25.34961 20.53861
#
# Velocity S-wave (km/s) = 2.84569 3.61278 3.25193
# Velocity P-wave (km/s) = 6.69061 7.38203 7.04481
#
# Compressibility (1/GPa) = 0.01515848
#
# Stress axis : x y z
#
# Youngs Moduli (GPa) = 112.48810 134.51720 76.40188
#
# Poissons Ratio (x) = 0.30022 0.16202
# Poissons Ratio (y) = 0.25105 0.21199
# Poissons Ratio (z) = 0.23854 0.37323
#
# Static dielectric constant tensor:
#      x y z
#    x 1.729760 0.000000 0.000000 
#    y 0.000000 1.633860 0.000000 
#    z 0.000000 0.000000 1.753650 
# 
# From -- ./inp_files/33577.got.cif
#   From: 2010.05.17/outbox.cif.g08.bks.cpg/sg68_17_cif.got.tgz:33577.got - 2010.06.03 18:57:09.
