data_PCOD9508109
_publ_section_title
;
Structure prediction by ZEFSAII (Michael W. Deem and Ramdas Pophale) SiO2 
 PCOD9508109
Probable space group: C C C A
;
_chemical_formula_sum "Si O2"
_cell_formula_units_Z 88
_cell_length_a 12.640329
_cell_length_b 24.358073
_cell_length_c 14.627482
_cell_angle_alpha 90.000000
_cell_angle_beta 90.000000
_cell_angle_gamma 90.000000
_cell_volume 4503.714770
_symmetry_space_group_name_H-M "C C C A"
_symmetry_group_IT_number 68
_space_group.IT_coordinate_system_code '2'
_symmetry_cell_setting 'orthorhombic'
loop_
_space_group_symop_operation_xyz
x,y,z
-x,1/2-y,z
x,1/2-y,1/2-z
-x,y,1/2-z
-x,-y,-z
x,1/2+y,-z
-x,1/2+y,1/2+z
x,-y,1/2+z
1/2+x,1/2+y,z
1/2-x,-y,z
1/2+x,-y,1/2-z
1/2-x,1/2+y,1/2-z
1/2-x,1/2-y,-z
1/2+x,y,-z
1/2-x,y,1/2+z
1/2+x,1/2-y,1/2+z
loop_
_atom_site_type_symbol
_atom_site_label
_atom_site_fract_x
_atom_site_fract_y
_atom_site_fract_z
Si Si1 0.000000 0.917882 0.250000
Si Si2 0.477501 0.583329 0.433850
Si Si3 0.130010 0.020013 0.904626
Si Si4 0.988040 0.837429 0.409899
Si Si5 0.500000 0.650578 0.250000
Si Si6 0.822265 0.759409 0.087448
Si Si7 0.162421 0.250000 0.250000
O O1 0.084451 0.952132 0.311033
O O2 0.044705 0.877510 0.172335
O O3 0.388000 0.558665 0.504569
O O4 0.556508 0.532914 0.419642
O O5 0.527029 0.630857 0.495819
O O6 0.462916 0.611952 0.334851
O O7 0.250000 0.000000 0.896005
O O8 0.912312 0.786104 0.409113
O O9 0.110225 0.816030 0.404313
O O10 0.593997 0.694765 0.265654
O O11 0.740548 0.747389 0.166201
O O12 0.750000 0.750000 0.000000
#
# Coordination Sequence:
#
# PCOD9508109 Si02
#       7
#     8  16  16  16   8  16   8
#     4  10  21  41  63  90 123 159 203 258 316 374
#     4  10  22  41  62  88 122 160 205 256 310 371
#     4  10  23  43  65  91 122 159 211 264 315 379
#     4  10  22  39  60  88 124 158 199 250 304 370
#     4  11  23  40  59  88 127 160 199 255 306 362
#     4  11  22  38  60  89 122 160 201 246 299 366
#     4  11  24  37  58  92 122 157 206 245 296 374
#
# _framework density 19.539425999999999
#
# number of rings (size 3 to 8) (size 9 to 14) (size 15 to 20)
#    0.000    1.636    0.000    3.818    0.000   13.091 
#    0.000   16.364    0.000    0.000    0.000    0.000 
#    0.000    0.000    0.000    0.000    0.000    0.000 
#
# Total GULP energy -245012.175027 kJ/mol
# GULP energy per Si atom -5568.458523 kJ/mol
# Density = 1.949495 g / cm^3
# Si number density = 19.539426 Si / 1000 Ang^3
#
#
#
# Elastic Constant Matrix: (Units=GPa)
#
#
# Indices 1 2 3 4 5 6 
#
# 1 110.5599 35.8833 39.0350 0.0000 0.0000 0.0000
# 2 35.8833 83.5778 5.5836 0.0000 0.0000 0.0000
# 3 39.0350 5.5836 101.8594 0.0000 0.0000 0.0000
# 4 0.0000 0.0000 0.0000 35.5135 0.0000 0.0000
# 5 0.0000 0.0000 0.0000 0.0000 18.3481 0.0000
# 6 0.0000 0.0000 0.0000 0.0000 0.0000 10.8579
#
#
#
# Elastic Compliance Matrix: (Units=1/GPa)
#
#
# Indices 1 2 3 4 5 6 
#
# 1 0.012206 -0.004946 -0.004406 0.000000 0.000000 0.000000
# 2 -0.004946 0.014013 0.001127 0.000000 0.000000 0.000000
# 3 -0.004406 0.001127 0.011444 0.000000 0.000000 0.000000
# 4 0.000000 0.000000 0.000000 0.028158 0.000000 0.000000
# 5 0.000000 0.000000 0.000000 0.000000 0.054502 0.000000
# 6 0.000000 0.000000 0.000000 0.000000 0.000000 0.092099
#
#
# Mechanical properties :
#
#
# Convention : Reuss Voigt Hill
#
# Bulk Modulus (GPa) = 47.14123 50.77789 48.95956
# Shear Modulus (GPa) = 21.19147 27.31024 24.25086
#
# Velocity S-wave (km/s) = 3.29682 3.74264 3.52678
# Velocity P-wave (km/s) = 6.21857 6.68732 6.45720
#
# Compressibility (1/GPa) = 0.02121285
#
# Stress axis : x y z
#
# Youngs Moduli (GPa) = 81.92712 71.36154 87.37950
#
# Poissons Ratio (x) = 0.35296 0.38504
# Poissons Ratio (y) = 0.40522 -0.09850
# Poissons Ratio (z) = 0.36101 -0.08045
#
# Static dielectric constant tensor:
#      x y z
#    x 1.666860 0.000000 0.000000 
#    y 0.000000 1.642520 0.000000 
#    z 0.000000 0.000000 1.997950 
# 
# From -- ./inp_files/21029.got.cif
#   From: 2010.05.17/outbox.cif.g08.bks.cpg/sg68_11_cif.got.tgz:21029.got - 2010.06.03 18:57:09.
