data_PCOD9508886
_publ_section_title
;
Structure prediction by ZEFSAII (Michael W. Deem and Ramdas Pophale) SiO2 
 PCOD9508886
Probable space group: C C C A
;
_chemical_formula_sum "Si O2"
_cell_formula_units_Z 96
_cell_length_a 14.336078
_cell_length_b 14.026024
_cell_length_c 21.469389
_cell_angle_alpha 90.000000
_cell_angle_beta 90.000000
_cell_angle_gamma 90.000000
_cell_volume 4317.025539
_symmetry_space_group_name_H-M "C C C A"
_symmetry_group_IT_number 68
_space_group.IT_coordinate_system_code '2'
_symmetry_cell_setting 'orthorhombic'
loop_
_space_group_symop_operation_xyz
x,y,z
-x,1/2-y,z
x,1/2-y,1/2-z
-x,y,1/2-z
-x,-y,-z
x,1/2+y,-z
-x,1/2+y,1/2+z
x,-y,1/2+z
1/2+x,1/2+y,z
1/2-x,-y,z
1/2+x,-y,1/2-z
1/2-x,1/2+y,1/2-z
1/2-x,1/2-y,-z
1/2+x,y,-z
1/2-x,y,1/2+z
1/2+x,1/2-y,1/2+z
loop_
_atom_site_type_symbol
_atom_site_label
_atom_site_fract_x
_atom_site_fract_y
_atom_site_fract_z
Si Si1 0.612734 0.248707 0.961957
Si Si2 0.159732 0.431320 0.381903
Si Si3 0.919022 0.579248 0.198736
Si Si4 0.390095 0.252359 0.397074
Si Si5 0.729850 0.392128 0.878286
Si Si6 0.763758 0.360668 0.244445
O O1 0.500000 0.250000 0.956839
O O2 0.641255 0.143036 0.937001
O O3 0.662100 0.329787 0.921080
O O4 0.644914 0.270350 0.032794
O O5 0.250000 0.500000 0.394540
O O6 0.076348 0.498353 0.355038
O O7 0.181793 0.370150 0.320114
O O8 0.890021 0.670810 0.157763
O O9 0.824898 0.569601 0.238407
O O10 0.000000 0.588506 0.250000
O O11 0.500000 0.250000 0.407329
O O12 0.330500 0.161612 0.375862
O O13 0.750000 0.500000 0.898298
O O14 0.687350 0.386948 0.808943
O O15 0.737034 0.250000 0.250000
#
# Coordination Sequence:
#
# PCOD9508886 Si02
#       6
#    16  16  16  16  16  16
#     4  11  26  45  65  95 139 183 225 276 344 410
#     4  10  22  43  66  93 132 177 223 279 347 408
#     4  11  23  39  68 102 130 167 223 288 347 402
#     4  11  25  43  66  99 135 179 225 283 345 405
#     4  12  24  42  69 100 132 178 230 278 337 414
#     4  11  20  39  64  91 126 166 214 278 338 399
#
# _framework density 22.237532999999999
#
# number of rings (size 3 to 8) (size 9 to 14) (size 15 to 20)
#    0.000    1.000    3.333    4.000    0.000    6.000 
#    0.000    4.167    0.000    0.000    0.000    0.000 
#    0.000    0.000    0.000    0.000    0.000    0.000 
#
# Total GULP energy -267646.228719 kJ/mol
# GULP energy per Si atom -5575.963098 kJ/mol
# Density = 2.218692 g / cm^3
# Si number density = 22.237533 Si / 1000 Ang^3
#
#
#
# Elastic Constant Matrix: (Units=GPa)
#
#
# Indices 1 2 3 4 5 6 
#
# 1 75.7311 50.5832 32.8356 0.0000 0.0000 0.0000
# 2 50.5832 141.6646 53.1199 0.0000 0.0000 0.0000
# 3 32.8356 53.1199 125.5034 0.0000 0.0000 0.0000
# 4 0.0000 0.0000 0.0000 29.2883 0.0000 0.0000
# 5 0.0000 0.0000 0.0000 0.0000 37.1257 0.0000
# 6 0.0000 0.0000 0.0000 0.0000 0.0000 17.6778
#
#
#
# Elastic Compliance Matrix: (Units=1/GPa)
#
#
# Indices 1 2 3 4 5 6 
#
# 1 0.017906 -0.005512 -0.002352 0.000000 0.000000 0.000000
# 2 -0.005512 0.010087 -0.002827 0.000000 0.000000 0.000000
# 3 -0.002352 -0.002827 0.009780 0.000000 0.000000 0.000000
# 4 0.000000 0.000000 0.000000 0.034143 0.000000 0.000000
# 5 0.000000 0.000000 0.000000 0.000000 0.026935 0.000000
# 6 0.000000 0.000000 0.000000 0.000000 0.000000 0.056568
#
#
# Mechanical properties :
#
#
# Convention : Reuss Voigt Hill
#
# Bulk Modulus (GPa) = 61.00906 68.44183 64.72544
# Shear Modulus (GPa) = 27.43256 30.57573 29.00414
#
# Velocity S-wave (km/s) = 3.51610 3.71207 3.61541
# Velocity P-wave (km/s) = 6.63164 7.01549 6.82626
#
# Compressibility (1/GPa) = 0.01639101
#
# Stress axis : x y z
#
# Youngs Moduli (GPa) = 55.84808 99.13649 102.25000
#
# Poissons Ratio (x) = 0.54640 0.24048
# Poissons Ratio (y) = 0.30781 0.28910
# Poissons Ratio (z) = 0.13135 0.28030
#
# Static dielectric constant tensor:
#      x y z
#    x 1.774290 0.000000 0.000000 
#    y 0.000000 1.876630 0.000000 
#    z 0.000000 0.000000 1.955850 
# 
# From -- ./inp_files/38542.got.cif
#   From: 2010.05.17/outbox.cif.g08.bks.cpg/sg68_20_cif.got.tgz:38542.got - 2010.06.03 18:57:09.
