data_PCOD9508501
_publ_section_title
;
Structure prediction by ZEFSAII (Michael W. Deem and Ramdas Pophale) SiO2 
 PCOD9508501
Probable space group: C C C A
;
_chemical_formula_sum "Si O2"
_cell_formula_units_Z 64
_cell_length_a 19.832299
_cell_length_b 4.743680
_cell_length_c 29.815387
_cell_angle_alpha 90.000000
_cell_angle_beta 90.000000
_cell_angle_gamma 90.000000
_cell_volume 2804.974367
_symmetry_space_group_name_H-M "C C C A"
_symmetry_group_IT_number 68
_space_group.IT_coordinate_system_code '2'
_symmetry_cell_setting 'orthorhombic'
loop_
_space_group_symop_operation_xyz
x,y,z
-x,1/2-y,z
x,1/2-y,1/2-z
-x,y,1/2-z
-x,-y,-z
x,1/2+y,-z
-x,1/2+y,1/2+z
x,-y,1/2+z
1/2+x,1/2+y,z
1/2-x,-y,z
1/2+x,-y,1/2-z
1/2-x,1/2+y,1/2-z
1/2-x,1/2-y,-z
1/2+x,y,-z
1/2-x,y,1/2+z
1/2+x,1/2-y,1/2+z
loop_
_atom_site_type_symbol
_atom_site_label
_atom_site_fract_x
_atom_site_fract_y
_atom_site_fract_z
Si Si1 0.074088 0.677708 0.372777
Si Si2 0.750000 0.500000 0.573689
Si Si3 0.250000 0.000000 0.720448
Si Si4 0.376823 0.720023 0.530018
Si Si5 0.339428 0.307868 0.647106
O O1 0.079074 0.713858 0.426459
O O2 0.091866 0.361834 0.359891
O O3 0.000000 0.750000 0.356583
O O4 0.136504 0.869994 0.354185
O O5 0.698184 0.684539 0.544835
O O6 0.707251 0.288758 0.605379
O O7 0.216676 0.250000 0.750000
O O8 0.300954 0.183434 0.689934
O O9 0.388660 0.402608 0.514640
#
# Coordination Sequence:
#
# PCOD9508501 Si02
#       5
#    16   8   8  16  16
#     4  11  23  40  59  81 117 167 212 246 284 343
#     4   9  20  36  56  81 116 154 196 249 310 364
#     4  11  22  40  70 103 130 146 174 241 314 372
#     4  11  22  34  53  81 115 155 203 261 310 344
#     4  10  22  39  62  90 118 154 198 237 293 370
#
# _framework density 22.816604999999999
#
# number of rings (size 3 to 8) (size 9 to 14) (size 15 to 20)
#    0.000    1.500    0.000    6.000    0.000   13.000 
#    0.000    0.000    0.000   11.250    0.000    0.000 
#    0.000    0.000    0.000    0.000    0.000    0.000 
#
# Total GULP energy -178973.046292 kJ/mol
# GULP energy per Si atom -5592.907697 kJ/mol
# Density = 2.276467 g / cm^3
# Si number density = 22.816605 Si / 1000 Ang^3
#
#
#
# Elastic Constant Matrix: (Units=GPa)
#
#
# Indices 1 2 3 4 5 6 
#
# 1 67.6228 -2.2179 -0.8143 0.0000 0.0000 0.0000
# 2 -2.2179 81.0600 12.4652 0.0000 0.0000 0.0000
# 3 -0.8143 12.4652 77.8358 0.0000 0.0000 0.0000
# 4 0.0000 0.0000 0.0000 30.9266 0.0000 0.0000
# 5 0.0000 0.0000 0.0000 0.0000 4.2272 0.0000
# 6 0.0000 0.0000 0.0000 0.0000 0.0000 28.1683
#
#
#
# Elastic Compliance Matrix: (Units=1/GPa)
#
#
# Indices 1 2 3 4 5 6 
#
# 1 0.014802 0.000391 0.000092 0.000000 0.000000 0.000000
# 2 0.000391 0.012658 -0.002023 0.000000 0.000000 0.000000
# 3 0.000092 -0.002023 0.013173 0.000000 0.000000 0.000000
# 4 0.000000 0.000000 0.000000 0.032335 0.000000 0.000000
# 5 0.000000 0.000000 0.000000 0.000000 0.236565 0.000000
# 6 0.000000 0.000000 0.000000 0.000000 0.000000 0.035501
#
#
# Mechanical properties :
#
#
# Convention : Reuss Voigt Hill
#
# Bulk Modulus (GPa) = 26.62929 27.26495 26.94712
# Shear Modulus (GPa) = 13.86459 27.13678 20.50068
#
# Velocity S-wave (km/s) = 2.46774 3.45243 3.00075
# Velocity P-wave (km/s) = 4.45151 5.27900 4.88282
#
# Compressibility (1/GPa) = 0.03755264
#
# Stress axis : x y z
#
# Youngs Moduli (GPa) = 67.55912 78.99929 75.91556
#
# Poissons Ratio (x) = -0.03087 -0.00700
# Poissons Ratio (y) = -0.02640 0.15359
# Poissons Ratio (z) = -0.00623 0.15982
#
# Static dielectric constant tensor:
#      x y z
#    x 1.837360 0.000000 0.000000 
#    y 0.000000 1.830810 0.000000 
#    z 0.000000 0.000000 1.868280 
# 
# From -- ./inp_files/55477.got.cif
#   From: 2010.05.17/outbox.cif.g08.bks.cpg/sg68_28_cif.got.tgz:55477.got - 2010.06.03 18:57:09.
