data_PCOD9508613
_publ_section_title
;
Structure prediction by ZEFSAII (Michael W. Deem and Ramdas Pophale) SiO2 
 PCOD9508613
Probable space group: C C C A
;
_chemical_formula_sum "Si O2"
_cell_formula_units_Z 80
_cell_length_a 15.535679
_cell_length_b 17.874967
_cell_length_c 13.230734
_cell_angle_alpha 90.000000
_cell_angle_beta 90.000000
_cell_angle_gamma 90.000000
_cell_volume 3674.171517
_symmetry_space_group_name_H-M "C C C A"
_symmetry_group_IT_number 68
_space_group.IT_coordinate_system_code '2'
_symmetry_cell_setting 'orthorhombic'
loop_
_space_group_symop_operation_xyz
x,y,z
-x,1/2-y,z
x,1/2-y,1/2-z
-x,y,1/2-z
-x,-y,-z
x,1/2+y,-z
-x,1/2+y,1/2+z
x,-y,1/2+z
1/2+x,1/2+y,z
1/2-x,-y,z
1/2+x,-y,1/2-z
1/2-x,1/2+y,1/2-z
1/2-x,1/2-y,-z
1/2+x,y,-z
1/2-x,y,1/2+z
1/2+x,1/2-y,1/2+z
loop_
_atom_site_type_symbol
_atom_site_label
_atom_site_fract_x
_atom_site_fract_y
_atom_site_fract_z
Si Si1 0.250000 0.500000 0.733867
Si Si2 0.145989 0.292863 0.088194
Si Si3 0.165145 0.118942 0.135583
Si Si4 0.100719 0.741909 0.136081
Si Si5 0.810468 0.902744 0.085746
Si Si6 0.000000 0.848254 0.750000
O O1 0.230196 0.574477 0.794040
O O2 0.177524 0.474205 0.655680
O O3 0.177213 0.291337 0.380136
O O4 0.065009 0.309222 0.164587
O O5 0.127590 0.287065 0.966749
O O6 0.220953 0.354966 0.099788
O O7 0.178630 0.078413 0.030051
O O8 0.070049 0.110176 0.181619
O O9 0.139705 0.750000 0.250000
O O10 0.000000 0.750000 0.144901
O O11 0.117594 0.656865 0.108815
#
# Coordination Sequence:
#
# PCOD9508613 Si02
#       6
#     8  16  16  16  16   8
#     4  12  26  42  66  94 146 192 224 268 356 436
#     4  11  22  40  75 105 127 172 240 299 345 399
#     4  11  23  43  68 100 136 176 232 287 347 408
#     4  10  22  40  65  99 134 170 221 291 350 399
#     4  11  25  42  67 102 133 181 234 282 348 422
#     4  12  23  42  78 108 132 171 240 311 344 398
#
# _framework density 21.773616000000001
#
# number of rings (size 3 to 8) (size 9 to 14) (size 15 to 20)
#    0.000    1.000    2.000    7.200    5.600    0.000 
#    0.000    3.000    0.000    0.000    0.000    0.000 
#    0.000    0.000    0.000    0.000    0.000    0.000 
#
# Total GULP energy -222702.648012 kJ/mol
# GULP energy per Si atom -5567.566200 kJ/mol
# Density = 2.172406 g / cm^3
# Si number density = 21.773616 Si / 1000 Ang^3
#
#
#
# Elastic Constant Matrix: (Units=GPa)
#
#
# Indices 1 2 3 4 5 6 
#
# 1 77.8520 9.8886 28.7289 0.0000 0.0000 0.0000
# 2 9.8886 33.1449 38.9474 0.0000 0.0000 0.0000
# 3 28.7289 38.9474 192.0486 0.0000 0.0000 0.0000
# 4 0.0000 0.0000 0.0000 -2.4987 0.0000 0.0000
# 5 0.0000 0.0000 0.0000 0.0000 31.0414 0.0000
# 6 0.0000 0.0000 0.0000 0.0000 0.0000 2.9302
#
#
#
# Elastic Compliance Matrix: (Units=1/GPa)
#
#
# Indices 1 2 3 4 5 6 
#
# 1 0.013717 -0.002207 -0.001604 0.000000 0.000000 0.000000
# 2 -0.002207 0.039965 -0.007775 0.000000 0.000000 0.000000
# 3 -0.001604 -0.007775 0.007024 0.000000 0.000000 0.000000
# 4 0.000000 0.000000 0.000000 -0.400206 0.000000 0.000000
# 5 0.000000 0.000000 0.000000 0.000000 0.032215 0.000000
# 6 0.000000 0.000000 0.000000 0.000000 0.000000 0.341278
#
#
# Mechanical properties :
#
#
# Convention : Reuss Voigt Hill
#
# Bulk Modulus (GPa) = 26.64304 50.90836 38.77570
# Shear Modulus (GPa) = 71.76016 21.32662 46.54339
#
# Velocity S-wave (km/s) = 5.74708 3.13304 4.62844
# Velocity P-wave (km/s) = 7.50343 6.04313 6.81253
#
# Compressibility (1/GPa) = 0.03753326
#
# Stress axis : x y z
#
# Youngs Moduli (GPa) = 72.90074 25.02201 142.37480
#
# Poissons Ratio (x) = 0.05523 0.22842
# Poissons Ratio (y) = 0.16091 1.10692
# Poissons Ratio (z) = 0.11696 0.19454
#
# Static dielectric constant tensor:
#      x y z
#    x 1.787890 0.000000 0.000000 
#    y 0.000000 1.801330 0.000000 
#    z 0.000000 0.000000 2.022300 
# 
# From -- ./inp_files/13246.got.cif
#   From: 2010.05.17/outbox.cif.g08.bks.cpg/sg68_7_cif.got.tgz:13246.got - 2010.06.03 18:57:09.
