data_PCOD9508118
_publ_section_title
;
Structure prediction by ZEFSAII (Michael W. Deem and Ramdas Pophale) SiO2 
 PCOD9508118
Probable space group: C C C A
;
_chemical_formula_sum "Si O2"
_cell_formula_units_Z 64
_cell_length_a 9.087469
_cell_length_b 26.168734
_cell_length_c 12.969194
_cell_angle_alpha 90.000000
_cell_angle_beta 90.000000
_cell_angle_gamma 90.000000
_cell_volume 3084.172367
_symmetry_space_group_name_H-M "C C C A"
_symmetry_group_IT_number 68
_space_group.IT_coordinate_system_code '2'
_symmetry_cell_setting 'orthorhombic'
loop_
_space_group_symop_operation_xyz
x,y,z
-x,1/2-y,z
x,1/2-y,1/2-z
-x,y,1/2-z
-x,-y,-z
x,1/2+y,-z
-x,1/2+y,1/2+z
x,-y,1/2+z
1/2+x,1/2+y,z
1/2-x,-y,z
1/2+x,-y,1/2-z
1/2-x,1/2+y,1/2-z
1/2-x,1/2-y,-z
1/2+x,y,-z
1/2-x,y,1/2+z
1/2+x,1/2-y,1/2+z
loop_
_atom_site_type_symbol
_atom_site_label
_atom_site_fract_x
_atom_site_fract_y
_atom_site_fract_z
Si Si1 0.246230 0.060624 0.595166
Si Si2 0.297577 0.637802 0.743949
Si Si3 0.061125 0.115269 0.419159
Si Si4 0.463607 0.809266 0.597565
O O1 0.168422 0.085098 0.695879
O O2 0.162836 0.079871 0.492876
O O3 0.408095 0.085904 0.594741
O O4 0.250000 0.000000 0.599288
O O5 0.146525 0.629048 0.684644
O O6 0.411757 0.658347 0.658629
O O7 0.315018 0.678597 0.837384
O O8 0.042869 0.167106 0.484795
O O9 0.500000 0.750000 0.600266
#
# Coordination Sequence:
#
# PCOD9508118 Si02
#       4
#    16  16  16  16
#     4  11  24  42  66  95 133 177 219 274 336 395
#     4  10  21  41  64  93 136 167 223 277 327 399
#     4  11  22  44  66  99 132 170 229 277 325 413
#     4  10  22  44  69  95 136 179 215 282 352 390
#
# _framework density 20.751111000000002
#
# number of rings (size 3 to 8) (size 9 to 14) (size 15 to 20)
#    0.000    1.500    2.500    3.000    0.000    2.000 
#   22.500    0.000    0.000    0.000    0.000    0.000 
#    0.000    0.000    0.000    0.000    0.000    0.000 
#
# Total GULP energy -178641.677158 kJ/mol
# GULP energy per Si atom -5582.552411 kJ/mol
# Density = 2.070388 g / cm^3
# Si number density = 20.751111 Si / 1000 Ang^3
#
#
#
# Elastic Constant Matrix: (Units=GPa)
#
#
# Indices 1 2 3 4 5 6 
#
# 1 121.5929 65.7816 47.3376 0.0000 0.0000 0.0000
# 2 65.7816 184.5441 64.9181 0.0000 0.0000 0.0000
# 3 47.3376 64.9181 98.8839 0.0000 0.0000 0.0000
# 4 0.0000 0.0000 0.0000 0.3928 0.0000 0.0000
# 5 0.0000 0.0000 0.0000 0.0000 34.9244 0.0000
# 6 0.0000 0.0000 0.0000 0.0000 0.0000 22.8147
#
#
#
# Elastic Compliance Matrix: (Units=1/GPa)
#
#
# Indices 1 2 3 4 5 6 
#
# 1 0.011056 -0.002704 -0.003518 0.000000 0.000000 0.000000
# 2 -0.002704 0.007707 -0.003766 0.000000 0.000000 0.000000
# 3 -0.003518 -0.003766 0.014269 0.000000 0.000000 0.000000
# 4 0.000000 0.000000 0.000000 2.545907 0.000000 0.000000
# 5 0.000000 0.000000 0.000000 0.000000 0.028633 0.000000
# 6 0.000000 0.000000 0.000000 0.000000 0.000000 0.043831
#
#
# Mechanical properties :
#
#
# Convention : Reuss Voigt Hill
#
# Bulk Modulus (GPa) = 76.57893 84.56615 80.57254
# Shear Modulus (GPa) = 1.86865 26.75862 14.31364
#
# Velocity S-wave (km/s) = 0.94998 3.59486 2.62921
# Velocity P-wave (km/s) = 6.17956 7.62048 6.93753
#
# Compressibility (1/GPa) = 0.01305842
#
# Stress axis : x y z
#
# Youngs Moduli (GPa) = 90.44551 129.75096 70.08160
#
# Poissons Ratio (x) = 0.35079 0.24655
# Poissons Ratio (y) = 0.24452 0.26389
# Poissons Ratio (z) = 0.31819 0.48858
#
# Static dielectric constant tensor:
#      x y z
#    x 1.836530 0.000000 0.000000 
#    y 0.000000 1.689580 0.000000 
#    z 0.000000 0.000000 1.745410 
# 
# From -- ./inp_files/19201.got.cif
#   From: 2010.05.17/outbox.cif.g08.bks.cpg/sg68_10_cif.got.tgz:19201.got - 2010.06.03 18:57:09.
