data_PCOD9508782
_publ_section_title
;
Structure prediction by ZEFSAII (Michael W. Deem and Ramdas Pophale) SiO2 
 PCOD9508782
Probable space group: C C C A
;
_chemical_formula_sum "Si O2"
_cell_formula_units_Z 52
_cell_length_a 5.431337
_cell_length_b 14.661073
_cell_length_c 30.917502
_cell_angle_alpha 90.000000
_cell_angle_beta 90.000000
_cell_angle_gamma 90.000000
_cell_volume 2461.936824
_symmetry_space_group_name_H-M "C C C A"
_symmetry_group_IT_number 68
_space_group.IT_coordinate_system_code '2'
_symmetry_cell_setting 'orthorhombic'
loop_
_space_group_symop_operation_xyz
x,y,z
-x,1/2-y,z
x,1/2-y,1/2-z
-x,y,1/2-z
-x,-y,-z
x,1/2+y,-z
-x,1/2+y,1/2+z
x,-y,1/2+z
1/2+x,1/2+y,z
1/2-x,-y,z
1/2+x,-y,1/2-z
1/2-x,1/2+y,1/2-z
1/2-x,1/2-y,-z
1/2+x,y,-z
1/2-x,y,1/2+z
1/2+x,1/2-y,1/2+z
loop_
_atom_site_type_symbol
_atom_site_label
_atom_site_fract_x
_atom_site_fract_y
_atom_site_fract_z
Si Si1 0.837617 0.394658 0.292562
Si Si2 0.500000 0.250000 0.250000
Si Si3 0.506143 0.640413 0.023392
Si Si4 0.501995 0.940698 0.381978
O O1 0.750000 0.500000 0.293080
O O2 0.635752 0.318961 0.282813
O O3 0.000000 0.386108 0.250000
O O4 0.971013 0.381490 0.338373
O O5 0.500000 0.750000 0.020655
O O6 0.522806 0.612584 0.073234
O O7 0.750596 0.607989 0.998176
O O8 0.750000 0.000000 0.376641
O O9 0.250000 0.000000 0.385235
#
# Coordination Sequence:
#
# PCOD9508782 Si02
#       4
#    16   4  16  16
#     4  11  24  46  70 101 147 180 239 302 345 431
#     4  12  26  44  76 104 128 212 226 280 390 410
#     4  10  22  42  64  96 137 177 224 285 339 406
#     4  11  25  43  70 101 135 182 226 286 351 404
#
# _framework density 21.121583999999999
#
# number of rings (size 3 to 8) (size 9 to 14) (size 15 to 20)
#    0.000    1.231    1.538    3.231    4.308    6.154 
#    8.308    0.000    0.000    0.000    0.000    0.000 
#    0.000    0.000    0.000    0.000    0.000    0.000 
#
# Total GULP energy -145236.625895 kJ/mol
# GULP energy per Si atom -5586.024073 kJ/mol
# Density = 2.107351 g / cm^3
# Si number density = 21.121584 Si / 1000 Ang^3
#
#
#
# Elastic Constant Matrix: (Units=GPa)
#
#
# Indices 1 2 3 4 5 6 
#
# 1 159.4642 56.2198 81.8184 0.0000 0.0000 0.0000
# 2 56.2198 110.0997 44.8293 0.0000 0.0000 0.0000
# 3 81.8184 44.8293 221.7539 0.0000 0.0000 0.0000
# 4 0.0000 0.0000 0.0000 -57.1327 0.0000 0.0000
# 5 0.0000 0.0000 0.0000 0.0000 37.2453 0.0000
# 6 0.0000 0.0000 0.0000 0.0000 0.0000 3.2898
#
#
#
# Elastic Compliance Matrix: (Units=1/GPa)
#
#
# Indices 1 2 3 4 5 6 
#
# 1 0.008796 -0.003454 -0.002547 0.000000 0.000000 0.000000
# 2 -0.003454 0.011254 -0.001001 0.000000 0.000000 0.000000
# 3 -0.002547 -0.001001 0.005651 0.000000 0.000000 0.000000
# 4 0.000000 0.000000 0.000000 -0.017503 0.000000 0.000000
# 5 0.000000 0.000000 0.000000 0.000000 0.026849 0.000000
# 6 0.000000 0.000000 0.000000 0.000000 0.000000 0.303971
#
#
# Mechanical properties :
#
#
# Convention : Reuss Voigt Hill
#
# Bulk Modulus (GPa) = 85.48832 95.22807 90.35820
# Shear Modulus (GPa) = 14.00873 17.24382 15.62628
#
# Velocity S-wave (km/s) = 2.57814 2.86038 2.72292
# Velocity P-wave (km/s) = 7.03027 7.48950 7.26352
#
# Compressibility (1/GPa) = 0.01169750
#
# Stress axis : x y z
#
# Youngs Moduli (GPa) = 113.69343 88.85804 176.94432
#
# Poissons Ratio (x) = 0.30694 0.45066
# Poissons Ratio (y) = 0.39272 0.17705
# Poissons Ratio (z) = 0.28957 0.08891
#
# Static dielectric constant tensor:
#      x y z
#    x 1.789900 0.000000 0.000000 
#    y 0.000000 1.708350 0.000000 
#    z 0.000000 0.000000 1.730650 
# 
# From -- ./inp_files/47934.got.cif
#   From: 2010.05.17/outbox.cif.g08.bks.cpg/sg68_24_cif.got.tgz:47934.got - 2010.06.03 18:57:09.
