data_PCOD9508519
_publ_section_title
;
Structure prediction by ZEFSAII (Michael W. Deem and Ramdas Pophale) SiO2 
 PCOD9508519
Probable space group: C C C A
;
_chemical_formula_sum "Si O2"
_cell_formula_units_Z 56
_cell_length_a 12.258501
_cell_length_b 16.584872
_cell_length_c 14.506409
_cell_angle_alpha 90.000000
_cell_angle_beta 90.000000
_cell_angle_gamma 90.000000
_cell_volume 2949.235201
_symmetry_space_group_name_H-M "C C C A"
_symmetry_group_IT_number 68
_space_group.IT_coordinate_system_code '2'
_symmetry_cell_setting 'orthorhombic'
loop_
_space_group_symop_operation_xyz
x,y,z
-x,1/2-y,z
x,1/2-y,1/2-z
-x,y,1/2-z
-x,-y,-z
x,1/2+y,-z
-x,1/2+y,1/2+z
x,-y,1/2+z
1/2+x,1/2+y,z
1/2-x,-y,z
1/2+x,-y,1/2-z
1/2-x,1/2+y,1/2-z
1/2-x,1/2-y,-z
1/2+x,y,-z
1/2-x,y,1/2+z
1/2+x,1/2-y,1/2+z
loop_
_atom_site_type_symbol
_atom_site_label
_atom_site_fract_x
_atom_site_fract_y
_atom_site_fract_z
Si Si1 0.377340 0.779635 0.887714
Si Si2 0.587112 0.010267 0.419917
Si Si3 0.500000 0.887290 0.750000
Si Si4 0.271683 0.366406 0.938203
O O1 0.500000 0.750000 0.914420
O O2 0.406025 0.831406 0.796429
O O3 0.289576 0.706373 0.884821
O O4 0.329659 0.833309 0.970319
O O5 0.542402 0.056995 0.331691
O O6 0.676931 0.070548 0.461999
O O7 0.500000 0.000000 0.500000
O O8 0.639819 0.924754 0.390227
#
# Coordination Sequence:
#
# PCOD9508519 Si02
#       4
#    16  16   8  16
#     4  11  21  40  65  95 123 173 217 268 320 399
#     4  11  22  43  61  98 132 167 218 278 327 397
#     4  12  23  40  70  92 137 170 224 279 326 390
#     4  10  22  39  65  90 130 169 213 261 336 388
#
# _framework density 18.987974000000001
#
# number of rings (size 3 to 8) (size 9 to 14) (size 15 to 20)
#    0.000    1.143    5.714    0.429    0.000    0.000 
#   10.286    0.000    6.286    0.000    0.000    0.000 
#    0.000    0.000    0.000    0.000    0.000    0.000 
#
# Total GULP energy -155991.070999 kJ/mol
# GULP energy per Si atom -5571.109679 kJ/mol
# Density = 1.894476 g / cm^3
# Si number density = 18.987974 Si / 1000 Ang^3
#
#
#
# Elastic Constant Matrix: (Units=GPa)
#
#
# Indices 1 2 3 4 5 6 
#
# 1 104.8119 63.9363 77.9499 0.0000 0.0000 0.0000
# 2 63.9363 153.2228 79.6112 0.0000 0.0000 0.0000
# 3 77.9499 79.6112 137.0551 0.0000 0.0000 0.0000
# 4 0.0000 0.0000 0.0000 43.7075 0.0000 0.0000
# 5 0.0000 0.0000 0.0000 0.0000 30.7136 0.0000
# 6 0.0000 0.0000 0.0000 0.0000 0.0000 35.3644
#
#
#
# Elastic Compliance Matrix: (Units=1/GPa)
#
#
# Indices 1 2 3 4 5 6 
#
# 1 0.017475 -0.003048 -0.008169 0.000000 0.000000 0.000000
# 2 -0.003048 0.009879 -0.004005 0.000000 0.000000 0.000000
# 3 -0.008169 -0.004005 0.014269 0.000000 0.000000 0.000000
# 4 0.000000 0.000000 0.000000 0.022879 0.000000 0.000000
# 5 0.000000 0.000000 0.000000 0.000000 0.032559 0.000000
# 6 0.000000 0.000000 0.000000 0.000000 0.000000 0.028277
#
#
# Mechanical properties :
#
#
# Convention : Reuss Voigt Hill
#
# Bulk Modulus (GPa) = 89.44511 93.12051 91.28281
# Shear Modulus (GPa) = 31.34640 33.52993 32.43816
#
# Velocity S-wave (km/s) = 4.06748 4.20676 4.13771
# Velocity P-wave (km/s) = 8.32272 8.52901 8.42650
#
# Compressibility (1/GPa) = 0.01118004
#
# Stress axis : x y z
#
# Youngs Moduli (GPa) = 57.22401 101.22316 70.08351
#
# Poissons Ratio (x) = 0.30850 0.57249
# Poissons Ratio (y) = 0.17440 0.28069
# Poissons Ratio (z) = 0.46744 0.40541
#
# Static dielectric constant tensor:
#      x y z
#    x 1.680590 0.000000 0.000000 
#    y 0.000000 1.735860 0.000000 
#    z 0.000000 0.000000 1.631710 
# 
# From -- ./inp_files/20299.got.cif
#   From: 2010.05.17/outbox.cif.g08.bks.cpg/sg68_11_cif.got.tgz:20299.got - 2010.06.03 18:57:09.
