data_PCOD9508568
_publ_section_title
;
Structure prediction by ZEFSAII (Michael W. Deem and Ramdas Pophale) SiO2 
 PCOD9508568
Probable space group: C C C A
;
_chemical_formula_sum "Si O2"
_cell_formula_units_Z 72
_cell_length_a 10.276369
_cell_length_b 25.269374
_cell_length_c 13.062387
_cell_angle_alpha 90.000000
_cell_angle_beta 90.000000
_cell_angle_gamma 90.000000
_cell_volume 3392.006846
_symmetry_space_group_name_H-M "C C C A"
_symmetry_group_IT_number 68
_space_group.IT_coordinate_system_code '2'
_symmetry_cell_setting 'orthorhombic'
loop_
_space_group_symop_operation_xyz
x,y,z
-x,1/2-y,z
x,1/2-y,1/2-z
-x,y,1/2-z
-x,-y,-z
x,1/2+y,-z
-x,1/2+y,1/2+z
x,-y,1/2+z
1/2+x,1/2+y,z
1/2-x,-y,z
1/2+x,-y,1/2-z
1/2-x,1/2+y,1/2-z
1/2-x,1/2-y,-z
1/2+x,y,-z
1/2-x,y,1/2+z
1/2+x,1/2-y,1/2+z
loop_
_atom_site_type_symbol
_atom_site_label
_atom_site_fract_x
_atom_site_fract_y
_atom_site_fract_z
Si Si1 0.178951 0.397279 0.590860
Si Si2 0.443768 0.633779 0.049350
Si Si3 0.500000 0.935604 0.250000
Si Si4 0.138308 0.295740 0.689605
Si Si5 0.250000 0.500000 0.708876
Si Si6 0.500000 0.250000 0.502171
O O1 0.299506 0.384305 0.517077
O O2 0.198303 0.353108 0.679546
O O3 0.187688 0.454890 0.637242
O O4 0.044593 0.384350 0.536873
O O5 0.476601 0.601236 0.151540
O O6 0.453381 0.697462 0.060340
O O7 0.370765 0.971761 0.234231
O O8 0.213109 0.250000 0.750000
O O9 0.109081 0.272080 0.577174
O O10 0.000000 0.302489 0.750000
#
# Coordination Sequence:
#
# PCOD9508568 Si02
#       6
#    16  16   8  16   8   8
#     4  10  22  40  62  89 119 164 203 252 301 368
#     4  10  22  41  59  93 124 157 206 243 313 358
#     4  10  24  43  58  92 121 158 206 256 298 366
#     4   8  16  34  59  93 116 154 205 244 296 365
#     4  10  24  42  62  88 120 158 214 246 304 354
#     4   8  17  37  60  86 124 162 188 247 297 376
#
# _framework density 21.226372999999999
#
# number of rings (size 3 to 8) (size 9 to 14) (size 15 to 20)
#    0.000    2.889    0.000    0.000    1.556   10.222 
#   28.000    0.000    0.000    0.000    0.000    0.000 
#    0.000    0.000    0.000    0.000    0.000    0.000 
#
# Total GULP energy -200732.504846 kJ/mol
# GULP energy per Si atom -5575.902912 kJ/mol
# Density = 2.117806 g / cm^3
# Si number density = 21.226373 Si / 1000 Ang^3
#
#
#
# Elastic Constant Matrix: (Units=GPa)
#
#
# Indices 1 2 3 4 5 6 
#
# 1 85.0184 27.6985 8.0220 0.0000 0.0000 0.0000
# 2 27.6985 172.5939 31.7750 0.0000 0.0000 0.0000
# 3 8.0220 31.7750 27.0908 0.0000 0.0000 0.0000
# 4 0.0000 0.0000 0.0000 0.6892 0.0000 0.0000
# 5 0.0000 0.0000 0.0000 0.0000 -18.1814 0.0000
# 6 0.0000 0.0000 0.0000 0.0000 0.0000 33.2687
#
#
#
# Elastic Compliance Matrix: (Units=1/GPa)
#
#
# Indices 1 2 3 4 5 6 
#
# 1 0.012473 -0.001686 -0.001716 0.000000 0.000000 0.000000
# 2 -0.001686 0.007617 -0.008435 0.000000 0.000000 0.000000
# 3 -0.001716 -0.008435 0.047315 0.000000 0.000000 0.000000
# 4 0.000000 0.000000 0.000000 1.450877 0.000000 0.000000
# 5 0.000000 0.000000 0.000000 0.000000 -0.055001 0.000000
# 6 0.000000 0.000000 0.000000 0.000000 0.000000 0.030058
#
#
# Mechanical properties :
#
#
# Convention : Reuss Voigt Hill
#
# Bulk Modulus (GPa) = 22.86712 46.63268 34.74990
# Shear Modulus (GPa) = 3.26458 17.63582 10.45020
#
# Velocity S-wave (km/s) = 1.24150 2.88557 2.22124
# Velocity P-wave (km/s) = 3.58489 5.75490 4.79429
#
# Compressibility (1/GPa) = 0.04373091
#
# Stress axis : x y z
#
# Youngs Moduli (GPa) = 80.17116 131.27717 21.13496
#
# Poissons Ratio (x) = 0.22131 0.03627
# Poissons Ratio (y) = 0.13515 0.17828
# Poissons Ratio (z) = 0.13759 1.10737
#
# Static dielectric constant tensor:
#      x y z
#    x 1.859520 0.000000 0.000000 
#    y 0.000000 1.775580 0.000000 
#    z 0.000000 0.000000 1.774790 
# 
# From -- ./inp_files/20804.got.cif
#   From: 2010.05.17/outbox.cif.g08.bks.cpg/sg68_11_cif.got.tgz:20804.got - 2010.06.03 18:57:09.
