data_PCOD9508332
_publ_section_title
;
Structure prediction by ZEFSAII (Michael W. Deem and Ramdas Pophale) SiO2 
 PCOD9508332
Probable space group: C C C A
;
_chemical_formula_sum "Si O2"
_cell_formula_units_Z 48
_cell_length_a 7.628285
_cell_length_b 17.955569
_cell_length_c 16.560588
_cell_angle_alpha 90.000000
_cell_angle_beta 90.000000
_cell_angle_gamma 90.000000
_cell_volume 2268.307012
_symmetry_space_group_name_H-M "C C C A"
_symmetry_group_IT_number 68
_space_group.IT_coordinate_system_code '2'
_symmetry_cell_setting 'orthorhombic'
loop_
_space_group_symop_operation_xyz
x,y,z
-x,1/2-y,z
x,1/2-y,1/2-z
-x,y,1/2-z
-x,-y,-z
x,1/2+y,-z
-x,1/2+y,1/2+z
x,-y,1/2+z
1/2+x,1/2+y,z
1/2-x,-y,z
1/2+x,-y,1/2-z
1/2-x,1/2+y,1/2-z
1/2-x,1/2-y,-z
1/2+x,y,-z
1/2-x,y,1/2+z
1/2+x,1/2-y,1/2+z
loop_
_atom_site_type_symbol
_atom_site_label
_atom_site_fract_x
_atom_site_fract_y
_atom_site_fract_z
Si Si1 0.201575 0.277539 0.663779
Si Si2 0.500000 0.250000 0.537000
Si Si3 0.250000 0.500000 0.444728
Si Si4 0.452060 0.396060 0.070546
O O1 0.271329 0.250000 0.750000
O O2 0.330223 0.247135 0.594726
O O3 0.173507 0.364448 0.641004
O O4 0.000000 0.250000 0.663056
O O5 0.508824 0.176083 0.482349
O O6 0.386047 0.446213 0.398740
O O7 0.352548 0.554238 0.505359
#
# Coordination Sequence:
#
# PCOD9508332 Si02
#       4
#    16   8   8  16
#     4  11  23  38  62  97 133 166 219 277 328 380
#     4  12  21  40  69 100 120 170 238 264 317 392
#     4  10  22  34  64 102 134 156 216 278 338 374
#     4  11  20  39  63 101 124 171 219 276 318 397
#
# _framework density 21.161156999999999
#
# number of rings (size 3 to 8) (size 9 to 14) (size 15 to 20)
#    0.000    1.000    5.000    3.500    0.000    0.000 
#    0.000    0.000    0.000   26.000    0.000    0.000 
#    0.000    0.000    0.000    0.000    0.000    0.000 
#
# Total GULP energy -133792.413539 kJ/mol
# GULP energy per Si atom -5574.683897 kJ/mol
# Density = 2.111299 g / cm^3
# Si number density = 21.161157 Si / 1000 Ang^3
#
#
#
# Elastic Constant Matrix: (Units=GPa)
#
#
# Indices 1 2 3 4 5 6 
#
# 1 85.8688 35.4103 19.8040 0.0000 0.0000 0.0000
# 2 35.4103 128.2445 45.9251 0.0000 0.0000 0.0000
# 3 19.8040 45.9251 107.4781 0.0000 0.0000 0.0000
# 4 0.0000 0.0000 0.0000 -3.3287 0.0000 0.0000
# 5 0.0000 0.0000 0.0000 0.0000 -48.5839 0.0000
# 6 0.0000 0.0000 0.0000 0.0000 0.0000 44.2881
#
#
#
# Elastic Compliance Matrix: (Units=1/GPa)
#
#
# Indices 1 2 3 4 5 6 
#
# 1 0.013239 -0.003285 -0.001036 0.000000 0.000000 0.000000
# 2 -0.003285 0.010021 -0.003677 0.000000 0.000000 0.000000
# 3 -0.001036 -0.003677 0.011066 0.000000 0.000000 0.000000
# 4 0.000000 0.000000 0.000000 -0.300419 0.000000 0.000000
# 5 0.000000 0.000000 0.000000 0.000000 -0.020583 0.000000
# 6 0.000000 0.000000 0.000000 0.000000 0.000000 0.022579
#
#
# Mechanical properties :
#
#
# Convention : Reuss Voigt Hill
#
# Bulk Modulus (GPa) = 54.54991 58.20779 56.37885
# Shear Modulus (GPa) = -20.66195 13.17191 -3.74502
#
# Velocity S-wave (km/s) = -3.12814 2.49762 -1.33177
# Velocity P-wave (km/s) = 3.57592 5.99033 4.93312
#
# Compressibility (1/GPa) = 0.01833184
#
# Stress axis : x y z
#
# Youngs Moduli (GPa) = 75.53408 99.78848 90.36527
#
# Poissons Ratio (x) = 0.32776 0.09362
# Poissons Ratio (y) = 0.24809 0.33226
# Poissons Ratio (z) = 0.07825 0.36690
#
# Static dielectric constant tensor:
#      x y z
#    x 1.869360 0.000000 0.000000 
#    y 0.000000 1.822710 0.000000 
#    z 0.000000 0.000000 1.826090 
# 
# From -- ./inp_files/18828.got.cif
#   From: 2010.05.17/outbox.cif.g08.bks.cpg/sg68_10_cif.got.tgz:18828.got - 2010.06.03 18:57:09.
