data_PCOD9508458
_publ_section_title
;
Structure prediction by ZEFSAII (Michael W. Deem and Ramdas Pophale) SiO2 
 PCOD9508458
Probable space group: C C C A
;
_chemical_formula_sum "Si O2"
_cell_formula_units_Z 84
_cell_length_a 15.173520
_cell_length_b 18.418625
_cell_length_c 14.499087
_cell_angle_alpha 90.000000
_cell_angle_beta 90.000000
_cell_angle_gamma 90.000000
_cell_volume 4052.137774
_symmetry_space_group_name_H-M "C C C A"
_symmetry_group_IT_number 68
_space_group.IT_coordinate_system_code '2'
_symmetry_cell_setting 'orthorhombic'
loop_
_space_group_symop_operation_xyz
x,y,z
-x,1/2-y,z
x,1/2-y,1/2-z
-x,y,1/2-z
-x,-y,-z
x,1/2+y,-z
-x,1/2+y,1/2+z
x,-y,1/2+z
1/2+x,1/2+y,z
1/2-x,-y,z
1/2+x,-y,1/2-z
1/2-x,1/2+y,1/2-z
1/2-x,1/2-y,-z
1/2+x,y,-z
1/2-x,y,1/2+z
1/2+x,1/2-y,1/2+z
loop_
_atom_site_type_symbol
_atom_site_label
_atom_site_fract_x
_atom_site_fract_y
_atom_site_fract_z
Si Si1 0.760170 0.664240 0.991134
Si Si2 0.911202 0.630030 0.126618
Si Si3 0.166015 0.952404 0.873059
Si Si4 0.585507 0.028845 0.806743
Si Si5 0.500000 0.750000 0.750000
Si Si6 0.420142 0.578274 0.517716
O O1 0.815220 0.637902 0.080742
O O2 0.663539 0.631442 0.971251
O O3 0.750000 0.750000 0.000000
O O4 0.821970 0.627926 0.912678
O O5 0.911470 0.558115 0.188531
O O6 0.939691 0.698856 0.186346
O O7 0.989829 0.615691 0.052015
O O8 0.250000 0.000000 0.901616
O O9 0.161562 0.948037 0.763259
O O10 0.092000 0.004294 0.920975
O O11 0.500000 0.053744 0.750000
O O12 0.585924 0.057672 0.910103
#
# Coordination Sequence:
#
# PCOD9508458 Si02
#       6
#    16  16  16  16   4  16
#     4  11  25  44  66  96 140 187 219 279 353 414
#     4  12  23  42  68  99 139 177 229 286 348 410
#     4  10  22  38  65  98 134 172 231 278 335 405
#     4  12  22  38  69 102 126 176 232 291 337 401
#     4  12  24  40  68 104 134 174 226 288 352 416
#     4  11  23  45  68 102 136 179 230 288 341 406
#
# _framework density 20.729797999999999
#
# number of rings (size 3 to 8) (size 9 to 14) (size 15 to 20)
#    0.000    0.762    4.762    2.857    2.667    1.524 
#    0.000    0.000    0.000    1.143    0.000    0.000 
#    0.000    0.000    0.000    0.000    0.000    0.000 
#
# Total GULP energy -234364.184248 kJ/mol
# GULP energy per Si atom -5580.099625 kJ/mol
# Density = 2.068262 g / cm^3
# Si number density = 20.729798 Si / 1000 Ang^3
#
#
#
# Elastic Constant Matrix: (Units=GPa)
#
#
# Indices 1 2 3 4 5 6 
#
# 1 63.6715 23.3155 -3.5697 0.0000 0.0000 0.0000
# 2 23.3155 119.9251 38.7289 0.0000 0.0000 0.0000
# 3 -3.5697 38.7289 108.2547 0.0000 0.0000 0.0000
# 4 0.0000 0.0000 0.0000 34.0251 0.0000 0.0000
# 5 0.0000 0.0000 0.0000 0.0000 24.8537 0.0000
# 6 0.0000 0.0000 0.0000 0.0000 0.0000 20.3068
#
#
#
# Elastic Compliance Matrix: (Units=1/GPa)
#
#
# Indices 1 2 3 4 5 6 
#
# 1 0.017286 -0.004008 0.002004 0.000000 0.000000 0.000000
# 2 -0.004008 0.010357 -0.003837 0.000000 0.000000 0.000000
# 3 0.002004 -0.003837 0.010676 0.000000 0.000000 0.000000
# 4 0.000000 0.000000 0.000000 0.029390 0.000000 0.000000
# 5 0.000000 0.000000 0.000000 0.000000 0.040235 0.000000
# 6 0.000000 0.000000 0.000000 0.000000 0.000000 0.049245
#
#
# Mechanical properties :
#
#
# Convention : Reuss Voigt Hill
#
# Bulk Modulus (GPa) = 37.54293 45.42230 41.48261
# Shear Modulus (GPa) = 28.12932 31.39556 29.76244
#
# Velocity S-wave (km/s) = 3.68768 3.89590 3.79322
# Velocity P-wave (km/s) = 6.02344 6.49588 6.26412
#
# Compressibility (1/GPa) = 0.02663618
#
# Stress axis : x y z
#
# Youngs Moduli (GPa) = 57.85191 96.55323 93.66434
#
# Poissons Ratio (x) = 0.38696 -0.18768
# Poissons Ratio (y) = 0.23185 0.35943
# Poissons Ratio (z) = -0.11592 0.37052
#
# Static dielectric constant tensor:
#      x y z
#    x 1.879940 0.000000 0.000000 
#    y 0.000000 1.708230 0.000000 
#    z 0.000000 0.000000 1.777460 
# 
# From -- ./inp_files/22250.got.cif
#   From: 2010.05.17/outbox.cif.g08.bks.cpg/sg68_12_cif.got.tgz:22250.got - 2010.06.03 18:57:09.
