data_PCOD9508100
_publ_section_title
;
Structure prediction by ZEFSAII (Michael W. Deem and Ramdas Pophale) SiO2 
 PCOD9508100
Probable space group: C C C A
;
_chemical_formula_sum "Si O2"
_cell_formula_units_Z 52
_cell_length_a 12.010006
_cell_length_b 7.147878
_cell_length_c 21.528813
_cell_angle_alpha 90.000000
_cell_angle_beta 90.000000
_cell_angle_gamma 90.000000
_cell_volume 1848.163722
_symmetry_space_group_name_H-M "C C C A"
_symmetry_group_IT_number 68
_space_group.IT_coordinate_system_code '2'
_symmetry_cell_setting 'orthorhombic'
loop_
_space_group_symop_operation_xyz
x,y,z
-x,1/2-y,z
x,1/2-y,1/2-z
-x,y,1/2-z
-x,-y,-z
x,1/2+y,-z
-x,1/2+y,1/2+z
x,-y,1/2+z
1/2+x,1/2+y,z
1/2-x,-y,z
1/2+x,-y,1/2-z
1/2-x,1/2+y,1/2-z
1/2-x,1/2-y,-z
1/2+x,y,-z
1/2-x,y,1/2+z
1/2+x,1/2-y,1/2+z
loop_
_atom_site_type_symbol
_atom_site_label
_atom_site_fract_x
_atom_site_fract_y
_atom_site_fract_z
Si Si1 0.158210 0.794800 0.151410
Si Si2 0.374604 0.332320 0.487696
Si Si3 0.392376 0.875824 0.372815
Si Si4 0.500000 0.250000 0.250000
O O1 0.132885 0.891134 0.084634
O O2 0.289231 0.750813 0.151070
O O3 0.111144 0.582064 0.154473
O O4 0.089890 0.872971 0.209258
O O5 0.500000 0.250000 0.490226
O O6 0.250000 0.250000 0.500000
O O7 0.379518 0.436120 0.554094
O O8 0.500000 0.750000 0.365594
#
# Coordination Sequence:
#
# PCOD9508100 Si02
#       4
#    16  16  16   4
#     4  10  21  41  61  91 130 167 208 261 320 389
#     4   9  17  33  61  90 122 153 197 259 324 372
#     4   9  20  40  65  94 123 157 210 273 324 377
#     4  12  24  44  60  80 128 180 204 254 320 380
#
# _framework density 28.136035
#
# number of rings (size 3 to 8) (size 9 to 14) (size 15 to 20)
#    0.000    2.462    1.538    0.000    0.000    4.923 
#   11.077    3.077    0.000    0.000    0.000    0.000 
#    0.000    0.000    0.000    0.000    0.000    0.000 
#
# Total GULP energy -144798.591042 kJ/mol
# GULP energy per Si atom -5569.176579 kJ/mol
# Density = 2.807200 g / cm^3
# Si number density = 28.136035 Si / 1000 Ang^3
#
#
#
# Elastic Constant Matrix: (Units=GPa)
#
#
# Indices 1 2 3 4 5 6 
#
# 1 214.2644 78.0486 43.7330 0.0000 0.0000 0.0000
# 2 78.0486 64.9070 19.5983 0.0000 0.0000 0.0000
# 3 43.7330 19.5983 175.4251 0.0000 0.0000 0.0000
# 4 0.0000 0.0000 0.0000 15.8318 0.0000 0.0000
# 5 0.0000 0.0000 0.0000 0.0000 61.9680 0.0000
# 6 0.0000 0.0000 0.0000 0.0000 0.0000 52.6937
#
#
#
# Elastic Compliance Matrix: (Units=1/GPa)
#
#
# Indices 1 2 3 4 5 6 
#
# 1 0.008474 -0.009885 -0.001008 0.000000 0.000000 0.000000
# 2 -0.009885 0.027476 -0.000605 0.000000 0.000000 0.000000
# 3 -0.001008 -0.000605 0.006019 0.000000 0.000000 0.000000
# 4 0.000000 0.000000 0.000000 0.063164 0.000000 0.000000
# 5 0.000000 0.000000 0.000000 0.000000 0.016137 0.000000
# 6 0.000000 0.000000 0.000000 0.000000 0.000000 0.018978
#
#
# Mechanical properties :
#
#
# Convention : Reuss Voigt Hill
#
# Bulk Modulus (GPa) = 52.70895 81.92848 67.31872
# Shear Modulus (GPa) = 29.48671 46.97981 38.23326
#
# Velocity S-wave (km/s) = 3.24080 4.09068 3.69029
# Velocity P-wave (km/s) = 5.72521 7.17589 6.49120
#
# Compressibility (1/GPa) = 0.01897211
#
# Stress axis : x y z
#
# Youngs Moduli (GPa) = 118.01409 36.39597 166.13008
#
# Poissons Ratio (x) = 0.35977 0.16748
# Poissons Ratio (y) = 1.16655 0.10056
# Poissons Ratio (z) = 0.11897 0.02203
#
# Static dielectric constant tensor:
#      x y z
#    x 2.168960 0.000000 0.000000 
#    y 0.000000 2.550560 0.000000 
#    z 0.000000 0.000000 2.491930 
# 
# From -- ./inp_files/49864.got.cif
#   From: 2010.05.17/outbox.cif.g08.bks.cpg/sg68_25_cif.got.tgz:49864.got - 2010.06.03 18:57:09.
