data_PCOD9508768
_publ_section_title
;
Structure prediction by ZEFSAII (Michael W. Deem and Ramdas Pophale) SiO2 
 PCOD9508768
Probable space group: C C C A
;
_chemical_formula_sum "Si O2"
_cell_formula_units_Z 96
_cell_length_a 19.075664
_cell_length_b 21.843537
_cell_length_c 11.628318
_cell_angle_alpha 90.000000
_cell_angle_beta 90.000000
_cell_angle_gamma 90.000000
_cell_volume 4845.287223
_symmetry_space_group_name_H-M "C C C A"
_symmetry_group_IT_number 68
_space_group.IT_coordinate_system_code '2'
_symmetry_cell_setting 'orthorhombic'
loop_
_space_group_symop_operation_xyz
x,y,z
-x,1/2-y,z
x,1/2-y,1/2-z
-x,y,1/2-z
-x,-y,-z
x,1/2+y,-z
-x,1/2+y,1/2+z
x,-y,1/2+z
1/2+x,1/2+y,z
1/2-x,-y,z
1/2+x,-y,1/2-z
1/2-x,1/2+y,1/2-z
1/2-x,1/2-y,-z
1/2+x,y,-z
1/2-x,y,1/2+z
1/2+x,1/2-y,1/2+z
loop_
_atom_site_type_symbol
_atom_site_label
_atom_site_fract_x
_atom_site_fract_y
_atom_site_fract_z
Si Si1 0.569462 0.816791 0.807902
Si Si2 0.105326 0.395653 0.437804
Si Si3 0.317633 0.875844 0.834944
Si Si4 0.031541 0.684475 0.574066
Si Si5 0.660234 0.874666 0.187828
Si Si6 0.327449 0.500389 0.556882
O O1 0.576452 0.750000 0.750000
O O2 0.500000 0.845701 0.750000
O O3 0.637485 0.853971 0.771966
O O4 0.556780 0.812138 0.942180
O O5 0.141412 0.360180 0.546059
O O6 0.149136 0.388917 0.321631
O O7 0.114234 0.466354 0.478568
O O8 0.028438 0.367875 0.418787
O O9 0.238966 0.851504 0.833128
O O10 0.315407 0.949756 0.841209
O O11 0.098256 0.669708 0.650899
O O12 0.000000 0.750000 0.605002
O O13 0.652908 0.935473 0.108631
O O14 0.250000 0.500000 0.498399
#
# Coordination Sequence:
#
# PCOD9508768 Si02
#       6
#    16  16  16  16  16  16
#     4  11  19  40  69  92 124 171 214 271 323 387
#     4  10  22  42  63  93 134 165 226 258 328 411
#     4   9  21  41  63 100 125 168 218 270 326 391
#     4  12  25  44  66  92 135 179 220 270 339 390
#     4  11  24  40  65  99 131 176 215 271 342 391
#     4   8  19  40  64  95 130 172 207 276 328 388
#
# _framework density 19.813067
#
# number of rings (size 3 to 8) (size 9 to 14) (size 15 to 20)
#    1.000    0.833    3.333    0.500    2.333    5.333 
#    3.000    5.000    0.000    0.000    0.000    0.000 
#    0.000    0.000    0.000    0.000    0.000    0.000 
#
# Total GULP energy -267606.850081 kJ/mol
# GULP energy per Si atom -5575.142710 kJ/mol
# Density = 1.976797 g / cm^3
# Si number density = 19.813067 Si / 1000 Ang^3
#
#
#
# Elastic Constant Matrix: (Units=GPa)
#
#
# Indices 1 2 3 4 5 6 
#
# 1 126.4822 38.6430 7.4854 0.0000 0.0000 0.0000
# 2 38.6430 49.1664 -4.4580 0.0000 0.0000 0.0000
# 3 7.4854 -4.4580 58.4781 0.0000 0.0000 0.0000
# 4 0.0000 0.0000 0.0000 11.8034 0.0000 0.0000
# 5 0.0000 0.0000 0.0000 0.0000 23.1411 0.0000
# 6 0.0000 0.0000 0.0000 0.0000 0.0000 28.7868
#
#
#
# Elastic Compliance Matrix: (Units=1/GPa)
#
#
# Indices 1 2 3 4 5 6 
#
# 1 0.010635 -0.008541 -0.002012 0.000000 0.000000 0.000000
# 2 -0.008541 0.027340 0.003178 0.000000 0.000000 0.000000
# 3 -0.002012 0.003178 0.017600 0.000000 0.000000 0.000000
# 4 0.000000 0.000000 0.000000 0.084721 0.000000 0.000000
# 5 0.000000 0.000000 0.000000 0.000000 0.043213 0.000000
# 6 0.000000 0.000000 0.000000 0.000000 0.000000 0.034738
#
#
# Mechanical properties :
#
#
# Convention : Reuss Voigt Hill
#
# Bulk Modulus (GPa) = 24.49579 35.27417 29.88498
# Shear Modulus (GPa) = 20.27516 25.57670 22.92593
#
# Velocity S-wave (km/s) = 3.20241 3.59681 3.40532
# Velocity P-wave (km/s) = 5.10531 5.92381 5.52973
#
# Compressibility (1/GPa) = 0.04082334
#
# Stress axis : x y z
#
# Youngs Moduli (GPa) = 94.03083 36.57628 56.81740
#
# Poissons Ratio (x) = 0.31240 0.11434
# Poissons Ratio (y) = 0.80312 -0.18054
# Poissons Ratio (z) = 0.18923 -0.11622
#
# Static dielectric constant tensor:
#      x y z
#    x 1.722110 0.000000 0.000000 
#    y 0.000000 1.709300 0.000000 
#    z 0.000000 0.000000 1.680260 
# 
# From -- ./inp_files/14631.got.cif
#   From: 2010.05.17/outbox.cif.g08.bks.cpg/sg68_8_cif.got.tgz:14631.got - 2010.06.03 18:57:09.
