data_PCOD9508979
_publ_section_title
;
Structure prediction by ZEFSAII (Michael W. Deem and Ramdas Pophale) SiO2 
 PCOD9508979
Probable space group: C C C A
;
_chemical_formula_sum "Si O2"
_cell_formula_units_Z 80
_cell_length_a 11.663684
_cell_length_b 12.829177
_cell_length_c 21.808649
_cell_angle_alpha 90.000000
_cell_angle_beta 90.000000
_cell_angle_gamma 90.000000
_cell_volume 3263.347367
_symmetry_space_group_name_H-M "C C C A"
_symmetry_group_IT_number 68
_space_group.IT_coordinate_system_code '2'
_symmetry_cell_setting 'orthorhombic'
loop_
_space_group_symop_operation_xyz
x,y,z
-x,1/2-y,z
x,1/2-y,1/2-z
-x,y,1/2-z
-x,-y,-z
x,1/2+y,-z
-x,1/2+y,1/2+z
x,-y,1/2+z
1/2+x,1/2+y,z
1/2-x,-y,z
1/2+x,-y,1/2-z
1/2-x,1/2+y,1/2-z
1/2-x,1/2-y,-z
1/2+x,y,-z
1/2-x,y,1/2+z
1/2+x,1/2-y,1/2+z
loop_
_atom_site_type_symbol
_atom_site_label
_atom_site_fract_x
_atom_site_fract_y
_atom_site_fract_z
Si Si1 0.625127 0.801798 0.483131
Si Si2 0.387357 0.692379 0.335533
Si Si3 0.623293 0.982546 0.870387
Si Si4 0.626383 0.054648 0.091837
Si Si5 0.148587 0.250766 0.680424
O O1 0.500000 0.750000 0.500584
O O2 0.750000 0.750000 0.500000
O O3 0.621293 0.808975 0.409994
O O4 0.628807 0.907146 0.521958
O O5 0.500000 0.750000 0.317225
O O6 0.375415 0.571401 0.317428
O O7 0.283956 0.762368 0.315129
O O8 0.496696 0.001779 0.899522
O O9 0.627234 0.862864 0.848945
O O10 0.750000 0.000000 0.901246
O O11 0.614033 0.156197 0.135590
O O12 0.750000 0.000000 0.104805
O O13 0.108374 0.250000 0.750000
#
# Coordination Sequence:
#
# PCOD9508979 Si02
#       5
#    16  16  16  16  16
#     4  11  24  44  74 104 145 188 232 286 357 430
#     4  10  22  44  71 103 143 184 234 290 358 432
#     4  10  24  43  69 102 139 183 235 288 358 421
#     4  12  26  44  70 105 143 186 239 293 358 431
#     4  11  24  45  71  99 138 186 241 304 358 424
#
# _framework density 24.514704999999999
#
# number of rings (size 3 to 8) (size 9 to 14) (size 15 to 20)
#    0.000    1.200    2.000    3.000    5.600    7.600 
#    0.000    4.000    0.000    0.000    0.000    0.000 
#    0.000    0.000    0.000    0.000    0.000    0.000 
#
# Total GULP energy -223026.784485 kJ/mol
# GULP energy per Si atom -5575.669612 kJ/mol
# Density = 2.445891 g / cm^3
# Si number density = 24.514705 Si / 1000 Ang^3
#
#
#
# Elastic Constant Matrix: (Units=GPa)
#
#
# Indices 1 2 3 4 5 6 
#
# 1 282.4450 46.8874 27.4721 0.0000 0.0000 0.0000
# 2 46.8874 87.0275 26.9107 0.0000 0.0000 0.0000
# 3 27.4721 26.9107 119.4383 0.0000 0.0000 0.0000
# 4 0.0000 0.0000 0.0000 6.2079 0.0000 0.0000
# 5 0.0000 0.0000 0.0000 0.0000 64.4976 0.0000
# 6 0.0000 0.0000 0.0000 0.0000 0.0000 -191.9060
#
#
#
# Elastic Compliance Matrix: (Units=1/GPa)
#
#
# Indices 1 2 3 4 5 6 
#
# 1 0.003911 -0.001966 -0.000457 0.000000 0.000000 0.000000
# 2 -0.001966 0.013339 -0.002553 0.000000 0.000000 0.000000
# 3 -0.000457 -0.002553 0.009053 0.000000 0.000000 0.000000
# 4 0.000000 0.000000 0.000000 0.161085 0.000000 0.000000
# 5 0.000000 0.000000 0.000000 0.000000 0.015504 0.000000
# 6 0.000000 0.000000 0.000000 0.000000 0.000000 -0.005211
#
#
# Mechanical properties :
#
#
# Convention : Reuss Voigt Hill
#
# Bulk Modulus (GPa) = 61.15645 76.82792 68.99219
# Shear Modulus (GPa) = 23.46488 1.60261 12.53375
#
# Velocity S-wave (km/s) = 3.09718 0.80942 2.26359
# Velocity P-wave (km/s) = 6.14744 5.68165 5.91913
#
# Compressibility (1/GPa) = 0.01635150
#
# Stress axis : x y z
#
# Youngs Moduli (GPa) = 255.66899 74.96589 110.46248
#
# Poissons Ratio (x) = 0.14739 0.05044
# Poissons Ratio (y) = 0.50266 0.28204
# Poissons Ratio (z) = 0.11676 0.19141
#
# Static dielectric constant tensor:
#      x y z
#    x 2.019560 0.000000 0.000000 
#    y 0.000000 2.038400 0.000000 
#    z 0.000000 0.000000 1.887380 
# 
# From -- ./inp_files/44081.got.cif
#   From: 2010.05.17/outbox.cif.g08.bks.cpg/sg68_23_cif.got.tgz:44081.got - 2010.06.03 18:57:09.
