data_PCOD9508803
_publ_section_title
;
Structure prediction by ZEFSAII (Michael W. Deem and Ramdas Pophale) SiO2 
 PCOD9508803
Probable space group: C C C A
;
_chemical_formula_sum "Si O2"
_cell_formula_units_Z 112
_cell_length_a 13.920655
_cell_length_b 14.172333
_cell_length_c 27.834742
_cell_angle_alpha 90.000000
_cell_angle_beta 90.000000
_cell_angle_gamma 90.000000
_cell_volume 5491.464984
_symmetry_space_group_name_H-M "C C C A"
_symmetry_group_IT_number 68
_space_group.IT_coordinate_system_code '2'
_symmetry_cell_setting 'orthorhombic'
loop_
_space_group_symop_operation_xyz
x,y,z
-x,1/2-y,z
x,1/2-y,1/2-z
-x,y,1/2-z
-x,-y,-z
x,1/2+y,-z
-x,1/2+y,1/2+z
x,-y,1/2+z
1/2+x,1/2+y,z
1/2-x,-y,z
1/2+x,-y,1/2-z
1/2-x,1/2+y,1/2-z
1/2-x,1/2-y,-z
1/2+x,y,-z
1/2-x,y,1/2+z
1/2+x,1/2-y,1/2+z
loop_
_atom_site_type_symbol
_atom_site_label
_atom_site_fract_x
_atom_site_fract_y
_atom_site_fract_z
Si Si1 0.400653 0.964862 0.276406
Si Si2 0.402933 0.310304 0.930563
Si Si3 0.536962 0.977285 0.947500
Si Si4 0.215295 0.845624 0.277710
Si Si5 0.258973 0.795199 0.387423
Si Si6 0.111516 0.274030 0.964635
Si Si7 0.137152 0.028512 0.386338
O O1 0.500000 0.949013 0.250000
O O2 0.318107 0.889940 0.262793
O O3 0.407854 0.957383 0.334044
O O4 0.360263 0.070702 0.268277
O O5 0.500000 0.250000 0.922297
O O6 0.420186 0.422202 0.931841
O O7 0.325774 0.295994 0.888438
O O8 0.364577 0.270663 0.982696
O O9 0.607985 0.887464 0.953816
O O10 0.438750 0.966624 0.915781
O O11 0.500000 0.000000 0.000000
O O12 0.193585 0.750000 0.250000
O O13 0.222458 0.823173 0.334823
O O14 0.174745 0.776668 0.424573
O O15 0.337363 0.870145 0.408328
O O16 0.000000 0.250000 0.958764
O O17 0.250000 0.000000 0.380436
#
# Coordination Sequence:
#
# PCOD9508803 Si02
#       7
#    16  16  16  16  16  16  16
#     4  10  22  42  67  98 126 163 216 264 317 395
#     4  11  22  39  61  89 129 166 214 263 314 376
#     4  12  23  39  58  95 132 168 214 269 317 373
#     4  10  23  44  64  95 128 163 210 265 323 388
#     4  11  22  42  63  87 123 165 214 257 315 389
#     4  11  23  39  61  91 128 165 214 264 315 373
#     4  11  21  40  68  89 120 171 216 256 317 386
#
# _framework density 20.395287
#
# number of rings (size 3 to 8) (size 9 to 14) (size 15 to 20)
#    0.000    1.143    7.143    1.286    0.000    3.429 
#    0.000    1.429    0.000    0.000    0.000    0.000 
#    0.000    0.000    0.000    0.000    0.000    0.000 
#
# Total GULP energy -311869.293013 kJ/mol
# GULP energy per Si atom -5569.094518 kJ/mol
# Density = 2.034887 g / cm^3
# Si number density = 20.395287 Si / 1000 Ang^3
#
#
#
# Elastic Constant Matrix: (Units=GPa)
#
#
# Indices 1 2 3 4 5 6 
#
# 1 59.4999 6.2870 34.3617 0.0000 0.0000 0.0000
# 2 6.2870 111.0927 8.0737 0.0000 0.0000 0.0000
# 3 34.3617 8.0737 52.6580 0.0000 0.0000 0.0000
# 4 0.0000 0.0000 0.0000 26.4232 0.0000 0.0000
# 5 0.0000 0.0000 0.0000 0.0000 34.7193 0.0000
# 6 0.0000 0.0000 0.0000 0.0000 0.0000 25.1513
#
#
#
# Elastic Compliance Matrix: (Units=1/GPa)
#
#
# Indices 1 2 3 4 5 6 
#
# 1 0.026978 -0.000250 -0.017566 0.000000 0.000000 0.000000
# 2 -0.000250 0.009105 -0.001233 0.000000 0.000000 0.000000
# 3 -0.017566 -0.001233 0.030642 0.000000 0.000000 0.000000
# 4 0.000000 0.000000 0.000000 0.037846 0.000000 0.000000
# 5 0.000000 0.000000 0.000000 0.000000 0.028802 0.000000
# 6 0.000000 0.000000 0.000000 0.000000 0.000000 0.039759
#
#
# Mechanical properties :
#
#
# Convention : Reuss Voigt Hill
#
# Bulk Modulus (GPa) = 34.93163 35.63284 35.28224
# Shear Modulus (GPa) = 22.64782 28.89397 25.77090
#
# Velocity S-wave (km/s) = 3.33595 3.76799 3.55853
# Velocity P-wave (km/s) = 5.65708 6.03650 5.84987
#
# Compressibility (1/GPa) = 0.02862735
#
# Stress axis : x y z
#
# Youngs Moduli (GPa) = 37.06789 109.82686 32.63506
#
# Poissons Ratio (x) = 0.02747 0.57326
# Poissons Ratio (y) = 0.00927 0.04023
# Poissons Ratio (z) = 0.65112 0.13540
#
# Static dielectric constant tensor:
#      x y z
#    x 1.823410 0.000000 0.000000 
#    y 0.000000 1.861910 0.000000 
#    z 0.000000 0.000000 1.813420 
# 
# From -- ./inp_files/50969.got.cif
#   From: 2010.05.17/outbox.cif.g08.bks.cpg/sg68_26_cif.got.tgz:50969.got - 2010.06.03 18:57:09.
