data_PCOD9508750
_publ_section_title
;
Structure prediction by ZEFSAII (Michael W. Deem and Ramdas Pophale) SiO2 
 PCOD9508750
Probable space group: C C C A
;
_chemical_formula_sum "Si O2"
_cell_formula_units_Z 72
_cell_length_a 5.854749
_cell_length_b 20.221111
_cell_length_c 27.933161
_cell_angle_alpha 90.000000
_cell_angle_beta 90.000000
_cell_angle_gamma 90.000000
_cell_volume 3306.993786
_symmetry_space_group_name_H-M "C C C A"
_symmetry_group_IT_number 68
_space_group.IT_coordinate_system_code '2'
_symmetry_cell_setting 'orthorhombic'
loop_
_space_group_symop_operation_xyz
x,y,z
-x,1/2-y,z
x,1/2-y,1/2-z
-x,y,1/2-z
-x,-y,-z
x,1/2+y,-z
-x,1/2+y,1/2+z
x,-y,1/2+z
1/2+x,1/2+y,z
1/2-x,-y,z
1/2+x,-y,1/2-z
1/2-x,1/2+y,1/2-z
1/2-x,1/2-y,-z
1/2+x,y,-z
1/2-x,y,1/2+z
1/2+x,1/2-y,1/2+z
loop_
_atom_site_type_symbol
_atom_site_label
_atom_site_fract_x
_atom_site_fract_y
_atom_site_fract_z
Si Si1 0.500000 0.750000 0.883593
Si Si2 0.723530 0.119760 0.381974
Si Si3 0.114800 0.684219 0.681779
Si Si4 0.264054 0.075143 0.515640
Si Si5 0.888344 0.563459 0.300088
O O1 0.382064 0.686450 0.906509
O O2 0.310917 0.783939 0.850584
O O3 0.778578 0.074633 0.426835
O O4 0.558247 0.086626 0.342386
O O5 0.939808 0.145159 0.352123
O O6 0.233191 0.627606 0.713056
O O7 0.000000 0.750000 0.702567
O O8 0.511185 0.103845 0.498444
O O9 0.250000 0.000000 0.496088
O O10 0.750000 0.500000 0.317983
O O11 0.000000 0.542914 0.250000
#
# Coordination Sequence:
#
# PCOD9508750 Si02
#       5
#     8  16  16  16  16
#     4   8  18  40  63  98 124 164 226 276 325 416
#     4  10  22  41  70  90 130 179 216 276 350 401
#     4   9  20  42  68  91 129 174 225 275 338 419
#     4  10  24  41  64  99 136 172 228 284 339 417
#     4  11  27  41  64  99 139 172 228 284 346 412
#
# _framework density 21.772040000000001
#
# number of rings (size 3 to 8) (size 9 to 14) (size 15 to 20)
#    0.000    2.222    0.000    0.000   12.444    0.889 
#    0.000   26.667    0.000    0.000    0.000    0.000 
#    0.000    0.000    0.000    0.000    0.000    0.000 
#
# Total GULP energy -200493.118627 kJ/mol
# GULP energy per Si atom -5569.253295 kJ/mol
# Density = 2.172249 g / cm^3
# Si number density = 21.772040 Si / 1000 Ang^3
#
#
#
# Elastic Constant Matrix: (Units=GPa)
#
#
# Indices 1 2 3 4 5 6 
#
# 1 147.1080 37.5178 44.6680 0.0000 0.0000 0.0000
# 2 37.5178 90.4516 8.4559 0.0000 0.0000 0.0000
# 3 44.6680 8.4559 93.4130 0.0000 0.0000 0.0000
# 4 0.0000 0.0000 0.0000 77.7013 0.0000 0.0000
# 5 0.0000 0.0000 0.0000 0.0000 31.4969 0.0000
# 6 0.0000 0.0000 0.0000 0.0000 0.0000 42.7142
#
#
#
# Elastic Compliance Matrix: (Units=1/GPa)
#
#
# Indices 1 2 3 4 5 6 
#
# 1 0.008830 -0.003296 -0.003924 0.000000 0.000000 0.000000
# 2 -0.003296 0.012380 0.000455 0.000000 0.000000 0.000000
# 3 -0.003924 0.000455 0.012540 0.000000 0.000000 0.000000
# 4 0.000000 0.000000 0.000000 0.012870 0.000000 0.000000
# 5 0.000000 0.000000 0.000000 0.000000 0.031749 0.000000
# 6 0.000000 0.000000 0.000000 0.000000 0.000000 0.023411
#
#
# Mechanical properties :
#
#
# Convention : Reuss Voigt Hill
#
# Bulk Modulus (GPa) = 49.45222 56.91732 53.18477
# Shear Modulus (GPa) = 40.96710 46.40454 43.68582
#
# Velocity S-wave (km/s) = 4.34249 4.62170 4.48427
# Velocity P-wave (km/s) = 6.92141 7.39454 7.16188
#
# Compressibility (1/GPa) = 0.02022154
#
# Stress axis : x y z
#
# Youngs Moduli (GPa) = 113.25489 80.77527 79.74338
#
# Poissons Ratio (x) = 0.26620 0.31290
# Poissons Ratio (y) = 0.37324 -0.03630
# Poissons Ratio (z) = 0.44439 -0.03677
#
# Static dielectric constant tensor:
#      x y z
#    x 1.899780 0.000000 0.000000 
#    y 0.000000 1.807820 0.000000 
#    z 0.000000 0.000000 1.697540 
# 
# From -- ./inp_files/48318.got.cif
#   From: 2010.05.17/outbox.cif.g08.bks.cpg/sg68_25_cif.got.tgz:48318.got - 2010.06.03 18:57:09.
