data_PCOD9508423
_publ_section_title
;
Structure prediction by ZEFSAII (Michael W. Deem and Ramdas Pophale) SiO2 
 PCOD9508423
Probable space group: C C C A
;
_chemical_formula_sum "Si O2"
_cell_formula_units_Z 64
_cell_length_a 9.165601
_cell_length_b 24.967861
_cell_length_c 9.632115
_cell_angle_alpha 90.000000
_cell_angle_beta 90.000000
_cell_angle_gamma 90.000000
_cell_volume 2204.265708
_symmetry_space_group_name_H-M "C C C A"
_symmetry_group_IT_number 68
_space_group.IT_coordinate_system_code '2'
_symmetry_cell_setting 'orthorhombic'
loop_
_space_group_symop_operation_xyz
x,y,z
-x,1/2-y,z
x,1/2-y,1/2-z
-x,y,1/2-z
-x,-y,-z
x,1/2+y,-z
-x,1/2+y,1/2+z
x,-y,1/2+z
1/2+x,1/2+y,z
1/2-x,-y,z
1/2+x,-y,1/2-z
1/2-x,1/2+y,1/2-z
1/2-x,1/2-y,-z
1/2+x,y,-z
1/2-x,y,1/2+z
1/2+x,1/2-y,1/2+z
loop_
_atom_site_type_symbol
_atom_site_label
_atom_site_fract_x
_atom_site_fract_y
_atom_site_fract_z
Si Si1 0.500000 0.668216 0.750000
Si Si2 0.356672 0.135989 0.997455
Si Si3 0.893444 0.564097 0.540871
Si Si4 0.740234 0.250000 0.250000
Si Si5 0.500000 0.250000 0.926082
Si Si6 0.250000 0.000000 0.294908
O O1 0.596420 0.631097 0.656354
O O2 0.376816 0.708821 0.685509
O O3 0.193278 0.117193 0.989010
O O4 0.408792 0.197113 0.972752
O O5 0.450407 0.089758 0.926113
O O6 0.868046 0.525267 0.406380
O O7 0.823989 0.539305 0.679643
O O8 0.860709 0.277814 0.152702
#
# Coordination Sequence:
#
# PCOD9508423 Si02
#       6
#     8  16  16   8   8   8
#     4  11  22  38  60  92 132 178 230 276 324 395
#     4  12  25  42  68 102 139 182 228 276 342 418
#     4  11  26  45  74 104 136 179 232 287 352 410
#     4  10  22  38  60  86 132 190 230 270 324 384
#     4  11  24  41  62  98 142 181 224 277 332 410
#     4  10  26  50  74 102 136 176 232 302 352 402
#
# _framework density 29.034610000000001
#
# number of rings (size 3 to 8) (size 9 to 14) (size 15 to 20)
#    0.000    1.000    0.000    6.000    0.000   14.000 
#    0.000    0.000    0.000    0.000    0.000    0.000 
#    0.000    0.000    0.000    0.000    0.000    0.000 
#
# Total GULP energy -178535.386952 kJ/mol
# GULP energy per Si atom -5579.230842 kJ/mol
# Density = 2.896853 g / cm^3
# Si number density = 29.034610 Si / 1000 Ang^3
#
#
#
# Elastic Constant Matrix: (Units=GPa)
#
#
# Indices 1 2 3 4 5 6 
#
# 1 135.1306 20.1313 5.1226 0.0000 0.0000 0.0000
# 2 20.1313 153.4177 64.0608 0.0000 0.0000 0.0000
# 3 5.1226 64.0608 118.9941 0.0000 0.0000 0.0000
# 4 0.0000 0.0000 0.0000 45.2119 0.0000 0.0000
# 5 0.0000 0.0000 0.0000 0.0000 43.0431 0.0000
# 6 0.0000 0.0000 0.0000 0.0000 0.0000 48.1083
#
#
#
# Elastic Compliance Matrix: (Units=1/GPa)
#
#
# Indices 1 2 3 4 5 6 
#
# 1 0.007554 -0.001104 0.000269 0.000000 0.000000 0.000000
# 2 -0.001104 0.008569 -0.004566 0.000000 0.000000 0.000000
# 3 0.000269 -0.004566 0.010850 0.000000 0.000000 0.000000
# 4 0.000000 0.000000 0.000000 0.022118 0.000000 0.000000
# 5 0.000000 0.000000 0.000000 0.000000 0.023233 0.000000
# 6 0.000000 0.000000 0.000000 0.000000 0.000000 0.020786
#
#
# Mechanical properties :
#
#
# Convention : Reuss Voigt Hill
#
# Bulk Modulus (GPa) = 61.83116 65.13019 63.48068
# Shear Modulus (GPa) = 45.74423 48.48785 47.11604
#
# Velocity S-wave (km/s) = 3.97357 4.09100 4.03271
# Velocity P-wave (km/s) = 6.51109 6.69295 6.60265
#
# Compressibility (1/GPa) = 0.01617308
#
# Stress axis : x y z
#
# Youngs Moduli (GPa) = 132.37214 116.69305 92.16364
#
# Poissons Ratio (x) = 0.12878 -0.02478
# Poissons Ratio (y) = 0.14608 0.42081
# Poissons Ratio (z) = -0.03559 0.53281
#
# Static dielectric constant tensor:
#      x y z
#    x 2.340590 0.000000 0.000000 
#    y 0.000000 2.828110 0.000000 
#    z 0.000000 0.000000 2.573900 
# 
# From -- ./inp_files/10824.got.cif
#   From: 2010.05.17/outbox.cif.g08.bks.cpg/sg68_6_cif.got.tgz:10824.got - 2010.06.03 18:57:09.
