data_PCOD9508624
_publ_section_title
;
Structure prediction by ZEFSAII (Michael W. Deem and Ramdas Pophale) SiO2 
 PCOD9508624
Probable space group: C C C A
;
_chemical_formula_sum "Si O2"
_cell_formula_units_Z 88
_cell_length_a 26.567205
_cell_length_b 10.507072
_cell_length_c 14.659729
_cell_angle_alpha 90.000000
_cell_angle_beta 90.000000
_cell_angle_gamma 90.000000
_cell_volume 4092.168587
_symmetry_space_group_name_H-M "C C C A"
_symmetry_group_IT_number 68
_space_group.IT_coordinate_system_code '2'
_symmetry_cell_setting 'orthorhombic'
loop_
_space_group_symop_operation_xyz
x,y,z
-x,1/2-y,z
x,1/2-y,1/2-z
-x,y,1/2-z
-x,-y,-z
x,1/2+y,-z
-x,1/2+y,1/2+z
x,-y,1/2+z
1/2+x,1/2+y,z
1/2-x,-y,z
1/2+x,-y,1/2-z
1/2-x,1/2+y,1/2-z
1/2-x,1/2-y,-z
1/2+x,y,-z
1/2-x,y,1/2+z
1/2+x,1/2-y,1/2+z
loop_
_atom_site_type_symbol
_atom_site_label
_atom_site_fract_x
_atom_site_fract_y
_atom_site_fract_z
Si Si1 0.058201 0.966793 0.015117
Si Si2 0.694124 0.507726 0.304382
Si Si3 0.362586 0.250000 0.750000
Si Si4 0.395834 0.215874 0.568304
Si Si5 0.302486 0.698914 0.541201
Si Si6 0.120956 0.150195 0.676133
O O1 0.080626 0.107894 0.004569
O O2 0.078408 0.914089 0.113125
O O3 0.080688 0.854999 0.950855
O O4 0.000000 0.000000 0.000000
O O5 0.750000 0.500000 0.263327
O O6 0.672988 0.649860 0.302314
O O7 0.699416 0.432332 0.400647
O O8 0.654014 0.438991 0.240595
O O9 0.399088 0.189387 0.674910
O O10 0.337750 0.191572 0.545878
O O11 0.250000 0.750000 0.500000
O O12 0.336338 0.789226 0.608155
O O13 0.099264 0.250000 0.750000
#
# Coordination Sequence:
#
# PCOD9508624 Si02
#       6
#    16  16   8  16  16  16
#     4  11  23  46  73 100 133 186 235 303 362 429
#     4  11  23  38  64  99 142 185 237 279 343 422
#     4  12  24  42  67 100 144 188 228 297 356 426
#     4  11  24  43  72 100 143 178 236 289 358 426
#     4  10  22  40  67 100 138 186 228 274 340 426
#     4   9  21  41  68  99 140 182 228 293 351 419
#
# _framework density 21.504491000000002
#
# number of rings (size 3 to 8) (size 9 to 14) (size 15 to 20)
#    0.000    1.455    1.818    2.727    6.364    1.455 
#    0.000    1.818    4.000    0.000    0.000    0.000 
#    0.000    0.000    0.000    0.000    0.000    0.000 
#
# Total GULP energy -244999.779586 kJ/mol
# GULP energy per Si atom -5568.176809 kJ/mol
# Density = 2.145555 g / cm^3
# Si number density = 21.504491 Si / 1000 Ang^3
#
#
#
# Elastic Constant Matrix: (Units=GPa)
#
#
# Indices 1 2 3 4 5 6 
#
# 1 134.8871 33.8914 23.9141 0.0000 0.0000 0.0000
# 2 33.8914 106.3073 28.2712 0.0000 0.0000 0.0000
# 3 23.9141 28.2712 98.6954 0.0000 0.0000 0.0000
# 4 0.0000 0.0000 0.0000 8.9467 0.0000 0.0000
# 5 0.0000 0.0000 0.0000 0.0000 7.8295 0.0000
# 6 0.0000 0.0000 0.0000 0.0000 0.0000 29.4810
#
#
#
# Elastic Compliance Matrix: (Units=1/GPa)
#
#
# Indices 1 2 3 4 5 6 
#
# 1 0.008221 -0.002263 -0.001343 0.000000 0.000000 0.000000
# 2 -0.002263 0.010806 -0.002547 0.000000 0.000000 0.000000
# 3 -0.001343 -0.002547 0.011187 0.000000 0.000000 0.000000
# 4 0.000000 0.000000 0.000000 0.111773 0.000000 0.000000
# 5 0.000000 0.000000 0.000000 0.000000 0.127722 0.000000
# 6 0.000000 0.000000 0.000000 0.000000 0.000000 0.033920
#
#
# Mechanical properties :
#
#
# Convention : Reuss Voigt Hill
#
# Bulk Modulus (GPa) = 55.84772 56.89370 56.37071
# Shear Modulus (GPa) = 15.53254 26.17231 20.85242
#
# Velocity S-wave (km/s) = 2.69047 3.49243 3.11734
# Velocity P-wave (km/s) = 5.97312 6.54040 6.26318
#
# Compressibility (1/GPa) = 0.01790584
#
# Stress axis : x y z
#
# Youngs Moduli (GPa) = 121.64706 92.54464 89.38757
#
# Poissons Ratio (x) = 0.20947 0.12009
# Poissons Ratio (y) = 0.27534 0.22765
# Poissons Ratio (z) = 0.16343 0.23569
#
# Static dielectric constant tensor:
#      x y z
#    x 1.629690 0.000000 0.000000 
#    y 0.000000 2.080120 0.000000 
#    z 0.000000 0.000000 1.759200 
# 
# From -- ./inp_files/25253.got.cif
#   From: 2010.05.17/outbox.cif.g08.bks.cpg/sg68_13_cif.got.tgz:25253.got - 2010.06.03 18:57:09.
