data_PCOD9508525
_publ_section_title
;
Structure prediction by ZEFSAII (Michael W. Deem and Ramdas Pophale) SiO2 
 PCOD9508525
Probable space group: C C C A
;
_chemical_formula_sum "Si O2"
_cell_formula_units_Z 64
_cell_length_a 6.199971
_cell_length_b 18.174975
_cell_length_c 26.572908
_cell_angle_alpha 90.000000
_cell_angle_beta 90.000000
_cell_angle_gamma 90.000000
_cell_volume 2994.350013
_symmetry_space_group_name_H-M "C C C A"
_symmetry_group_IT_number 68
_space_group.IT_coordinate_system_code '2'
_symmetry_cell_setting 'orthorhombic'
loop_
_space_group_symop_operation_xyz
x,y,z
-x,1/2-y,z
x,1/2-y,1/2-z
-x,y,1/2-z
-x,-y,-z
x,1/2+y,-z
-x,1/2+y,1/2+z
x,-y,1/2+z
1/2+x,1/2+y,z
1/2-x,-y,z
1/2+x,-y,1/2-z
1/2-x,1/2+y,1/2-z
1/2-x,1/2-y,-z
1/2+x,y,-z
1/2-x,y,1/2+z
1/2+x,1/2-y,1/2+z
loop_
_atom_site_type_symbol
_atom_site_label
_atom_site_fract_x
_atom_site_fract_y
_atom_site_fract_z
Si Si1 0.601665 0.327329 0.536068
Si Si2 0.254046 0.163838 0.733827
Si Si3 0.101963 0.673149 0.372576
Si Si4 0.279970 0.086400 0.434168
O O1 0.500000 0.250000 0.520233
O O2 0.791029 0.308601 0.573962
O O3 0.647681 0.378330 0.488037
O O4 0.445574 0.373290 0.572187
O O5 0.257143 0.250000 0.750000
O O6 0.500000 0.136209 0.750000
O O7 0.250205 0.151678 0.673759
O O8 0.000000 0.139228 0.750000
O O9 0.000000 0.750000 0.355406
O O10 0.934119 0.610364 0.388940
O O11 0.250000 0.000000 0.439082
#
# Coordination Sequence:
#
# PCOD9508525 Si02
#       4
#    16  16  16  16
#     4  12  24  39  65  96 140 184 239 291 346 422
#     4  10  22  39  66 103 142 171 225 307 370 416
#     4  12  24  40  67 103 136 182 236 296 361 425
#     4  12  26  42  62  97 146 191 234 285 353 435
#
# _framework density 21.373587000000001
#
# number of rings (size 3 to 8) (size 9 to 14) (size 15 to 20)
#    0.000    0.500    7.500    2.250    7.000    0.000 
#    0.000    0.000    0.000    0.000    6.500    0.000 
#    0.000    0.000    0.000    0.000    0.000    0.000 
#
# Total GULP energy -178138.456907 kJ/mol
# GULP energy per Si atom -5566.826778 kJ/mol
# Density = 2.132494 g / cm^3
# Si number density = 21.373587 Si / 1000 Ang^3
#
#
#
# Elastic Constant Matrix: (Units=GPa)
#
#
# Indices 1 2 3 4 5 6 
#
# 1 106.8507 19.8479 43.6223 0.0000 0.0000 0.0000
# 2 19.8479 123.9957 25.5432 0.0000 0.0000 0.0000
# 3 43.6223 25.5432 125.9689 0.0000 0.0000 0.0000
# 4 0.0000 0.0000 0.0000 3.3728 0.0000 0.0000
# 5 0.0000 0.0000 0.0000 0.0000 -1.5398 0.0000
# 6 0.0000 0.0000 0.0000 0.0000 0.0000 7.2201
#
#
#
# Elastic Compliance Matrix: (Units=1/GPa)
#
#
# Indices 1 2 3 4 5 6 
#
# 1 0.011022 -0.001021 -0.003610 0.000000 0.000000 0.000000
# 2 -0.001021 0.008511 -0.001372 0.000000 0.000000 0.000000
# 3 -0.003610 -0.001372 0.009467 0.000000 0.000000 0.000000
# 4 0.000000 0.000000 0.000000 0.296491 0.000000 0.000000
# 5 0.000000 0.000000 0.000000 0.000000 -0.649449 0.000000
# 6 0.000000 0.000000 0.000000 0.000000 0.000000 0.138502
#
#
# Mechanical properties :
#
#
# Convention : Reuss Voigt Hill
#
# Bulk Modulus (GPa) = 58.84422 59.42690 59.13556
# Shear Modulus (GPa) = -29.80008 19.66408 -5.06800
#
# Velocity S-wave (km/s) = -3.73801 3.03647 -1.54152
# Velocity P-wave (km/s) = 2.99345 6.33702 4.95573
#
# Compressibility (1/GPa) = 0.01699402
#
# Stress axis : x y z
#
# Youngs Moduli (GPa) = 90.72572 117.49672 105.63168
#
# Poissons Ratio (x) = 0.11992 0.38133
# Poissons Ratio (y) = 0.09260 0.14496
# Poissons Ratio (z) = 0.32752 0.16124
#
# Static dielectric constant tensor:
#      x y z
#    x 2.108700 0.000000 0.000000 
#    y 0.000000 1.742080 0.000000 
#    z 0.000000 0.000000 1.746360 
# 
# From -- ./inp_files/48110.got.cif
#   From: 2010.05.17/outbox.cif.g08.bks.cpg/sg68_25_cif.got.tgz:48110.got - 2010.06.03 18:57:09.
