data_PCOD9508344
_publ_section_title
;
Structure prediction by ZEFSAII (Michael W. Deem and Ramdas Pophale) SiO2 
 PCOD9508344
Probable space group: C C C A
;
_chemical_formula_sum "Si O2"
_cell_formula_units_Z 60
_cell_length_a 5.451541
_cell_length_b 19.302489
_cell_length_c 30.207831
_cell_angle_alpha 90.000000
_cell_angle_beta 90.000000
_cell_angle_gamma 90.000000
_cell_volume 3178.719011
_symmetry_space_group_name_H-M "C C C A"
_symmetry_group_IT_number 68
_space_group.IT_coordinate_system_code '2'
_symmetry_cell_setting 'orthorhombic'
loop_
_space_group_symop_operation_xyz
x,y,z
-x,1/2-y,z
x,1/2-y,1/2-z
-x,y,1/2-z
-x,-y,-z
x,1/2+y,-z
-x,1/2+y,1/2+z
x,-y,1/2+z
1/2+x,1/2+y,z
1/2-x,-y,z
1/2+x,-y,1/2-z
1/2-x,1/2+y,1/2-z
1/2-x,1/2-y,-z
1/2+x,y,-z
1/2-x,y,1/2+z
1/2+x,1/2-y,1/2+z
loop_
_atom_site_type_symbol
_atom_site_label
_atom_site_fract_x
_atom_site_fract_y
_atom_site_fract_z
Si Si1 0.000000 0.250000 0.250000
Si Si2 0.681511 0.686992 0.675132
Si Si3 0.714963 0.327495 0.981142
Si Si4 0.500000 0.250000 0.900771
Si Si5 0.000107 0.540175 0.303433
O O1 0.142895 0.302551 0.282537
O O2 0.500000 0.750000 0.680617
O O3 0.828660 0.703662 0.630557
O O4 0.532953 0.616028 0.676141
O O5 0.646920 0.306187 0.930948
O O6 0.750000 0.250000 0.000000
O O7 0.478248 0.360313 0.006064
O O8 0.250000 0.500000 0.315452
O O9 0.000000 0.547286 0.250000
O O10 0.750000 0.500000 0.315876
#
# Coordination Sequence:
#
# PCOD9508344 Si02
#       5
#     4  16  16   8  16
#     4  10  22  36  52  78 108 144 192 224 298 318
#     4  11  23  34  56  78 113 141 184 234 280 335
#     4   8  15  28  47  70 110 144 173 208 267 332
#     4   9  20  29  50  80 112 144 174 225 282 329
#     4  10  23  39  57  73 100 144 192 228 272 324
#
# _framework density 18.875527000000002
#
# number of rings (size 3 to 8) (size 9 to 14) (size 15 to 20)
#    0.000    2.667    0.000    2.000   20.533    0.000 
#    0.000    0.000    0.000    0.000    0.000    0.000 
#    0.000   57.600    0.000    0.000    0.000    0.000 
#
# Total GULP energy -167003.915873 kJ/mol
# GULP energy per Si atom -5566.797196 kJ/mol
# Density = 1.883257 g / cm^3
# Si number density = 18.875527 Si / 1000 Ang^3
#
#
#
# Elastic Constant Matrix: (Units=GPa)
#
#
# Indices 1 2 3 4 5 6 
#
# 1 166.1491 57.4530 55.9944 0.0000 0.0000 0.0000
# 2 57.4530 106.5234 22.0649 0.0000 0.0000 0.0000
# 3 55.9944 22.0649 99.3176 0.0000 0.0000 0.0000
# 4 0.0000 0.0000 0.0000 -16.7775 0.0000 0.0000
# 5 0.0000 0.0000 0.0000 0.0000 -38.2067 0.0000
# 6 0.0000 0.0000 0.0000 0.0000 0.0000 19.7767
#
#
#
# Elastic Compliance Matrix: (Units=1/GPa)
#
#
# Indices 1 2 3 4 5 6 
#
# 1 0.008723 -0.003864 -0.004059 0.000000 0.000000 0.000000
# 2 -0.003864 0.011552 -0.000388 0.000000 0.000000 0.000000
# 3 -0.004059 -0.000388 0.012444 0.000000 0.000000 0.000000
# 4 0.000000 0.000000 0.000000 -0.059604 0.000000 0.000000
# 5 0.000000 0.000000 0.000000 0.000000 -0.026173 0.000000
# 6 0.000000 0.000000 0.000000 0.000000 0.000000 0.050564
#
#
# Mechanical properties :
#
#
# Convention : Reuss Voigt Hill
#
# Bulk Modulus (GPa) = 62.12818 71.44605 66.78712
# Shear Modulus (GPa) = 256.49273 8.72369 132.60821
#
# Velocity S-wave (km/s) = 11.66968 2.15214 8.39086
# Velocity P-wave (km/s) = 14.64791 6.64146 11.37256
#
# Compressibility (1/GPa) = 0.01609576
#
# Stress axis : x y z
#
# Youngs Moduli (GPa) = 114.64153 86.56586 80.36247
#
# Poissons Ratio (x) = 0.33447 0.32623
# Poissons Ratio (y) = 0.44295 0.03119
# Poissons Ratio (z) = 0.46538 0.03359
#
# Static dielectric constant tensor:
#      x y z
#    x 1.769730 0.000000 0.000000 
#    y 0.000000 1.606340 0.000000 
#    z 0.000000 0.000000 1.464370 
# 
# From -- ./inp_files/51175.got.cif
#   From: 2010.05.17/outbox.cif.g08.bks.cpg/sg68_26_cif.got.tgz:51175.got - 2010.06.03 18:57:09.
