data_PCOD9508500
_publ_section_title
;
Structure prediction by ZEFSAII (Michael W. Deem and Ramdas Pophale) SiO2 
 PCOD9508500
Probable space group: C C C A
;
_chemical_formula_sum "Si O2"
_cell_formula_units_Z 100
_cell_length_a 24.671431
_cell_length_b 13.837041
_cell_length_c 14.645393
_cell_angle_alpha 90.000000
_cell_angle_beta 90.000000
_cell_angle_gamma 90.000000
_cell_volume 4999.638438
_symmetry_space_group_name_H-M "C C C A"
_symmetry_group_IT_number 68
_space_group.IT_coordinate_system_code '2'
_symmetry_cell_setting 'orthorhombic'
loop_
_space_group_symop_operation_xyz
x,y,z
-x,1/2-y,z
x,1/2-y,1/2-z
-x,y,1/2-z
-x,-y,-z
x,1/2+y,-z
-x,1/2+y,1/2+z
x,-y,1/2+z
1/2+x,1/2+y,z
1/2-x,-y,z
1/2+x,-y,1/2-z
1/2-x,1/2+y,1/2-z
1/2-x,1/2-y,-z
1/2+x,y,-z
1/2-x,y,1/2+z
1/2+x,1/2-y,1/2+z
loop_
_atom_site_type_symbol
_atom_site_label
_atom_site_fract_x
_atom_site_fract_y
_atom_site_fract_z
Si Si1 0.060422 0.083526 0.771870
Si Si2 0.161280 0.250000 0.250000
Si Si3 0.079299 0.893953 0.652695
Si Si4 0.197184 0.170523 0.931090
Si Si5 0.500000 0.250000 0.750000
Si Si6 0.850266 0.250000 0.750000
Si Si7 0.319599 0.837177 0.435971
Si Si8 0.392360 0.980174 0.955327
O O1 0.107813 0.159795 0.748014
O O2 0.064871 0.046367 0.876491
O O3 0.000000 0.120931 0.750000
O O4 0.071132 0.989077 0.712395
O O5 0.128405 0.329520 0.308527
O O6 0.187205 0.185754 0.328974
O O7 0.031079 0.821191 0.680210
O O8 0.087649 0.934277 0.550524
O O9 0.187934 0.231376 0.837796
O O10 0.257327 0.138843 0.961622
O O11 0.161501 0.075886 0.923911
O O12 0.171368 0.239289 0.007873
O O13 0.369167 0.910152 0.456365
#
# Coordination Sequence:
#
# PCOD9508500 Si02
#       8
#    16   8  16  16   4   8  16  16
#     4  11  23  42  61  93 127 170 218 274 325 393
#     4  11  21  39  68  93 123 172 209 263 323 382
#     4  11  22  43  65  93 127 163 221 267 334 377
#     4  10  22  39  61  93 129 164 213 256 330 395
#     4  10  24  44  66  90 130 166 220 284 302 414
#     4  10  22  42  61  87 133 171 207 269 326 388
#     4  11  21  39  66  94 127 168 211 267 318 397
#     4  11  23  40  65  94 129 168 212 274 331 381
#
# _framework density 20.001446000000001
#
# number of rings (size 3 to 8) (size 9 to 14) (size 15 to 20)
#    0.000    1.280    4.000    2.160    0.000    0.640 
#    5.760    0.000    0.000    0.000    0.000    0.000 
#    0.000    0.000    0.000    0.000    0.000    0.000 
#
# Total GULP energy -278365.995218 kJ/mol
# GULP energy per Si atom -5567.319904 kJ/mol
# Density = 1.995592 g / cm^3
# Si number density = 20.001446 Si / 1000 Ang^3
#
#
#
# Elastic Constant Matrix: (Units=GPa)
#
#
# Indices 1 2 3 4 5 6 
#
# 1 53.5513 24.7202 9.6786 0.0000 0.0000 0.0000
# 2 24.7202 86.0858 25.4094 0.0000 0.0000 0.0000
# 3 9.6786 25.4094 129.1841 0.0000 0.0000 0.0000
# 4 0.0000 0.0000 0.0000 26.2020 0.0000 0.0000
# 5 0.0000 0.0000 0.0000 0.0000 29.5204 0.0000
# 6 0.0000 0.0000 0.0000 0.0000 0.0000 29.7005
#
#
#
# Elastic Compliance Matrix: (Units=1/GPa)
#
#
# Indices 1 2 3 4 5 6 
#
# 1 0.021549 -0.006063 -0.000422 0.000000 0.000000 0.000000
# 2 -0.006063 0.014038 -0.002307 0.000000 0.000000 0.000000
# 3 -0.000422 -0.002307 0.008226 0.000000 0.000000 0.000000
# 4 0.000000 0.000000 0.000000 0.038165 0.000000 0.000000
# 5 0.000000 0.000000 0.000000 0.000000 0.033875 0.000000
# 6 0.000000 0.000000 0.000000 0.000000 0.000000 0.033670
#
#
# Mechanical properties :
#
#
# Convention : Reuss Voigt Hill
#
# Bulk Modulus (GPa) = 38.12556 43.15973 40.64265
# Shear Modulus (GPa) = 28.43327 31.01880 29.72603
#
# Velocity S-wave (km/s) = 3.77445 3.94233 3.85930
# Velocity P-wave (km/s) = 6.17236 6.50751 6.34215
#
# Compressibility (1/GPa) = 0.02622912
#
# Stress axis : x y z
#
# Youngs Moduli (GPa) = 46.40612 71.23319 121.56207
#
# Poissons Ratio (x) = 0.43192 0.05128
# Poissons Ratio (y) = 0.28138 0.28044
# Poissons Ratio (z) = 0.01958 0.16433
#
# Static dielectric constant tensor:
#      x y z
#    x 1.761050 0.000000 0.000000 
#    y 0.000000 1.676300 0.000000 
#    z 0.000000 0.000000 1.752740 
# 
# From -- ./inp_files/17754.got.cif
#   From: 2010.05.17/outbox.cif.g08.bks.cpg/sg68_9_cif.got.tgz:17754.got - 2010.06.03 18:57:09.
