data_PCOD9508400
_publ_section_title
;
Structure prediction by ZEFSAII (Michael W. Deem and Ramdas Pophale) SiO2 
 PCOD9508400
Probable space group: C C C A
;
_chemical_formula_sum "Si O2"
_cell_formula_units_Z 80
_cell_length_a 7.816249
_cell_length_b 19.383680
_cell_length_c 19.289445
_cell_angle_alpha 90.000000
_cell_angle_beta 90.000000
_cell_angle_gamma 90.000000
_cell_volume 2922.498856
_symmetry_space_group_name_H-M "C C C A"
_symmetry_group_IT_number 68
_space_group.IT_coordinate_system_code '2'
_symmetry_cell_setting 'orthorhombic'
loop_
_space_group_symop_operation_xyz
x,y,z
-x,1/2-y,z
x,1/2-y,1/2-z
-x,y,1/2-z
-x,-y,-z
x,1/2+y,-z
-x,1/2+y,1/2+z
x,-y,1/2+z
1/2+x,1/2+y,z
1/2-x,-y,z
1/2+x,-y,1/2-z
1/2-x,1/2+y,1/2-z
1/2-x,1/2-y,-z
1/2+x,y,-z
1/2-x,y,1/2+z
1/2+x,1/2-y,1/2+z
loop_
_atom_site_type_symbol
_atom_site_label
_atom_site_fract_x
_atom_site_fract_y
_atom_site_fract_z
Si Si1 0.169705 0.066968 0.326278
Si Si2 0.320727 0.655588 0.788577
Si Si3 0.038227 0.366811 0.433122
Si Si4 0.020357 0.612779 0.086017
Si Si5 0.743705 0.256153 0.402635
O O1 0.194049 0.124771 0.267819
O O2 0.994300 0.080101 0.368934
O O3 0.315552 0.073390 0.385265
O O4 0.250000 0.000000 0.288575
O O5 0.500000 0.666250 0.750000
O O6 0.378055 0.606358 0.853892
O O7 0.257305 0.724648 0.825733
O O8 0.896461 0.309161 0.416038
O O9 0.997223 0.403650 0.505589
O O10 0.204895 0.315382 0.443433
O O11 0.081035 0.693335 0.087570
#
# Coordination Sequence:
#
# PCOD9508400 Si02
#       5
#    16  16  16  16  16
#     4  10  24  47  65  89 137 183 237 280 316 397
#     4  10  23  42  63  94 126 184 221 259 340 411
#     4  10  23  38  65 105 132 168 215 286 346 396
#     4  10  22  39  67  98 132 170 223 269 352 409
#     4  10  22  37  66  99 137 164 209 276 342 415
#
# _framework density 27.373833000000001
#
# number of rings (size 3 to 8) (size 9 to 14) (size 15 to 20)
#    0.000    2.000    0.000    1.200   11.200   12.800 
#   10.800    7.000    0.000    0.000    0.000    0.000 
#    0.000    0.000    0.000    0.000    0.000    0.000 
#
# Total GULP energy -223081.504778 kJ/mol
# GULP energy per Si atom -5577.037619 kJ/mol
# Density = 2.731153 g / cm^3
# Si number density = 27.373833 Si / 1000 Ang^3
#
#
#
# Elastic Constant Matrix: (Units=GPa)
#
#
# Indices 1 2 3 4 5 6 
#
# 1 103.3891 7.9226 45.8892 0.0000 0.0000 0.0000
# 2 7.9226 63.9881 14.3060 0.0000 0.0000 0.0000
# 3 45.8892 14.3060 218.3469 0.0000 0.0000 0.0000
# 4 0.0000 0.0000 0.0000 15.7092 0.0000 0.0000
# 5 0.0000 0.0000 0.0000 0.0000 42.8842 0.0000
# 6 0.0000 0.0000 0.0000 0.0000 0.0000 22.4712
#
#
#
# Elastic Compliance Matrix: (Units=1/GPa)
#
#
# Indices 1 2 3 4 5 6 
#
# 1 0.010711 -0.000835 -0.002196 0.000000 0.000000 0.000000
# 2 -0.000835 0.015925 -0.000868 0.000000 0.000000 0.000000
# 3 -0.002196 -0.000868 0.005098 0.000000 0.000000 0.000000
# 4 0.000000 0.000000 0.000000 0.063657 0.000000 0.000000
# 5 0.000000 0.000000 0.000000 0.000000 0.023319 0.000000
# 6 0.000000 0.000000 0.000000 0.000000 0.000000 0.044501
#
#
# Mechanical properties :
#
#
# Convention : Reuss Voigt Hill
#
# Bulk Modulus (GPa) = 41.77824 57.99552 49.88688
# Shear Modulus (GPa) = 27.93467 37.38669 32.66068
#
# Velocity S-wave (km/s) = 3.19797 3.69966 3.45793
# Velocity P-wave (km/s) = 5.37878 6.28351 5.84866
#
# Compressibility (1/GPa) = 0.02393590
#
# Stress axis : x y z
#
# Youngs Moduli (GPa) = 93.36142 62.79302 196.14228
#
# Poissons Ratio (x) = 0.05244 0.43080
# Poissons Ratio (y) = 0.07797 0.17023
# Poissons Ratio (z) = 0.20506 0.05450
#
# Static dielectric constant tensor:
#      x y z
#    x 2.311720 0.000000 0.000000 
#    y 0.000000 2.326570 0.000000 
#    z 0.000000 0.000000 2.213910 
# 
# From -- ./inp_files/28339.got.cif
#   From: 2010.05.17/outbox.cif.g08.bks.cpg/sg68_15_cif.got.tgz:28339.got - 2010.06.03 18:57:09.
