data_PCOD9508122
_publ_section_title
;
Structure prediction by ZEFSAII (Michael W. Deem and Ramdas Pophale) SiO2 
 PCOD9508122
Probable space group: C C C A
;
_chemical_formula_sum "Si O2"
_cell_formula_units_Z 92
_cell_length_a 9.072605
_cell_length_b 19.106780
_cell_length_c 25.948636
_cell_angle_alpha 90.000000
_cell_angle_beta 90.000000
_cell_angle_gamma 90.000000
_cell_volume 4498.151101
_symmetry_space_group_name_H-M "C C C A"
_symmetry_group_IT_number 68
_space_group.IT_coordinate_system_code '2'
_symmetry_cell_setting 'orthorhombic'
loop_
_space_group_symop_operation_xyz
x,y,z
-x,1/2-y,z
x,1/2-y,1/2-z
-x,y,1/2-z
-x,-y,-z
x,1/2+y,-z
-x,1/2+y,1/2+z
x,-y,1/2+z
1/2+x,1/2+y,z
1/2-x,-y,z
1/2+x,-y,1/2-z
1/2-x,1/2+y,1/2-z
1/2-x,1/2-y,-z
1/2+x,y,-z
1/2-x,y,1/2+z
1/2+x,1/2-y,1/2+z
loop_
_atom_site_type_symbol
_atom_site_label
_atom_site_fract_x
_atom_site_fract_y
_atom_site_fract_z
Si Si1 0.559860 0.380024 0.193072
Si Si2 0.881152 0.815503 0.105805
Si Si3 0.192634 0.710809 0.841020
Si Si4 0.222864 0.416660 0.028021
Si Si5 0.500000 0.250000 0.750000
Si Si6 0.897242 0.400121 0.073048
Si Si7 0.750000 0.500000 0.145597
O O1 0.500000 0.386855 0.250000
O O2 0.442184 0.370184 0.147901
O O3 0.652647 0.309978 0.184477
O O4 0.673864 0.441108 0.179640
O O5 0.733252 0.782919 0.131136
O O6 0.830810 0.862785 0.057929
O O7 0.000000 0.750000 0.094925
O O8 0.132705 0.662565 0.886965
O O9 0.090852 0.706009 0.791190
O O10 0.250000 0.500000 0.037867
O O11 0.054419 0.400490 0.044590
O O12 0.264725 0.403087 0.968451
O O13 0.875460 0.467882 0.108907
#
# Coordination Sequence:
#
# PCOD9508122 Si02
#       7
#    16  16  16  16   4  16   8
#     4  10  21  41  64  95 129 180 225 278 342 407
#     4  10  23  43  68  98 135 176 231 285 343 418
#     4  10  23  40  65  95 135 172 224 292 336 404
#     4  12  25  42  71  99 133 189 230 280 349 423
#     4  12  20  40  62  88 128 172 220 274 352 396
#     4  11  25  42  67  98 139 177 233 281 347 409
#     4  10  22  44  62  94 142 174 226 294 330 410
#
# _framework density 20.452846999999998
#
# number of rings (size 3 to 8) (size 9 to 14) (size 15 to 20)
#    0.000    1.391    0.870    3.652    7.304    3.130 
#   12.522    0.000    0.000    0.000    0.000    0.000 
#    0.000    0.000    0.000    0.000    0.000    0.000 
#
# Total GULP energy -256288.181503 kJ/mol
# GULP energy per Si atom -5571.482207 kJ/mol
# Density = 2.040630 g / cm^3
# Si number density = 20.452847 Si / 1000 Ang^3
#
#
#
# Elastic Constant Matrix: (Units=GPa)
#
#
# Indices 1 2 3 4 5 6 
#
# 1 83.7161 17.6230 41.2798 0.0000 0.0000 0.0000
# 2 17.6230 72.3137 41.7781 0.0000 0.0000 0.0000
# 3 41.2798 41.7781 129.6955 0.0000 0.0000 0.0000
# 4 0.0000 0.0000 0.0000 -39.4223 0.0000 0.0000
# 5 0.0000 0.0000 0.0000 0.0000 40.7722 0.0000
# 6 0.0000 0.0000 0.0000 0.0000 0.0000 20.0514
#
#
#
# Elastic Compliance Matrix: (Units=1/GPa)
#
#
# Indices 1 2 3 4 5 6 
#
# 1 0.014233 -0.001046 -0.004193 0.000000 0.000000 0.000000
# 2 -0.001046 0.017068 -0.005165 0.000000 0.000000 0.000000
# 3 -0.004193 -0.005165 0.010709 0.000000 0.000000 0.000000
# 4 0.000000 0.000000 0.000000 -0.025366 0.000000 0.000000
# 5 0.000000 0.000000 0.000000 0.000000 0.024527 0.000000
# 6 0.000000 0.000000 0.000000 0.000000 0.000000 0.049872
#
#
# Mechanical properties :
#
#
# Convention : Reuss Voigt Hill
#
# Bulk Modulus (GPa) = 47.16777 54.12080 50.64429
# Shear Modulus (GPa) = 42.04637 16.61655 29.33146
#
# Velocity S-wave (km/s) = 4.53898 2.85341 3.79106
# Velocity P-wave (km/s) = 7.11207 6.11348 6.63160
#
# Compressibility (1/GPa) = 0.02120092
#
# Stress axis : x y z
#
# Youngs Moduli (GPa) = 70.25958 58.59083 93.38191
#
# Poissons Ratio (x) = 0.06129 0.39156
# Poissons Ratio (y) = 0.07350 0.48231
# Poissons Ratio (z) = 0.29461 0.30262
#
# Static dielectric constant tensor:
#      x y z
#    x 1.932080 0.000000 0.000000 
#    y 0.000000 1.989310 0.000000 
#    z 0.000000 0.000000 1.750910 
# 
# From -- ./inp_files/43175.got.cif
#   From: 2010.05.17/outbox.cif.g08.bks.cpg/sg68_22_cif.got.tgz:43175.got - 2010.06.03 18:57:09.
