data_PCOD9508140
_publ_section_title
;
Structure prediction by ZEFSAII (Michael W. Deem and Ramdas Pophale) SiO2 
 PCOD9508140
Probable space group: C C C A
;
_chemical_formula_sum "Si O2"
_cell_formula_units_Z 80
_cell_length_a 22.574251
_cell_length_b 13.465585
_cell_length_c 12.843761
_cell_angle_alpha 90.000000
_cell_angle_beta 90.000000
_cell_angle_gamma 90.000000
_cell_volume 3904.188616
_symmetry_space_group_name_H-M "C C C A"
_symmetry_group_IT_number 68
_space_group.IT_coordinate_system_code '2'
_symmetry_cell_setting 'orthorhombic'
loop_
_space_group_symop_operation_xyz
x,y,z
-x,1/2-y,z
x,1/2-y,1/2-z
-x,y,1/2-z
-x,-y,-z
x,1/2+y,-z
-x,1/2+y,1/2+z
x,-y,1/2+z
1/2+x,1/2+y,z
1/2-x,-y,z
1/2+x,-y,1/2-z
1/2-x,1/2+y,1/2-z
1/2-x,1/2-y,-z
1/2+x,y,-z
1/2-x,y,1/2+z
1/2+x,1/2-y,1/2+z
loop_
_atom_site_type_symbol
_atom_site_label
_atom_site_fract_x
_atom_site_fract_y
_atom_site_fract_z
Si Si1 0.167188 0.756952 0.510577
Si Si2 0.462754 0.964385 0.849609
Si Si3 0.346914 0.647882 0.704200
Si Si4 0.746375 0.116236 0.386859
Si Si5 0.962633 0.160595 0.012829
O O1 0.173047 0.831304 0.412802
O O2 0.192400 0.820112 0.608113
O O3 0.209134 0.665589 0.480328
O O4 0.101729 0.711230 0.503736
O O5 0.500000 0.994112 0.750000
O O6 0.399273 0.930053 0.806410
O O7 0.455922 0.059358 0.923197
O O8 0.499049 0.877150 0.911715
O O9 0.373917 0.750000 0.750000
O O10 0.292102 0.627704 0.781180
O O11 0.750000 0.000000 0.404933
O O12 0.000000 0.250000 0.063153
#
# Coordination Sequence:
#
# PCOD9508140 Si02
#       5
#    16  16  16  16  16
#     4  10  22  42  66  96 133 173 222 279 339 408
#     4  11  24  40  68 103 133 177 229 278 341 413
#     4  10  21  41  66  94 129 175 227 273 335 407
#     4  10  23  40  65  94 134 172 225 278 337 402
#     4  11  24  43  71 100 137 180 225 286 348 402
#
# _framework density 20.490812999999999
#
# number of rings (size 3 to 8) (size 9 to 14) (size 15 to 20)
#    0.000    1.600    2.000    2.400    2.800    2.800 
#   10.800    0.000    0.000    0.000    0.000    0.000 
#    0.000    0.000    0.000    0.000    0.000    0.000 
#
# Total GULP energy -222891.361890 kJ/mol
# GULP energy per Si atom -5572.284047 kJ/mol
# Density = 2.044418 g / cm^3
# Si number density = 20.490813 Si / 1000 Ang^3
#
#
#
# Elastic Constant Matrix: (Units=GPa)
#
#
# Indices 1 2 3 4 5 6 
#
# 1 127.3759 49.1092 48.1511 0.0000 0.0000 0.0000
# 2 49.1092 103.0318 21.0201 0.0000 0.0000 0.0000
# 3 48.1511 21.0201 70.5319 0.0000 0.0000 0.0000
# 4 0.0000 0.0000 0.0000 12.3670 0.0000 0.0000
# 5 0.0000 0.0000 0.0000 0.0000 24.0955 0.0000
# 6 0.0000 0.0000 0.0000 0.0000 0.0000 2.8298
#
#
#
# Elastic Compliance Matrix: (Units=1/GPa)
#
#
# Indices 1 2 3 4 5 6 
#
# 1 0.012192 -0.004380 -0.007018 0.000000 0.000000 0.000000
# 2 -0.004380 0.011907 -0.000559 0.000000 0.000000 0.000000
# 3 -0.007018 -0.000559 0.019136 0.000000 0.000000 0.000000
# 4 0.000000 0.000000 0.000000 0.080860 0.000000 0.000000
# 5 0.000000 0.000000 0.000000 0.000000 0.041502 0.000000
# 6 0.000000 0.000000 0.000000 0.000000 0.000000 0.353388
#
#
# Mechanical properties :
#
#
# Convention : Reuss Voigt Hill
#
# Bulk Modulus (GPa) = 51.75421 59.72226 55.73824
# Shear Modulus (GPa) = 9.10185 20.03573 14.56879
#
# Velocity S-wave (km/s) = 2.10987 3.13036 2.66933
# Velocity P-wave (km/s) = 5.58995 6.50190 6.06309
#
# Compressibility (1/GPa) = 0.01932210
#
# Stress axis : x y z
#
# Youngs Moduli (GPa) = 82.01819 83.98265 52.25793
#
# Poissons Ratio (x) = 0.36781 0.36677
# Poissons Ratio (y) = 0.35920 0.02920
# Poissons Ratio (z) = 0.57564 0.04693
#
# Static dielectric constant tensor:
#      x y z
#    x 2.317430 0.000000 0.000000 
#    y 0.000000 1.766960 0.000000 
#    z 0.000000 0.000000 1.769630 
# 
# From -- ./inp_files/16227.got.cif
#   From: 2010.05.17/outbox.cif.g08.bks.cpg/sg68_9_cif.got.tgz:16227.got - 2010.06.03 18:57:09.
