data_PCOD9508167
_publ_section_title
;
Structure prediction by ZEFSAII (Michael W. Deem and Ramdas Pophale) SiO2 
 PCOD9508167
Probable space group: C C C A
;
_chemical_formula_sum "Si O2"
_cell_formula_units_Z 116
_cell_length_a 25.065630
_cell_length_b 11.962298
_cell_length_c 17.203917
_cell_angle_alpha 90.000000
_cell_angle_beta 90.000000
_cell_angle_gamma 90.000000
_cell_volume 5158.466096
_symmetry_space_group_name_H-M "C C C A"
_symmetry_group_IT_number 68
_space_group.IT_coordinate_system_code '2'
_symmetry_cell_setting 'orthorhombic'
loop_
_space_group_symop_operation_xyz
x,y,z
-x,1/2-y,z
x,1/2-y,1/2-z
-x,y,1/2-z
-x,-y,-z
x,1/2+y,-z
-x,1/2+y,1/2+z
x,-y,1/2+z
1/2+x,1/2+y,z
1/2-x,-y,z
1/2+x,-y,1/2-z
1/2-x,1/2+y,1/2-z
1/2-x,1/2-y,-z
1/2+x,y,-z
1/2-x,y,1/2+z
1/2+x,1/2-y,1/2+z
loop_
_atom_site_type_symbol
_atom_site_label
_atom_site_fract_x
_atom_site_fract_y
_atom_site_fract_z
Si Si1 0.117494 0.117983 0.480535
Si Si2 0.026181 0.589163 0.630763
Si Si3 0.313310 0.995439 0.179815
Si Si4 0.347936 0.233383 0.121069
Si Si5 0.951290 0.834231 0.087594
Si Si6 0.907905 0.416915 0.077790
Si Si7 0.500000 0.250000 0.750000
Si Si8 0.189697 0.980944 0.359631
O O1 0.064102 0.146221 0.433398
O O2 0.155027 0.201601 0.528574
O O3 0.093767 0.045302 0.550839
O O4 0.151389 0.043173 0.420697
O O5 0.035539 0.456000 0.623702
O O6 0.038043 0.662355 0.705475
O O7 0.962817 0.605530 0.621628
O O8 0.330847 0.123982 0.166915
O O9 0.318672 0.972751 0.272051
O O10 0.250000 0.000000 0.158961
O O11 0.352619 0.914217 0.128000
O O12 0.408636 0.268481 0.138876
O O13 0.317694 0.347583 0.138835
O O14 0.000000 0.750000 0.076018
O O15 0.920314 0.860227 0.006291
O O16 0.250000 0.000000 0.383724
#
# Coordination Sequence:
#
# PCOD9508167 Si02
#       8
#    16  16  16  16  16  16   4  16
#     4  10  22  42  68 106 135 176 232 296 353 415
#     4  11  24  45  66 104 152 186 233 287 361 439
#     4  10  24  46  71  99 142 191 237 296 364 432
#     4  11  22  43  75 101 129 185 242 291 349 427
#     4  11  21  42  74 110 140 184 238 298 360 423
#     4  10  21  41  71  99 142 183 232 290 349 426
#     4  12  32  40  62 104 148 208 226 290 360 438
#     4  11  24  45  67  96 140 183 233 297 359 425
#
# _framework density 22.487304999999999
#
# number of rings (size 3 to 8) (size 9 to 14) (size 15 to 20)
#    0.000    1.379    2.759    4.552    4.828    2.759 
#    2.483    0.345    0.000    0.000    0.000    0.000 
#    0.000    0.000    0.000    0.000    0.000    0.000 
#
# Total GULP energy -323038.478847 kJ/mol
# GULP energy per Si atom -5569.628946 kJ/mol
# Density = 2.243612 g / cm^3
# Si number density = 22.487305 Si / 1000 Ang^3
#
#
#
# Elastic Constant Matrix: (Units=GPa)
#
#
# Indices 1 2 3 4 5 6 
#
# 1 134.1208 31.3400 27.6182 0.0000 0.0000 0.0000
# 2 31.3400 94.2897 20.4468 0.0000 0.0000 0.0000
# 3 27.6182 20.4468 72.5567 0.0000 0.0000 0.0000
# 4 0.0000 0.0000 0.0000 17.2901 0.0000 0.0000
# 5 0.0000 0.0000 0.0000 0.0000 30.2917 0.0000
# 6 0.0000 0.0000 0.0000 0.0000 0.0000 26.0571
#
#
#
# Elastic Compliance Matrix: (Units=1/GPa)
#
#
# Indices 1 2 3 4 5 6 
#
# 1 0.008522 -0.002268 -0.002605 0.000000 0.000000 0.000000
# 2 -0.002268 0.011899 -0.002490 0.000000 0.000000 0.000000
# 3 -0.002605 -0.002490 0.015476 0.000000 0.000000 0.000000
# 4 0.000000 0.000000 0.000000 0.057837 0.000000 0.000000
# 5 0.000000 0.000000 0.000000 0.000000 0.033012 0.000000
# 6 0.000000 0.000000 0.000000 0.000000 0.000000 0.038377
#
#
# Mechanical properties :
#
#
# Convention : Reuss Voigt Hill
#
# Bulk Modulus (GPa) = 47.23277 51.08636 49.15957
# Shear Modulus (GPa) = 26.75140 29.49859 28.12499
#
# Velocity S-wave (km/s) = 3.45283 3.62579 3.54037
# Velocity P-wave (km/s) = 6.07831 6.34789 6.21456
#
# Compressibility (1/GPa) = 0.02117174
#
# Stress axis : x y z
#
# Youngs Moduli (GPa) = 117.33963 84.03827 64.61802
#
# Poissons Ratio (x) = 0.19058 0.16832
# Poissons Ratio (y) = 0.26610 0.16090
# Poissons Ratio (z) = 0.30566 0.20926
#
# Static dielectric constant tensor:
#      x y z
#    x 1.856950 0.000000 0.000000 
#    y 0.000000 1.909640 0.000000 
#    z 0.000000 0.000000 1.924380 
# 
# From -- ./inp_files/34154.got.cif
#   From: 2010.05.17/outbox.cif.g08.bks.cpg/sg68_18_cif.got.tgz:34154.got - 2010.06.03 18:57:09.
