data_PCOD9508532
_publ_section_title
;
Structure prediction by ZEFSAII (Michael W. Deem and Ramdas Pophale) SiO2 
 PCOD9508532
Probable space group: C C C A
;
_chemical_formula_sum "Si O2"
_cell_formula_units_Z 100
_cell_length_a 15.762702
_cell_length_b 28.654078
_cell_length_c 9.227915
_cell_angle_alpha 90.000000
_cell_angle_beta 90.000000
_cell_angle_gamma 90.000000
_cell_volume 4167.932620
_symmetry_space_group_name_H-M "C C C A"
_symmetry_group_IT_number 68
_space_group.IT_coordinate_system_code '2'
_symmetry_cell_setting 'orthorhombic'
loop_
_space_group_symop_operation_xyz
x,y,z
-x,1/2-y,z
x,1/2-y,1/2-z
-x,y,1/2-z
-x,-y,-z
x,1/2+y,-z
-x,1/2+y,1/2+z
x,-y,1/2+z
1/2+x,1/2+y,z
1/2-x,-y,z
1/2+x,-y,1/2-z
1/2-x,1/2+y,1/2-z
1/2-x,1/2-y,-z
1/2+x,y,-z
1/2-x,y,1/2+z
1/2+x,1/2-y,1/2+z
loop_
_atom_site_type_symbol
_atom_site_label
_atom_site_fract_x
_atom_site_fract_y
_atom_site_fract_z
Si Si1 0.000000 0.250000 0.750000
Si Si2 0.813753 0.250000 0.250000
Si Si3 0.191075 0.902485 0.071962
Si Si4 0.923266 0.802911 0.984275
Si Si5 0.875058 0.938375 0.847973
Si Si6 0.000000 0.141190 0.250000
Si Si7 0.716201 0.155837 0.157956
Si Si8 0.353245 0.992239 0.429888
O O1 0.051876 0.280947 0.636928
O O2 0.873909 0.267000 0.119523
O O3 0.757016 0.205659 0.201420
O O4 0.276847 0.925567 0.134322
O O5 0.171723 0.866732 0.201330
O O6 0.132882 0.945836 0.027810
O O7 0.212889 0.875213 0.923433
O O8 0.999672 0.825109 0.890814
O O9 0.852807 0.839980 0.031119
O O10 0.883431 0.978464 0.727986
O O11 0.925586 0.894066 0.791503
O O12 0.896598 0.962600 0.000649
O O13 0.250000 0.000000 0.423403
#
# Coordination Sequence:
#
# PCOD9508532 Si02
#       8
#     4   8  16  16  16   8  16  16
#     4  12  30  46  68  98 138 202 238 286 332 454
#     4  12  25  45  72 103 137 174 222 314 372 408
#     4  11  22  39  68 104 134 169 220 292 366 411
#     4  12  27  47  68  98 140 185 241 275 354 425
#     4  11  23  41  63  97 133 184 228 278 345 416
#     4  12  26  47  68  91 144 196 233 273 338 432
#     4  12  23  41  70 106 133 172 227 299 367 418
#     4  10  22  39  67  97 132 166 224 292 351 400
#
# _framework density 23.992709999999999
#
# number of rings (size 3 to 8) (size 9 to 14) (size 15 to 20)
#    0.000    0.640    4.800    3.360    4.480    1.920 
#    0.000    0.000    0.000    0.000    0.000    0.000 
#    0.000    0.000    0.000    0.000    0.000    0.000 
#
# Total GULP energy -279490.683325 kJ/mol
# GULP energy per Si atom -5589.813667 kJ/mol
# Density = 2.393810 g / cm^3
# Si number density = 23.992710 Si / 1000 Ang^3
#
#
#
# Elastic Constant Matrix: (Units=GPa)
#
#
# Indices 1 2 3 4 5 6 
#
# 1 34.3273 11.6583 16.7626 0.0000 0.0000 0.0000
# 2 11.6583 76.8691 42.8245 0.0000 0.0000 0.0000
# 3 16.7626 42.8245 148.8360 0.0000 0.0000 0.0000
# 4 0.0000 0.0000 0.0000 63.6238 0.0000 0.0000
# 5 0.0000 0.0000 0.0000 0.0000 23.9622 0.0000
# 6 0.0000 0.0000 0.0000 0.0000 0.0000 168.0573
#
#
#
# Elastic Compliance Matrix: (Units=1/GPa)
#
#
# Indices 1 2 3 4 5 6 
#
# 1 0.031530 -0.003339 -0.002590 0.000000 0.000000 0.000000
# 2 -0.003339 0.015846 -0.004183 0.000000 0.000000 0.000000
# 3 -0.002590 -0.004183 0.008214 0.000000 0.000000 0.000000
# 4 0.000000 0.000000 0.000000 0.015717 0.000000 0.000000
# 5 0.000000 0.000000 0.000000 0.000000 0.041732 0.000000
# 6 0.000000 0.000000 0.000000 0.000000 0.000000 0.005950
#
#
# Mechanical properties :
#
#
# Convention : Reuss Voigt Hill
#
# Bulk Modulus (GPa) = 28.27628 44.72479 36.50053
# Shear Modulus (GPa) = 33.11162 63.71445 48.41304
#
# Velocity S-wave (km/s) = 3.71896 5.15882 4.49689
# Velocity P-wave (km/s) = 5.50017 7.35976 6.49684
#
# Compressibility (1/GPa) = 0.03536533
#
# Stress axis : x y z
#
# Youngs Moduli (GPa) = 31.71559 63.10705 121.74009
#
# Poissons Ratio (x) = 0.21071 0.31536
# Poissons Ratio (y) = 0.10589 0.50928
# Poissons Ratio (z) = 0.08216 0.26400
#
# Static dielectric constant tensor:
#      x y z
#    x 2.019970 0.000000 0.000000 
#    y 0.000000 2.040410 0.000000 
#    z 0.000000 0.000000 1.909620 
# 
# From -- ./inp_files/7521.got.cif
#   From: 2010.05.17/outbox.cif.g08.bks.cpg/sg68_4_cif.got.tgz:7521.got - 2010.06.03 18:57:09.
