data_PCOD9508162
_publ_section_title
;
Structure prediction by ZEFSAII (Michael W. Deem and Ramdas Pophale) SiO2 
 PCOD9508162
Probable space group: C C C A
;
_chemical_formula_sum "Si O2"
_cell_formula_units_Z 112
_cell_length_a 26.605377
_cell_length_b 13.711465
_cell_length_c 13.638397
_cell_angle_alpha 90.000000
_cell_angle_beta 90.000000
_cell_angle_gamma 90.000000
_cell_volume 4975.269435
_symmetry_space_group_name_H-M "C C C A"
_symmetry_group_IT_number 68
_space_group.IT_coordinate_system_code '2'
_symmetry_cell_setting 'orthorhombic'
loop_
_space_group_symop_operation_xyz
x,y,z
-x,1/2-y,z
x,1/2-y,1/2-z
-x,y,1/2-z
-x,-y,-z
x,1/2+y,-z
-x,1/2+y,1/2+z
x,-y,1/2+z
1/2+x,1/2+y,z
1/2-x,-y,z
1/2+x,-y,1/2-z
1/2-x,1/2+y,1/2-z
1/2-x,1/2-y,-z
1/2+x,y,-z
1/2-x,y,1/2+z
1/2+x,1/2-y,1/2+z
loop_
_atom_site_type_symbol
_atom_site_label
_atom_site_fract_x
_atom_site_fract_y
_atom_site_fract_z
Si Si1 0.956289 0.548583 0.070354
Si Si2 0.098714 0.042786 0.916367
Si Si3 0.805177 0.961815 0.645766
Si Si4 0.342863 0.657329 0.314096
Si Si5 0.904555 0.256405 0.630777
Si Si6 0.552384 0.913655 0.252212
Si Si7 0.690090 0.770933 0.008549
O O1 0.942453 0.661649 0.086540
O O2 0.960789 0.503707 0.177128
O O3 0.906892 0.498737 0.024110
O O4 0.000000 0.500000 0.000000
O O5 0.076695 0.149782 0.903744
O O6 0.155472 0.045372 0.880411
O O7 0.072942 0.959784 0.848110
O O8 0.816195 0.931158 0.758146
O O9 0.815317 0.870535 0.572756
O O10 0.750000 0.000000 0.632783
O O11 0.325600 0.750000 0.250000
O O12 0.402143 0.645883 0.298219
O O13 0.330082 0.682219 0.424353
O O14 0.903109 0.250000 0.750000
O O15 0.848666 0.276076 0.583608
O O16 0.500000 0.857889 0.250000
O O17 0.750000 0.750000 0.000000
#
# Coordination Sequence:
#
# PCOD9508162 Si02
#       7
#    16  16  16  16  16  16  16
#     4  12  25  45  70 102 143 191 247 308 372 451
#     4  11  23  44  69 101 148 190 244 305 380 448
#     4  10  21  41  70 103 146 189 246 310 379 454
#     4   9  22  42  66  98 141 185 241 308 366 451
#     4  12  26  46  74 107 151 201 250 319 383 455
#     4  11  22  42  68  99 139 186 241 310 369 440
#     4  11  23  43  69 105 149 197 253 310 386 472
#
# _framework density 22.511343
#
# number of rings (size 3 to 8) (size 9 to 14) (size 15 to 20)
#    0.000    1.143    4.286    1.714    0.000    3.714 
#    0.000    2.857    0.000    0.000    0.000    0.000 
#    0.000    0.000    0.000    0.000    0.000    0.000 
#
# Total GULP energy -312462.675174 kJ/mol
# GULP energy per Si atom -5579.690628 kJ/mol
# Density = 2.246011 g / cm^3
# Si number density = 22.511343 Si / 1000 Ang^3
#
#
#
# Elastic Constant Matrix: (Units=GPa)
#
#
# Indices 1 2 3 4 5 6 
#
# 1 120.3761 28.1430 32.5470 0.0000 0.0000 0.0000
# 2 28.1430 118.5014 38.3945 0.0000 0.0000 0.0000
# 3 32.5470 38.3945 108.6404 0.0000 0.0000 0.0000
# 4 0.0000 0.0000 0.0000 21.2850 0.0000 0.0000
# 5 0.0000 0.0000 0.0000 0.0000 26.2733 0.0000
# 6 0.0000 0.0000 0.0000 0.0000 0.0000 19.2934
#
#
#
# Elastic Compliance Matrix: (Units=1/GPa)
#
#
# Indices 1 2 3 4 5 6 
#
# 1 0.009260 -0.001469 -0.002255 0.000000 0.000000 0.000000
# 2 -0.001469 0.009763 -0.003010 0.000000 0.000000 0.000000
# 3 -0.002255 -0.003010 0.010944 0.000000 0.000000 0.000000
# 4 0.000000 0.000000 0.000000 0.046981 0.000000 0.000000
# 5 0.000000 0.000000 0.000000 0.000000 0.038061 0.000000
# 6 0.000000 0.000000 0.000000 0.000000 0.000000 0.051831
#
#
# Mechanical properties :
#
#
# Convention : Reuss Voigt Hill
#
# Bulk Modulus (GPa) = 60.60918 60.63187 60.62053
# Shear Modulus (GPa) = 26.90926 29.93255 28.42090
#
# Velocity S-wave (km/s) = 3.46116 3.65041 3.55704
# Velocity P-wave (km/s) = 6.55401 6.69027 6.62249
#
# Compressibility (1/GPa) = 0.01649915
#
# Stress axis : x y z
#
# Youngs Moduli (GPa) = 107.98654 102.42927 91.37260
#
# Poissons Ratio (x) = 0.15042 0.20607
# Poissons Ratio (y) = 0.15858 0.27506
# Poissons Ratio (z) = 0.24354 0.30834
#
# Static dielectric constant tensor:
#      x y z
#    x 1.960910 0.000000 0.000000 
#    y 0.000000 1.863290 0.000000 
#    z 0.000000 0.000000 1.868120 
# 
# From -- ./inp_files/25479.got.cif
#   From: 2010.05.17/outbox.cif.g08.bks.cpg/sg68_13_cif.got.tgz:25479.got - 2010.06.03 18:57:09.
