data_PCOD9508182
_publ_section_title
;
Structure prediction by ZEFSAII (Michael W. Deem and Ramdas Pophale) SiO2 
 PCOD9508182
Probable space group: C C C A
;
_chemical_formula_sum "Si O2"
_cell_formula_units_Z 108
_cell_length_a 15.116685
_cell_length_b 30.431477
_cell_length_c 10.958033
_cell_angle_alpha 90.000000
_cell_angle_beta 90.000000
_cell_angle_gamma 90.000000
_cell_volume 5040.947783
_symmetry_space_group_name_H-M "C C C A"
_symmetry_group_IT_number 68
_space_group.IT_coordinate_system_code '2'
_symmetry_cell_setting 'orthorhombic'
loop_
_space_group_symop_operation_xyz
x,y,z
-x,1/2-y,z
x,1/2-y,1/2-z
-x,y,1/2-z
-x,-y,-z
x,1/2+y,-z
-x,1/2+y,1/2+z
x,-y,1/2+z
1/2+x,1/2+y,z
1/2-x,-y,z
1/2+x,-y,1/2-z
1/2-x,1/2+y,1/2-z
1/2-x,1/2-y,-z
1/2+x,y,-z
1/2-x,y,1/2+z
1/2+x,1/2-y,1/2+z
loop_
_atom_site_type_symbol
_atom_site_label
_atom_site_fract_x
_atom_site_fract_y
_atom_site_fract_z
Si Si1 0.500000 0.250000 0.250000
Si Si2 0.601209 0.998533 0.370024
Si Si3 0.860941 0.711203 0.422793
Si Si4 0.788697 0.887533 0.073503
Si Si5 0.396677 0.469227 0.121543
Si Si6 0.670133 0.096295 0.811338
Si Si7 0.091070 0.810559 0.686414
Si Si8 0.764091 0.250000 0.250000
O O1 0.442133 0.217834 0.332530
O O2 0.638850 0.998285 0.507547
O O3 0.613450 0.948039 0.327412
O O4 0.643909 0.023012 0.255216
O O5 0.500673 0.017380 0.376150
O O6 0.815641 0.663372 0.414289
O O7 0.897624 0.713983 0.558312
O O8 0.795630 0.748879 0.371026
O O9 0.874381 0.918915 0.092696
O O10 0.719292 0.900125 0.180396
O O11 0.765168 0.897916 0.930743
O O12 0.604797 0.137672 0.825324
O O13 0.173997 0.791964 0.760028
O O14 0.000000 0.800655 0.750000
#
# Coordination Sequence:
#
# PCOD9508182 Si02
#       8
#     4  16  16  16  16  16  16   8
#     4  10  24  40  64  92 134 176 206 278 332 390
#     4   9  19  36  58  87 120 158 205 255 320 366
#     4  10  23  44  63  95 135 171 221 271 333 396
#     4  10  21  42  63  92 125 167 222 262 328 396
#     4   9  19  35  61  85 120 159 203 260 308 387
#     4  10  22  41  64  93 129 168 213 273 323 396
#     4  11  24  40  67 103 130 171 223 275 330 396
#     4  11  21  43  71  94 132 176 219 273 333 389
#
# _framework density 21.424543
#
# number of rings (size 3 to 8) (size 9 to 14) (size 15 to 20)
#    0.000    2.074    1.481    0.667    4.148    2.963 
#    2.667    2.963    0.000    0.000    0.000    0.000 
#    0.000    0.000    0.000    0.000    0.000    0.000 
#
# Total GULP energy -300809.841609 kJ/mol
# GULP energy per Si atom -5570.552622 kJ/mol
# Density = 2.137578 g / cm^3
# Si number density = 21.424543 Si / 1000 Ang^3
#
#
#
# Elastic Constant Matrix: (Units=GPa)
#
#
# Indices 1 2 3 4 5 6 
#
# 1 81.1595 9.1548 39.2424 0.0000 0.0000 0.0000
# 2 9.1548 65.0373 -1.0732 0.0000 0.0000 0.0000
# 3 39.2424 -1.0732 153.3049 0.0000 0.0000 0.0000
# 4 0.0000 0.0000 0.0000 24.1797 0.0000 0.0000
# 5 0.0000 0.0000 0.0000 0.0000 30.0674 0.0000
# 6 0.0000 0.0000 0.0000 0.0000 0.0000 23.7873
#
#
#
# Elastic Compliance Matrix: (Units=1/GPa)
#
#
# Indices 1 2 3 4 5 6 
#
# 1 0.014338 -0.002079 -0.003685 0.000000 0.000000 0.000000
# 2 -0.002079 0.015679 0.000642 0.000000 0.000000 0.000000
# 3 -0.003685 0.000642 0.007471 0.000000 0.000000 0.000000
# 4 0.000000 0.000000 0.000000 0.041357 0.000000 0.000000
# 5 0.000000 0.000000 0.000000 0.000000 0.033259 0.000000
# 6 0.000000 0.000000 0.000000 0.000000 0.000000 0.042039
#
#
# Mechanical properties :
#
#
# Convention : Reuss Voigt Hill
#
# Bulk Modulus (GPa) = 36.70558 43.79443 40.25000
# Shear Modulus (GPa) = 28.82398 32.41872 30.62135
#
# Velocity S-wave (km/s) = 3.67191 3.89415 3.78466
# Velocity P-wave (km/s) = 5.92848 6.38004 6.15840
#
# Compressibility (1/GPa) = 0.02724382
#
# Stress axis : x y z
#
# Youngs Moduli (GPa) = 69.74710 63.77945 133.85771
#
# Poissons Ratio (x) = 0.13260 0.49321
# Poissons Ratio (y) = 0.14500 -0.08593
# Poissons Ratio (z) = 0.25699 -0.04094
#
# Static dielectric constant tensor:
#      x y z
#    x -24.271980 0.000000 0.000000 
#    y 0.000000 1.700440 0.000000 
#    z 0.000000 0.000000 1.897400 
# 
# From -- ./inp_files/13642.got.cif
#   From: 2010.05.17/outbox.cif.g08.bks.cpg/sg68_7_cif.got.tgz:13642.got - 2010.06.03 18:57:09.
