data_PCOD9508032
_publ_section_title
;
Structure prediction by ZEFSAII (Michael W. Deem and Ramdas Pophale) SiO2 
 PCOD9508032
Probable space group: C C C A
;
_chemical_formula_sum "Si O2"
_cell_formula_units_Z 48
_cell_length_a 5.127312
_cell_length_b 26.046951
_cell_length_c 15.551802
_cell_angle_alpha 90.000000
_cell_angle_beta 90.000000
_cell_angle_gamma 90.000000
_cell_volume 2076.956289
_symmetry_space_group_name_H-M "C C C A"
_symmetry_group_IT_number 68
_space_group.IT_coordinate_system_code '2'
_symmetry_cell_setting 'orthorhombic'
loop_
_space_group_symop_operation_xyz
x,y,z
-x,1/2-y,z
x,1/2-y,1/2-z
-x,y,1/2-z
-x,-y,-z
x,1/2+y,-z
-x,1/2+y,1/2+z
x,-y,1/2+z
1/2+x,1/2+y,z
1/2-x,-y,z
1/2+x,-y,1/2-z
1/2-x,1/2+y,1/2-z
1/2-x,1/2-y,-z
1/2+x,y,-z
1/2-x,y,1/2+z
1/2+x,1/2-y,1/2+z
loop_
_atom_site_type_symbol
_atom_site_label
_atom_site_fract_x
_atom_site_fract_y
_atom_site_fract_z
Si Si1 0.958869 0.557391 0.035627
Si Si2 0.581897 0.695177 0.062583
Si Si3 0.256278 0.107527 0.695174
O O1 0.848256 0.564092 0.129735
O O2 0.241742 0.581973 0.026275
O O3 0.000000 0.500000 0.000000
O O4 0.500000 0.750000 0.103817
O O5 0.625516 0.653433 0.137161
O O6 0.352316 0.692006 0.991016
O O7 0.500000 0.087829 0.750000
O O8 0.000000 0.123165 0.750000
#
# Coordination Sequence:
#
# PCOD9508032 Si02
#       3
#    16  16  16
#     4  10  21  41  66  89 121 174 223 265 324 401
#     4  10  21  40  65  91 125 177 230 266 316 405
#     4  12  24  39  63  99 137 171 216 283 349 393
#
# _framework density 23.110744
#
# number of rings (size 3 to 8) (size 9 to 14) (size 15 to 20)
#    0.000    1.333    0.000    6.000    0.000    0.667 
#    0.000   15.000    0.000    0.000    0.000    0.000 
#    0.000    0.000    0.000    0.000    0.000    0.000 
#
# Total GULP energy -133906.198110 kJ/mol
# GULP energy per Si atom -5579.424921 kJ/mol
# Density = 2.305814 g / cm^3
# Si number density = 23.110744 Si / 1000 Ang^3
#
#
#
# Elastic Constant Matrix: (Units=GPa)
#
#
# Indices 1 2 3 4 5 6 
#
# 1 224.3197 17.2498 67.0499 0.0000 0.0000 0.0000
# 2 17.2498 107.9739 48.3031 0.0000 0.0000 0.0000
# 3 67.0499 48.3031 121.7155 0.0000 0.0000 0.0000
# 4 0.0000 0.0000 0.0000 13.6315 0.0000 0.0000
# 5 0.0000 0.0000 0.0000 0.0000 57.9545 0.0000
# 6 0.0000 0.0000 0.0000 0.0000 0.0000 18.6261
#
#
#
# Elastic Compliance Matrix: (Units=1/GPa)
#
#
# Indices 1 2 3 4 5 6 
#
# 1 0.005365 0.000565 -0.003180 0.000000 0.000000 0.000000
# 2 0.000565 0.011320 -0.004804 0.000000 0.000000 0.000000
# 3 -0.003180 -0.004804 0.011874 0.000000 0.000000 0.000000
# 4 0.000000 0.000000 0.000000 0.073359 0.000000 0.000000
# 5 0.000000 0.000000 0.000000 0.000000 0.017255 0.000000
# 6 0.000000 0.000000 0.000000 0.000000 0.000000 0.053688
#
#
# Mechanical properties :
#
#
# Convention : Reuss Voigt Hill
#
# Bulk Modulus (GPa) = 72.87282 79.91274 76.39278
# Shear Modulus (GPa) = 26.00477 39.46951 32.73714
#
# Velocity S-wave (km/s) = 3.35808 4.13709 3.76777
# Velocity P-wave (km/s) = 6.82906 7.58115 7.21491
#
# Compressibility (1/GPa) = 0.01372254
#
# Stress axis : x y z
#
# Youngs Moduli (GPa) = 186.39734 88.33720 84.21771
#
# Poissons Ratio (x) = -0.04995 0.26779
# Poissons Ratio (y) = -0.10539 0.40458
# Poissons Ratio (z) = 0.59270 0.42437
#
# Static dielectric constant tensor:
#      x y z
#    x -28.657600 0.000000 0.000000 
#    y 0.000000 0.816230 0.000000 
#    z 0.000000 0.000000 1.869830 
# 
# From -- ./inp_files/18210.got.cif
#   From: 2010.05.17/outbox.cif.g08.bks.cpg/sg68_10_cif.got.tgz:18210.got - 2010.06.03 18:57:09.
