data_PCOD9508767
_publ_section_title
;
Structure prediction by ZEFSAII (Michael W. Deem and Ramdas Pophale) SiO2 
 PCOD9508767
Probable space group: C C C A
;
_chemical_formula_sum "Si O2"
_cell_formula_units_Z 96
_cell_length_a 13.259099
_cell_length_b 17.746534
_cell_length_c 22.795838
_cell_angle_alpha 90.000000
_cell_angle_beta 90.000000
_cell_angle_gamma 90.000000
_cell_volume 5363.930236
_symmetry_space_group_name_H-M "C C C A"
_symmetry_group_IT_number 68
_space_group.IT_coordinate_system_code '2'
_symmetry_cell_setting 'orthorhombic'
loop_
_space_group_symop_operation_xyz
x,y,z
-x,1/2-y,z
x,1/2-y,1/2-z
-x,y,1/2-z
-x,-y,-z
x,1/2+y,-z
-x,1/2+y,1/2+z
x,-y,1/2+z
1/2+x,1/2+y,z
1/2-x,-y,z
1/2+x,-y,1/2-z
1/2-x,1/2+y,1/2-z
1/2-x,1/2-y,-z
1/2+x,y,-z
1/2-x,y,1/2+z
1/2+x,1/2-y,1/2+z
loop_
_atom_site_type_symbol
_atom_site_label
_atom_site_fract_x
_atom_site_fract_y
_atom_site_fract_z
Si Si1 0.154512 0.675896 0.215728
Si Si2 0.500000 0.441732 0.750000
Si Si3 0.000000 0.750000 0.124872
Si Si4 0.451495 0.903267 0.565316
Si Si5 0.817728 0.423315 0.328027
Si Si6 0.132268 0.980765 0.949597
Si Si7 0.855607 0.954421 0.315704
O O1 0.187157 0.750000 0.250000
O O2 0.238742 0.643051 0.173516
O O3 0.138950 0.612623 0.266808
O O4 0.065752 0.701433 0.172073
O O5 0.402521 0.405317 0.720313
O O6 0.550383 0.493214 0.700683
O O7 0.959812 0.685010 0.081125
O O8 0.405297 0.930953 0.503896
O O9 0.378908 0.930355 0.618234
O O10 0.560570 0.946459 0.563063
O O11 0.750000 0.500000 0.317535
O O12 0.870427 0.433940 0.389741
O O13 0.250000 0.000000 0.959022
O O14 0.750000 0.000000 0.311956
#
# Coordination Sequence:
#
# PCOD9508767 Si02
#       7
#    16   8   8  16  16  16  16
#     4  12  23  36  58  94 128 154 197 260 317 373
#     4  12  18  34  64  90 118 158 204 248 310 362
#     4  12  23  38  64  94 132 155 204 260 330 361
#     4  11  23  39  65  92 120 164 206 261 309 366
#     4  11  21  38  62  89 124 160 207 254 307 371
#     4  10  22  42  63  88 119 162 217 253 299 365
#     4  12  22  37  62  96 124 157 205 257 314 370
#
# _framework density 17.897324000000001
#
# number of rings (size 3 to 8) (size 9 to 14) (size 15 to 20)
#    0.000    0.667    6.667    3.750    0.000    0.000 
#    0.000    3.750    7.333    0.000    0.000    0.000 
#    0.000    0.000    0.000    0.000    0.000    0.000 
#
# Total GULP energy -267255.653466 kJ/mol
# GULP energy per Si atom -5567.826114 kJ/mol
# Density = 1.785659 g / cm^3
# Si number density = 17.897324 Si / 1000 Ang^3
#
#
#
# Elastic Constant Matrix: (Units=GPa)
#
#
# Indices 1 2 3 4 5 6 
#
# 1 94.0455 29.4004 29.5718 0.0000 0.0000 0.0000
# 2 29.4004 64.0192 29.3621 0.0000 0.0000 0.0000
# 3 29.5718 29.3621 114.9663 0.0000 0.0000 0.0000
# 4 0.0000 0.0000 0.0000 -16.8979 0.0000 0.0000
# 5 0.0000 0.0000 0.0000 0.0000 31.4574 0.0000
# 6 0.0000 0.0000 0.0000 0.0000 0.0000 28.6479
#
#
#
# Elastic Compliance Matrix: (Units=1/GPa)
#
#
# Indices 1 2 3 4 5 6 
#
# 1 0.012822 -0.004956 -0.002032 0.000000 0.000000 0.000000
# 2 -0.004956 0.019609 -0.003733 0.000000 0.000000 0.000000
# 3 -0.002032 -0.003733 0.010174 0.000000 0.000000 0.000000
# 4 0.000000 0.000000 0.000000 -0.059179 0.000000 0.000000
# 5 0.000000 0.000000 0.000000 0.000000 0.031789 0.000000
# 6 0.000000 0.000000 0.000000 0.000000 0.000000 0.034907
#
#
# Mechanical properties :
#
#
# Convention : Reuss Voigt Hill
#
# Bulk Modulus (GPa) = 47.25564 49.96662 48.61113
# Shear Modulus (GPa) = 63.59866 20.95459 42.27663
#
# Velocity S-wave (km/s) = 5.96762 3.42544 4.86549
# Velocity P-wave (km/s) = 8.59909 6.60484 7.66708
#
# Compressibility (1/GPa) = 0.02116150
#
# Stress axis : x y z
#
# Youngs Moduli (GPa) = 77.99373 50.99807 98.28628
#
# Poissons Ratio (x) = 0.25275 0.19974
# Poissons Ratio (y) = 0.38655 0.36692
# Poissons Ratio (z) = 0.15850 0.19038
#
# Static dielectric constant tensor:
#      x y z
#    x 1.687190 0.000000 0.000000 
#    y 0.000000 1.623290 0.000000 
#    z 0.000000 0.000000 1.648570 
# 
# From -- ./inp_files/44468.got.cif
#   From: 2010.05.17/outbox.cif.g08.bks.cpg/sg68_23_cif.got.tgz:44468.got - 2010.06.03 18:57:09.
