data_PCOD9508295
_publ_section_title
;
Structure prediction by ZEFSAII (Michael W. Deem and Ramdas Pophale) SiO2 
 PCOD9508295
Probable space group: C C C A
;
_chemical_formula_sum "Si O2"
_cell_formula_units_Z 64
_cell_length_a 5.462529
_cell_length_b 17.224550
_cell_length_c 32.096826
_cell_angle_alpha 90.000000
_cell_angle_beta 90.000000
_cell_angle_gamma 90.000000
_cell_volume 3019.977644
_symmetry_space_group_name_H-M "C C C A"
_symmetry_group_IT_number 68
_space_group.IT_coordinate_system_code '2'
_symmetry_cell_setting 'orthorhombic'
loop_
_space_group_symop_operation_xyz
x,y,z
-x,1/2-y,z
x,1/2-y,1/2-z
-x,y,1/2-z
-x,-y,-z
x,1/2+y,-z
-x,1/2+y,1/2+z
x,-y,1/2+z
1/2+x,1/2+y,z
1/2-x,-y,z
1/2+x,-y,1/2-z
1/2-x,1/2+y,1/2-z
1/2-x,1/2-y,-z
1/2+x,y,-z
1/2-x,y,1/2+z
1/2+x,1/2-y,1/2+z
loop_
_atom_site_type_symbol
_atom_site_label
_atom_site_fract_x
_atom_site_fract_y
_atom_site_fract_z
Si Si1 0.141229 0.864045 0.412108
Si Si2 0.395266 0.338949 0.328208
Si Si3 0.000000 0.750000 0.025366
Si Si4 0.500000 0.250000 0.867352
Si Si5 0.000000 0.050931 0.750000
Si Si6 0.750000 0.500000 0.972040
O O1 0.315572 0.794755 0.397064
O O2 0.270155 0.929101 0.439222
O O3 0.001166 0.882045 0.369273
O O4 0.966383 0.824942 0.445653
O O5 0.500000 0.250000 0.323791
O O6 0.449350 0.392408 0.289145
O O7 0.115892 0.317169 0.338581
O O8 0.750000 0.750000 0.000000
O O9 0.750000 0.000000 0.744121
O O10 0.500000 0.500000 0.000000
#
# Coordination Sequence:
#
# PCOD9508295 Si02
#       6
#    16  16   8   8   8   8
#     4  11  24  44  70 105 140 194 246 295 376 426
#     4  10  24  47  77 108 143 194 244 307 365 443
#     4  12  23  38  68  98 140 181 245 306 342 419
#     4  10  21  44  83 105 138 196 249 306 358 434
#     4  12  31  50  75 118 152 192 240 296 379 454
#     4  12  30  46  64 102 150 196 240 304 374 434
#
# _framework density 21.192211
#
# number of rings (size 3 to 8) (size 9 to 14) (size 15 to 20)
#    0.000    1.000    3.750    2.625   12.250    0.000 
#    0.000    0.000    0.000    0.000    0.000    0.000 
#    0.000    0.000    0.000    0.000    0.000    0.000 
#
# Total GULP energy -178381.948395 kJ/mol
# GULP energy per Si atom -5574.435887 kJ/mol
# Density = 2.114398 g / cm^3
# Si number density = 21.192211 Si / 1000 Ang^3
#
#
#
# Elastic Constant Matrix: (Units=GPa)
#
#
# Indices 1 2 3 4 5 6 
#
# 1 120.7353 36.6884 76.2726 0.0000 0.0000 0.0000
# 2 36.6884 92.7654 78.3706 0.0000 0.0000 0.0000
# 3 76.2726 78.3706 203.8870 0.0000 0.0000 0.0000
# 4 0.0000 0.0000 0.0000 31.8777 0.0000 0.0000
# 5 0.0000 0.0000 0.0000 0.0000 24.0939 0.0000
# 6 0.0000 0.0000 0.0000 0.0000 0.0000 25.8596
#
#
#
# Elastic Compliance Matrix: (Units=1/GPa)
#
#
# Indices 1 2 3 4 5 6 
#
# 1 0.010949 -0.001288 -0.003601 0.000000 0.000000 0.000000
# 2 -0.001288 0.016116 -0.005713 0.000000 0.000000 0.000000
# 3 -0.003601 -0.005713 0.008447 0.000000 0.000000 0.000000
# 4 0.000000 0.000000 0.000000 0.031370 0.000000 0.000000
# 5 0.000000 0.000000 0.000000 0.000000 0.041504 0.000000
# 6 0.000000 0.000000 0.000000 0.000000 0.000000 0.038670
#
#
# Mechanical properties :
#
#
# Convention : Reuss Voigt Hill
#
# Bulk Modulus (GPa) = 69.88755 88.89455 79.39105
# Shear Modulus (GPa) = 28.89692 31.43665 30.16679
#
# Velocity S-wave (km/s) = 3.69665 3.85568 3.77700
# Velocity P-wave (km/s) = 7.16030 7.86508 7.52095
#
# Compressibility (1/GPa) = 0.01430870
#
# Stress axis : x y z
#
# Youngs Moduli (GPa) = 91.33505 62.05194 118.37853
#
# Poissons Ratio (x) = 0.07994 0.42624
# Poissons Ratio (y) = 0.11766 0.67625
# Poissons Ratio (z) = 0.32886 0.35448
#
# Static dielectric constant tensor:
#      x y z
#    x 1.947210 0.000000 0.000000 
#    y 0.000000 1.823910 0.000000 
#    z 0.000000 0.000000 1.753690 
# 
# From -- ./inp_files/52975.got.cif
#   From: 2010.05.17/outbox.cif.g08.bks.cpg/sg68_27_cif.got.tgz:52975.got - 2010.06.03 18:57:09.
