data_PCOD9508076
_publ_section_title
;
Structure prediction by ZEFSAII (Michael W. Deem and Ramdas Pophale) SiO2 
 PCOD9508076
Probable space group: C C C A
;
_chemical_formula_sum "Si O2"
_cell_formula_units_Z 108
_cell_length_a 5.269953
_cell_length_b 29.753221
_cell_length_c 32.600356
_cell_angle_alpha 90.000000
_cell_angle_beta 90.000000
_cell_angle_gamma 90.000000
_cell_volume 5111.673106
_symmetry_space_group_name_H-M "C C C A"
_symmetry_group_IT_number 68
_space_group.IT_coordinate_system_code '2'
_symmetry_cell_setting 'orthorhombic'
loop_
_space_group_symop_operation_xyz
x,y,z
-x,1/2-y,z
x,1/2-y,1/2-z
-x,y,1/2-z
-x,-y,-z
x,1/2+y,-z
-x,1/2+y,1/2+z
x,-y,1/2+z
1/2+x,1/2+y,z
1/2-x,-y,z
1/2+x,-y,1/2-z
1/2-x,1/2+y,1/2-z
1/2-x,1/2-y,-z
1/2+x,y,-z
1/2-x,y,1/2+z
1/2+x,1/2-y,1/2+z
loop_
_atom_site_type_symbol
_atom_site_label
_atom_site_fract_x
_atom_site_fract_y
_atom_site_fract_z
Si Si1 0.490840 0.884061 0.590818
Si Si2 0.383365 0.542230 0.292626
Si Si3 0.498006 0.802206 0.972351
Si Si4 0.782196 0.445949 0.977798
Si Si5 0.833216 0.177802 0.209812
Si Si6 0.986263 0.884174 0.645261
Si Si7 0.000000 0.250000 0.750000
Si Si8 0.500000 0.109071 0.250000
O O1 0.471089 0.839592 0.562559
O O2 0.584407 0.925337 0.562111
O O3 0.230836 0.890700 0.616153
O O4 0.728334 0.878350 0.620675
O O5 0.500000 0.523566 0.250000
O O6 0.250000 0.500000 0.313705
O O7 0.538646 0.572175 0.324774
O O8 0.193935 0.578308 0.273735
O O9 0.500000 0.750000 0.957675
O O10 0.731342 0.808279 0.003998
O O11 0.750000 0.500000 0.975865
O O12 0.491960 0.431404 0.987635
O O13 0.685880 0.223588 0.218792
O O14 0.618009 0.140412 0.215334
O O15 0.000000 0.171468 0.250000
O O16 0.001617 0.162115 0.171805
#
# Coordination Sequence:
#
# PCOD9508076 Si02
#       8
#    16  16  16  16  16  16   4   8
#     4  12  25  41  65  97 138 175 207 261 344 406
#     4  12  24  39  66  92 121 176 239 285 326 395
#     4  10  21  42  72  98 125 164 218 267 310 386
#     4  10  21  40  68  96 128 173 226 268 306 380
#     4  11  22  43  67  89 124 171 230 283 331 402
#     4  12  26  42  64  94 141 175 206 275 346 399
#     4  10  26  40  72  94 112 168 250 284 322 406
#     4  11  18  39  66  86 120 156 230 291 330 375
#
# _framework density 21.12811
#
# number of rings (size 3 to 8) (size 9 to 14) (size 15 to 20)
#    0.000    0.889    3.704    3.778    2.074    1.185 
#    1.333    0.000    0.000    0.000    0.000    0.000 
#    0.000    0.000    0.000    0.000    0.000    0.000 
#
# Total GULP energy -301207.468348 kJ/mol
# GULP energy per Si atom -5577.916081 kJ/mol
# Density = 2.108002 g / cm^3
# Si number density = 21.128110 Si / 1000 Ang^3
#
#
#
# Elastic Constant Matrix: (Units=GPa)
#
#
# Indices 1 2 3 4 5 6 
#
# 1 91.2145 21.1242 26.1366 0.0000 0.0000 0.0000
# 2 21.1242 83.2288 27.7615 0.0000 0.0000 0.0000
# 3 26.1366 27.7615 80.4596 0.0000 0.0000 0.0000
# 4 0.0000 0.0000 0.0000 22.5541 0.0000 0.0000
# 5 0.0000 0.0000 0.0000 0.0000 40.3368 0.0000
# 6 0.0000 0.0000 0.0000 0.0000 0.0000 30.8988
#
#
#
# Elastic Compliance Matrix: (Units=1/GPa)
#
#
# Indices 1 2 3 4 5 6 
#
# 1 0.012386 -0.002036 -0.003321 0.000000 0.000000 0.000000
# 2 -0.002036 0.013912 -0.004139 0.000000 0.000000 0.000000
# 3 -0.003321 -0.004139 0.014936 0.000000 0.000000 0.000000
# 4 0.000000 0.000000 0.000000 0.044338 0.000000 0.000000
# 5 0.000000 0.000000 0.000000 0.000000 0.024791 0.000000
# 6 0.000000 0.000000 0.000000 0.000000 0.000000 0.032364
#
#
# Mechanical properties :
#
#
# Convention : Reuss Voigt Hill
#
# Bulk Modulus (GPa) = 44.95957 44.99419 44.97688
# Shear Modulus (GPa) = 29.56251 30.74997 30.15624
#
# Velocity S-wave (km/s) = 3.74465 3.81912 3.78207
# Velocity P-wave (km/s) = 6.32631 6.38668 6.35657
#
# Compressibility (1/GPa) = 0.02224221
#
# Stress axis : x y z
#
# Youngs Moduli (GPa) = 80.73434 71.87841 66.95456
#
# Poissons Ratio (x) = 0.14634 0.22236
# Poissons Ratio (y) = 0.16437 0.27712
# Poissons Ratio (z) = 0.26813 0.29750
#
# Static dielectric constant tensor:
#      x y z
#    x 1.755440 0.000000 0.000000 
#    y 0.000000 1.663990 0.000000 
#    z 0.000000 0.000000 1.836220 
# 
# From -- ./inp_files/53535.got.cif
#   From: 2010.05.17/outbox.cif.g08.bks.cpg/sg68_27_cif.got.tgz:53535.got - 2010.06.03 18:57:09.
