data_PCOD9508987
_publ_section_title
;
Structure prediction by ZEFSAII (Michael W. Deem and Ramdas Pophale) SiO2 
 PCOD9508987
Probable space group: C C C A
;
_chemical_formula_sum "Si O2"
_cell_formula_units_Z 76
_cell_length_a 24.123511
_cell_length_b 5.254602
_cell_length_c 26.690629
_cell_angle_alpha 90.000000
_cell_angle_beta 90.000000
_cell_angle_gamma 90.000000
_cell_volume 3383.289429
_symmetry_space_group_name_H-M "C C C A"
_symmetry_group_IT_number 68
_space_group.IT_coordinate_system_code '2'
_symmetry_cell_setting 'orthorhombic'
loop_
_space_group_symop_operation_xyz
x,y,z
-x,1/2-y,z
x,1/2-y,1/2-z
-x,y,1/2-z
-x,-y,-z
x,1/2+y,-z
-x,1/2+y,1/2+z
x,-y,1/2+z
1/2+x,1/2+y,z
1/2-x,-y,z
1/2+x,-y,1/2-z
1/2-x,1/2+y,1/2-z
1/2-x,1/2-y,-z
1/2+x,y,-z
1/2-x,y,1/2+z
1/2+x,1/2-y,1/2+z
loop_
_atom_site_type_symbol
_atom_site_label
_atom_site_fract_x
_atom_site_fract_y
_atom_site_fract_z
Si Si1 0.000000 0.250000 0.250000
Si Si2 0.500000 0.750000 0.885937
Si Si3 0.690067 0.056983 0.075346
Si Si4 0.191372 0.060504 0.140941
Si Si5 0.432103 0.468619 0.531918
Si Si6 0.585017 0.102262 0.302040
O O1 0.960408 0.402673 0.214421
O O2 0.525129 0.536662 0.923513
O O3 0.446948 0.727551 0.848867
O O4 0.690695 0.845666 0.119659
O O5 0.632639 0.001038 0.047507
O O6 0.750000 0.000000 0.049167
O O7 0.688158 0.345463 0.096691
O O8 0.250000 0.000000 0.166147
O O9 0.140765 0.015986 0.177439
O O10 0.439602 0.689135 0.490472
O O11 0.595323 0.250000 0.250000
#
# Coordination Sequence:
#
# PCOD9508987 Si02
#       6
#     4   8  16  16  16  16
#     4  12  26  40  70 106 140 174 250 282 330 436
#     4  12  25  48  71  94 150 189 219 306 344 420
#     4  10  22  44  73 102 138 186 233 286 355 413
#     4  10  23  45  73 104 140 186 232 285 354 415
#     4  12  27  45  69 108 137 183 241 286 351 420
#     4  12  26  47  70 108 138 187 242 283 354 421
#
# _framework density 22.463346000000001
#
# number of rings (size 3 to 8) (size 9 to 14) (size 15 to 20)
#    0.000    0.842    4.211    1.895    5.895    0.842 
#    1.895    0.000    0.000    0.000    0.000    0.000 
#    0.000    0.000    0.000    0.000    0.000    0.000 
#
# Total GULP energy -212230.176458 kJ/mol
# GULP energy per Si atom -5585.004644 kJ/mol
# Density = 2.241222 g / cm^3
# Si number density = 22.463346 Si / 1000 Ang^3
#
#
#
# Elastic Constant Matrix: (Units=GPa)
#
#
# Indices 1 2 3 4 5 6 
#
# 1 159.6509 2.4845 44.5796 0.0000 0.0000 0.0000
# 2 2.4845 78.7052 23.8175 0.0000 0.0000 0.0000
# 3 44.5796 23.8175 85.5056 0.0000 0.0000 0.0000
# 4 0.0000 0.0000 0.0000 13.2880 0.0000 0.0000
# 5 0.0000 0.0000 0.0000 0.0000 54.2730 0.0000
# 6 0.0000 0.0000 0.0000 0.0000 0.0000 37.0276
#
#
#
# Elastic Compliance Matrix: (Units=1/GPa)
#
#
# Indices 1 2 3 4 5 6 
#
# 1 0.007405 0.001021 -0.004145 0.000000 0.000000 0.000000
# 2 0.001021 0.014016 -0.004436 0.000000 0.000000 0.000000
# 3 -0.004145 -0.004436 0.015092 0.000000 0.000000 0.000000
# 4 0.000000 0.000000 0.000000 0.075256 0.000000 0.000000
# 5 0.000000 0.000000 0.000000 0.000000 0.018425 0.000000
# 6 0.000000 0.000000 0.000000 0.000000 0.000000 0.027007
#
#
# Mechanical properties :
#
#
# Convention : Reuss Voigt Hill
#
# Bulk Modulus (GPa) = 46.74723 51.73609 49.24166
# Shear Modulus (GPa) = 27.86243 37.78305 32.82274
#
# Velocity S-wave (km/s) = 3.52568 4.10565 3.82667
# Velocity P-wave (km/s) = 6.11797 6.74956 6.44151
#
# Compressibility (1/GPa) = 0.02139164
#
# Stress axis : x y z
#
# Youngs Moduli (GPa) = 135.03967 71.34752 66.26040
#
# Poissons Ratio (x) = -0.07282 0.27466
# Poissons Ratio (y) = -0.13782 0.29395
# Poissons Ratio (z) = 0.55976 0.31651
#
# Static dielectric constant tensor:
#      x y z
#    x 1.863160 0.000000 0.000000 
#    y 0.000000 1.855190 0.000000 
#    z 0.000000 0.000000 1.882850 
# 
# From -- ./inp_files/55925.got.cif
#   From: 2010.05.17/outbox.cif.g08.bks.cpg/sg68_28_cif.got.tgz:55925.got - 2010.06.03 18:57:09.
