data_PCOD9508163
_publ_section_title
;
Structure prediction by ZEFSAII (Michael W. Deem and Ramdas Pophale) SiO2 
 PCOD9508163
Probable space group: C C C A
;
_chemical_formula_sum "Si O2"
_cell_formula_units_Z 116
_cell_length_a 23.179902
_cell_length_b 26.746503
_cell_length_c 8.309719
_cell_angle_alpha 90.000000
_cell_angle_beta 90.000000
_cell_angle_gamma 90.000000
_cell_volume 5151.870541
_symmetry_space_group_name_H-M "C C C A"
_symmetry_group_IT_number 68
_space_group.IT_coordinate_system_code '2'
_symmetry_cell_setting 'orthorhombic'
loop_
_space_group_symop_operation_xyz
x,y,z
-x,1/2-y,z
x,1/2-y,1/2-z
-x,y,1/2-z
-x,-y,-z
x,1/2+y,-z
-x,1/2+y,1/2+z
x,-y,1/2+z
1/2+x,1/2+y,z
1/2-x,-y,z
1/2+x,-y,1/2-z
1/2-x,1/2+y,1/2-z
1/2-x,1/2-y,-z
1/2+x,y,-z
1/2-x,y,1/2+z
1/2+x,1/2-y,1/2+z
loop_
_atom_site_type_symbol
_atom_site_label
_atom_site_fract_x
_atom_site_fract_y
_atom_site_fract_z
Si Si1 0.332202 0.365935 0.231394
Si Si2 0.500000 0.750000 0.750000
Si Si3 0.302336 0.038742 0.799740
Si Si4 0.362491 0.459445 0.035483
Si Si5 0.775641 0.149380 0.076875
Si Si6 0.618055 0.690694 0.261236
Si Si7 0.441641 0.838417 0.589573
Si Si8 0.960144 0.110161 0.410392
O O1 0.292596 0.340361 0.095259
O O2 0.297587 0.352624 0.394214
O O3 0.397218 0.351311 0.270326
O O4 0.340180 0.423277 0.177843
O O5 0.463681 0.784463 0.634969
O O6 0.319214 0.043489 0.614506
O O7 0.286106 0.092786 0.863175
O O8 0.250000 0.000000 0.819218
O O9 0.356920 0.015306 0.895652
O O10 0.422223 0.437050 0.967778
O O11 0.814266 0.182913 0.197428
O O12 0.605285 0.750000 0.250000
O O13 0.591630 0.666943 0.423094
O O14 0.585721 0.655715 0.128307
O O15 0.495519 0.873754 0.550483
O O16 0.000000 0.102018 0.250000
#
# Coordination Sequence:
#
# PCOD9508163 Si02
#       8
#    16   4  16  16  16  16  16  16
#     4  11  24  42  66  99 137 185 223 286 357 410
#     4  12  20  40  62 100 132 176 252 294 338 408
#     4  12  24  40  68 107 133 178 231 285 347 420
#     4  12  24  41  71 100 138 178 231 290 346 419
#     4  11  23  43  66 102 146 178 230 289 352 427
#     4  10  21  41  70 104 138 183 234 290 359 421
#     4  10  23  40  67  97 137 180 238 293 340 419
#     4  10  22  44  72  99 141 186 233 289 351 413
#
# _framework density 22.516095
#
# number of rings (size 3 to 8) (size 9 to 14) (size 15 to 20)
#    0.000    1.103    2.759    3.724    0.000    1.931 
#    1.241    2.069    0.000    0.000    0.000    0.000 
#    0.000    0.000    0.000    0.000    0.000    0.000 
#
# Total GULP energy -323839.517534 kJ/mol
# GULP energy per Si atom -5583.439957 kJ/mol
# Density = 2.246485 g / cm^3
# Si number density = 22.516095 Si / 1000 Ang^3
#
#
#
# Elastic Constant Matrix: (Units=GPa)
#
#
# Indices 1 2 3 4 5 6 
#
# 1 125.7872 26.1580 36.8351 0.0000 0.0000 0.0000
# 2 26.1580 56.1010 2.6756 0.0000 0.0000 0.0000
# 3 36.8351 2.6756 80.9746 0.0000 0.0000 0.0000
# 4 0.0000 0.0000 0.0000 32.4067 0.0000 0.0000
# 5 0.0000 0.0000 0.0000 0.0000 109.6112 0.0000
# 6 0.0000 0.0000 0.0000 0.0000 0.0000 35.9454
#
#
#
# Elastic Compliance Matrix: (Units=1/GPa)
#
#
# Indices 1 2 3 4 5 6 
#
# 1 0.010212 -0.004547 -0.004495 0.000000 0.000000 0.000000
# 2 -0.004547 0.019878 0.001412 0.000000 0.000000 0.000000
# 3 -0.004495 0.001412 0.014348 0.000000 0.000000 0.000000
# 4 0.000000 0.000000 0.000000 0.030858 0.000000 0.000000
# 5 0.000000 0.000000 0.000000 0.000000 0.009123 0.000000
# 6 0.000000 0.000000 0.000000 0.000000 0.000000 0.027820
#
#
# Mechanical properties :
#
#
# Convention : Reuss Voigt Hill
#
# Bulk Modulus (GPa) = 34.27437 43.80002 39.03720
# Shear Modulus (GPa) = 36.43658 48.73894 42.58776
#
# Velocity S-wave (km/s) = 4.02711 4.65760 4.35378
# Velocity P-wave (km/s) = 6.07278 6.95840 6.53062
#
# Compressibility (1/GPa) = 0.02917632
#
# Stress axis : x y z
#
# Youngs Moduli (GPa) = 97.92557 50.30735 69.69758
#
# Poissons Ratio (x) = 0.22875 0.31330
# Poissons Ratio (y) = 0.44527 -0.09839
# Poissons Ratio (z) = 0.44018 -0.07101
#
# Static dielectric constant tensor:
#      x y z
#    x 1.923590 0.000000 0.000000 
#    y 0.000000 1.867620 0.000000 
#    z 0.000000 0.000000 1.705000 
# 
# From -- ./inp_files/8439.got.cif
#   From: 2010.05.17/outbox.cif.g08.bks.cpg/sg68_5_cif.got.tgz:8439.got - 2010.06.03 18:57:09.
