data_PCOD9508667
_publ_section_title
;
Structure prediction by ZEFSAII (Michael W. Deem and Ramdas Pophale) SiO2 
 PCOD9508667
Probable space group: C C C A
;
_chemical_formula_sum "Si O2"
_cell_formula_units_Z 56
_cell_length_a 14.214092
_cell_length_b 5.735445
_cell_length_c 27.955553
_cell_angle_alpha 90.000000
_cell_angle_beta 90.000000
_cell_angle_gamma 90.000000
_cell_volume 2279.052497
_symmetry_space_group_name_H-M "C C C A"
_symmetry_group_IT_number 68
_space_group.IT_coordinate_system_code '2'
_symmetry_cell_setting 'orthorhombic'
loop_
_space_group_symop_operation_xyz
x,y,z
-x,1/2-y,z
x,1/2-y,1/2-z
-x,y,1/2-z
-x,-y,-z
x,1/2+y,-z
-x,1/2+y,1/2+z
x,-y,1/2+z
1/2+x,1/2+y,z
1/2-x,-y,z
1/2+x,-y,1/2-z
1/2-x,1/2+y,1/2-z
1/2-x,1/2-y,-z
1/2+x,y,-z
1/2-x,y,1/2+z
1/2+x,1/2-y,1/2+z
loop_
_atom_site_type_symbol
_atom_site_label
_atom_site_fract_x
_atom_site_fract_y
_atom_site_fract_z
Si Si1 0.892403 0.546543 0.017538
Si Si2 0.396207 0.140594 0.616147
Si Si3 0.889051 0.203246 0.805354
Si Si4 0.750000 0.000000 0.630342
O O1 0.893492 0.555614 0.075328
O O2 0.853166 0.292496 0.001423
O O3 0.000000 0.500000 0.000000
O O4 0.500000 0.250000 0.615077
O O5 0.314524 0.319577 0.602477
O O6 0.374601 0.047415 0.669534
O O7 0.867530 0.250000 0.750000
O O8 0.825121 0.371695 0.836205
O O9 0.000000 0.250000 0.811933
#
# Coordination Sequence:
#
# PCOD9508667 Si02
#       4
#    16  16  16   8
#     4  10  22  40  76 112 153 211 261 323 404 465
#     4  12  25  47  77 109 157 206 261 327 400 472
#     4  11  27  49  76 109 152 201 259 325 399 475
#     4  12  28  46  78 108 152 200 258 324 394 470
#
# _framework density 24.571614
#
# number of rings (size 3 to 8) (size 9 to 14) (size 15 to 20)
#    0.000    0.857    5.714    0.857   12.000    0.000 
#    0.000    1.429    0.000    0.000    0.000    0.000 
#    0.000    0.000    0.000    0.000    0.000    0.000 
#
# Total GULP energy -156566.499048 kJ/mol
# GULP energy per Si atom -5591.660680 kJ/mol
# Density = 2.451569 g / cm^3
# Si number density = 24.571614 Si / 1000 Ang^3
#
#
#
# Elastic Constant Matrix: (Units=GPa)
#
#
# Indices 1 2 3 4 5 6 
#
# 1 84.2475 8.9332 38.2261 0.0000 0.0000 0.0000
# 2 8.9332 122.9534 46.3439 0.0000 0.0000 0.0000
# 3 38.2261 46.3439 140.0662 0.0000 0.0000 0.0000
# 4 0.0000 0.0000 0.0000 1.8056 0.0000 0.0000
# 5 0.0000 0.0000 0.0000 0.0000 -13.6882 0.0000
# 6 0.0000 0.0000 0.0000 0.0000 0.0000 37.8756
#
#
#
# Elastic Compliance Matrix: (Units=1/GPa)
#
#
# Indices 1 2 3 4 5 6 
#
# 1 0.013571 0.000468 -0.003859 0.000000 0.000000 0.000000
# 2 0.000468 0.009308 -0.003208 0.000000 0.000000 0.000000
# 3 -0.003859 -0.003208 0.009254 0.000000 0.000000 0.000000
# 4 0.000000 0.000000 0.000000 0.553844 0.000000 0.000000
# 5 0.000000 0.000000 0.000000 0.000000 -0.073055 0.000000
# 6 0.000000 0.000000 0.000000 0.000000 0.000000 0.026402
#
#
# Mechanical properties :
#
#
# Convention : Reuss Voigt Hill
#
# Bulk Modulus (GPa) = 52.80618 59.36373 56.08496
# Shear Modulus (GPa) = 8.94724 22.11619 15.53171
#
# Velocity S-wave (km/s) = 1.91029 3.00337 2.51689
# Velocity P-wave (km/s) = 5.13838 6.01988 5.59651
#
# Compressibility (1/GPa) = 0.01893718
#
# Stress axis : x y z
#
# Youngs Moduli (GPa) = 73.68680 107.43261 108.06261
#
# Poissons Ratio (x) = -0.05033 0.41698
# Poissons Ratio (y) = -0.03452 0.34663
# Poissons Ratio (z) = 0.28434 0.34461
#
# Static dielectric constant tensor:
#      x y z
#    x 1.918060 0.000000 0.000000 
#    y 0.000000 2.044820 0.000000 
#    z 0.000000 0.000000 1.885780 
# 
# From -- ./inp_files/55032.got.cif
#   From: 2010.05.17/outbox.cif.g08.bks.cpg/sg68_28_cif.got.tgz:55032.got - 2010.06.03 18:57:09.
