data_PCOD9508602
_publ_section_title
;
Structure prediction by ZEFSAII (Michael W. Deem and Ramdas Pophale) SiO2 
 PCOD9508602
Probable space group: C C C A
;
_chemical_formula_sum "Si O2"
_cell_formula_units_Z 88
_cell_length_a 22.234261
_cell_length_b 17.425364
_cell_length_c 10.686160
_cell_angle_alpha 90.000000
_cell_angle_beta 90.000000
_cell_angle_gamma 90.000000
_cell_volume 4140.246805
_symmetry_space_group_name_H-M "C C C A"
_symmetry_group_IT_number 68
_space_group.IT_coordinate_system_code '2'
_symmetry_cell_setting 'orthorhombic'
loop_
_space_group_symop_operation_xyz
x,y,z
-x,1/2-y,z
x,1/2-y,1/2-z
-x,y,1/2-z
-x,-y,-z
x,1/2+y,-z
-x,1/2+y,1/2+z
x,-y,1/2+z
1/2+x,1/2+y,z
1/2-x,-y,z
1/2+x,-y,1/2-z
1/2-x,1/2+y,1/2-z
1/2-x,1/2-y,-z
1/2+x,y,-z
1/2-x,y,1/2+z
1/2+x,1/2-y,1/2+z
loop_
_atom_site_type_symbol
_atom_site_label
_atom_site_fract_x
_atom_site_fract_y
_atom_site_fract_z
Si Si1 0.038508 0.517743 0.876986
Si Si2 0.543151 0.191908 0.872929
Si Si3 0.715944 0.653091 0.871519
Si Si4 0.250000 0.000000 0.510568
Si Si5 0.836058 0.725952 0.929794
Si Si6 0.648063 0.098560 0.366112
O O1 0.059937 0.604815 0.904716
O O2 0.089722 0.454297 0.854842
O O3 0.000000 0.517322 0.750000
O O4 0.000000 0.500000 0.000000
O O5 0.500000 0.250000 0.952758
O O6 0.500000 0.180730 0.750000
O O7 0.605923 0.236106 0.869193
O O8 0.782986 0.687543 0.846388
O O9 0.671772 0.646437 0.753456
O O10 0.722927 0.567490 0.925539
O O11 0.691539 0.708553 0.980179
O O12 0.201029 0.040369 0.596834
O O13 0.858340 0.657166 0.019145
#
# Coordination Sequence:
#
# PCOD9508602 Si02
#       6
#    16  16  16   8  16  16
#     4  11  26  45  73 105 143 193 245 305 366 438
#     4  10  22  45  65 101 131 185 239 288 359 430
#     4  10  22  42  66 103 136 186 223 296 367 427
#     4  10  22  40  64  98 140 178 230 290 354 426
#     4  10  22  43  68  96 147 173 240 294 358 443
#     4  11  23  42  68 102 137 185 239 291 363 436
#
# _framework density 21.254771000000002
#
# number of rings (size 3 to 8) (size 9 to 14) (size 15 to 20)
#    0.000    1.636    0.000    3.273    5.091    0.000 
#   36.000    0.000    0.000    0.000    0.000    0.000 
#    0.000    0.000    0.000    0.000    0.000    0.000 
#
# Total GULP energy -245404.402588 kJ/mol
# GULP energy per Si atom -5577.372786 kJ/mol
# Density = 2.120639 g / cm^3
# Si number density = 21.254771 Si / 1000 Ang^3
#
#
#
# Elastic Constant Matrix: (Units=GPa)
#
#
# Indices 1 2 3 4 5 6 
#
# 1 131.8704 60.1675 49.4332 0.0000 0.0000 0.0000
# 2 60.1675 169.2005 41.2582 0.0000 0.0000 0.0000
# 3 49.4332 41.2582 88.2588 0.0000 0.0000 0.0000
# 4 0.0000 0.0000 0.0000 1.1818 0.0000 0.0000
# 5 0.0000 0.0000 0.0000 0.0000 7.4056 0.0000
# 6 0.0000 0.0000 0.0000 0.0000 0.0000 44.4503
#
#
#
# Elastic Compliance Matrix: (Units=1/GPa)
#
#
# Indices 1 2 3 4 5 6 
#
# 1 0.010524 -0.002602 -0.004678 0.000000 0.000000 0.000000
# 2 -0.002602 0.007314 -0.001962 0.000000 0.000000 0.000000
# 3 -0.004678 -0.001962 0.014868 0.000000 0.000000 0.000000
# 4 0.000000 0.000000 0.000000 0.846131 0.000000 0.000000
# 5 0.000000 0.000000 0.000000 0.000000 0.135033 0.000000
# 6 0.000000 0.000000 0.000000 0.000000 0.000000 0.022497
#
#
# Mechanical properties :
#
#
# Convention : Reuss Voigt Hill
#
# Bulk Modulus (GPa) = 70.31337 76.78306 73.54822
# Shear Modulus (GPa) = 4.71881 26.50561 15.61221
#
# Velocity S-wave (km/s) = 1.49162 3.53518 2.71316
# Velocity P-wave (km/s) = 6.00996 7.27096 6.67032
#
# Compressibility (1/GPa) = 0.01422205
#
# Stress axis : x y z
#
# Youngs Moduli (GPa) = 95.02210 136.73122 67.26018
#
# Poissons Ratio (x) = 0.35571 0.31466
# Poissons Ratio (y) = 0.24720 0.13195
# Poissons Ratio (z) = 0.44453 0.26824
#
# Static dielectric constant tensor:
#      x y z
#    x 1.781330 0.000000 0.000000 
#    y 0.000000 1.831400 0.000000 
#    z 0.000000 0.000000 1.870700 
# 
# From -- ./inp_files/15424.got.cif
#   From: 2010.05.17/outbox.cif.g08.bks.cpg/sg68_8_cif.got.tgz:15424.got - 2010.06.03 18:57:09.
