data_PCOD9508229
_publ_section_title
;
Structure prediction by ZEFSAII (Michael W. Deem and Ramdas Pophale) SiO2 
 PCOD9508229
Probable space group: C C C A
;
_chemical_formula_sum "Si O2"
_cell_formula_units_Z 116
_cell_length_a 11.885100
_cell_length_b 22.574197
_cell_length_c 19.117418
_cell_angle_alpha 90.000000
_cell_angle_beta 90.000000
_cell_angle_gamma 90.000000
_cell_volume 5129.138035
_symmetry_space_group_name_H-M "C C C A"
_symmetry_group_IT_number 68
_space_group.IT_coordinate_system_code '2'
_symmetry_cell_setting 'orthorhombic'
loop_
_space_group_symop_operation_xyz
x,y,z
-x,1/2-y,z
x,1/2-y,1/2-z
-x,y,1/2-z
-x,-y,-z
x,1/2+y,-z
-x,1/2+y,1/2+z
x,-y,1/2+z
1/2+x,1/2+y,z
1/2-x,-y,z
1/2+x,-y,1/2-z
1/2-x,1/2+y,1/2-z
1/2-x,1/2-y,-z
1/2+x,y,-z
1/2-x,y,1/2+z
1/2+x,1/2-y,1/2+z
loop_
_atom_site_type_symbol
_atom_site_label
_atom_site_fract_x
_atom_site_fract_y
_atom_site_fract_z
Si Si1 0.475957 0.814563 0.941827
Si Si2 0.000051 0.514449 0.083166
Si Si3 0.500000 0.250000 0.750000
Si Si4 0.660264 0.444179 0.825696
Si Si5 0.801708 0.601381 0.445790
Si Si6 0.813125 0.098258 0.916589
Si Si7 0.105902 0.314943 0.717094
Si Si8 0.831883 0.144887 0.290291
O O1 0.500000 0.750000 0.970145
O O2 0.368722 0.843589 0.979112
O O3 0.591240 0.852405 0.937120
O O4 0.423276 0.809326 0.863793
O O5 0.049353 0.464692 0.132780
O O6 0.095516 0.564676 0.085549
O O7 0.885704 0.543023 0.111278
O O8 0.000000 0.500000 0.000000
O O9 0.583347 0.298072 0.710493
O O10 0.750000 0.500000 0.817564
O O11 0.715427 0.397917 0.881893
O O12 0.628683 0.412195 0.753938
O O13 0.739865 0.574244 0.511764
O O14 0.721285 0.125013 0.864262
O O15 0.106991 0.250000 0.750000
O O16 0.222105 0.339513 0.743737
O O17 0.000000 0.349757 0.750000
#
# Coordination Sequence:
#
# PCOD9508229 Si02
#       8
#    16  16   4  16  16  16  16  16
#     4  11  21  37  64 102 129 172 245 304 350 417
#     4  10  21  42  73  99 134 183 241 289 360 439
#     4  12  32  52  66 100 156 216 224 290 396 460
#     4  10  22  43  70 102 141 185 231 313 368 423
#     4  10  22  40  64  99 137 179 229 288 371 422
#     4  11  24  42  70 101 137 190 242 294 352 449
#     4  11  18  34  71  98 122 174 240 298 348 413
#     4  12  25  48  70 101 150 191 249 295 371 453
#
# _framework density 22.615886
#
# number of rings (size 3 to 8) (size 9 to 14) (size 15 to 20)
#    0.000    1.241    6.207    0.000    0.000    1.655 
#    6.207    0.000    0.000    0.000    0.000    0.000 
#    0.000    0.000    0.000    0.000    0.000    0.000 
#
# Total GULP energy -323167.040247 kJ/mol
# GULP energy per Si atom -5571.845521 kJ/mol
# Density = 2.256441 g / cm^3
# Si number density = 22.615886 Si / 1000 Ang^3
#
#
#
# Elastic Constant Matrix: (Units=GPa)
#
#
# Indices 1 2 3 4 5 6 
#
# 1 111.9924 31.8888 32.7459 0.0000 0.0000 0.0000
# 2 31.8888 74.4823 21.4466 0.0000 0.0000 0.0000
# 3 32.7459 21.4466 83.3622 0.0000 0.0000 0.0000
# 4 0.0000 0.0000 0.0000 14.6262 0.0000 0.0000
# 5 0.0000 0.0000 0.0000 0.0000 31.1397 0.0000
# 6 0.0000 0.0000 0.0000 0.0000 0.0000 10.2029
#
#
#
# Elastic Compliance Matrix: (Units=1/GPa)
#
#
# Indices 1 2 3 4 5 6 
#
# 1 0.010971 -0.003733 -0.003349 0.000000 0.000000 0.000000
# 2 -0.003733 0.015770 -0.002591 0.000000 0.000000 0.000000
# 3 -0.003349 -0.002591 0.013978 0.000000 0.000000 0.000000
# 4 0.000000 0.000000 0.000000 0.068371 0.000000 0.000000
# 5 0.000000 0.000000 0.000000 0.000000 0.032113 0.000000
# 6 0.000000 0.000000 0.000000 0.000000 0.000000 0.098011
#
#
# Mechanical properties :
#
#
# Convention : Reuss Voigt Hill
#
# Bulk Modulus (GPa) = 46.78698 49.11106 47.94902
# Shear Modulus (GPa) = 18.81923 23.44413 21.13168
#
# Velocity S-wave (km/s) = 2.88779 3.22315 3.06007
# Velocity P-wave (km/s) = 5.64373 5.96775 5.80800
#
# Compressibility (1/GPa) = 0.02137347
#
# Stress axis : x y z
#
# Youngs Moduli (GPa) = 91.14593 63.41062 71.54057
#
# Poissons Ratio (x) = 0.23670 0.23962
# Poissons Ratio (y) = 0.34024 0.18535
# Poissons Ratio (z) = 0.30528 0.16429
#
# Static dielectric constant tensor:
#      x y z
#    x 2.021950 0.000000 0.000000 
#    y 0.000000 2.024530 0.000000 
#    z 0.000000 0.000000 1.836270 
# 
# From -- ./inp_files/30036.got.cif
#   From: 2010.05.17/outbox.cif.g08.bks.cpg/sg68_16_cif.got.tgz:30036.got - 2010.06.03 18:57:09.
