data_PCOD9508158
_publ_section_title
;
Structure prediction by ZEFSAII (Michael W. Deem and Ramdas Pophale) SiO2 
 PCOD9508158
Probable space group: C C C A
;
_chemical_formula_sum "Si O2"
_cell_formula_units_Z 116
_cell_length_a 23.005639
_cell_length_b 28.297299
_cell_length_c 8.631338
_cell_angle_alpha 90.000000
_cell_angle_beta 90.000000
_cell_angle_gamma 90.000000
_cell_volume 5618.978989
_symmetry_space_group_name_H-M "C C C A"
_symmetry_group_IT_number 68
_space_group.IT_coordinate_system_code '2'
_symmetry_cell_setting 'orthorhombic'
loop_
_space_group_symop_operation_xyz
x,y,z
-x,1/2-y,z
x,1/2-y,1/2-z
-x,y,1/2-z
-x,-y,-z
x,1/2+y,-z
-x,1/2+y,1/2+z
x,-y,1/2+z
1/2+x,1/2+y,z
1/2-x,-y,z
1/2+x,-y,1/2-z
1/2-x,1/2+y,1/2-z
1/2-x,1/2-y,-z
1/2+x,y,-z
1/2-x,y,1/2+z
1/2+x,1/2-y,1/2+z
loop_
_atom_site_type_symbol
_atom_site_label
_atom_site_fract_x
_atom_site_fract_y
_atom_site_fract_z
Si Si1 0.030971 0.614889 0.411295
Si Si2 0.934767 0.334018 0.080166
Si Si3 0.142402 0.056817 0.623735
Si Si4 0.677192 0.629674 0.241921
Si Si5 0.101997 0.303582 0.757804
Si Si6 0.295020 0.349698 0.399439
Si Si7 0.500000 0.250000 0.750000
Si Si8 0.686754 0.522216 0.304875
O O1 0.081666 0.577167 0.439737
O O2 0.062445 0.664622 0.370496
O O3 0.000000 0.600747 0.250000
O O4 0.984960 0.627415 0.543766
O O5 0.886216 0.352645 0.196693
O O6 0.961909 0.285580 0.145221
O O7 0.904984 0.324835 0.913477
O O8 0.178345 0.102684 0.679865
O O9 0.177733 0.033442 0.484387
O O10 0.139909 0.016622 0.752178
O O11 0.691964 0.643298 0.419167
O O12 0.727303 0.652404 0.136147
O O13 0.680462 0.572959 0.223415
O O14 0.082256 0.250000 0.750000
O O15 0.166900 0.308111 0.825622
O O16 0.750000 0.500000 0.278549
#
# Coordination Sequence:
#
# PCOD9508158 Si02
#       8
#    16  16  16  16  16  16   4  16
#     4   9  21  43  66  91 128 174 219 270 327 388
#     4  11  25  42  67  95 131 178 216 275 326 386
#     4  10  22  38  64  94 130 166 222 267 323 395
#     4  11  24  41  66  96 135 172 213 271 335 390
#     4  10  21  41  69  97 124 170 221 269 327 390
#     4  10  22  41  64  95 132 168 210 273 330 394
#     4  12  28  40  70  96 136 172 234 272 310 412
#     4  11  22  38  64  97 124 167 214 271 323 395
#
# _framework density 20.64432
#
# number of rings (size 3 to 8) (size 9 to 14) (size 15 to 20)
#    0.000    1.655    1.379    2.069    9.655    5.241 
#    1.241    4.138    0.000    0.000    0.000    0.000 
#    0.000    0.000    0.000    0.000    0.000    0.000 
#
# Total GULP energy -324084.557044 kJ/mol
# GULP energy per Si atom -5587.664777 kJ/mol
# Density = 2.059733 g / cm^3
# Si number density = 20.644320 Si / 1000 Ang^3
#
#
#
# Elastic Constant Matrix: (Units=GPa)
#
#
# Indices 1 2 3 4 5 6 
#
# 1 123.3253 46.8433 38.7410 0.0000 0.0000 0.0000
# 2 46.8433 66.5865 32.9151 0.0000 0.0000 0.0000
# 3 38.7410 32.9151 61.2279 0.0000 0.0000 0.0000
# 4 0.0000 0.0000 0.0000 24.6621 0.0000 0.0000
# 5 0.0000 0.0000 0.0000 0.0000 32.0097 0.0000
# 6 0.0000 0.0000 0.0000 0.0000 0.0000 25.4650
#
#
#
# Elastic Compliance Matrix: (Units=1/GPa)
#
#
# Indices 1 2 3 4 5 6 
#
# 1 0.011769 -0.006263 -0.004080 0.000000 0.000000 0.000000
# 2 -0.006263 0.023786 -0.008824 0.000000 0.000000 0.000000
# 3 -0.004080 -0.008824 0.023658 0.000000 0.000000 0.000000
# 4 0.000000 0.000000 0.000000 0.040548 0.000000 0.000000
# 5 0.000000 0.000000 0.000000 0.000000 0.031241 0.000000
# 6 0.000000 0.000000 0.000000 0.000000 0.000000 0.039270
#
#
# Mechanical properties :
#
#
# Convention : Reuss Voigt Hill
#
# Bulk Modulus (GPa) = 47.89544 54.23761 51.06653
# Shear Modulus (GPa) = 23.19493 25.27003 24.23248
#
# Velocity S-wave (km/s) = 3.35558 3.50246 3.42981
# Velocity P-wave (km/s) = 6.18578 6.53344 6.36198
#
# Compressibility (1/GPa) = 0.02087881
#
# Stress axis : x y z
#
# Youngs Moduli (GPa) = 84.96831 42.04186 42.26950
#
# Poissons Ratio (x) = 0.26329 0.17246
# Poissons Ratio (y) = 0.53213 0.37300
# Poissons Ratio (z) = 0.34667 0.37099
#
# Static dielectric constant tensor:
#      x y z
#    x 1.771700 0.000000 0.000000 
#    y 0.000000 1.736640 0.000000 
#    z 0.000000 0.000000 1.748190 
# 
# From -- ./inp_files/8351.got.cif
#   From: 2010.05.17/outbox.cif.g08.bks.cpg/sg68_5_cif.got.tgz:8351.got - 2010.06.03 18:57:09.
