data_PCOD9508641
_publ_section_title
;
Structure prediction by ZEFSAII (Michael W. Deem and Ramdas Pophale) SiO2 
 PCOD9508641
Probable space group: C C C A
;
_chemical_formula_sum "Si O2"
_cell_formula_units_Z 80
_cell_length_a 24.661947
_cell_length_b 18.705378
_cell_length_c 9.062951
_cell_angle_alpha 90.000000
_cell_angle_beta 90.000000
_cell_angle_gamma 90.000000
_cell_volume 4180.839359
_symmetry_space_group_name_H-M "C C C A"
_symmetry_group_IT_number 68
_space_group.IT_coordinate_system_code '2'
_symmetry_cell_setting 'orthorhombic'
loop_
_space_group_symop_operation_xyz
x,y,z
-x,1/2-y,z
x,1/2-y,1/2-z
-x,y,1/2-z
-x,-y,-z
x,1/2+y,-z
-x,1/2+y,1/2+z
x,-y,1/2+z
1/2+x,1/2+y,z
1/2-x,-y,z
1/2+x,-y,1/2-z
1/2-x,1/2+y,1/2-z
1/2-x,1/2-y,-z
1/2+x,y,-z
1/2-x,y,1/2+z
1/2+x,1/2-y,1/2+z
loop_
_atom_site_type_symbol
_atom_site_label
_atom_site_fract_x
_atom_site_fract_y
_atom_site_fract_z
Si Si1 0.159139 0.750000 0.250000
Si Si2 0.803179 0.460230 0.390062
Si Si3 0.000000 0.750000 0.750000
Si Si4 0.500000 0.750000 0.750000
Si Si5 0.654428 0.080294 0.893666
Si Si6 0.575888 0.190930 0.014088
Si Si7 0.240271 0.827656 0.071957
O O1 0.123733 0.735885 0.101390
O O2 0.198984 0.815287 0.208045
O O3 0.750000 0.500000 0.320706
O O4 0.823461 0.514829 0.512258
O O5 0.850222 0.447042 0.272320
O O6 0.785531 0.385755 0.462754
O O7 0.043326 0.784665 0.633015
O O8 0.467609 0.803061 0.856454
O O9 0.702115 0.139691 0.883066
O O10 0.603697 0.116959 0.970354
O O11 0.250000 0.750000 0.000000
#
# Coordination Sequence:
#
# PCOD9508641 Si02
#       7
#     8  16   4   4  16  16  16
#     4  11  22  36  62 100 124 164 204 255 314 378
#     4  10  23  38  55  86 136 174 202 239 287 377
#     4  10  24  44  64  98 116 148 220 296 324 360
#     4   8  20  46  64  98 116 150 216 294 316 364
#     4  11  23  38  60  89 127 173 204 241 314 371
#     4  10  22  40  68  90 122 160 209 270 333 365
#     4  11  21  35  59  96 135 160 206 249 288 384
#
# _framework density 19.134913000000001
#
# number of rings (size 3 to 8) (size 9 to 14) (size 15 to 20)
#    0.000    1.600    2.000    3.000    8.400    0.800 
#    0.000    0.000    0.000    3.600    0.000    0.000 
#    0.000    0.000    0.000    0.000    0.000    0.000 
#
# Total GULP energy -222729.953612 kJ/mol
# GULP energy per Si atom -5568.248840 kJ/mol
# Density = 1.909136 g / cm^3
# Si number density = 19.134913 Si / 1000 Ang^3
#
#
#
# Elastic Constant Matrix: (Units=GPa)
#
#
# Indices 1 2 3 4 5 6 
#
# 1 76.9781 38.3597 49.5996 0.0000 0.0000 0.0000
# 2 38.3597 107.6445 46.2047 0.0000 0.0000 0.0000
# 3 49.5996 46.2047 117.2099 0.0000 0.0000 0.0000
# 4 0.0000 0.0000 0.0000 18.0394 0.0000 0.0000
# 5 0.0000 0.0000 0.0000 0.0000 -2.3423 0.0000
# 6 0.0000 0.0000 0.0000 0.0000 0.0000 15.0508
#
#
#
# Elastic Compliance Matrix: (Units=1/GPa)
#
#
# Indices 1 2 3 4 5 6 
#
# 1 0.019218 -0.004042 -0.006539 0.000000 0.000000 0.000000
# 2 -0.004042 0.012032 -0.003033 0.000000 0.000000 0.000000
# 3 -0.006539 -0.003033 0.012494 0.000000 0.000000 0.000000
# 4 0.000000 0.000000 0.000000 0.055434 0.000000 0.000000
# 5 0.000000 0.000000 0.000000 0.000000 -0.426930 0.000000
# 6 0.000000 0.000000 0.000000 0.000000 0.000000 0.066442
#
#
# Mechanical properties :
#
#
# Convention : Reuss Voigt Hill
#
# Bulk Modulus (GPa) = 60.54299 63.35116 61.94707
# Shear Modulus (GPa) = -21.87456 17.32748 -2.27354
#
# Velocity S-wave (km/s) = -3.38476 3.01249 -1.09121
# Velocity P-wave (km/s) = 4.05380 6.72901 5.55486
#
# Compressibility (1/GPa) = 0.01651719
#
# Stress axis : x y z
#
# Youngs Moduli (GPa) = 52.03389 83.11279 80.03555
#
# Poissons Ratio (x) = 0.33591 0.52338
# Poissons Ratio (y) = 0.21030 0.24273
# Poissons Ratio (z) = 0.34027 0.25206
#
# Static dielectric constant tensor:
#      x y z
#    x 1.709090 0.000000 0.000000 
#    y 0.000000 1.657960 0.000000 
#    z 0.000000 0.000000 1.726030 
# 
# From -- ./inp_files/8894.got.cif
#   From: 2010.05.17/outbox.cif.g08.bks.cpg/sg68_5_cif.got.tgz:8894.got - 2010.06.03 18:57:09.
