data_PCOD9508114
_publ_section_title
;
Structure prediction by ZEFSAII (Michael W. Deem and Ramdas Pophale) SiO2 
 PCOD9508114
Probable space group: C C C A
;
_chemical_formula_sum "Si O2"
_cell_formula_units_Z 96
_cell_length_a 26.060642
_cell_length_b 21.570910
_cell_length_c 8.238860
_cell_angle_alpha 90.000000
_cell_angle_beta 90.000000
_cell_angle_gamma 90.000000
_cell_volume 4631.489675
_symmetry_space_group_name_H-M "C C C A"
_symmetry_group_IT_number 68
_space_group.IT_coordinate_system_code '2'
_symmetry_cell_setting 'orthorhombic'
loop_
_space_group_symop_operation_xyz
x,y,z
-x,1/2-y,z
x,1/2-y,1/2-z
-x,y,1/2-z
-x,-y,-z
x,1/2+y,-z
-x,1/2+y,1/2+z
x,-y,1/2+z
1/2+x,1/2+y,z
1/2-x,-y,z
1/2+x,-y,1/2-z
1/2-x,1/2+y,1/2-z
1/2-x,1/2-y,-z
1/2+x,y,-z
1/2-x,y,1/2+z
1/2+x,1/2-y,1/2+z
loop_
_atom_site_type_symbol
_atom_site_label
_atom_site_fract_x
_atom_site_fract_y
_atom_site_fract_z
Si Si1 0.826258 0.985908 0.530786
Si Si2 0.371982 0.309194 0.630264
Si Si3 0.130927 0.586890 0.246981
Si Si4 0.791399 0.314944 0.663974
Si Si5 0.198283 0.597008 0.794906
Si Si6 0.057719 0.813439 0.180121
O O1 0.858360 0.937713 0.426369
O O2 0.788115 0.942404 0.632653
O O3 0.863325 0.025607 0.644298
O O4 0.804659 0.040199 0.419041
O O5 0.376886 0.250000 0.750000
O O6 0.324125 0.304178 0.501372
O O7 0.354315 0.366778 0.746348
O O8 0.421967 0.315349 0.508816
O O9 0.174760 0.638916 0.223023
O O10 0.079799 0.625147 0.237692
O O11 0.782389 0.250000 0.750000
O O12 0.738571 0.352147 0.646928
O O13 0.082550 0.750000 0.250000
O O14 0.000000 0.811211 0.250000
#
# Coordination Sequence:
#
# PCOD9508114 Si02
#       6
#    16  16  16  16  16  16
#     4  10  23  40  62  89 131 184 225 282 331 398
#     4  11  24  43  67  98 137 177 226 291 343 410
#     4  10  21  41  64  89 130 172 227 277 346 399
#     4  11  25  41  60  92 133 186 235 278 337 401
#     4  11  24  40  61  91 133 177 236 274 326 400
#     4  10  22  45  74  98 129 173 219 284 363 425
#
# _framework density 20.727671000000001
#
# number of rings (size 3 to 8) (size 9 to 14) (size 15 to 20)
#    0.000    1.500    3.333    2.500    7.000    5.333 
#    0.000    2.500    0.000    0.000    0.000    0.000 
#    0.000    0.000    0.000    0.000    0.000    0.000 
#
# Total GULP energy -267411.953011 kJ/mol
# GULP energy per Si atom -5571.082354 kJ/mol
# Density = 2.068049 g / cm^3
# Si number density = 20.727671 Si / 1000 Ang^3
#
#
#
# Elastic Constant Matrix: (Units=GPa)
#
#
# Indices 1 2 3 4 5 6 
#
# 1 87.0208 40.5366 41.1891 0.0000 0.0000 0.0000
# 2 40.5366 147.1613 36.1619 0.0000 0.0000 0.0000
# 3 41.1891 36.1619 75.3308 0.0000 0.0000 0.0000
# 4 0.0000 0.0000 0.0000 27.2951 0.0000 0.0000
# 5 0.0000 0.0000 0.0000 0.0000 20.9429 0.0000
# 6 0.0000 0.0000 0.0000 0.0000 0.0000 33.3795
#
#
#
# Elastic Compliance Matrix: (Units=1/GPa)
#
#
# Indices 1 2 3 4 5 6 
#
# 1 0.016346 -0.002615 -0.007682 0.000000 0.000000 0.000000
# 2 -0.002615 0.008122 -0.002469 0.000000 0.000000 0.000000
# 3 -0.007682 -0.002469 0.018661 0.000000 0.000000 0.000000
# 4 0.000000 0.000000 0.000000 0.036637 0.000000 0.000000
# 5 0.000000 0.000000 0.000000 0.000000 0.047749 0.000000
# 6 0.000000 0.000000 0.000000 0.000000 0.000000 0.029958
#
#
# Mechanical properties :
#
#
# Convention : Reuss Voigt Hill
#
# Bulk Modulus (GPa) = 56.83134 60.58757 58.70946
# Shear Modulus (GPa) = 26.47313 29.09853 27.78583
#
# Velocity S-wave (km/s) = 3.57765 3.75086 3.66528
# Velocity P-wave (km/s) = 6.67411 6.93198 6.80427
#
# Compressibility (1/GPa) = 0.01759593
#
# Stress axis : x y z
#
# Youngs Moduli (GPa) = 61.17802 123.11759 53.58872
#
# Poissons Ratio (x) = 0.32193 0.41168
# Poissons Ratio (y) = 0.15997 0.13233
# Poissons Ratio (z) = 0.46999 0.30402
#
# Static dielectric constant tensor:
#      x y z
#    x 1.782650 0.000000 0.000000 
#    y 0.000000 1.730440 0.000000 
#    z 0.000000 0.000000 1.873320 
# 
# From -- ./inp_files/8925.got.cif
#   From: 2010.05.17/outbox.cif.g08.bks.cpg/sg68_5_cif.got.tgz:8925.got - 2010.06.03 18:57:09.
