data_PCOD9508401
_publ_section_title
;
Structure prediction by ZEFSAII (Michael W. Deem and Ramdas Pophale) SiO2 
 PCOD9508401
Probable space group: C C C A
;
_chemical_formula_sum "Si O2"
_cell_formula_units_Z 64
_cell_length_a 14.846222
_cell_length_b 11.196414
_cell_length_c 19.273489
_cell_angle_alpha 90.000000
_cell_angle_beta 90.000000
_cell_angle_gamma 90.000000
_cell_volume 3203.725067
_symmetry_space_group_name_H-M "C C C A"
_symmetry_group_IT_number 68
_space_group.IT_coordinate_system_code '2'
_symmetry_cell_setting 'orthorhombic'
loop_
_space_group_symop_operation_xyz
x,y,z
-x,1/2-y,z
x,1/2-y,1/2-z
-x,y,1/2-z
-x,-y,-z
x,1/2+y,-z
-x,1/2+y,1/2+z
x,-y,1/2+z
1/2+x,1/2+y,z
1/2-x,-y,z
1/2+x,-y,1/2-z
1/2-x,1/2+y,1/2-z
1/2-x,1/2-y,-z
1/2+x,y,-z
1/2-x,y,1/2+z
1/2+x,1/2-y,1/2+z
loop_
_atom_site_type_symbol
_atom_site_label
_atom_site_fract_x
_atom_site_fract_y
_atom_site_fract_z
Si Si1 0.000000 0.750000 0.404580
Si Si2 0.750000 0.000000 0.094505
Si Si3 0.864928 0.362852 0.801323
Si Si4 0.579798 0.094718 0.517683
Si Si5 0.500000 0.750000 0.364375
Si Si6 0.000000 0.445090 0.250000
O O1 0.054762 0.835171 0.354699
O O2 0.072865 0.680761 0.451309
O O3 0.718496 0.102210 0.149346
O O4 0.831905 0.026704 0.042343
O O5 0.850346 0.250000 0.750000
O O6 0.910692 0.474711 0.761985
O O7 0.566037 0.184637 0.582237
O O8 0.500000 0.000000 0.500000
O O9 0.525192 0.858307 0.313760
#
# Coordination Sequence:
#
# PCOD9508401 Si02
#       6
#     8   8  16  16   8   8
#     4  11  21  43  73  95 131 196 230 274 365 421
#     4  12  26  44  66 110 140 176 248 298 352 426
#     4  12  24  43  74 101 142 187 238 292 356 430
#     4  11  23  43  67  98 145 185 229 299 354 418
#     4  10  22  37  71 102 134 188 236 280 360 412
#     4  11  19  40  70 100 137 193 232 286 360 423
#
# _framework density 19.976745999999999
#
# number of rings (size 3 to 8) (size 9 to 14) (size 15 to 20)
#    0.000    0.750    7.500    0.000    0.000    3.000 
#    0.000    1.250    0.000    0.000    0.000    0.000 
#    0.000    0.000    0.000    0.000    0.000    0.000 
#
# Total GULP energy -178160.773667 kJ/mol
# GULP energy per Si atom -5567.524177 kJ/mol
# Density = 1.993128 g / cm^3
# Si number density = 19.976746 Si / 1000 Ang^3
#
#
#
# Elastic Constant Matrix: (Units=GPa)
#
#
# Indices 1 2 3 4 5 6 
#
# 1 98.8587 35.6888 39.6793 0.0000 0.0000 0.0000
# 2 35.6888 98.8163 47.0991 0.0000 0.0000 0.0000
# 3 39.6793 47.0991 119.6545 0.0000 0.0000 0.0000
# 4 0.0000 0.0000 0.0000 -135.3146 0.0000 0.0000
# 5 0.0000 0.0000 0.0000 0.0000 328.4330 0.0000
# 6 0.0000 0.0000 0.0000 0.0000 0.0000 21.2986
#
#
#
# Elastic Compliance Matrix: (Units=1/GPa)
#
#
# Indices 1 2 3 4 5 6 
#
# 1 0.012394 -0.003099 -0.002890 0.000000 0.000000 0.000000
# 2 -0.003099 0.013232 -0.004181 0.000000 0.000000 0.000000
# 3 -0.002890 -0.004181 0.010962 0.000000 0.000000 0.000000
# 4 0.000000 0.000000 0.000000 -0.007390 0.000000 0.000000
# 5 0.000000 0.000000 0.000000 0.000000 0.003045 0.000000
# 6 0.000000 0.000000 0.000000 0.000000 0.000000 0.046951
#
#
# Mechanical properties :
#
#
# Convention : Reuss Voigt Hill
#
# Bulk Modulus (GPa) = 61.54700 62.47378 62.01039
# Shear Modulus (GPa) = 47.64222 55.87422 51.75822
#
# Velocity S-wave (km/s) = 4.88883 5.29437 5.09563
# Velocity P-wave (km/s) = 7.92109 8.28945 8.10736
#
# Compressibility (1/GPa) = 0.01624775
#
# Stress axis : x y z
#
# Youngs Moduli (GPa) = 80.68271 75.57673 91.22806
#
# Poissons Ratio (x) = 0.23419 0.26369
# Poissons Ratio (y) = 0.25001 0.38140
# Poissons Ratio (z) = 0.23321 0.31597
#
# Static dielectric constant tensor:
#      x y z
#    x 1.748220 0.000000 0.000000 
#    y 0.000000 1.996520 0.000000 
#    z 0.000000 0.000000 1.431860 
# 
# From -- ./inp_files/29219.got.cif
#   From: 2010.05.17/outbox.cif.g08.bks.cpg/sg68_15_cif.got.tgz:29219.got - 2010.06.03 18:57:09.
