data_PCOD9508004
_publ_section_title
;
Structure prediction by ZEFSAII (Michael W. Deem and Ramdas Pophale) SiO2 
 PCOD9508004
Probable space group: C C C A
;
_chemical_formula_sum "Si O2"
_cell_formula_units_Z 88
_cell_length_a 22.851422
_cell_length_b 13.793447
_cell_length_c 13.718092
_cell_angle_alpha 90.000000
_cell_angle_beta 90.000000
_cell_angle_gamma 90.000000
_cell_volume 4323.940928
_symmetry_space_group_name_H-M "C C C A"
_symmetry_group_IT_number 68
_space_group.IT_coordinate_system_code '2'
_symmetry_cell_setting 'orthorhombic'
loop_
_space_group_symop_operation_xyz
x,y,z
-x,1/2-y,z
x,1/2-y,1/2-z
-x,y,1/2-z
-x,-y,-z
x,1/2+y,-z
-x,1/2+y,1/2+z
x,-y,1/2+z
1/2+x,1/2+y,z
1/2-x,-y,z
1/2+x,-y,1/2-z
1/2-x,1/2+y,1/2-z
1/2-x,1/2-y,-z
1/2+x,y,-z
1/2-x,y,1/2+z
1/2+x,1/2-y,1/2+z
loop_
_atom_site_type_symbol
_atom_site_label
_atom_site_fract_x
_atom_site_fract_y
_atom_site_fract_z
Si Si1 0.668194 0.657987 0.463624
Si Si2 0.750000 0.000000 0.773054
Si Si3 0.665625 0.440491 0.383062
Si Si4 0.030928 0.046220 0.853534
Si Si5 0.283652 0.349379 0.921048
Si Si6 0.967337 0.652488 0.969850
O O1 0.671910 0.553229 0.414304
O O2 0.689919 0.745533 0.395137
O O3 0.714894 0.658471 0.551903
O O4 0.600828 0.673069 0.490396
O O5 0.789856 0.068801 0.706073
O O6 0.710108 0.067393 0.841561
O O7 0.598943 0.423347 0.353207
O O8 0.684900 0.380890 0.478088
O O9 0.000000 0.054716 0.750000
O O10 0.028720 0.934820 0.891698
O O11 0.997883 0.111220 0.933294
O O12 0.000000 0.750000 0.937866
#
# Coordination Sequence:
#
# PCOD9508004 Si02
#       6
#    16   8  16  16  16  16
#     4  10  21  40  63  86 125 160 210 252 313 372
#     4  12  22  36  66  86 130 166 200 254 332 352
#     4  11  22  42  60  95 128 156 210 262 300 386
#     4  10  24  40  66  94 125 165 217 257 316 369
#     4  11  22  40  61  91 124 164 203 262 309 374
#     4  10  22  42  64  89 125 172 208 260 314 378
#
# _framework density 20.351804000000001
#
# number of rings (size 3 to 8) (size 9 to 14) (size 15 to 20)
#    0.000    1.455    3.636    1.091    2.545    4.364 
#    0.000    3.636    0.000    0.000    0.000    0.000 
#    0.000    0.000    0.000    0.000    0.000    0.000 
#
# Total GULP energy -245870.929571 kJ/mol
# GULP energy per Si atom -5587.975672 kJ/mol
# Density = 2.030548 g / cm^3
# Si number density = 20.351804 Si / 1000 Ang^3
#
#
#
# Elastic Constant Matrix: (Units=GPa)
#
#
# Indices 1 2 3 4 5 6 
#
# 1 142.1195 4.4026 21.6449 0.0000 0.0000 0.0000
# 2 4.4026 61.7237 -14.4475 0.0000 0.0000 0.0000
# 3 21.6449 -14.4475 62.3538 0.0000 0.0000 0.0000
# 4 0.0000 0.0000 0.0000 3.7427 0.0000 0.0000
# 5 0.0000 0.0000 0.0000 0.0000 14.0856 0.0000
# 6 0.0000 0.0000 0.0000 0.0000 0.0000 34.7022
#
#
#
# Elastic Compliance Matrix: (Units=1/GPa)
#
#
# Indices 1 2 3 4 5 6 
#
# 1 0.007514 -0.001212 -0.002889 0.000000 0.000000 0.000000
# 2 -0.001212 0.017326 0.004435 0.000000 0.000000 0.000000
# 3 -0.002889 0.004435 0.018068 0.000000 0.000000 0.000000
# 4 0.000000 0.000000 0.000000 0.267185 0.000000 0.000000
# 5 0.000000 0.000000 0.000000 0.000000 0.070994 0.000000
# 6 0.000000 0.000000 0.000000 0.000000 0.000000 0.028817
#
#
# Mechanical properties :
#
#
# Convention : Reuss Voigt Hill
#
# Bulk Modulus (GPa) = 22.94868 32.15524 27.55196
# Shear Modulus (GPa) = 11.79908 27.47924 19.63916
#
# Velocity S-wave (km/s) = 2.41042 3.67851 3.10979
# Velocity P-wave (km/s) = 4.36433 5.82030 5.14409
#
# Compressibility (1/GPa) = 0.04357550
#
# Stress axis : x y z
#
# Youngs Moduli (GPa) = 133.08647 57.71725 55.34620
#
# Poissons Ratio (x) = 0.06997 0.15991
# Poissons Ratio (y) = 0.16133 -0.24547
# Poissons Ratio (z) = 0.38451 -0.25599
#
# Static dielectric constant tensor:
#      x y z
#    x 1.714910 0.000000 0.000000 
#    y 0.000000 1.756210 0.000000 
#    z 0.000000 0.000000 1.720760 
# 
# From -- ./inp_files/24356.got.cif
#   From: 2010.05.17/outbox.cif.g08.bks.cpg/sg68_13_cif.got.tgz:24356.got - 2010.06.03 18:57:09.
