data_PCOD9508538
_publ_section_title
;
Structure prediction by ZEFSAII (Michael W. Deem and Ramdas Pophale) SiO2 
 PCOD9508538
Probable space group: C C C A
;
_chemical_formula_sum "Si O2"
_cell_formula_units_Z 68
_cell_length_a 18.465464
_cell_length_b 19.879907
_cell_length_c 9.141268
_cell_angle_alpha 90.000000
_cell_angle_beta 90.000000
_cell_angle_gamma 90.000000
_cell_volume 3355.683675
_symmetry_space_group_name_H-M "C C C A"
_symmetry_group_IT_number 68
_space_group.IT_coordinate_system_code '2'
_symmetry_cell_setting 'orthorhombic'
loop_
_space_group_symop_operation_xyz
x,y,z
-x,1/2-y,z
x,1/2-y,1/2-z
-x,y,1/2-z
-x,-y,-z
x,1/2+y,-z
-x,1/2+y,1/2+z
x,-y,1/2+z
1/2+x,1/2+y,z
1/2-x,-y,z
1/2+x,-y,1/2-z
1/2-x,1/2+y,1/2-z
1/2-x,1/2-y,-z
1/2+x,y,-z
1/2-x,y,1/2+z
1/2+x,1/2-y,1/2+z
loop_
_atom_site_type_symbol
_atom_site_label
_atom_site_fract_x
_atom_site_fract_y
_atom_site_fract_z
Si Si1 0.763888 0.821821 0.328648
Si Si2 0.095573 0.196168 0.505505
Si Si3 0.500000 0.750000 0.250000
Si Si4 0.995588 0.069840 0.582647
Si Si5 0.142176 0.344093 0.555342
O O1 0.752164 0.750000 0.250000
O O2 0.819959 0.819622 0.465950
O O3 0.807039 0.858331 0.196868
O O4 0.689659 0.841630 0.407315
O O5 0.054747 0.208147 0.352468
O O6 0.098756 0.272301 0.575157
O O7 0.053094 0.131327 0.565721
O O8 0.918778 0.101206 0.542178
O O9 0.000000 0.051342 0.750000
O O10 0.000000 0.000000 0.500000
#
# Coordination Sequence:
#
# PCOD9508538 Si02
#       5
#    16  16   4  16  16
#     4  10  22  39  69 106 140 171 218 288 355 410
#     4  11  23  39  69 103 140 173 228 289 344 405
#     4  12  24  32  66 116 132 180 234 280 352 412
#     4  12  27  48  69  95 136 191 237 286 339 405
#     4  11  23  43  74 103 141 172 227 287 354 418
#
# _framework density 20.264126999999998
#
# number of rings (size 3 to 8) (size 9 to 14) (size 15 to 20)
#    0.000    0.941    4.706    2.824    6.588    0.941 
#    0.000    1.176    0.000    0.000    0.000    0.000 
#    0.000    0.000    0.000    0.000    0.000    0.000 
#
# Total GULP energy -189275.289565 kJ/mol
# GULP energy per Si atom -5566.920281 kJ/mol
# Density = 2.021800 g / cm^3
# Si number density = 20.264127 Si / 1000 Ang^3
#
#
#
# Elastic Constant Matrix: (Units=GPa)
#
#
# Indices 1 2 3 4 5 6 
#
# 1 150.4904 77.7283 73.9990 0.0000 0.0000 0.0000
# 2 77.7283 133.0527 64.0985 0.0000 0.0000 0.0000
# 3 73.9990 64.0985 122.4232 0.0000 0.0000 0.0000
# 4 0.0000 0.0000 0.0000 26.8530 0.0000 0.0000
# 5 0.0000 0.0000 0.0000 0.0000 49.0648 0.0000
# 6 0.0000 0.0000 0.0000 0.0000 0.0000 4094.0217
#
#
#
# Elastic Compliance Matrix: (Units=1/GPa)
#
#
# Indices 1 2 3 4 5 6 
#
# 1 0.011051 -0.004330 -0.004413 0.000000 0.000000 0.000000
# 2 -0.004330 0.011748 -0.003533 0.000000 0.000000 0.000000
# 3 -0.004413 -0.003533 0.012686 0.000000 0.000000 0.000000
# 4 0.000000 0.000000 0.000000 0.037240 0.000000 0.000000
# 5 0.000000 0.000000 0.000000 0.000000 0.020381 0.000000
# 6 0.000000 0.000000 0.000000 0.000000 0.000000 0.000244
#
#
# Mechanical properties :
#
#
# Convention : Reuss Voigt Hill
#
# Bulk Modulus (GPa) = 91.47562 93.06865 92.27213
# Shear Modulus (GPa) = 41.13630 846.66394 443.90012
#
# Velocity S-wave (km/s) = 4.51045 20.46268 14.81663
# Velocity P-wave (km/s) = 8.50677 24.58297 18.39412
#
# Compressibility (1/GPa) = 0.01093187
#
# Stress axis : x y z
#
# Youngs Moduli (GPa) = 90.48656 85.12250 78.82840
#
# Poissons Ratio (x) = 0.36860 0.34785
# Poissons Ratio (y) = 0.39183 0.27854
# Poissons Ratio (z) = 0.39930 0.30078
#
# Static dielectric constant tensor:
#      x y z
#    x 1.749190 0.000000 0.000000 
#    y 0.000000 1.533310 0.000000 
#    z 0.000000 0.000000 1.797420 
# 
# From -- ./inp_files/5916.got.cif
#   From: 2010.05.17/outbox.cif.g08.bks.cpg/sg68_3_cif.got.tgz:5916.got - 2010.06.03 18:57:09.
