data_PCOD9508329
_publ_section_title
;
Structure prediction by ZEFSAII (Michael W. Deem and Ramdas Pophale) SiO2 
 PCOD9508329
Probable space group: C C C A
;
_chemical_formula_sum "Si O2"
_cell_formula_units_Z 104
_cell_length_a 9.200718
_cell_length_b 24.795740
_cell_length_c 21.071215
_cell_angle_alpha 90.000000
_cell_angle_beta 90.000000
_cell_angle_gamma 90.000000
_cell_volume 4807.157729
_symmetry_space_group_name_H-M "C C C A"
_symmetry_group_IT_number 68
_space_group.IT_coordinate_system_code '2'
_symmetry_cell_setting 'orthorhombic'
loop_
_space_group_symop_operation_xyz
x,y,z
-x,1/2-y,z
x,1/2-y,1/2-z
-x,y,1/2-z
-x,-y,-z
x,1/2+y,-z
-x,1/2+y,1/2+z
x,-y,1/2+z
1/2+x,1/2+y,z
1/2-x,-y,z
1/2+x,-y,1/2-z
1/2-x,1/2+y,1/2-z
1/2-x,1/2-y,-z
1/2+x,y,-z
1/2-x,y,1/2+z
1/2+x,1/2-y,1/2+z
loop_
_atom_site_type_symbol
_atom_site_label
_atom_site_fract_x
_atom_site_fract_y
_atom_site_fract_z
Si Si1 0.417298 0.380827 0.993236
Si Si2 0.754886 0.250000 0.250000
Si Si3 0.655772 0.770976 0.109819
Si Si4 0.132877 0.360618 0.786226
Si Si5 0.334922 0.054802 0.768345
Si Si6 0.350295 0.677983 0.926927
Si Si7 0.180038 0.899869 0.909988
O O1 0.292095 0.354539 0.950268
O O2 0.534304 0.413016 0.950582
O O3 0.518066 0.335671 0.026808
O O4 0.324256 0.410751 0.048035
O O5 0.839510 0.246501 0.183903
O O6 0.662067 0.304178 0.248571
O O7 0.500000 0.750000 0.085364
O O8 0.791708 0.738852 0.079326
O O9 0.672805 0.834806 0.101574
O O10 0.271299 0.397883 0.775908
O O11 0.105657 0.345314 0.858520
O O12 0.000000 0.388237 0.750000
O O13 0.500000 0.047118 0.750000
O O14 0.318062 0.072600 0.841672
O O15 0.250000 0.000000 0.757187
#
# Coordination Sequence:
#
# PCOD9508329 Si02
#       7
#    16   8  16  16  16  16  16
#     4  10  22  40  60  91 133 180 224 264 315 392
#     4  10  22  34  60 100 141 179 214 264 337 401
#     4  11  21  34  58  94 138 181 223 268 328 393
#     4  11  22  41  67 101 136 171 217 273 334 402
#     4  12  27  47  73  99 130 169 220 284 349 402
#     4  10  22  35  59  91 133 178 219 258 318 384
#     4  11  23  42  66  95 132 176 221 276 330 394
#
# _framework density 21.634405999999998
#
# number of rings (size 3 to 8) (size 9 to 14) (size 15 to 20)
#    0.000    1.231    3.077    2.769    2.154    4.308 
#    0.000    0.769    0.000    3.692    0.000    0.000 
#    0.000    0.000    0.000    0.000    0.000    0.000 
#
# Total GULP energy -290785.592670 kJ/mol
# GULP energy per Si atom -5592.030628 kJ/mol
# Density = 2.158517 g / cm^3
# Si number density = 21.634406 Si / 1000 Ang^3
#
#
#
# Elastic Constant Matrix: (Units=GPa)
#
#
# Indices 1 2 3 4 5 6 
#
# 1 91.8513 5.6237 -1.8557 0.0000 0.0000 0.0000
# 2 5.6237 55.4370 -4.4612 0.0000 0.0000 0.0000
# 3 -1.8557 -4.4612 61.6971 0.0000 0.0000 0.0000
# 4 0.0000 0.0000 0.0000 11.4324 0.0000 0.0000
# 5 0.0000 0.0000 0.0000 0.0000 35.4740 0.0000
# 6 0.0000 0.0000 0.0000 0.0000 0.0000 -4.9524
#
#
#
# Elastic Compliance Matrix: (Units=1/GPa)
#
#
# Indices 1 2 3 4 5 6 
#
# 1 0.010959 -0.001092 0.000251 0.000000 0.000000 0.000000
# 2 -0.001092 0.018253 0.001287 0.000000 0.000000 0.000000
# 3 0.000251 0.001287 0.016309 0.000000 0.000000 0.000000
# 4 0.000000 0.000000 0.000000 0.087471 0.000000 0.000000
# 5 0.000000 0.000000 0.000000 0.000000 0.028190 0.000000
# 6 0.000000 0.000000 0.000000 0.000000 0.000000 -0.201922
#
#
# Mechanical properties :
#
#
# Convention : Reuss Voigt Hill
#
# Bulk Modulus (GPa) = 21.54572 23.06656 22.30614
# Shear Modulus (GPa) = -191.11665 22.36935 -84.37365
#
# Velocity S-wave (km/s) = -9.40909 3.21903 -6.25175
# Velocity P-wave (km/s) = 10.39522 4.94988 6.46372
#
# Compressibility (1/GPa) = 0.04641294
#
# Stress axis : x y z
#
# Youngs Moduli (GPa) = 91.24867 54.78615 61.31652
#
# Poissons Ratio (x) = 0.05980 -0.01537
# Poissons Ratio (y) = 0.09960 -0.07891
# Poissons Ratio (z) = -0.02287 -0.07051
#
# Static dielectric constant tensor:
#      x y z
#    x 1.842720 0.000000 0.000000 
#    y 0.000000 1.753120 0.000000 
#    z 0.000000 0.000000 1.815870 
# 
# From -- ./inp_files/36581.got.cif
#   From: 2010.05.17/outbox.cif.g08.bks.cpg/sg68_19_cif.got.tgz:36581.got - 2010.06.03 18:57:09.
