data_PCOD9508704
_publ_section_title
;
Structure prediction by ZEFSAII (Michael W. Deem and Ramdas Pophale) SiO2 
 PCOD9508704
Probable space group: C C C A
;
_chemical_formula_sum "Si O2"
_cell_formula_units_Z 96
_cell_length_a 8.391719
_cell_length_b 25.175405
_cell_length_c 23.284365
_cell_angle_alpha 90.000000
_cell_angle_beta 90.000000
_cell_angle_gamma 90.000000
_cell_volume 4919.169613
_symmetry_space_group_name_H-M "C C C A"
_symmetry_group_IT_number 68
_space_group.IT_coordinate_system_code '2'
_symmetry_cell_setting 'orthorhombic'
loop_
_space_group_symop_operation_xyz
x,y,z
-x,1/2-y,z
x,1/2-y,1/2-z
-x,y,1/2-z
-x,-y,-z
x,1/2+y,-z
-x,1/2+y,1/2+z
x,-y,1/2+z
1/2+x,1/2+y,z
1/2-x,-y,z
1/2+x,-y,1/2-z
1/2-x,1/2+y,1/2-z
1/2-x,1/2-y,-z
1/2+x,y,-z
1/2-x,y,1/2+z
1/2+x,1/2-y,1/2+z
loop_
_atom_site_type_symbol
_atom_site_label
_atom_site_fract_x
_atom_site_fract_y
_atom_site_fract_z
Si Si1 0.307152 0.836363 0.744526
Si Si2 0.693134 0.247928 0.158247
Si Si3 0.204212 0.796309 0.955863
Si Si4 0.189722 0.060923 0.574721
Si Si5 0.057833 0.623961 0.998915
Si Si6 0.157600 0.445339 0.789348
O O1 0.500000 0.839670 0.750000
O O2 0.265550 0.798896 0.797212
O O3 0.267242 0.803500 0.687676
O O4 0.248484 0.895966 0.739056
O O5 0.500000 0.250000 0.147548
O O6 0.792249 0.234463 0.103089
O O7 0.334692 0.843586 0.955877
O O8 0.250000 0.750000 0.000000
O O9 0.049181 0.829072 0.972741
O O10 0.334278 0.097648 0.550827
O O11 0.139875 0.067895 0.642045
O O12 0.045624 0.079851 0.532920
O O13 0.250000 0.000000 0.567875
O O14 0.250000 0.500000 0.786859
O O15 0.000000 0.451281 0.750000
#
# Coordination Sequence:
#
# PCOD9508704 Si02
#       6
#    16  16  16  16  16  16
#     4   8  17  32  56  82 113 150 204 248 291 369
#     4   9  17  31  55  86 114 158 202 248 301 368
#     4  11  22  35  56  93 128 161 205 251 314 384
#     4  10  22  43  65  90 123 163 214 269 311 378
#     4  10  23  38  61  92 123 169 204 259 320 370
#     4  10  22  41  64  92 123 161 209 267 322 373
#
# _framework density 19.515488000000001
#
# number of rings (size 3 to 8) (size 9 to 14) (size 15 to 20)
#    0.000    2.333    0.000    3.000   11.667    0.000 
#    6.000    0.833    0.000    0.000    0.000    0.000 
#    0.000    0.000    0.000    0.000    0.000    0.000 
#
# Total GULP energy -267420.963221 kJ/mol
# GULP energy per Si atom -5571.270067 kJ/mol
# Density = 1.947107 g / cm^3
# Si number density = 19.515488 Si / 1000 Ang^3
#
#
#
# Elastic Constant Matrix: (Units=GPa)
#
#
# Indices 1 2 3 4 5 6 
#
# 1 55.2053 20.4605 36.9105 0.0000 0.0000 0.0000
# 2 20.4605 121.3973 46.0707 0.0000 0.0000 0.0000
# 3 36.9105 46.0707 103.0414 0.0000 0.0000 0.0000
# 4 0.0000 0.0000 0.0000 -20.5211 0.0000 0.0000
# 5 0.0000 0.0000 0.0000 0.0000 18.6552 0.0000
# 6 0.0000 0.0000 0.0000 0.0000 0.0000 27.0609
#
#
#
# Elastic Compliance Matrix: (Units=1/GPa)
#
#
# Indices 1 2 3 4 5 6 
#
# 1 0.023907 -0.000939 -0.008144 0.000000 0.000000 0.000000
# 2 -0.000939 0.009958 -0.004116 0.000000 0.000000 0.000000
# 3 -0.008144 -0.004116 0.014462 0.000000 0.000000 0.000000
# 4 0.000000 0.000000 0.000000 -0.048730 0.000000 0.000000
# 5 0.000000 0.000000 0.000000 0.000000 0.053604 0.000000
# 6 0.000000 0.000000 0.000000 0.000000 0.000000 0.036954
#
#
# Mechanical properties :
#
#
# Convention : Reuss Voigt Hill
#
# Bulk Modulus (GPa) = 45.59981 54.05860 49.82920
# Shear Modulus (GPa) = 40.36738 16.78583 28.57661
#
# Velocity S-wave (km/s) = 4.55299 2.93598 3.83077
# Velocity P-wave (km/s) = 7.14537 6.26528 6.71975
#
# Compressibility (1/GPa) = 0.02192992
#
# Stress axis : x y z
#
# Youngs Moduli (GPa) = 41.82817 100.42571 69.14472
#
# Poissons Ratio (x) = 0.09426 0.56313
# Poissons Ratio (y) = 0.03926 0.28459
# Poissons Ratio (z) = 0.34066 0.41334
#
# Static dielectric constant tensor:
#      x y z
#    x 1.716900 0.000000 0.000000 
#    y 0.000000 1.672370 0.000000 
#    z 0.000000 0.000000 1.698690 
# 
# From -- ./inp_files/36475.got.cif
#   From: 2010.05.17/outbox.cif.g08.bks.cpg/sg68_19_cif.got.tgz:36475.got - 2010.06.03 18:57:09.
