data_PCOD9508253
_publ_section_title
;
Structure prediction by ZEFSAII (Michael W. Deem and Ramdas Pophale) SiO2 
 PCOD9508253
Probable space group: C C C A
;
_chemical_formula_sum "Si O2"
_cell_formula_units_Z 112
_cell_length_a 21.463360
_cell_length_b 17.353940
_cell_length_c 14.536217
_cell_angle_alpha 90.000000
_cell_angle_beta 90.000000
_cell_angle_gamma 90.000000
_cell_volume 5414.360880
_symmetry_space_group_name_H-M "C C C A"
_symmetry_group_IT_number 68
_space_group.IT_coordinate_system_code '2'
_symmetry_cell_setting 'orthorhombic'
loop_
_space_group_symop_operation_xyz
x,y,z
-x,1/2-y,z
x,1/2-y,1/2-z
-x,y,1/2-z
-x,-y,-z
x,1/2+y,-z
-x,1/2+y,1/2+z
x,-y,1/2+z
1/2+x,1/2+y,z
1/2-x,-y,z
1/2+x,-y,1/2-z
1/2-x,1/2+y,1/2-z
1/2-x,1/2-y,-z
1/2+x,y,-z
1/2-x,y,1/2+z
1/2+x,1/2-y,1/2+z
loop_
_atom_site_type_symbol
_atom_site_label
_atom_site_fract_x
_atom_site_fract_y
_atom_site_fract_z
Si Si1 0.554793 0.519558 0.571629
Si Si2 0.711842 0.920474 0.848550
Si Si3 0.392789 0.984402 0.244037
Si Si4 0.743916 0.839271 0.032136
Si Si5 0.374715 0.927693 0.931298
Si Si6 0.994411 0.159892 0.639700
Si Si7 0.187972 0.837343 0.769858
O O1 0.500000 0.500000 0.500000
O O2 0.548342 0.485013 0.674862
O O3 0.612337 0.475219 0.524755
O O4 0.546886 0.610712 0.586711
O O5 0.647500 0.947184 0.804431
O O6 0.748737 0.860018 0.784429
O O7 0.750000 0.000000 0.849144
O O8 0.712016 0.885009 0.949082
O O9 0.385446 0.009979 0.349628
O O10 0.361662 0.900742 0.238515
O O11 0.809532 0.882424 0.056897
O O12 0.702657 0.844131 0.122941
O O13 0.750000 0.750000 0.000000
O O14 0.428862 0.867549 0.903431
O O15 0.000000 0.250000 0.627110
O O16 0.000000 0.144134 0.750000
O O17 0.169627 0.750000 0.750000
#
# Coordination Sequence:
#
# PCOD9508253 Si02
#       7
#    16  16  16  16  16  16  16
#     4  10  23  42  67  94 125 165 221 281 332 396
#     4  10  22  38  59  84 128 171 218 265 317 390
#     4  11  23  41  66  91 129 178 219 269 333 402
#     4  12  25  40  61  96 140 180 223 275 318 402
#     4  11  23  42  68  97 126 177 224 263 343 396
#     4  10  21  43  68  97 130 160 212 286 341 388
#     4  11  23  41  57  91 137 180 216 270 326 385
#
# _framework density 20.685728999999998
#
# number of rings (size 3 to 8) (size 9 to 14) (size 15 to 20)
#    0.000    1.286    4.286    1.714    4.000    1.143 
#    2.571    0.000    0.000    0.000    0.000    3.000 
#    0.000    0.000    0.000    0.000    0.000    0.000 
#
# Total GULP energy -312316.551907 kJ/mol
# GULP energy per Si atom -5577.081284 kJ/mol
# Density = 2.063865 g / cm^3
# Si number density = 20.685729 Si / 1000 Ang^3
#
#
#
# Elastic Constant Matrix: (Units=GPa)
#
#
# Indices 1 2 3 4 5 6 
#
# 1 32.7050 31.7512 13.1527 0.0000 0.0000 0.0000
# 2 31.7512 143.4306 41.5290 0.0000 0.0000 0.0000
# 3 13.1527 41.5290 138.6053 0.0000 0.0000 0.0000
# 4 0.0000 0.0000 0.0000 43.9150 0.0000 0.0000
# 5 0.0000 0.0000 0.0000 0.0000 30.5373 0.0000
# 6 0.0000 0.0000 0.0000 0.0000 0.0000 24.9123
#
#
#
# Elastic Compliance Matrix: (Units=1/GPa)
#
#
# Indices 1 2 3 4 5 6 
#
# 1 0.039135 -0.008309 -0.001224 0.000000 0.000000 0.000000
# 2 -0.008309 0.009398 -0.002027 0.000000 0.000000 0.000000
# 3 -0.001224 -0.002027 0.007938 0.000000 0.000000 0.000000
# 4 0.000000 0.000000 0.000000 0.022771 0.000000 0.000000
# 5 0.000000 0.000000 0.000000 0.000000 0.032747 0.000000
# 6 0.000000 0.000000 0.000000 0.000000 0.000000 0.040141
#
#
# Mechanical properties :
#
#
# Convention : Reuss Voigt Hill
#
# Bulk Modulus (GPa) = 29.98418 54.17851 42.08134
# Shear Modulus (GPa) = 26.82849 35.09344 30.96097
#
# Velocity S-wave (km/s) = 3.60524 4.12333 3.87296
# Velocity P-wave (km/s) = 5.64419 6.99409 6.35508
#
# Compressibility (1/GPa) = 0.03335092
#
# Stress axis : x y z
#
# Youngs Moduli (GPa) = 25.55242 106.40111 125.97035
#
# Poissons Ratio (x) = 0.88408 0.15420
# Poissons Ratio (y) = 0.21231 0.25540
# Poissons Ratio (z) = 0.03128 0.21573
#
# Static dielectric constant tensor:
#      x y z
#    x 1.864220 0.000000 0.000000 
#    y 0.000000 1.707610 0.000000 
#    z 0.000000 0.000000 2.011830 
# 
# From -- ./inp_files/25490.got.cif
#   From: 2010.05.17/outbox.cif.g08.bks.cpg/sg68_13_cif.got.tgz:25490.got - 2010.06.03 18:57:09.
