data_PCOD9508193
_publ_section_title
;
Structure prediction by ZEFSAII (Michael W. Deem and Ramdas Pophale) SiO2 
 PCOD9508193
Probable space group: C C C A
;
_chemical_formula_sum "Si O2"
_cell_formula_units_Z 88
_cell_length_a 11.969281
_cell_length_b 15.338405
_cell_length_c 23.633400
_cell_angle_alpha 90.000000
_cell_angle_beta 90.000000
_cell_angle_gamma 90.000000
_cell_volume 4338.848332
_symmetry_space_group_name_H-M "C C C A"
_symmetry_group_IT_number 68
_space_group.IT_coordinate_system_code '2'
_symmetry_cell_setting 'orthorhombic'
loop_
_space_group_symop_operation_xyz
x,y,z
-x,1/2-y,z
x,1/2-y,1/2-z
-x,y,1/2-z
-x,-y,-z
x,1/2+y,-z
-x,1/2+y,1/2+z
x,-y,1/2+z
1/2+x,1/2+y,z
1/2-x,-y,z
1/2+x,-y,1/2-z
1/2-x,1/2+y,1/2-z
1/2-x,1/2-y,-z
1/2+x,y,-z
1/2-x,y,1/2+z
1/2+x,1/2-y,1/2+z
loop_
_atom_site_type_symbol
_atom_site_label
_atom_site_fract_x
_atom_site_fract_y
_atom_site_fract_z
Si Si1 0.283271 0.326880 0.581833
Si Si2 0.011930 0.945124 0.816247
Si Si3 0.159477 0.292726 0.313969
Si Si4 0.250000 0.000000 0.366120
Si Si5 0.608420 0.308730 0.030644
Si Si6 0.837052 0.575896 0.134874
O O1 0.327784 0.282500 0.639136
O O2 0.220023 0.415728 0.596718
O O3 0.373400 0.344560 0.532718
O O4 0.204306 0.256262 0.552898
O O5 0.139713 0.966240 0.833222
O O6 0.000000 0.941708 0.750000
O O7 0.945759 0.854755 0.831176
O O8 0.938077 0.026743 0.835493
O O9 0.153396 0.250000 0.250000
O O10 0.268720 0.355421 0.325101
O O11 0.500000 0.250000 0.031119
O O12 0.614074 0.381940 0.078300
O O13 0.750000 0.500000 0.119353
#
# Coordination Sequence:
#
# PCOD9508193 Si02
#       6
#    16  16  16   8  16  16
#     4  10  24  40  64  97 124 171 217 269 326 387
#     4  11  25  40  67  95 134 171 214 270 331 395
#     4  10  22  43  70  95 129 171 218 271 333 397
#     4  12  26  40  62  96 134 162 222 266 324 398
#     4  10  21  42  65  88 131 168 220 269 323 389
#     4   9  21  42  67  95 127 172 218 270 333 390
#
# _framework density 20.281879
#
# number of rings (size 3 to 8) (size 9 to 14) (size 15 to 20)
#    0.000    1.818    0.000    2.182   10.182    1.818 
#    0.000    1.818    0.000    0.000    0.000    0.000 
#    0.000    0.000    0.000    0.000    0.000    0.000 
#
# Total GULP energy -245213.584327 kJ/mol
# GULP energy per Si atom -5573.036007 kJ/mol
# Density = 2.023572 g / cm^3
# Si number density = 20.281879 Si / 1000 Ang^3
#
#
#
# Elastic Constant Matrix: (Units=GPa)
#
#
# Indices 1 2 3 4 5 6 
#
# 1 84.1271 18.1541 10.8843 0.0000 0.0000 0.0000
# 2 18.1541 117.2513 33.1802 0.0000 0.0000 0.0000
# 3 10.8843 33.1802 64.0757 0.0000 0.0000 0.0000
# 4 0.0000 0.0000 0.0000 69.2161 0.0000 0.0000
# 5 0.0000 0.0000 0.0000 0.0000 65.0663 0.0000
# 6 0.0000 0.0000 0.0000 0.0000 0.0000 23.6626
#
#
#
# Elastic Compliance Matrix: (Units=1/GPa)
#
#
# Indices 1 2 3 4 5 6 
#
# 1 0.012390 -0.001550 -0.001302 0.000000 0.000000 0.000000
# 2 -0.001550 0.010187 -0.005012 0.000000 0.000000 0.000000
# 3 -0.001302 -0.005012 0.018423 0.000000 0.000000 0.000000
# 4 0.000000 0.000000 0.000000 0.014448 0.000000 0.000000
# 5 0.000000 0.000000 0.000000 0.000000 0.015369 0.000000
# 6 0.000000 0.000000 0.000000 0.000000 0.000000 0.042261
#
#
# Mechanical properties :
#
#
# Convention : Reuss Voigt Hill
#
# Bulk Modulus (GPa) = 39.56918 43.32124 41.44521
# Shear Modulus (GPa) = 36.43568 45.13803 40.78686
#
# Velocity S-wave (km/s) = 4.24307 4.72268 4.48928
# Velocity P-wave (km/s) = 6.59976 7.15152 6.88117
#
# Compressibility (1/GPa) = 0.02527220
#
# Stress axis : x y z
#
# Youngs Moduli (GPa) = 80.71229 98.16519 54.28015
#
# Poissons Ratio (x) = 0.15214 0.07067
# Poissons Ratio (y) = 0.12509 0.27204
# Poissons Ratio (z) = 0.10509 0.49198
#
# Static dielectric constant tensor:
#      x y z
#    x 1.830860 0.000000 0.000000 
#    y 0.000000 1.718760 0.000000 
#    z 0.000000 0.000000 1.722470 
# 
# From -- ./inp_files/44226.got.cif
#   From: 2010.05.17/outbox.cif.g08.bks.cpg/sg68_23_cif.got.tgz:44226.got - 2010.06.03 18:57:09.
