data_PCOD9508223
_publ_section_title
;
Structure prediction by ZEFSAII (Michael W. Deem and Ramdas Pophale) SiO2 
 PCOD9508223
Probable space group: C C C A
;
_chemical_formula_sum "Si O2"
_cell_formula_units_Z 108
_cell_length_a 5.494563
_cell_length_b 29.070474
_cell_length_c 32.221193
_cell_angle_alpha 90.000000
_cell_angle_beta 90.000000
_cell_angle_gamma 90.000000
_cell_volume 5146.676685
_symmetry_space_group_name_H-M "C C C A"
_symmetry_group_IT_number 68
_space_group.IT_coordinate_system_code '2'
_symmetry_cell_setting 'orthorhombic'
loop_
_space_group_symop_operation_xyz
x,y,z
-x,1/2-y,z
x,1/2-y,1/2-z
-x,y,1/2-z
-x,-y,-z
x,1/2+y,-z
-x,1/2+y,1/2+z
x,-y,1/2+z
1/2+x,1/2+y,z
1/2-x,-y,z
1/2+x,-y,1/2-z
1/2-x,1/2+y,1/2-z
1/2-x,1/2-y,-z
1/2+x,y,-z
1/2-x,y,1/2+z
1/2+x,1/2-y,1/2+z
loop_
_atom_site_type_symbol
_atom_site_label
_atom_site_fract_x
_atom_site_fract_y
_atom_site_fract_z
Si Si1 0.465945 0.888020 0.591788
Si Si2 0.616243 0.542089 0.207114
Si Si3 0.008757 0.803408 0.026801
Si Si4 0.507216 0.447172 0.016782
Si Si5 0.827439 0.177733 0.210371
Si Si6 0.964355 0.884901 0.643450
Si Si7 0.000000 0.250000 0.750000
Si Si8 0.500000 0.107189 0.250000
O O1 0.472741 0.843445 0.561359
O O2 0.466034 0.935310 0.564853
O O3 0.216466 0.887686 0.618122
O O4 0.717763 0.886634 0.617092
O O5 0.500000 0.523319 0.250000
O O6 0.750000 0.500000 0.185222
O O7 0.457686 0.572133 0.175860
O O8 0.807996 0.577475 0.225684
O O9 0.000000 0.750000 0.042688
O O10 0.254369 0.808260 0.998778
O O11 0.500000 0.500000 0.000000
O O12 0.249029 0.426272 0.003572
O O13 0.682460 0.223990 0.218799
O O14 0.621488 0.139459 0.216082
O O15 0.000000 0.171967 0.250000
O O16 0.964793 0.163207 0.169155
#
# Coordination Sequence:
#
# PCOD9508223 Si02
#       8
#    16  16  16  16  16  16   4   8
#     4  12  25  43  68 102 143 179 218 275 364 412
#     4  12  24  41  69  93 126 186 248 290 338 410
#     4  10  21  42  74 102 128 171 229 275 319 410
#     4  10  21  42  71  94 128 180 232 268 323 413
#     4  11  22  43  69  93 133 187 241 294 336 416
#     4  12  26  44  67 101 147 184 214 292 362 409
#     4  10  26  40  72 102 124 180 282 280 330 422
#     4  11  18  39  70  88 120 170 254 279 340 393
#
# _framework density 20.984414000000001
#
# number of rings (size 3 to 8) (size 9 to 14) (size 15 to 20)
#    0.000    0.889    3.704    3.778    2.074    0.000 
#    9.333    0.000    0.000    0.000    0.000    0.000 
#    0.000    0.000    0.000    0.000    0.000    0.000 
#
# Total GULP energy -301209.724690 kJ/mol
# GULP energy per Si atom -5577.957865 kJ/mol
# Density = 2.093665 g / cm^3
# Si number density = 20.984414 Si / 1000 Ang^3
#
#
#
# Elastic Constant Matrix: (Units=GPa)
#
#
# Indices 1 2 3 4 5 6 
#
# 1 155.7032 19.5853 61.8208 0.0000 0.0000 0.0000
# 2 19.5853 101.8385 44.6235 0.0000 0.0000 0.0000
# 3 61.8208 44.6235 112.0787 0.0000 0.0000 0.0000
# 4 0.0000 0.0000 0.0000 -12.6879 0.0000 0.0000
# 5 0.0000 0.0000 0.0000 0.0000 14.4772 0.0000
# 6 0.0000 0.0000 0.0000 0.0000 0.0000 30.3158
#
#
#
# Elastic Compliance Matrix: (Units=1/GPa)
#
#
# Indices 1 2 3 4 5 6 
#
# 1 0.008244 0.000493 -0.004743 0.000000 0.000000 0.000000
# 2 0.000493 0.011924 -0.005019 0.000000 0.000000 0.000000
# 3 -0.004743 -0.005019 0.013537 0.000000 0.000000 0.000000
# 4 0.000000 0.000000 0.000000 -0.078815 0.000000 0.000000
# 5 0.000000 0.000000 0.000000 0.000000 0.069074 0.000000
# 6 0.000000 0.000000 0.000000 0.000000 0.000000 0.032986
#
#
# Mechanical properties :
#
#
# Convention : Reuss Voigt Hill
#
# Bulk Modulus (GPa) = 65.93987 69.07553 67.50770
# Shear Modulus (GPa) = 62.07743 22.66042 42.36893
#
# Velocity S-wave (km/s) = 5.44489 3.28970 4.49828
# Velocity P-wave (km/s) = 8.42737 6.88611 7.69543
#
# Compressibility (1/GPa) = 0.01516533
#
# Stress axis : x y z
#
# Youngs Moduli (GPa) = 121.30307 83.86401 73.87056
#
# Poissons Ratio (x) = -0.04135 0.35040
# Poissons Ratio (y) = -0.05981 0.37079
# Poissons Ratio (z) = 0.57540 0.42095
#
# Static dielectric constant tensor:
#      x y z
#    x 1.709740 0.000000 0.000000 
#    y 0.000000 1.912040 0.000000 
#    z 0.000000 0.000000 1.770930 
# 
# From -- ./inp_files/53537.got.cif
#   From: 2010.05.17/outbox.cif.g08.bks.cpg/sg68_27_cif.got.tgz:53537.got - 2010.06.03 18:57:09.
