data_PCOD9508785
_publ_section_title
;
Structure prediction by ZEFSAII (Michael W. Deem and Ramdas Pophale) SiO2 
 PCOD9508785
Probable space group: C C C A
;
_chemical_formula_sum "Si O2"
_cell_formula_units_Z 60
_cell_length_a 5.648477
_cell_length_b 34.193648
_cell_length_c 13.377201
_cell_angle_alpha 90.000000
_cell_angle_beta 90.000000
_cell_angle_gamma 90.000000
_cell_volume 2583.699814
_symmetry_space_group_name_H-M "C C C A"
_symmetry_group_IT_number 68
_space_group.IT_coordinate_system_code '2'
_symmetry_cell_setting 'orthorhombic'
loop_
_space_group_symop_operation_xyz
x,y,z
-x,1/2-y,z
x,1/2-y,1/2-z
-x,y,1/2-z
-x,-y,-z
x,1/2+y,-z
-x,1/2+y,1/2+z
x,-y,1/2+z
1/2+x,1/2+y,z
1/2-x,-y,z
1/2+x,-y,1/2-z
1/2-x,1/2+y,1/2-z
1/2-x,1/2-y,-z
1/2+x,y,-z
1/2-x,y,1/2+z
1/2+x,1/2-y,1/2+z
loop_
_atom_site_type_symbol
_atom_site_label
_atom_site_fract_x
_atom_site_fract_y
_atom_site_fract_z
Si Si1 0.605098 0.595123 0.379456
Si Si2 0.500000 0.522407 0.250000
Si Si3 0.605928 0.375633 0.102011
Si Si4 0.500000 0.250000 0.750000
Si Si5 0.111393 0.210173 0.638716
O O1 0.562824 0.551388 0.341623
O O2 0.615913 0.600413 0.498867
O O3 0.363271 0.617693 0.348901
O O4 0.862627 0.610914 0.345981
O O5 0.250000 0.500000 0.269959
O O6 0.582227 0.329469 0.079552
O O7 0.371533 0.221408 0.672451
O O8 0.000000 0.250000 0.595159
O O9 0.000000 0.204121 0.750000
#
# Coordination Sequence:
#
# PCOD9508785 Si02
#       5
#    16   8  16   4  16
#     4  10  24  43  65 100 131 165 219 258 338 399
#     4  12  26  47  76 102 127 164 213 272 336 416
#     4  10  22  42  64  97 138 177 215 272 320 385
#     4   8  18  34  52  94 132 176 244 272 326 352
#     4   9  20  34  59  95 134 181 234 273 318 363
#
# _framework density 23.22251
#
# number of rings (size 3 to 8) (size 9 to 14) (size 15 to 20)
#    0.000    2.400    0.000    1.600   11.200    0.000 
#    0.000   21.333    0.000    0.000    0.000    0.000 
#    0.000    0.000    0.000    0.000    0.000    0.000 
#
# Total GULP energy -167202.375840 kJ/mol
# GULP energy per Si atom -5573.412528 kJ/mol
# Density = 2.316965 g / cm^3
# Si number density = 23.222510 Si / 1000 Ang^3
#
#
#
# Elastic Constant Matrix: (Units=GPa)
#
#
# Indices 1 2 3 4 5 6 
#
# 1 223.0991 74.0148 30.5335 0.0000 0.0000 0.0000
# 2 74.0148 174.7050 33.4054 0.0000 0.0000 0.0000
# 3 30.5335 33.4054 79.9450 0.0000 0.0000 0.0000
# 4 0.0000 0.0000 0.0000 -474.5032 0.0000 0.0000
# 5 0.0000 0.0000 0.0000 0.0000 19.8094 0.0000
# 6 0.0000 0.0000 0.0000 0.0000 0.0000 101.2927
#
#
#
# Elastic Compliance Matrix: (Units=1/GPa)
#
#
# Indices 1 2 3 4 5 6 
#
# 1 0.005316 -0.002026 -0.001184 0.000000 0.000000 0.000000
# 2 -0.002026 0.006993 -0.002148 0.000000 0.000000 0.000000
# 3 -0.001184 -0.002148 0.013858 0.000000 0.000000 0.000000
# 4 0.000000 0.000000 0.000000 -0.002107 0.000000 0.000000
# 5 0.000000 0.000000 0.000000 0.000000 0.050481 0.000000
# 6 0.000000 0.000000 0.000000 0.000000 0.000000 0.009872
#
#
# Mechanical properties :
#
#
# Convention : Reuss Voigt Hill
#
# Bulk Modulus (GPa) = 64.71855 83.73961 74.22908
# Shear Modulus (GPa) = 49.85991 -48.02720 0.91635
#
# Velocity S-wave (km/s) = 4.63865 -4.55260 0.62885
# Velocity P-wave (km/s) = 7.52455 2.91599 5.70622
#
# Compressibility (1/GPa) = 0.01545152
#
# Stress axis : x y z
#
# Youngs Moduli (GPa) = 188.09418 142.99961 72.15804
#
# Poissons Ratio (x) = 0.28971 0.08543
# Poissons Ratio (y) = 0.38107 0.15502
# Poissons Ratio (z) = 0.22270 0.30720
#
# Static dielectric constant tensor:
#      x y z
#    x 12.052380 0.000000 0.000000 
#    y 0.000000 1.843890 0.000000 
#    z 0.000000 0.000000 1.928480 
# 
# From -- ./inp_files/27095.got.cif
#   From: 2010.05.17/outbox.cif.g08.bks.cpg/sg68_14_cif.got.tgz:27095.got - 2010.06.03 18:57:09.
