data_PCOD9508283
_publ_section_title
;
Structure prediction by ZEFSAII (Michael W. Deem and Ramdas Pophale) SiO2 
 PCOD9508283
Probable space group: C C C A
;
_chemical_formula_sum "Si O2"
_cell_formula_units_Z 56
_cell_length_a 14.685205
_cell_length_b 11.728153
_cell_length_c 13.921442
_cell_angle_alpha 90.000000
_cell_angle_beta 90.000000
_cell_angle_gamma 90.000000
_cell_volume 2397.694565
_symmetry_space_group_name_H-M "C C C A"
_symmetry_group_IT_number 68
_space_group.IT_coordinate_system_code '2'
_symmetry_cell_setting 'orthorhombic'
loop_
_space_group_symop_operation_xyz
x,y,z
-x,1/2-y,z
x,1/2-y,1/2-z
-x,y,1/2-z
-x,-y,-z
x,1/2+y,-z
-x,1/2+y,1/2+z
x,-y,1/2+z
1/2+x,1/2+y,z
1/2-x,-y,z
1/2+x,-y,1/2-z
1/2-x,1/2+y,1/2-z
1/2-x,1/2-y,-z
1/2+x,y,-z
1/2-x,y,1/2+z
1/2+x,1/2-y,1/2+z
loop_
_atom_site_type_symbol
_atom_site_label
_atom_site_fract_x
_atom_site_fract_y
_atom_site_fract_z
Si Si1 0.286803 0.815028 0.595490
Si Si2 0.500000 0.467682 0.750000
Si Si3 0.841456 0.922640 0.136872
Si Si4 0.112710 0.455041 0.419225
O O1 0.250000 0.750000 0.500000
O O2 0.315162 0.706902 0.656240
O O3 0.200107 0.889750 0.624770
O O4 0.365813 0.908812 0.580553
O O5 0.589664 0.535372 0.782423
O O6 0.530968 0.413779 0.648808
O O7 0.750000 0.000000 0.130177
O O8 0.890751 0.926006 0.032259
#
# Coordination Sequence:
#
# PCOD9508283 Si02
#       4
#    16   8  16  16
#     4   9  18  41  73  90 126 182 225 260 335 400
#     4  12  28  41  65 114 134 168 231 287 336 396
#     4  11  23  44  71  93 136 183 220 273 337 401
#     4  10  21  44  68  96 132 178 222 275 330 403
#
# _framework density 23.355767
#
# number of rings (size 3 to 8) (size 9 to 14) (size 15 to 20)
#    0.000    1.714    5.714    0.857    4.000    3.429 
#    0.000    2.857    0.000    0.000    0.000    0.000 
#    0.000    0.000    0.000    0.000    0.000    0.000 
#
# Total GULP energy -156138.534669 kJ/mol
# GULP energy per Si atom -5576.376238 kJ/mol
# Density = 2.330261 g / cm^3
# Si number density = 23.355767 Si / 1000 Ang^3
#
#
#
# Elastic Constant Matrix: (Units=GPa)
#
#
# Indices 1 2 3 4 5 6 
#
# 1 59.1931 10.1540 41.7075 0.0000 0.0000 0.0000
# 2 10.1540 118.6336 20.1481 0.0000 0.0000 0.0000
# 3 41.7075 20.1481 152.8428 0.0000 0.0000 0.0000
# 4 0.0000 0.0000 0.0000 14.4655 0.0000 0.0000
# 5 0.0000 0.0000 0.0000 0.0000 12.4761 0.0000
# 6 0.0000 0.0000 0.0000 0.0000 0.0000 14.4102
#
#
#
# Elastic Compliance Matrix: (Units=1/GPa)
#
#
# Indices 1 2 3 4 5 6 
#
# 1 0.020997 -0.000843 -0.005619 0.000000 0.000000 0.000000
# 2 -0.000843 0.008656 -0.000911 0.000000 0.000000 0.000000
# 3 -0.005619 -0.000911 0.008196 0.000000 0.000000 0.000000
# 4 0.000000 0.000000 0.000000 0.069130 0.000000 0.000000
# 5 0.000000 0.000000 0.000000 0.000000 0.080153 0.000000
# 6 0.000000 0.000000 0.000000 0.000000 0.000000 0.069395
#
#
# Mechanical properties :
#
#
# Convention : Reuss Voigt Hill
#
# Bulk Modulus (GPa) = 43.28206 52.74321 48.01264
# Shear Modulus (GPa) = 17.92275 25.51434 21.71854
#
# Velocity S-wave (km/s) = 2.77317 3.30877 3.05274
# Velocity P-wave (km/s) = 5.36897 6.10154 5.74694
#
# Compressibility (1/GPa) = 0.02310426
#
# Stress axis : x y z
#
# Youngs Moduli (GPa) = 47.62508 115.52423 122.01128
#
# Poissons Ratio (x) = 0.09738 0.68553
# Poissons Ratio (y) = 0.04015 0.11116
# Poissons Ratio (z) = 0.26759 0.10525
#
# Static dielectric constant tensor:
#      x y z
#    x 1.942550 0.000000 0.000000 
#    y 0.000000 1.915150 0.000000 
#    z 0.000000 0.000000 1.951190 
# 
# From -- ./inp_files/20109.got.cif
#   From: 2010.05.17/outbox.cif.g08.bks.cpg/sg68_11_cif.got.tgz:20109.got - 2010.06.03 18:57:09.
