data_PCOD9508862
_publ_section_title
;
Structure prediction by ZEFSAII (Michael W. Deem and Ramdas Pophale) SiO2 
 PCOD9508862
Probable space group: C C C A
;
_chemical_formula_sum "Si O2"
_cell_formula_units_Z 56
_cell_length_a 5.210214
_cell_length_b 14.156485
_cell_length_c 33.779733
_cell_angle_alpha 90.000000
_cell_angle_beta 90.000000
_cell_angle_gamma 90.000000
_cell_volume 2491.536232
_symmetry_space_group_name_H-M "C C C A"
_symmetry_group_IT_number 68
_space_group.IT_coordinate_system_code '2'
_symmetry_cell_setting 'orthorhombic'
loop_
_space_group_symop_operation_xyz
x,y,z
-x,1/2-y,z
x,1/2-y,1/2-z
-x,y,1/2-z
-x,-y,-z
x,1/2+y,-z
-x,1/2+y,1/2+z
x,-y,1/2+z
1/2+x,1/2+y,z
1/2-x,-y,z
1/2+x,-y,1/2-z
1/2-x,1/2+y,1/2-z
1/2-x,1/2-y,-z
1/2+x,y,-z
1/2-x,y,1/2+z
1/2+x,1/2-y,1/2+z
loop_
_atom_site_type_symbol
_atom_site_label
_atom_site_fract_x
_atom_site_fract_y
_atom_site_fract_z
Si Si1 0.750000 0.000000 0.472724
Si Si2 0.893428 0.902619 0.668282
Si Si3 0.500000 0.250000 0.346194
Si Si4 0.641009 0.346283 0.591529
Si Si5 0.750000 0.500000 0.723618
O O1 0.763477 0.090729 0.444121
O O2 0.500000 0.000000 0.500000
O O3 0.716670 0.811072 0.676268
O O4 0.951167 0.900010 0.621468
O O5 0.146865 0.915023 0.695487
O O6 0.750000 0.000000 0.675640
O O7 0.639933 0.180463 0.377098
O O8 0.500000 0.250000 0.578348
O O9 0.500000 0.525445 0.750000
#
# Coordination Sequence:
#
# PCOD9508862 Si02
#       5
#     8  16   8  16   8
#     4  12  29  44  67 102 148 190 230 288 369 442
#     4  11  22  43  76 108 138 190 250 304 358 434
#     4  10  22  42  76 107 138 180 254 312 350 416
#     4  10  24  43  71 101 137 183 246 301 351 422
#     4  12  25  42  71 110 148 192 236 292 375 454
#
# _framework density 22.476092999999999
#
# number of rings (size 3 to 8) (size 9 to 14) (size 15 to 20)
#    0.000    1.143    1.429    4.286   10.000    1.143 
#    0.000    0.000    0.000   35.143    0.000    0.000 
#    0.000    0.000    0.000    0.000    0.000    0.000 
#
# Total GULP energy -156426.618083 kJ/mol
# GULP energy per Si atom -5586.664932 kJ/mol
# Density = 2.242494 g / cm^3
# Si number density = 22.476093 Si / 1000 Ang^3
#
#
#
# Elastic Constant Matrix: (Units=GPa)
#
#
# Indices 1 2 3 4 5 6 
#
# 1 159.7472 78.4395 72.1006 0.0000 0.0000 0.0000
# 2 78.4395 126.1642 93.8250 0.0000 0.0000 0.0000
# 3 72.1006 93.8250 129.3032 0.0000 0.0000 0.0000
# 4 0.0000 0.0000 0.0000 2.8627 0.0000 0.0000
# 5 0.0000 0.0000 0.0000 0.0000 11.9432 0.0000
# 6 0.0000 0.0000 0.0000 0.0000 0.0000 47.0318
#
#
#
# Elastic Compliance Matrix: (Units=1/GPa)
#
#
# Indices 1 2 3 4 5 6 
#
# 1 0.009277 -0.004172 -0.002145 0.000000 0.000000 0.000000
# 2 -0.004172 0.019093 -0.011528 0.000000 0.000000 0.000000
# 3 -0.002145 -0.011528 0.017295 0.000000 0.000000 0.000000
# 4 0.000000 0.000000 0.000000 0.349316 0.000000 0.000000
# 5 0.000000 0.000000 0.000000 0.000000 0.083729 0.000000
# 6 0.000000 0.000000 0.000000 0.000000 0.000000 0.021262
#
#
# Mechanical properties :
#
#
# Convention : Reuss Voigt Hill
#
# Bulk Modulus (GPa) = 100.26176 100.43833 100.35005
# Shear Modulus (GPa) = 9.27664 23.75751 16.51707
#
# Velocity S-wave (km/s) = 2.03379 3.25470 2.71380
# Velocity P-wave (km/s) = 7.08661 7.67514 7.38674
#
# Compressibility (1/GPa) = 0.00997389
#
# Stress axis : x y z
#
# Youngs Moduli (GPa) = 107.79535 52.37489 57.82018
#
# Poissons Ratio (x) = 0.21851 0.12405
# Poissons Ratio (y) = 0.44973 0.66655
# Poissons Ratio (z) = 0.23127 0.60377
#
# Static dielectric constant tensor:
#      x y z
#    x 2.205670 0.000000 0.000000 
#    y 0.000000 1.946710 0.000000 
#    z 0.000000 0.000000 1.792600 
# 
# From -- ./inp_files/52810.got.cif
#   From: 2010.05.17/outbox.cif.g08.bks.cpg/sg68_27_cif.got.tgz:52810.got - 2010.06.03 18:57:09.
