data_PCOD9508294
_publ_section_title
;
Structure prediction by ZEFSAII (Michael W. Deem and Ramdas Pophale) SiO2 
 PCOD9508294
Probable space group: C C C A
;
_chemical_formula_sum "Si O2"
_cell_formula_units_Z 72
_cell_length_a 12.699364
_cell_length_b 26.394333
_cell_length_c 9.315943
_cell_angle_alpha 90.000000
_cell_angle_beta 90.000000
_cell_angle_gamma 90.000000
_cell_volume 3122.622507
_symmetry_space_group_name_H-M "C C C A"
_symmetry_group_IT_number 68
_space_group.IT_coordinate_system_code '2'
_symmetry_cell_setting 'orthorhombic'
loop_
_space_group_symop_operation_xyz
x,y,z
-x,1/2-y,z
x,1/2-y,1/2-z
-x,y,1/2-z
-x,-y,-z
x,1/2+y,-z
-x,1/2+y,1/2+z
x,-y,1/2+z
1/2+x,1/2+y,z
1/2-x,-y,z
1/2+x,-y,1/2-z
1/2-x,1/2+y,1/2-z
1/2-x,1/2-y,-z
1/2+x,y,-z
1/2-x,y,1/2+z
1/2+x,1/2-y,1/2+z
loop_
_atom_site_type_symbol
_atom_site_label
_atom_site_fract_x
_atom_site_fract_y
_atom_site_fract_z
Si Si1 0.621952 0.074823 0.625693
Si Si2 0.000000 0.507857 0.250000
Si Si3 0.678535 0.798977 0.839513
Si Si4 0.684539 0.083736 0.319922
Si Si5 0.894342 0.189595 0.166905
O O1 0.693754 0.073226 0.487165
O O2 0.702530 0.071723 0.755577
O O3 0.579687 0.131405 0.629353
O O4 0.533288 0.032544 0.627944
O O5 0.901761 0.544683 0.234325
O O6 0.636431 0.750000 0.750000
O O7 0.647051 0.857389 0.799336
O O8 0.800755 0.802987 0.784369
O O9 0.649358 0.791083 0.009366
O O10 0.000000 0.204599 0.250000
#
# Coordination Sequence:
#
# PCOD9508294 Si02
#       5
#    16   8  16  16  16
#     4  10  22  42  64  97 141 179 225 292 354 416
#     4  12  22  38  65  98 137 184 236 278 350 418
#     4  10  22  45  73 104 145 185 238 306 361 425
#     4  10  24  41  65  98 133 184 231 286 349 426
#     4  10  21  44  74 109 145 188 237 297 367 437
#
# _framework density 23.057542999999999
#
# number of rings (size 3 to 8) (size 9 to 14) (size 15 to 20)
#    0.000    1.778    1.111    2.000    0.000    5.778 
#   20.000    0.556    4.889    0.000    0.000    0.000 
#    0.000    0.000    0.000    0.000    0.000    0.000 
#
# Total GULP energy -200445.833201 kJ/mol
# GULP energy per Si atom -5567.939811 kJ/mol
# Density = 2.300506 g / cm^3
# Si number density = 23.057543 Si / 1000 Ang^3
#
#
#
# Elastic Constant Matrix: (Units=GPa)
#
#
# Indices 1 2 3 4 5 6 
#
# 1 64.2298 48.2579 44.8610 0.0000 0.0000 0.0000
# 2 48.2579 178.9034 49.6639 0.0000 0.0000 0.0000
# 3 44.8610 49.6639 113.2286 0.0000 0.0000 0.0000
# 4 0.0000 0.0000 0.0000 54.1793 0.0000 0.0000
# 5 0.0000 0.0000 0.0000 0.0000 6.9801 0.0000
# 6 0.0000 0.0000 0.0000 0.0000 0.0000 108.6700
#
#
#
# Elastic Compliance Matrix: (Units=1/GPa)
#
#
# Indices 1 2 3 4 5 6 
#
# 1 0.024238 -0.004409 -0.007669 0.000000 0.000000 0.000000
# 2 -0.004409 0.007167 -0.001397 0.000000 0.000000 0.000000
# 3 -0.007669 -0.001397 0.012483 0.000000 0.000000 0.000000
# 4 0.000000 0.000000 0.000000 0.018457 0.000000 0.000000
# 5 0.000000 0.000000 0.000000 0.000000 0.143264 0.000000
# 6 0.000000 0.000000 0.000000 0.000000 0.000000 0.009202
#
#
# Mechanical properties :
#
#
# Convention : Reuss Voigt Hill
#
# Bulk Modulus (GPa) = 59.03907 71.32527 65.18217
# Shear Modulus (GPa) = 20.20964 48.20448 34.20706
#
# Velocity S-wave (km/s) = 2.96376 4.57729 3.85587
# Velocity P-wave (km/s) = 6.11331 7.67699 6.93933
#
# Compressibility (1/GPa) = 0.01693794
#
# Stress axis : x y z
#
# Youngs Moduli (GPa) = 41.25689 139.53606 80.11031
#
# Poissons Ratio (x) = 0.61523 0.61439
# Poissons Ratio (y) = 0.18191 0.11187
# Poissons Ratio (z) = 0.31641 0.19486
#
# Static dielectric constant tensor:
#      x y z
#    x 2.135620 0.000000 0.000000 
#    y 0.000000 1.964510 0.000000 
#    z 0.000000 0.000000 1.901750 
# 
# From -- ./inp_files/5222.got.cif
#   From: 2010.05.17/outbox.cif.g08.bks.cpg/sg68_3_cif.got.tgz:5222.got - 2010.06.03 18:57:09.
