data_PCOD9508673
_publ_section_title
;
Structure prediction by ZEFSAII (Michael W. Deem and Ramdas Pophale) SiO2 
 PCOD9508673
Probable space group: C C C A
;
_chemical_formula_sum "Si O2"
_cell_formula_units_Z 80
_cell_length_a 15.315150
_cell_length_b 23.471442
_cell_length_c 9.150386
_cell_angle_alpha 90.000000
_cell_angle_beta 90.000000
_cell_angle_gamma 90.000000
_cell_volume 3289.276948
_symmetry_space_group_name_H-M "C C C A"
_symmetry_group_IT_number 68
_space_group.IT_coordinate_system_code '2'
_symmetry_cell_setting 'orthorhombic'
loop_
_space_group_symop_operation_xyz
x,y,z
-x,1/2-y,z
x,1/2-y,1/2-z
-x,y,1/2-z
-x,-y,-z
x,1/2+y,-z
-x,1/2+y,1/2+z
x,-y,1/2+z
1/2+x,1/2+y,z
1/2-x,-y,z
1/2+x,-y,1/2-z
1/2-x,1/2+y,1/2-z
1/2-x,1/2-y,-z
1/2+x,y,-z
1/2-x,y,1/2+z
1/2+x,1/2-y,1/2+z
loop_
_atom_site_type_symbol
_atom_site_label
_atom_site_fract_x
_atom_site_fract_y
_atom_site_fract_z
Si Si1 0.162814 0.523849 0.572842
Si Si2 0.094812 0.426909 0.794645
Si Si3 0.420461 0.323674 0.935048
Si Si4 0.890685 0.804269 0.586904
Si Si5 0.275387 0.869263 0.871349
O O1 0.250000 0.500000 0.492769
O O2 0.125744 0.477413 0.683292
O O3 0.096369 0.544647 0.452400
O O4 0.205270 0.579562 0.644924
O O5 0.166106 0.376473 0.774770
O O6 0.000000 0.407941 0.750000
O O7 0.406872 0.314415 0.761565
O O8 0.401372 0.258511 0.981900
O O9 0.522026 0.336798 0.970342
O O10 0.352237 0.367400 0.006163
O O11 0.789117 0.819504 0.581065
#
# Coordination Sequence:
#
# PCOD9508673 Si02
#       5
#    16  16  16  16  16
#     4  10  22  41  61  85 123 161 202 260 314 373
#     4  11  24  41  61  89 128 162 210 261 318 377
#     4   9  19  36  59  86 123 161 208 255 304 376
#     4   9  19  37  57  88 123 161 206 255 308 374
#     4  11  21  35  64  90 121 161 211 259 315 372
#
# _framework density 24.321453000000002
#
# number of rings (size 3 to 8) (size 9 to 14) (size 15 to 20)
#    0.000    2.000    0.000    5.400    2.800    1.600 
#    3.600    0.000    0.000    0.000    0.000    0.000 
#    0.000    0.000    0.000    0.000    0.000    0.000 
#
# Total GULP energy -222763.845929 kJ/mol
# GULP energy per Si atom -5569.096148 kJ/mol
# Density = 2.426610 g / cm^3
# Si number density = 24.321453 Si / 1000 Ang^3
#
#
#
# Elastic Constant Matrix: (Units=GPa)
#
#
# Indices 1 2 3 4 5 6 
#
# 1 149.3251 20.8489 11.8886 0.0000 0.0000 0.0000
# 2 20.8489 63.7409 1.5913 0.0000 0.0000 0.0000
# 3 11.8886 1.5913 36.4295 0.0000 0.0000 0.0000
# 4 0.0000 0.0000 0.0000 16.2249 0.0000 0.0000
# 5 0.0000 0.0000 0.0000 0.0000 32.6685 0.0000
# 6 0.0000 0.0000 0.0000 0.0000 0.0000 33.9409
#
#
#
# Elastic Compliance Matrix: (Units=1/GPa)
#
#
# Indices 1 2 3 4 5 6 
#
# 1 0.007197 -0.002298 -0.002248 0.000000 0.000000 0.000000
# 2 -0.002298 0.016439 0.000032 0.000000 0.000000 0.000000
# 3 -0.002248 0.000032 0.028183 0.000000 0.000000 0.000000
# 4 0.000000 0.000000 0.000000 0.061634 0.000000 0.000000
# 5 0.000000 0.000000 0.000000 0.000000 0.030611 0.000000
# 6 0.000000 0.000000 0.000000 0.000000 0.000000 0.029463
#
#
# Mechanical properties :
#
#
# Convention : Reuss Voigt Hill
#
# Bulk Modulus (GPa) = 23.36990 35.35033 29.36012
# Shear Modulus (GPa) = 25.40424 30.91131 28.15777
#
# Velocity S-wave (km/s) = 3.23541 3.56890 3.40624
# Velocity P-wave (km/s) = 4.85662 5.61685 5.25051
#
# Compressibility (1/GPa) = 0.04279009
#
# Stress axis : x y z
#
# Youngs Moduli (GPa) = 138.95425 60.82982 35.48286
#
# Poissons Ratio (x) = 0.13978 0.07977
# Poissons Ratio (y) = 0.31929 -0.00113
# Poissons Ratio (z) = 0.31240 -0.00193
#
# Static dielectric constant tensor:
#      x y z
#    x 1.963500 0.000000 0.000000 
#    y 0.000000 2.076520 0.000000 
#    z 0.000000 0.000000 1.960760 
# 
# From -- ./inp_files/13166.got.cif
#   From: 2010.05.17/outbox.cif.g08.bks.cpg/sg68_7_cif.got.tgz:13166.got - 2010.06.03 18:57:09.
