data_PCOD9508393
_publ_section_title
;
Structure prediction by ZEFSAII (Michael W. Deem and Ramdas Pophale) SiO2 
 PCOD9508393
Probable space group: C C C A
;
_chemical_formula_sum "Si O2"
_cell_formula_units_Z 92
_cell_length_a 16.035267
_cell_length_b 19.313467
_cell_length_c 15.096873
_cell_angle_alpha 90.000000
_cell_angle_beta 90.000000
_cell_angle_gamma 90.000000
_cell_volume 4675.450239
_symmetry_space_group_name_H-M "C C C A"
_symmetry_group_IT_number 68
_space_group.IT_coordinate_system_code '2'
_symmetry_cell_setting 'orthorhombic'
loop_
_space_group_symop_operation_xyz
x,y,z
-x,1/2-y,z
x,1/2-y,1/2-z
-x,y,1/2-z
-x,-y,-z
x,1/2+y,-z
-x,1/2+y,1/2+z
x,-y,1/2+z
1/2+x,1/2+y,z
1/2-x,-y,z
1/2+x,-y,1/2-z
1/2-x,1/2+y,1/2-z
1/2-x,1/2-y,-z
1/2+x,y,-z
1/2-x,y,1/2+z
1/2+x,1/2-y,1/2+z
loop_
_atom_site_type_symbol
_atom_site_label
_atom_site_fract_x
_atom_site_fract_y
_atom_site_fract_z
Si Si1 0.176282 0.857337 0.033148
Si Si2 0.914222 0.772050 0.069242
Si Si3 0.819478 0.560560 0.215024
Si Si4 0.325702 0.091696 0.412113
Si Si5 0.500000 0.250000 0.250000
Si Si6 0.935686 0.539645 0.937158
Si Si7 0.000000 0.989832 0.750000
O O1 0.160196 0.775594 0.034911
O O2 0.183140 0.888910 0.131494
O O3 0.254081 0.883872 0.977177
O O4 0.097151 0.892881 0.985594
O O5 0.899349 0.853579 0.069788
O O6 0.929688 0.751099 0.171277
O O7 0.000000 0.750000 0.022248
O O8 0.750000 0.500000 0.202275
O O9 0.799792 0.595761 0.309353
O O10 0.915992 0.533532 0.225476
O O11 0.358342 0.014093 0.426826
O O12 0.974519 0.549998 0.839605
O O13 0.000000 0.500000 0.000000
#
# Coordination Sequence:
#
# PCOD9508393 Si02
#       7
#    16  16  16  16   4  16   8
#     4  12  23  39  62  93 129 166 212 267 329 382
#     4  10  22  38  63  90 119 160 214 267 319 383
#     4  11  23  39  61  95 129 168 209 271 320 389
#     4  11  23  39  60  89 128 162 209 263 323 386
#     4   8  20  38  64  88 116 148 214 266 312 362
#     4  11  21  37  61  92 125 165 208 261 321 387
#     4  10  22  37  64  89 131 165 216 254 328 377
#
# _framework density 19.677249
#
# number of rings (size 3 to 8) (size 9 to 14) (size 15 to 20)
#    0.522    0.696    1.739    6.261    2.435    0.696 
#    0.000    0.000    0.000    0.000    0.000    0.000 
#    0.000    0.000    0.000    0.000    0.000    0.000 
#
# Total GULP energy -256097.823166 kJ/mol
# GULP energy per Si atom -5567.343982 kJ/mol
# Density = 1.963246 g / cm^3
# Si number density = 19.677249 Si / 1000 Ang^3
#
#
#
# Elastic Constant Matrix: (Units=GPa)
#
#
# Indices 1 2 3 4 5 6 
#
# 1 79.0369 6.8248 22.3499 0.0000 0.0000 0.0000
# 2 6.8248 70.0373 10.2719 0.0000 0.0000 0.0000
# 3 22.3499 10.2719 117.4175 0.0000 0.0000 0.0000
# 4 0.0000 0.0000 0.0000 -0.7743 0.0000 0.0000
# 5 0.0000 0.0000 0.0000 0.0000 37.8072 0.0000
# 6 0.0000 0.0000 0.0000 0.0000 0.0000 20.3683
#
#
#
# Elastic Compliance Matrix: (Units=1/GPa)
#
#
# Indices 1 2 3 4 5 6 
#
# 1 0.013434 -0.000946 -0.002474 0.000000 0.000000 0.000000
# 2 -0.000946 0.014530 -0.001091 0.000000 0.000000 0.000000
# 3 -0.002474 -0.001091 0.009083 0.000000 0.000000 0.000000
# 4 0.000000 0.000000 0.000000 -1.291524 0.000000 0.000000
# 5 0.000000 0.000000 0.000000 0.000000 0.026450 0.000000
# 6 0.000000 0.000000 0.000000 0.000000 0.000000 0.049096
#
#
# Mechanical properties :
#
#
# Convention : Reuss Voigt Hill
#
# Bulk Modulus (GPa) = 35.68361 38.37611 37.02986
# Shear Modulus (GPa) = -4.30824 26.61658 11.15417
#
# Velocity S-wave (km/s) = -1.48128 3.68184 2.38346
# Velocity P-wave (km/s) = 3.90490 6.13349 5.14140
#
# Compressibility (1/GPa) = 0.02802407
#
# Stress axis : x y z
#
# Youngs Moduli (GPa) = 74.43975 68.82162 110.09535
#
# Poissons Ratio (x) = 0.06512 0.27241
# Poissons Ratio (y) = 0.07043 0.12012
# Poissons Ratio (z) = 0.18418 0.07509
#
# Static dielectric constant tensor:
#      x y z
#    x 1.608610 0.000000 0.000000 
#    y 0.000000 1.690310 0.000000 
#    z 0.000000 0.000000 1.664500 
# 
# From -- ./inp_files/22429.got.cif
#   From: 2010.05.17/outbox.cif.g08.bks.cpg/sg68_12_cif.got.tgz:22429.got - 2010.06.03 18:57:09.
