data_PCOD9508326
_publ_section_title
;
Structure prediction by ZEFSAII (Michael W. Deem and Ramdas Pophale) SiO2 
 PCOD9508326
Probable space group: C C C A
;
_chemical_formula_sum "Si O2"
_cell_formula_units_Z 96
_cell_length_a 27.543924
_cell_length_b 10.413366
_cell_length_c 16.989085
_cell_angle_alpha 90.000000
_cell_angle_beta 90.000000
_cell_angle_gamma 90.000000
_cell_volume 4872.893654
_symmetry_space_group_name_H-M "C C C A"
_symmetry_group_IT_number 68
_space_group.IT_coordinate_system_code '2'
_symmetry_cell_setting 'orthorhombic'
loop_
_space_group_symop_operation_xyz
x,y,z
-x,1/2-y,z
x,1/2-y,1/2-z
-x,y,1/2-z
-x,-y,-z
x,1/2+y,-z
-x,1/2+y,1/2+z
x,-y,1/2+z
1/2+x,1/2+y,z
1/2-x,-y,z
1/2+x,-y,1/2-z
1/2-x,1/2+y,1/2-z
1/2-x,1/2-y,-z
1/2+x,y,-z
1/2-x,y,1/2+z
1/2+x,1/2-y,1/2+z
loop_
_atom_site_type_symbol
_atom_site_label
_atom_site_fract_x
_atom_site_fract_y
_atom_site_fract_z
Si Si1 0.944666 0.248963 0.404899
Si Si2 0.125131 0.750000 0.750000
Si Si3 0.159753 0.137941 0.636822
Si Si4 0.693365 0.989719 0.231640
Si Si5 0.912895 0.521245 0.022791
Si Si6 0.680025 0.586612 0.932720
Si Si7 0.250000 0.000000 0.052385
O O1 0.907811 0.259616 0.329782
O O2 0.936540 0.368257 0.466742
O O3 0.000000 0.250000 0.375515
O O4 0.938713 0.111072 0.449825
O O5 0.162075 0.630989 0.759912
O O6 0.165538 0.108556 0.728438
O O7 0.109484 0.087015 0.600824
O O8 0.167173 0.280045 0.606747
O O9 0.205709 0.060128 0.600270
O O10 0.692579 0.990971 0.137766
O O11 0.750000 0.000000 0.252612
O O12 0.866245 0.470775 0.975696
O O13 0.723596 0.600125 0.994333
#
# Coordination Sequence:
#
# PCOD9508326 Si02
#       7
#    16   8  16  16  16  16   8
#     4  12  25  48  75 101 131 176 225 285 351 408
#     4  12  27  46  66  96 142 174 229 276 336 400
#     4  11  22  38  59  87 132 172 219 275 338 386
#     4  12  25  39  60  91 130 184 223 269 326 406
#     4  11  23  43  69  98 128 164 216 284 336 408
#     4  11  22  38  59  87 132 172 219 275 338 386
#     4  10  22  34  58  90 118 180 234 278 318 404
#
# _framework density 19.70082
#
# number of rings (size 3 to 8) (size 9 to 14) (size 15 to 20)
#    0.000    0.667    6.667    1.750    2.333    0.000 
#    0.000    0.000    0.000    0.000    0.000    7.000 
#    0.000    0.000    0.000    0.000    0.000    0.000 
#
# Total GULP energy -267599.393687 kJ/mol
# GULP energy per Si atom -5574.987368 kJ/mol
# Density = 1.965598 g / cm^3
# Si number density = 19.700820 Si / 1000 Ang^3
#
#
#
# Elastic Constant Matrix: (Units=GPa)
#
#
# Indices 1 2 3 4 5 6 
#
# 1 108.5366 34.5361 28.8869 0.0000 0.0000 0.0000
# 2 34.5361 99.9239 11.6890 0.0000 0.0000 0.0000
# 3 28.8869 11.6890 75.9872 0.0000 0.0000 0.0000
# 4 0.0000 0.0000 0.0000 27.9732 0.0000 0.0000
# 5 0.0000 0.0000 0.0000 0.0000 -16.3690 0.0000
# 6 0.0000 0.0000 0.0000 0.0000 0.0000 17.7485
#
#
#
# Elastic Compliance Matrix: (Units=1/GPa)
#
#
# Indices 1 2 3 4 5 6 
#
# 1 0.011322 -0.003472 -0.003770 0.000000 0.000000 0.000000
# 2 -0.003472 0.011256 -0.000412 0.000000 0.000000 0.000000
# 3 -0.003770 -0.000412 0.014657 0.000000 0.000000 0.000000
# 4 0.000000 0.000000 0.000000 0.035749 0.000000 0.000000
# 5 0.000000 0.000000 0.000000 0.000000 -0.061091 0.000000
# 6 0.000000 0.000000 0.000000 0.000000 0.000000 0.056343
#
#
# Mechanical properties :
#
#
# Convention : Reuss Voigt Hill
#
# Bulk Modulus (GPa) = 45.60578 48.29686 46.95132
# Shear Modulus (GPa) = 55.03578 19.82626 37.43102
#
# Velocity S-wave (km/s) = 5.29116 3.17577 4.36360
# Velocity P-wave (km/s) = 7.77997 6.16569 7.01939
#
# Compressibility (1/GPa) = 0.02192705
#
# Stress axis : x y z
#
# Youngs Moduli (GPa) = 88.32663 88.84334 68.22882
#
# Poissons Ratio (x) = 0.30847 0.25721
# Poissons Ratio (y) = 0.30667 0.02808
# Poissons Ratio (z) = 0.33298 0.03656
#
# Static dielectric constant tensor:
#      x y z
#    x 1.666710 0.000000 0.000000 
#    y 0.000000 1.660230 0.000000 
#    z 0.000000 0.000000 1.730490 
# 
# From -- ./inp_files/33579.got.cif
#   From: 2010.05.17/outbox.cif.g08.bks.cpg/sg68_17_cif.got.tgz:33579.got - 2010.06.03 18:57:09.
