data_PCOD9508327
_publ_section_title
;
Structure prediction by ZEFSAII (Michael W. Deem and Ramdas Pophale) SiO2 
 PCOD9508327
Probable space group: C C C A
;
_chemical_formula_sum "Si O2"
_cell_formula_units_Z 96
_cell_length_a 20.973593
_cell_length_b 22.425451
_cell_length_c 9.727827
_cell_angle_alpha 90.000000
_cell_angle_beta 90.000000
_cell_angle_gamma 90.000000
_cell_volume 4575.408351
_symmetry_space_group_name_H-M "C C C A"
_symmetry_group_IT_number 68
_space_group.IT_coordinate_system_code '2'
_symmetry_cell_setting 'orthorhombic'
loop_
_space_group_symop_operation_xyz
x,y,z
-x,1/2-y,z
x,1/2-y,1/2-z
-x,y,1/2-z
-x,-y,-z
x,1/2+y,-z
-x,1/2+y,1/2+z
x,-y,1/2+z
1/2+x,1/2+y,z
1/2-x,-y,z
1/2+x,-y,1/2-z
1/2-x,1/2+y,1/2-z
1/2-x,1/2-y,-z
1/2+x,y,-z
1/2-x,y,1/2+z
1/2+x,1/2-y,1/2+z
loop_
_atom_site_type_symbol
_atom_site_label
_atom_site_fract_x
_atom_site_fract_y
_atom_site_fract_z
Si Si1 0.737870 0.124713 0.076309
Si Si2 0.569644 0.596939 0.218334
Si Si3 0.795832 0.445849 0.187403
Si Si4 0.628553 0.683801 0.754698
Si Si5 0.366064 0.684814 0.058217
Si Si6 0.558124 0.795159 0.484760
O O1 0.773195 0.072523 0.160623
O O2 0.676500 0.141214 0.165264
O O3 0.719019 0.105853 0.923353
O O4 0.790877 0.175840 0.073380
O O5 0.500000 0.570387 0.250000
O O6 0.627150 0.550667 0.189238
O O7 0.596458 0.641370 0.337930
O O8 0.557021 0.643004 0.094010
O O9 0.750000 0.500000 0.146092
O O10 0.658875 0.750000 0.750000
O O11 0.615682 0.666488 0.598330
O O12 0.568356 0.692399 0.854478
O O13 0.383766 0.754238 0.070261
O O14 0.500000 0.750000 0.460696
#
# Coordination Sequence:
#
# PCOD9508327 Si02
#       6
#    16  16  16  16  16  16
#     4  11  21  41  62  92 126 164 221 280 335 394
#     4  11  22  40  65  96 131 172 220 273 329 400
#     4  11  24  42  70  93 122 168 228 291 345 383
#     4  10  22  36  55  92 134 176 211 254 329 398
#     4  10  22  34  58  90 133 172 217 259 320 403
#     4  11  21  37  58  90 134 181 216 253 318 407
#
# _framework density 20.981732999999998
#
# number of rings (size 3 to 8) (size 9 to 14) (size 15 to 20)
#    0.000    1.333    5.000    1.000    0.000    8.333 
#    0.000    0.000    0.000   11.000    0.000    0.000 
#    0.000    0.000    0.000    0.000    0.000    0.000 
#
# Total GULP energy -267857.476733 kJ/mol
# GULP energy per Si atom -5580.364099 kJ/mol
# Density = 2.093398 g / cm^3
# Si number density = 20.981733 Si / 1000 Ang^3
#
#
#
# Elastic Constant Matrix: (Units=GPa)
#
#
# Indices 1 2 3 4 5 6 
#
# 1 120.7039 30.6877 5.9219 0.0000 0.0000 0.0000
# 2 30.6877 29.9839 -9.3570 0.0000 0.0000 0.0000
# 3 5.9219 -9.3570 82.0972 0.0000 0.0000 0.0000
# 4 0.0000 0.0000 0.0000 17.1393 0.0000 0.0000
# 5 0.0000 0.0000 0.0000 0.0000 24.4441 0.0000
# 6 0.0000 0.0000 0.0000 0.0000 0.0000 29.4947
#
#
#
# Elastic Compliance Matrix: (Units=1/GPa)
#
#
# Indices 1 2 3 4 5 6 
#
# 1 0.011593 -0.012573 -0.002269 0.000000 0.000000 0.000000
# 2 -0.012573 0.048217 0.006402 0.000000 0.000000 0.000000
# 3 -0.002269 0.006402 0.013074 0.000000 0.000000 0.000000
# 4 0.000000 0.000000 0.000000 0.058345 0.000000 0.000000
# 5 0.000000 0.000000 0.000000 0.000000 0.040910 0.000000
# 6 0.000000 0.000000 0.000000 0.000000 0.000000 0.033904
#
#
# Mechanical properties :
#
#
# Convention : Reuss Voigt Hill
#
# Bulk Modulus (GPa) = 17.85566 31.92113 24.88840
# Shear Modulus (GPa) = 20.69617 27.91777 24.30697
#
# Velocity S-wave (km/s) = 3.14409 3.65166 3.40734
# Velocity P-wave (km/s) = 4.65929 5.74685 5.23141
#
# Compressibility (1/GPa) = 0.05600464
#
# Stress axis : x y z
#
# Youngs Moduli (GPa) = 86.26212 20.73952 76.48722
#
# Poissons Ratio (x) = 0.26075 0.17356
# Poissons Ratio (y) = 1.08456 -0.48970
# Poissons Ratio (z) = 0.19574 -0.13278
#
# Static dielectric constant tensor:
#      x y z
#    x 1.826720 0.000000 0.000000 
#    y 0.000000 1.749010 0.000000 
#    z 0.000000 0.000000 1.763380 
# 
# From -- ./inp_files/7276.got.cif
#   From: 2010.05.17/outbox.cif.g08.bks.cpg/sg68_4_cif.got.tgz:7276.got - 2010.06.03 18:57:09.
