data_PCOD9508451
_publ_section_title
;
Structure prediction by ZEFSAII (Michael W. Deem and Ramdas Pophale) SiO2 
 PCOD9508451
Probable space group: C C C A
;
_chemical_formula_sum "Si O2"
_cell_formula_units_Z 88
_cell_length_a 18.730786
_cell_length_b 16.820125
_cell_length_c 13.466194
_cell_angle_alpha 90.000000
_cell_angle_beta 90.000000
_cell_angle_gamma 90.000000
_cell_volume 4242.580464
_symmetry_space_group_name_H-M "C C C A"
_symmetry_group_IT_number 68
_space_group.IT_coordinate_system_code '2'
_symmetry_cell_setting 'orthorhombic'
loop_
_space_group_symop_operation_xyz
x,y,z
-x,1/2-y,z
x,1/2-y,1/2-z
-x,y,1/2-z
-x,-y,-z
x,1/2+y,-z
-x,1/2+y,1/2+z
x,-y,1/2+z
1/2+x,1/2+y,z
1/2-x,-y,z
1/2+x,-y,1/2-z
1/2-x,1/2+y,1/2-z
1/2-x,1/2-y,-z
1/2+x,y,-z
1/2-x,y,1/2+z
1/2+x,1/2-y,1/2+z
loop_
_atom_site_type_symbol
_atom_site_label
_atom_site_fract_x
_atom_site_fract_y
_atom_site_fract_z
Si Si1 0.247514 0.864286 0.080848
Si Si2 0.840641 0.567027 0.904619
Si Si3 0.109818 0.902013 0.494602
Si Si4 0.871719 0.251195 0.866548
Si Si5 0.463740 0.670303 0.039024
Si Si6 0.750000 0.000000 0.269877
O O1 0.207195 0.783462 0.108960
O O2 0.222030 0.929823 0.160113
O O3 0.220497 0.894160 0.973426
O O4 0.333070 0.868806 0.075200
O O5 0.870429 0.490955 0.964608
O O6 0.809099 0.536734 0.802184
O O7 0.902461 0.631641 0.895540
O O8 0.120606 0.840950 0.403778
O O9 0.027935 0.891414 0.524614
O O10 0.886223 0.250000 0.750000
O O11 0.925294 0.198027 0.935204
O O12 0.500000 0.750000 0.079624
#
# Coordination Sequence:
#
# PCOD9508451 Si02
#       6
#    16  16  16  16  16   8
#     4  11  22  39  61  94 131 162 215 276 326 392
#     4  11  21  39  65  89 125 164 217 267 327 387
#     4  11  19  39  60  89 129 167 205 268 340 385
#     4  10  22  38  63  95 127 169 223 271 326 395
#     4   9  22  39  62  87 129 174 206 267 332 394
#     4  12  20  38  64  90 124 168 224 274 322 392
#
# _framework density 20.742094000000002
#
# number of rings (size 3 to 8) (size 9 to 14) (size 15 to 20)
#    0.000    1.455    3.636    2.182    0.000    3.273 
#    0.000    0.909    0.000    3.273    0.000    0.000 
#    0.000    0.000    0.000    0.000    0.000    0.000 
#
# Total GULP energy -245821.008937 kJ/mol
# GULP energy per Si atom -5586.841112 kJ/mol
# Density = 2.069488 g / cm^3
# Si number density = 20.742094 Si / 1000 Ang^3
#
#
#
# Elastic Constant Matrix: (Units=GPa)
#
#
# Indices 1 2 3 4 5 6 
#
# 1 109.9985 24.6941 31.0889 0.0000 0.0000 0.0000
# 2 24.6941 45.2997 6.7065 0.0000 0.0000 0.0000
# 3 31.0889 6.7065 63.5847 0.0000 0.0000 0.0000
# 4 0.0000 0.0000 0.0000 23.2830 0.0000 0.0000
# 5 0.0000 0.0000 0.0000 0.0000 4.7495 0.0000
# 6 0.0000 0.0000 0.0000 0.0000 0.0000 38.7825
#
#
#
# Elastic Compliance Matrix: (Units=1/GPa)
#
#
# Indices 1 2 3 4 5 6 
#
# 1 0.011832 -0.005682 -0.005186 0.000000 0.000000 0.000000
# 2 -0.005682 0.025154 0.000125 0.000000 0.000000 0.000000
# 3 -0.005186 0.000125 0.018249 0.000000 0.000000 0.000000
# 4 0.000000 0.000000 0.000000 0.042950 0.000000 0.000000
# 5 0.000000 0.000000 0.000000 0.000000 0.210548 0.000000
# 6 0.000000 0.000000 0.000000 0.000000 0.000000 0.025785
#
#
# Mechanical properties :
#
#
# Convention : Reuss Voigt Hill
#
# Bulk Modulus (GPa) = 29.62973 38.20687 33.91830
# Shear Modulus (GPa) = 13.61453 23.78924 18.70189
#
# Velocity S-wave (km/s) = 2.56476 3.39027 3.00599
# Velocity P-wave (km/s) = 4.80484 5.81251 5.33253
#
# Compressibility (1/GPa) = 0.03374988
#
# Stress axis : x y z
#
# Youngs Moduli (GPa) = 84.51369 39.75467 54.79624
#
# Poissons Ratio (x) = 0.22590 0.28417
# Poissons Ratio (y) = 0.48024 -0.00686
# Poissons Ratio (z) = 0.43828 -0.00498
#
# Static dielectric constant tensor:
#      x y z
#    x 1.778130 0.000000 0.000000 
#    y 0.000000 1.751760 0.000000 
#    z 0.000000 0.000000 1.716660 
# 
# From -- ./inp_files/14458.got.cif
#   From: 2010.05.17/outbox.cif.g08.bks.cpg/sg68_8_cif.got.tgz:14458.got - 2010.06.03 18:57:09.
