data_PCOD9508931
_publ_section_title
;
Structure prediction by ZEFSAII (Michael W. Deem and Ramdas Pophale) SiO2 
 PCOD9508931
Probable space group: C C C A
;
_chemical_formula_sum "Si O2"
_cell_formula_units_Z 112
_cell_length_a 14.308758
_cell_length_b 32.549140
_cell_length_c 10.613949
_cell_angle_alpha 90.000000
_cell_angle_beta 90.000000
_cell_angle_gamma 90.000000
_cell_volume 4943.316910
_symmetry_space_group_name_H-M "C C C A"
_symmetry_group_IT_number 68
_space_group.IT_coordinate_system_code '2'
_symmetry_cell_setting 'orthorhombic'
loop_
_space_group_symop_operation_xyz
x,y,z
-x,1/2-y,z
x,1/2-y,1/2-z
-x,y,1/2-z
-x,-y,-z
x,1/2+y,-z
-x,1/2+y,1/2+z
x,-y,1/2+z
1/2+x,1/2+y,z
1/2-x,-y,z
1/2+x,-y,1/2-z
1/2-x,1/2+y,1/2-z
1/2-x,1/2-y,-z
1/2+x,y,-z
1/2-x,y,1/2+z
1/2+x,1/2-y,1/2+z
loop_
_atom_site_type_symbol
_atom_site_label
_atom_site_fract_x
_atom_site_fract_y
_atom_site_fract_z
Si Si1 0.847153 0.476294 0.238673
Si Si2 0.540860 0.174681 0.887359
Si Si3 0.656728 0.171785 0.537128
Si Si4 0.395093 0.085746 0.529668
Si Si5 0.554330 0.445862 0.139469
Si Si6 0.309315 0.921373 0.460608
Si Si7 0.731386 0.205362 0.796325
O O1 0.750000 0.500000 0.218163
O O2 0.865212 0.435073 0.160255
O O3 0.921226 0.509051 0.188244
O O4 0.846385 0.460139 0.381581
O O5 0.500000 0.163331 0.750000
O O6 0.448325 0.190038 0.959011
O O7 0.580218 0.133317 0.951631
O O8 0.627439 0.205179 0.860769
O O9 0.647581 0.123080 0.562871
O O10 0.716407 0.184329 0.660131
O O11 0.705402 0.183694 0.404231
O O12 0.481476 0.060294 0.473545
O O13 0.301826 0.080615 0.446119
O O14 0.500000 0.422588 0.250000
O O15 0.654001 0.428059 0.101772
O O16 0.763944 0.250000 0.750000
#
# Coordination Sequence:
#
# PCOD9508931 Si02
#       7
#    16  16  16  16  16  16  16
#     4  12  27  43  66  97 136 186 248 309 377 435
#     4  10  22  43  73 108 142 196 247 299 372 466
#     4  11  24  46  78 108 148 198 248 308 372 460
#     4  12  25  45  69  98 137 189 245 308 370 443
#     4  12  29  44  68  99 137 185 249 312 377 434
#     4  12  27  47  70  98 140 191 248 305 379 451
#     4  11  24  46  77 115 152 194 244 303 380 459
#
# _framework density 22.656852000000001
#
# number of rings (size 3 to 8) (size 9 to 14) (size 15 to 20)
#    0.000    0.571    4.286    3.429    6.000    2.571 
#    0.000    0.714    0.000    0.857    0.000    0.000 
#    0.000    0.000    0.000    0.000    0.000    0.000 
#
# Total GULP energy -312413.991391 kJ/mol
# GULP energy per Si atom -5578.821275 kJ/mol
# Density = 2.260528 g / cm^3
# Si number density = 22.656852 Si / 1000 Ang^3
#
#
#
# Elastic Constant Matrix: (Units=GPa)
#
#
# Indices 1 2 3 4 5 6 
#
# 1 84.2113 -4.6479 29.8794 0.0000 0.0000 0.0000
# 2 -4.6479 45.2426 7.5143 0.0000 0.0000 0.0000
# 3 29.8794 7.5143 64.3523 0.0000 0.0000 0.0000
# 4 0.0000 0.0000 0.0000 30.6779 0.0000 0.0000
# 5 0.0000 0.0000 0.0000 0.0000 36.0129 0.0000
# 6 0.0000 0.0000 0.0000 0.0000 0.0000 10.7469
#
#
#
# Elastic Compliance Matrix: (Units=1/GPa)
#
#
# Indices 1 2 3 4 5 6 
#
# 1 0.014525 0.002664 -0.007055 0.000000 0.000000 0.000000
# 2 0.002664 0.023029 -0.003926 0.000000 0.000000 0.000000
# 3 -0.007055 -0.003926 0.019274 0.000000 0.000000 0.000000
# 4 0.000000 0.000000 0.000000 0.032597 0.000000 0.000000
# 5 0.000000 0.000000 0.000000 0.000000 0.027768 0.000000
# 6 0.000000 0.000000 0.000000 0.000000 0.000000 0.093050
#
#
# Mechanical properties :
#
#
# Convention : Reuss Voigt Hill
#
# Bulk Modulus (GPa) = 24.87976 28.81088 26.84532
# Shear Modulus (GPa) = 20.80948 26.22489 23.51719
#
# Velocity S-wave (km/s) = 3.03390 3.40587 3.22525
# Velocity P-wave (km/s) = 4.82470 5.31134 5.07386
#
# Compressibility (1/GPa) = 0.04019331
#
# Stress axis : x y z
#
# Youngs Moduli (GPa) = 68.84562 43.42388 51.88409
#
# Poissons Ratio (x) = -0.11568 0.36606
# Poissons Ratio (y) = -0.18341 0.20370
# Poissons Ratio (z) = 0.48573 0.17048
#
# Static dielectric constant tensor:
#      x y z
#    x 1.883480 0.000000 0.000000 
#    y 0.000000 1.881530 0.000000 
#    z 0.000000 0.000000 1.902670 
# 
# From -- ./inp_files/13599.got.cif
#   From: 2010.05.17/outbox.cif.g08.bks.cpg/sg68_7_cif.got.tgz:13599.got - 2010.06.03 18:57:09.
