data_PCOD9508718
_publ_section_title
;
Structure prediction by ZEFSAII (Michael W. Deem and Ramdas Pophale) SiO2 
 PCOD9508718
Probable space group: C C C A
;
_chemical_formula_sum "Si O2"
_cell_formula_units_Z 56
_cell_length_a 25.528695
_cell_length_b 5.356132
_cell_length_c 15.602310
_cell_angle_alpha 90.000000
_cell_angle_beta 90.000000
_cell_angle_gamma 90.000000
_cell_volume 2133.382797
_symmetry_space_group_name_H-M "C C C A"
_symmetry_group_IT_number 68
_space_group.IT_coordinate_system_code '2'
_symmetry_cell_setting 'orthorhombic'
loop_
_space_group_symop_operation_xyz
x,y,z
-x,1/2-y,z
x,1/2-y,1/2-z
-x,y,1/2-z
-x,-y,-z
x,1/2+y,-z
-x,1/2+y,1/2+z
x,-y,1/2+z
1/2+x,1/2+y,z
1/2-x,-y,z
1/2+x,-y,1/2-z
1/2-x,1/2+y,1/2-z
1/2-x,1/2-y,-z
1/2+x,y,-z
1/2-x,y,1/2+z
1/2+x,1/2-y,1/2+z
loop_
_atom_site_type_symbol
_atom_site_label
_atom_site_fract_x
_atom_site_fract_y
_atom_site_fract_z
Si Si1 0.386906 0.250000 0.750000
Si Si2 0.436931 0.240624 0.942639
Si Si3 0.812946 0.014679 0.536545
Si Si4 0.199517 0.612640 0.324979
O O1 0.418454 0.212518 0.841344
O O2 0.346151 0.461091 0.780978
O O3 0.500000 0.250000 0.937234
O O4 0.423160 0.496464 0.997509
O O5 0.829024 0.724613 0.534917
O O6 0.827582 0.679304 0.382714
O O7 0.750000 0.000000 0.543585
O O8 0.230724 0.750000 0.250000
O O9 0.250000 0.500000 0.373077
#
# Coordination Sequence:
#
# PCOD9508718 Si02
#       4
#     8  16  16  16
#     4  12  29  46  78 116 156 212 267 320 396 478
#     4  10  25  53  86 120 156 194 250 331 413 488
#     4  10  22  41  66  90 121 182 259 323 376 434
#     4  12  26  44  64  94 150 209 259 312 370 441
#
# _framework density 26.249388
#
# number of rings (size 3 to 8) (size 9 to 14) (size 15 to 20)
#    0.000    1.143    1.429    3.857    8.000    2.286 
#    0.000    4.286    0.000    1.714    0.000    0.000 
#    0.000    0.000    0.000    0.000    0.000    0.000 
#
# Total GULP energy -155986.091322 kJ/mol
# GULP energy per Si atom -5570.931833 kJ/mol
# Density = 2.618964 g / cm^3
# Si number density = 26.249388 Si / 1000 Ang^3
#
#
#
# Elastic Constant Matrix: (Units=GPa)
#
#
# Indices 1 2 3 4 5 6 
#
# 1 130.4141 93.0242 65.9033 0.0000 0.0000 0.0000
# 2 93.0242 219.4869 89.4858 0.0000 0.0000 0.0000
# 3 65.9033 89.4858 234.4036 0.0000 0.0000 0.0000
# 4 0.0000 0.0000 0.0000 63.1311 0.0000 0.0000
# 5 0.0000 0.0000 0.0000 0.0000 -2.3396 0.0000
# 6 0.0000 0.0000 0.0000 0.0000 0.0000 56.7434
#
#
#
# Elastic Compliance Matrix: (Units=1/GPa)
#
#
# Indices 1 2 3 4 5 6 
#
# 1 0.011490 -0.004208 -0.001624 0.000000 0.000000 0.000000
# 2 -0.004208 0.006937 -0.001465 0.000000 0.000000 0.000000
# 3 -0.001624 -0.001465 0.005282 0.000000 0.000000 0.000000
# 4 0.000000 0.000000 0.000000 0.015840 0.000000 0.000000
# 5 0.000000 0.000000 0.000000 0.000000 -0.427419 0.000000
# 6 0.000000 0.000000 0.000000 0.000000 0.000000 0.017623
#
#
# Mechanical properties :
#
#
# Convention : Reuss Voigt Hill
#
# Bulk Modulus (GPa) = 109.70978 120.12571 114.91774
# Shear Modulus (GPa) = -14.17976 45.89974 15.85999
#
# Velocity S-wave (km/s) = -2.32673 4.18617 2.46072
# Velocity P-wave (km/s) = 5.88793 8.32033 7.20748
#
# Compressibility (1/GPa) = 0.00911496
#
# Stress axis : x y z
#
# Youngs Moduli (GPa) = 87.03337 144.16071 189.31750
#
# Poissons Ratio (x) = 0.60656 0.30748
# Poissons Ratio (y) = 0.36619 0.27739
# Poissons Ratio (z) = 0.14135 0.21122
#
# Static dielectric constant tensor:
#      x y z
#    x 2.145110 0.000000 0.000000 
#    y 0.000000 0.665720 0.000000 
#    z 0.000000 0.000000 2.305830 
# 
# From -- ./inp_files/26226.got.cif
#   From: 2010.05.17/outbox.cif.g08.bks.cpg/sg68_14_cif.got.tgz:26226.got - 2010.06.03 18:57:09.
