data_PCOD9508533
_publ_section_title
;
Structure prediction by ZEFSAII (Michael W. Deem and Ramdas Pophale) SiO2 
 PCOD9508533
Probable space group: C C C A
;
_chemical_formula_sum "Si O2"
_cell_formula_units_Z 56
_cell_length_a 10.395822
_cell_length_b 19.748126
_cell_length_c 10.476478
_cell_angle_alpha 90.000000
_cell_angle_beta 90.000000
_cell_angle_gamma 90.000000
_cell_volume 2150.800009
_symmetry_space_group_name_H-M "C C C A"
_symmetry_group_IT_number 68
_space_group.IT_coordinate_system_code '2'
_symmetry_cell_setting 'orthorhombic'
loop_
_space_group_symop_operation_xyz
x,y,z
-x,1/2-y,z
x,1/2-y,1/2-z
-x,y,1/2-z
-x,-y,-z
x,1/2+y,-z
-x,1/2+y,1/2+z
x,-y,1/2+z
1/2+x,1/2+y,z
1/2-x,-y,z
1/2+x,-y,1/2-z
1/2-x,1/2+y,1/2-z
1/2-x,1/2-y,-z
1/2+x,y,-z
1/2-x,y,1/2+z
1/2+x,1/2-y,1/2+z
loop_
_atom_site_type_symbol
_atom_site_label
_atom_site_fract_x
_atom_site_fract_y
_atom_site_fract_z
Si Si1 0.708683 0.250000 0.250000
Si Si2 0.593796 0.673590 0.535492
Si Si3 0.250000 0.000000 0.727052
Si Si4 0.000000 0.070644 0.750000
Si Si5 0.652625 0.362709 0.611410
O O1 0.623523 0.240936 0.378440
O O2 0.797916 0.184851 0.272460
O O3 0.549158 0.617983 0.637893
O O4 0.486650 0.664658 0.428266
O O5 0.739518 0.651705 0.502562
O O6 0.373586 0.968977 0.798012
O O7 0.176657 0.940570 0.647904
#
# Coordination Sequence:
#
# PCOD9508533 Si02
#       5
#     8  16   8   8  16
#     4   8  20  43  72 103 162 183 248 321 370 443
#     4   9  20  41  72 105 146 198 242 309 378 443
#     4  10  22  40  68 110 146 194 244 312 372 456
#     4  10  22  39  68 103 148 198 230 318 372 441
#     4   9  20  41  73 111 146 201 248 311 379 456
#
# _framework density 26.036823999999999
#
# number of rings (size 3 to 8) (size 9 to 14) (size 15 to 20)
#    1.714    1.143    0.000    0.000    0.000    8.571 
#    0.000    2.857    0.000    0.857    0.000    0.000 
#    0.000    0.000    0.000    0.000    0.000    0.000 
#
# Total GULP energy -155956.659394 kJ/mol
# GULP energy per Si atom -5569.880693 kJ/mol
# Density = 2.597756 g / cm^3
# Si number density = 26.036824 Si / 1000 Ang^3
#
#
#
# Elastic Constant Matrix: (Units=GPa)
#
#
# Indices 1 2 3 4 5 6 
#
# 1 211.2540 68.1467 45.6919 0.0000 0.0000 0.0000
# 2 68.1467 149.4895 48.1695 0.0000 0.0000 0.0000
# 3 45.6919 48.1695 39.7896 0.0000 0.0000 0.0000
# 4 0.0000 0.0000 0.0000 15.1625 0.0000 0.0000
# 5 0.0000 0.0000 0.0000 0.0000 329.1532 0.0000
# 6 0.0000 0.0000 0.0000 0.0000 0.0000 57.6131
#
#
#
# Elastic Compliance Matrix: (Units=1/GPa)
#
#
# Indices 1 2 3 4 5 6 
#
# 1 0.006370 -0.000897 -0.006230 0.000000 0.000000 0.000000
# 2 -0.000897 0.011094 -0.012401 0.000000 0.000000 0.000000
# 3 -0.006230 -0.012401 0.047299 0.000000 0.000000 0.000000
# 4 0.000000 0.000000 0.000000 0.065952 0.000000 0.000000
# 5 0.000000 0.000000 0.000000 0.000000 0.003038 0.000000
# 6 0.000000 0.000000 0.000000 0.000000 0.000000 0.017357
#
#
# Mechanical properties :
#
#
# Convention : Reuss Voigt Hill
#
# Bulk Modulus (GPa) = 38.89776 80.50550 59.70163
# Shear Modulus (GPa) = 25.15911 96.28744 60.72328
#
# Velocity S-wave (km/s) = 3.11189 6.08782 4.83453
# Velocity P-wave (km/s) = 5.28051 8.96674 7.35820
#
# Compressibility (1/GPa) = 0.02570842
#
# Stress axis : x y z
#
# Youngs Moduli (GPa) = 156.97834 90.13822 21.14210
#
# Poissons Ratio (x) = 0.08081 0.13171
# Poissons Ratio (y) = 0.14074 0.26218
# Poissons Ratio (z) = 0.97796 1.11781
#
# Static dielectric constant tensor:
#      x y z
#    x 2.173680 0.000000 0.000000 
#    y 0.000000 2.083150 0.000000 
#    z 0.000000 0.000000 2.085200 
# 
# From -- ./inp_files/11647.got.cif
#   From: 2010.05.17/outbox.cif.g08.bks.cpg/sg68_6_cif.got.tgz:11647.got - 2010.06.03 18:57:09.
