data_PCOD9508293
_publ_section_title
;
Structure prediction by ZEFSAII (Michael W. Deem and Ramdas Pophale) SiO2 
 PCOD9508293
Probable space group: C C C A
;
_chemical_formula_sum "Si O2"
_cell_formula_units_Z 104
_cell_length_a 27.429909
_cell_length_b 18.473304
_cell_length_c 9.848277
_cell_angle_alpha 90.000000
_cell_angle_beta 90.000000
_cell_angle_gamma 90.000000
_cell_volume 4990.329239
_symmetry_space_group_name_H-M "C C C A"
_symmetry_group_IT_number 68
_space_group.IT_coordinate_system_code '2'
_symmetry_cell_setting 'orthorhombic'
loop_
_space_group_symop_operation_xyz
x,y,z
-x,1/2-y,z
x,1/2-y,1/2-z
-x,y,1/2-z
-x,-y,-z
x,1/2+y,-z
-x,1/2+y,1/2+z
x,-y,1/2+z
1/2+x,1/2+y,z
1/2-x,-y,z
1/2+x,-y,1/2-z
1/2-x,1/2+y,1/2-z
1/2-x,1/2-y,-z
1/2+x,y,-z
1/2-x,y,1/2+z
1/2+x,1/2-y,1/2+z
loop_
_atom_site_type_symbol
_atom_site_label
_atom_site_fract_x
_atom_site_fract_y
_atom_site_fract_z
Si Si1 0.777291 0.650485 0.145176
Si Si2 0.364414 0.837601 0.449448
Si Si3 0.447035 0.455926 0.287579
Si Si4 0.300061 0.750000 0.250000
Si Si5 0.114779 0.506479 0.033904
Si Si6 0.279619 0.933413 0.920737
Si Si7 0.448978 0.209847 0.114403
O O1 0.736653 0.712590 0.145382
O O2 0.783709 0.624423 0.299716
O O3 0.829033 0.668760 0.080215
O O4 0.753988 0.591499 0.044891
O O5 0.334045 0.807691 0.323839
O O6 0.376927 0.921825 0.429007
O O7 0.411882 0.791453 0.488949
O O8 0.500000 0.486722 0.250000
O O9 0.415187 0.454221 0.151750
O O10 0.416947 0.502510 0.397017
O O11 0.455012 0.375063 0.346990
O O12 0.167583 0.543148 0.025354
O O13 0.250000 0.000000 0.856179
O O14 0.500000 0.250000 0.084794
O O15 0.429578 0.250000 0.250000
#
# Coordination Sequence:
#
# PCOD9508293 Si02
#       7
#    16  16  16   8  16  16  16
#     4  12  25  43  66  96 139 185 229 281 342 411
#     4  11  25  43  65  98 139 178 229 289 338 420
#     4  11  23  45  70 101 135 172 228 300 342 416
#     4  12  26  44  61 100 141 184 236 280 342 416
#     4  11  25  42  68 103 133 178 230 282 362 398
#     4  12  24  40  68  98 138 179 228 281 345 421
#     4  10  21  44  73  97 128 175 235 273 343 412
#
# _framework density 20.840308
#
# number of rings (size 3 to 8) (size 9 to 14) (size 15 to 20)
#    0.000    0.769    4.615    3.231    5.385    1.231 
#    0.000    0.385    0.000    0.000    0.000    0.000 
#    0.000    0.000    0.000    0.000    0.000    0.000 
#
# Total GULP energy -290646.701077 kJ/mol
# GULP energy per Si atom -5589.359636 kJ/mol
# Density = 2.079287 g / cm^3
# Si number density = 20.840308 Si / 1000 Ang^3
#
#
#
# Elastic Constant Matrix: (Units=GPa)
#
#
# Indices 1 2 3 4 5 6 
#
# 1 119.8775 15.3469 30.4266 0.0000 0.0000 0.0000
# 2 15.3469 17.1929 14.9149 0.0000 0.0000 0.0000
# 3 30.4266 14.9149 68.3981 0.0000 0.0000 0.0000
# 4 0.0000 0.0000 0.0000 20.9088 0.0000 0.0000
# 5 0.0000 0.0000 0.0000 0.0000 21.8653 0.0000
# 6 0.0000 0.0000 0.0000 0.0000 0.0000 35.7166
#
#
#
# Elastic Compliance Matrix: (Units=1/GPa)
#
#
# Indices 1 2 3 4 5 6 
#
# 1 0.009911 -0.006194 -0.003058 0.000000 0.000000 0.000000
# 2 -0.006194 0.075604 -0.013731 0.000000 0.000000 0.000000
# 3 -0.003058 -0.013731 0.018975 0.000000 0.000000 0.000000
# 4 0.000000 0.000000 0.000000 0.047827 0.000000 0.000000
# 5 0.000000 0.000000 0.000000 0.000000 0.045735 0.000000
# 6 0.000000 0.000000 0.000000 0.000000 0.000000 0.027998
#
#
# Mechanical properties :
#
#
# Convention : Reuss Voigt Hill
#
# Bulk Modulus (GPa) = 17.08700 36.31613 26.70157
# Shear Modulus (GPa) = 17.15127 25.35015 21.25071
#
# Velocity S-wave (km/s) = 2.87188 3.49148 3.19673
# Velocity P-wave (km/s) = 4.38335 5.80669 5.14448
#
# Compressibility (1/GPa) = 0.05852402
#
# Stress axis : x y z
#
# Youngs Moduli (GPa) = 100.89788 13.22679 52.70123
#
# Poissons Ratio (x) = 0.08192 0.16117
# Poissons Ratio (y) = 0.62495 0.72364
# Poissons Ratio (z) = 0.30857 0.18162
#
# Static dielectric constant tensor:
#      x y z
#    x 1.742100 0.000000 0.000000 
#    y 0.000000 1.886800 0.000000 
#    z 0.000000 0.000000 1.750310 
# 
# From -- ./inp_files/9024.got.cif
#   From: 2010.05.17/outbox.cif.g08.bks.cpg/sg68_5_cif.got.tgz:9024.got - 2010.06.03 18:57:09.
