data_PCOD9508919
_publ_section_title
;
Structure prediction by ZEFSAII (Michael W. Deem and Ramdas Pophale) SiO2 
 PCOD9508919
Probable space group: C C C A
;
_chemical_formula_sum "Si O2"
_cell_formula_units_Z 92
_cell_length_a 20.100625
_cell_length_b 8.920237
_cell_length_c 23.423909
_cell_angle_alpha 90.000000
_cell_angle_beta 90.000000
_cell_angle_gamma 90.000000
_cell_volume 4199.961669
_symmetry_space_group_name_H-M "C C C A"
_symmetry_group_IT_number 68
_space_group.IT_coordinate_system_code '2'
_symmetry_cell_setting 'orthorhombic'
loop_
_space_group_symop_operation_xyz
x,y,z
-x,1/2-y,z
x,1/2-y,1/2-z
-x,y,1/2-z
-x,-y,-z
x,1/2+y,-z
-x,1/2+y,1/2+z
x,-y,1/2+z
1/2+x,1/2+y,z
1/2-x,-y,z
1/2+x,-y,1/2-z
1/2-x,1/2+y,1/2-z
1/2-x,1/2-y,-z
1/2+x,y,-z
1/2-x,y,1/2+z
1/2+x,1/2-y,1/2+z
loop_
_atom_site_type_symbol
_atom_site_label
_atom_site_fract_x
_atom_site_fract_y
_atom_site_fract_z
Si Si1 0.330175 0.750000 0.750000
Si Si2 0.500000 0.750000 0.250000
Si Si3 0.488470 0.915057 0.087594
Si Si4 0.603735 0.062872 0.021505
Si Si5 0.304410 0.325518 0.459655
Si Si6 0.598976 0.470676 0.686067
Si Si7 0.764079 0.660416 0.662866
O O1 0.374315 0.613773 0.777073
O O2 0.277000 0.717202 0.698566
O O3 0.449395 0.632672 0.278302
O O4 0.500000 0.750000 0.112870
O O5 0.559269 0.979595 0.068400
O O6 0.444595 0.015260 0.130420
O O7 0.445589 0.894956 0.030023
O O8 0.636027 0.208934 0.048102
O O9 0.662262 0.964598 0.992544
O O10 0.250000 0.250000 0.500000
O O11 0.269146 0.349123 0.399166
O O12 0.656635 0.355023 0.663017
O O13 0.750000 0.500000 0.692709
#
# Coordination Sequence:
#
# PCOD9508919 Si02
#       7
#     8   4  16  16  16  16  16
#     4  10  23  47  72  99 129 178 242 298 342 426
#     4  12  26  42  68  92 134 186 224 294 356 428
#     4  11  22  44  71  97 143 191 231 288 345 431
#     4  11  24  40  66 103 140 189 236 275 351 431
#     4  12  23  41  66 103 144 186 234 294 353 425
#     4  11  24  45  71 100 136 183 238 291 366 421
#     4  10  22  43  70  97 134 179 228 297 356 415
#
# _framework density 21.904961
#
# number of rings (size 3 to 8) (size 9 to 14) (size 15 to 20)
#    0.000    1.043    2.609    5.217    0.000    1.739 
#    0.000    8.696    0.000    0.000    0.000    0.000 
#    0.000    0.000    0.000    0.000    0.000    0.000 
#
# Total GULP energy -256432.834056 kJ/mol
# GULP energy per Si atom -5574.626827 kJ/mol
# Density = 2.185510 g / cm^3
# Si number density = 21.904961 Si / 1000 Ang^3
#
#
#
# Elastic Constant Matrix: (Units=GPa)
#
#
# Indices 1 2 3 4 5 6 
#
# 1 108.8163 45.9561 53.4276 0.0000 0.0000 0.0000
# 2 45.9561 96.7523 49.2686 0.0000 0.0000 0.0000
# 3 53.4276 49.2686 110.6203 0.0000 0.0000 0.0000
# 4 0.0000 0.0000 0.0000 31.4651 0.0000 0.0000
# 5 0.0000 0.0000 0.0000 0.0000 33.8659 0.0000
# 6 0.0000 0.0000 0.0000 0.0000 0.0000 30.3759
#
#
#
# Elastic Compliance Matrix: (Units=1/GPa)
#
#
# Indices 1 2 3 4 5 6 
#
# 1 0.013081 -0.003875 -0.004592 0.000000 0.000000 0.000000
# 2 -0.003875 0.014515 -0.004593 0.000000 0.000000 0.000000
# 3 -0.004592 -0.004593 0.013304 0.000000 0.000000 0.000000
# 4 0.000000 0.000000 0.000000 0.031781 0.000000 0.000000
# 5 0.000000 0.000000 0.000000 0.000000 0.029528 0.000000
# 6 0.000000 0.000000 0.000000 0.000000 0.000000 0.032921
#
#
# Mechanical properties :
#
#
# Convention : Reuss Voigt Hill
#
# Bulk Modulus (GPa) = 67.66266 68.16594 67.91430
# Shear Modulus (GPa) = 30.08838 30.31047 30.19942
#
# Velocity S-wave (km/s) = 3.71021 3.72388 3.71705
# Velocity P-wave (km/s) = 7.02214 7.04814 7.03515
#
# Compressibility (1/GPa) = 0.01477920
#
# Stress axis : x y z
#
# Youngs Moduli (GPa) = 76.44732 68.89301 75.16760
#
# Poissons Ratio (x) = 0.26695 0.34517
# Poissons Ratio (y) = 0.29623 0.34527
# Poissons Ratio (z) = 0.35105 0.31645
#
# Static dielectric constant tensor:
#      x y z
#    x 1.878680 0.000000 0.000000 
#    y 0.000000 1.807490 0.000000 
#    z 0.000000 0.000000 2.131690 
# 
# From -- ./inp_files/46530.got.cif
#   From: 2010.05.17/outbox.cif.g08.bks.cpg/sg68_24_cif.got.tgz:46530.got - 2010.06.03 18:57:09.
