data_PCOD9508281
_publ_section_title
;
Structure prediction by ZEFSAII (Michael W. Deem and Ramdas Pophale) SiO2 
 PCOD9508281
Probable space group: C C C A
;
_chemical_formula_sum "Si O2"
_cell_formula_units_Z 96
_cell_length_a 8.551475
_cell_length_b 22.538812
_cell_length_c 20.575603
_cell_angle_alpha 90.000000
_cell_angle_beta 90.000000
_cell_angle_gamma 90.000000
_cell_volume 3965.743519
_symmetry_space_group_name_H-M "C C C A"
_symmetry_group_IT_number 68
_space_group.IT_coordinate_system_code '2'
_symmetry_cell_setting 'orthorhombic'
loop_
_space_group_symop_operation_xyz
x,y,z
-x,1/2-y,z
x,1/2-y,1/2-z
-x,y,1/2-z
-x,-y,-z
x,1/2+y,-z
-x,1/2+y,1/2+z
x,-y,1/2+z
1/2+x,1/2+y,z
1/2-x,-y,z
1/2+x,-y,1/2-z
1/2-x,1/2+y,1/2-z
1/2-x,1/2-y,-z
1/2+x,y,-z
1/2-x,y,1/2+z
1/2+x,1/2-y,1/2+z
loop_
_atom_site_type_symbol
_atom_site_label
_atom_site_fract_x
_atom_site_fract_y
_atom_site_fract_z
Si Si1 0.250000 0.500000 0.842410
Si Si2 0.000000 0.436246 0.750000
Si Si3 0.742028 0.203916 0.941116
Si Si4 0.233566 0.438672 0.086488
Si Si5 0.000000 0.250000 0.166047
Si Si6 0.000000 0.250000 0.860301
Si Si7 0.883336 0.422777 0.042840
Si Si8 0.733031 0.659479 0.807336
O O1 0.095653 0.479364 0.800957
O O2 0.202284 0.551242 0.893661
O O3 0.145944 0.389408 0.737727
O O4 0.624425 0.220933 0.883130
O O5 0.682799 0.142431 0.967249
O O6 0.909687 0.204359 0.906974
O O7 0.750000 0.250000 0.000000
O O8 0.250000 0.500000 0.127612
O O9 0.262253 0.379905 0.127501
O O10 0.063847 0.427285 0.057812
O O11 0.351234 0.450731 0.027304
O O12 0.102709 0.303666 0.200005
O O13 0.115136 0.212927 0.816871
#
# Coordination Sequence:
#
# PCOD9508281 Si02
#       8
#     8   8  16  16   8   8  16  16
#     4  12  30  52  78 112 158 214 276 332 412 478
#     4  12  30  51  84 112 158 215 282 352 398 482
#     4  11  22  35  65 107 152 195 243 305 384 475
#     4  12  26  43  76 111 160 204 254 320 408 491
#     4  10  21  44  68 109 148 204 249 325 386 480
#     4  10  23  41  70  96 150 192 253 307 392 462
#     4  12  26  45  72 112 157 202 257 315 404 482
#     4  11  25  49  77 114 153 208 267 333 405 477
#
# _framework density 24.207315999999999
#
# number of rings (size 3 to 8) (size 9 to 14) (size 15 to 20)
#    0.000    0.667    2.500    5.000   10.500    0.333 
#    0.000    0.000    3.667    0.000    0.000    0.000 
#    0.000    0.000    0.000    0.000    0.000    0.000 
#
# Total GULP energy -267881.810976 kJ/mol
# GULP energy per Si atom -5580.871062 kJ/mol
# Density = 2.415222 g / cm^3
# Si number density = 24.207316 Si / 1000 Ang^3
#
#
#
# Elastic Constant Matrix: (Units=GPa)
#
#
# Indices 1 2 3 4 5 6 
#
# 1 116.9915 37.4878 49.2137 0.0000 0.0000 0.0000
# 2 37.4878 157.5854 45.7859 0.0000 0.0000 0.0000
# 3 49.2137 45.7859 80.0650 0.0000 0.0000 0.0000
# 4 0.0000 0.0000 0.0000 41.4915 0.0000 0.0000
# 5 0.0000 0.0000 0.0000 0.0000 40.4007 0.0000
# 6 0.0000 0.0000 0.0000 0.0000 0.0000 33.6501
#
#
#
# Elastic Compliance Matrix: (Units=1/GPa)
#
#
# Indices 1 2 3 4 5 6 
#
# 1 0.011618 -0.000826 -0.006669 0.000000 0.000000 0.000000
# 2 -0.000826 0.007669 -0.003878 0.000000 0.000000 0.000000
# 3 -0.006669 -0.003878 0.018806 0.000000 0.000000 0.000000
# 4 0.000000 0.000000 0.000000 0.024101 0.000000 0.000000
# 5 0.000000 0.000000 0.000000 0.000000 0.024752 0.000000
# 6 0.000000 0.000000 0.000000 0.000000 0.000000 0.029718
#
#
# Mechanical properties :
#
#
# Convention : Reuss Voigt Hill
#
# Bulk Modulus (GPa) = 65.15521 68.84630 67.00076
# Shear Modulus (GPa) = 34.59617 37.91877 36.25747
#
# Velocity S-wave (km/s) = 3.78453 3.96209 3.87433
# Velocity P-wave (km/s) = 6.78755 7.03086 6.91027
#
# Compressibility (1/GPa) = 0.01534797
#
# Stress axis : x y z
#
# Youngs Moduli (GPa) = 86.07674 130.39567 53.17355
#
# Poissons Ratio (x) = 0.10773 0.35459
# Poissons Ratio (y) = 0.07111 0.20619
# Poissons Ratio (z) = 0.57401 0.50564
#
# Static dielectric constant tensor:
#      x y z
#    x 1.743200 0.000000 0.000000 
#    y 0.000000 2.598800 0.000000 
#    z 0.000000 0.000000 1.899350 
# 
# From -- ./inp_files/43350.got.cif
#   From: 2010.05.17/outbox.cif.g08.bks.cpg/sg68_22_cif.got.tgz:43350.got - 2010.06.03 18:57:09.
