data_PCOD9508257
_publ_section_title
;
Structure prediction by ZEFSAII (Michael W. Deem and Ramdas Pophale) SiO2 
 PCOD9508257
Probable space group: C C C A
;
_chemical_formula_sum "Si O2"
_cell_formula_units_Z 92
_cell_length_a 11.791291
_cell_length_b 19.760845
_cell_length_c 17.312301
_cell_angle_alpha 90.000000
_cell_angle_beta 90.000000
_cell_angle_gamma 90.000000
_cell_volume 4033.867822
_symmetry_space_group_name_H-M "C C C A"
_symmetry_group_IT_number 68
_space_group.IT_coordinate_system_code '2'
_symmetry_cell_setting 'orthorhombic'
loop_
_space_group_symop_operation_xyz
x,y,z
-x,1/2-y,z
x,1/2-y,1/2-z
-x,y,1/2-z
-x,-y,-z
x,1/2+y,-z
-x,1/2+y,1/2+z
x,-y,1/2+z
1/2+x,1/2+y,z
1/2-x,-y,z
1/2+x,-y,1/2-z
1/2-x,1/2+y,1/2-z
1/2-x,1/2-y,-z
1/2+x,y,-z
1/2-x,y,1/2+z
1/2+x,1/2-y,1/2+z
loop_
_atom_site_type_symbol
_atom_site_label
_atom_site_fract_x
_atom_site_fract_y
_atom_site_fract_z
Si Si1 0.589360 0.890438 0.599284
Si Si2 0.500000 0.750000 0.250000
Si Si3 0.855941 0.199747 0.457172
Si Si4 0.750000 0.500000 0.483291
Si Si5 0.743249 0.419825 0.781674
Si Si6 0.081979 0.836128 0.881273
Si Si7 0.680286 0.389541 0.110061
O O1 0.624297 0.829311 0.542349
O O2 0.648572 0.883491 0.681552
O O3 0.455493 0.890654 0.613645
O O4 0.649220 0.958605 0.561997
O O5 0.421454 0.705416 0.197682
O O6 0.874159 0.279417 0.441558
O O7 0.737149 0.178908 0.420673
O O8 0.952842 0.156911 0.409450
O O9 0.702710 0.556822 0.541346
O O10 0.750000 0.500000 0.783826
O O11 0.648741 0.400202 0.848348
O O12 0.752315 0.404043 0.690198
#
# Coordination Sequence:
#
# PCOD9508257 Si02
#       7
#    16   4  16   8  16  16  16
#     4  11  24  42  65  99 142 180 233 287 355 416
#     4   8  16  40  68  96 122 176 222 298 320 386
#     4   9  23  44  74  99 127 190 232 308 341 417
#     4  10  22  42  66  94 136 194 224 280 336 428
#     4  12  25  42  65 102 142 189 224 290 357 434
#     4  10  21  43  69 100 135 173 251 278 355 424
#     4  11  23  43  65 102 142 179 237 283 364 416
#
# _framework density 22.806895000000001
#
# number of rings (size 3 to 8) (size 9 to 14) (size 15 to 20)
#    0.000    1.739    1.739    3.130    4.870    3.478 
#    9.391    0.000    0.000    2.087    0.000    0.000 
#    0.000    0.000    0.000    0.000    0.000    0.000 
#
# Total GULP energy -256207.230204 kJ/mol
# GULP energy per Si atom -5569.722396 kJ/mol
# Density = 2.275499 g / cm^3
# Si number density = 22.806895 Si / 1000 Ang^3
#
#
#
# Elastic Constant Matrix: (Units=GPa)
#
#
# Indices 1 2 3 4 5 6 
#
# 1 116.5403 24.7073 22.5220 0.0000 0.0000 0.0000
# 2 24.7073 86.2689 46.8532 0.0000 0.0000 0.0000
# 3 22.5220 46.8532 115.2948 0.0000 0.0000 0.0000
# 4 0.0000 0.0000 0.0000 34.5757 0.0000 0.0000
# 5 0.0000 0.0000 0.0000 0.0000 24.5361 0.0000
# 6 0.0000 0.0000 0.0000 0.0000 0.0000 23.2669
#
#
#
# Elastic Compliance Matrix: (Units=1/GPa)
#
#
# Indices 1 2 3 4 5 6 
#
# 1 0.009213 -0.002132 -0.000933 0.000000 0.000000 0.000000
# 2 -0.002132 0.015368 -0.005829 0.000000 0.000000 0.000000
# 3 -0.000933 -0.005829 0.011224 0.000000 0.000000 0.000000
# 4 0.000000 0.000000 0.000000 0.028922 0.000000 0.000000
# 5 0.000000 0.000000 0.000000 0.000000 0.040756 0.000000
# 6 0.000000 0.000000 0.000000 0.000000 0.000000 0.042979
#
#
# Mechanical properties :
#
#
# Convention : Reuss Voigt Hill
#
# Bulk Modulus (GPa) = 55.50123 56.25212 55.87668
# Shear Modulus (GPa) = 29.02649 31.41052 30.21851
#
# Velocity S-wave (km/s) = 3.57137 3.71514 3.64397
# Velocity P-wave (km/s) = 6.43385 6.56667 6.50060
#
# Compressibility (1/GPa) = 0.01801762
#
# Stress axis : x y z
#
# Youngs Moduli (GPa) = 108.54181 65.07128 89.09149
#
# Poissons Ratio (x) = 0.13871 0.08316
# Poissons Ratio (y) = 0.23137 0.51929
# Poissons Ratio (z) = 0.10132 0.37928
#
# Static dielectric constant tensor:
#      x y z
#    x 2.128970 0.000000 0.000000 
#    y 0.000000 2.333180 0.000000 
#    z 0.000000 0.000000 1.813790 
# 
# From -- ./inp_files/29679.got.cif
#   From: 2010.05.17/outbox.cif.g08.bks.cpg/sg68_15_cif.got.tgz:29679.got - 2010.06.03 18:57:09.
