data_PCOD9508095
_publ_section_title
;
Structure prediction by ZEFSAII (Michael W. Deem and Ramdas Pophale) SiO2 
 PCOD9508095
Probable space group: C C C A
;
_chemical_formula_sum "Si O2"
_cell_formula_units_Z 104
_cell_length_a 9.191335
_cell_length_b 21.024371
_cell_length_c 26.586413
_cell_angle_alpha 90.000000
_cell_angle_beta 90.000000
_cell_angle_gamma 90.000000
_cell_volume 5137.612605
_symmetry_space_group_name_H-M "C C C A"
_symmetry_group_IT_number 68
_space_group.IT_coordinate_system_code '2'
_symmetry_cell_setting 'orthorhombic'
loop_
_space_group_symop_operation_xyz
x,y,z
-x,1/2-y,z
x,1/2-y,1/2-z
-x,y,1/2-z
-x,-y,-z
x,1/2+y,-z
-x,1/2+y,1/2+z
x,-y,1/2+z
1/2+x,1/2+y,z
1/2-x,-y,z
1/2+x,-y,1/2-z
1/2-x,1/2+y,1/2-z
1/2-x,1/2-y,-z
1/2+x,y,-z
1/2-x,y,1/2+z
1/2+x,1/2-y,1/2+z
loop_
_atom_site_type_symbol
_atom_site_label
_atom_site_fract_x
_atom_site_fract_y
_atom_site_fract_z
Si Si1 0.794905 0.702318 0.352164
Si Si2 0.925050 0.003914 0.650675
Si Si3 0.520587 0.371935 0.807015
Si Si4 0.164671 0.225073 0.548032
Si Si5 0.000000 0.913720 0.250000
Si Si6 0.285493 0.828000 0.695991
Si Si7 0.561111 0.884631 0.894199
O O1 0.663987 0.663772 0.326882
O O2 0.760236 0.743719 0.402539
O O3 0.842453 0.757413 0.313579
O O4 0.924067 0.656673 0.371849
O O5 0.961257 0.043241 0.701924
O O6 0.001117 0.044219 0.606278
O O7 0.750000 0.000000 0.645225
O O8 0.988825 0.933762 0.657769
O O9 0.500000 0.398418 0.750000
O O10 0.387309 0.322993 0.804900
O O11 0.250000 0.250000 0.500000
O O12 0.134123 0.150113 0.558164
O O13 0.000000 0.250000 0.545229
O O14 0.863783 0.866804 0.260001
O O15 0.320939 0.873884 0.649066
#
# Coordination Sequence:
#
# PCOD9508095 Si02
#       7
#    16  16  16  16   8  16  16
#     4  10  21  41  57  86 122 152 199 253 313 362
#     4  11  20  36  57  75 111 162 206 246 290 354
#     4  12  24  37  54  83 120 160 211 254 294 348
#     4   9  19  37  65  94 120 150 195 252 321 394
#     4  10  22  34  53  74 109 154 212 252 286 344
#     4  10  22  36  53  79 113 153 199 255 297 351
#     4   9  20  38  58  85 114 153 199 242 304 366
#
# _framework density 20.242865999999999
#
# number of rings (size 3 to 8) (size 9 to 14) (size 15 to 20)
#    0.000    1.846    2.308    2.769    2.154    5.538 
#    2.769    0.000    0.000    0.923    0.000    0.000 
#    0.000    3.692    0.000    0.000    0.000    0.000 
#
# Total GULP energy -289596.562142 kJ/mol
# GULP energy per Si atom -5569.164657 kJ/mol
# Density = 2.019679 g / cm^3
# Si number density = 20.242866 Si / 1000 Ang^3
#
#
#
# Elastic Constant Matrix: (Units=GPa)
#
#
# Indices 1 2 3 4 5 6 
#
# 1 93.8394 33.7342 31.8564 0.0000 0.0000 0.0000
# 2 33.7342 118.2217 27.8530 0.0000 0.0000 0.0000
# 3 31.8564 27.8530 65.1103 0.0000 0.0000 0.0000
# 4 0.0000 0.0000 0.0000 16.8761 0.0000 0.0000
# 5 0.0000 0.0000 0.0000 0.0000 19.7339 0.0000
# 6 0.0000 0.0000 0.0000 0.0000 0.0000 24.7359
#
#
#
# Elastic Compliance Matrix: (Units=1/GPa)
#
#
# Indices 1 2 3 4 5 6 
#
# 1 0.013432 -0.002540 -0.005485 0.000000 0.000000 0.000000
# 2 -0.002540 0.009887 -0.002987 0.000000 0.000000 0.000000
# 3 -0.005485 -0.002987 0.019320 0.000000 0.000000 0.000000
# 4 0.000000 0.000000 0.000000 0.059255 0.000000 0.000000
# 5 0.000000 0.000000 0.000000 0.000000 0.050674 0.000000
# 6 0.000000 0.000000 0.000000 0.000000 0.000000 0.040427
#
#
# Mechanical properties :
#
#
# Convention : Reuss Voigt Hill
#
# Bulk Modulus (GPa) = 48.50904 51.56207 50.03555
# Shear Modulus (GPa) = 22.53358 24.51772 23.52565
#
# Velocity S-wave (km/s) = 3.34003 3.48397 3.41276
# Velocity P-wave (km/s) = 6.23618 6.45841 6.34827
#
# Compressibility (1/GPa) = 0.02061471
#
# Stress axis : x y z
#
# Youngs Moduli (GPa) = 74.45018 101.14047 51.76038
#
# Poissons Ratio (x) = 0.25694 0.28391
# Poissons Ratio (y) = 0.18914 0.15459
# Poissons Ratio (z) = 0.40836 0.30207
#
# Static dielectric constant tensor:
#      x y z
#    x 1.759490 0.000000 0.000000 
#    y 0.000000 1.757100 0.000000 
#    z 0.000000 0.000000 1.768880 
# 
# From -- ./inp_files/49425.got.cif
#   From: 2010.05.17/outbox.cif.g08.bks.cpg/sg68_25_cif.got.tgz:49425.got - 2010.06.03 18:57:09.
