data_PCOD9508026
_publ_section_title
;
Structure prediction by ZEFSAII (Michael W. Deem and Ramdas Pophale) SiO2 
 PCOD9508026
Probable space group: C C C A
;
_chemical_formula_sum "Si O2"
_cell_formula_units_Z 68
_cell_length_a 24.942695
_cell_length_b 13.043426
_cell_length_c 9.174910
_cell_angle_alpha 90.000000
_cell_angle_beta 90.000000
_cell_angle_gamma 90.000000
_cell_volume 2984.948672
_symmetry_space_group_name_H-M "C C C A"
_symmetry_group_IT_number 68
_space_group.IT_coordinate_system_code '2'
_symmetry_cell_setting 'orthorhombic'
loop_
_space_group_symop_operation_xyz
x,y,z
-x,1/2-y,z
x,1/2-y,1/2-z
-x,y,1/2-z
-x,-y,-z
x,1/2+y,-z
-x,1/2+y,1/2+z
x,-y,1/2+z
1/2+x,1/2+y,z
1/2-x,-y,z
1/2+x,-y,1/2-z
1/2-x,1/2+y,1/2-z
1/2-x,1/2-y,-z
1/2+x,y,-z
1/2-x,y,1/2+z
1/2+x,1/2-y,1/2+z
loop_
_atom_site_type_symbol
_atom_site_label
_atom_site_fract_x
_atom_site_fract_y
_atom_site_fract_z
Si Si1 0.724817 0.606924 0.129921
Si Si2 0.049190 0.431003 0.940427
Si Si3 0.000000 0.250000 0.750000
Si Si4 0.879641 0.961277 0.700649
Si Si5 0.321321 0.665637 0.655429
O O1 0.750000 0.500000 0.064848
O O2 0.673088 0.589088 0.230962
O O3 0.772976 0.641983 0.232613
O O4 0.704859 0.681218 0.001916
O O5 0.080743 0.503953 0.828181
O O6 0.030774 0.329426 0.856267
O O7 0.088694 0.403387 0.074185
O O8 0.000000 0.500000 0.000000
O O9 0.858217 0.067432 0.632643
O O10 0.352469 0.750000 0.750000
#
# Coordination Sequence:
#
# PCOD9508026 Si02
#       5
#    16  16   4  16  16
#     4  10  21  40  64  99 141 197 236 294 374 439
#     4  12  25  49  76 109 144 193 248 318 371 450
#     4  12  28  48  86 106 148 192 254 312 400 438
#     4  11  23  44  74  96 147 193 240 298 379 433
#     4  11  23  38  65 103 146 187 246 302 361 442
#
# _framework density 22.78096
#
# number of rings (size 3 to 8) (size 9 to 14) (size 15 to 20)
#    0.000    0.941    4.706    2.824    4.941    0.000 
#    0.000    2.353    0.000    0.000    0.000    0.000 
#    0.000    0.000    0.000    0.000    0.000    0.000 
#
# Total GULP energy -190050.496017 kJ/mol
# GULP energy per Si atom -5589.720471 kJ/mol
# Density = 2.272911 g / cm^3
# Si number density = 22.780960 Si / 1000 Ang^3
#
#
#
# Elastic Constant Matrix: (Units=GPa)
#
#
# Indices 1 2 3 4 5 6 
#
# 1 103.6512 27.9180 41.7402 0.0000 0.0000 0.0000
# 2 27.9180 68.5380 29.3400 0.0000 0.0000 0.0000
# 3 41.7402 29.3400 127.8313 0.0000 0.0000 0.0000
# 4 0.0000 0.0000 0.0000 40.5277 0.0000 0.0000
# 5 0.0000 0.0000 0.0000 0.0000 36.2629 0.0000
# 6 0.0000 0.0000 0.0000 0.0000 0.0000 12.8499
#
#
#
# Elastic Compliance Matrix: (Units=1/GPa)
#
#
# Indices 1 2 3 4 5 6 
#
# 1 0.011823 -0.003508 -0.003055 0.000000 0.000000 0.000000
# 2 -0.003508 0.017221 -0.002807 0.000000 0.000000 0.000000
# 3 -0.003055 -0.002807 0.009465 0.000000 0.000000 0.000000
# 4 0.000000 0.000000 0.000000 0.024674 0.000000 0.000000
# 5 0.000000 0.000000 0.000000 0.000000 0.027576 0.000000
# 6 0.000000 0.000000 0.000000 0.000000 0.000000 0.077821
#
#
# Mechanical properties :
#
#
# Convention : Reuss Voigt Hill
#
# Bulk Modulus (GPa) = 50.58721 55.33521 52.96121
# Shear Modulus (GPa) = 25.78498 31.32959 28.55729
#
# Velocity S-wave (km/s) = 3.36797 3.71246 3.54441
# Velocity P-wave (km/s) = 6.11379 6.53601 6.32842
#
# Compressibility (1/GPa) = 0.01976784
#
# Stress axis : x y z
#
# Youngs Moduli (GPa) = 84.58093 58.06839 105.65508
#
# Poissons Ratio (x) = 0.20370 0.32281
# Poissons Ratio (y) = 0.29671 0.29659
# Poissons Ratio (z) = 0.25842 0.16301
#
# Static dielectric constant tensor:
#      x y z
#    x 1.862430 0.000000 0.000000 
#    y 0.000000 1.946790 0.000000 
#    z 0.000000 0.000000 1.832600 
# 
# From -- ./inp_files/5118.got.cif
#   From: 2010.05.17/outbox.cif.g08.bks.cpg/sg68_3_cif.got.tgz:5118.got - 2010.06.03 18:57:09.
