data_PCOD9508882
_publ_section_title
;
Structure prediction by ZEFSAII (Michael W. Deem and Ramdas Pophale) SiO2 
 PCOD9508882
Probable space group: C C C A
;
_chemical_formula_sum "Si O2"
_cell_formula_units_Z 68
_cell_length_a 7.863858
_cell_length_b 25.954605
_cell_length_c 16.555643
_cell_angle_alpha 90.000000
_cell_angle_beta 90.000000
_cell_angle_gamma 90.000000
_cell_volume 3379.061836
_symmetry_space_group_name_H-M "C C C A"
_symmetry_group_IT_number 68
_space_group.IT_coordinate_system_code '2'
_symmetry_cell_setting 'orthorhombic'
loop_
_space_group_symop_operation_xyz
x,y,z
-x,1/2-y,z
x,1/2-y,1/2-z
-x,y,1/2-z
-x,-y,-z
x,1/2+y,-z
-x,1/2+y,1/2+z
x,-y,1/2+z
1/2+x,1/2+y,z
1/2-x,-y,z
1/2+x,-y,1/2-z
1/2-x,1/2+y,1/2-z
1/2-x,1/2-y,-z
1/2+x,y,-z
1/2-x,y,1/2+z
1/2+x,1/2-y,1/2+z
loop_
_atom_site_type_symbol
_atom_site_label
_atom_site_fract_x
_atom_site_fract_y
_atom_site_fract_z
Si Si1 0.000000 0.750000 0.250000
Si Si2 0.750000 0.500000 0.708390
Si Si3 0.048830 0.488093 0.090493
Si Si4 0.193154 0.306869 0.610398
Si Si5 0.500000 0.750000 0.024738
Si Si6 0.870599 0.900580 0.686565
O O1 0.114533 0.782962 0.309489
O O2 0.585547 0.513493 0.652960
O O3 0.794640 0.551096 0.761142
O O4 0.250000 0.500000 0.096988
O O5 0.026868 0.428483 0.114812
O O6 0.000000 0.500000 0.000000
O O7 0.356675 0.274822 0.580660
O O8 0.066125 0.295377 0.535520
O O9 0.242194 0.363823 0.639714
O O10 0.000000 0.873816 0.750000
#
# Coordination Sequence:
#
# PCOD9508882 Si02
#       6
#     4   8  16  16   8  16
#     4  10  24  38  68 102 124 164 220 266 340 376
#     4  10  22  44  60  94 136 168 224 268 316 390
#     4  11  22  39  63  89 129 177 213 267 321 376
#     4  10  22  43  65  98 125 170 212 267 335 387
#     4   9  22  44  68  89 138 162 210 281 322 396
#     4  10  23  40  66  96 124 175 217 263 330 384
#
# _framework density 20.123930000000001
#
# number of rings (size 3 to 8) (size 9 to 14) (size 15 to 20)
#    0.000    1.882    2.353    0.000    3.294    3.765 
#    0.000    0.000    0.000    0.000    0.000    0.000 
#    0.000    0.000    0.000    0.000    0.000    0.000 
#
# Total GULP energy -189278.309474 kJ/mol
# GULP energy per Si atom -5567.009102 kJ/mol
# Density = 2.007813 g / cm^3
# Si number density = 20.123930 Si / 1000 Ang^3
#
#
#
# Elastic Constant Matrix: (Units=GPa)
#
#
# Indices 1 2 3 4 5 6 
#
# 1 109.4409 20.9223 66.5890 0.0000 0.0000 0.0000
# 2 20.9223 70.4117 56.5780 0.0000 0.0000 0.0000
# 3 66.5890 56.5780 163.6350 0.0000 0.0000 0.0000
# 4 0.0000 0.0000 0.0000 37.6159 0.0000 0.0000
# 5 0.0000 0.0000 0.0000 0.0000 19.8686 0.0000
# 6 0.0000 0.0000 0.0000 0.0000 0.0000 36.8635
#
#
#
# Elastic Compliance Matrix: (Units=1/GPa)
#
#
# Indices 1 2 3 4 5 6 
#
# 1 0.012157 0.000502 -0.005121 0.000000 0.000000 0.000000
# 2 0.000502 0.019687 -0.007011 0.000000 0.000000 0.000000
# 3 -0.005121 -0.007011 0.010619 0.000000 0.000000 0.000000
# 4 0.000000 0.000000 0.000000 0.026585 0.000000 0.000000
# 5 0.000000 0.000000 0.000000 0.000000 0.050331 0.000000
# 6 0.000000 0.000000 0.000000 0.000000 0.000000 0.027127
#
#
# Mechanical properties :
#
#
# Convention : Reuss Voigt Hill
#
# Bulk Modulus (GPa) = 52.07383 70.18516 61.12949
# Shear Modulus (GPa) = 28.38235 32.16281 30.27258
#
# Velocity S-wave (km/s) = 3.75957 4.00213 3.88275
# Velocity P-wave (km/s) = 6.69168 7.50388 7.10939
#
# Compressibility (1/GPa) = 0.01920350
#
# Stress axis : x y z
#
# Youngs Moduli (GPa) = 82.25653 50.79585 94.16893
#
# Poissons Ratio (x) = -0.02552 0.48223
# Poissons Ratio (y) = -0.04132 0.66024
# Poissons Ratio (z) = 0.42122 0.35614
#
# Static dielectric constant tensor:
#      x y z
#    x 1.870050 0.000000 0.000000 
#    y 0.000000 1.750790 0.000000 
#    z 0.000000 0.000000 1.729690 
# 
# From -- ./inp_files/19410.got.cif
#   From: 2010.05.17/outbox.cif.g08.bks.cpg/sg68_10_cif.got.tgz:19410.got - 2010.06.03 18:57:09.
