data_PCOD9508149
_publ_section_title
;
Structure prediction by ZEFSAII (Michael W. Deem and Ramdas Pophale) SiO2 
 PCOD9508149
Probable space group: C C C A
;
_chemical_formula_sum "Si O2"
_cell_formula_units_Z 64
_cell_length_a 7.910629
_cell_length_b 11.331117
_cell_length_c 27.715576
_cell_angle_alpha 90.000000
_cell_angle_beta 90.000000
_cell_angle_gamma 90.000000
_cell_volume 2484.320652
_symmetry_space_group_name_H-M "C C C A"
_symmetry_group_IT_number 68
_space_group.IT_coordinate_system_code '2'
_symmetry_cell_setting 'orthorhombic'
loop_
_space_group_symop_operation_xyz
x,y,z
-x,1/2-y,z
x,1/2-y,1/2-z
-x,y,1/2-z
-x,-y,-z
x,1/2+y,-z
-x,1/2+y,1/2+z
x,-y,1/2+z
1/2+x,1/2+y,z
1/2-x,-y,z
1/2+x,-y,1/2-z
1/2-x,1/2+y,1/2-z
1/2-x,1/2-y,-z
1/2+x,y,-z
1/2-x,y,1/2+z
1/2+x,1/2-y,1/2+z
loop_
_atom_site_type_symbol
_atom_site_label
_atom_site_fract_x
_atom_site_fract_y
_atom_site_fract_z
Si Si1 0.239775 0.158445 0.117034
Si Si2 0.840247 0.373937 0.012774
Si Si3 0.595097 0.592210 0.908136
Si Si4 0.817854 0.632316 0.726816
O O1 0.120895 0.140351 0.069689
O O2 0.320189 0.287976 0.110447
O O3 0.411363 0.077252 0.116277
O O4 0.164481 0.150721 0.169638
O O5 0.750000 0.500000 0.010497
O O6 0.750000 0.250000 0.000000
O O7 0.953568 0.388298 0.964744
O O8 0.750000 0.500000 0.903871
O O9 0.728812 0.750000 0.750000
O O10 0.750000 0.500000 0.735819
O O11 0.000000 0.630498 0.750000
#
# Coordination Sequence:
#
# PCOD9508149 Si02
#       4
#    16  16  16  16
#     4  10  21  41  67  99 141 188 237 291 354 424
#     4   9  18  35  59  96 140 182 226 271 329 412
#     4   9  20  36  64 105 148 192 230 276 349 428
#     4  11  28  52  77 106 138 181 243 309 370 428
#
# _framework density 25.761569999999999
#
# number of rings (size 3 to 8) (size 9 to 14) (size 15 to 20)
#    0.000    2.250    0.000    0.750    0.000   13.500 
#    0.000   17.500    0.000    0.000    0.000    0.000 
#    0.000    0.000    0.000    0.000    0.000    0.000 
#
# Total GULP energy -178625.817030 kJ/mol
# GULP energy per Si atom -5582.056782 kJ/mol
# Density = 2.570294 g / cm^3
# Si number density = 25.761570 Si / 1000 Ang^3
#
#
#
# Elastic Constant Matrix: (Units=GPa)
#
#
# Indices 1 2 3 4 5 6 
#
# 1 108.9331 36.1600 62.5734 0.0000 0.0000 0.0000
# 2 36.1600 206.3236 55.2404 0.0000 0.0000 0.0000
# 3 62.5734 55.2404 237.1810 0.0000 0.0000 0.0000
# 4 0.0000 0.0000 0.0000 42.8369 0.0000 0.0000
# 5 0.0000 0.0000 0.0000 0.0000 39.0843 0.0000
# 6 0.0000 0.0000 0.0000 0.0000 0.0000 47.0277
#
#
#
# Elastic Compliance Matrix: (Units=1/GPa)
#
#
# Indices 1 2 3 4 5 6 
#
# 1 0.011109 -0.001240 -0.002642 0.000000 0.000000 0.000000
# 2 -0.001240 0.005307 -0.000909 0.000000 0.000000 0.000000
# 3 -0.002642 -0.000909 0.005125 0.000000 0.000000 0.000000
# 4 0.000000 0.000000 0.000000 0.023344 0.000000 0.000000
# 5 0.000000 0.000000 0.000000 0.000000 0.025586 0.000000
# 6 0.000000 0.000000 0.000000 0.000000 0.000000 0.021264
#
#
# Mechanical properties :
#
#
# Convention : Reuss Voigt Hill
#
# Bulk Modulus (GPa) = 83.61266 95.59835 89.60550
# Shear Modulus (GPa) = 47.48166 52.35404 49.91785
#
# Velocity S-wave (km/s) = 4.29781 4.51294 4.40669
# Velocity P-wave (km/s) = 7.56010 8.02153 7.79423
#
# Compressibility (1/GPa) = 0.01195991
#
# Stress axis : x y z
#
# Youngs Moduli (GPa) = 90.01629 188.41627 195.12327
#
# Poissons Ratio (x) = 0.23356 0.51554
# Poissons Ratio (y) = 0.11158 0.17738
# Poissons Ratio (z) = 0.23783 0.17129
#
# Static dielectric constant tensor:
#      x y z
#    x 2.114730 0.000000 0.000000 
#    y 0.000000 2.181350 0.000000 
#    z 0.000000 0.000000 1.957570 
# 
# From -- ./inp_files/53758.got.cif
#   From: 2010.05.17/outbox.cif.g08.bks.cpg/sg68_27_cif.got.tgz:53758.got - 2010.06.03 18:57:09.
