data_PCOD9508150
_publ_section_title
;
Structure prediction by ZEFSAII (Michael W. Deem and Ramdas Pophale) SiO2 
 PCOD9508150
Probable space group: C C C A
;
_chemical_formula_sum "Si O2"
_cell_formula_units_Z 60
_cell_length_a 4.908578
_cell_length_b 20.722506
_cell_length_c 24.256326
_cell_angle_alpha 90.000000
_cell_angle_beta 90.000000
_cell_angle_gamma 90.000000
_cell_volume 2467.305867
_symmetry_space_group_name_H-M "C C C A"
_symmetry_group_IT_number 68
_space_group.IT_coordinate_system_code '2'
_symmetry_cell_setting 'orthorhombic'
loop_
_space_group_symop_operation_xyz
x,y,z
-x,1/2-y,z
x,1/2-y,1/2-z
-x,y,1/2-z
-x,-y,-z
x,1/2+y,-z
-x,1/2+y,1/2+z
x,-y,1/2+z
1/2+x,1/2+y,z
1/2-x,-y,z
1/2+x,-y,1/2-z
1/2-x,1/2+y,1/2-z
1/2-x,1/2-y,-z
1/2+x,y,-z
1/2-x,y,1/2+z
1/2+x,1/2-y,1/2+z
loop_
_atom_site_type_symbol
_atom_site_label
_atom_site_fract_x
_atom_site_fract_y
_atom_site_fract_z
Si Si1 0.500000 0.750000 0.250000
Si Si2 0.321447 0.070634 0.852780
Si Si3 0.453961 0.109514 0.539023
Si Si4 0.000000 0.250000 0.458602
Si Si5 0.665310 0.637986 0.695713
O O1 0.701586 0.792442 0.288816
O O2 0.445369 0.062109 0.914166
O O3 0.568916 0.097461 0.817244
O O4 0.063230 0.120162 0.850390
O O5 0.250000 0.000000 0.832030
O O6 0.155873 0.104673 0.513300
O O7 0.486477 0.180214 0.568861
O O8 0.750000 0.250000 0.500000
O O9 0.500000 0.618461 0.750000
#
# Coordination Sequence:
#
# PCOD9508150 Si02
#       5
#     4  16  16   8  16
#     4  12  26  54  78 108 142 172 254 298 400 444
#     4  12  27  45  71 112 148 197 253 286 361 448
#     4  10  21  41  67  99 145 194 242 300 355 417
#     4   8  16  33  56  86 123 170 231 280 343 402
#     4  12  26  50  75 104 146 184 238 314 370 440
#
# _framework density 24.318024000000001
#
# number of rings (size 3 to 8) (size 9 to 14) (size 15 to 20)
#    0.000    1.067    2.667    2.800    0.000    4.267 
#    2.400    5.333    0.000    0.000    0.000    0.000 
#    0.000    0.000    0.000    0.000    0.000    0.000 
#
# Total GULP energy -167544.558206 kJ/mol
# GULP energy per Si atom -5584.818607 kJ/mol
# Density = 2.426268 g / cm^3
# Si number density = 24.318024 Si / 1000 Ang^3
#
#
#
# Elastic Constant Matrix: (Units=GPa)
#
#
# Indices 1 2 3 4 5 6 
#
# 1 173.2142 53.3725 16.9665 0.0000 0.0000 0.0000
# 2 53.3725 87.9190 26.8708 0.0000 0.0000 0.0000
# 3 16.9665 26.8708 61.4623 0.0000 0.0000 0.0000
# 4 0.0000 0.0000 0.0000 30.1244 0.0000 0.0000
# 5 0.0000 0.0000 0.0000 0.0000 38.4926 0.0000
# 6 0.0000 0.0000 0.0000 0.0000 0.0000 34.4472
#
#
#
# Elastic Compliance Matrix: (Units=1/GPa)
#
#
# Indices 1 2 3 4 5 6 
#
# 1 0.007102 -0.004285 -0.000087 0.000000 0.000000 0.000000
# 2 -0.004285 0.015713 -0.005687 0.000000 0.000000 0.000000
# 3 -0.000087 -0.005687 0.018781 0.000000 0.000000 0.000000
# 4 0.000000 0.000000 0.000000 0.033196 0.000000 0.000000
# 5 0.000000 0.000000 0.000000 0.000000 0.025979 0.000000
# 6 0.000000 0.000000 0.000000 0.000000 0.000000 0.029030
#
#
# Mechanical properties :
#
#
# Convention : Reuss Voigt Hill
#
# Bulk Modulus (GPa) = 46.55924 57.44612 52.00268
# Shear Modulus (GPa) = 31.83144 35.63859 33.73502
#
# Velocity S-wave (km/s) = 3.62189 3.83237 3.72861
# Velocity P-wave (km/s) = 6.05626 6.57699 6.32199
#
# Compressibility (1/GPa) = 0.02147801
#
# Stress axis : x y z
#
# Youngs Moduli (GPa) = 140.80569 63.64040 53.24670
#
# Poissons Ratio (x) = 0.27268 0.00465
# Poissons Ratio (y) = 0.60331 0.30281
# Poissons Ratio (z) = 0.01229 0.36192
#
# Static dielectric constant tensor:
#      x y z
#    x 1.896940 0.000000 0.000000 
#    y 0.000000 2.068050 0.000000 
#    z 0.000000 0.000000 1.940810 
# 
# From -- ./inp_files/42048.got.cif
#   From: 2010.05.17/outbox.cif.g08.bks.cpg/sg68_22_cif.got.tgz:42048.got - 2010.06.03 18:57:09.
