data_PCOD9508180
_publ_section_title
;
Structure prediction by ZEFSAII (Michael W. Deem and Ramdas Pophale) SiO2 
 PCOD9508180
Probable space group: C C C A
;
_chemical_formula_sum "Si O2"
_cell_formula_units_Z 104
_cell_length_a 29.272646
_cell_length_b 8.819196
_cell_length_c 18.915649
_cell_angle_alpha 90.000000
_cell_angle_beta 90.000000
_cell_angle_gamma 90.000000
_cell_volume 4883.286692
_symmetry_space_group_name_H-M "C C C A"
_symmetry_group_IT_number 68
_space_group.IT_coordinate_system_code '2'
_symmetry_cell_setting 'orthorhombic'
loop_
_space_group_symop_operation_xyz
x,y,z
-x,1/2-y,z
x,1/2-y,1/2-z
-x,y,1/2-z
-x,-y,-z
x,1/2+y,-z
-x,1/2+y,1/2+z
x,-y,1/2+z
1/2+x,1/2+y,z
1/2-x,-y,z
1/2+x,-y,1/2-z
1/2-x,1/2+y,1/2-z
1/2-x,1/2-y,-z
1/2+x,y,-z
1/2-x,y,1/2+z
1/2+x,1/2-y,1/2+z
loop_
_atom_site_type_symbol
_atom_site_label
_atom_site_fract_x
_atom_site_fract_y
_atom_site_fract_z
Si Si1 0.610105 0.778292 0.060769
Si Si2 0.401403 0.605642 0.211271
Si Si3 0.187941 0.232338 0.552358
Si Si4 0.860433 0.868301 0.306916
Si Si5 0.448264 0.055534 0.495895
Si Si6 0.049775 0.189404 0.845374
Si Si7 0.250000 0.000000 0.966374
O O1 0.622194 0.834387 0.139134
O O2 0.585312 0.920203 0.024134
O O3 0.650647 0.728583 0.008503
O O4 0.572452 0.644149 0.062491
O O5 0.422948 0.750000 0.250000
O O6 0.366653 0.526399 0.266373
O O7 0.436602 0.474104 0.187169
O O8 0.165799 0.150847 0.619899
O O9 0.214910 0.386531 0.573048
O O10 0.221120 0.112543 0.515413
O O11 0.840360 0.750000 0.250000
O O12 0.911450 0.806954 0.323088
O O13 0.447183 0.168911 0.429471
O O14 0.500000 0.000000 0.500000
O O15 0.000000 0.250000 0.827392
#
# Coordination Sequence:
#
# PCOD9508180 Si02
#       7
#    16  16  16  16  16  16   8
#     4  11  23  40  69  93 133 185 222 284 336 409
#     4  10  25  40  61 103 131 181 234 282 341 401
#     4  11  23  46  73 101 137 170 226 282 355 420
#     4  10  23  43  68  96 136 188 226 264 343 430
#     4  11  22  36  60 102 133 174 237 284 331 384
#     4  10  21  42  63  90 131 185 235 277 329 398
#     4  10  26  42  74 110 126 164 224 290 356 420
#
# _framework density 21.297131
#
# number of rings (size 3 to 8) (size 9 to 14) (size 15 to 20)
#    0.000    1.538    1.538    2.308    8.615    2.769 
#    0.000    8.462    0.000    0.000    0.000    0.000 
#    0.000    0.000    0.000    0.000    0.000    0.000 
#
# Total GULP energy -290496.978141 kJ/mol
# GULP energy per Si atom -5586.480349 kJ/mol
# Density = 2.124866 g / cm^3
# Si number density = 21.297131 Si / 1000 Ang^3
#
#
#
# Elastic Constant Matrix: (Units=GPa)
#
#
# Indices 1 2 3 4 5 6 
#
# 1 80.1888 26.1092 35.3767 0.0000 0.0000 0.0000
# 2 26.1092 95.7387 42.4598 0.0000 0.0000 0.0000
# 3 35.3767 42.4598 120.6395 0.0000 0.0000 0.0000
# 4 0.0000 0.0000 0.0000 42.6254 0.0000 0.0000
# 5 0.0000 0.0000 0.0000 0.0000 9.1876 0.0000
# 6 0.0000 0.0000 0.0000 0.0000 0.0000 28.5640
#
#
#
# Elastic Compliance Matrix: (Units=1/GPa)
#
#
# Indices 1 2 3 4 5 6 
#
# 1 0.014814 -0.002504 -0.003463 0.000000 0.000000 0.000000
# 2 -0.002504 0.012800 -0.003771 0.000000 0.000000 0.000000
# 3 -0.003463 -0.003771 0.010632 0.000000 0.000000 0.000000
# 4 0.000000 0.000000 0.000000 0.023460 0.000000 0.000000
# 5 0.000000 0.000000 0.000000 0.000000 0.108842 0.000000
# 6 0.000000 0.000000 0.000000 0.000000 0.000000 0.035009
#
#
# Mechanical properties :
#
#
# Convention : Reuss Voigt Hill
#
# Bulk Modulus (GPa) = 53.27548 56.05093 54.66321
# Shear Modulus (GPa) = 21.61798 28.91682 25.26740
#
# Velocity S-wave (km/s) = 3.18947 3.68880 3.44819
# Velocity P-wave (km/s) = 6.21556 6.67223 6.44794
#
# Compressibility (1/GPa) = 0.01877036
#
# Stress axis : x y z
#
# Youngs Moduli (GPa) = 67.50597 78.12274 94.05829
#
# Poissons Ratio (x) = 0.19563 0.32569
# Poissons Ratio (y) = 0.16905 0.35468
# Poissons Ratio (z) = 0.23375 0.29459
#
# Static dielectric constant tensor:
#      x y z
#    x 1.777220 0.000000 0.000000 
#    y 0.000000 1.792710 0.000000 
#    z 0.000000 0.000000 1.837610 
# 
# From -- ./inp_files/41583.got.cif
#   From: 2010.05.17/outbox.cif.g08.bks.cpg/sg68_21_cif.got.tgz:41583.got - 2010.06.03 18:57:09.
