data_PCOD9508789
_publ_section_title
;
Structure prediction by ZEFSAII (Michael W. Deem and Ramdas Pophale) SiO2 
 PCOD9508789
Probable space group: C C C A
;
_chemical_formula_sum "Si O2"
_cell_formula_units_Z 68
_cell_length_a 13.496948
_cell_length_b 22.590045
_cell_length_c 9.835572
_cell_angle_alpha 90.000000
_cell_angle_beta 90.000000
_cell_angle_gamma 90.000000
_cell_volume 2998.833078
_symmetry_space_group_name_H-M "C C C A"
_symmetry_group_IT_number 68
_space_group.IT_coordinate_system_code '2'
_symmetry_cell_setting 'orthorhombic'
loop_
_space_group_symop_operation_xyz
x,y,z
-x,1/2-y,z
x,1/2-y,1/2-z
-x,y,1/2-z
-x,-y,-z
x,1/2+y,-z
-x,1/2+y,1/2+z
x,-y,1/2+z
1/2+x,1/2+y,z
1/2-x,-y,z
1/2+x,-y,1/2-z
1/2-x,1/2+y,1/2-z
1/2-x,1/2-y,-z
1/2+x,y,-z
1/2-x,y,1/2+z
1/2+x,1/2-y,1/2+z
loop_
_atom_site_type_symbol
_atom_site_label
_atom_site_fract_x
_atom_site_fract_y
_atom_site_fract_z
Si Si1 0.392546 0.734831 0.995679
Si Si2 0.056610 0.378139 0.888716
Si Si3 0.651231 0.130542 0.989003
Si Si4 0.000000 0.750000 0.750000
Si Si5 0.726369 0.067257 0.261181
O O1 0.500000 0.750000 0.929876
O O2 0.162175 0.702635 0.997925
O O3 0.425911 0.717117 0.148503
O O4 0.366248 0.674902 0.921223
O O5 0.126620 0.432840 0.854766
O O6 0.000000 0.363751 0.750000
O O7 0.967450 0.382278 0.995763
O O8 0.702679 0.102552 0.122490
O O9 0.691675 0.100131 0.852986
O O10 0.750000 0.000000 0.227413
#
# Coordination Sequence:
#
# PCOD9508789 Si02
#       5
#    16  16  16   4  16
#     4   8  17  35  62  92 125 157 203 256 323 396
#     4   9  20  40  67  87 122 170 205 258 331 388
#     4  10  22  42  65  92 127 170 211 271 330 385
#     4   8  16  32  58 100 132 148 194 274 300 398
#     4  11  24  41  61  91 127 169 226 272 307 381
#
# _framework density 22.675488000000001
#
# number of rings (size 3 to 8) (size 9 to 14) (size 15 to 20)
#    0.706    1.882    0.000    0.706    0.000   14.588 
#    0.000    2.353    0.000    0.000    0.000    0.000 
#    0.000    0.000    0.000    0.000    0.000    0.000 
#
# Total GULP energy -189315.825195 kJ/mol
# GULP energy per Si atom -5568.112506 kJ/mol
# Density = 2.262388 g / cm^3
# Si number density = 22.675488 Si / 1000 Ang^3
#
#
#
# Elastic Constant Matrix: (Units=GPa)
#
#
# Indices 1 2 3 4 5 6 
#
# 1 83.4700 44.2785 33.3555 0.0000 0.0000 0.0000
# 2 44.2785 135.3030 46.2422 0.0000 0.0000 0.0000
# 3 33.3555 46.2422 56.5905 0.0000 0.0000 0.0000
# 4 0.0000 0.0000 0.0000 -16.7506 0.0000 0.0000
# 5 0.0000 0.0000 0.0000 0.0000 25.5206 0.0000
# 6 0.0000 0.0000 0.0000 0.0000 0.0000 28.9259
#
#
#
# Elastic Compliance Matrix: (Units=1/GPa)
#
#
# Indices 1 2 3 4 5 6 
#
# 1 0.016437 -0.002869 -0.007344 0.000000 0.000000 0.000000
# 2 -0.002869 0.010755 -0.007098 0.000000 0.000000 0.000000
# 3 -0.007344 -0.007098 0.027799 0.000000 0.000000 0.000000
# 4 0.000000 0.000000 0.000000 -0.059700 0.000000 0.000000
# 5 0.000000 0.000000 0.000000 0.000000 0.039184 0.000000
# 6 0.000000 0.000000 0.000000 0.000000 0.000000 0.034571
#
#
# Mechanical properties :
#
#
# Convention : Reuss Voigt Hill
#
# Bulk Modulus (GPa) = 49.09052 58.12397 53.60724
# Shear Modulus (GPa) = 45.26595 17.63835 31.45215
#
# Velocity S-wave (km/s) = 4.47279 2.79204 3.72836
# Velocity P-wave (km/s) = 6.95490 6.00688 6.49820
#
# Compressibility (1/GPa) = 0.02037053
#
# Stress axis : x y z
#
# Youngs Moduli (GPa) = 60.83822 92.97576 35.97249
#
# Poissons Ratio (x) = 0.26677 0.26417
# Poissons Ratio (y) = 0.17456 0.25532
# Poissons Ratio (z) = 0.44678 0.65990
#
# Static dielectric constant tensor:
#      x y z
#    x 1.959820 0.000000 0.000000 
#    y 0.000000 1.831830 0.000000 
#    z 0.000000 0.000000 1.854400 
# 
# From -- ./inp_files/13014.got.cif
#   From: 2010.05.17/outbox.cif.g08.bks.cpg/sg68_7_cif.got.tgz:13014.got - 2010.06.03 18:57:09.
