data_PCOD9508063
_publ_section_title
;
Structure prediction by ZEFSAII (Michael W. Deem and Ramdas Pophale) SiO2 
 PCOD9508063
Probable space group: C C C A
;
_chemical_formula_sum "Si O2"
_cell_formula_units_Z 72
_cell_length_a 12.476132
_cell_length_b 14.488587
_cell_length_c 15.794059
_cell_angle_alpha 90.000000
_cell_angle_beta 90.000000
_cell_angle_gamma 90.000000
_cell_volume 2854.958173
_symmetry_space_group_name_H-M "C C C A"
_symmetry_group_IT_number 68
_space_group.IT_coordinate_system_code '2'
_symmetry_cell_setting 'orthorhombic'
loop_
_space_group_symop_operation_xyz
x,y,z
-x,1/2-y,z
x,1/2-y,1/2-z
-x,y,1/2-z
-x,-y,-z
x,1/2+y,-z
-x,1/2+y,1/2+z
x,-y,1/2+z
1/2+x,1/2+y,z
1/2-x,-y,z
1/2+x,-y,1/2-z
1/2-x,1/2+y,1/2-z
1/2-x,1/2-y,-z
1/2+x,y,-z
1/2-x,y,1/2+z
1/2+x,1/2-y,1/2+z
loop_
_atom_site_type_symbol
_atom_site_label
_atom_site_fract_x
_atom_site_fract_y
_atom_site_fract_z
Si Si1 0.647783 0.099412 0.899824
Si Si2 0.979528 0.526650 0.339916
Si Si3 0.500000 0.750000 0.018078
Si Si4 0.156034 0.847493 0.780984
Si Si5 0.822870 0.665033 0.430243
O O1 0.586632 0.003220 0.888378
O O2 0.702331 0.117301 0.809379
O O3 0.546719 0.169519 0.921745
O O4 0.717977 0.119475 0.982146
O O5 0.915959 0.432934 0.312160
O O6 0.906268 0.589768 0.396504
O O7 0.000000 0.574994 0.250000
O O8 0.604036 0.753057 0.956513
O O9 0.109032 0.750000 0.750000
O O10 0.235426 0.823821 0.857981
#
# Coordination Sequence:
#
# PCOD9508063 Si02
#       5
#    16  16   8  16  16
#     4   9  20  42  64  95 125 181 223 270 341 408
#     4  10  21  40  67  93 132 181 225 271 340 410
#     4   8  20  38  68  94 128 170 230 268 338 404
#     4  11  23  39  66  97 137 169 224 285 335 396
#     4  10  22  41  64 101 132 172 228 282 337 403
#
# _framework density 25.219284999999999
#
# number of rings (size 3 to 8) (size 9 to 14) (size 15 to 20)
#    1.333    0.889    0.000    2.667    0.000    5.778 
#    0.000    8.889    0.000    0.000    0.000    0.000 
#    0.000    0.000    0.000    0.000    0.000    0.000 
#
# Total GULP energy -200568.198287 kJ/mol
# GULP energy per Si atom -5571.338841 kJ/mol
# Density = 2.516188 g / cm^3
# Si number density = 25.219285 Si / 1000 Ang^3
#
#
#
# Elastic Constant Matrix: (Units=GPa)
#
#
# Indices 1 2 3 4 5 6 
#
# 1 69.5005 26.0551 86.2353 0.0000 0.0000 0.0000
# 2 26.0551 70.0458 29.2166 0.0000 0.0000 0.0000
# 3 86.2353 29.2166 220.0241 0.0000 0.0000 0.0000
# 4 0.0000 0.0000 0.0000 19.9160 0.0000 0.0000
# 5 0.0000 0.0000 0.0000 0.0000 124.1710 0.0000
# 6 0.0000 0.0000 0.0000 0.0000 0.0000 18.4430
#
#
#
# Elastic Compliance Matrix: (Units=1/GPa)
#
#
# Indices 1 2 3 4 5 6 
#
# 1 0.030790 -0.006796 -0.011165 0.000000 0.000000 0.000000
# 2 -0.006796 0.016613 0.000457 0.000000 0.000000 0.000000
# 3 -0.011165 0.000457 0.008860 0.000000 0.000000 0.000000
# 4 0.000000 0.000000 0.000000 0.050211 0.000000 0.000000
# 5 0.000000 0.000000 0.000000 0.000000 0.008053 0.000000
# 6 0.000000 0.000000 0.000000 0.000000 0.000000 0.054221
#
#
# Mechanical properties :
#
#
# Convention : Reuss Voigt Hill
#
# Bulk Modulus (GPa) = 47.04501 71.39828 59.22165
# Shear Modulus (GPa) = 23.71452 47.04355 35.37903
#
# Velocity S-wave (km/s) = 3.06981 4.32369 3.74954
# Velocity P-wave (km/s) = 5.59105 7.30056 6.50223
#
# Compressibility (1/GPa) = 0.02125624
#
# Stress axis : x y z
#
# Youngs Moduli (GPa) = 32.47842 60.19231 112.86376
#
# Poissons Ratio (x) = 0.40906 1.26014
# Poissons Ratio (y) = 0.22072 -0.05163
# Poissons Ratio (z) = 0.36263 -0.02754
#
# Static dielectric constant tensor:
#      x y z
#    x 2.015640 0.000000 0.000000 
#    y 0.000000 2.022690 0.000000 
#    z 0.000000 0.000000 2.083080 
# 
# From -- ./inp_files/22043.got.cif
#   From: 2010.05.17/outbox.cif.g08.bks.cpg/sg68_12_cif.got.tgz:22043.got - 2010.06.03 18:57:09.
