data_PCOD9508104
_publ_section_title
;
Structure prediction by ZEFSAII (Michael W. Deem and Ramdas Pophale) SiO2 
 PCOD9508104
Probable space group: C C C A
;
_chemical_formula_sum "Si O2"
_cell_formula_units_Z 88
_cell_length_a 24.042990
_cell_length_b 10.988741
_cell_length_c 15.920121
_cell_angle_alpha 90.000000
_cell_angle_beta 90.000000
_cell_angle_gamma 90.000000
_cell_volume 4206.130833
_symmetry_space_group_name_H-M "C C C A"
_symmetry_group_IT_number 68
_space_group.IT_coordinate_system_code '2'
_symmetry_cell_setting 'orthorhombic'
loop_
_space_group_symop_operation_xyz
x,y,z
-x,1/2-y,z
x,1/2-y,1/2-z
-x,y,1/2-z
-x,-y,-z
x,1/2+y,-z
-x,1/2+y,1/2+z
x,-y,1/2+z
1/2+x,1/2+y,z
1/2-x,-y,z
1/2+x,-y,1/2-z
1/2-x,1/2+y,1/2-z
1/2-x,1/2-y,-z
1/2+x,y,-z
1/2-x,y,1/2+z
1/2+x,1/2-y,1/2+z
loop_
_atom_site_type_symbol
_atom_site_label
_atom_site_fract_x
_atom_site_fract_y
_atom_site_fract_z
Si Si1 0.500000 0.019312 0.750000
Si Si2 0.688557 0.450087 0.962441
Si Si3 0.097683 0.842598 0.673515
Si Si4 0.870524 0.709565 0.491763
Si Si5 0.587857 0.342067 0.320099
Si Si6 0.314793 0.009083 0.770056
O O1 0.544294 0.950203 0.690700
O O2 0.460496 0.091043 0.686659
O O3 0.750000 0.500000 0.980133
O O4 0.651871 0.569903 0.983388
O O5 0.684722 0.424204 0.861516
O O6 0.672010 0.324591 0.008676
O O7 0.100222 0.750000 0.750000
O O8 0.101523 0.784976 0.582462
O O9 0.150101 0.929746 0.695421
O O10 0.909348 0.719172 0.410518
O O11 0.568855 0.250000 0.250000
O O12 0.649836 0.388357 0.293663
O O13 0.250000 0.000000 0.747156
#
# Coordination Sequence:
#
# PCOD9508104 Si02
#       6
#     8  16  16  16  16  16
#     4  10  24  44  68  90 126 178 222 300 340 406
#     4  10  21  41  62  98 139 179 222 268 326 400
#     4  11  22  42  65  95 132 172 230 274 342 405
#     4  11  24  40  69  96 135 178 223 280 336 404
#     4  10  23  44  64  94 131 171 229 281 348 404
#     4   9  20  39  63  95 136 175 217 271 330 406
#
# _framework density 20.921841000000001
#
# number of rings (size 3 to 8) (size 9 to 14) (size 15 to 20)
#    0.000    1.818    1.818    1.091    5.091    2.182 
#    3.273    3.636    0.000    0.000    0.000    0.000 
#    0.000    0.000    0.000    0.000    0.000    0.000 
#
# Total GULP energy -245260.556408 kJ/mol
# GULP energy per Si atom -5574.103555 kJ/mol
# Density = 2.087422 g / cm^3
# Si number density = 20.921841 Si / 1000 Ang^3
#
#
#
# Elastic Constant Matrix: (Units=GPa)
#
#
# Indices 1 2 3 4 5 6 
#
# 1 115.7906 32.1006 32.8334 0.0000 0.0000 0.0000
# 2 32.1006 67.3082 34.9315 0.0000 0.0000 0.0000
# 3 32.8334 34.9315 133.6232 0.0000 0.0000 0.0000
# 4 0.0000 0.0000 0.0000 13.8060 0.0000 0.0000
# 5 0.0000 0.0000 0.0000 0.0000 -39.4730 0.0000
# 6 0.0000 0.0000 0.0000 0.0000 0.0000 -3.1680
#
#
#
# Elastic Compliance Matrix: (Units=1/GPa)
#
#
# Indices 1 2 3 4 5 6 
#
# 1 0.010182 -0.004116 -0.001426 0.000000 0.000000 0.000000
# 2 -0.004116 0.018853 -0.003917 0.000000 0.000000 0.000000
# 3 -0.001426 -0.003917 0.008858 0.000000 0.000000 0.000000
# 4 0.000000 0.000000 0.000000 0.072432 0.000000 0.000000
# 5 0.000000 0.000000 0.000000 0.000000 -0.025334 0.000000
# 6 0.000000 0.000000 0.000000 0.000000 0.000000 -0.315661
#
#
# Mechanical properties :
#
#
# Convention : Reuss Voigt Hill
#
# Bulk Modulus (GPa) = 52.70107 57.38365 55.04236
# Shear Modulus (GPa) = -24.33948 8.69012 -7.82468
#
# Velocity S-wave (km/s) = -3.41450 2.04025 -1.93599
# Velocity P-wave (km/s) = 3.11434 5.74781 4.62258
#
# Compressibility (1/GPa) = 0.01897495
#
# Stress axis : x y z
#
# Youngs Moduli (GPa) = 98.21623 53.04230 112.89114
#
# Poissons Ratio (x) = 0.21831 0.16096
# Poissons Ratio (y) = 0.40424 0.44221
# Poissons Ratio (z) = 0.14004 0.20777
#
# Static dielectric constant tensor:
#      x y z
#    x 1.736700 0.000000 0.000000 
#    y 0.000000 1.863690 0.000000 
#    z 0.000000 0.000000 1.752700 
# 
# From -- ./inp_files/25278.got.cif
#   From: 2010.05.17/outbox.cif.g08.bks.cpg/sg68_13_cif.got.tgz:25278.got - 2010.06.03 18:57:09.
