data_PCOD9508604
_publ_section_title
;
Structure prediction by ZEFSAII (Michael W. Deem and Ramdas Pophale) SiO2 
 PCOD9508604
Probable space group: C C C A
;
_chemical_formula_sum "Si O2"
_cell_formula_units_Z 104
_cell_length_a 8.970133
_cell_length_b 18.096616
_cell_length_c 28.808309
_cell_angle_alpha 90.000000
_cell_angle_beta 90.000000
_cell_angle_gamma 90.000000
_cell_volume 4676.425500
_symmetry_space_group_name_H-M "C C C A"
_symmetry_group_IT_number 68
_space_group.IT_coordinate_system_code '2'
_symmetry_cell_setting 'orthorhombic'
loop_
_space_group_symop_operation_xyz
x,y,z
-x,1/2-y,z
x,1/2-y,1/2-z
-x,y,1/2-z
-x,-y,-z
x,1/2+y,-z
-x,1/2+y,1/2+z
x,-y,1/2+z
1/2+x,1/2+y,z
1/2-x,-y,z
1/2+x,-y,1/2-z
1/2-x,1/2+y,1/2-z
1/2-x,1/2-y,-z
1/2+x,y,-z
1/2-x,y,1/2+z
1/2+x,1/2-y,1/2+z
loop_
_atom_site_type_symbol
_atom_site_label
_atom_site_fract_x
_atom_site_fract_y
_atom_site_fract_z
Si Si1 0.146964 0.363578 0.835713
Si Si2 0.159375 0.069966 0.085646
Si Si3 0.310917 0.915642 0.843355
Si Si4 0.180296 0.676944 0.477604
Si Si5 0.670216 0.661786 0.255591
Si Si6 0.000000 0.250000 0.600302
Si Si7 0.830967 0.925382 0.564079
O O1 0.267777 0.407082 0.866056
O O2 0.213989 0.361087 0.784474
O O3 0.117476 0.283800 0.861046
O O4 0.987494 0.404614 0.837437
O O5 0.190232 0.137192 0.051244
O O6 0.986460 0.053454 0.087813
O O7 0.250000 0.000000 0.067463
O O8 0.230590 0.866818 0.804545
O O9 0.267590 0.888363 0.895274
O O10 0.250000 0.000000 0.839887
O O11 0.250000 0.750000 0.500000
O O12 0.138470 0.625349 0.520377
O O13 0.047794 0.689726 0.440273
O O14 0.664266 0.750000 0.250000
O O15 0.500000 0.633876 0.250000
O O16 0.750000 0.000000 0.549076
#
# Coordination Sequence:
#
# PCOD9508604 Si02
#       7
#    16  16  16  16  16   8  16
#     4  11  23  43  70  96 134 177 221 281 346 415
#     4  11  24  41  63  93 129 173 223 276 337 401
#     4  11  24  42  67  99 133 176 229 283 342 412
#     4  11  23  39  63  95 134 175 223 279 337 401
#     4  11  25  44  68 100 135 174 221 276 342 416
#     4  10  22  40  65 100 134 178 231 282 344 412
#     4  11  24  43  67  95 134 182 231 286 344 408
#
# _framework density 22.239208000000001
#
# number of rings (size 3 to 8) (size 9 to 14) (size 15 to 20)
#    0.000    1.077    0.000    6.462    0.000    8.615 
#    0.000    1.538    0.000    0.000    0.000    0.000 
#    0.000    0.000    0.000    0.000    0.000    0.000 
#
# Total GULP energy -290197.801775 kJ/mol
# GULP energy per Si atom -5580.726957 kJ/mol
# Density = 2.218859 g / cm^3
# Si number density = 22.239208 Si / 1000 Ang^3
#
#
#
# Elastic Constant Matrix: (Units=GPa)
#
#
# Indices 1 2 3 4 5 6 
#
# 1 140.0445 21.0550 20.8805 0.0000 0.0000 0.0000
# 2 21.0550 73.6648 23.3172 0.0000 0.0000 0.0000
# 3 20.8805 23.3172 123.5841 0.0000 0.0000 0.0000
# 4 0.0000 0.0000 0.0000 24.5515 0.0000 0.0000
# 5 0.0000 0.0000 0.0000 0.0000 -12.4833 0.0000
# 6 0.0000 0.0000 0.0000 0.0000 0.0000 31.8744
#
#
#
# Elastic Compliance Matrix: (Units=1/GPa)
#
#
# Indices 1 2 3 4 5 6 
#
# 1 0.007559 -0.001868 -0.000925 0.000000 0.000000 0.000000
# 2 -0.001868 0.014899 -0.002495 0.000000 0.000000 0.000000
# 3 -0.000925 -0.002495 0.008719 0.000000 0.000000 0.000000
# 4 0.000000 0.000000 0.000000 0.040731 0.000000 0.000000
# 5 0.000000 0.000000 0.000000 0.000000 -0.080107 0.000000
# 6 0.000000 0.000000 0.000000 0.000000 0.000000 0.031373
#
#
# Mechanical properties :
#
#
# Convention : Reuss Voigt Hill
#
# Bulk Modulus (GPa) = 48.54228 51.97767 50.25997
# Shear Modulus (GPa) = 123.10303 26.92458 75.01381
#
# Velocity S-wave (km/s) = 7.44810 3.48326 5.81409
# Velocity P-wave (km/s) = 9.78981 6.29288 8.22924
#
# Compressibility (1/GPa) = 0.02060060
#
# Stress axis : x y z
#
# Youngs Moduli (GPa) = 132.28737 67.11964 114.69565
#
# Poissons Ratio (x) = 0.12537 0.10607
# Poissons Ratio (y) = 0.24710 0.28621
# Poissons Ratio (z) = 0.12234 0.16749
#
# Static dielectric constant tensor:
#      x y z
#    x 1.850210 0.000000 0.000000 
#    y 0.000000 1.909690 0.000000 
#    z 0.000000 0.000000 1.808560 
# 
# From -- ./inp_files/49449.got.cif
#   From: 2010.05.17/outbox.cif.g08.bks.cpg/sg68_25_cif.got.tgz:49449.got - 2010.06.03 18:57:09.
