data_PCOD9508783
_publ_section_title
;
Structure prediction by ZEFSAII (Michael W. Deem and Ramdas Pophale) SiO2 
 PCOD9508783
Probable space group: C C C A
;
_chemical_formula_sum "Si O2"
_cell_formula_units_Z 64
_cell_length_a 9.567402
_cell_length_b 24.183520
_cell_length_c 12.655238
_cell_angle_alpha 90.000000
_cell_angle_beta 90.000000
_cell_angle_gamma 90.000000
_cell_volume 2928.086173
_symmetry_space_group_name_H-M "C C C A"
_symmetry_group_IT_number 68
_space_group.IT_coordinate_system_code '2'
_symmetry_cell_setting 'orthorhombic'
loop_
_space_group_symop_operation_xyz
x,y,z
-x,1/2-y,z
x,1/2-y,1/2-z
-x,y,1/2-z
-x,-y,-z
x,1/2+y,-z
-x,1/2+y,1/2+z
x,-y,1/2+z
1/2+x,1/2+y,z
1/2-x,-y,z
1/2+x,-y,1/2-z
1/2-x,1/2+y,1/2-z
1/2-x,1/2-y,-z
1/2+x,y,-z
1/2-x,y,1/2+z
1/2+x,1/2-y,1/2+z
loop_
_atom_site_type_symbol
_atom_site_label
_atom_site_fract_x
_atom_site_fract_y
_atom_site_fract_z
Si Si1 0.145273 0.345149 0.062603
Si Si2 0.253692 0.939019 0.603602
Si Si3 0.500000 0.099233 0.250000
Si Si4 0.500000 0.904005 0.250000
Si Si5 0.422130 0.195951 0.405845
O O1 0.259114 0.297480 0.076221
O O2 0.102168 0.369802 0.174293
O O3 0.212367 0.391610 0.983387
O O4 0.007197 0.320892 0.009630
O O5 0.380548 0.934517 0.688710
O O6 0.107401 0.932546 0.667018
O O7 0.250000 0.000000 0.553292
O O8 0.432320 0.141821 0.332705
O O9 0.500000 0.250000 0.364020
#
# Coordination Sequence:
#
# PCOD9508783 Si02
#       5
#    16  16   8   8  16
#     4  11  24  43  64  99 138 175 231 290 340 421
#     4  11  24  42  69  98 137 185 232 290 351 414
#     4  10  22  42  64  97 133 174 233 279 340 420
#     4  12  23  44  69  95 145 180 229 295 344 412
#     4  11  22  42  68  95 134 178 223 282 351 410
#
# _framework density 21.857279999999999
#
# number of rings (size 3 to 8) (size 9 to 14) (size 15 to 20)
#    0.000    1.000    5.000    1.875    0.000    2.000 
#    0.000    0.625    0.000    0.000    0.000    0.000 
#    0.000    0.000    0.000    0.000    0.000    0.000 
#
# Total GULP energy -178657.451502 kJ/mol
# GULP energy per Si atom -5583.045359 kJ/mol
# Density = 2.180753 g / cm^3
# Si number density = 21.857280 Si / 1000 Ang^3
#
#
#
# Elastic Constant Matrix: (Units=GPa)
#
#
# Indices 1 2 3 4 5 6 
#
# 1 126.5953 20.5949 20.6299 0.0000 0.0000 0.0000
# 2 20.5949 80.9003 12.5008 0.0000 0.0000 0.0000
# 3 20.6299 12.5008 71.9286 0.0000 0.0000 0.0000
# 4 0.0000 0.0000 0.0000 5.7044 0.0000 0.0000
# 5 0.0000 0.0000 0.0000 0.0000 32.9931 0.0000
# 6 0.0000 0.0000 0.0000 0.0000 0.0000 -33.3744
#
#
#
# Elastic Compliance Matrix: (Units=1/GPa)
#
#
# Indices 1 2 3 4 5 6 
#
# 1 0.008547 -0.001847 -0.002130 0.000000 0.000000 0.000000
# 2 -0.001847 0.013101 -0.001747 0.000000 0.000000 0.000000
# 3 -0.002130 -0.001747 0.014817 0.000000 0.000000 0.000000
# 4 0.000000 0.000000 0.000000 0.175305 0.000000 0.000000
# 5 0.000000 0.000000 0.000000 0.000000 0.030309 0.000000
# 6 0.000000 0.000000 0.000000 0.000000 0.000000 -0.029963
#
#
# Mechanical properties :
#
#
# Convention : Reuss Voigt Hill
#
# Bulk Modulus (GPa) = 39.97337 42.98616 41.47976
# Shear Modulus (GPa) = 21.56072 16.11120 18.83596
#
# Velocity S-wave (km/s) = 3.14416 2.71792 2.93878
# Velocity P-wave (km/s) = 5.61329 5.43681 5.52575
#
# Compressibility (1/GPa) = 0.02501666
#
# Stress axis : x y z
#
# Youngs Moduli (GPa) = 117.00344 76.33021 67.48846
#
# Poissons Ratio (x) = 0.14095 0.14378
# Poissons Ratio (y) = 0.21606 0.11792
# Poissons Ratio (z) = 0.24926 0.13337
#
# Static dielectric constant tensor:
#      x y z
#    x 0.862700 0.000000 0.000000 
#    y 0.000000 1.815070 0.000000 
#    z 0.000000 0.000000 1.805710 
# 
# From -- ./inp_files/19303.got.cif
#   From: 2010.05.17/outbox.cif.g08.bks.cpg/sg68_10_cif.got.tgz:19303.got - 2010.06.03 18:57:09.
