data_PCOD9508807
_publ_section_title
;
Structure prediction by ZEFSAII (Michael W. Deem and Ramdas Pophale) SiO2 
 PCOD9508807
Probable space group: C C C A
;
_chemical_formula_sum "Si O2"
_cell_formula_units_Z 64
_cell_length_a 9.391722
_cell_length_b 26.471194
_cell_length_c 11.328469
_cell_angle_alpha 90.000000
_cell_angle_beta 90.000000
_cell_angle_gamma 90.000000
_cell_volume 2816.371755
_symmetry_space_group_name_H-M "C C C A"
_symmetry_group_IT_number 68
_space_group.IT_coordinate_system_code '2'
_symmetry_cell_setting 'orthorhombic'
loop_
_space_group_symop_operation_xyz
x,y,z
-x,1/2-y,z
x,1/2-y,1/2-z
-x,y,1/2-z
-x,-y,-z
x,1/2+y,-z
-x,1/2+y,1/2+z
x,-y,1/2+z
1/2+x,1/2+y,z
1/2-x,-y,z
1/2+x,-y,1/2-z
1/2-x,1/2+y,1/2-z
1/2-x,1/2-y,-z
1/2+x,y,-z
1/2-x,y,1/2+z
1/2+x,1/2-y,1/2+z
loop_
_atom_site_type_symbol
_atom_site_label
_atom_site_fract_x
_atom_site_fract_y
_atom_site_fract_z
Si Si1 0.194188 0.197897 0.555218
Si Si2 0.250000 0.500000 0.979389
Si Si3 0.019574 0.642090 0.887692
Si Si4 0.500000 0.342647 0.250000
Si Si5 0.004568 0.934078 0.429640
O O1 0.250000 0.250000 0.500000
O O2 0.089473 0.177972 0.454947
O O3 0.324230 0.159888 0.575013
O O4 0.110499 0.193476 0.680429
O O5 0.143642 0.463279 0.904178
O O6 0.359442 0.469603 0.062134
O O7 0.000000 0.645887 0.750000
O O8 0.988669 0.586785 0.937208
O O9 0.537453 0.384367 0.351342
#
# Coordination Sequence:
#
# PCOD9508807 Si02
#       5
#    16   8  16   8  16
#     4  11  26  48  73 111 143 195 259 309 377 454
#     4  10  22  42  68 102 148 178 256 296 350 472
#     4  11  26  48  73 103 150 197 243 313 379 453
#     4  10  24  44  79 100 152 192 240 310 381 438
#     4  10  22  44  66 107 141 192 238 300 374 434
#
# _framework density 22.724273
#
# number of rings (size 3 to 8) (size 9 to 14) (size 15 to 20)
#    0.000    1.500    0.000    3.750   10.500    3.000 
#   13.500    0.000    0.000    0.000    0.000    0.000 
#    0.000    0.000    0.000    0.000    0.000    0.000 
#
# Total GULP energy -178597.874270 kJ/mol
# GULP energy per Si atom -5581.183571 kJ/mol
# Density = 2.267255 g / cm^3
# Si number density = 22.724273 Si / 1000 Ang^3
#
#
#
# Elastic Constant Matrix: (Units=GPa)
#
#
# Indices 1 2 3 4 5 6 
#
# 1 137.4016 50.0634 56.8567 0.0000 0.0000 0.0000
# 2 50.0634 102.8396 30.3927 0.0000 0.0000 0.0000
# 3 56.8567 30.3927 129.9935 0.0000 0.0000 0.0000
# 4 0.0000 0.0000 0.0000 10.9441 0.0000 0.0000
# 5 0.0000 0.0000 0.0000 0.0000 38.2712 0.0000
# 6 0.0000 0.0000 0.0000 0.0000 0.0000 50.2665
#
#
#
# Elastic Compliance Matrix: (Units=1/GPa)
#
#
# Indices 1 2 3 4 5 6 
#
# 1 0.010162 -0.003903 -0.003532 0.000000 0.000000 0.000000
# 2 -0.003903 0.011945 -0.001086 0.000000 0.000000 0.000000
# 3 -0.003532 -0.001086 0.009491 0.000000 0.000000 0.000000
# 4 0.000000 0.000000 0.000000 0.091373 0.000000 0.000000
# 5 0.000000 0.000000 0.000000 0.000000 0.026129 0.000000
# 6 0.000000 0.000000 0.000000 0.000000 0.000000 0.019894
#
#
# Mechanical properties :
#
#
# Convention : Reuss Voigt Hill
#
# Bulk Modulus (GPa) = 68.69757 71.65113 70.17435
# Shear Modulus (GPa) = 26.19350 35.42451 30.80900
#
# Velocity S-wave (km/s) = 3.39878 3.95255 3.68608
# Velocity P-wave (km/s) = 6.76009 7.24081 7.00458
#
# Compressibility (1/GPa) = 0.01455656
#
# Stress axis : x y z
#
# Youngs Moduli (GPa) = 98.41060 83.71912 105.35941
#
# Poissons Ratio (x) = 0.32675 0.37212
# Poissons Ratio (y) = 0.38409 0.11438
# Poissons Ratio (z) = 0.34758 0.09089
#
# Static dielectric constant tensor:
#      x y z
#    x 2.974480 0.000000 0.000000 
#    y 0.000000 1.894330 0.000000 
#    z 0.000000 0.000000 1.925030 
# 
# From -- ./inp_files/10790.got.cif
#   From: 2010.05.17/outbox.cif.g08.bks.cpg/sg68_6_cif.got.tgz:10790.got - 2010.06.03 18:57:09.
