data_PCOD9508804
_publ_section_title
;
Structure prediction by ZEFSAII (Michael W. Deem and Ramdas Pophale) SiO2 
 PCOD9508804
Probable space group: C C C A
;
_chemical_formula_sum "Si O2"
_cell_formula_units_Z 116
_cell_length_a 26.225682
_cell_length_b 18.241703
_cell_length_c 10.385609
_cell_angle_alpha 90.000000
_cell_angle_beta 90.000000
_cell_angle_gamma 90.000000
_cell_volume 4968.486791
_symmetry_space_group_name_H-M "C C C A"
_symmetry_group_IT_number 68
_space_group.IT_coordinate_system_code '2'
_symmetry_cell_setting 'orthorhombic'
loop_
_space_group_symop_operation_xyz
x,y,z
-x,1/2-y,z
x,1/2-y,1/2-z
-x,y,1/2-z
-x,-y,-z
x,1/2+y,-z
-x,1/2+y,1/2+z
x,-y,1/2+z
1/2+x,1/2+y,z
1/2-x,-y,z
1/2+x,-y,1/2-z
1/2-x,1/2+y,1/2-z
1/2-x,1/2-y,-z
1/2+x,y,-z
1/2-x,y,1/2+z
1/2+x,1/2-y,1/2+z
loop_
_atom_site_type_symbol
_atom_site_label
_atom_site_fract_x
_atom_site_fract_y
_atom_site_fract_z
Si Si1 0.885973 0.956079 0.952598
Si Si2 0.398390 0.187206 0.656422
Si Si3 0.000000 0.250000 0.250000
Si Si4 0.076183 0.757608 0.398844
Si Si5 0.267771 0.665982 0.793122
Si Si6 0.723866 0.579533 0.967970
Si Si7 0.540078 0.596827 0.854124
Si Si8 0.619125 0.618790 0.638468
O O1 0.886278 0.898479 0.831998
O O2 0.836306 0.934177 0.033266
O O3 0.877107 0.040224 0.924416
O O4 0.941153 0.945860 0.021081
O O5 0.375657 0.250000 0.750000
O O6 0.459562 0.298876 0.828273
O O7 0.388185 0.205847 0.506999
O O8 0.093316 0.750000 0.250000
O O9 0.030375 0.816840 0.387375
O O10 0.080440 0.672618 0.439012
O O11 0.259008 0.750000 0.750000
O O12 0.259493 0.615796 0.666660
O O13 0.235452 0.634252 0.912690
O O14 0.326044 0.655053 0.841714
O O15 0.750000 0.500000 0.988516
O O16 0.500000 0.568208 0.750000
O O17 0.591521 0.602531 0.772039
#
# Coordination Sequence:
#
# PCOD9508804 Si02
#       8
#    16  16   4  16  16  16  16  16
#     4  11  24  44  71 104 146 193 246 308 377 460
#     4   9  21  42  66  95 141 187 236 297 360 432
#     4   8  20  44  62  96 132 196 228 292 356 432
#     4   9  20  38  66  96 125 180 242 287 345 425
#     4  12  26  48  77 112 146 198 255 317 377 468
#     4  12  26  49  76 110 153 196 249 314 397 456
#     4  10  22  42  67  98 139 189 246 303 360 437
#     4  11  23  41  68 102 144 185 235 304 367 438
#
# _framework density 23.347149999999999
#
# number of rings (size 3 to 8) (size 9 to 14) (size 15 to 20)
#    0.414    1.103    2.759    2.069    1.931    9.103 
#    3.724    0.000    0.000    0.000    0.000    0.000 
#    0.000    0.000    0.000    0.000    0.000    0.000 
#
# Total GULP energy -322971.173964 kJ/mol
# GULP energy per Si atom -5568.468517 kJ/mol
# Density = 2.329401 g / cm^3
# Si number density = 23.347150 Si / 1000 Ang^3
#
#
#
# Elastic Constant Matrix: (Units=GPa)
#
#
# Indices 1 2 3 4 5 6 
#
# 1 90.6554 32.7036 19.1457 0.0000 0.0000 0.0000
# 2 32.7036 121.4650 26.4063 0.0000 0.0000 0.0000
# 3 19.1457 26.4063 86.8113 0.0000 0.0000 0.0000
# 4 0.0000 0.0000 0.0000 20.7602 0.0000 0.0000
# 5 0.0000 0.0000 0.0000 0.0000 26.2461 0.0000
# 6 0.0000 0.0000 0.0000 0.0000 0.0000 11.7898
#
#
#
# Elastic Compliance Matrix: (Units=1/GPa)
#
#
# Indices 1 2 3 4 5 6 
#
# 1 0.012490 -0.002960 -0.001854 0.000000 0.000000 0.000000
# 2 -0.002960 0.009517 -0.002242 0.000000 0.000000 0.000000
# 3 -0.001854 -0.002242 0.012610 0.000000 0.000000 0.000000
# 4 0.000000 0.000000 0.000000 0.048169 0.000000 0.000000
# 5 0.000000 0.000000 0.000000 0.000000 0.038101 0.000000
# 6 0.000000 0.000000 0.000000 0.000000 0.000000 0.084819
#
#
# Mechanical properties :
#
#
# Convention : Reuss Voigt Hill
#
# Bulk Modulus (GPa) = 48.76858 50.60476 49.68667
# Shear Modulus (GPa) = 22.06006 26.47096 24.26551
#
# Velocity S-wave (km/s) = 3.07721 3.37085 3.22737
# Velocity P-wave (km/s) = 5.79305 6.07224 5.93429
#
# Compressibility (1/GPa) = 0.02050500
#
# Stress axis : x y z
#
# Youngs Moduli (GPa) = 80.06334 105.07339 79.30072
#
# Poissons Ratio (x) = 0.31099 0.14705
# Poissons Ratio (y) = 0.23697 0.17781
# Poissons Ratio (z) = 0.14846 0.23559
#
# Static dielectric constant tensor:
#      x y z
#    x 1.917560 0.000000 0.000000 
#    y 0.000000 2.052340 0.000000 
#    z 0.000000 0.000000 1.940410 
# 
# From -- ./inp_files/17244.got.cif
#   From: 2010.05.17/outbox.cif.g08.bks.cpg/sg68_9_cif.got.tgz:17244.got - 2010.06.03 18:57:09.
