data_PCOD9508887
_publ_section_title
;
Structure prediction by ZEFSAII (Michael W. Deem and Ramdas Pophale) SiO2 
 PCOD9508887
Probable space group: C C C A
;
_chemical_formula_sum "Si O2"
_cell_formula_units_Z 60
_cell_length_a 14.772747
_cell_length_b 17.471735
_cell_length_c 11.071406
_cell_angle_alpha 90.000000
_cell_angle_beta 90.000000
_cell_angle_gamma 90.000000
_cell_volume 2857.591012
_symmetry_space_group_name_H-M "C C C A"
_symmetry_group_IT_number 68
_space_group.IT_coordinate_system_code '2'
_symmetry_cell_setting 'orthorhombic'
loop_
_space_group_symop_operation_xyz
x,y,z
-x,1/2-y,z
x,1/2-y,1/2-z
-x,y,1/2-z
-x,-y,-z
x,1/2+y,-z
-x,1/2+y,1/2+z
x,-y,1/2+z
1/2+x,1/2+y,z
1/2-x,-y,z
1/2+x,-y,1/2-z
1/2-x,1/2+y,1/2-z
1/2-x,1/2-y,-z
1/2+x,y,-z
1/2-x,y,1/2+z
1/2+x,1/2-y,1/2+z
loop_
_atom_site_type_symbol
_atom_site_label
_atom_site_fract_x
_atom_site_fract_y
_atom_site_fract_z
Si Si1 0.385448 0.204869 0.039354
Si Si2 0.250000 0.500000 0.569078
Si Si3 0.094821 0.099775 0.310163
Si Si4 0.317123 0.853020 0.069180
Si Si5 0.500000 0.250000 0.250000
O O1 0.283524 0.180351 0.067118
O O2 0.441117 0.197979 0.161260
O O3 0.419800 0.154638 0.926263
O O4 0.379442 0.294621 0.005685
O O5 0.169812 0.538297 0.647358
O O6 0.301908 0.563419 0.488272
O O7 0.143842 0.145139 0.202966
O O8 0.000000 0.072356 0.250000
#
# Coordination Sequence:
#
# PCOD9508887 Si02
#       5
#    16   8  16  16   4
#     4  10  24  39  67 101 132 178 227 289 340 392
#     4  10  24  42  66 104 138 184 218 278 352 408
#     4  11  23  44  71  99 134 182 226 280 342 418
#     4  10  22  43  66  95 138 178 229 279 340 408
#     4  12  24  40  62 108 130 164 224 296 336 408
#
# _framework density 20.996706
#
# number of rings (size 3 to 8) (size 9 to 14) (size 15 to 20)
#    0.000    1.600    0.000    3.200   11.200    2.133 
#    2.400    0.000    0.000    0.000    0.000    0.000 
#    0.000    0.000    0.000    0.000    0.000    0.000 
#
# Total GULP energy -167512.158074 kJ/mol
# GULP energy per Si atom -5583.738602 kJ/mol
# Density = 2.094892 g / cm^3
# Si number density = 20.996706 Si / 1000 Ang^3
#
#
#
# Elastic Constant Matrix: (Units=GPa)
#
#
# Indices 1 2 3 4 5 6 
#
# 1 109.4328 30.3506 67.7307 0.0000 0.0000 0.0000
# 2 30.3506 94.7839 49.4427 0.0000 0.0000 0.0000
# 3 67.7307 49.4427 160.7880 0.0000 0.0000 0.0000
# 4 0.0000 0.0000 0.0000 15.3720 0.0000 0.0000
# 5 0.0000 0.0000 0.0000 0.0000 53.2657 0.0000
# 6 0.0000 0.0000 0.0000 0.0000 0.0000 9.1303
#
#
#
# Elastic Compliance Matrix: (Units=1/GPa)
#
#
# Indices 1 2 3 4 5 6 
#
# 1 0.012537 -0.001500 -0.004820 0.000000 0.000000 0.000000
# 2 -0.001500 0.012745 -0.003287 0.000000 0.000000 0.000000
# 3 -0.004820 -0.003287 0.009261 0.000000 0.000000 0.000000
# 4 0.000000 0.000000 0.000000 0.065053 0.000000 0.000000
# 5 0.000000 0.000000 0.000000 0.000000 0.018774 0.000000
# 6 0.000000 0.000000 0.000000 0.000000 0.000000 0.109526
#
#
# Mechanical properties :
#
#
# Convention : Reuss Voigt Hill
#
# Bulk Modulus (GPa) = 65.23847 73.33919 69.28883
# Shear Modulus (GPa) = 19.82392 30.05231 24.93811
#
# Velocity S-wave (km/s) = 3.07603 3.78734 3.45006
# Velocity P-wave (km/s) = 6.61469 7.35731 6.99586
#
# Compressibility (1/GPa) = 0.01532838
#
# Stress axis : x y z
#
# Youngs Moduli (GPa) = 79.76209 78.45918 107.98488
#
# Poissons Ratio (x) = 0.11771 0.52047
# Poissons Ratio (y) = 0.11967 0.35498
# Poissons Ratio (z) = 0.38444 0.25792
#
# Static dielectric constant tensor:
#      x y z
#    x 1.780870 0.000000 0.000000 
#    y 0.000000 1.792790 0.000000 
#    z 0.000000 0.000000 1.718300 
# 
# From -- ./inp_files/5659.got.cif
#   From: 2010.05.17/outbox.cif.g08.bks.cpg/sg68_3_cif.got.tgz:5659.got - 2010.06.03 18:57:09.
