data_PCOD9508906
_publ_section_title
;
Structure prediction by ZEFSAII (Michael W. Deem and Ramdas Pophale) SiO2 
 PCOD9508906
Probable space group: C C C A
;
_chemical_formula_sum "Si O2"
_cell_formula_units_Z 88
_cell_length_a 15.408224
_cell_length_b 13.392964
_cell_length_c 19.537070
_cell_angle_alpha 90.000000
_cell_angle_beta 90.000000
_cell_angle_gamma 90.000000
_cell_volume 4031.704724
_symmetry_space_group_name_H-M "C C C A"
_symmetry_group_IT_number 68
_space_group.IT_coordinate_system_code '2'
_symmetry_cell_setting 'orthorhombic'
loop_
_space_group_symop_operation_xyz
x,y,z
-x,1/2-y,z
x,1/2-y,1/2-z
-x,y,1/2-z
-x,-y,-z
x,1/2+y,-z
-x,1/2+y,1/2+z
x,-y,1/2+z
1/2+x,1/2+y,z
1/2-x,-y,z
1/2+x,-y,1/2-z
1/2-x,1/2+y,1/2-z
1/2-x,1/2-y,-z
1/2+x,y,-z
1/2-x,y,1/2+z
1/2+x,1/2-y,1/2+z
loop_
_atom_site_type_symbol
_atom_site_label
_atom_site_fract_x
_atom_site_fract_y
_atom_site_fract_z
Si Si1 0.159703 0.438923 0.407125
Si Si2 0.901659 0.253236 0.168625
Si Si3 0.878182 0.330975 0.951459
Si Si4 0.751795 0.888481 0.658517
Si Si5 0.933861 0.858928 0.385187
Si Si6 0.630501 0.750000 0.750000
O O1 0.250000 0.500000 0.414899
O O2 0.154249 0.351110 0.351048
O O3 0.127418 0.377170 0.473587
O O4 0.095060 0.527384 0.386811
O O5 0.908059 0.250000 0.250000
O O6 0.846464 0.156924 0.148105
O O7 0.000000 0.250000 0.140104
O O8 0.798297 0.380116 0.912659
O O9 0.877296 0.210819 0.937937
O O10 0.967970 0.356026 0.912641
O O11 0.693972 0.823457 0.709534
O O12 0.750000 0.000000 0.684424
O O13 0.920431 0.811476 0.309362
#
# Coordination Sequence:
#
# PCOD9508906 Si02
#       6
#    16  16  16  16  16   8
#     4  12  26  45  79 104 149 202 251 304 380 459
#     4  11  28  49  68 107 149 194 249 314 378 457
#     4  10  24  45  66 113 144 186 250 310 368 445
#     4  11  24  41  73  99 147 190 242 310 373 442
#     4  10  24  43  72 107 147 199 244 315 372 442
#     4  10  22  43  69 108 146 184 259 306 374 439
#
# _framework density 21.826995
#
# number of rings (size 3 to 8) (size 9 to 14) (size 15 to 20)
#    0.000    1.273    0.909    3.273    7.636   10.182 
#    0.000    0.000    0.000    0.000    0.000    0.000 
#    0.000    0.000    0.000    0.000    0.000    0.000 
#
# Total GULP energy -245800.081380 kJ/mol
# GULP energy per Si atom -5586.365486 kJ/mol
# Density = 2.177732 g / cm^3
# Si number density = 21.826995 Si / 1000 Ang^3
#
#
#
# Elastic Constant Matrix: (Units=GPa)
#
#
# Indices 1 2 3 4 5 6 
#
# 1 100.5981 26.3175 37.3508 0.0000 0.0000 0.0000
# 2 26.3175 136.5858 42.8190 0.0000 0.0000 0.0000
# 3 37.3508 42.8190 117.9228 0.0000 0.0000 0.0000
# 4 0.0000 0.0000 0.0000 -159.8643 0.0000 0.0000
# 5 0.0000 0.0000 0.0000 0.0000 74.0951 0.0000
# 6 0.0000 0.0000 0.0000 0.0000 0.0000 13.6348
#
#
#
# Elastic Compliance Matrix: (Units=1/GPa)
#
#
# Indices 1 2 3 4 5 6 
#
# 1 0.011439 -0.001205 -0.003185 0.000000 0.000000 0.000000
# 2 -0.001205 0.008389 -0.002664 0.000000 0.000000 0.000000
# 3 -0.003185 -0.002664 0.010456 0.000000 0.000000 0.000000
# 4 0.000000 0.000000 0.000000 -0.006255 0.000000 0.000000
# 5 0.000000 0.000000 0.000000 0.000000 0.013496 0.000000
# 6 0.000000 0.000000 0.000000 0.000000 0.000000 0.073342
#
#
# Mechanical properties :
#
#
# Convention : Reuss Voigt Hill
#
# Bulk Modulus (GPa) = 61.82817 63.12013 62.47415
# Shear Modulus (GPa) = 38.35301 2.14776 20.25039
#
# Velocity S-wave (km/s) = 4.19637 0.99304 3.04923
# Velocity P-wave (km/s) = 7.20190 5.50418 6.40950
#
# Compressibility (1/GPa) = 0.01617386
#
# Stress axis : x y z
#
# Youngs Moduli (GPa) = 87.42347 119.20494 95.63442
#
# Poissons Ratio (x) = 0.14369 0.30463
# Poissons Ratio (y) = 0.10538 0.25480
# Poissons Ratio (z) = 0.27847 0.31760
#
# Static dielectric constant tensor:
#      x y z
#    x 1.829020 0.000000 0.000000 
#    y 0.000000 1.806070 0.000000 
#    z 0.000000 0.000000 1.865200 
# 
# From -- ./inp_files/38495.got.cif
#   From: 2010.05.17/outbox.cif.g08.bks.cpg/sg68_20_cif.got.tgz:38495.got - 2010.06.03 18:57:09.
