data_PCOD9508960
_publ_section_title
;
Structure prediction by ZEFSAII (Michael W. Deem and Ramdas Pophale) SiO2 
 PCOD9508960
Probable space group: C C C A
;
_chemical_formula_sum "Si O2"
_cell_formula_units_Z 116
_cell_length_a 16.466359
_cell_length_b 25.824743
_cell_length_c 10.900245
_cell_angle_alpha 90.000000
_cell_angle_beta 90.000000
_cell_angle_gamma 90.000000
_cell_volume 4635.214617
_symmetry_space_group_name_H-M "C C C A"
_symmetry_group_IT_number 68
_space_group.IT_coordinate_system_code '2'
_symmetry_cell_setting 'orthorhombic'
loop_
_space_group_symop_operation_xyz
x,y,z
-x,1/2-y,z
x,1/2-y,1/2-z
-x,y,1/2-z
-x,-y,-z
x,1/2+y,-z
-x,1/2+y,1/2+z
x,-y,1/2+z
1/2+x,1/2+y,z
1/2-x,-y,z
1/2+x,-y,1/2-z
1/2-x,1/2+y,1/2-z
1/2-x,1/2-y,-z
1/2+x,y,-z
1/2-x,y,1/2+z
1/2+x,1/2-y,1/2+z
loop_
_atom_site_type_symbol
_atom_site_label
_atom_site_fract_x
_atom_site_fract_y
_atom_site_fract_z
Si Si1 0.695135 0.603172 0.865477
Si Si2 0.056385 0.413044 0.023321
Si Si3 0.595682 0.503886 0.785978
Si Si4 0.500000 0.750000 0.750000
Si Si5 0.389849 0.340810 0.325311
Si Si6 0.242118 0.719475 0.869934
Si Si7 0.883239 0.569224 0.582392
Si Si8 0.632309 0.647662 0.277605
O O1 0.657750 0.549005 0.821000
O O2 0.631343 0.645884 0.816195
O O3 0.781759 0.621999 0.818859
O O4 0.690128 0.594276 0.009871
O O5 0.095586 0.459804 0.104566
O O6 0.076967 0.359738 0.101415
O O7 0.964678 0.433355 0.003523
O O8 0.081551 0.393298 0.889571
O O9 0.500000 0.511950 0.750000
O O10 0.633023 0.481088 0.659771
O O11 0.552888 0.709281 0.670682
O O12 0.305224 0.326423 0.387665
O O13 0.275630 0.750000 0.750000
O O14 0.159113 0.696765 0.807194
O O15 0.250000 0.750000 0.000000
O O16 0.910921 0.610146 0.683379
#
# Coordination Sequence:
#
# PCOD9508960 Si02
#       8
#    16  16  16   4  16  16  16  16
#     4  11  25  39  66 100 132 180 224 281 344 406
#     4  10  22  44  68  96 134 182 219 286 336 418
#     4   9  22  41  65  98 137 177 228 269 337 415
#     4  12  24  44  60 100 134 176 218 288 342 394
#     4  11  25  40  66  97 135 170 229 283 343 401
#     4  11  24  42  68  97 135 181 235 290 352 416
#     4  10  23  42  65  94 134 177 222 277 333 418
#     4  10  24  43  67  95 136 176 229 279 349 410
#
# _framework density 25.025811999999998
#
# number of rings (size 3 to 8) (size 9 to 14) (size 15 to 20)
#    0.000    1.655    0.690    2.897   12.552    4.414 
#    0.000    2.759    0.000    0.828    0.000    0.966 
#    0.000    0.000    0.000    0.000    0.000    0.000 
#
# Total GULP energy -323093.381146 kJ/mol
# GULP energy per Si atom -5570.575537 kJ/mol
# Density = 2.496885 g / cm^3
# Si number density = 25.025812 Si / 1000 Ang^3
#
#
#
# Elastic Constant Matrix: (Units=GPa)
#
#
# Indices 1 2 3 4 5 6 
#
# 1 62.6291 32.3479 26.2674 0.0000 0.0000 0.0000
# 2 32.3479 94.9947 26.3431 0.0000 0.0000 0.0000
# 3 26.2674 26.3431 104.1660 0.0000 0.0000 0.0000
# 4 0.0000 0.0000 0.0000 56.4034 0.0000 0.0000
# 5 0.0000 0.0000 0.0000 0.0000 34.3459 0.0000
# 6 0.0000 0.0000 0.0000 0.0000 0.0000 29.7995
#
#
#
# Elastic Compliance Matrix: (Units=1/GPa)
#
#
# Indices 1 2 3 4 5 6 
#
# 1 0.020608 -0.005997 -0.003680 0.000000 0.000000 0.000000
# 2 -0.005997 0.013066 -0.001792 0.000000 0.000000 0.000000
# 3 -0.003680 -0.001792 0.010981 0.000000 0.000000 0.000000
# 4 0.000000 0.000000 0.000000 0.017729 0.000000 0.000000
# 5 0.000000 0.000000 0.000000 0.000000 0.029116 0.000000
# 6 0.000000 0.000000 0.000000 0.000000 0.000000 0.033558
#
#
# Mechanical properties :
#
#
# Convention : Reuss Voigt Hill
#
# Bulk Modulus (GPa) = 46.04700 47.96742 47.00721
# Shear Modulus (GPa) = 32.20924 35.89851 34.05387
#
# Velocity S-wave (km/s) = 3.59143 3.79153 3.69284
# Velocity P-wave (km/s) = 5.96972 6.19487 6.08334
#
# Compressibility (1/GPa) = 0.02171694
#
# Stress axis : x y z
#
# Youngs Moduli (GPa) = 48.52503 76.53464 91.06417
#
# Poissons Ratio (x) = 0.45897 0.33512
# Poissons Ratio (y) = 0.29100 0.16319
# Poissons Ratio (z) = 0.17858 0.13716
#
# Static dielectric constant tensor:
#      x y z
#    x 2.012350 0.000000 0.000000 
#    y 0.000000 2.071700 0.000000 
#    z 0.000000 0.000000 2.149450 
# 
# From -- ./inp_files/14834.got.cif
#   From: 2010.05.17/outbox.cif.g08.bks.cpg/sg68_8_cif.got.tgz:14834.got - 2010.06.03 18:57:09.
