data_PCOD9508573
_publ_section_title
;
Structure prediction by ZEFSAII (Michael W. Deem and Ramdas Pophale) SiO2 
 PCOD9508573
Probable space group: C C C A
;
_chemical_formula_sum "Si O2"
_cell_formula_units_Z 116
_cell_length_a 25.017495
_cell_length_b 9.519932
_cell_length_c 23.502546
_cell_angle_alpha 90.000000
_cell_angle_beta 90.000000
_cell_angle_gamma 90.000000
_cell_volume 5597.480371
_symmetry_space_group_name_H-M "C C C A"
_symmetry_group_IT_number 68
_space_group.IT_coordinate_system_code '2'
_symmetry_cell_setting 'orthorhombic'
loop_
_space_group_symop_operation_xyz
x,y,z
-x,1/2-y,z
x,1/2-y,1/2-z
-x,y,1/2-z
-x,-y,-z
x,1/2+y,-z
-x,1/2+y,1/2+z
x,-y,1/2+z
1/2+x,1/2+y,z
1/2-x,-y,z
1/2+x,-y,1/2-z
1/2-x,1/2+y,1/2-z
1/2-x,1/2-y,-z
1/2+x,y,-z
1/2-x,y,1/2+z
1/2+x,1/2-y,1/2+z
loop_
_atom_site_type_symbol
_atom_site_label
_atom_site_fract_x
_atom_site_fract_y
_atom_site_fract_z
Si Si1 0.859482 0.201975 0.313539
Si Si2 0.409767 0.049285 0.452191
Si Si3 0.057361 0.471511 0.824621
Si Si4 0.202254 0.609549 0.036671
Si Si5 0.946167 0.155504 0.950101
Si Si6 0.500000 0.750000 0.750000
Si Si7 0.962743 0.635926 0.862083
Si Si8 0.272019 0.157750 0.589499
O O1 0.844255 0.250000 0.250000
O O2 0.909165 0.296715 0.336977
O O3 0.811163 0.200006 0.358774
O O4 0.887940 0.049256 0.309868
O O5 0.435793 0.965421 0.504248
O O6 0.444141 0.995877 0.399276
O O7 0.347950 0.017004 0.443869
O O8 0.405359 0.216821 0.458936
O O9 0.059655 0.417212 0.889331
O O10 0.039530 0.342314 0.787438
O O11 0.007278 0.579355 0.818900
O O12 0.250000 0.500000 0.034817
O O13 0.222439 0.736776 0.076644
O O14 0.195862 0.657584 0.970771
O O15 0.000000 0.250000 0.954784
O O16 0.000000 0.750000 0.895979
O O17 0.250000 0.000000 0.599269
#
# Coordination Sequence:
#
# PCOD9508573 Si02
#       8
#    16  16  16  16  16   4  16  16
#     4  11  24  42  70  96 127 173 228 278 340 390
#     4  12  25  37  64  95 137 178 213 271 339 408
#     4  11  23  40  64  94 132 178 226 277 322 398
#     4  10  23  41  66  98 127 170 222 273 334 406
#     4  12  25  40  59 101 142 181 218 268 338 407
#     4  12  20  40  62  84 136 172 224 282 314 396
#     4  10  22  40  62  94 131 173 220 266 321 401
#     4  10  23  44  68  94 129 165 222 283 335 399
#
# _framework density 20.723610000000001
#
# number of rings (size 3 to 8) (size 9 to 14) (size 15 to 20)
#    0.000    1.103    2.069    3.310   13.517    1.931 
#    0.000    2.069    1.517    0.000    0.000    0.000 
#    0.000    0.000    0.000    0.000    0.000    0.000 
#
# Total GULP energy -323703.378519 kJ/mol
# GULP energy per Si atom -5581.092733 kJ/mol
# Density = 2.067644 g / cm^3
# Si number density = 20.723610 Si / 1000 Ang^3
#
#
#
# Elastic Constant Matrix: (Units=GPa)
#
#
# Indices 1 2 3 4 5 6 
#
# 1 100.2425 25.3641 58.1989 0.0000 0.0000 0.0000
# 2 25.3641 95.9443 46.4930 0.0000 0.0000 0.0000
# 3 58.1989 46.4930 109.4801 0.0000 0.0000 0.0000
# 4 0.0000 0.0000 0.0000 43.6545 0.0000 0.0000
# 5 0.0000 0.0000 0.0000 0.0000 6.4431 0.0000
# 6 0.0000 0.0000 0.0000 0.0000 0.0000 -75.0620
#
#
#
# Elastic Compliance Matrix: (Units=1/GPa)
#
#
# Indices 1 2 3 4 5 6 
#
# 1 0.014430 -0.000123 -0.007619 0.000000 0.000000 0.000000
# 2 -0.000123 0.013124 -0.005508 0.000000 0.000000 0.000000
# 3 -0.007619 -0.005508 0.015523 0.000000 0.000000 0.000000
# 4 0.000000 0.000000 0.000000 0.022907 0.000000 0.000000
# 5 0.000000 0.000000 0.000000 0.000000 0.155205 0.000000
# 6 0.000000 0.000000 0.000000 0.000000 0.000000 -0.013322
#
#
# Mechanical properties :
#
#
# Convention : Reuss Voigt Hill
#
# Bulk Modulus (GPa) = 60.32033 62.86432 61.59233
# Shear Modulus (GPa) = 20.84254 6.71451 13.77853
#
# Velocity S-wave (km/s) = 3.17478 1.80196 2.58131
# Velocity P-wave (km/s) = 6.52757 5.89321 6.21849
#
# Compressibility (1/GPa) = 0.01657816
#
# Stress axis : x y z
#
# Youngs Moduli (GPa) = 69.29875 76.19399 64.41876
#
# Poissons Ratio (x) = 0.00936 0.49080
# Poissons Ratio (y) = 0.00851 0.35483
# Poissons Ratio (z) = 0.52798 0.41970
#
# Static dielectric constant tensor:
#      x y z
#    x 1.903330 0.000000 0.000000 
#    y 0.000000 1.862780 0.000000 
#    z 0.000000 0.000000 1.755950 
# 
# From -- ./inp_files/47313.got.cif
#   From: 2010.05.17/outbox.cif.g08.bks.cpg/sg68_24_cif.got.tgz:47313.got - 2010.06.03 18:57:09.
