data_PCOD9508342
_publ_section_title
;
Structure prediction by ZEFSAII (Michael W. Deem and Ramdas Pophale) SiO2 
 PCOD9508342
Probable space group: C C C A
;
_chemical_formula_sum "Si O2"
_cell_formula_units_Z 60
_cell_length_a 19.191120
_cell_length_b 30.379245
_cell_length_c 5.449588
_cell_angle_alpha 90.000000
_cell_angle_beta 90.000000
_cell_angle_gamma 90.000000
_cell_volume 3177.173762
_symmetry_space_group_name_H-M "C C C A"
_symmetry_group_IT_number 68
_space_group.IT_coordinate_system_code '2'
_symmetry_cell_setting 'orthorhombic'
loop_
_space_group_symop_operation_xyz
x,y,z
-x,1/2-y,z
x,1/2-y,1/2-z
-x,y,1/2-z
-x,-y,-z
x,1/2+y,-z
-x,1/2+y,1/2+z
x,-y,1/2+z
1/2+x,1/2+y,z
1/2-x,-y,z
1/2+x,-y,1/2-z
1/2-x,1/2+y,1/2-z
1/2-x,1/2-y,-z
1/2+x,y,-z
1/2-x,y,1/2+z
1/2+x,1/2-y,1/2+z
loop_
_atom_site_type_symbol
_atom_site_label
_atom_site_fract_x
_atom_site_fract_y
_atom_site_fract_z
Si Si1 0.077970 0.018743 0.964525
Si Si2 0.937201 0.825117 0.564340
Si Si3 0.789565 0.803085 0.757969
Si Si4 0.500000 0.598692 0.750000
Si Si5 0.500000 0.750000 0.750000
O O1 0.056636 0.068644 0.895872
O O2 0.110967 0.993893 0.727998
O O3 0.000000 0.000000 0.000000
O O4 0.864110 0.824059 0.700553
O O5 0.954106 0.869736 0.420758
O O6 0.947729 0.782708 0.391666
O O7 0.000000 0.819755 0.750000
O O8 0.797305 0.750000 0.750000
O O9 0.739967 0.814861 0.526382
#
# Coordination Sequence:
#
# PCOD9508342 Si02
#       5
#    16  16  16   8   4
#     4   8  15  28  47  70 110 142 161 200 261 324
#     4  11  23  34  55  76 110 140 183 231 278 329
#     4  10  23  39  57  73  99 142 191 229 272 326
#     4   9  20  29  50  80 110 138 168 219 272 325
#     4  10  22  36  48  78 108 136 184 216 290 310
#
# _framework density 18.884706999999999
#
# number of rings (size 3 to 8) (size 9 to 14) (size 15 to 20)
#    0.000    2.667    0.000    2.000   20.533    0.000 
#    0.000    0.000    0.000    0.000    0.000    0.000 
#    0.000   57.600    0.000    0.000    0.000    0.000 
#
# Total GULP energy -167045.925750 kJ/mol
# GULP energy per Si atom -5568.197525 kJ/mol
# Density = 1.884172 g / cm^3
# Si number density = 18.884707 Si / 1000 Ang^3
#
#
#
# Elastic Constant Matrix: (Units=GPa)
#
#
# Indices 1 2 3 4 5 6 
#
# 1 79.6452 22.4492 32.7853 0.0000 0.0000 0.0000
# 2 22.4492 101.3645 52.2391 0.0000 0.0000 0.0000
# 3 32.7853 52.2391 137.3691 0.0000 0.0000 0.0000
# 4 0.0000 0.0000 0.0000 -54.6359 0.0000 0.0000
# 5 0.0000 0.0000 0.0000 0.0000 26.9672 0.0000
# 6 0.0000 0.0000 0.0000 0.0000 0.0000 1.3943
#
#
#
# Elastic Compliance Matrix: (Units=1/GPa)
#
#
# Indices 1 2 3 4 5 6 
#
# 1 0.014165 -0.001735 -0.002721 0.000000 0.000000 0.000000
# 2 -0.001735 0.012483 -0.004333 0.000000 0.000000 0.000000
# 3 -0.002721 -0.004333 0.009577 0.000000 0.000000 0.000000
# 4 0.000000 0.000000 0.000000 -0.018303 0.000000 0.000000
# 5 0.000000 0.000000 0.000000 0.000000 0.037082 0.000000
# 6 0.000000 0.000000 0.000000 0.000000 0.000000 0.717207
#
#
# Mechanical properties :
#
#
# Convention : Reuss Voigt Hill
#
# Bulk Modulus (GPa) = 53.62834 59.25846 56.44340
# Shear Modulus (GPa) = 6.28138 8.80546 7.54342
#
# Velocity S-wave (km/s) = 1.82576 2.16168 2.00078
# Velocity P-wave (km/s) = 5.73620 6.13822 5.94061
#
# Compressibility (1/GPa) = 0.01864686
#
# Stress axis : x y z
#
# Youngs Moduli (GPa) = 70.59794 80.11163 104.41944
#
# Poissons Ratio (x) = 0.13898 0.28412
# Poissons Ratio (y) = 0.12247 0.45244
# Poissons Ratio (z) = 0.19209 0.34711
#
# Static dielectric constant tensor:
#      x y z
#    x 1.602880 0.000000 0.000000 
#    y 0.000000 1.393370 0.000000 
#    z 0.000000 0.000000 1.778480 
# 
# From -- ./inp_files/1058.got.cif
#   From: 2010.05.17/outbox.cif.g08.bks.cpg/sg68_1_cif.got.tgz:1058.got - 2010.06.03 18:57:09.
