data_PCOD9508631
_publ_section_title
;
Structure prediction by ZEFSAII (Michael W. Deem and Ramdas Pophale) SiO2 
 PCOD9508631
Probable space group: C C C A
;
_chemical_formula_sum "Si O2"
_cell_formula_units_Z 56
_cell_length_a 16.675734
_cell_length_b 10.521477
_cell_length_c 16.107550
_cell_angle_alpha 90.000000
_cell_angle_beta 90.000000
_cell_angle_gamma 90.000000
_cell_volume 2826.123636
_symmetry_space_group_name_H-M "C C C A"
_symmetry_group_IT_number 68
_space_group.IT_coordinate_system_code '2'
_symmetry_cell_setting 'orthorhombic'
loop_
_space_group_symop_operation_xyz
x,y,z
-x,1/2-y,z
x,1/2-y,1/2-z
-x,y,1/2-z
-x,-y,-z
x,1/2+y,-z
-x,1/2+y,1/2+z
x,-y,1/2+z
1/2+x,1/2+y,z
1/2-x,-y,z
1/2+x,-y,1/2-z
1/2-x,1/2+y,1/2-z
1/2-x,1/2-y,-z
1/2+x,y,-z
1/2-x,y,1/2+z
1/2+x,1/2-y,1/2+z
loop_
_atom_site_type_symbol
_atom_site_label
_atom_site_fract_x
_atom_site_fract_y
_atom_site_fract_z
Si Si1 0.717125 0.132219 0.050702
Si Si2 0.250000 0.000000 0.789144
Si Si3 0.550880 0.122322 0.976932
Si Si4 0.911718 0.894438 0.784314
O O1 0.750000 0.000000 0.012748
O O2 0.742059 0.119205 0.146653
O O3 0.750000 0.250000 0.000000
O O4 0.622581 0.132114 0.041777
O O5 0.333631 0.024059 0.742174
O O6 0.500000 0.250000 0.979218
O O7 0.583932 0.109160 0.883668
O O8 0.500000 0.000000 0.000000
O O9 0.902571 0.750000 0.750000
O O10 0.000000 0.938183 0.750000
#
# Coordination Sequence:
#
# PCOD9508631 Si02
#       4
#    16   8  16  16
#     4  10  22  40  67  97 137 174 228 283 346 417
#     4  10  24  42  70 100 136 178 236 290 344 412
#     4  12  24  42  71 101 134 182 231 289 348 420
#     4  11  22  43  70  96 135 185 236 282 347 425
#
# _framework density 19.815127
#
# number of rings (size 3 to 8) (size 9 to 14) (size 15 to 20)
#    0.857    0.286    2.857    5.143    2.000    0.000 
#    5.143    0.000    0.000    0.000    0.000    0.000 
#    0.000    0.000    0.000    0.000    0.000    0.000 
#
# Total GULP energy -156260.001440 kJ/mol
# GULP energy per Si atom -5580.714337 kJ/mol
# Density = 1.977003 g / cm^3
# Si number density = 19.815127 Si / 1000 Ang^3
#
#
#
# Elastic Constant Matrix: (Units=GPa)
#
#
# Indices 1 2 3 4 5 6 
#
# 1 160.0517 57.0904 32.0575 0.0000 0.0000 0.0000
# 2 57.0904 129.3697 34.2905 0.0000 0.0000 0.0000
# 3 32.0575 34.2905 76.0767 0.0000 0.0000 0.0000
# 4 0.0000 0.0000 0.0000 29.7276 0.0000 0.0000
# 5 0.0000 0.0000 0.0000 0.0000 45.0946 0.0000
# 6 0.0000 0.0000 0.0000 0.0000 0.0000 43.0918
#
#
#
# Elastic Compliance Matrix: (Units=1/GPa)
#
#
# Indices 1 2 3 4 5 6 
#
# 1 0.007658 -0.002867 -0.001935 0.000000 0.000000 0.000000
# 2 -0.002867 0.009852 -0.003233 0.000000 0.000000 0.000000
# 3 -0.001935 -0.003233 0.015417 0.000000 0.000000 0.000000
# 4 0.000000 0.000000 0.000000 0.033639 0.000000 0.000000
# 5 0.000000 0.000000 0.000000 0.000000 0.022176 0.000000
# 6 0.000000 0.000000 0.000000 0.000000 0.000000 0.023206
#
#
# Mechanical properties :
#
#
# Convention : Reuss Voigt Hill
#
# Bulk Modulus (GPa) = 59.31701 68.04166 63.67933
# Shear Modulus (GPa) = 37.41538 39.72012 38.56775
#
# Velocity S-wave (km/s) = 4.35008 4.48206 4.41656
# Velocity P-wave (km/s) = 7.43177 7.82291 7.62985
#
# Compressibility (1/GPa) = 0.01685857
#
# Stress axis : x y z
#
# Youngs Moduli (GPa) = 130.58158 101.50615 64.86348
#
# Poissons Ratio (x) = 0.29098 0.12550
# Poissons Ratio (y) = 0.37433 0.20967
# Poissons Ratio (z) = 0.25266 0.32812
#
# Static dielectric constant tensor:
#      x y z
#    x 1.692590 0.000000 0.000000 
#    y 0.000000 1.635840 0.000000 
#    z 0.000000 0.000000 1.696570 
# 
# From -- ./inp_files/24085.got.cif
#   From: 2010.05.17/outbox.cif.g08.bks.cpg/sg68_13_cif.got.tgz:24085.got - 2010.06.03 18:57:09.
