data_PCOD9508649
_publ_section_title
;
Structure prediction by ZEFSAII (Michael W. Deem and Ramdas Pophale) SiO2 
 PCOD9508649
Probable space group: C C C A
;
_chemical_formula_sum "Si O2"
_cell_formula_units_Z 68
_cell_length_a 18.741320
_cell_length_b 24.661406
_cell_length_c 5.934629
_cell_angle_alpha 90.000000
_cell_angle_beta 90.000000
_cell_angle_gamma 90.000000
_cell_volume 2742.910163
_symmetry_space_group_name_H-M "C C C A"
_symmetry_group_IT_number 68
_space_group.IT_coordinate_system_code '2'
_symmetry_cell_setting 'orthorhombic'
loop_
_space_group_symop_operation_xyz
x,y,z
-x,1/2-y,z
x,1/2-y,1/2-z
-x,y,1/2-z
-x,-y,-z
x,1/2+y,-z
-x,1/2+y,1/2+z
x,-y,1/2+z
1/2+x,1/2+y,z
1/2-x,-y,z
1/2+x,-y,1/2-z
1/2-x,1/2+y,1/2-z
1/2-x,1/2-y,-z
1/2+x,y,-z
1/2-x,y,1/2+z
1/2+x,1/2-y,1/2+z
loop_
_atom_site_type_symbol
_atom_site_label
_atom_site_fract_x
_atom_site_fract_y
_atom_site_fract_z
Si Si1 0.167506 0.981536 0.009211
Si Si2 0.162823 0.367361 0.765299
Si Si3 0.304544 0.191527 0.846295
Si Si4 0.440591 0.343462 0.931156
Si Si5 0.000000 0.750000 0.250000
O O1 0.168222 0.918193 0.068888
O O2 0.139238 0.991797 0.749945
O O3 0.250000 0.000000 0.992011
O O4 0.236802 0.349429 0.643618
O O5 0.093624 0.382529 0.618335
O O6 0.155611 0.312852 0.914237
O O7 0.282672 0.250000 0.750000
O O8 0.367962 0.172534 0.690166
O O9 0.500000 0.360488 0.750000
O O10 0.465093 0.291728 0.072598
#
# Coordination Sequence:
#
# PCOD9508649 Si02
#       5
#    16  16  16  16   4
#     4  10  22  40  69 104 146 192 240 317 386 452
#     4  12  25  40  71 109 147 186 250 310 375 440
#     4  12  24  40  67 108 148 189 238 308 370 441
#     4  12  26  44  70  97 147 197 248 292 366 455
#     4  12  26  52  64 102 136 220 240 292 356 470
#
# _framework density 24.791187999999998
#
# number of rings (size 3 to 8) (size 9 to 14) (size 15 to 20)
#    0.000    0.471    2.353    8.118    4.941    0.000 
#    0.000    0.000    0.000    1.412    0.000    0.000 
#    0.000    0.000    0.000    0.000    0.000    0.000 
#
# Total GULP energy -189334.767198 kJ/mol
# GULP energy per Si atom -5568.669623 kJ/mol
# Density = 2.473476 g / cm^3
# Si number density = 24.791188 Si / 1000 Ang^3
#
#
#
# Elastic Constant Matrix: (Units=GPa)
#
#
# Indices 1 2 3 4 5 6 
#
# 1 83.6154 10.8163 44.1164 0.0000 0.0000 0.0000
# 2 10.8163 67.6591 23.8577 0.0000 0.0000 0.0000
# 3 44.1164 23.8577 152.6601 0.0000 0.0000 0.0000
# 4 0.0000 0.0000 0.0000 51.6448 0.0000 0.0000
# 5 0.0000 0.0000 0.0000 0.0000 79.1582 0.0000
# 6 0.0000 0.0000 0.0000 0.0000 0.0000 13.0289
#
#
#
# Elastic Compliance Matrix: (Units=1/GPa)
#
#
# Indices 1 2 3 4 5 6 
#
# 1 0.014159 -0.000869 -0.003956 0.000000 0.000000 0.000000
# 2 -0.000869 0.015695 -0.002202 0.000000 0.000000 0.000000
# 3 -0.003956 -0.002202 0.008038 0.000000 0.000000 0.000000
# 4 0.000000 0.000000 0.000000 0.019363 0.000000 0.000000
# 5 0.000000 0.000000 0.000000 0.000000 0.012633 0.000000
# 6 0.000000 0.000000 0.000000 0.000000 0.000000 0.076753
#
#
# Mechanical properties :
#
#
# Convention : Reuss Voigt Hill
#
# Bulk Modulus (GPa) = 41.94756 51.27949 46.61353
# Shear Modulus (GPa) = 29.64893 43.77599 36.71246
#
# Velocity S-wave (km/s) = 3.46200 4.20669 3.85238
# Velocity P-wave (km/s) = 5.73913 6.65766 6.21539
#
# Compressibility (1/GPa) = 0.02383929
#
# Stress axis : x y z
#
# Youngs Moduli (GPa) = 70.62588 63.71357 124.41158
#
# Poissons Ratio (x) = 0.05534 0.49218
# Poissons Ratio (y) = 0.06134 0.27394
# Poissons Ratio (z) = 0.27940 0.14029
#
# Static dielectric constant tensor:
#      x y z
#    x 2.206830 0.000000 0.000000 
#    y 0.000000 1.995870 0.000000 
#    z 0.000000 0.000000 2.324880 
# 
# From -- ./inp_files/1644.got.cif
#   From: 2010.05.17/outbox.cif.g08.bks.cpg/sg68_1_cif.got.tgz:1644.got - 2010.06.03 18:57:09.
