data_PCOD9508173
_publ_section_title
;
Structure prediction by ZEFSAII (Michael W. Deem and Ramdas Pophale) SiO2 
 PCOD9508173
Probable space group: C C C A
;
_chemical_formula_sum "Si O2"
_cell_formula_units_Z 88
_cell_length_a 8.690602
_cell_length_b 17.477899
_cell_length_c 29.772004
_cell_angle_alpha 90.000000
_cell_angle_beta 90.000000
_cell_angle_gamma 90.000000
_cell_volume 4522.172818
_symmetry_space_group_name_H-M "C C C A"
_symmetry_group_IT_number 68
_space_group.IT_coordinate_system_code '2'
_symmetry_cell_setting 'orthorhombic'
loop_
_space_group_symop_operation_xyz
x,y,z
-x,1/2-y,z
x,1/2-y,1/2-z
-x,y,1/2-z
-x,-y,-z
x,1/2+y,-z
-x,1/2+y,1/2+z
x,-y,1/2+z
1/2+x,1/2+y,z
1/2-x,-y,z
1/2+x,-y,1/2-z
1/2-x,1/2+y,1/2-z
1/2-x,1/2-y,-z
1/2+x,y,-z
1/2-x,y,1/2+z
1/2+x,1/2-y,1/2+z
loop_
_atom_site_type_symbol
_atom_site_label
_atom_site_fract_x
_atom_site_fract_y
_atom_site_fract_z
Si Si1 0.000000 0.750000 0.424756
Si Si2 0.256603 0.750000 0.750000
Si Si3 0.245383 0.745315 0.151496
Si Si4 0.500000 0.618782 0.250000
Si Si5 0.025507 0.556737 0.943147
Si Si6 0.361317 0.394589 0.474559
Si Si7 0.482261 0.120358 0.652764
O O1 0.136133 0.771353 0.390172
O O2 0.063074 0.681843 0.455600
O O3 0.331414 0.755297 0.798996
O O4 0.145311 0.823960 0.748288
O O5 0.380372 0.682345 0.152224
O O6 0.328103 0.828166 0.147337
O O7 0.493043 0.579207 0.298613
O O8 0.183769 0.597057 0.960213
O O9 0.049075 0.467692 0.954026
O O10 0.005763 0.567923 0.890478
O O11 0.888715 0.593943 0.972280
#
# Coordination Sequence:
#
# PCOD9508173 Si02
#       7
#     8   8  16   8  16  16  16
#     4  12  22  35  50  88 110 137 178 234 266 330
#     4   7  12  27  44  74 110 144 172 218 262 326
#     4   9  18  29  52  80 112 142 181 219 276 314
#     4   7  12  24  52  82 100 129 190 222 256 313
#     4  10  21  42  57  77 107 151 179 222 278 328
#     4  10  24  38  57  79 109 144 185 219 274 333
#     4   9  16  33  56  80 105 144 181 226 264 325
#
# _framework density 19.459672000000001
#
# number of rings (size 3 to 8) (size 9 to 14) (size 15 to 20)
#    0.000    2.727    1.818    2.182    2.545    2.545 
#    0.000    0.000    0.000    2.182    0.000    0.000 
#    0.000    0.000    0.000    0.000    0.000    0.000 
#
# Total GULP energy -245120.963990 kJ/mol
# GULP energy per Si atom -5570.931000 kJ/mol
# Density = 1.941538 g / cm^3
# Si number density = 19.459672 Si / 1000 Ang^3
#
#
#
# Elastic Constant Matrix: (Units=GPa)
#
#
# Indices 1 2 3 4 5 6 
#
# 1 48.1800 3.6820 7.0494 0.0000 0.0000 0.0000
# 2 3.6820 49.5433 22.6775 0.0000 0.0000 0.0000
# 3 7.0494 22.6775 150.3798 0.0000 0.0000 0.0000
# 4 0.0000 0.0000 0.0000 23.1525 0.0000 0.0000
# 5 0.0000 0.0000 0.0000 0.0000 -33.0441 0.0000
# 6 0.0000 0.0000 0.0000 0.0000 0.0000 12.0930
#
#
#
# Elastic Compliance Matrix: (Units=1/GPa)
#
#
# Indices 1 2 3 4 5 6 
#
# 1 0.020964 -0.001190 -0.000803 0.000000 0.000000 0.000000
# 2 -0.001190 0.021748 -0.003224 0.000000 0.000000 0.000000
# 3 -0.000803 -0.003224 0.007174 0.000000 0.000000 0.000000
# 4 0.000000 0.000000 0.000000 0.043192 0.000000 0.000000
# 5 0.000000 0.000000 0.000000 0.000000 -0.030263 0.000000
# 6 0.000000 0.000000 0.000000 0.000000 0.000000 0.082693
#
#
# Mechanical properties :
#
#
# Convention : Reuss Voigt Hill
#
# Bulk Modulus (GPa) = 25.34781 34.99122 30.16951
# Shear Modulus (GPa) = 29.56945 14.75323 22.16134
#
# Velocity S-wave (km/s) = 3.90234 2.75643 3.37832
# Velocity P-wave (km/s) = 5.77567 5.30575 5.54569
#
# Compressibility (1/GPa) = 0.03945114
#
# Stress axis : x y z
#
# Youngs Moduli (GPa) = 47.70088 45.98021 139.39907
#
# Poissons Ratio (x) = 0.05473 0.11197
# Poissons Ratio (y) = 0.05678 0.44941
# Poissons Ratio (z) = 0.03831 0.14824
#
# Static dielectric constant tensor:
#      x y z
#    x 1.711640 0.000000 0.000000 
#    y 0.000000 1.641400 0.000000 
#    z 0.000000 0.000000 1.734200 
# 
# From -- ./inp_files/54062.got.cif
#   From: 2010.05.17/outbox.cif.g08.bks.cpg/sg68_28_cif.got.tgz:54062.got - 2010.06.03 18:57:09.
