data_PCOD9508813
_publ_section_title
;
Structure prediction by ZEFSAII (Michael W. Deem and Ramdas Pophale) SiO2 
 PCOD9508813
Probable space group: C C C A
;
_chemical_formula_sum "Si O2"
_cell_formula_units_Z 84
_cell_length_a 12.774434
_cell_length_b 17.346962
_cell_length_c 17.455871
_cell_angle_alpha 90.000000
_cell_angle_beta 90.000000
_cell_angle_gamma 90.000000
_cell_volume 3868.179489
_symmetry_space_group_name_H-M "C C C A"
_symmetry_group_IT_number 68
_space_group.IT_coordinate_system_code '2'
_symmetry_cell_setting 'orthorhombic'
loop_
_space_group_symop_operation_xyz
x,y,z
-x,1/2-y,z
x,1/2-y,1/2-z
-x,y,1/2-z
-x,-y,-z
x,1/2+y,-z
-x,1/2+y,1/2+z
x,-y,1/2+z
1/2+x,1/2+y,z
1/2-x,-y,z
1/2+x,-y,1/2-z
1/2-x,1/2+y,1/2-z
1/2-x,1/2-y,-z
1/2+x,y,-z
1/2-x,y,1/2+z
1/2+x,1/2-y,1/2+z
loop_
_atom_site_type_symbol
_atom_site_label
_atom_site_fract_x
_atom_site_fract_y
_atom_site_fract_z
Si Si1 0.500000 0.750000 0.750000
Si Si2 0.808677 0.109714 0.205247
Si Si3 0.386035 0.893017 0.681080
Si Si4 0.738984 0.130110 0.467324
Si Si5 0.123294 0.765839 0.907540
Si Si6 0.250000 0.000000 0.424960
Si Si7 0.500000 0.477709 0.750000
O O1 0.434193 0.808226 0.696184
O O2 0.699933 0.099278 0.250216
O O3 0.830281 0.193111 0.168633
O O4 0.817511 0.050397 0.133730
O O5 0.902617 0.079565 0.256553
O O6 0.328945 0.903397 0.601222
O O7 0.475413 0.958165 0.685133
O O8 0.820081 0.186411 0.426727
O O9 0.661240 0.179060 0.522474
O O10 0.794821 0.065388 0.518960
O O11 0.000000 0.750000 0.902373
#
# Coordination Sequence:
#
# PCOD9508813 Si02
#       7
#     4  16  16  16  16   8   8
#     4  10  24  40  68  94 122 184 218 270 342 386
#     4  11  23  44  65  96 139 171 219 287 328 394
#     4  11  23  42  67  95 132 170 229 278 324 404
#     4  10  24  42  68  96 131 175 220 278 329 399
#     4  10  24  44  65  97 135 177 218 273 339 403
#     4  10  22  42  68  90 132 172 212 274 340 380
#     4  11  24  39  69  96 127 172 220 274 339 388
#
# _framework density 21.715641000000002
#
# number of rings (size 3 to 8) (size 9 to 14) (size 15 to 20)
#    0.000    1.524    1.905    1.143    6.667    1.524 
#    0.000    3.810    0.000    0.000    0.000    0.000 
#    0.000    0.000    0.000    0.000    0.000    0.000 
#
# Total GULP energy -234129.495035 kJ/mol
# GULP energy per Si atom -5574.511787 kJ/mol
# Density = 2.166622 g / cm^3
# Si number density = 21.715641 Si / 1000 Ang^3
#
#
#
# Elastic Constant Matrix: (Units=GPa)
#
#
# Indices 1 2 3 4 5 6 
#
# 1 68.7146 6.8370 -7.4283 0.0000 0.0000 0.0000
# 2 6.8370 72.2725 4.7585 0.0000 0.0000 0.0000
# 3 -7.4283 4.7585 43.9072 0.0000 0.0000 0.0000
# 4 0.0000 0.0000 0.0000 17.6314 0.0000 0.0000
# 5 0.0000 0.0000 0.0000 0.0000 -42.4671 0.0000
# 6 0.0000 0.0000 0.0000 0.0000 0.0000 32.2530
#
#
#
# Elastic Compliance Matrix: (Units=1/GPa)
#
#
# Indices 1 2 3 4 5 6 
#
# 1 0.015005 -0.001598 0.002712 0.000000 0.000000 0.000000
# 2 -0.001598 0.014106 -0.001799 0.000000 0.000000 0.000000
# 3 0.002712 -0.001799 0.023429 0.000000 0.000000 0.000000
# 4 0.000000 0.000000 0.000000 0.056717 0.000000 0.000000
# 5 0.000000 0.000000 0.000000 0.000000 -0.023548 0.000000
# 6 0.000000 0.000000 0.000000 0.000000 0.000000 0.031005
#
#
# Mechanical properties :
#
#
# Convention : Reuss Voigt Hill
#
# Bulk Modulus (GPa) = 19.54290 21.46988 20.50639
# Shear Modulus (GPa) = 36.99821 13.53195 25.26508
#
# Velocity S-wave (km/s) = 4.13214 2.49899 3.41464
# Velocity P-wave (km/s) = 5.63783 4.27023 5.00100
#
# Compressibility (1/GPa) = 0.05116949
#
# Stress axis : x y z
#
# Youngs Moduli (GPa) = 66.64399 70.89108 42.68206
#
# Poissons Ratio (x) = 0.11329 -0.11574
# Poissons Ratio (y) = 0.10650 0.07679
# Poissons Ratio (z) = -0.18072 0.12754
#
# Static dielectric constant tensor:
#      x y z
#    x 2.199740 0.000000 0.000000 
#    y 0.000000 1.825250 0.000000 
#    z 0.000000 0.000000 1.819430 
# 
# From -- ./inp_files/37428.got.cif
#   From: 2010.05.17/outbox.cif.g08.bks.cpg/sg68_19_cif.got.tgz:37428.got - 2010.06.03 18:57:09.
