data_PCOD9508780
_publ_section_title
;
Structure prediction by ZEFSAII (Michael W. Deem and Ramdas Pophale) SiO2 
 PCOD9508780
Probable space group: C C C A
;
_chemical_formula_sum "Si O2"
_cell_formula_units_Z 112
_cell_length_a 13.970104
_cell_length_b 27.759387
_cell_length_c 13.930299
_cell_angle_alpha 90.000000
_cell_angle_beta 90.000000
_cell_angle_gamma 90.000000
_cell_volume 5402.191173
_symmetry_space_group_name_H-M "C C C A"
_symmetry_group_IT_number 68
_space_group.IT_coordinate_system_code '2'
_symmetry_cell_setting 'orthorhombic'
loop_
_space_group_symop_operation_xyz
x,y,z
-x,1/2-y,z
x,1/2-y,1/2-z
-x,y,1/2-z
-x,-y,-z
x,1/2+y,-z
-x,1/2+y,1/2+z
x,-y,1/2+z
1/2+x,1/2+y,z
1/2-x,-y,z
1/2+x,-y,1/2-z
1/2-x,1/2+y,1/2-z
1/2-x,1/2-y,-z
1/2+x,y,-z
1/2-x,y,1/2+z
1/2+x,1/2-y,1/2+z
loop_
_atom_site_type_symbol
_atom_site_label
_atom_site_fract_x
_atom_site_fract_y
_atom_site_fract_z
Si Si1 0.544509 0.388364 0.045982
Si Si2 0.369027 0.346168 0.958040
Si Si3 0.701351 0.856177 0.086127
Si Si4 0.635786 0.996298 0.686711
Si Si5 0.384659 0.253134 0.636310
Si Si6 0.000000 0.500000 0.000000
Si Si7 0.000000 0.588268 0.250000
Si Si8 0.110239 0.904318 0.730171
O O1 0.508533 0.442382 0.025306
O O2 0.530663 0.381179 0.158385
O O3 0.479223 0.351878 0.986087
O O4 0.649093 0.381137 0.004018
O O5 0.344890 0.293681 0.917863
O O6 0.355353 0.383591 0.870710
O O7 0.310760 0.356955 0.054360
O O8 0.661839 0.802171 0.098697
O O9 0.673640 0.884386 0.182495
O O10 0.590551 0.946912 0.726951
O O11 0.750000 0.000000 0.671543
O O12 0.578451 0.007099 0.589234
O O13 0.612709 0.037964 0.764995
O O14 0.500000 0.250000 0.625888
O O15 0.364846 0.250000 0.750000
O O16 0.000000 0.888538 0.750000
#
# Coordination Sequence:
#
# PCOD9508780 Si02
#       8
#    16  16  16  16  16   8   8  16
#     4  11  24  43  63  98 135 185 222 282 340 405
#     4  12  26  41  73 101 137 177 227 287 342 416
#     4  12  25  41  71 103 134 173 232 281 345 412
#     4  11  24  42  67  95 137 186 237 290 344 408
#     4  11  21  44  73 103 132 173 224 286 349 407
#     4  10  22  42  64  94 138 178 232 286 336 396
#     4  10  26  44  62  91 146 183 226 288 342 414
#     4  12  22  46  68 102 135 180 237 289 334 408
#
# _framework density 20.732327999999999
#
# number of rings (size 3 to 8) (size 9 to 14) (size 15 to 20)
#    0.000    0.714    6.429    0.429    8.000    0.000 
#    0.000    2.857    0.000    0.857    0.000    0.000 
#    0.000    0.000    0.000    0.000    0.000    0.000 
#
# Total GULP energy -311991.826584 kJ/mol
# GULP energy per Si atom -5571.282618 kJ/mol
# Density = 2.068514 g / cm^3
# Si number density = 20.732328 Si / 1000 Ang^3
#
#
#
# Elastic Constant Matrix: (Units=GPa)
#
#
# Indices 1 2 3 4 5 6 
#
# 1 66.4798 -15.9301 11.6478 0.0000 0.0000 0.0000
# 2 -15.9301 59.3409 4.0216 0.0000 0.0000 0.0000
# 3 11.6478 4.0216 98.6835 0.0000 0.0000 0.0000
# 4 0.0000 0.0000 0.0000 26.9145 0.0000 0.0000
# 5 0.0000 0.0000 0.0000 0.0000 34.1736 0.0000
# 6 0.0000 0.0000 0.0000 0.0000 0.0000 16.5845
#
#
#
# Elastic Compliance Matrix: (Units=1/GPa)
#
#
# Indices 1 2 3 4 5 6 
#
# 1 0.016513 0.004578 -0.002136 0.000000 0.000000 0.000000
# 2 0.004578 0.018167 -0.001281 0.000000 0.000000 0.000000
# 3 -0.002136 -0.001281 0.010438 0.000000 0.000000 0.000000
# 4 0.000000 0.000000 0.000000 0.037155 0.000000 0.000000
# 5 0.000000 0.000000 0.000000 0.000000 0.029262 0.000000
# 6 0.000000 0.000000 0.000000 0.000000 0.000000 0.060297
#
#
# Mechanical properties :
#
#
# Convention : Reuss Voigt Hill
#
# Bulk Modulus (GPa) = 21.07874 24.88698 22.98286
# Shear Modulus (GPa) = 26.97985 30.51886 28.74935
#
# Velocity S-wave (km/s) = 3.61133 3.84088 3.72787
# Velocity P-wave (km/s) = 5.25148 5.63026 5.44417
#
# Compressibility (1/GPa) = 0.04744118
#
# Stress axis : x y z
#
# Youngs Moduli (GPa) = 60.55739 55.04345 95.80679
#
# Poissons Ratio (x) = -0.25197 0.20461
# Poissons Ratio (y) = -0.27721 0.12270
# Poissons Ratio (z) = 0.12933 0.07049
#
# Static dielectric constant tensor:
#      x y z
#    x 1.743890 0.000000 0.000000 
#    y 0.000000 1.733140 0.000000 
#    z 0.000000 0.000000 1.738520 
# 
# From -- ./inp_files/22761.got.cif
#   From: 2010.05.17/outbox.cif.g08.bks.cpg/sg68_12_cif.got.tgz:22761.got - 2010.06.03 18:57:09.
