data_PCOD9508659
_publ_section_title
;
Structure prediction by ZEFSAII (Michael W. Deem and Ramdas Pophale) SiO2 
 PCOD9508659
Probable space group: C C C A
;
_chemical_formula_sum "Si O2"
_cell_formula_units_Z 64
_cell_length_a 9.013347
_cell_length_b 16.836677
_cell_length_c 17.542066
_cell_angle_alpha 90.000000
_cell_angle_beta 90.000000
_cell_angle_gamma 90.000000
_cell_volume 2662.092930
_symmetry_space_group_name_H-M "C C C A"
_symmetry_group_IT_number 68
_space_group.IT_coordinate_system_code '2'
_symmetry_cell_setting 'orthorhombic'
loop_
_space_group_symop_operation_xyz
x,y,z
-x,1/2-y,z
x,1/2-y,1/2-z
-x,y,1/2-z
-x,-y,-z
x,1/2+y,-z
-x,1/2+y,1/2+z
x,-y,1/2+z
1/2+x,1/2+y,z
1/2-x,-y,z
1/2+x,-y,1/2-z
1/2-x,1/2+y,1/2-z
1/2-x,1/2-y,-z
1/2+x,y,-z
1/2-x,y,1/2+z
1/2+x,1/2-y,1/2+z
loop_
_atom_site_type_symbol
_atom_site_label
_atom_site_fract_x
_atom_site_fract_y
_atom_site_fract_z
Si Si1 0.842418 0.718540 0.889359
Si Si2 0.500000 0.487581 0.750000
Si Si3 0.250000 0.500000 0.862556
Si Si4 0.114846 0.847941 0.061077
Si Si5 0.323919 0.421907 0.121704
O O1 0.710327 0.783547 0.890372
O O2 0.797434 0.638658 0.846547
O O3 0.000000 0.750000 0.862961
O O4 0.867005 0.683953 0.975485
O O5 0.373527 0.457282 0.808651
O O6 0.590298 0.543081 0.807497
O O7 0.183957 0.432101 0.916321
O O8 0.940301 0.867266 0.074861
O O9 0.250000 0.500000 0.083477
#
# Coordination Sequence:
#
# PCOD9508659 Si02
#       5
#    16   8   8  16  16
#     4  11  24  42  67 103 143 174 222 286 347 414
#     4  10  22  44  67  97 138 176 238 284 322 403
#     4  10  22  40  70  94 136 184 230 278 342 400
#     4  10  23  42  66  98 145 178 220 281 354 412
#     4  11  24  43  72  98 137 183 228 278 346 403
#
# _framework density 24.041235
#
# number of rings (size 3 to 8) (size 9 to 14) (size 15 to 20)
#    0.000    1.500    1.250    3.750    8.750    1.000 
#    0.000   10.000    0.000    7.500    0.000    0.000 
#    0.000    0.000    0.000    0.000    0.000    0.000 
#
# Total GULP energy -178495.967167 kJ/mol
# GULP energy per Si atom -5577.998974 kJ/mol
# Density = 2.398652 g / cm^3
# Si number density = 24.041235 Si / 1000 Ang^3
#
#
#
# Elastic Constant Matrix: (Units=GPa)
#
#
# Indices 1 2 3 4 5 6 
#
# 1 155.6092 65.7983 10.8713 0.0000 0.0000 0.0000
# 2 65.7983 138.3122 -0.2294 0.0000 0.0000 0.0000
# 3 10.8713 -0.2294 42.7612 0.0000 0.0000 0.0000
# 4 0.0000 0.0000 0.0000 -20.4301 0.0000 0.0000
# 5 0.0000 0.0000 0.0000 0.0000 36.9050 0.0000
# 6 0.0000 0.0000 0.0000 0.0000 0.0000 58.5944
#
#
#
# Elastic Compliance Matrix: (Units=1/GPa)
#
#
# Indices 1 2 3 4 5 6 
#
# 1 0.008231 -0.003919 -0.002114 0.000000 0.000000 0.000000
# 2 -0.003919 0.009096 0.001045 0.000000 0.000000 0.000000
# 3 -0.002114 0.001045 0.023929 0.000000 0.000000 0.000000
# 4 0.000000 0.000000 0.000000 -0.048947 0.000000 0.000000
# 5 0.000000 0.000000 0.000000 0.000000 0.027097 0.000000
# 6 0.000000 0.000000 0.000000 0.000000 0.000000 0.017066
#
#
# Mechanical properties :
#
#
# Convention : Reuss Voigt Hill
#
# Bulk Modulus (GPa) = 31.96865 54.39587 43.18226
# Shear Modulus (GPa) = 87.91315 32.36337 60.13826
#
# Velocity S-wave (km/s) = 6.05368 3.67299 5.00689
# Velocity P-wave (km/s) = 7.88600 6.37675 7.17119
#
# Compressibility (1/GPa) = 0.03128065
#
# Stress axis : x y z
#
# Youngs Moduli (GPa) = 121.48781 109.93528 41.79086
#
# Poissons Ratio (x) = 0.43087 0.08833
# Poissons Ratio (y) = 0.47615 -0.04368
# Poissons Ratio (z) = 0.25679 -0.11491
#
# Static dielectric constant tensor:
#      x y z
#    x 2.121240 0.000000 0.000000 
#    y 0.000000 1.909610 0.000000 
#    z 0.000000 0.000000 1.910890 
# 
# From -- ./inp_files/35798.got.cif
#   From: 2010.05.17/outbox.cif.g08.bks.cpg/sg68_18_cif.got.tgz:35798.got - 2010.06.03 18:57:09.
