data_PCOD9508703
_publ_section_title
;
Structure prediction by ZEFSAII (Michael W. Deem and Ramdas Pophale) SiO2 
 PCOD9508703
Probable space group: C C C A
;
_chemical_formula_sum "Si O2"
_cell_formula_units_Z 104
_cell_length_a 26.126403
_cell_length_b 9.434643
_cell_length_c 19.837658
_cell_angle_alpha 90.000000
_cell_angle_beta 90.000000
_cell_angle_gamma 90.000000
_cell_volume 4889.849491
_symmetry_space_group_name_H-M "C C C A"
_symmetry_group_IT_number 68
_space_group.IT_coordinate_system_code '2'
_symmetry_cell_setting 'orthorhombic'
loop_
_space_group_symop_operation_xyz
x,y,z
-x,1/2-y,z
x,1/2-y,1/2-z
-x,y,1/2-z
-x,-y,-z
x,1/2+y,-z
-x,1/2+y,1/2+z
x,-y,1/2+z
1/2+x,1/2+y,z
1/2-x,-y,z
1/2+x,-y,1/2-z
1/2-x,1/2+y,1/2-z
1/2-x,1/2-y,-z
1/2+x,y,-z
1/2-x,y,1/2+z
1/2+x,1/2-y,1/2+z
loop_
_atom_site_type_symbol
_atom_site_label
_atom_site_fract_x
_atom_site_fract_y
_atom_site_fract_z
Si Si1 0.598527 0.522900 0.499788
Si Si2 0.944079 0.717320 0.587930
Si Si3 0.840861 0.240509 0.346298
Si Si4 0.193904 0.973246 0.748238
Si Si5 0.252536 0.666509 0.068086
Si Si6 0.140583 0.768242 0.402648
Si Si7 0.370004 0.750000 0.750000
O O1 0.559251 0.421669 0.540769
O O2 0.572083 0.642331 0.453868
O O3 0.626480 0.404592 0.451248
O O4 0.628982 0.622054 0.555223
O O5 0.898122 0.694389 0.640483
O O6 0.000000 0.750000 0.615937
O O7 0.804507 0.114962 0.320157
O O8 0.838618 0.370156 0.295055
O O9 0.809931 0.299382 0.408538
O O10 0.250000 0.000000 0.776643
O O11 0.164313 0.114410 0.738622
O O12 0.250000 0.500000 0.059111
O O13 0.201945 0.714577 0.110019
O O14 0.250000 0.750000 0.000000
O O15 0.110684 0.772076 0.329376
#
# Coordination Sequence:
#
# PCOD9508703 Si02
#       7
#    16  16  16  16  16  16   8
#     4  10  22  41  64  91 128 172 218 267 338 412
#     4  11  22  40  63  90 121 163 222 286 328 376
#     4  11  24  39  58  87 123 166 214 261 326 398
#     4  11  22  39  60  86 123 166 205 250 317 405
#     4  12  23  36  57  88 127 169 212 264 330 407
#     4  11  22  39  63  95 130 167 210 267 331 408
#     4  12  22  34  60  92 123 162 207 258 312 374
#
# _framework density 21.268547000000002
#
# number of rings (size 3 to 8) (size 9 to 14) (size 15 to 20)
#    0.000    0.923    0.000   10.154    0.000    1.846 
#    0.000    1.538    0.000    0.000    0.000   21.538 
#    0.000    0.000    0.000    0.000    0.000    0.000 
#
# Total GULP energy -289820.852225 kJ/mol
# GULP energy per Si atom -5573.477927 kJ/mol
# Density = 2.122014 g / cm^3
# Si number density = 21.268547 Si / 1000 Ang^3
#
#
#
# Elastic Constant Matrix: (Units=GPa)
#
#
# Indices 1 2 3 4 5 6 
#
# 1 70.1157 1.6981 13.6341 0.0000 0.0000 0.0000
# 2 1.6981 126.6704 33.2775 0.0000 0.0000 0.0000
# 3 13.6341 33.2775 86.6277 0.0000 0.0000 0.0000
# 4 0.0000 0.0000 0.0000 14.2623 0.0000 0.0000
# 5 0.0000 0.0000 0.0000 0.0000 19.3222 0.0000
# 6 0.0000 0.0000 0.0000 0.0000 0.0000 16.9417
#
#
#
# Elastic Compliance Matrix: (Units=1/GPa)
#
#
# Indices 1 2 3 4 5 6 
#
# 1 0.014736 0.000458 -0.002495 0.000000 0.000000 0.000000
# 2 0.000458 0.008795 -0.003451 0.000000 0.000000 0.000000
# 3 -0.002495 -0.003451 0.013262 0.000000 0.000000 0.000000
# 4 0.000000 0.000000 0.000000 0.070115 0.000000 0.000000
# 5 0.000000 0.000000 0.000000 0.000000 0.051754 0.000000
# 6 0.000000 0.000000 0.000000 0.000000 0.000000 0.059026
#
#
# Mechanical properties :
#
#
# Convention : Reuss Voigt Hill
#
# Bulk Modulus (GPa) = 38.73365 42.29257 40.51311
# Shear Modulus (GPa) = 21.07308 25.75883 23.41596
#
# Velocity S-wave (km/s) = 3.15113 3.48390 3.32168
# Velocity P-wave (km/s) = 5.61166 6.00929 5.81387
#
# Compressibility (1/GPa) = 0.02581734
#
# Stress axis : x y z
#
# Youngs Moduli (GPa) = 67.85983 113.70276 75.40406
#
# Poissons Ratio (x) = -0.05207 0.18815
# Poissons Ratio (y) = -0.03108 0.26019
# Poissons Ratio (z) = 0.16933 0.39234
#
# Static dielectric constant tensor:
#      x y z
#    x 1.874890 0.000000 0.000000 
#    y 0.000000 1.751200 0.000000 
#    z 0.000000 0.000000 2.003810 
# 
# From -- ./inp_files/41339.got.cif
#   From: 2010.05.17/outbox.cif.g08.bks.cpg/sg68_21_cif.got.tgz:41339.got - 2010.06.03 18:57:09.
