data_PCOD9508039
_publ_section_title
;
Structure prediction by ZEFSAII (Michael W. Deem and Ramdas Pophale) SiO2 
 PCOD9508039
Probable space group: C C C A
;
_chemical_formula_sum "Si O2"
_cell_formula_units_Z 56
_cell_length_a 11.374052
_cell_length_b 7.878179
_cell_length_c 25.061502
_cell_angle_alpha 90.000000
_cell_angle_beta 90.000000
_cell_angle_gamma 90.000000
_cell_volume 2245.681439
_symmetry_space_group_name_H-M "C C C A"
_symmetry_group_IT_number 68
_space_group.IT_coordinate_system_code '2'
_symmetry_cell_setting 'orthorhombic'
loop_
_space_group_symop_operation_xyz
x,y,z
-x,1/2-y,z
x,1/2-y,1/2-z
-x,y,1/2-z
-x,-y,-z
x,1/2+y,-z
-x,1/2+y,1/2+z
x,-y,1/2+z
1/2+x,1/2+y,z
1/2-x,-y,z
1/2+x,-y,1/2-z
1/2-x,1/2+y,1/2-z
1/2-x,1/2-y,-z
1/2+x,y,-z
1/2-x,y,1/2+z
1/2+x,1/2-y,1/2+z
loop_
_atom_site_type_symbol
_atom_site_label
_atom_site_fract_x
_atom_site_fract_y
_atom_site_fract_z
Si Si1 0.626763 0.665135 0.880953
Si Si2 0.375606 0.446147 0.233194
Si Si3 0.875977 0.152528 0.500714
Si Si4 0.250000 0.500000 0.408992
O O1 0.500000 0.750000 0.875488
O O2 0.633671 0.543260 0.830711
O O3 0.718309 0.824449 0.879482
O O4 0.628162 0.578991 0.939185
O O5 0.383521 0.250000 0.250000
O O6 0.500000 0.527753 0.250000
O O7 0.250000 0.500000 0.256532
O O8 0.750000 0.250000 0.500000
O O9 0.859713 0.034311 0.449146
O O10 0.000000 0.250000 0.495845
#
# Coordination Sequence:
#
# PCOD9508039 Si02
#       4
#    16  16  16   8
#     4  10  21  40  65  96 130 176 217 267 331 390
#     4  11  25  47  71  97 130 171 226 285 341 399
#     4   9  20  37  59  94 132 174 213 252 312 388
#     4  10  22  40  64  96 144 170 214 270 320 398
#
# _framework density 24.93675
#
# number of rings (size 3 to 8) (size 9 to 14) (size 15 to 20)
#    0.000    2.000    2.857    0.000    4.000   10.857 
#    5.143    0.000    0.000    0.000    0.000    0.000 
#    0.000    0.000    0.000    0.000    0.000    0.000 
#
# Total GULP energy -156236.296815 kJ/mol
# GULP energy per Si atom -5579.867743 kJ/mol
# Density = 2.487999 g / cm^3
# Si number density = 24.936750 Si / 1000 Ang^3
#
#
#
# Elastic Constant Matrix: (Units=GPa)
#
#
# Indices 1 2 3 4 5 6 
#
# 1 232.0997 49.5457 38.4962 0.0000 0.0000 0.0000
# 2 49.5457 43.0534 3.0685 0.0000 0.0000 0.0000
# 3 38.4962 3.0685 128.0804 0.0000 0.0000 0.0000
# 4 0.0000 0.0000 0.0000 2.9157 0.0000 0.0000
# 5 0.0000 0.0000 0.0000 0.0000 13.7164 0.0000
# 6 0.0000 0.0000 0.0000 0.0000 0.0000 57.5975
#
#
#
# Elastic Compliance Matrix: (Units=1/GPa)
#
#
# Indices 1 2 3 4 5 6 
#
# 1 0.006042 -0.006835 -0.001652 0.000000 0.000000 0.000000
# 2 -0.006835 0.030999 0.001312 0.000000 0.000000 0.000000
# 3 -0.001652 0.001312 0.008273 0.000000 0.000000 0.000000
# 4 0.000000 0.000000 0.000000 0.342966 0.000000 0.000000
# 5 0.000000 0.000000 0.000000 0.000000 0.072905 0.000000
# 6 0.000000 0.000000 0.000000 0.000000 0.000000 0.017362
#
#
# Mechanical properties :
#
#
# Convention : Reuss Voigt Hill
#
# Bulk Modulus (GPa) = 32.29699 65.05047 48.67373
# Shear Modulus (GPa) = 9.93605 35.65413 22.79509
#
# Velocity S-wave (km/s) = 1.99829 3.78535 3.02672
# Velocity P-wave (km/s) = 4.27830 6.72666 5.63701
#
# Compressibility (1/GPa) = 0.03096264
#
# Stress axis : x y z
#
# Youngs Moduli (GPa) = 165.52109 32.25914 120.87903
#
# Poissons Ratio (x) = 0.22049 0.19971
# Poissons Ratio (y) = 1.13131 -0.15855
# Poissons Ratio (z) = 0.27346 -0.04231
#
# Static dielectric constant tensor:
#      x y z
#    x 1.991170 0.000000 0.000000 
#    y 0.000000 2.168240 0.000000 
#    z 0.000000 0.000000 2.055700 
# 
# From -- ./inp_files/48742.got.cif
#   From: 2010.05.17/outbox.cif.g08.bks.cpg/sg68_25_cif.got.tgz:48742.got - 2010.06.03 18:57:09.
