data_PCOD9508699
_publ_section_title
;
Structure prediction by ZEFSAII (Michael W. Deem and Ramdas Pophale) SiO2 
 PCOD9508699
Probable space group: C C C A
;
_chemical_formula_sum "Si O2"
_cell_formula_units_Z 116
_cell_length_a 24.328805
_cell_length_b 9.166992
_cell_length_c 28.509729
_cell_angle_alpha 90.000000
_cell_angle_beta 90.000000
_cell_angle_gamma 90.000000
_cell_volume 6358.295664
_symmetry_space_group_name_H-M "C C C A"
_symmetry_group_IT_number 68
_space_group.IT_coordinate_system_code '2'
_symmetry_cell_setting 'orthorhombic'
loop_
_space_group_symop_operation_xyz
x,y,z
-x,1/2-y,z
x,1/2-y,1/2-z
-x,y,1/2-z
-x,-y,-z
x,1/2+y,-z
-x,1/2+y,1/2+z
x,-y,1/2+z
1/2+x,1/2+y,z
1/2-x,-y,z
1/2+x,-y,1/2-z
1/2-x,1/2+y,1/2-z
1/2-x,1/2-y,-z
1/2+x,y,-z
1/2-x,y,1/2+z
1/2+x,1/2-y,1/2+z
loop_
_atom_site_type_symbol
_atom_site_label
_atom_site_fract_x
_atom_site_fract_y
_atom_site_fract_z
Si Si1 0.000000 0.750000 0.250000
Si Si2 0.863375 0.664588 0.599711
Si Si3 0.440964 0.331100 0.526436
Si Si4 0.748719 0.827369 0.950391
Si Si5 0.093265 0.245679 0.197290
Si Si6 0.461865 0.887118 0.916640
Si Si7 0.494890 0.481285 0.678807
Si Si8 0.625512 0.172829 0.427263
O O1 0.000048 0.623814 0.290615
O O2 0.906855 0.753518 0.568143
O O3 0.802930 0.701171 0.579983
O O4 0.867604 0.710852 0.653815
O O5 0.876868 0.491908 0.592882
O O6 0.500000 0.250000 0.524274
O O7 0.450401 0.499346 0.541745
O O8 0.403138 0.327483 0.479347
O O9 0.689801 0.789894 0.928613
O O10 0.750000 0.000000 0.958860
O O11 0.750000 0.750000 0.000000
O O12 0.116347 0.250000 0.250000
O O13 0.045021 0.124663 0.192157
O O14 0.061464 0.396944 0.189551
O O15 0.500000 0.750000 0.928511
O O16 0.406665 0.802638 0.900892
O O17 0.491492 0.977018 0.875744
#
# Coordination Sequence:
#
# PCOD9508699 Si02
#       8
#     4  16  16  16  16  16  16  16
#     4  12  20  34  60  92 116 158 208 248 304 346
#     4  11  23  39  61  90 121 164 212 259 304 372
#     4  12  23  37  57  85 129 168 204 244 307 378
#     4  10  22  41  64  89 117 159 213 265 311 362
#     4  11  21  39  59  88 123 167 207 240 305 368
#     4  12  24  36  55  88 128 164 200 248 310 365
#     4  11  21  35  58  87 127 161 198 251 295 369
#     4  11  24  39  59  88 122 162 207 259 316 364
#
# _framework density 18.243883
#
# number of rings (size 3 to 8) (size 9 to 14) (size 15 to 20)
#    0.000    0.828    4.828    4.138    1.931    1.655 
#    0.000    0.000    0.000    0.000   12.552    0.000 
#    0.000    0.000    0.000    0.000    0.000    0.000 
#
# Total GULP energy -323375.219260 kJ/mol
# GULP energy per Si atom -5575.434815 kJ/mol
# Density = 1.820236 g / cm^3
# Si number density = 18.243883 Si / 1000 Ang^3
#
#
#
# Elastic Constant Matrix: (Units=GPa)
#
#
# Indices 1 2 3 4 5 6 
#
# 1 124.7985 39.6029 45.2660 0.0000 0.0000 0.0000
# 2 39.6029 99.3090 25.6476 0.0000 0.0000 0.0000
# 3 45.2660 25.6476 130.8840 0.0000 0.0000 0.0000
# 4 0.0000 0.0000 0.0000 34.0321 0.0000 0.0000
# 5 0.0000 0.0000 0.0000 0.0000 15.1922 0.0000
# 6 0.0000 0.0000 0.0000 0.0000 0.0000 21.1466
#
#
#
# Elastic Compliance Matrix: (Units=1/GPa)
#
#
# Indices 1 2 3 4 5 6 
#
# 1 0.010088 -0.003288 -0.002845 0.000000 0.000000 0.000000
# 2 -0.003288 0.011678 -0.001151 0.000000 0.000000 0.000000
# 3 -0.002845 -0.001151 0.008850 0.000000 0.000000 0.000000
# 4 0.000000 0.000000 0.000000 0.029384 0.000000 0.000000
# 5 0.000000 0.000000 0.000000 0.000000 0.065823 0.000000
# 6 0.000000 0.000000 0.000000 0.000000 0.000000 0.047289
#
#
# Mechanical properties :
#
#
# Convention : Reuss Voigt Hill
#
# Bulk Modulus (GPa) = 62.31342 64.00272 63.15807
# Shear Modulus (GPa) = 25.90275 30.37252 28.13763
#
# Velocity S-wave (km/s) = 3.77212 4.08463 3.93148
# Velocity P-wave (km/s) = 7.29395 7.57651 7.43657
#
# Compressibility (1/GPa) = 0.01604791
#
# Stress axis : x y z
#
# Youngs Moduli (GPa) = 99.12561 85.62940 112.99770
#
# Poissons Ratio (x) = 0.28158 0.32143
# Poissons Ratio (y) = 0.32596 0.13008
# Poissons Ratio (z) = 0.28197 0.09857
#
# Static dielectric constant tensor:
#      x y z
#    x 1.672880 0.000000 0.000000 
#    y 0.000000 1.641530 0.000000 
#    z 0.000000 0.000000 1.667160 
# 
# From -- ./inp_files/52204.got.cif
#   From: 2010.05.17/outbox.cif.g08.bks.cpg/sg68_27_cif.got.tgz:52204.got - 2010.06.03 18:57:09.
