data_PCOD9508678
_publ_section_title
;
Structure prediction by ZEFSAII (Michael W. Deem and Ramdas Pophale) SiO2 
 PCOD9508678
Probable space group: C C C A
;
_chemical_formula_sum "Si O2"
_cell_formula_units_Z 60
_cell_length_a 5.084690
_cell_length_b 19.679334
_cell_length_c 25.347625
_cell_angle_alpha 90.000000
_cell_angle_beta 90.000000
_cell_angle_gamma 90.000000
_cell_volume 2536.367329
_symmetry_space_group_name_H-M "C C C A"
_symmetry_group_IT_number 68
_space_group.IT_coordinate_system_code '2'
_symmetry_cell_setting 'orthorhombic'
loop_
_space_group_symop_operation_xyz
x,y,z
-x,1/2-y,z
x,1/2-y,1/2-z
-x,y,1/2-z
-x,-y,-z
x,1/2+y,-z
-x,1/2+y,1/2+z
x,-y,1/2+z
1/2+x,1/2+y,z
1/2-x,-y,z
1/2+x,-y,1/2-z
1/2-x,1/2+y,1/2-z
1/2-x,1/2-y,-z
1/2+x,y,-z
1/2-x,y,1/2+z
1/2+x,1/2-y,1/2+z
loop_
_atom_site_type_symbol
_atom_site_label
_atom_site_fract_x
_atom_site_fract_y
_atom_site_fract_z
Si Si1 0.156494 0.889456 0.532648
Si Si2 0.500000 0.750000 0.750000
Si Si3 0.500000 0.750000 0.425797
Si Si4 0.799676 0.340012 0.333337
Si Si5 0.293251 0.575507 0.849031
O O1 0.373585 0.908199 0.489869
O O2 0.219635 0.921344 0.589016
O O3 0.152690 0.807573 0.541828
O O4 0.314463 0.705081 0.712996
O O5 0.317021 0.793763 0.386081
O O6 0.589738 0.399609 0.342426
O O7 0.087651 0.371188 0.323817
O O8 0.250000 0.500000 0.828394
#
# Coordination Sequence:
#
# PCOD9508678 Si02
#       5
#    16   4   8  16  16
#     4  11  22  35  60  93 128 173 220 271 313 362
#     4  12  24  46  74 106 128 146 214 276 332 406
#     4  10  22  41  61  94 134 166 213 267 338 388
#     4  11  25  42  71  98 127 171 207 270 337 386
#     4  11  25  46  65  92 135 181 220 255 316 389
#
# _framework density 23.65588
#
# number of rings (size 3 to 8) (size 9 to 14) (size 15 to 20)
#    0.000    1.067    0.000    8.000    0.000   10.133 
#    0.000    2.667    0.000    0.000    0.000    0.000 
#    0.000    0.000    0.000    0.000    0.000    0.000 
#
# Total GULP energy -168202.839783 kJ/mol
# GULP energy per Si atom -5606.761326 kJ/mol
# Density = 2.360204 g / cm^3
# Si number density = 23.655880 Si / 1000 Ang^3
#
#
#
# Elastic Constant Matrix: (Units=GPa)
#
#
# Indices 1 2 3 4 5 6 
#
# 1 71.7499 2.2580 -6.3892 0.0000 0.0000 0.0000
# 2 2.2580 70.0203 -7.1054 0.0000 0.0000 0.0000
# 3 -6.3892 -7.1054 54.5362 0.0000 0.0000 0.0000
# 4 0.0000 0.0000 0.0000 2.6726 0.0000 0.0000
# 5 0.0000 0.0000 0.0000 0.0000 40.6913 0.0000
# 6 0.0000 0.0000 0.0000 0.0000 0.0000 33.2787
#
#
#
# Elastic Compliance Matrix: (Units=1/GPa)
#
#
# Indices 1 2 3 4 5 6 
#
# 1 0.014090 -0.000291 0.001613 0.000000 0.000000 0.000000
# 2 -0.000291 0.014479 0.001852 0.000000 0.000000 0.000000
# 3 0.001613 0.001852 0.018767 0.000000 0.000000 0.000000
# 4 0.000000 0.000000 0.000000 0.374166 0.000000 0.000000
# 5 0.000000 0.000000 0.000000 0.000000 0.024575 0.000000
# 6 0.000000 0.000000 0.000000 0.000000 0.000000 0.030049
#
#
# Mechanical properties :
#
#
# Convention : Reuss Voigt Hill
#
# Bulk Modulus (GPa) = 18.62727 19.31480 18.97104
# Shear Modulus (GPa) = 10.25280 29.16473 19.70876
#
# Velocity S-wave (km/s) = 2.08412 3.51504 2.88956
# Velocity P-wave (km/s) = 3.69902 4.96555 4.37832
#
# Compressibility (1/GPa) = 0.05368474
#
# Stress axis : x y z
#
# Youngs Moduli (GPa) = 70.97196 69.06595 53.28573
#
# Poissons Ratio (x) = 0.02008 -0.08594
# Poissons Ratio (y) = 0.02063 -0.09870
# Poissons Ratio (z) = -0.11447 -0.12793
#
# Static dielectric constant tensor:
#      x y z
#    x 1.853660 0.000000 0.000000 
#    y 0.000000 1.914680 0.000000 
#    z 0.000000 0.000000 1.881010 
# 
# From -- ./inp_files/42043.got.cif
#   From: 2010.05.17/outbox.cif.g08.bks.cpg/sg68_22_cif.got.tgz:42043.got - 2010.06.03 18:57:09.
