data_PCOD9508539
_publ_section_title
;
Structure prediction by ZEFSAII (Michael W. Deem and Ramdas Pophale) SiO2 
 PCOD9508539
Probable space group: C C C A
;
_chemical_formula_sum "Si O2"
_cell_formula_units_Z 32
_cell_length_a 13.379175
_cell_length_b 6.089199
_cell_length_c 15.412777
_cell_angle_alpha 90.000000
_cell_angle_beta 90.000000
_cell_angle_gamma 90.000000
_cell_volume 1255.655192
_symmetry_space_group_name_H-M "C C C A"
_symmetry_group_IT_number 68
_space_group.IT_coordinate_system_code '2'
_symmetry_cell_setting 'orthorhombic'
loop_
_space_group_symop_operation_xyz
x,y,z
-x,1/2-y,z
x,1/2-y,1/2-z
-x,y,1/2-z
-x,-y,-z
x,1/2+y,-z
-x,1/2+y,1/2+z
x,-y,1/2+z
1/2+x,1/2+y,z
1/2-x,-y,z
1/2+x,-y,1/2-z
1/2-x,1/2+y,1/2-z
1/2-x,1/2-y,-z
1/2+x,y,-z
1/2-x,y,1/2+z
1/2+x,1/2-y,1/2+z
loop_
_atom_site_type_symbol
_atom_site_label
_atom_site_fract_x
_atom_site_fract_y
_atom_site_fract_z
Si Si1 0.000000 0.250000 0.071341
Si Si2 0.859005 0.405740 0.582871
Si Si3 0.796634 0.250000 0.750000
O O1 0.935259 0.419054 0.125008
O O2 0.083722 0.343432 0.004910
O O3 0.750000 0.500000 0.559869
O O4 0.848451 0.223026 0.656272
O O5 0.750000 0.500000 0.738118
#
# Coordination Sequence:
#
# PCOD9508539 Si02
#       3
#     8  16   8
#     4  10  22  39  70 103 132 182 230 284 352 408
#     4  10  22  42  66  99 141 179 229 287 345 412
#     4  10  24  45  72 101 140 192 232 283 354 413
#
# _framework density 25.484701000000001
#
# number of rings (size 3 to 8) (size 9 to 14) (size 15 to 20)
#    0.000    2.000    0.000    1.500    0.000   19.000 
#    0.000   10.000    0.000    0.000    0.000    0.000 
#    0.000    0.000    0.000    0.000    0.000    0.000 
#
# Total GULP energy -89101.021899 kJ/mol
# GULP energy per Si atom -5568.813869 kJ/mol
# Density = 2.542670 g / cm^3
# Si number density = 25.484701 Si / 1000 Ang^3
#
#
#
# Elastic Constant Matrix: (Units=GPa)
#
#
# Indices 1 2 3 4 5 6 
#
# 1 174.4062 42.8750 43.1748 0.0000 0.0000 0.0000
# 2 42.8750 97.6017 13.5862 0.0000 0.0000 0.0000
# 3 43.1748 13.5862 80.5603 0.0000 0.0000 0.0000
# 4 0.0000 0.0000 0.0000 25.6154 0.0000 0.0000
# 5 0.0000 0.0000 0.0000 0.0000 -14.9842 0.0000
# 6 0.0000 0.0000 0.0000 0.0000 0.0000 45.0676
#
#
#
# Elastic Compliance Matrix: (Units=1/GPa)
#
#
# Indices 1 2 3 4 5 6 
#
# 1 0.007248 -0.002707 -0.003428 0.000000 0.000000 0.000000
# 2 -0.002707 0.011503 -0.000489 0.000000 0.000000 0.000000
# 3 -0.003428 -0.000489 0.014333 0.000000 0.000000 0.000000
# 4 0.000000 0.000000 0.000000 0.039039 0.000000 0.000000
# 5 0.000000 0.000000 0.000000 0.000000 -0.066737 0.000000
# 6 0.000000 0.000000 0.000000 0.000000 0.000000 0.022189
#
#
# Mechanical properties :
#
#
# Convention : Reuss Voigt Hill
#
# Bulk Modulus (GPa) = 50.41441 61.31560 55.86500
# Shear Modulus (GPa) = 105.41030 28.00190 66.70610
#
# Velocity S-wave (km/s) = 6.43832 3.31837 5.12170
# Velocity P-wave (km/s) = 8.66571 6.22849 7.54614
#
# Compressibility (1/GPa) = 0.01983560
#
# Stress axis : x y z
#
# Youngs Moduli (GPa) = 137.97503 86.93515 69.77075
#
# Poissons Ratio (x) = 0.23530 0.23916
# Poissons Ratio (y) = 0.37345 0.03414
# Poissons Ratio (z) = 0.47295 0.04254
#
# Static dielectric constant tensor:
#      x y z
#    x 2.038980 0.000000 0.000000 
#    y 0.000000 2.448210 0.000000 
#    z 0.000000 0.000000 1.903610 
# 
# From -- ./inp_files/26658.got.cif
#   From: 2010.05.17/outbox.cif.g08.bks.cpg/sg68_14_cif.got.tgz:26658.got - 2010.06.03 18:57:09.
