data_PCOD9508730
_publ_section_title
;
Structure prediction by ZEFSAII (Michael W. Deem and Ramdas Pophale) SiO2 
 PCOD9508730
Probable space group: C C C A
;
_chemical_formula_sum "Si O2"
_cell_formula_units_Z 80
_cell_length_a 24.362583
_cell_length_b 9.574130
_cell_length_c 16.389266
_cell_angle_alpha 90.000000
_cell_angle_beta 90.000000
_cell_angle_gamma 90.000000
_cell_volume 3822.805092
_symmetry_space_group_name_H-M "C C C A"
_symmetry_group_IT_number 68
_space_group.IT_coordinate_system_code '2'
_symmetry_cell_setting 'orthorhombic'
loop_
_space_group_symop_operation_xyz
x,y,z
-x,1/2-y,z
x,1/2-y,1/2-z
-x,y,1/2-z
-x,-y,-z
x,1/2+y,-z
-x,1/2+y,1/2+z
x,-y,1/2+z
1/2+x,1/2+y,z
1/2-x,-y,z
1/2+x,-y,1/2-z
1/2-x,1/2+y,1/2-z
1/2-x,1/2-y,-z
1/2+x,y,-z
1/2-x,y,1/2+z
1/2+x,1/2-y,1/2+z
loop_
_atom_site_type_symbol
_atom_site_label
_atom_site_fract_x
_atom_site_fract_y
_atom_site_fract_z
Si Si1 0.111511 0.778118 0.077332
Si Si2 0.073903 0.030665 0.427911
Si Si3 0.877019 0.098969 0.244598
Si Si4 0.794038 0.120406 0.807560
Si Si5 0.968518 0.459548 0.665161
O O1 0.104082 0.616676 0.058386
O O2 0.170252 0.820785 0.116012
O O3 0.065551 0.821209 0.144052
O O4 0.092469 0.868310 0.999880
O O5 0.094768 0.090757 0.342436
O O6 0.009690 0.001928 0.407346
O O7 0.850126 0.250000 0.250000
O O8 0.836561 0.969778 0.253645
O O9 0.922889 0.077533 0.315002
O O10 0.775725 0.250000 0.750000
O O11 0.750000 0.000000 0.831589
O O12 0.000000 0.441378 0.750000
#
# Coordination Sequence:
#
# PCOD9508730 Si02
#       5
#    16  16  16  16  16
#     4  11  24  41  62  95 134 173 215 270 332 397
#     4  11  23  40  62  93 138 175 215 264 331 392
#     4  10  22  41  67  94 132 172 227 278 317 386
#     4  11  23  46  73  98 121 167 223 281 335 394
#     4   9  21  37  63  92 131 181 228 269 315 383
#
# _framework density 20.927043000000001
#
# number of rings (size 3 to 8) (size 9 to 14) (size 15 to 20)
#    0.000    1.600    2.000    1.800    5.600    6.000 
#    0.000    2.000    0.000    0.000    0.000    0.000 
#    0.000    0.000    0.000    0.000    0.000    0.000 
#
# Total GULP energy -223299.483170 kJ/mol
# GULP energy per Si atom -5582.487079 kJ/mol
# Density = 2.087941 g / cm^3
# Si number density = 20.927043 Si / 1000 Ang^3
#
#
#
# Elastic Constant Matrix: (Units=GPa)
#
#
# Indices 1 2 3 4 5 6 
#
# 1 93.9444 28.1777 26.1404 0.0000 0.0000 0.0000
# 2 28.1777 144.1044 28.7710 0.0000 0.0000 0.0000
# 3 26.1404 28.7710 73.3506 0.0000 0.0000 0.0000
# 4 0.0000 0.0000 0.0000 27.5217 0.0000 0.0000
# 5 0.0000 0.0000 0.0000 0.0000 13.2358 0.0000
# 6 0.0000 0.0000 0.0000 0.0000 0.0000 16.0354
#
#
#
# Elastic Compliance Matrix: (Units=1/GPa)
#
#
# Indices 1 2 3 4 5 6 
#
# 1 0.012164 -0.001642 -0.003691 0.000000 0.000000 0.000000
# 2 -0.001642 0.007751 -0.002455 0.000000 0.000000 0.000000
# 3 -0.003691 -0.002455 0.015912 0.000000 0.000000 0.000000
# 4 0.000000 0.000000 0.000000 0.036335 0.000000 0.000000
# 5 0.000000 0.000000 0.000000 0.000000 0.075553 0.000000
# 6 0.000000 0.000000 0.000000 0.000000 0.000000 0.062362
#
#
# Mechanical properties :
#
#
# Convention : Reuss Voigt Hill
#
# Bulk Modulus (GPa) = 49.38100 53.06417 51.22259
# Shear Modulus (GPa) = 21.51450 26.57926 24.04688
#
# Velocity S-wave (km/s) = 3.20983 3.56770 3.39349
# Velocity P-wave (km/s) = 6.11436 6.51023 6.31540
#
# Compressibility (1/GPa) = 0.02025070
#
# Stress axis : x y z
#
# Youngs Moduli (GPa) = 82.20959 129.02288 62.84748
#
# Poissons Ratio (x) = 0.21180 0.23198
# Poissons Ratio (y) = 0.13495 0.15429
# Poissons Ratio (z) = 0.30344 0.31676
#
# Static dielectric constant tensor:
#      x y z
#    x 1.811410 0.000000 0.000000 
#    y 0.000000 1.751080 0.000000 
#    z 0.000000 0.000000 1.734260 
# 
# From -- ./inp_files/28302.got.cif
#   From: 2010.05.17/outbox.cif.g08.bks.cpg/sg68_15_cif.got.tgz:28302.got - 2010.06.03 18:57:09.
