data_PCOD9508424
_publ_section_title
;
Structure prediction by ZEFSAII (Michael W. Deem and Ramdas Pophale) SiO2 
 PCOD9508424
Probable space group: C C C A
;
_chemical_formula_sum "Si O2"
_cell_formula_units_Z 64
_cell_length_a 8.324298
_cell_length_b 28.363530
_cell_length_c 12.690916
_cell_angle_alpha 90.000000
_cell_angle_beta 90.000000
_cell_angle_gamma 90.000000
_cell_volume 2996.407455
_symmetry_space_group_name_H-M "C C C A"
_symmetry_group_IT_number 68
_space_group.IT_coordinate_system_code '2'
_symmetry_cell_setting 'orthorhombic'
loop_
_space_group_symop_operation_xyz
x,y,z
-x,1/2-y,z
x,1/2-y,1/2-z
-x,y,1/2-z
-x,-y,-z
x,1/2+y,-z
-x,1/2+y,1/2+z
x,-y,1/2+z
1/2+x,1/2+y,z
1/2-x,-y,z
1/2+x,-y,1/2-z
1/2-x,1/2+y,1/2-z
1/2-x,1/2-y,-z
1/2+x,y,-z
1/2-x,y,1/2+z
1/2+x,1/2-y,1/2+z
loop_
_atom_site_type_symbol
_atom_site_label
_atom_site_fract_x
_atom_site_fract_y
_atom_site_fract_z
Si Si1 0.873535 0.214880 0.056104
Si Si2 0.395510 0.437427 0.080455
Si Si3 0.528227 0.540217 0.368718
Si Si4 0.431605 0.167538 0.362296
O O1 0.756444 0.181571 0.123722
O O2 0.000000 0.250000 0.112368
O O3 0.750000 0.250000 0.000000
O O4 0.968622 0.187926 0.962276
O O5 0.493176 0.483584 0.118472
O O6 0.210805 0.447766 0.103739
O O7 0.447082 0.388761 0.131203
O O8 0.418005 0.434963 0.954721
O O9 0.500000 0.554449 0.250000
O O10 0.500000 0.184723 0.250000
#
# Coordination Sequence:
#
# PCOD9508424 Si02
#       4
#    16  16  16  16
#     4   9  21  41  62  90 121 150 198 252 306 379
#     4  10  22  38  60  92 123 160 215 253 292 364
#     4  10  22  39  60  86 128 172 203 250 305 350
#     4  11  22  40  66  92 123 161 202 256 311 363
#
# _framework density 21.358910000000002
#
# number of rings (size 3 to 8) (size 9 to 14) (size 15 to 20)
#    0.000    2.000    0.000    2.250    0.000   16.500 
#    0.000    8.750    0.000    0.000    0.000    0.000 
#    0.000    0.000    0.000    0.000    0.000    0.000 
#
# Total GULP energy -178708.294748 kJ/mol
# GULP energy per Si atom -5584.634211 kJ/mol
# Density = 2.131030 g / cm^3
# Si number density = 21.358910 Si / 1000 Ang^3
#
#
#
# Elastic Constant Matrix: (Units=GPa)
#
#
# Indices 1 2 3 4 5 6 
#
# 1 92.3627 17.4833 51.1036 0.0000 0.0000 0.0000
# 2 17.4833 79.8737 8.2516 0.0000 0.0000 0.0000
# 3 51.1036 8.2516 154.4832 0.0000 0.0000 0.0000
# 4 0.0000 0.0000 0.0000 17.3840 0.0000 0.0000
# 5 0.0000 0.0000 0.0000 0.0000 9.3617 0.0000
# 6 0.0000 0.0000 0.0000 0.0000 0.0000 23.2947
#
#
#
# Elastic Compliance Matrix: (Units=1/GPa)
#
#
# Indices 1 2 3 4 5 6 
#
# 1 0.013752 -0.002554 -0.004413 0.000000 0.000000 0.000000
# 2 -0.002554 0.013064 0.000147 0.000000 0.000000 0.000000
# 3 -0.004413 0.000147 0.007925 0.000000 0.000000 0.000000
# 4 0.000000 0.000000 0.000000 0.057524 0.000000 0.000000
# 5 0.000000 0.000000 0.000000 0.000000 0.106818 0.000000
# 6 0.000000 0.000000 0.000000 0.000000 0.000000 0.042928
#
#
# Mechanical properties :
#
#
# Convention : Reuss Voigt Hill
#
# Bulk Modulus (GPa) = 47.39110 53.37739 50.38424
# Shear Modulus (GPa) = 19.03429 26.66685 22.85057
#
# Velocity S-wave (km/s) = 2.98848 3.53726 3.27439
# Velocity P-wave (km/s) = 5.84330 6.45971 6.15922
#
# Compressibility (1/GPa) = 0.02110101
#
# Stress axis : x y z
#
# Youngs Moduli (GPa) = 72.71719 76.54833 126.18155
#
# Poissons Ratio (x) = 0.19552 0.55681
# Poissons Ratio (y) = 0.18574 -0.01857
# Poissons Ratio (z) = 0.32088 -0.01127
#
# Static dielectric constant tensor:
#      x y z
#    x 1.803200 0.000000 0.000000 
#    y 0.000000 1.800210 0.000000 
#    z 0.000000 0.000000 2.005950 
# 
# From -- ./inp_files/10736.got.cif
#   From: 2010.05.17/outbox.cif.g08.bks.cpg/sg68_6_cif.got.tgz:10736.got - 2010.06.03 18:57:09.
