data_PCOD9508975
_publ_section_title
;
Structure prediction by ZEFSAII (Michael W. Deem and Ramdas Pophale) SiO2 
 PCOD9508975
Probable space group: C C C A
;
_chemical_formula_sum "Si O2"
_cell_formula_units_Z 64
_cell_length_a 8.951327
_cell_length_b 29.042908
_cell_length_c 10.973716
_cell_angle_alpha 90.000000
_cell_angle_beta 90.000000
_cell_angle_gamma 90.000000
_cell_volume 2852.865113
_symmetry_space_group_name_H-M "C C C A"
_symmetry_group_IT_number 68
_space_group.IT_coordinate_system_code '2'
_symmetry_cell_setting 'orthorhombic'
loop_
_space_group_symop_operation_xyz
x,y,z
-x,1/2-y,z
x,1/2-y,1/2-z
-x,y,1/2-z
-x,-y,-z
x,1/2+y,-z
-x,1/2+y,1/2+z
x,-y,1/2+z
1/2+x,1/2+y,z
1/2-x,-y,z
1/2+x,-y,1/2-z
1/2-x,1/2+y,1/2-z
1/2-x,1/2-y,-z
1/2+x,y,-z
1/2-x,y,1/2+z
1/2+x,1/2-y,1/2+z
loop_
_atom_site_type_symbol
_atom_site_label
_atom_site_fract_x
_atom_site_fract_y
_atom_site_fract_z
Si Si1 0.668629 0.856018 0.453619
Si Si2 0.578080 0.583136 0.473102
Si Si3 0.553462 0.696950 0.621572
Si Si4 0.250000 0.000000 0.360484
Si Si5 0.000000 0.062307 0.750000
O O1 0.568685 0.898528 0.401074
O O2 0.783417 0.881980 0.543823
O O3 0.541196 0.826358 0.516227
O O4 0.774389 0.818911 0.386736
O O5 0.640319 0.533174 0.438224
O O6 0.538741 0.585311 0.618507
O O7 0.500000 0.750000 0.618267
O O8 0.500000 0.678107 0.750000
O O9 0.144264 0.968201 0.280034
#
# Coordination Sequence:
#
# PCOD9508975 Si02
#       5
#    16  16  16   8   8
#     4  10  23  39  66  96 130 164 214 267 320 392
#     4  11  24  44  62  95 132 170 220 272 323 384
#     4  10  22  44  70  96 129 169 210 262 334 396
#     4  12  26  44  64  92 132 176 224 278 324 386
#     4  12  26  42  66  90 127 178 223 266 334 382
#
# _framework density 22.433589999999999
#
# number of rings (size 3 to 8) (size 9 to 14) (size 15 to 20)
#    0.000    1.250    2.500    2.250   10.500    0.000 
#    0.000    3.750    0.000   13.500    0.000    0.000 
#    0.000    0.000    0.000    0.000    0.000    0.000 
#
# Total GULP energy -178284.840494 kJ/mol
# GULP energy per Si atom -5571.401265 kJ/mol
# Density = 2.238253 g / cm^3
# Si number density = 22.433590 Si / 1000 Ang^3
#
#
#
# Elastic Constant Matrix: (Units=GPa)
#
#
# Indices 1 2 3 4 5 6 
#
# 1 160.8918 47.5376 27.2039 0.0000 0.0000 0.0000
# 2 47.5376 102.4446 26.2804 0.0000 0.0000 0.0000
# 3 27.2039 26.2804 56.1036 0.0000 0.0000 0.0000
# 4 0.0000 0.0000 0.0000 6.4575 0.0000 0.0000
# 5 0.0000 0.0000 0.0000 0.0000 19.1572 0.0000
# 6 0.0000 0.0000 0.0000 0.0000 0.0000 51.1761
#
#
#
# Elastic Compliance Matrix: (Units=1/GPa)
#
#
# Indices 1 2 3 4 5 6 
#
# 1 0.007448 -0.002875 -0.002265 0.000000 0.000000 0.000000
# 2 -0.002875 0.012204 -0.004323 0.000000 0.000000 0.000000
# 3 -0.002265 -0.004323 0.020947 0.000000 0.000000 0.000000
# 4 0.000000 0.000000 0.000000 0.154860 0.000000 0.000000
# 5 0.000000 0.000000 0.000000 0.000000 0.052200 0.000000
# 6 0.000000 0.000000 0.000000 0.000000 0.000000 0.019540
#
#
# Mechanical properties :
#
#
# Convention : Reuss Voigt Hill
#
# Bulk Modulus (GPa) = 46.13720 57.94263 52.03992
# Shear Modulus (GPa) = 17.04457 29.91936 23.48196
#
# Velocity S-wave (km/s) = 2.75940 3.65593 3.23883
# Velocity P-wave (km/s) = 5.54645 6.61103 6.10200
#
# Compressibility (1/GPa) = 0.02167448
#
# Stress axis : x y z
#
# Youngs Moduli (GPa) = 134.26917 81.93744 47.73921
#
# Poissons Ratio (x) = 0.23557 0.10811
# Poissons Ratio (y) = 0.38603 0.20637
# Poissons Ratio (z) = 0.30406 0.35420
#
# Static dielectric constant tensor:
#      x y z
#    x 1.882580 0.000000 0.000000 
#    y 0.000000 1.994190 0.000000 
#    z 0.000000 0.000000 1.836850 
# 
# From -- ./inp_files/10788.got.cif
#   From: 2010.05.17/outbox.cif.g08.bks.cpg/sg68_6_cif.got.tgz:10788.got - 2010.06.03 18:57:09.
