data_PCOD9508465
_publ_section_title
;
Structure prediction by ZEFSAII (Michael W. Deem and Ramdas Pophale) SiO2 
 PCOD9508465
Probable space group: C C C A
;
_chemical_formula_sum "Si O2"
_cell_formula_units_Z 64
_cell_length_a 16.558665
_cell_length_b 10.781912
_cell_length_c 16.197050
_cell_angle_alpha 90.000000
_cell_angle_beta 90.000000
_cell_angle_gamma 90.000000
_cell_volume 2891.725240
_symmetry_space_group_name_H-M "C C C A"
_symmetry_group_IT_number 68
_space_group.IT_coordinate_system_code '2'
_symmetry_cell_setting 'orthorhombic'
loop_
_space_group_symop_operation_xyz
x,y,z
-x,1/2-y,z
x,1/2-y,1/2-z
-x,y,1/2-z
-x,-y,-z
x,1/2+y,-z
-x,1/2+y,1/2+z
x,-y,1/2+z
1/2+x,1/2+y,z
1/2-x,-y,z
1/2+x,-y,1/2-z
1/2-x,1/2+y,1/2-z
1/2-x,1/2-y,-z
1/2+x,y,-z
1/2-x,y,1/2+z
1/2+x,1/2-y,1/2+z
loop_
_atom_site_type_symbol
_atom_site_label
_atom_site_fract_x
_atom_site_fract_y
_atom_site_fract_z
Si Si1 0.881453 0.665563 0.884537
Si Si2 0.000000 0.750000 0.028310
Si Si3 0.000041 0.546415 0.340576
Si Si4 0.328022 0.929498 0.129159
Si Si5 0.250000 0.000000 0.966792
O O1 0.851190 0.791950 0.842633
O O2 0.804944 0.586227 0.911473
O O3 0.943579 0.575659 0.837235
O O4 0.930299 0.703206 0.967364
O O5 0.971579 0.860783 0.088034
O O6 0.091481 0.509510 0.362333
O O7 0.000000 0.603936 0.250000
O O8 0.250000 0.000000 0.167539
O O9 0.303708 0.922073 0.032196
#
# Coordination Sequence:
#
# PCOD9508465 Si02
#       5
#    16   8  16  16   8
#     4  12  22  42  75 101 132 184 237 286 339 412
#     4  12  21  44  73 100 132 184 242 280 337 412
#     4  12  26  44  71 103 142 185 229 283 356 422
#     4  10  22  40  66  99 141 171 225 293 341 396
#     4  10  22  38  66 108 132 172 236 296 328 400
#
# _framework density 22.132116
#
# number of rings (size 3 to 8) (size 9 to 14) (size 15 to 20)
#    0.750    0.000    5.000    3.375    0.000    4.000 
#    2.250    0.000    5.500    0.000    0.000    0.000 
#    0.000    0.000    0.000    0.000    0.000    0.000 
#
# Total GULP energy -178865.146717 kJ/mol
# GULP energy per Si atom -5589.535835 kJ/mol
# Density = 2.208174 g / cm^3
# Si number density = 22.132116 Si / 1000 Ang^3
#
#
#
# Elastic Constant Matrix: (Units=GPa)
#
#
# Indices 1 2 3 4 5 6 
#
# 1 100.4255 35.2278 25.5753 0.0000 0.0000 0.0000
# 2 35.2278 112.5372 24.9397 0.0000 0.0000 0.0000
# 3 25.5753 24.9397 75.1043 0.0000 0.0000 0.0000
# 4 0.0000 0.0000 0.0000 -2.2696 0.0000 0.0000
# 5 0.0000 0.0000 0.0000 0.0000 -23.7932 0.0000
# 6 0.0000 0.0000 0.0000 0.0000 0.0000 42.2038
#
#
#
# Elastic Compliance Matrix: (Units=1/GPa)
#
#
# Indices 1 2 3 4 5 6 
#
# 1 0.011784 -0.003022 -0.003009 0.000000 0.000000 0.000000
# 2 -0.003022 0.010367 -0.002413 0.000000 0.000000 0.000000
# 3 -0.003009 -0.002413 0.015141 0.000000 0.000000 0.000000
# 4 0.000000 0.000000 0.000000 -0.440602 0.000000 0.000000
# 5 0.000000 0.000000 0.000000 0.000000 -0.042029 0.000000
# 6 0.000000 0.000000 0.000000 0.000000 0.000000 0.023695
#
#
# Mechanical properties :
#
#
# Convention : Reuss Voigt Hill
#
# Bulk Modulus (GPa) = 49.01362 51.06141 50.03752
# Shear Modulus (GPa) = -12.56424 16.71648 2.07612
#
# Velocity S-wave (km/s) = -2.38522 2.75126 0.96958
# Velocity P-wave (km/s) = 3.82209 5.76315 4.88990
#
# Compressibility (1/GPa) = 0.02040249
#
# Stress axis : x y z
#
# Youngs Moduli (GPa) = 84.86039 96.46233 66.04575
#
# Poissons Ratio (x) = 0.29150 0.19876
# Poissons Ratio (y) = 0.25644 0.15940
# Poissons Ratio (z) = 0.25538 0.23280
#
# Static dielectric constant tensor:
#      x y z
#    x 1.775730 0.000000 0.000000 
#    y 0.000000 1.820180 0.000000 
#    z 0.000000 0.000000 1.790040 
# 
# From -- ./inp_files/23196.got.cif
#   From: 2010.05.17/outbox.cif.g08.bks.cpg/sg68_12_cif.got.tgz:23196.got - 2010.06.03 18:57:09.
