data_PCOD9508888
_publ_section_title
;
Structure prediction by ZEFSAII (Michael W. Deem and Ramdas Pophale) SiO2 
 PCOD9508888
Probable space group: C C C A
;
_chemical_formula_sum "Si O2"
_cell_formula_units_Z 84
_cell_length_a 21.327922
_cell_length_b 14.995876
_cell_length_c 11.413314
_cell_angle_alpha 90.000000
_cell_angle_beta 90.000000
_cell_angle_gamma 90.000000
_cell_volume 3650.330188
_symmetry_space_group_name_H-M "C C C A"
_symmetry_group_IT_number 68
_space_group.IT_coordinate_system_code '2'
_symmetry_cell_setting 'orthorhombic'
loop_
_space_group_symop_operation_xyz
x,y,z
-x,1/2-y,z
x,1/2-y,1/2-z
-x,y,1/2-z
-x,-y,-z
x,1/2+y,-z
-x,1/2+y,1/2+z
x,-y,1/2+z
1/2+x,1/2+y,z
1/2-x,-y,z
1/2+x,-y,1/2-z
1/2-x,1/2+y,1/2-z
1/2-x,1/2-y,-z
1/2+x,y,-z
1/2-x,y,1/2+z
1/2+x,1/2-y,1/2+z
loop_
_atom_site_type_symbol
_atom_site_label
_atom_site_fract_x
_atom_site_fract_y
_atom_site_fract_z
Si Si1 0.500000 0.250000 0.750000
Si Si2 0.111249 0.161961 0.107132
Si Si3 0.152762 0.076014 0.756126
Si Si4 0.287567 0.878684 0.295141
Si Si5 0.930698 0.508111 0.450582
Si Si6 0.634675 0.660265 0.505225
O O1 0.452487 0.311507 0.825203
O O2 0.170341 0.168654 0.194888
O O3 0.117269 0.237246 0.006970
O O4 0.106956 0.064753 0.049331
O O5 0.213438 0.135630 0.787806
O O6 0.090367 0.061851 0.834414
O O7 0.134917 0.116970 0.631724
O O8 0.186908 0.979535 0.770719
O O9 0.303149 0.854654 0.429321
O O10 0.911480 0.405322 0.433390
O O11 0.000000 0.500000 0.500000
#
# Coordination Sequence:
#
# PCOD9508888 Si02
#       6
#     4  16  16  16  16  16
#     4  12  24  44  72 102 140 182 264 290 362 456
#     4  12  24  43  72 104 138 190 246 309 364 449
#     4  10  24  42  71 101 146 190 234 303 370 445
#     4  10  22  43  67 103 140 192 243 295 368 441
#     4  11  26  45  70 105 143 189 245 304 374 439
#     4  11  23  44  68 104 140 187 240 299 371 438
#
# _framework density 23.011617999999999
#
# number of rings (size 3 to 8) (size 9 to 14) (size 15 to 20)
#    0.000    1.143    3.810    1.143    5.333    3.810 
#    3.429    0.000    0.000    3.429    0.000    0.000 
#    0.000    0.000    0.000    0.000    0.000    0.000 
#
# Total GULP energy -234040.052137 kJ/mol
# GULP energy per Si atom -5572.382194 kJ/mol
# Density = 2.295924 g / cm^3
# Si number density = 23.011618 Si / 1000 Ang^3
#
#
#
# Elastic Constant Matrix: (Units=GPa)
#
#
# Indices 1 2 3 4 5 6 
#
# 1 104.0349 22.1225 56.6514 0.0000 0.0000 0.0000
# 2 22.1225 87.7180 7.6461 0.0000 0.0000 0.0000
# 3 56.6514 7.6461 116.5482 0.0000 0.0000 0.0000
# 4 0.0000 0.0000 0.0000 29.3355 0.0000 0.0000
# 5 0.0000 0.0000 0.0000 0.0000 -42.1879 0.0000
# 6 0.0000 0.0000 0.0000 0.0000 0.0000 2.6632
#
#
#
# Elastic Compliance Matrix: (Units=1/GPa)
#
#
# Indices 1 2 3 4 5 6 
#
# 1 0.013772 -0.002906 -0.006503 0.000000 0.000000 0.000000
# 2 -0.002906 0.012079 0.000620 0.000000 0.000000 0.000000
# 3 -0.006503 0.000620 0.011701 0.000000 0.000000 0.000000
# 4 0.000000 0.000000 0.000000 0.034088 0.000000 0.000000
# 5 0.000000 0.000000 0.000000 0.000000 -0.023703 0.000000
# 6 0.000000 0.000000 0.000000 0.000000 0.000000 0.375483
#
#
# Mechanical properties :
#
#
# Convention : Reuss Voigt Hill
#
# Bulk Modulus (GPa) = 50.06921 53.46012 51.76466
# Shear Modulus (GPa) = 11.16932 12.75425 11.96179
#
# Velocity S-wave (km/s) = 2.20552 2.35681 2.28242
# Velocity P-wave (km/s) = 5.31895 5.53970 5.43045
#
# Compressibility (1/GPa) = 0.01997235
#
# Stress axis : x y z
#
# Youngs Moduli (GPa) = 72.61363 82.78778 85.46586
#
# Poissons Ratio (x) = 0.24061 0.55581
# Poissons Ratio (y) = 0.21104 -0.05301
# Poissons Ratio (z) = 0.47223 -0.05135
#
# Static dielectric constant tensor:
#      x y z
#    x 1.910720 0.000000 0.000000 
#    y 0.000000 1.942570 0.000000 
#    z 0.000000 0.000000 1.925790 
# 
# From -- ./inp_files/15376.got.cif
#   From: 2010.05.17/outbox.cif.g08.bks.cpg/sg68_8_cif.got.tgz:15376.got - 2010.06.03 18:57:09.
