data_PCOD9508335
_publ_section_title
;
Structure prediction by ZEFSAII (Michael W. Deem and Ramdas Pophale) SiO2 
 PCOD9508335
Probable space group: C C C A
;
_chemical_formula_sum "Si O2"
_cell_formula_units_Z 88
_cell_length_a 9.642613
_cell_length_b 18.898449
_cell_length_c 27.791312
_cell_angle_alpha 90.000000
_cell_angle_beta 90.000000
_cell_angle_gamma 90.000000
_cell_volume 5064.422736
_symmetry_space_group_name_H-M "C C C A"
_symmetry_group_IT_number 68
_space_group.IT_coordinate_system_code '2'
_symmetry_cell_setting 'orthorhombic'
loop_
_space_group_symop_operation_xyz
x,y,z
-x,1/2-y,z
x,1/2-y,1/2-z
-x,y,1/2-z
-x,-y,-z
x,1/2+y,-z
-x,1/2+y,1/2+z
x,-y,1/2+z
1/2+x,1/2+y,z
1/2-x,-y,z
1/2+x,-y,1/2-z
1/2-x,1/2+y,1/2-z
1/2-x,1/2-y,-z
1/2+x,y,-z
1/2-x,y,1/2+z
1/2+x,1/2-y,1/2+z
loop_
_atom_site_type_symbol
_atom_site_label
_atom_site_fract_x
_atom_site_fract_y
_atom_site_fract_z
Si Si1 0.209407 0.081891 0.480057
Si Si2 0.000000 0.750000 0.370191
Si Si3 0.406380 0.025038 0.885595
Si Si4 0.003099 0.630343 0.806808
Si Si5 0.502559 0.384380 0.438162
Si Si6 0.273093 0.251313 0.806635
O O1 0.118467 0.077150 0.431155
O O2 0.352481 0.120331 0.467442
O O3 0.121724 0.110848 0.523970
O O4 0.250000 0.000000 0.490317
O O5 0.011592 0.681273 0.403284
O O6 0.863367 0.744815 0.337785
O O7 0.481561 0.064776 0.842300
O O8 0.250000 0.000000 0.871404
O O9 0.484053 0.956576 0.906963
O O10 0.877064 0.685631 0.815313
O O11 0.000000 0.611214 0.750000
O O12 0.141238 0.676473 0.816213
O O13 0.239626 0.250000 0.750000
#
# Coordination Sequence:
#
# PCOD9508335 Si02
#       6
#    16   8  16  16  16  16
#     4   9  18  36  56  75 102 138 176 215 267 324
#     4  12  23  36  52  80 112 140 181 228 272 312
#     4   9  17  34  58  80 107 139 173 218 269 317
#     4   9  18  36  60  84 107 139 182 220 261 319
#     4  10  22  35  53  77 105 141 179 221 266 317
#     4   9  19  36  57  78 109 148 178 212 266 327
#
# _framework density 17.376117000000001
#
# number of rings (size 3 to 8) (size 9 to 14) (size 15 to 20)
#    0.000    2.909    0.000    5.727    0.000    3.636 
#    0.000    7.273    0.000    0.000    0.000    0.000 
#    0.000    0.000    0.000    0.000    0.000    0.000 
#
# Total GULP energy -245406.891139 kJ/mol
# GULP energy per Si atom -5577.429344 kJ/mol
# Density = 1.733657 g / cm^3
# Si number density = 17.376117 Si / 1000 Ang^3
#
#
#
# Elastic Constant Matrix: (Units=GPa)
#
#
# Indices 1 2 3 4 5 6 
#
# 1 87.7962 38.2540 81.8330 0.0000 0.0000 0.0000
# 2 38.2540 54.0443 65.9041 0.0000 0.0000 0.0000
# 3 81.8330 65.9041 118.7124 0.0000 0.0000 0.0000
# 4 0.0000 0.0000 0.0000 14.3791 0.0000 0.0000
# 5 0.0000 0.0000 0.0000 0.0000 25.9463 0.0000
# 6 0.0000 0.0000 0.0000 0.0000 0.0000 9.8526
#
#
#
# Elastic Compliance Matrix: (Units=1/GPa)
#
#
# Indices 1 2 3 4 5 6 
#
# 1 0.035167 0.014456 -0.032268 0.000000 0.000000 0.000000
# 2 0.014456 0.063226 -0.045066 0.000000 0.000000 0.000000
# 3 -0.032268 -0.045066 0.055686 0.000000 0.000000 0.000000
# 4 0.000000 0.000000 0.000000 0.069545 0.000000 0.000000
# 5 0.000000 0.000000 0.000000 0.000000 0.038541 0.000000
# 6 0.000000 0.000000 0.000000 0.000000 0.000000 0.101496
#
#
# Mechanical properties :
#
#
# Convention : Reuss Voigt Hill
#
# Bulk Modulus (GPa) = 35.30470 70.28167 52.79318
# Shear Modulus (GPa) = 10.02291 15.00639 12.51465
#
# Velocity S-wave (km/s) = 2.40431 2.94193 2.68661
# Velocity P-wave (km/s) = 5.29808 7.21630 6.33027
#
# Compressibility (1/GPa) = 0.02832484
#
# Stress axis : x y z
#
# Youngs Moduli (GPa) = 28.43565 15.81624 17.95792
#
# Poissons Ratio (x) = -0.22865 0.57946
# Poissons Ratio (y) = -0.41108 0.80929
# Poissons Ratio (z) = 0.91755 0.71277
#
# Static dielectric constant tensor:
#      x y z
#    x 1.589770 0.000000 0.000000 
#    y 0.000000 1.574140 0.000000 
#    z 0.000000 0.000000 1.578170 
# 
# From -- ./inp_files/43116.got.cif
#   From: 2010.05.17/outbox.cif.g08.bks.cpg/sg68_22_cif.got.tgz:43116.got - 2010.06.03 18:57:09.
