data_PCOD9508810
_publ_section_title
;
Structure prediction by ZEFSAII (Michael W. Deem and Ramdas Pophale) SiO2 
 PCOD9508810
Probable space group: C C C A
;
_chemical_formula_sum "Si O2"
_cell_formula_units_Z 68
_cell_length_a 7.732720
_cell_length_b 26.938169
_cell_length_c 15.647387
_cell_angle_alpha 90.000000
_cell_angle_beta 90.000000
_cell_angle_gamma 90.000000
_cell_volume 3259.433928
_symmetry_space_group_name_H-M "C C C A"
_symmetry_group_IT_number 68
_space_group.IT_coordinate_system_code '2'
_symmetry_cell_setting 'orthorhombic'
loop_
_space_group_symop_operation_xyz
x,y,z
-x,1/2-y,z
x,1/2-y,1/2-z
-x,y,1/2-z
-x,-y,-z
x,1/2+y,-z
-x,1/2+y,1/2+z
x,-y,1/2+z
1/2+x,1/2+y,z
1/2-x,-y,z
1/2+x,-y,1/2-z
1/2-x,1/2+y,1/2-z
1/2-x,1/2-y,-z
1/2+x,y,-z
1/2-x,y,1/2+z
1/2+x,1/2-y,1/2+z
loop_
_atom_site_type_symbol
_atom_site_label
_atom_site_fract_x
_atom_site_fract_y
_atom_site_fract_z
Si Si1 0.854725 0.896294 0.812935
Si Si2 0.500000 0.067188 0.250000
Si Si3 0.695198 0.194784 0.393981
Si Si4 0.000000 0.750000 0.250000
Si Si5 0.000000 0.750000 0.973833
Si Si6 0.957018 0.007584 0.100088
O O1 0.686624 0.906439 0.752501
O O2 0.781250 0.858404 0.883119
O O3 0.048363 0.942901 0.640234
O O4 0.000000 0.873959 0.750000
O O5 0.478013 0.034864 0.164272
O O6 0.612696 0.213494 0.307163
O O7 0.839759 0.234673 0.417874
O O8 0.550604 0.203306 0.466371
O O9 0.750000 0.000000 0.107584
O O10 0.000000 0.000000 0.000000
#
# Coordination Sequence:
#
# PCOD9508810 Si02
#       6
#    16   8  16   4   8  16
#     4  12  25  43  70 102 135 182 240 298 342 426
#     4  12  23  48  66  95 148 181 228 300 353 410
#     4  10  23  42  67 100 131 183 224 286 353 427
#     4  10  22  42  68 106 136 172 232 278 368 420
#     4   9  22  46  66  91 150 172 220 297 360 418
#     4  12  24  44  68  98 138 187 234 289 360 412
#
# _framework density 20.862518999999999
#
# number of rings (size 3 to 8) (size 9 to 14) (size 15 to 20)
#    0.000    0.941    3.529    2.824    3.294    3.765 
#    4.235    0.000    0.000    0.000    0.000    0.000 
#    0.000    0.000    0.000    0.000    0.000    0.000 
#
# Total GULP energy -189533.747328 kJ/mol
# GULP energy per Si atom -5574.521980 kJ/mol
# Density = 2.081503 g / cm^3
# Si number density = 20.862519 Si / 1000 Ang^3
#
#
#
# Elastic Constant Matrix: (Units=GPa)
#
#
# Indices 1 2 3 4 5 6 
#
# 1 138.6854 36.5529 34.9776 0.0000 0.0000 0.0000
# 2 36.5529 71.6395 16.9889 0.0000 0.0000 0.0000
# 3 34.9776 16.9889 95.1421 0.0000 0.0000 0.0000
# 4 0.0000 0.0000 0.0000 5.6786 0.0000 0.0000
# 5 0.0000 0.0000 0.0000 0.0000 37.0333 0.0000
# 6 0.0000 0.0000 0.0000 0.0000 0.0000 30.9653
#
#
#
# Elastic Compliance Matrix: (Units=1/GPa)
#
#
# Indices 1 2 3 4 5 6 
#
# 1 0.008894 -0.003929 -0.002568 0.000000 0.000000 0.000000
# 2 -0.003929 0.016312 -0.001468 0.000000 0.000000 0.000000
# 3 -0.002568 -0.001468 0.011717 0.000000 0.000000 0.000000
# 4 0.000000 0.000000 0.000000 0.176100 0.000000 0.000000
# 5 0.000000 0.000000 0.000000 0.000000 0.027003 0.000000
# 6 0.000000 0.000000 0.000000 0.000000 0.000000 0.032294
#
#
# Mechanical properties :
#
#
# Convention : Reuss Voigt Hill
#
# Bulk Modulus (GPa) = 47.63772 53.61177 50.62475
# Shear Modulus (GPa) = 16.93496 29.19861 23.06679
#
# Velocity S-wave (km/s) = 2.85220 3.74514 3.32875
# Velocity P-wave (km/s) = 5.80779 6.66745 6.25241
#
# Compressibility (1/GPa) = 0.02099177
#
# Stress axis : x y z
#
# Youngs Moduli (GPa) = 112.43799 61.30597 85.34677
#
# Poissons Ratio (x) = 0.24086 0.21918
# Poissons Ratio (y) = 0.44176 0.12531
# Poissons Ratio (z) = 0.28875 0.09001
#
# Static dielectric constant tensor:
#      x y z
#    x 1.775060 0.000000 0.000000 
#    y 0.000000 1.769520 0.000000 
#    z 0.000000 0.000000 1.767950 
# 
# From -- ./inp_files/19430.got.cif
#   From: 2010.05.17/outbox.cif.g08.bks.cpg/sg68_10_cif.got.tgz:19430.got - 2010.06.03 18:57:09.
