data_PCOD9508331
_publ_section_title
;
Structure prediction by ZEFSAII (Michael W. Deem and Ramdas Pophale) SiO2 
 PCOD9508331
Probable space group: C C C A
;
_chemical_formula_sum "Si O2"
_cell_formula_units_Z 64
_cell_length_a 6.876916
_cell_length_b 22.295964
_cell_length_c 18.560474
_cell_angle_alpha 90.000000
_cell_angle_beta 90.000000
_cell_angle_gamma 90.000000
_cell_volume 2845.830550
_symmetry_space_group_name_H-M "C C C A"
_symmetry_group_IT_number 68
_space_group.IT_coordinate_system_code '2'
_symmetry_cell_setting 'orthorhombic'
loop_
_space_group_symop_operation_xyz
x,y,z
-x,1/2-y,z
x,1/2-y,1/2-z
-x,y,1/2-z
-x,-y,-z
x,1/2+y,-z
-x,1/2+y,1/2+z
x,-y,1/2+z
1/2+x,1/2+y,z
1/2-x,-y,z
1/2+x,-y,1/2-z
1/2-x,1/2+y,1/2-z
1/2-x,1/2-y,-z
1/2+x,y,-z
1/2-x,y,1/2+z
1/2+x,1/2-y,1/2+z
loop_
_atom_site_type_symbol
_atom_site_label
_atom_site_fract_x
_atom_site_fract_y
_atom_site_fract_z
Si Si1 0.250000 0.500000 0.521099
Si Si2 0.440203 0.681907 0.166355
Si Si3 0.750000 0.500000 0.740201
Si Si4 0.170093 0.424685 0.389118
Si Si5 0.127646 0.908111 0.361327
O O1 0.121767 0.465622 0.458164
O O2 0.243590 0.444155 0.576938
O O3 0.500000 0.750000 0.150682
O O4 0.500000 0.671617 0.250000
O O5 0.564748 0.637990 0.116337
O O6 0.220905 0.657354 0.153326
O O7 0.881669 0.536318 0.681847
O O8 0.832195 0.447504 0.790252
O O9 0.401365 0.410703 0.383026
#
# Coordination Sequence:
#
# PCOD9508331 Si02
#       5
#     8  16   8  16  16
#     4  10  26  38  68 104 136 160 214 272 338 384
#     4  11  26  45  66  94 130 174 225 268 309 383
#     4  10  22  34  62 102 122 158 210 256 330 392
#     4  11  24  40  65  98 131 170 208 269 329 389
#     4  11  24  40  65  98 131 170 208 269 329 389
#
# _framework density 22.489042000000001
#
# number of rings (size 3 to 8) (size 9 to 14) (size 15 to 20)
#    0.000    1.250    2.500    1.500   21.000    1.000 
#    0.000    3.750    0.000    0.000    0.000    0.000 
#    0.000    0.000    0.000    0.000    0.000    0.000 
#
# Total GULP energy -178436.017239 kJ/mol
# GULP energy per Si atom -5576.125539 kJ/mol
# Density = 2.243786 g / cm^3
# Si number density = 22.489042 Si / 1000 Ang^3
#
#
#
# Elastic Constant Matrix: (Units=GPa)
#
#
# Indices 1 2 3 4 5 6 
#
# 1 118.1326 47.0775 21.1786 0.0000 0.0000 0.0000
# 2 47.0775 182.5217 46.2092 0.0000 0.0000 0.0000
# 3 21.1786 46.2092 165.2431 0.0000 0.0000 0.0000
# 4 0.0000 0.0000 0.0000 29.0408 0.0000 0.0000
# 5 0.0000 0.0000 0.0000 0.0000 80.5253 0.0000
# 6 0.0000 0.0000 0.0000 0.0000 0.0000 38.6550
#
#
#
# Elastic Compliance Matrix: (Units=1/GPa)
#
#
# Indices 1 2 3 4 5 6 
#
# 1 0.009485 -0.002302 -0.000572 0.000000 0.000000 0.000000
# 2 -0.002302 0.006455 -0.001510 0.000000 0.000000 0.000000
# 3 -0.000572 -0.001510 0.006547 0.000000 0.000000 0.000000
# 4 0.000000 0.000000 0.000000 0.034434 0.000000 0.000000
# 5 0.000000 0.000000 0.000000 0.000000 0.012418 0.000000
# 6 0.000000 0.000000 0.000000 0.000000 0.000000 0.025870
#
#
# Mechanical properties :
#
#
# Convention : Reuss Voigt Hill
#
# Bulk Modulus (GPa) = 72.88861 77.20311 75.04586
# Shear Modulus (GPa) = 46.06173 53.07302 49.56737
#
# Velocity S-wave (km/s) = 4.53060 4.86320 4.69984
# Velocity P-wave (km/s) = 7.73625 8.12022 7.93056
#
# Compressibility (1/GPa) = 0.01371956
#
# Stress axis : x y z
#
# Youngs Moduli (GPa) = 105.43148 154.92478 152.73526
#
# Poissons Ratio (x) = 0.35657 0.08737
# Poissons Ratio (y) = 0.24266 0.23064
# Poissons Ratio (z) = 0.06031 0.23394
#
# Static dielectric constant tensor:
#      x y z
#    x 2.254650 0.000000 0.000000 
#    y 0.000000 1.781540 0.000000 
#    z 0.000000 0.000000 1.843550 
# 
# From -- ./inp_files/27933.got.cif
#   From: 2010.05.17/outbox.cif.g08.bks.cpg/sg68_14_cif.got.tgz:27933.got - 2010.06.03 18:57:09.
