data_PCOD9508981
_publ_section_title
;
Structure prediction by ZEFSAII (Michael W. Deem and Ramdas Pophale) SiO2 
 PCOD9508981
Probable space group: C C C A
;
_chemical_formula_sum "Si O2"
_cell_formula_units_Z 80
_cell_length_a 11.858877
_cell_length_b 25.218468
_cell_length_c 14.051378
_cell_angle_alpha 90.000000
_cell_angle_beta 90.000000
_cell_angle_gamma 90.000000
_cell_volume 4202.243186
_symmetry_space_group_name_H-M "C C C A"
_symmetry_group_IT_number 68
_space_group.IT_coordinate_system_code '2'
_symmetry_cell_setting 'orthorhombic'
loop_
_space_group_symop_operation_xyz
x,y,z
-x,1/2-y,z
x,1/2-y,1/2-z
-x,y,1/2-z
-x,-y,-z
x,1/2+y,-z
-x,1/2+y,1/2+z
x,-y,1/2+z
1/2+x,1/2+y,z
1/2-x,-y,z
1/2+x,-y,1/2-z
1/2-x,1/2+y,1/2-z
1/2-x,1/2-y,-z
1/2+x,y,-z
1/2-x,y,1/2+z
1/2+x,1/2-y,1/2+z
loop_
_atom_site_type_symbol
_atom_site_label
_atom_site_fract_x
_atom_site_fract_y
_atom_site_fract_z
Si Si1 0.978796 0.968391 0.597512
Si Si2 0.385090 0.934218 0.784609
Si Si3 0.793057 0.405108 0.139419
Si Si4 0.133364 0.309134 0.226708
Si Si5 0.285595 0.881117 0.428682
O O1 0.886684 0.922988 0.582590
O O2 0.094338 0.940225 0.629368
O O3 0.924199 0.010237 0.670371
O O4 0.000000 0.000000 0.500000
O O5 0.500000 0.906649 0.750000
O O6 0.303632 0.938149 0.693706
O O7 0.318860 0.902393 0.865761
O O8 0.816211 0.354483 0.205722
O O9 0.752478 0.383680 0.037555
O O10 0.173968 0.250000 0.250000
O O11 0.167551 0.327527 0.120200
O O12 0.000000 0.310274 0.250000
#
# Coordination Sequence:
#
# PCOD9508981 Si02
#       5
#    16  16  16  16  16
#     4  12  24  40  60  92 134 179 218 252 317 393
#     4  11  26  37  61  92 133 174 217 251 317 386
#     4  11  25  43  65  93 132 173 216 273 321 389
#     4  10  22  44  71  94 122 165 222 280 332 384
#     4  11  24  43  61  96 131 168 219 270 322 394
#
# _framework density 19.037451000000001
#
# number of rings (size 3 to 8) (size 9 to 14) (size 15 to 20)
#    0.000    1.000    4.000    1.800    8.400    2.400 
#    0.000    0.000    0.000    9.600    0.000    0.000 
#    0.000    0.000    0.000    0.000    0.000    0.000 
#
# Total GULP energy -223574.784648 kJ/mol
# GULP energy per Si atom -5589.369616 kJ/mol
# Density = 1.899412 g / cm^3
# Si number density = 19.037451 Si / 1000 Ang^3
#
#
#
# Elastic Constant Matrix: (Units=GPa)
#
#
# Indices 1 2 3 4 5 6 
#
# 1 121.1210 39.6585 44.5340 0.0000 0.0000 0.0000
# 2 39.6585 121.1222 51.6170 0.0000 0.0000 0.0000
# 3 44.5340 51.6170 135.2563 0.0000 0.0000 0.0000
# 4 0.0000 0.0000 0.0000 26.8743 0.0000 0.0000
# 5 0.0000 0.0000 0.0000 0.0000 32.9762 0.0000
# 6 0.0000 0.0000 0.0000 0.0000 0.0000 15.3268
#
#
#
# Elastic Compliance Matrix: (Units=1/GPa)
#
#
# Indices 1 2 3 4 5 6 
#
# 1 0.009863 -0.002204 -0.002406 0.000000 0.000000 0.000000
# 2 -0.002204 0.010352 -0.003225 0.000000 0.000000 0.000000
# 3 -0.002406 -0.003225 0.009416 0.000000 0.000000 0.000000
# 4 0.000000 0.000000 0.000000 0.037210 0.000000 0.000000
# 5 0.000000 0.000000 0.000000 0.000000 0.030325 0.000000
# 6 0.000000 0.000000 0.000000 0.000000 0.000000 0.065245
#
#
# Mechanical properties :
#
#
# Convention : Reuss Voigt Hill
#
# Bulk Modulus (GPa) = 71.62877 72.12426 71.87651
# Shear Modulus (GPa) = 27.36201 31.14813 29.25507
#
# Velocity S-wave (km/s) = 3.79525 4.04932 3.92434
# Velocity P-wave (km/s) = 7.54401 7.73501 7.64011
#
# Compressibility (1/GPa) = 0.01396087
#
# Stress axis : x y z
#
# Youngs Moduli (GPa) = 101.39378 96.59929 106.19794
#
# Poissons Ratio (x) = 0.21288 0.25554
# Poissons Ratio (y) = 0.22345 0.34249
# Poissons Ratio (z) = 0.24398 0.31153
#
# Static dielectric constant tensor:
#      x y z
#    x 1.686760 0.000000 0.000000 
#    y 0.000000 1.646970 0.000000 
#    z 0.000000 0.000000 1.691810 
# 
# From -- ./inp_files/21066.got.cif
#   From: 2010.05.17/outbox.cif.g08.bks.cpg/sg68_11_cif.got.tgz:21066.got - 2010.06.03 18:57:09.
