data_PCOD9508773
_publ_section_title
;
Structure prediction by ZEFSAII (Michael W. Deem and Ramdas Pophale) SiO2 
 PCOD9508773
Probable space group: C C C A
;
_chemical_formula_sum "Si O2"
_cell_formula_units_Z 84
_cell_length_a 22.765888
_cell_length_b 12.288114
_cell_length_c 14.259269
_cell_angle_alpha 90.000000
_cell_angle_beta 90.000000
_cell_angle_gamma 90.000000
_cell_volume 3989.028037
_symmetry_space_group_name_H-M "C C C A"
_symmetry_group_IT_number 68
_space_group.IT_coordinate_system_code '2'
_symmetry_cell_setting 'orthorhombic'
loop_
_space_group_symop_operation_xyz
x,y,z
-x,1/2-y,z
x,1/2-y,1/2-z
-x,y,1/2-z
-x,-y,-z
x,1/2+y,-z
-x,1/2+y,1/2+z
x,-y,1/2+z
1/2+x,1/2+y,z
1/2-x,-y,z
1/2+x,-y,1/2-z
1/2-x,1/2+y,1/2-z
1/2-x,1/2-y,-z
1/2+x,y,-z
1/2-x,y,1/2+z
1/2+x,1/2-y,1/2+z
loop_
_atom_site_type_symbol
_atom_site_label
_atom_site_fract_x
_atom_site_fract_y
_atom_site_fract_z
Si Si1 0.250000 0.000000 0.498574
Si Si2 0.899251 0.872552 0.249973
Si Si3 0.000000 0.750000 0.750000
Si Si4 0.362046 0.391148 0.051819
Si Si5 0.906871 0.095666 0.340677
Si Si6 0.709342 0.303939 0.127703
Si Si7 0.811904 0.250000 0.250000
O O1 0.192113 0.973704 0.441434
O O2 0.264566 0.899135 0.565470
O O3 0.924979 0.750000 0.250000
O O4 0.901771 0.909724 0.142347
O O5 0.832136 0.854428 0.289957
O O6 0.921525 0.971978 0.312075
O O7 0.960146 0.674035 0.685017
O O8 0.333850 0.272117 0.068265
O O9 0.390005 0.400357 0.949861
O O10 0.852705 0.148004 0.279724
O O11 0.765299 0.236371 0.165344
#
# Coordination Sequence:
#
# PCOD9508773 Si02
#       7
#     8  16   4  16  16  16   8
#     4  12  22  30  54  90 138 182 218 248 308 404
#     4  10  22  42  63  96 140 173 210 266 322 395
#     4  10  28  52  74  88 130 152 232 292 328 378
#     4  11  23  33  64  94 135 174 212 257 320 395
#     4  11  24  45  67  95 124 176 223 276 327 376
#     4  11  20  36  53  98 142 176 209 252 316 402
#     4  11  20  35  62  92 146 177 212 257 320 388
#
# _framework density 21.057762
#
# number of rings (size 3 to 8) (size 9 to 14) (size 15 to 20)
#    0.000    1.143    6.667    0.571    2.667    2.286 
#    0.000    1.429    0.000    0.000    0.000    0.000 
#    0.000    0.000    0.000    0.000    0.000    0.000 
#
# Total GULP energy -234414.115225 kJ/mol
# GULP energy per Si atom -5581.288458 kJ/mol
# Density = 2.100983 g / cm^3
# Si number density = 21.057762 Si / 1000 Ang^3
#
#
#
# Elastic Constant Matrix: (Units=GPa)
#
#
# Indices 1 2 3 4 5 6 
#
# 1 58.7801 32.0421 19.0791 0.0000 0.0000 0.0000
# 2 32.0421 102.9257 64.2438 0.0000 0.0000 0.0000
# 3 19.0791 64.2438 127.0393 0.0000 0.0000 0.0000
# 4 0.0000 0.0000 0.0000 22.9312 0.0000 0.0000
# 5 0.0000 0.0000 0.0000 0.0000 -5.9784 0.0000
# 6 0.0000 0.0000 0.0000 0.0000 0.0000 11.7755
#
#
#
# Elastic Compliance Matrix: (Units=1/GPa)
#
#
# Indices 1 2 3 4 5 6 
#
# 1 0.020494 -0.006515 0.000217 0.000000 0.000000 0.000000
# 2 -0.006515 0.016268 -0.007248 0.000000 0.000000 0.000000
# 3 0.000217 -0.007248 0.011505 0.000000 0.000000 0.000000
# 4 0.000000 0.000000 0.000000 0.043609 0.000000 0.000000
# 5 0.000000 0.000000 0.000000 0.000000 -0.167270 0.000000
# 6 0.000000 0.000000 0.000000 0.000000 0.000000 0.084922
#
#
# Mechanical properties :
#
#
# Convention : Reuss Voigt Hill
#
# Bulk Modulus (GPa) = 47.22985 57.71944 52.47465
# Shear Modulus (GPa) = 114.47065 17.30433 65.88749
#
# Velocity S-wave (km/s) = 7.38094 2.86974 5.59972
# Velocity P-wave (km/s) = 9.75270 6.20081 8.17206
#
# Compressibility (1/GPa) = 0.02117305
#
# Stress axis : x y z
#
# Youngs Moduli (GPa) = 48.79523 61.46898 86.92250
#
# Poissons Ratio (x) = 0.40050 -0.01887
# Poissons Ratio (y) = 0.31792 0.63005
# Poissons Ratio (z) = -0.01059 0.44555
#
# Static dielectric constant tensor:
#      x y z
#    x 1.756610 0.000000 0.000000 
#    y 0.000000 1.782420 0.000000 
#    z 0.000000 0.000000 1.788290 
# 
# From -- ./inp_files/25304.got.cif
#   From: 2010.05.17/outbox.cif.g08.bks.cpg/sg68_13_cif.got.tgz:25304.got - 2010.06.03 18:57:09.
