data_PCOD9508179
_publ_section_title
;
Structure prediction by ZEFSAII (Michael W. Deem and Ramdas Pophale) SiO2 
 PCOD9508179
Probable space group: C C C A
;
_chemical_formula_sum "Si O2"
_cell_formula_units_Z 44
_cell_length_a 4.975138
_cell_length_b 30.071801
_cell_length_c 12.382703
_cell_angle_alpha 90.000000
_cell_angle_beta 90.000000
_cell_angle_gamma 90.000000
_cell_volume 1852.593035
_symmetry_space_group_name_H-M "C C C A"
_symmetry_group_IT_number 68
_space_group.IT_coordinate_system_code '2'
_symmetry_cell_setting 'orthorhombic'
loop_
_space_group_symop_operation_xyz
x,y,z
-x,1/2-y,z
x,1/2-y,1/2-z
-x,y,1/2-z
-x,-y,-z
x,1/2+y,-z
-x,1/2+y,1/2+z
x,-y,1/2+z
1/2+x,1/2+y,z
1/2-x,-y,z
1/2+x,-y,1/2-z
1/2-x,1/2+y,1/2-z
1/2-x,1/2-y,-z
1/2+x,y,-z
1/2-x,y,1/2+z
1/2+x,1/2-y,1/2+z
loop_
_atom_site_type_symbol
_atom_site_label
_atom_site_fract_x
_atom_site_fract_y
_atom_site_fract_z
Si Si1 0.250000 0.000000 0.179343
Si Si2 0.239554 0.184765 0.078278
Si Si3 0.917499 0.590324 0.566154
Si Si4 0.000000 0.250000 0.250000
O O1 0.500000 0.015372 0.250000
O O2 0.349720 0.957225 0.114688
O O3 0.182908 0.135018 0.124302
O O4 0.178778 0.219626 0.171208
O O5 0.526116 0.189577 0.020621
O O6 0.733078 0.592554 0.458070
#
# Coordination Sequence:
#
# PCOD9508179 Si02
#       4
#     8  16  16   4
#     4  12  24  36  62  98 128 156 214 266 308 386
#     4  10  24  43  65  96 131 167 219 265 319 392
#     4  10  21  42  63  86 125 172 206 255 319 381
#     4  12  24  42  72  96 132 174 212 274 336 370
#
# _framework density 23.750495999999998
#
# number of rings (size 3 to 8) (size 9 to 14) (size 15 to 20)
#    0.000    1.455    0.000    4.364    2.545    2.909 
#    0.000    0.000    0.000    0.000    0.000    0.000 
#    0.000    0.000    0.000    0.000    0.000    0.000 
#
# Total GULP energy -123120.101907 kJ/mol
# GULP energy per Si atom -5596.368269 kJ/mol
# Density = 2.369644 g / cm^3
# Si number density = 23.750496 Si / 1000 Ang^3
#
#
#
# Elastic Constant Matrix: (Units=GPa)
#
#
# Indices 1 2 3 4 5 6 
#
# 1 94.1539 -4.4285 8.5197 0.0000 0.0000 0.0000
# 2 -4.4285 180.3416 51.6138 0.0000 0.0000 0.0000
# 3 8.5197 51.6138 44.6652 0.0000 0.0000 0.0000
# 4 0.0000 0.0000 0.0000 -38.2664 0.0000 0.0000
# 5 0.0000 0.0000 0.0000 0.0000 18.4590 0.0000
# 6 0.0000 0.0000 0.0000 0.0000 0.0000 28.3862
#
#
#
# Elastic Compliance Matrix: (Units=1/GPa)
#
#
# Indices 1 2 3 4 5 6 
#
# 1 0.011008 0.001302 -0.003604 0.000000 0.000000 0.000000
# 2 0.001302 0.008439 -0.010000 0.000000 0.000000 0.000000
# 3 -0.003604 -0.010000 0.034632 0.000000 0.000000 0.000000
# 4 0.000000 0.000000 0.000000 -0.026133 0.000000 0.000000
# 5 0.000000 0.000000 0.000000 0.000000 0.054174 0.000000
# 6 0.000000 0.000000 0.000000 0.000000 0.000000 0.035228
#
#
# Mechanical properties :
#
#
# Convention : Reuss Voigt Hill
#
# Bulk Modulus (GPa) = 33.92767 47.84122 40.88444
# Shear Modulus (GPa) = 32.94247 19.27946 26.11097
#
# Velocity S-wave (km/s) = 3.72832 2.85221 3.31930
# Velocity P-wave (km/s) = 5.73148 5.57080 5.65171
#
# Compressibility (1/GPa) = 0.02947447
#
# Stress axis : x y z
#
# Youngs Moduli (GPa) = 90.84081 118.49626 28.87477
#
# Poissons Ratio (x) = -0.15426 0.10407
# Poissons Ratio (y) = -0.11826 0.28876
# Poissons Ratio (z) = 0.32740 1.18500
#
# Static dielectric constant tensor:
#      x y z
#    x 1.851730 0.000000 0.000000 
#    y 0.000000 1.972680 0.000000 
#    z 0.000000 0.000000 1.887340 
# 
# From -- ./inp_files/18175.got.cif
#   From: 2010.05.17/outbox.cif.g08.bks.cpg/sg68_10_cif.got.tgz:18175.got - 2010.06.03 18:57:09.
