data_PCOD9508064
_publ_section_title
;
Structure prediction by ZEFSAII (Michael W. Deem and Ramdas Pophale) SiO2 
 PCOD9508064
Probable space group: C C C A
;
_chemical_formula_sum "Si O2"
_cell_formula_units_Z 104
_cell_length_a 16.837134
_cell_length_b 11.079407
_cell_length_c 26.758148
_cell_angle_alpha 90.000000
_cell_angle_beta 90.000000
_cell_angle_gamma 90.000000
_cell_volume 4991.611035
_symmetry_space_group_name_H-M "C C C A"
_symmetry_group_IT_number 68
_space_group.IT_coordinate_system_code '2'
_symmetry_cell_setting 'orthorhombic'
loop_
_space_group_symop_operation_xyz
x,y,z
-x,1/2-y,z
x,1/2-y,1/2-z
-x,y,1/2-z
-x,-y,-z
x,1/2+y,-z
-x,1/2+y,1/2+z
x,-y,1/2+z
1/2+x,1/2+y,z
1/2-x,-y,z
1/2+x,-y,1/2-z
1/2-x,1/2+y,1/2-z
1/2-x,1/2-y,-z
1/2+x,y,-z
1/2-x,y,1/2+z
1/2+x,1/2-y,1/2+z
loop_
_atom_site_type_symbol
_atom_site_label
_atom_site_fract_x
_atom_site_fract_y
_atom_site_fract_z
Si Si1 0.250000 0.500000 0.984820
Si Si2 0.000000 0.750000 0.466148
Si Si3 0.069628 0.981361 0.286003
Si Si4 0.164266 0.895206 0.923795
Si Si5 0.514481 0.959137 0.603892
Si Si6 0.714217 0.125606 0.683408
Si Si7 0.899377 0.857963 0.944404
Si Si8 0.829536 0.250000 0.750000
O O1 0.208010 0.407977 0.023594
O O2 0.181231 0.567396 0.954344
O O3 0.027193 0.647139 0.427621
O O4 0.941813 0.676890 0.503126
O O5 0.032005 0.933981 0.338246
O O6 0.115664 0.868563 0.258874
O O7 0.000000 0.020751 0.250000
O O8 0.123645 0.098017 0.300828
O O9 0.220983 0.882626 0.876183
O O10 0.117686 0.771344 0.921873
O O11 0.101562 0.003763 0.917442
O O12 0.457575 0.070642 0.592004
O O13 0.765688 0.235887 0.704428
O O14 0.750000 0.000000 0.703887
#
# Coordination Sequence:
#
# PCOD9508064 Si02
#       8
#     8   8  16  16  16  16  16   8
#     4  12  24  40  60 100 140 174 232 276 340 402
#     4  12  22  40  69  88 131 184 222 278 324 400
#     4  10  23  42  67  96 131 166 220 282 329 405
#     4  11  21  41  66  93 132 178 221 273 330 410
#     4  11  24  42  68  97 129 179 230 271 346 404
#     4   9  20  40  64  92 123 168 210 266 338 400
#     4  12  24  42  64  96 137 177 224 283 334 401
#     4  10  21  40  67  94 122 162 216 266 335 392
#
# _framework density 20.834955999999998
#
# number of rings (size 3 to 8) (size 9 to 14) (size 15 to 20)
#    0.000    1.231    3.846    2.077    2.154    1.231 
#    2.769    1.923    0.000    0.000    0.000    0.000 
#    0.000    0.000    0.000    0.000    0.000    0.000 
#
# Total GULP energy -289586.635936 kJ/mol
# GULP energy per Si atom -5568.973768 kJ/mol
# Density = 2.078754 g / cm^3
# Si number density = 20.834956 Si / 1000 Ang^3
#
#
#
# Elastic Constant Matrix: (Units=GPa)
#
#
# Indices 1 2 3 4 5 6 
#
# 1 36.9813 -12.7902 14.0347 0.0000 0.0000 0.0000
# 2 -12.7902 54.9963 10.6923 0.0000 0.0000 0.0000
# 3 14.0347 10.6923 67.9100 0.0000 0.0000 0.0000
# 4 0.0000 0.0000 0.0000 25.4382 0.0000 0.0000
# 5 0.0000 0.0000 0.0000 0.0000 42.5755 0.0000
# 6 0.0000 0.0000 0.0000 0.0000 0.0000 32.4376
#
#
#
# Elastic Compliance Matrix: (Units=1/GPa)
#
#
# Indices 1 2 3 4 5 6 
#
# 1 0.033489 0.009422 -0.008405 0.000000 0.000000 0.000000
# 2 0.009422 0.021408 -0.005318 0.000000 0.000000 0.000000
# 3 -0.008405 -0.005318 0.017300 0.000000 0.000000 0.000000
# 4 0.000000 0.000000 0.000000 0.039311 0.000000 0.000000
# 5 0.000000 0.000000 0.000000 0.000000 0.023488 0.000000
# 6 0.000000 0.000000 0.000000 0.000000 0.000000 0.030828
#
#
# Mechanical properties :
#
#
# Convention : Reuss Voigt Hill
#
# Bulk Modulus (GPa) = 15.72409 20.41791 18.07100
# Shear Modulus (GPa) = 25.55932 29.95365 27.75649
#
# Velocity S-wave (km/s) = 3.50630 3.79577 3.65390
# Velocity P-wave (km/s) = 4.89444 5.38809 5.14719
#
# Compressibility (1/GPa) = 0.06359670
#
# Stress axis : x y z
#
# Youngs Moduli (GPa) = 29.86041 46.71092 57.80474
#
# Poissons Ratio (x) = -0.44013 0.48583
# Poissons Ratio (y) = -0.28136 0.30740
# Poissons Ratio (z) = 0.25097 0.24841
#
# Static dielectric constant tensor:
#      x y z
#    x 1.840070 0.000000 0.000000 
#    y 0.000000 1.783140 0.000000 
#    z 0.000000 0.000000 1.756500 
# 
# From -- ./inp_files/51475.got.cif
#   From: 2010.05.17/outbox.cif.g08.bks.cpg/sg68_26_cif.got.tgz:51475.got - 2010.06.03 18:57:09.
