data_PCOD9508319
_publ_section_title
;
Structure prediction by ZEFSAII (Michael W. Deem and Ramdas Pophale) SiO2 
 PCOD9508319
Probable space group: C C C A
;
_chemical_formula_sum "Si O2"
_cell_formula_units_Z 64
_cell_length_a 30.624265
_cell_length_b 5.296142
_cell_length_c 19.778353
_cell_angle_alpha 90.000000
_cell_angle_beta 90.000000
_cell_angle_gamma 90.000000
_cell_volume 3207.860094
_symmetry_space_group_name_H-M "C C C A"
_symmetry_group_IT_number 68
_space_group.IT_coordinate_system_code '2'
_symmetry_cell_setting 'orthorhombic'
loop_
_space_group_symop_operation_xyz
x,y,z
-x,1/2-y,z
x,1/2-y,1/2-z
-x,y,1/2-z
-x,-y,-z
x,1/2+y,-z
-x,1/2+y,1/2+z
x,-y,1/2+z
1/2+x,1/2+y,z
1/2-x,-y,z
1/2+x,-y,1/2-z
1/2-x,1/2+y,1/2-z
1/2-x,1/2-y,-z
1/2+x,y,-z
1/2-x,y,1/2+z
1/2+x,1/2-y,1/2+z
loop_
_atom_site_type_symbol
_atom_site_label
_atom_site_fract_x
_atom_site_fract_y
_atom_site_fract_z
Si Si1 0.084056 0.250000 0.750000
Si Si2 0.500000 0.750000 0.953514
Si Si3 0.373083 0.141918 0.672875
Si Si4 0.224019 0.248463 0.167433
Si Si5 0.956883 0.922572 0.647467
O O1 0.115216 0.351361 0.809941
O O2 0.052377 0.464017 0.721359
O O3 0.537694 0.664682 0.901282
O O4 0.500000 0.500000 0.000000
O O5 0.372643 0.250000 0.750000
O O6 0.326040 0.213683 0.644471
O O7 0.413637 0.260127 0.632818
O O8 0.223108 0.250000 0.250000
O O9 0.250000 0.500000 0.146637
O O10 0.250000 0.000000 0.146383
O O11 0.000000 0.750000 0.643519
#
# Coordination Sequence:
#
# PCOD9508319 Si02
#       5
#     8   8  16  16  16
#     4  10  22  33  58  86 126 156 206 230 297 334
#     4  12  26  45  62  81 110 150 200 244 296 348
#     4   9  20  32  50  79 115 152 196 234 275 342
#     4   9  18  29  47  70 106 152 190 224 272 328
#     4  11  23  39  57  85 117 158 191 243 284 347
#
# _framework density 19.950993
#
# number of rings (size 3 to 8) (size 9 to 14) (size 15 to 20)
#    0.000    2.000    1.250    1.500   12.250   12.000 
#    0.000    0.000    0.000    0.000    0.000    0.000 
#    0.000    6.000    0.000    0.000    0.000    0.000 
#
# Total GULP energy -178155.788391 kJ/mol
# GULP energy per Si atom -5567.368387 kJ/mol
# Density = 1.990558 g / cm^3
# Si number density = 19.950993 Si / 1000 Ang^3
#
#
#
# Elastic Constant Matrix: (Units=GPa)
#
#
# Indices 1 2 3 4 5 6 
#
# 1 207.0109 89.5584 22.9073 0.0000 0.0000 0.0000
# 2 89.5584 149.9193 18.2105 0.0000 0.0000 0.0000
# 3 22.9073 18.2105 18.7783 0.0000 0.0000 0.0000
# 4 0.0000 0.0000 0.0000 20.5294 0.0000 0.0000
# 5 0.0000 0.0000 0.0000 0.0000 -0.2592 0.0000
# 6 0.0000 0.0000 0.0000 0.0000 0.0000 24.4348
#
#
#
# Elastic Compliance Matrix: (Units=1/GPa)
#
#
# Indices 1 2 3 4 5 6 
#
# 1 0.006907 -0.003517 -0.005015 0.000000 0.000000 0.000000
# 2 -0.003517 0.009352 -0.004779 0.000000 0.000000 0.000000
# 3 -0.005015 -0.004779 0.064005 0.000000 0.000000 0.000000
# 4 0.000000 0.000000 0.000000 0.048711 0.000000 0.000000
# 5 0.000000 0.000000 0.000000 0.000000 -3.857614 0.000000
# 6 0.000000 0.000000 0.000000 0.000000 0.000000 0.040925
#
#
# Mechanical properties :
#
#
# Convention : Reuss Voigt Hill
#
# Bulk Modulus (GPa) = 18.64198 70.78452 44.71325
# Shear Modulus (GPa) = -1.37242 25.27650 11.95204
#
# Velocity S-wave (km/s) = -0.83029 3.56326 2.45025
# Velocity P-wave (km/s) = 2.90603 7.24467 5.51952
#
# Compressibility (1/GPa) = 0.05364236
#
# Stress axis : x y z
#
# Youngs Moduli (GPa) = 144.77675 106.93273 15.62371
#
# Poissons Ratio (x) = 0.37608 0.07836
# Poissons Ratio (y) = 0.50918 0.07466
# Poissons Ratio (z) = 0.72610 0.51099
#
# Static dielectric constant tensor:
#      x y z
#    x 1.745970 0.000000 0.000000 
#    y 0.000000 1.328690 0.000000 
#    z 0.000000 0.000000 1.741140 
# 
# From -- ./inp_files/41076.got.cif
#   From: 2010.05.17/outbox.cif.g08.bks.cpg/sg68_21_cif.got.tgz:41076.got - 2010.06.03 18:57:09.
