data_PCOD9508664
_publ_section_title
;
Structure prediction by ZEFSAII (Michael W. Deem and Ramdas Pophale) SiO2 
 PCOD9508664
Probable space group: C C C A
;
_chemical_formula_sum "Si O2"
_cell_formula_units_Z 72
_cell_length_a 14.981232
_cell_length_b 10.184230
_cell_length_c 22.249801
_cell_angle_alpha 90.000000
_cell_angle_beta 90.000000
_cell_angle_gamma 90.000000
_cell_volume 3394.703588
_symmetry_space_group_name_H-M "C C C A"
_symmetry_group_IT_number 68
_space_group.IT_coordinate_system_code '2'
_symmetry_cell_setting 'orthorhombic'
loop_
_space_group_symop_operation_xyz
x,y,z
-x,1/2-y,z
x,1/2-y,1/2-z
-x,y,1/2-z
-x,-y,-z
x,1/2+y,-z
-x,1/2+y,1/2+z
x,-y,1/2+z
1/2+x,1/2+y,z
1/2-x,-y,z
1/2+x,-y,1/2-z
1/2-x,1/2+y,1/2-z
1/2-x,1/2-y,-z
1/2+x,y,-z
1/2-x,y,1/2+z
1/2+x,1/2-y,1/2+z
loop_
_atom_site_type_symbol
_atom_site_label
_atom_site_fract_x
_atom_site_fract_y
_atom_site_fract_z
Si Si1 0.923986 0.843083 0.626625
Si Si2 0.345991 0.813351 0.018050
Si Si3 0.750000 0.000000 0.897503
Si Si4 0.070043 0.136319 0.889350
Si Si5 0.736764 0.263689 0.320800
O O1 0.897377 0.788372 0.560643
O O2 0.832352 0.826736 0.663207
O O3 0.000000 0.750000 0.652711
O O4 0.961707 0.988864 0.621311
O O5 0.325759 0.943142 0.057798
O O6 0.250000 0.750000 0.000000
O O7 0.398985 0.845729 0.958077
O O8 0.771384 0.123800 0.855371
O O9 0.157846 0.151557 0.848834
O O10 0.000000 0.250000 0.874381
O O11 0.727350 0.250000 0.250000
#
# Coordination Sequence:
#
# PCOD9508664 Si02
#       5
#    16  16   8  16  16
#     4  11  26  45  70 103 143 183 235 291 354 417
#     4  11  21  41  72 103 145 181 228 288 361 429
#     4  10  22  40  74 102 136 180 240 284 364 416
#     4  12  27  44  71 107 144 187 232 288 357 426
#     4  11  27  48  73  98 140 192 241 293 351 423
#
# _framework density 21.209510999999999
#
# number of rings (size 3 to 8) (size 9 to 14) (size 15 to 20)
#    0.000    0.889    4.444    2.667    9.333    2.667 
#    0.000    2.222    0.000    0.000    0.000    0.000 
#    0.000    0.000    0.000    0.000    0.000    0.000 
#
# Total GULP energy -201450.129918 kJ/mol
# GULP energy per Si atom -5595.836942 kJ/mol
# Density = 2.116124 g / cm^3
# Si number density = 21.209511 Si / 1000 Ang^3
#
#
#
# Elastic Constant Matrix: (Units=GPa)
#
#
# Indices 1 2 3 4 5 6 
#
# 1 101.6746 40.1342 17.4187 0.0000 0.0000 0.0000
# 2 40.1342 150.5598 11.8346 0.0000 0.0000 0.0000
# 3 17.4187 11.8346 119.9425 0.0000 0.0000 0.0000
# 4 0.0000 0.0000 0.0000 -15.8212 0.0000 0.0000
# 5 0.0000 0.0000 0.0000 0.0000 -7.3268 0.0000
# 6 0.0000 0.0000 0.0000 0.0000 0.0000 26.0696
#
#
#
# Elastic Compliance Matrix: (Units=1/GPa)
#
#
# Indices 1 2 3 4 5 6 
#
# 1 0.011202 -0.002881 -0.001343 0.000000 0.000000 0.000000
# 2 -0.002881 0.007435 -0.000315 0.000000 0.000000 0.000000
# 3 -0.001343 -0.000315 0.008563 0.000000 0.000000 0.000000
# 4 0.000000 0.000000 0.000000 -0.063206 0.000000 0.000000
# 5 0.000000 0.000000 0.000000 0.000000 -0.136485 0.000000
# 6 0.000000 0.000000 0.000000 0.000000 0.000000 0.038359
#
#
# Mechanical properties :
#
#
# Convention : Reuss Voigt Hill
#
# Bulk Modulus (GPa) = 55.17747 56.77245 55.97496
# Shear Modulus (GPa) = -42.01188 20.77028 -10.62080
#
# Velocity S-wave (km/s) = -4.45545 3.13276 -2.24019
# Velocity P-wave (km/s) = 0.62940 6.31752 4.44494
#
# Compressibility (1/GPa) = 0.01812334
#
# Stress axis : x y z
#
# Youngs Moduli (GPa) = 89.26660 134.50728 116.77585
#
# Poissons Ratio (x) = 0.38747 0.15679
# Poissons Ratio (y) = 0.25715 0.03681
# Poissons Ratio (z) = 0.11985 0.04240
#
# Static dielectric constant tensor:
#      x y z
#    x 1.794070 0.000000 0.000000 
#    y 0.000000 1.739900 0.000000 
#    z 0.000000 0.000000 1.717590 
# 
# From -- ./inp_files/45906.got.cif
#   From: 2010.05.17/outbox.cif.g08.bks.cpg/sg68_23_cif.got.tgz:45906.got - 2010.06.03 18:57:09.
