data_PCOD9508385
_publ_section_title
;
Structure prediction by ZEFSAII (Michael W. Deem and Ramdas Pophale) SiO2 
 PCOD9508385
Probable space group: C C C A
;
_chemical_formula_sum "Si O2"
_cell_formula_units_Z 72
_cell_length_a 12.289115
_cell_length_b 10.118705
_cell_length_c 27.432794
_cell_angle_alpha 90.000000
_cell_angle_beta 90.000000
_cell_angle_gamma 90.000000
_cell_volume 3411.265997
_symmetry_space_group_name_H-M "C C C A"
_symmetry_group_IT_number 68
_space_group.IT_coordinate_system_code '2'
_symmetry_cell_setting 'orthorhombic'
loop_
_space_group_symop_operation_xyz
x,y,z
-x,1/2-y,z
x,1/2-y,1/2-z
-x,y,1/2-z
-x,-y,-z
x,1/2+y,-z
-x,1/2+y,1/2+z
x,-y,1/2+z
1/2+x,1/2+y,z
1/2-x,-y,z
1/2+x,-y,1/2-z
1/2-x,1/2+y,1/2-z
1/2-x,1/2-y,-z
1/2+x,y,-z
1/2-x,y,1/2+z
1/2+x,1/2-y,1/2+z
loop_
_atom_site_type_symbol
_atom_site_label
_atom_site_fract_x
_atom_site_fract_y
_atom_site_fract_z
Si Si1 0.022718 0.091737 0.694712
Si Si2 0.624376 0.046799 0.104211
Si Si3 0.216757 0.189667 0.571877
Si Si4 0.250000 0.500000 0.345794
Si Si5 0.402957 0.853574 0.482041
O O1 0.146307 0.050077 0.683518
O O2 0.000000 0.250000 0.692875
O O3 0.000000 0.048502 0.750000
O O4 0.947476 0.028385 0.652421
O O5 0.633312 0.201728 0.092423
O O6 0.750000 0.000000 0.111757
O O7 0.578449 0.971166 0.056451
O O8 0.274067 0.117734 0.616464
O O9 0.308067 0.268600 0.543133
O O10 0.148822 0.101398 0.533532
O O11 0.500000 0.750000 0.488932
#
# Coordination Sequence:
#
# PCOD9508385 Si02
#       5
#    16  16  16   8  16
#     4  11  25  46  72 100 132 177 229 293 353 408
#     4  10  22  43  65  94 141 179 229 289 337 411
#     4  10  23  37  60  98 131 182 226 272 334 410
#     4  12  24  42  70  98 138 174 226 278 350 428
#     4  10  22  37  61  92 139 183 227 269 334 407
#
# _framework density 21.106532999999999
#
# number of rings (size 3 to 8) (size 9 to 14) (size 15 to 20)
#    0.000    1.556    2.222    1.333   12.444    0.889 
#    0.000    0.000    0.000    8.667    0.000    0.000 
#    0.000    0.000    0.000    0.000    0.000    0.000 
#
# Total GULP energy -201107.727522 kJ/mol
# GULP energy per Si atom -5586.325765 kJ/mol
# Density = 2.105849 g / cm^3
# Si number density = 21.106533 Si / 1000 Ang^3
#
#
#
# Elastic Constant Matrix: (Units=GPa)
#
#
# Indices 1 2 3 4 5 6 
#
# 1 120.9753 21.4317 54.9532 0.0000 0.0000 0.0000
# 2 21.4317 63.5671 30.8946 0.0000 0.0000 0.0000
# 3 54.9532 30.8946 140.5660 0.0000 0.0000 0.0000
# 4 0.0000 0.0000 0.0000 29.8829 0.0000 0.0000
# 5 0.0000 0.0000 0.0000 0.0000 28.4512 0.0000
# 6 0.0000 0.0000 0.0000 0.0000 0.0000 38.9656
#
#
#
# Elastic Compliance Matrix: (Units=1/GPa)
#
#
# Indices 1 2 3 4 5 6 
#
# 1 0.010209 -0.001682 -0.003622 0.000000 0.000000 0.000000
# 2 -0.001682 0.017890 -0.003274 0.000000 0.000000 0.000000
# 3 -0.003622 -0.003274 0.009250 0.000000 0.000000 0.000000
# 4 0.000000 0.000000 0.000000 0.033464 0.000000 0.000000
# 5 0.000000 0.000000 0.000000 0.000000 0.035148 0.000000
# 6 0.000000 0.000000 0.000000 0.000000 0.000000 0.025664
#
#
# Mechanical properties :
#
#
# Convention : Reuss Voigt Hill
#
# Bulk Modulus (GPa) = 49.52239 59.96306 54.74273
# Shear Modulus (GPa) = 32.15208 33.98187 33.06698
#
# Velocity S-wave (km/s) = 3.90721 4.01685 3.96241
# Velocity P-wave (km/s) = 6.62337 7.07000 6.85033
#
# Compressibility (1/GPa) = 0.02019288
#
# Stress axis : x y z
#
# Youngs Moduli (GPa) = 97.95079 55.89751 108.11279
#
# Poissons Ratio (x) = 0.09401 0.39154
# Poissons Ratio (y) = 0.16474 0.35401
# Poissons Ratio (z) = 0.35473 0.18303
#
# Static dielectric constant tensor:
#      x y z
#    x 1.774470 0.000000 0.000000 
#    y 0.000000 1.806490 0.000000 
#    z 0.000000 0.000000 1.764260 
# 
# From -- ./inp_files/50010.got.cif
#   From: 2010.05.17/outbox.cif.g08.bks.cpg/sg68_26_cif.got.tgz:50010.got - 2010.06.03 18:57:09.
