data_PCOD9508347
_publ_section_title
;
Structure prediction by ZEFSAII (Michael W. Deem and Ramdas Pophale) SiO2 
 PCOD9508347
Probable space group: C C C A
;
_chemical_formula_sum "Si O2"
_cell_formula_units_Z 96
_cell_length_a 11.518069
_cell_length_b 18.517231
_cell_length_c 21.281185
_cell_angle_alpha 90.000000
_cell_angle_beta 90.000000
_cell_angle_gamma 90.000000
_cell_volume 4538.909540
_symmetry_space_group_name_H-M "C C C A"
_symmetry_group_IT_number 68
_space_group.IT_coordinate_system_code '2'
_symmetry_cell_setting 'orthorhombic'
loop_
_space_group_symop_operation_xyz
x,y,z
-x,1/2-y,z
x,1/2-y,1/2-z
-x,y,1/2-z
-x,-y,-z
x,1/2+y,-z
-x,1/2+y,1/2+z
x,-y,1/2+z
1/2+x,1/2+y,z
1/2-x,-y,z
1/2+x,-y,1/2-z
1/2-x,1/2+y,1/2-z
1/2-x,1/2-y,-z
1/2+x,y,-z
1/2-x,y,1/2+z
1/2+x,1/2-y,1/2+z
loop_
_atom_site_type_symbol
_atom_site_label
_atom_site_fract_x
_atom_site_fract_y
_atom_site_fract_z
Si Si1 0.170506 0.649269 0.988240
Si Si2 0.807776 0.845255 0.615024
Si Si3 0.524799 0.451578 0.441071
Si Si4 0.866709 0.768104 0.323282
Si Si5 0.250000 0.500000 0.632620
Si Si6 0.207459 0.576047 0.369999
Si Si7 0.000000 0.750000 0.579623
O O1 0.211377 0.599416 0.929656
O O2 0.112712 0.720247 0.958022
O O3 0.271910 0.644108 0.041019
O O4 0.061260 0.623473 0.029054
O O5 0.720148 0.784503 0.640088
O O6 0.782781 0.918493 0.655505
O O7 0.939946 0.815889 0.617681
O O8 0.500000 0.500000 0.500000
O O9 0.635439 0.483143 0.406637
O O10 0.416909 0.444985 0.397096
O O11 0.862170 0.750000 0.250000
O O12 0.820291 0.850030 0.332814
O O13 0.000000 0.750000 0.343921
O O14 0.250000 0.500000 0.339812
#
# Coordination Sequence:
#
# PCOD9508347 Si02
#       7
#    16  16  16  16   8  16   8
#     4  11  22  35  59  99 139 175 209 256 338 419
#     4  11  24  39  63  95 132 171 215 272 333 404
#     4  11  19  34  57  91 142 169 207 252 323 410
#     4  11  26  50  71  90 124 179 241 289 331 389
#     4  10  22  36  56  86 122 166 206 254 318 382
#     4  12  24  41  69 101 138 176 218 277 340 417
#     4  12  22  36  59  96 137 168 208 260 342 416
#
# _framework density 21.150455000000001
#
# number of rings (size 3 to 8) (size 9 to 14) (size 15 to 20)
#    0.000    0.833    3.333    6.500    4.667    0.000 
#    1.500    0.417    0.000    0.000    0.000    0.000 
#    0.000    0.000    0.000    0.000    0.000    0.000 
#
# Total GULP energy -267243.559281 kJ/mol
# GULP energy per Si atom -5567.574152 kJ/mol
# Density = 2.110232 g / cm^3
# Si number density = 21.150455 Si / 1000 Ang^3
#
#
#
# Elastic Constant Matrix: (Units=GPa)
#
#
# Indices 1 2 3 4 5 6 
#
# 1 79.5272 34.7274 12.0266 0.0000 0.0000 0.0000
# 2 34.7274 166.3252 22.7769 0.0000 0.0000 0.0000
# 3 12.0266 22.7769 34.6766 0.0000 0.0000 0.0000
# 4 0.0000 0.0000 0.0000 21.7253 0.0000 0.0000
# 5 0.0000 0.0000 0.0000 0.0000 22.4266 0.0000
# 6 0.0000 0.0000 0.0000 0.0000 0.0000 51.4052
#
#
#
# Elastic Compliance Matrix: (Units=1/GPa)
#
#
# Indices 1 2 3 4 5 6 
#
# 1 0.014164 -0.002510 -0.003263 0.000000 0.000000 0.000000
# 2 -0.002510 0.007052 -0.003761 0.000000 0.000000 0.000000
# 3 -0.003263 -0.003761 0.032440 0.000000 0.000000 0.000000
# 4 0.000000 0.000000 0.000000 0.046029 0.000000 0.000000
# 5 0.000000 0.000000 0.000000 0.000000 0.044590 0.000000
# 6 0.000000 0.000000 0.000000 0.000000 0.000000 0.019453
#
#
# Mechanical properties :
#
#
# Convention : Reuss Voigt Hill
#
# Bulk Modulus (GPa) = 28.91354 46.62119 37.76736
# Shear Modulus (GPa) = 25.72987 33.17796 29.45391
#
# Velocity S-wave (km/s) = 3.49164 3.96493 3.73579
# Velocity P-wave (km/s) = 5.47316 6.56136 6.04181
#
# Compressibility (1/GPa) = 0.03458588
#
# Stress axis : x y z
#
# Youngs Moduli (GPa) = 70.60116 141.81330 30.82604
#
# Poissons Ratio (x) = 0.35602 0.10060
# Poissons Ratio (y) = 0.17724 0.11594
# Poissons Ratio (z) = 0.23040 0.53336
#
# Static dielectric constant tensor:
#      x y z
#    x 1.754250 0.000000 0.000000 
#    y 0.000000 1.917830 0.000000 
#    z 0.000000 0.000000 1.728890 
# 
# From -- ./inp_files/44465.got.cif
#   From: 2010.05.17/outbox.cif.g08.bks.cpg/sg68_23_cif.got.tgz:44465.got - 2010.06.03 18:57:09.
