data_PCOD9508668
_publ_section_title
;
Structure prediction by ZEFSAII (Michael W. Deem and Ramdas Pophale) SiO2 
 PCOD9508668
Probable space group: C C C A
;
_chemical_formula_sum "Si O2"
_cell_formula_units_Z 56
_cell_length_a 5.711339
_cell_length_b 13.822812
_cell_length_c 28.883484
_cell_angle_alpha 90.000000
_cell_angle_beta 90.000000
_cell_angle_gamma 90.000000
_cell_volume 2280.257631
_symmetry_space_group_name_H-M "C C C A"
_symmetry_group_IT_number 68
_space_group.IT_coordinate_system_code '2'
_symmetry_cell_setting 'orthorhombic'
loop_
_space_group_symop_operation_xyz
x,y,z
-x,1/2-y,z
x,1/2-y,1/2-z
-x,y,1/2-z
-x,-y,-z
x,1/2+y,-z
-x,1/2+y,1/2+z
x,-y,1/2+z
1/2+x,1/2+y,z
1/2-x,-y,z
1/2+x,-y,1/2-z
1/2-x,1/2+y,1/2-z
1/2-x,1/2-y,-z
1/2+x,y,-z
1/2-x,y,1/2+z
1/2+x,1/2-y,1/2+z
loop_
_atom_site_type_symbol
_atom_site_label
_atom_site_fract_x
_atom_site_fract_y
_atom_site_fract_z
Si Si1 0.160417 0.394695 0.208897
Si Si2 0.135428 0.603306 0.883953
Si Si3 0.500000 0.750000 0.658228
Si Si4 0.521067 0.611364 0.482562
O O1 0.250000 0.500000 0.223880
O O2 0.362656 0.323677 0.191696
O O3 0.000000 0.356104 0.250000
O O4 0.005193 0.409011 0.163255
O O5 0.250000 0.500000 0.895146
O O6 0.324341 0.686689 0.873327
O O7 0.968331 0.623282 0.927299
O O8 0.500000 0.500000 0.500000
O O9 0.763207 0.649358 0.503704
#
# Coordination Sequence:
#
# PCOD9508668 Si02
#       4
#    16  16   8  16
#     4  12  29  53  81 116 157 210 264 331 410 489
#     4  12  25  48  81 112 160 212 265 334 405 483
#     4  12  30  51  80 114 160 204 270 332 407 486
#     4  10  22  40  76 116 157 219 268 332 410 474
#
# _framework density 24.558630999999998
#
# number of rings (size 3 to 8) (size 9 to 14) (size 15 to 20)
#    0.000    0.571    5.714    1.714    8.000    3.429 
#    0.000    1.429    0.000    0.000    0.000    0.000 
#    0.000    0.000    0.000    0.000    0.000    0.000 
#
# Total GULP energy -156919.525560 kJ/mol
# GULP energy per Si atom -5604.268770 kJ/mol
# Density = 2.450273 g / cm^3
# Si number density = 24.558631 Si / 1000 Ang^3
#
#
#
# Elastic Constant Matrix: (Units=GPa)
#
#
# Indices 1 2 3 4 5 6 
#
# 1 92.2426 11.7223 8.6671 0.0000 0.0000 0.0000
# 2 11.7223 158.0504 -14.4824 0.0000 0.0000 0.0000
# 3 8.6671 -14.4824 143.1493 0.0000 0.0000 0.0000
# 4 0.0000 0.0000 0.0000 15.5713 0.0000 0.0000
# 5 0.0000 0.0000 0.0000 0.0000 53.7797 0.0000
# 6 0.0000 0.0000 0.0000 0.0000 0.0000 -36.0808
#
#
#
# Elastic Compliance Matrix: (Units=1/GPa)
#
#
# Indices 1 2 3 4 5 6 
#
# 1 0.011025 -0.000887 -0.000757 0.000000 0.000000 0.000000
# 2 -0.000887 0.006458 0.000707 0.000000 0.000000 0.000000
# 3 -0.000757 0.000707 0.007103 0.000000 0.000000 0.000000
# 4 0.000000 0.000000 0.000000 0.064221 0.000000 0.000000
# 5 0.000000 0.000000 0.000000 0.000000 0.018594 0.000000
# 6 0.000000 0.000000 0.000000 0.000000 0.000000 -0.027716
#
#
# Mechanical properties :
#
#
# Convention : Reuss Voigt Hill
#
# Bulk Modulus (GPa) = 44.03150 45.02848 44.52999
# Shear Modulus (GPa) = 56.09764 32.48971 44.29368
#
# Velocity S-wave (km/s) = 4.78455 3.64118 4.25148
# Velocity P-wave (km/s) = 6.96352 6.00437 6.50166
#
# Compressibility (1/GPa) = 0.02271101
#
# Stress axis : x y z
#
# Youngs Moduli (GPa) = 90.70412 154.85451 140.78373
#
# Poissons Ratio (x) = 0.13737 0.10661
# Poissons Ratio (y) = 0.08046 -0.09954
# Poissons Ratio (z) = 0.06869 -0.10949
#
# Static dielectric constant tensor:
#      x y z
#    x 1.978800 0.000000 0.000000 
#    y 0.000000 1.982920 0.000000 
#    z 0.000000 0.000000 1.865210 
# 
# From -- ./inp_files/52779.got.cif
#   From: 2010.05.17/outbox.cif.g08.bks.cpg/sg68_27_cif.got.tgz:52779.got - 2010.06.03 18:57:09.
