data_PCOD9508643
_publ_section_title
;
Structure prediction by ZEFSAII (Michael W. Deem and Ramdas Pophale) SiO2 
 PCOD9508643
Probable space group: C C C A
;
_chemical_formula_sum "Si O2"
_cell_formula_units_Z 104
_cell_length_a 27.947301
_cell_length_b 8.600238
_cell_length_c 22.577161
_cell_angle_alpha 90.000000
_cell_angle_beta 90.000000
_cell_angle_gamma 90.000000
_cell_volume 5426.498313
_symmetry_space_group_name_H-M "C C C A"
_symmetry_group_IT_number 68
_space_group.IT_coordinate_system_code '2'
_symmetry_cell_setting 'orthorhombic'
loop_
_space_group_symop_operation_xyz
x,y,z
-x,1/2-y,z
x,1/2-y,1/2-z
-x,y,1/2-z
-x,-y,-z
x,1/2+y,-z
-x,1/2+y,1/2+z
x,-y,1/2+z
1/2+x,1/2+y,z
1/2-x,-y,z
1/2+x,-y,1/2-z
1/2-x,1/2+y,1/2-z
1/2-x,1/2-y,-z
1/2+x,y,-z
1/2-x,y,1/2+z
1/2+x,1/2-y,1/2+z
loop_
_atom_site_type_symbol
_atom_site_label
_atom_site_fract_x
_atom_site_fract_y
_atom_site_fract_z
Si Si1 0.250000 0.000000 0.520448
Si Si2 0.041601 0.140956 0.154236
Si Si3 0.536694 0.061115 0.451568
Si Si4 0.607696 0.086035 0.627797
Si Si5 0.097984 0.848453 0.478871
Si Si6 0.184394 0.228472 0.445482
Si Si7 0.441044 0.433912 0.244014
O O1 0.216627 0.883694 0.558335
O O2 0.282922 0.900124 0.476475
O O3 0.071258 0.270092 0.118102
O O4 0.000000 0.250000 0.180686
O O5 0.021277 0.004415 0.111906
O O6 0.072639 0.049723 0.202237
O O7 0.553987 0.235992 0.459987
O O8 0.500000 0.000000 0.500000
O O9 0.583691 0.964753 0.468825
O O10 0.659206 0.167485 0.614864
O O11 0.607005 0.954189 0.577912
O O12 0.586776 0.004896 0.687267
O O13 0.142960 0.759350 0.505489
O O14 0.429640 0.250000 0.250000
O O15 0.500000 0.441645 0.250000
#
# Coordination Sequence:
#
# PCOD9508643 Si02
#       7
#     8  16  16  16  16  16  16
#     4  10  22  40  68  94 138 164 202 270 360 444
#     4  12  23  40  59  87 124 180 233 275 316 370
#     4  12  23  34  53  84 133 182 223 263 320 385
#     4  12  23  39  64  91 130 173 221 276 327 394
#     4  12  21  38  55  91 134 170 215 266 328 407
#     4  11  21  40  63  98 134 167 208 268 347 433
#     4  11  25  44  62  87 125 183 244 281 311 369
#
# _framework density 19.165213999999999
#
# number of rings (size 3 to 8) (size 9 to 14) (size 15 to 20)
#    0.000    0.462    6.154    3.692    0.000    0.000 
#    0.000    0.000    0.000    0.000    0.000    6.462 
#    0.000    0.000    0.000    0.000    0.000    0.000 
#
# Total GULP energy -289737.590136 kJ/mol
# GULP energy per Si atom -5571.876733 kJ/mol
# Density = 1.912159 g / cm^3
# Si number density = 19.165214 Si / 1000 Ang^3
#
#
#
# Elastic Constant Matrix: (Units=GPa)
#
#
# Indices 1 2 3 4 5 6 
#
# 1 82.7147 38.1903 18.2977 0.0000 0.0000 0.0000
# 2 38.1903 126.1138 31.0582 0.0000 0.0000 0.0000
# 3 18.2977 31.0582 98.6664 0.0000 0.0000 0.0000
# 4 0.0000 0.0000 0.0000 28.3578 0.0000 0.0000
# 5 0.0000 0.0000 0.0000 0.0000 21.6659 0.0000
# 6 0.0000 0.0000 0.0000 0.0000 0.0000 41.7066
#
#
#
# Elastic Compliance Matrix: (Units=1/GPa)
#
#
# Indices 1 2 3 4 5 6 
#
# 1 0.014229 -0.003966 -0.001390 0.000000 0.000000 0.000000
# 2 -0.003966 0.009701 -0.002318 0.000000 0.000000 0.000000
# 3 -0.001390 -0.002318 0.011123 0.000000 0.000000 0.000000
# 4 0.000000 0.000000 0.000000 0.035264 0.000000 0.000000
# 5 0.000000 0.000000 0.000000 0.000000 0.046155 0.000000
# 6 0.000000 0.000000 0.000000 0.000000 0.000000 0.023977
#
#
# Mechanical properties :
#
#
# Convention : Reuss Voigt Hill
#
# Bulk Modulus (GPa) = 50.75342 53.62081 52.18712
# Shear Modulus (GPa) = 30.79460 33.00930 31.90195
#
# Velocity S-wave (km/s) = 4.01284 4.15463 4.08435
# Velocity P-wave (km/s) = 6.92893 7.14517 7.03788
#
# Compressibility (1/GPa) = 0.01970311
#
# Stress axis : x y z
#
# Youngs Moduli (GPa) = 70.28097 103.07805 89.90620
#
# Poissons Ratio (x) = 0.40885 0.12498
# Poissons Ratio (y) = 0.27876 0.20842
# Poissons Ratio (z) = 0.09770 0.23896
#
# Static dielectric constant tensor:
#      x y z
#    x 1.719800 0.000000 0.000000 
#    y 0.000000 1.733530 0.000000 
#    z 0.000000 0.000000 1.718150 
# 
# From -- ./inp_files/41351.got.cif
#   From: 2010.05.17/outbox.cif.g08.bks.cpg/sg68_21_cif.got.tgz:41351.got - 2010.06.03 18:57:09.
