data_PCOD9508224
_publ_section_title
;
Structure prediction by ZEFSAII (Michael W. Deem and Ramdas Pophale) SiO2 
 PCOD9508224
Probable space group: C C C A
;
_chemical_formula_sum "Si O2"
_cell_formula_units_Z 64
_cell_length_a 18.499863
_cell_length_b 16.916666
_cell_length_c 9.871788
_cell_angle_alpha 90.000000
_cell_angle_beta 90.000000
_cell_angle_gamma 90.000000
_cell_volume 3089.435319
_symmetry_space_group_name_H-M "C C C A"
_symmetry_group_IT_number 68
_space_group.IT_coordinate_system_code '2'
_symmetry_cell_setting 'orthorhombic'
loop_
_space_group_symop_operation_xyz
x,y,z
-x,1/2-y,z
x,1/2-y,1/2-z
-x,y,1/2-z
-x,-y,-z
x,1/2+y,-z
-x,1/2+y,1/2+z
x,-y,1/2+z
1/2+x,1/2+y,z
1/2-x,-y,z
1/2+x,-y,1/2-z
1/2-x,1/2+y,1/2-z
1/2-x,1/2-y,-z
1/2+x,y,-z
1/2-x,y,1/2+z
1/2+x,1/2-y,1/2+z
loop_
_atom_site_type_symbol
_atom_site_label
_atom_site_fract_x
_atom_site_fract_y
_atom_site_fract_z
Si Si1 0.330277 0.525977 0.930070
Si Si2 0.079175 0.784196 0.881813
Si Si3 0.811753 0.784197 0.400643
Si Si4 0.577652 0.968977 0.184603
O O1 0.250000 0.500000 0.970662
O O2 0.319916 0.620316 0.905137
O O3 0.360215 0.486893 0.793550
O O4 0.389811 0.499815 0.042538
O O5 0.119995 0.750000 0.750000
O O6 0.072933 0.876641 0.851540
O O7 0.000000 0.750000 0.885040
O O8 0.115930 0.759410 0.020650
O O9 0.805453 0.750000 0.250000
O O10 0.750000 0.750000 0.500000
O O11 0.500000 0.994620 0.250000
#
# Coordination Sequence:
#
# PCOD9508224 Si02
#       4
#    16  16  16  16
#     4  11  27  43  69 103 140 179 227 290 346 414
#     4  10  21  42  71  97 132 180 223 276 338 417
#     4  11  27  44  69 100 132 180 231 285 342 409
#     4  11  23  44  69 100 135 184 225 278 351 410
#
# _framework density 20.715758999999998
#
# number of rings (size 3 to 8) (size 9 to 14) (size 15 to 20)
#    0.000    1.250    2.500    2.250   14.000    0.500 
#    9.000    0.000    0.000    0.000    0.000    0.000 
#    0.000    0.000    0.000    0.000    0.000    0.000 
#
# Total GULP energy -178352.814748 kJ/mol
# GULP energy per Si atom -5573.525461 kJ/mol
# Density = 2.066861 g / cm^3
# Si number density = 20.715759 Si / 1000 Ang^3
#
#
#
# Elastic Constant Matrix: (Units=GPa)
#
#
# Indices 1 2 3 4 5 6 
#
# 1 106.7560 36.5885 54.4762 0.0000 0.0000 0.0000
# 2 36.5885 40.1163 34.3757 0.0000 0.0000 0.0000
# 3 54.4762 34.3757 181.7614 0.0000 0.0000 0.0000
# 4 0.0000 0.0000 0.0000 13.8170 0.0000 0.0000
# 5 0.0000 0.0000 0.0000 0.0000 41.5031 0.0000
# 6 0.0000 0.0000 0.0000 0.0000 0.0000 25.8715
#
#
#
# Elastic Compliance Matrix: (Units=1/GPa)
#
#
# Indices 1 2 3 4 5 6 
#
# 1 0.014311 -0.011191 -0.002173 0.000000 0.000000 0.000000
# 2 -0.011191 0.038500 -0.003927 0.000000 0.000000 0.000000
# 3 -0.002173 -0.003927 0.006896 0.000000 0.000000 0.000000
# 4 0.000000 0.000000 0.000000 0.072375 0.000000 0.000000
# 5 0.000000 0.000000 0.000000 0.000000 0.024095 0.000000
# 6 0.000000 0.000000 0.000000 0.000000 0.000000 0.038653
#
#
# Mechanical properties :
#
#
# Convention : Reuss Voigt Hill
#
# Bulk Modulus (GPa) = 39.80148 64.39051 52.09599
# Shear Modulus (GPa) = 21.02739 29.78454 25.40596
#
# Velocity S-wave (km/s) = 3.18943 3.79591 3.50581
# Velocity P-wave (km/s) = 5.72871 7.09664 6.44905
#
# Compressibility (1/GPa) = 0.02512469
#
# Stress axis : x y z
#
# Youngs Moduli (GPa) = 69.87440 25.97435 145.01867
#
# Poissons Ratio (x) = 0.29068 0.31510
# Poissons Ratio (y) = 0.78196 0.56951
# Poissons Ratio (z) = 0.15182 0.10201
#
# Static dielectric constant tensor:
#      x y z
#    x 1.754230 0.000000 0.000000 
#    y 0.000000 1.751890 0.000000 
#    z 0.000000 0.000000 1.772130 
# 
# From -- ./inp_files/5787.got.cif
#   From: 2010.05.17/outbox.cif.g08.bks.cpg/sg68_3_cif.got.tgz:5787.got - 2010.06.03 18:57:09.
