data_PCOD9508935
_publ_section_title
;
Structure prediction by ZEFSAII (Michael W. Deem and Ramdas Pophale) SiO2 
 PCOD9508935
Probable space group: C C C A
;
_chemical_formula_sum "Si O2"
_cell_formula_units_Z 112
_cell_length_a 14.203362
_cell_length_b 14.978535
_cell_length_c 26.426344
_cell_angle_alpha 90.000000
_cell_angle_beta 90.000000
_cell_angle_gamma 90.000000
_cell_volume 5622.087217
_symmetry_space_group_name_H-M "C C C A"
_symmetry_group_IT_number 68
_space_group.IT_coordinate_system_code '2'
_symmetry_cell_setting 'orthorhombic'
loop_
_space_group_symop_operation_xyz
x,y,z
-x,1/2-y,z
x,1/2-y,1/2-z
-x,y,1/2-z
-x,-y,-z
x,1/2+y,-z
-x,1/2+y,1/2+z
x,-y,1/2+z
1/2+x,1/2+y,z
1/2-x,-y,z
1/2+x,-y,1/2-z
1/2-x,1/2+y,1/2-z
1/2-x,1/2-y,-z
1/2+x,y,-z
1/2-x,y,1/2+z
1/2+x,1/2-y,1/2+z
loop_
_atom_site_type_symbol
_atom_site_label
_atom_site_fract_x
_atom_site_fract_y
_atom_site_fract_z
Si Si1 0.499609 0.643006 0.809333
Si Si2 0.728823 0.898130 0.480073
Si Si3 0.890497 0.656862 0.091168
Si Si4 0.221921 0.172303 0.916665
Si Si5 0.490414 0.893839 0.006091
Si Si6 0.074784 0.171767 0.389311
Si Si7 0.850679 0.517133 0.355136
O O1 0.500000 0.750000 0.810944
O O2 0.500000 0.618789 0.750000
O O3 0.423786 0.620691 0.854264
O O4 0.591449 0.591654 0.826960
O O5 0.793191 0.883219 0.431052
O O6 0.757290 0.834422 0.526078
O O7 0.617913 0.879612 0.478102
O O8 0.750000 0.000000 0.493892
O O9 0.862188 0.760358 0.093700
O O10 0.968045 0.642310 0.046976
O O11 0.315619 0.201343 0.886475
O O12 0.183680 0.072953 0.904516
O O13 0.546531 0.852910 0.053224
O O14 0.500000 0.000000 0.000000
O O15 0.000000 0.250000 0.372737
O O16 0.087181 0.072164 0.363682
O O17 0.750000 0.500000 0.328841
#
# Coordination Sequence:
#
# PCOD9508935 Si02
#       7
#    16  16  16  16  16  16  16
#     4  11  24  46  74 100 127 166 233 300 349 393
#     4  12  23  36  54  87 138 182 223 265 321 400
#     4  12  24  38  61  95 133 173 225 281 332 395
#     4  11  21  40  59  93 131 186 225 260 323 401
#     4  12  23  37  57  89 140 187 220 262 327 405
#     4  11  23  38  60  95 138 179 220 265 328 415
#     4  10  22  43  74  93 130 179 224 271 334 417
#
# _framework density 19.921426
#
# number of rings (size 3 to 8) (size 9 to 14) (size 15 to 20)
#    0.000    0.714    4.286    5.143    2.000    0.000 
#    0.000    0.714    0.000    0.429    0.000    0.000 
#    0.000    0.000    0.000    0.000    0.000    0.000 
#
# Total GULP energy -311835.850626 kJ/mol
# GULP energy per Si atom -5568.497333 kJ/mol
# Density = 1.987608 g / cm^3
# Si number density = 19.921426 Si / 1000 Ang^3
#
#
#
# Elastic Constant Matrix: (Units=GPa)
#
#
# Indices 1 2 3 4 5 6 
#
# 1 136.5631 41.8023 50.8447 0.0000 0.0000 0.0000
# 2 41.8023 115.2198 24.7814 0.0000 0.0000 0.0000
# 3 50.8447 24.7814 104.6297 0.0000 0.0000 0.0000
# 4 0.0000 0.0000 0.0000 2.3859 0.0000 0.0000
# 5 0.0000 0.0000 0.0000 0.0000 9.0380 0.0000
# 6 0.0000 0.0000 0.0000 0.0000 0.0000 47.1556
#
#
#
# Elastic Compliance Matrix: (Units=1/GPa)
#
#
# Indices 1 2 3 4 5 6 
#
# 1 0.009638 -0.002623 -0.004062 0.000000 0.000000 0.000000
# 2 -0.002623 0.009859 -0.001060 0.000000 0.000000 0.000000
# 3 -0.004062 -0.001060 0.011783 0.000000 0.000000 0.000000
# 4 0.000000 0.000000 0.000000 0.419127 0.000000 0.000000
# 5 0.000000 0.000000 0.000000 0.000000 0.110644 0.000000
# 6 0.000000 0.000000 0.000000 0.000000 0.000000 0.021206
#
#
# Mechanical properties :
#
#
# Convention : Reuss Voigt Hill
#
# Bulk Modulus (GPa) = 63.33885 65.69658 64.51772
# Shear Modulus (GPa) = 8.29173 27.64820 17.96996
#
# Velocity S-wave (km/s) = 2.04236 3.72944 3.00666
# Velocity P-wave (km/s) = 6.11760 7.18293 6.67156
#
# Compressibility (1/GPa) = 0.01578810
#
# Stress axis : x y z
#
# Youngs Moduli (GPa) = 103.75605 101.43263 84.86986
#
# Poissons Ratio (x) = 0.26606 0.34477
# Poissons Ratio (y) = 0.27215 0.09000
# Poissons Ratio (z) = 0.42149 0.10756
#
# Static dielectric constant tensor:
#      x y z
#    x 1.861060 0.000000 0.000000 
#    y 0.000000 1.800060 0.000000 
#    z 0.000000 0.000000 1.750410 
# 
# From -- ./inp_files/50976.got.cif
#   From: 2010.05.17/outbox.cif.g08.bks.cpg/sg68_26_cif.got.tgz:50976.got - 2010.06.03 18:57:09.
