data_PCOD9508431
_publ_section_title
;
Structure prediction by ZEFSAII (Michael W. Deem and Ramdas Pophale) SiO2 
 PCOD9508431
Probable space group: C C C A
;
_chemical_formula_sum "Si O2"
_cell_formula_units_Z 104
_cell_length_a 26.326649
_cell_length_b 8.947414
_cell_length_c 21.147640
_cell_angle_alpha 90.000000
_cell_angle_beta 90.000000
_cell_angle_gamma 90.000000
_cell_volume 4981.441388
_symmetry_space_group_name_H-M "C C C A"
_symmetry_group_IT_number 68
_space_group.IT_coordinate_system_code '2'
_symmetry_cell_setting 'orthorhombic'
loop_
_space_group_symop_operation_xyz
x,y,z
-x,1/2-y,z
x,1/2-y,1/2-z
-x,y,1/2-z
-x,-y,-z
x,1/2+y,-z
-x,1/2+y,1/2+z
x,-y,1/2+z
1/2+x,1/2+y,z
1/2-x,-y,z
1/2+x,-y,1/2-z
1/2-x,1/2+y,1/2-z
1/2-x,1/2-y,-z
1/2+x,y,-z
1/2-x,y,1/2+z
1/2+x,1/2-y,1/2+z
loop_
_atom_site_type_symbol
_atom_site_label
_atom_site_fract_x
_atom_site_fract_y
_atom_site_fract_z
Si Si1 0.944268 0.190153 0.323371
Si Si2 0.947708 0.048421 0.921204
Si Si3 0.804158 0.282982 0.530226
Si Si4 0.656524 0.969488 0.082112
Si Si5 0.935830 0.881439 0.047797
Si Si6 0.250000 0.500000 0.878708
Si Si7 0.173894 0.253978 0.324500
O O1 0.944838 0.250000 0.250000
O O2 0.885747 0.225641 0.343881
O O3 0.000000 0.250000 0.348483
O O4 0.945323 0.019333 0.350671
O O5 0.922894 0.210406 0.934203
O O6 0.006149 0.083143 0.937097
O O7 0.928652 0.928569 0.974024
O O8 0.750000 0.250000 0.500000
O O9 0.837231 0.349413 0.473607
O O10 0.791936 0.410427 0.580705
O O11 0.822140 0.127494 0.558667
O O12 0.685659 0.902823 0.141614
O O13 0.597696 0.008733 0.090365
O O14 0.215102 0.622542 0.844162
O O15 0.174623 0.250000 0.250000
#
# Coordination Sequence:
#
# PCOD9508431 Si02
#       7
#    16  16  16  16  16   8  16
#     4  10  23  44  72  95 131 185 236 275 332 414
#     4  10  22  38  61 101 142 171 220 278 342 414
#     4  12  23  40  65  99 126 164 218 277 343 397
#     4  12  23  40  67  95 131 172 220 273 340 411
#     4  10  23  36  61 106 137 172 213 282 354 402
#     4  12  26  44  66  98 134 168 224 286 328 410
#     4  11  27  46  69  97 134 183 235 274 340 410
#
# _framework density 20.877492
#
# number of rings (size 3 to 8) (size 9 to 14) (size 15 to 20)
#    0.000    1.077    3.077    1.846   12.923    1.231 
#    0.000    0.000    0.000   18.462    0.000    0.000 
#    0.000    0.000    0.000    0.000    0.000    0.000 
#
# Total GULP energy -289642.959213 kJ/mol
# GULP energy per Si atom -5570.056908 kJ/mol
# Density = 2.082997 g / cm^3
# Si number density = 20.877492 Si / 1000 Ang^3
#
#
#
# Elastic Constant Matrix: (Units=GPa)
#
#
# Indices 1 2 3 4 5 6 
#
# 1 63.9523 25.6975 12.5649 0.0000 0.0000 0.0000
# 2 25.6975 149.5733 74.7122 0.0000 0.0000 0.0000
# 3 12.5649 74.7122 99.7316 0.0000 0.0000 0.0000
# 4 0.0000 0.0000 0.0000 18.0172 0.0000 0.0000
# 5 0.0000 0.0000 0.0000 0.0000 22.1931 0.0000
# 6 0.0000 0.0000 0.0000 0.0000 0.0000 33.6331
#
#
#
# Elastic Compliance Matrix: (Units=1/GPa)
#
#
# Indices 1 2 3 4 5 6 
#
# 1 0.016797 -0.002922 0.000073 0.000000 0.000000 0.000000
# 2 -0.002922 0.011192 -0.008016 0.000000 0.000000 0.000000
# 3 0.000073 -0.008016 0.016023 0.000000 0.000000 0.000000
# 4 0.000000 0.000000 0.000000 0.055503 0.000000 0.000000
# 5 0.000000 0.000000 0.000000 0.000000 0.045059 0.000000
# 6 0.000000 0.000000 0.000000 0.000000 0.000000 0.029733
#
#
# Mechanical properties :
#
#
# Convention : Reuss Voigt Hill
#
# Bulk Modulus (GPa) = 44.88201 59.91184 52.39692
# Shear Modulus (GPa) = 24.57458 28.12085 26.34771
#
# Velocity S-wave (km/s) = 3.43459 3.67406 3.55634
# Velocity P-wave (km/s) = 6.10516 6.83794 6.48191
#
# Compressibility (1/GPa) = 0.02228064
#
# Stress axis : x y z
#
# Youngs Moduli (GPa) = 59.53616 89.35194 62.41147
#
# Poissons Ratio (x) = 0.26110 -0.00455
# Poissons Ratio (y) = 0.17398 0.50028
# Poissons Ratio (z) = -0.00434 0.71624
#
# Static dielectric constant tensor:
#      x y z
#    x 1.822270 0.000000 0.000000 
#    y 0.000000 1.747390 0.000000 
#    z 0.000000 0.000000 1.857920 
# 
# From -- ./inp_files/41343.got.cif
#   From: 2010.05.17/outbox.cif.g08.bks.cpg/sg68_21_cif.got.tgz:41343.got - 2010.06.03 18:57:09.
