data_PCOD9508657
_publ_section_title
;
Structure prediction by ZEFSAII (Michael W. Deem and Ramdas Pophale) SiO2 
 PCOD9508657
Probable space group: C C C A
;
_chemical_formula_sum "Si O2"
_cell_formula_units_Z 88
_cell_length_a 15.917276
_cell_length_b 13.719895
_cell_length_c 16.762195
_cell_angle_alpha 90.000000
_cell_angle_beta 90.000000
_cell_angle_gamma 90.000000
_cell_volume 3660.584388
_symmetry_space_group_name_H-M "C C C A"
_symmetry_group_IT_number 68
_space_group.IT_coordinate_system_code '2'
_symmetry_cell_setting 'orthorhombic'
loop_
_space_group_symop_operation_xyz
x,y,z
-x,1/2-y,z
x,1/2-y,1/2-z
-x,y,1/2-z
-x,-y,-z
x,1/2+y,-z
-x,1/2+y,1/2+z
x,-y,1/2+z
1/2+x,1/2+y,z
1/2-x,-y,z
1/2+x,-y,1/2-z
1/2-x,1/2+y,1/2-z
1/2-x,1/2-y,-z
1/2+x,y,-z
1/2-x,y,1/2+z
1/2+x,1/2-y,1/2+z
loop_
_atom_site_type_symbol
_atom_site_label
_atom_site_fract_x
_atom_site_fract_y
_atom_site_fract_z
Si Si1 0.396475 0.130055 0.412463
Si Si2 0.984545 0.135674 0.430252
Si Si3 0.339185 0.658249 0.303657
Si Si4 0.750000 0.000000 0.513248
Si Si5 0.298089 0.311058 0.430056
Si Si6 0.580725 0.975407 0.195846
O O1 0.464196 0.105026 0.480228
O O2 0.379293 0.244926 0.416388
O O3 0.312669 0.067976 0.436171
O O4 0.417958 0.087705 0.326776
O O5 0.900521 0.127164 0.376218
O O6 0.000000 0.250000 0.429823
O O7 0.060753 0.082690 0.385821
O O8 0.370664 0.750000 0.250000
O O9 0.254882 0.688111 0.348460
O O10 0.340437 0.568968 0.241912
O O11 0.697884 0.077744 0.459796
O O12 0.250000 0.250000 0.500000
O O13 0.500000 0.953621 0.250000
#
# Coordination Sequence:
#
# PCOD9508657 Si02
#       6
#    16  16  16   8  16  16
#     4  11  24  42  69 101 134 181 229 282 355 417
#     4  11  21  39  69 100 133 180 232 286 334 423
#     4  11  21  40  65 101 135 167 230 289 345 399
#     4  10  22  40  70  92 132 166 232 280 328 416
#     4  10  22  43  66  99 132 173 219 284 340 409
#     4  10  24  40  66  99 139 181 232 286 356 413
#
# _framework density 24.039877000000001
#
# number of rings (size 3 to 8) (size 9 to 14) (size 15 to 20)
#    0.000    1.455    5.455    0.545    7.636    0.000 
#    3.273    0.000    0.000    0.000    0.000    0.000 
#    0.000    0.000    0.000    0.000    0.000    0.000 
#
# Total GULP energy -245884.119117 kJ/mol
# GULP energy per Si atom -5588.275434 kJ/mol
# Density = 2.398516 g / cm^3
# Si number density = 24.039877 Si / 1000 Ang^3
#
#
#
# Elastic Constant Matrix: (Units=GPa)
#
#
# Indices 1 2 3 4 5 6 
#
# 1 40.2885 10.3416 24.5191 0.0000 0.0000 0.0000
# 2 10.3416 108.9494 32.8825 0.0000 0.0000 0.0000
# 3 24.5191 32.8825 99.7561 0.0000 0.0000 0.0000
# 4 0.0000 0.0000 0.0000 52.1104 0.0000 0.0000
# 5 0.0000 0.0000 0.0000 0.0000 -16.1267 0.0000
# 6 0.0000 0.0000 0.0000 0.0000 0.0000 32.9533
#
#
#
# Elastic Compliance Matrix: (Units=1/GPa)
#
#
# Indices 1 2 3 4 5 6 
#
# 1 0.029231 -0.000673 -0.006963 0.000000 0.000000 0.000000
# 2 -0.000673 0.010208 -0.003199 0.000000 0.000000 0.000000
# 3 -0.006963 -0.003199 0.012790 0.000000 0.000000 0.000000
# 4 0.000000 0.000000 0.000000 0.019190 0.000000 0.000000
# 5 0.000000 0.000000 0.000000 0.000000 -0.062009 0.000000
# 6 0.000000 0.000000 0.000000 0.000000 0.000000 0.030346
#
#
# Mechanical properties :
#
#
# Convention : Reuss Voigt Hill
#
# Bulk Modulus (GPa) = 32.72364 42.72005 37.72185
# Shear Modulus (GPa) = 69.81862 25.87079 47.84470
#
# Velocity S-wave (km/s) = 5.39499 3.28405 4.46603
# Velocity P-wave (km/s) = 7.24221 5.67354 6.50533
#
# Compressibility (1/GPa) = 0.03055894
#
# Stress axis : x y z
#
# Youngs Moduli (GPa) = 34.20988 97.96138 78.18306
#
# Poissons Ratio (x) = 0.06594 0.54438
# Poissons Ratio (y) = 0.02303 0.25014
# Poissons Ratio (z) = 0.23820 0.31342
#
# Static dielectric constant tensor:
#      x y z
#    x 2.020380 0.000000 0.000000 
#    y 0.000000 1.930810 0.000000 
#    z 0.000000 0.000000 1.941200 
# 
# From -- ./inp_files/31875.got.cif
#   From: 2010.05.17/outbox.cif.g08.bks.cpg/sg68_16_cif.got.tgz:31875.got - 2010.06.03 18:57:09.
