data_PCOD9508196
_publ_section_title
;
Structure prediction by ZEFSAII (Michael W. Deem and Ramdas Pophale) SiO2 
 PCOD9508196
Probable space group: C C C A
;
_chemical_formula_sum "Si O2"
_cell_formula_units_Z 60
_cell_length_a 25.584120
_cell_length_b 13.409945
_cell_length_c 8.619226
_cell_angle_alpha 90.000000
_cell_angle_beta 90.000000
_cell_angle_gamma 90.000000
_cell_volume 2957.098209
_symmetry_space_group_name_H-M "C C C A"
_symmetry_group_IT_number 68
_space_group.IT_coordinate_system_code '2'
_symmetry_cell_setting 'orthorhombic'
loop_
_space_group_symop_operation_xyz
x,y,z
-x,1/2-y,z
x,1/2-y,1/2-z
-x,y,1/2-z
-x,-y,-z
x,1/2+y,-z
-x,1/2+y,1/2+z
x,-y,1/2+z
1/2+x,1/2+y,z
1/2-x,-y,z
1/2+x,-y,1/2-z
1/2-x,1/2+y,1/2-z
1/2-x,1/2-y,-z
1/2+x,y,-z
1/2-x,y,1/2+z
1/2+x,1/2-y,1/2+z
loop_
_atom_site_type_symbol
_atom_site_label
_atom_site_fract_x
_atom_site_fract_y
_atom_site_fract_z
Si Si1 0.500000 0.061937 0.250000
Si Si2 0.938708 0.597513 0.544467
Si Si3 0.817064 0.553307 0.569484
Si Si4 0.278627 0.367972 0.259099
Si Si5 0.500000 0.250000 0.750000
O O1 0.459040 0.111817 0.368271
O O2 0.535048 0.997240 0.368949
O O3 0.877090 0.584269 0.560742
O O4 0.962154 0.686966 0.642153
O O5 0.781801 0.613115 0.694414
O O6 0.792597 0.583255 0.404948
O O7 0.809837 0.436709 0.615700
O O8 0.289876 0.250000 0.250000
#
# Coordination Sequence:
#
# PCOD9508196 Si02
#       5
#     8  16  16  16   4
#     4   9  20  40  66  89 130 172 229 278 340 407
#     4  10  21  42  65  94 132 179 220 292 345 406
#     4  11  23  42  67  96 144 181 228 290 345 402
#     4  11  24  43  65 102 136 183 234 280 335 435
#     4  10  24  42  64 102 126 170 238 280 352 434
#
# _framework density 20.290158999999999
#
# number of rings (size 3 to 8) (size 9 to 14) (size 15 to 20)
#    0.000    1.600    0.000    5.600    1.867    0.533 
#   19.200    0.000    0.000    0.000    0.000    0.000 
#    0.000    0.000    0.000    0.000    0.000    0.000 
#
# Total GULP energy -167321.109192 kJ/mol
# GULP energy per Si atom -5577.370306 kJ/mol
# Density = 2.024398 g / cm^3
# Si number density = 20.290159 Si / 1000 Ang^3
#
#
#
# Elastic Constant Matrix: (Units=GPa)
#
#
# Indices 1 2 3 4 5 6 
#
# 1 209.5662 57.1064 83.7289 0.0000 0.0000 0.0000
# 2 57.1064 146.0551 72.3345 0.0000 0.0000 0.0000
# 3 83.7289 72.3345 167.9082 0.0000 0.0000 0.0000
# 4 0.0000 0.0000 0.0000 36.9990 0.0000 0.0000
# 5 0.0000 0.0000 0.0000 0.0000 24.3451 0.0000
# 6 0.0000 0.0000 0.0000 0.0000 0.0000 21.3533
#
#
#
# Elastic Compliance Matrix: (Units=1/GPa)
#
#
# Indices 1 2 3 4 5 6 
#
# 1 0.006099 -0.001117 -0.002560 0.000000 0.000000 0.000000
# 2 -0.001117 0.008908 -0.003281 0.000000 0.000000 0.000000
# 3 -0.002560 -0.003281 0.008646 0.000000 0.000000 0.000000
# 4 0.000000 0.000000 0.000000 0.027028 0.000000 0.000000
# 5 0.000000 0.000000 0.000000 0.000000 0.041076 0.000000
# 6 0.000000 0.000000 0.000000 0.000000 0.000000 0.046831
#
#
# Mechanical properties :
#
#
# Convention : Reuss Voigt Hill
#
# Bulk Modulus (GPa) = 102.69670 105.54102 104.11886
# Shear Modulus (GPa) = 32.10293 37.23011 34.66652
#
# Velocity S-wave (km/s) = 3.98199 4.28820 4.13793
# Velocity P-wave (km/s) = 8.47736 8.75483 8.61721
#
# Compressibility (1/GPa) = 0.00973741
#
# Stress axis : x y z
#
# Youngs Moduli (GPa) = 163.96242 112.25656 115.66473
#
# Poissons Ratio (x) = 0.12535 0.29613
# Poissons Ratio (y) = 0.18309 0.37947
# Poissons Ratio (z) = 0.41978 0.36829
#
# Static dielectric constant tensor:
#      x y z
#    x 1.708540 0.000000 0.000000 
#    y 0.000000 1.752570 0.000000 
#    z 0.000000 0.000000 1.739440 
# 
# From -- ./inp_files/7698.got.cif
#   From: 2010.05.17/outbox.cif.g08.bks.cpg/sg68_4_cif.got.tgz:7698.got - 2010.06.03 18:57:09.
