data_PCOD9508074
_publ_section_title
;
Structure prediction by ZEFSAII (Michael W. Deem and Ramdas Pophale) SiO2 
 PCOD9508074
Probable space group: C C C A
;
_chemical_formula_sum "Si O2"
_cell_formula_units_Z 88
_cell_length_a 11.788082
_cell_length_b 25.414660
_cell_length_c 11.861031
_cell_angle_alpha 90.000000
_cell_angle_beta 90.000000
_cell_angle_gamma 90.000000
_cell_volume 3553.447417
_symmetry_space_group_name_H-M "C C C A"
_symmetry_group_IT_number 68
_space_group.IT_coordinate_system_code '2'
_symmetry_cell_setting 'orthorhombic'
loop_
_space_group_symop_operation_xyz
x,y,z
-x,1/2-y,z
x,1/2-y,1/2-z
-x,y,1/2-z
-x,-y,-z
x,1/2+y,-z
-x,1/2+y,1/2+z
x,-y,1/2+z
1/2+x,1/2+y,z
1/2-x,-y,z
1/2+x,-y,1/2-z
1/2-x,1/2+y,1/2-z
1/2-x,1/2-y,-z
1/2+x,y,-z
1/2-x,y,1/2+z
1/2+x,1/2-y,1/2+z
loop_
_atom_site_type_symbol
_atom_site_label
_atom_site_fract_x
_atom_site_fract_y
_atom_site_fract_z
Si Si1 0.297478 0.803096 0.223193
Si Si2 0.305061 0.090779 0.143357
Si Si3 0.500000 0.250000 0.929351
Si Si4 0.092034 0.853797 0.940860
Si Si5 0.065464 0.061372 0.093269
Si Si6 0.876273 0.524836 0.350285
O O1 0.228565 0.750000 0.250000
O O2 0.229444 0.848821 0.163040
O O3 0.402033 0.777654 0.149104
O O4 0.331314 0.832477 0.339601
O O5 0.188990 0.057278 0.146789
O O6 0.360556 0.099379 0.020270
O O7 0.123299 0.062365 0.740363
O O8 0.551495 0.299170 0.996955
O O9 0.985020 0.881803 0.883155
O O10 0.973121 0.019924 0.136127
O O11 0.095426 0.058449 0.961391
O O12 0.750000 0.500000 0.363113
#
# Coordination Sequence:
#
# PCOD9508074 Si02
#       6
#    16  16   8  16  16  16
#     4  10  21  40  68 103 137 185 248 299 368 456
#     4  12  25  42  71 106 142 193 245 310 377 453
#     4  10  21  42  76 107 142 199 254 310 388 469
#     4  11  23  43  71 108 145 191 251 306 383 452
#     4  11  25  47  72  99 147 189 245 318 367 447
#     4  11  27  48  70 103 139 197 254 301 377 456
#
# _framework density 24.764683999999999
#
# number of rings (size 3 to 8) (size 9 to 14) (size 15 to 20)
#    0.000    1.091    1.818    5.727    0.000   10.909 
#    3.273    0.000    0.000    0.000    0.000    0.000 
#    0.000    0.000    0.000    0.000    0.000    0.000 
#
# Total GULP energy -245694.789861 kJ/mol
# GULP energy per Si atom -5583.972497 kJ/mol
# Density = 2.470832 g / cm^3
# Si number density = 24.764684 Si / 1000 Ang^3
#
#
#
# Elastic Constant Matrix: (Units=GPa)
#
#
# Indices 1 2 3 4 5 6 
#
# 1 122.2875 51.9295 48.7525 0.0000 0.0000 0.0000
# 2 51.9295 128.6039 41.7320 0.0000 0.0000 0.0000
# 3 48.7525 41.7320 117.8086 0.0000 0.0000 0.0000
# 4 0.0000 0.0000 0.0000 142.0488 0.0000 0.0000
# 5 0.0000 0.0000 0.0000 0.0000 12.3140 0.0000
# 6 0.0000 0.0000 0.0000 0.0000 0.0000 42.9243
#
#
#
# Elastic Compliance Matrix: (Units=1/GPa)
#
#
# Indices 1 2 3 4 5 6 
#
# 1 0.010922 -0.003326 -0.003342 0.000000 0.000000 0.000000
# 2 -0.003326 0.009798 -0.002095 0.000000 0.000000 0.000000
# 3 -0.003342 -0.002095 0.010613 0.000000 0.000000 0.000000
# 4 0.000000 0.000000 0.000000 0.007040 0.000000 0.000000
# 5 0.000000 0.000000 0.000000 0.000000 0.081209 0.000000
# 6 0.000000 0.000000 0.000000 0.000000 0.000000 0.023297
#
#
# Mechanical properties :
#
#
# Convention : Reuss Voigt Hill
#
# Bulk Modulus (GPa) = 72.41480 72.61424 72.51452
# Shear Modulus (GPa) = 30.30184 54.54313 42.42248
#
# Velocity S-wave (km/s) = 3.50178 4.69812 4.14336
# Velocity P-wave (km/s) = 6.75682 7.66911 7.22737
#
# Compressibility (1/GPa) = 0.01380933
#
# Stress axis : x y z
#
# Youngs Moduli (GPa) = 91.55819 102.05655 94.22206
#
# Poissons Ratio (x) = 0.33943 0.31486
# Poissons Ratio (y) = 0.30451 0.19736
# Poissons Ratio (z) = 0.30596 0.21377
#
# Static dielectric constant tensor:
#      x y z
#    x 2.107580 0.000000 0.000000 
#    y 0.000000 1.957690 0.000000 
#    z 0.000000 0.000000 2.040760 
# 
# From -- ./inp_files/22673.got.cif
#   From: 2010.05.17/outbox.cif.g08.bks.cpg/sg68_12_cif.got.tgz:22673.got - 2010.06.03 18:57:09.
