data_PCOD9508595
_publ_section_title
;
Structure prediction by ZEFSAII (Michael W. Deem and Ramdas Pophale) SiO2 
 PCOD9508595
Probable space group: C C C A
;
_chemical_formula_sum "Si O2"
_cell_formula_units_Z 56
_cell_length_a 15.638784
_cell_length_b 12.792981
_cell_length_c 12.711765
_cell_angle_alpha 90.000000
_cell_angle_beta 90.000000
_cell_angle_gamma 90.000000
_cell_volume 2543.200450
_symmetry_space_group_name_H-M "C C C A"
_symmetry_group_IT_number 68
_space_group.IT_coordinate_system_code '2'
_symmetry_cell_setting 'orthorhombic'
loop_
_space_group_symop_operation_xyz
x,y,z
-x,1/2-y,z
x,1/2-y,1/2-z
-x,y,1/2-z
-x,-y,-z
x,1/2+y,-z
-x,1/2+y,1/2+z
x,-y,1/2+z
1/2+x,1/2+y,z
1/2-x,-y,z
1/2+x,-y,1/2-z
1/2-x,1/2+y,1/2-z
1/2-x,1/2-y,-z
1/2+x,y,-z
1/2-x,y,1/2+z
1/2+x,1/2-y,1/2+z
loop_
_atom_site_type_symbol
_atom_site_label
_atom_site_fract_x
_atom_site_fract_y
_atom_site_fract_z
Si Si1 0.000000 0.564471 0.250000
Si Si2 0.341319 0.443354 0.857467
Si Si3 0.738402 0.750000 0.250000
Si Si4 0.500000 0.750000 0.910370
Si Si5 0.669642 0.189445 0.047523
O O1 0.920602 0.498751 0.201524
O O2 0.020897 0.646964 0.157129
O O3 0.250000 0.500000 0.845777
O O4 0.323179 0.331955 0.805418
O O5 0.350218 0.416052 0.982306
O O6 0.800736 0.811404 0.169145
O O7 0.411991 0.735331 0.969884
O O8 0.750000 0.250000 0.000000
#
# Coordination Sequence:
#
# PCOD9508595 Si02
#       5
#     8  16   8   8  16
#     4  11  24  41  66  96 132 177 220 271 336 400
#     4  11  24  41  67 101 131 172 227 277 333 399
#     4  10  22  44  68  90 136 180 212 274 338 394
#     4  11  22  42  64  89 132 178 216 269 340 399
#     4  10  22  40  64  92 125 169 218 268 325 391
#
# _framework density 22.019497999999999
#
# number of rings (size 3 to 8) (size 9 to 14) (size 15 to 20)
#    0.000    1.429    0.000    6.857    0.000    9.714 
#    0.000    0.000    0.000    0.000    0.000    0.000 
#    0.000    0.000    0.000    0.000    0.000    0.000 
#
# Total GULP energy -155986.158934 kJ/mol
# GULP energy per Si atom -5570.934248 kJ/mol
# Density = 2.196938 g / cm^3
# Si number density = 22.019498 Si / 1000 Ang^3
#
#
#
# Elastic Constant Matrix: (Units=GPa)
#
#
# Indices 1 2 3 4 5 6 
#
# 1 189.6330 46.6540 63.6200 0.0000 0.0000 0.0000
# 2 46.6540 101.8331 51.3832 0.0000 0.0000 0.0000
# 3 63.6200 51.3832 99.3303 0.0000 0.0000 0.0000
# 4 0.0000 0.0000 0.0000 41.3738 0.0000 0.0000
# 5 0.0000 0.0000 0.0000 0.0000 35.2064 0.0000
# 6 0.0000 0.0000 0.0000 0.0000 0.0000 43.3480
#
#
#
# Elastic Compliance Matrix: (Units=1/GPa)
#
#
# Indices 1 2 3 4 5 6 
#
# 1 0.006832 -0.001248 -0.003730 0.000000 0.000000 0.000000
# 2 -0.001248 0.013516 -0.006193 0.000000 0.000000 0.000000
# 3 -0.003730 -0.006193 0.015660 0.000000 0.000000 0.000000
# 4 0.000000 0.000000 0.000000 0.024170 0.000000 0.000000
# 5 0.000000 0.000000 0.000000 0.000000 0.028404 0.000000
# 6 0.000000 0.000000 0.000000 0.000000 0.000000 0.023069
#
#
# Mechanical properties :
#
#
# Convention : Reuss Voigt Hill
#
# Bulk Modulus (GPa) = 73.17038 79.34563 76.25801
# Shear Modulus (GPa) = 36.08845 39.26158 37.67502
#
# Velocity S-wave (km/s) = 4.05276 4.22718 4.14089
# Velocity P-wave (km/s) = 7.42979 7.74196 7.58748
#
# Compressibility (1/GPa) = 0.01366673
#
# Stress axis : x y z
#
# Youngs Moduli (GPa) = 146.37503 73.98402 63.85639
#
# Poissons Ratio (x) = 0.09231 0.23820
# Poissons Ratio (y) = 0.18263 0.39545
# Poissons Ratio (z) = 0.54601 0.45817
#
# Static dielectric constant tensor:
#      x y z
#    x 1.986010 0.000000 0.000000 
#    y 0.000000 1.780820 0.000000 
#    z 0.000000 0.000000 2.014970 
# 
# From -- ./inp_files/20177.got.cif
#   From: 2010.05.17/outbox.cif.g08.bks.cpg/sg68_11_cif.got.tgz:20177.got - 2010.06.03 18:57:09.
