data_PCOD9508218
_publ_section_title
;
Structure prediction by ZEFSAII (Michael W. Deem and Ramdas Pophale) SiO2 
 PCOD9508218
Probable space group: C C C A
;
_chemical_formula_sum "Si O2"
_cell_formula_units_Z 120
_cell_length_a 11.587204
_cell_length_b 22.519625
_cell_length_c 21.394156
_cell_angle_alpha 90.000000
_cell_angle_beta 90.000000
_cell_angle_gamma 90.000000
_cell_volume 5582.580132
_symmetry_space_group_name_H-M "C C C A"
_symmetry_group_IT_number 68
_space_group.IT_coordinate_system_code '2'
_symmetry_cell_setting 'orthorhombic'
loop_
_space_group_symop_operation_xyz
x,y,z
-x,1/2-y,z
x,1/2-y,1/2-z
-x,y,1/2-z
-x,-y,-z
x,1/2+y,-z
-x,1/2+y,1/2+z
x,-y,1/2+z
1/2+x,1/2+y,z
1/2-x,-y,z
1/2+x,-y,1/2-z
1/2-x,1/2+y,1/2-z
1/2-x,1/2-y,-z
1/2+x,y,-z
1/2-x,y,1/2+z
1/2+x,1/2-y,1/2+z
loop_
_atom_site_type_symbol
_atom_site_label
_atom_site_fract_x
_atom_site_fract_y
_atom_site_fract_z
Si Si1 0.983028 0.455291 0.600497
Si Si2 0.622828 0.858669 0.522885
Si Si3 0.286104 0.268732 0.321931
Si Si4 0.950995 0.587866 0.600353
Si Si5 0.000000 0.250000 0.584758
Si Si6 0.731778 0.091255 0.332052
Si Si7 0.676503 0.942754 0.694494
Si Si8 0.686283 0.342979 0.879462
O O1 0.986710 0.522724 0.576850
O O2 0.855241 0.429633 0.613108
O O3 0.059597 0.413863 0.556197
O O4 0.050344 0.451045 0.666462
O O5 0.621211 0.874753 0.450461
O O6 0.542137 0.803333 0.541074
O O7 0.747777 0.846395 0.553634
O O8 0.309693 0.250000 0.250000
O O9 0.395081 0.262350 0.368015
O O10 0.259272 0.338026 0.324081
O O11 0.192177 0.223167 0.351028
O O12 0.862527 0.571885 0.655384
O O13 0.061742 0.626826 0.617706
O O14 0.684940 0.064341 0.268081
O O15 0.733353 0.883927 0.664713
O O16 0.750000 0.000000 0.674033
#
# Coordination Sequence:
#
# PCOD9508218 Si02
#       8
#    16  16  16  16   8  16  16  16
#     4  11  23  44  67 100 131 178 230 285 340 403
#     4  10  24  41  71  96 130 177 233 291 332 405
#     4  11  22  42  68 101 138 171 233 289 347 420
#     4  12  26  45  64  98 143 182 227 277 344 418
#     4  10  21  42  70 100 132 177 234 294 352 394
#     4  12  26  40  67 104 135 179 226 283 346 408
#     4  11  21  42  67  97 136 170 224 282 341 409
#     4  10  24  43  67  99 126 184 224 273 354 398
#
# _framework density 21.495438
#
# number of rings (size 3 to 8) (size 9 to 14) (size 15 to 20)
#    0.000    1.067    4.000    2.200    1.867    3.200 
#    2.400    3.333    0.000    0.000    0.000    0.000 
#    0.000    0.000    0.000    0.000    0.000    0.000 
#
# Total GULP energy -335333.578177 kJ/mol
# GULP energy per Si atom -5588.892970 kJ/mol
# Density = 2.144651 g / cm^3
# Si number density = 21.495438 Si / 1000 Ang^3
#
#
#
# Elastic Constant Matrix: (Units=GPa)
#
#
# Indices 1 2 3 4 5 6 
#
# 1 105.1135 14.9887 15.5262 0.0000 0.0000 0.0000
# 2 14.9887 112.0860 2.3549 0.0000 0.0000 0.0000
# 3 15.5262 2.3549 69.8057 0.0000 0.0000 0.0000
# 4 0.0000 0.0000 0.0000 23.6750 0.0000 0.0000
# 5 0.0000 0.0000 0.0000 0.0000 4.1586 0.0000
# 6 0.0000 0.0000 0.0000 0.0000 0.0000 27.2189
#
#
#
# Elastic Compliance Matrix: (Units=1/GPa)
#
#
# Indices 1 2 3 4 5 6 
#
# 1 0.010021 -0.001294 -0.002185 0.000000 0.000000 0.000000
# 2 -0.001294 0.009095 -0.000019 0.000000 0.000000 0.000000
# 3 -0.002185 -0.000019 0.014812 0.000000 0.000000 0.000000
# 4 0.000000 0.000000 0.000000 0.042239 0.000000 0.000000
# 5 0.000000 0.000000 0.000000 0.000000 0.240463 0.000000
# 6 0.000000 0.000000 0.000000 0.000000 0.000000 0.036739
#
#
# Mechanical properties :
#
#
# Convention : Reuss Voigt Hill
#
# Bulk Modulus (GPa) = 37.13115 39.19388 38.16251
# Shear Modulus (GPa) = 13.53757 27.95288 20.74522
#
# Velocity S-wave (km/s) = 2.51228 3.61003 3.10997
# Velocity P-wave (km/s) = 5.07217 5.97073 5.53970
#
# Compressibility (1/GPa) = 0.02693157
#
# Stress axis : x y z
#
# Youngs Moduli (GPa) = 99.79214 109.94835 67.51214
#
# Poissons Ratio (x) = 0.14229 0.14753
# Poissons Ratio (y) = 0.12914 0.00128
# Poissons Ratio (z) = 0.21806 0.00209
#
# Static dielectric constant tensor:
#      x y z
#    x 1.760170 0.000000 0.000000 
#    y 0.000000 1.816370 0.000000 
#    z 0.000000 0.000000 1.793400 
# 
# From -- ./inp_files/37891.got.cif
#   From: 2010.05.17/outbox.cif.g08.bks.cpg/sg68_19_cif.got.tgz:37891.got - 2010.06.03 18:57:09.
