data_PCOD9508496
_publ_section_title
;
Structure prediction by ZEFSAII (Michael W. Deem and Ramdas Pophale) SiO2 
 PCOD9508496
Probable space group: C C C A
;
_chemical_formula_sum "Si O2"
_cell_formula_units_Z 68
_cell_length_a 19.098041
_cell_length_b 18.616620
_cell_length_c 8.191638
_cell_angle_alpha 90.000000
_cell_angle_beta 90.000000
_cell_angle_gamma 90.000000
_cell_volume 2912.462937
_symmetry_space_group_name_H-M "C C C A"
_symmetry_group_IT_number 68
_space_group.IT_coordinate_system_code '2'
_symmetry_cell_setting 'orthorhombic'
loop_
_space_group_symop_operation_xyz
x,y,z
-x,1/2-y,z
x,1/2-y,1/2-z
-x,y,1/2-z
-x,-y,-z
x,1/2+y,-z
-x,1/2+y,1/2+z
x,-y,1/2+z
1/2+x,1/2+y,z
1/2-x,-y,z
1/2+x,-y,1/2-z
1/2-x,1/2+y,1/2-z
1/2-x,1/2-y,-z
1/2+x,y,-z
1/2-x,y,1/2+z
1/2+x,1/2-y,1/2+z
loop_
_atom_site_type_symbol
_atom_site_label
_atom_site_fract_x
_atom_site_fract_y
_atom_site_fract_z
Si Si1 0.878737 0.161223 0.873846
Si Si2 0.500000 0.750000 0.750000
Si Si3 0.171201 0.876569 0.807797
Si Si4 0.919028 0.480967 0.472231
Si Si5 0.183565 0.114958 0.941814
O O1 0.893019 0.075362 0.889889
O O2 0.840166 0.169240 0.701007
O O3 0.951828 0.200534 0.860444
O O4 0.843164 0.180040 0.046349
O O5 0.186759 0.853621 0.624489
O O6 0.241473 0.913575 0.879063
O O7 0.103988 0.930040 0.818360
O O8 0.872090 0.551214 0.459902
O O9 0.000000 0.500000 0.500000
#
# Coordination Sequence:
#
# PCOD9508496 Si02
#       5
#    16   4  16  16  16
#     4  10  25  41  71  92 136 180 220 282 327 401
#     4  12  24  56  66  96 132 186 230 286 334 384
#     4  10  23  37  65  99 132 174 212 274 335 402
#     4  10  22  39  61 101 137 177 213 274 341 410
#     4  12  20  42  66 101 139 166 222 271 350 403
#
# _framework density 23.347936000000001
#
# number of rings (size 3 to 8) (size 9 to 14) (size 15 to 20)
#    1.412    0.000    2.353    3.529    0.000    4.706 
#    0.000    3.529    0.000    0.000    0.000    0.000 
#    0.000    0.000    0.000    0.000    0.000    0.000 
#
# Total GULP energy -189459.977395 kJ/mol
# GULP energy per Si atom -5572.352276 kJ/mol
# Density = 2.329480 g / cm^3
# Si number density = 23.347936 Si / 1000 Ang^3
#
#
#
# Elastic Constant Matrix: (Units=GPa)
#
#
# Indices 1 2 3 4 5 6 
#
# 1 114.5608 18.9342 25.1806 0.0000 0.0000 0.0000
# 2 18.9342 54.2299 32.0829 0.0000 0.0000 0.0000
# 3 25.1806 32.0829 227.3113 0.0000 0.0000 0.0000
# 4 0.0000 0.0000 0.0000 5.8742 0.0000 0.0000
# 5 0.0000 0.0000 0.0000 0.0000 16.3410 0.0000
# 6 0.0000 0.0000 0.0000 0.0000 0.0000 7.8740
#
#
#
# Elastic Compliance Matrix: (Units=1/GPa)
#
#
# Indices 1 2 3 4 5 6 
#
# 1 0.009345 -0.002892 -0.000627 0.000000 0.000000 0.000000
# 2 -0.002892 0.021015 -0.002646 0.000000 0.000000 0.000000
# 3 -0.000627 -0.002646 0.004842 0.000000 0.000000 0.000000
# 4 0.000000 0.000000 0.000000 0.170236 0.000000 0.000000
# 5 0.000000 0.000000 0.000000 0.000000 0.061196 0.000000
# 6 0.000000 0.000000 0.000000 0.000000 0.000000 0.127000
#
#
# Mechanical properties :
#
#
# Convention : Reuss Voigt Hill
#
# Bulk Modulus (GPa) = 43.72007 60.94416 52.33211
# Shear Modulus (GPa) = 12.08935 27.34479 19.71707
#
# Velocity S-wave (km/s) = 2.27797 3.42597 2.90916
# Velocity P-wave (km/s) = 5.06803 6.46599 5.80921
#
# Compressibility (1/GPa) = 0.02287279
#
# Stress axis : x y z
#
# Youngs Moduli (GPa) = 107.01201 47.58536 206.52060
#
# Poissons Ratio (x) = 0.13760 0.12950
# Poissons Ratio (y) = 0.30945 0.54640
# Poissons Ratio (z) = 0.06710 0.12590
#
# Static dielectric constant tensor:
#      x y z
#    x 1.893870 0.000000 0.000000 
#    y 0.000000 1.883510 0.000000 
#    z 0.000000 0.000000 1.999180 
# 
# From -- ./inp_files/5960.got.cif
#   From: 2010.05.17/outbox.cif.g08.bks.cpg/sg68_3_cif.got.tgz:5960.got - 2010.06.03 18:57:09.
