data_PCOD9508806
_publ_section_title
;
Structure prediction by ZEFSAII (Michael W. Deem and Ramdas Pophale) SiO2 
 PCOD9508806
Probable space group: C C C A
;
_chemical_formula_sum "Si O2"
_cell_formula_units_Z 88
_cell_length_a 13.106564
_cell_length_b 11.948286
_cell_length_c 26.863757
_cell_angle_alpha 90.000000
_cell_angle_beta 90.000000
_cell_angle_gamma 90.000000
_cell_volume 4206.890542
_symmetry_space_group_name_H-M "C C C A"
_symmetry_group_IT_number 68
_space_group.IT_coordinate_system_code '2'
_symmetry_cell_setting 'orthorhombic'
loop_
_space_group_symop_operation_xyz
x,y,z
-x,1/2-y,z
x,1/2-y,1/2-z
-x,y,1/2-z
-x,-y,-z
x,1/2+y,-z
-x,1/2+y,1/2+z
x,-y,1/2+z
1/2+x,1/2+y,z
1/2-x,-y,z
1/2+x,-y,1/2-z
1/2-x,1/2+y,1/2-z
1/2-x,1/2-y,-z
1/2+x,y,-z
1/2-x,y,1/2+z
1/2+x,1/2-y,1/2+z
loop_
_atom_site_type_symbol
_atom_site_label
_atom_site_fract_x
_atom_site_fract_y
_atom_site_fract_z
Si Si1 0.244645 0.322991 0.451248
Si Si2 0.242897 0.122363 0.876546
Si Si3 0.481473 0.377970 0.145779
Si Si4 0.428271 0.499781 0.950223
Si Si5 0.000000 0.531783 0.250000
Si Si6 0.104872 0.822732 0.791775
O O1 0.250000 0.250000 0.500000
O O2 0.266820 0.231499 0.409679
O O3 0.336148 0.411501 0.454806
O O4 0.134853 0.383688 0.445093
O O5 0.139153 0.112008 0.845856
O O6 0.337439 0.150715 0.841762
O O7 0.250000 0.000000 0.902822
O O8 0.500000 0.250000 0.130052
O O9 0.514206 0.461437 0.100733
O O10 0.530479 0.402412 0.199899
O O11 0.500000 0.500000 0.000000
O O12 0.915459 0.442417 0.267057
O O13 0.162788 0.750000 0.750000
O O14 0.000000 0.750000 0.800984
#
# Coordination Sequence:
#
# PCOD9508806 Si02
#       6
#    16  16  16  16   8  16
#     4  11  27  47  72 106 135 184 243 293 357 439
#     4  12  25  44  70 104 141 184 237 292 358 422
#     4  12  25  46  70 105 145 187 238 300 360 423
#     4  11  27  49  74 101 144 188 233 299 364 431
#     4  10  22  42  68 100 140 190 238 280 360 416
#     4   9  22  43  68  98 139 183 240 284 344 428
#
# _framework density 20.918063
#
# number of rings (size 3 to 8) (size 9 to 14) (size 15 to 20)
#    0.000    1.273    3.636    1.364   10.182    1.455 
#    0.000    0.000    0.000    0.000    0.000    0.000 
#    0.000    0.000    0.000    0.000    0.000    0.000 
#
# Total GULP energy -245231.268234 kJ/mol
# GULP energy per Si atom -5573.437914 kJ/mol
# Density = 2.087045 g / cm^3
# Si number density = 20.918063 Si / 1000 Ang^3
#
#
#
# Elastic Constant Matrix: (Units=GPa)
#
#
# Indices 1 2 3 4 5 6 
#
# 1 83.4247 37.1938 43.3573 0.0000 0.0000 0.0000
# 2 37.1938 133.6227 50.5599 0.0000 0.0000 0.0000
# 3 43.3573 50.5599 135.7421 0.0000 0.0000 0.0000
# 4 0.0000 0.0000 0.0000 45.6840 0.0000 0.0000
# 5 0.0000 0.0000 0.0000 0.0000 24.1053 0.0000
# 6 0.0000 0.0000 0.0000 0.0000 0.0000 23.6462
#
#
#
# Elastic Compliance Matrix: (Units=1/GPa)
#
#
# Indices 1 2 3 4 5 6 
#
# 1 0.015217 -0.002790 -0.003821 0.000000 0.000000 0.000000
# 2 -0.002790 0.009223 -0.002544 0.000000 0.000000 0.000000
# 3 -0.003821 -0.002544 0.009535 0.000000 0.000000 0.000000
# 4 0.000000 0.000000 0.000000 0.021889 0.000000 0.000000
# 5 0.000000 0.000000 0.000000 0.000000 0.041485 0.000000
# 6 0.000000 0.000000 0.000000 0.000000 0.000000 0.042290
#
#
# Mechanical properties :
#
#
# Convention : Reuss Voigt Hill
#
# Bulk Modulus (GPa) = 63.83927 68.33462 66.08694
# Shear Modulus (GPa) = 30.64277 33.46566 32.05422
#
# Velocity S-wave (km/s) = 3.83155 4.00415 3.91880
# Velocity P-wave (km/s) = 7.08232 7.35637 7.22065
#
# Compressibility (1/GPa) = 0.01566434
#
# Stress axis : x y z
#
# Youngs Moduli (GPa) = 65.71792 108.42532 104.87555
#
# Poissons Ratio (x) = 0.30247 0.40076
# Poissons Ratio (y) = 0.18333 0.26683
# Poissons Ratio (z) = 0.25113 0.27586
#
# Static dielectric constant tensor:
#      x y z
#    x 1.757420 0.000000 0.000000 
#    y 0.000000 1.771860 0.000000 
#    z 0.000000 0.000000 1.622110 
# 
# From -- ./inp_files/45319.got.cif
#   From: 2010.05.17/outbox.cif.g08.bks.cpg/sg68_23_cif.got.tgz:45319.got - 2010.06.03 18:57:09.
