data_PCOD9508049
_publ_section_title
;
Structure prediction by ZEFSAII (Michael W. Deem and Ramdas Pophale) SiO2 
 PCOD9508049
Probable space group: C C C A
;
_chemical_formula_sum "Si O2"
_cell_formula_units_Z 88
_cell_length_a 22.689193
_cell_length_b 14.521627
_cell_length_c 12.799449
_cell_angle_alpha 90.000000
_cell_angle_beta 90.000000
_cell_angle_gamma 90.000000
_cell_volume 4217.213625
_symmetry_space_group_name_H-M "C C C A"
_symmetry_group_IT_number 68
_space_group.IT_coordinate_system_code '2'
_symmetry_cell_setting 'orthorhombic'
loop_
_space_group_symop_operation_xyz
x,y,z
-x,1/2-y,z
x,1/2-y,1/2-z
-x,y,1/2-z
-x,-y,-z
x,1/2+y,-z
-x,1/2+y,1/2+z
x,-y,1/2+z
1/2+x,1/2+y,z
1/2-x,-y,z
1/2+x,-y,1/2-z
1/2-x,1/2+y,1/2-z
1/2-x,1/2-y,-z
1/2+x,y,-z
1/2-x,y,1/2+z
1/2+x,1/2-y,1/2+z
loop_
_atom_site_type_symbol
_atom_site_label
_atom_site_fract_x
_atom_site_fract_y
_atom_site_fract_z
Si Si1 0.500000 0.115192 0.250000
Si Si2 0.863515 0.670089 0.572769
Si Si3 0.644164 0.345217 0.046056
Si Si4 0.260502 0.108548 0.423763
Si Si5 0.401796 0.750000 0.750000
Si Si6 0.781687 0.250000 0.250000
Si Si7 0.943402 0.502741 0.572661
O O1 0.550943 0.178898 0.198067
O O2 0.535493 0.050480 0.325878
O O3 0.883143 0.768892 0.530117
O O4 0.822319 0.627574 0.480764
O O5 0.822894 0.689374 0.673217
O O6 0.917136 0.602524 0.593424
O O7 0.634884 0.304842 0.162740
O O8 0.609917 0.439919 0.031130
O O9 0.710870 0.360154 0.008328
O O10 0.252323 0.176649 0.324462
O O11 0.250000 0.000000 0.399449
O O12 0.000000 0.500000 0.500000
#
# Coordination Sequence:
#
# PCOD9508049 Si02
#       7
#     8  16  16  16   8   8  16
#     4   9  20  36  58  93 130 160 226 259 314 383
#     4  11  24  43  66  96 131 171 216 265 327 389
#     4  10  21  40  66  92 130 165 217 268 322 386
#     4  11  23  45  68 100 130 170 217 265 329 397
#     4   9  18  37  62  93 124 173 210 270 316 376
#     4  10  24  43  64 100 138 168 214 271 328 394
#     4  11  23  41  64  93 128 173 219 268 315 381
#
# _framework density 20.866859000000002
#
# number of rings (size 3 to 8) (size 9 to 14) (size 15 to 20)
#    0.000    1.636    1.818    3.273    0.000    8.727 
#    9.818    0.000    0.000    0.000    0.000    0.000 
#    0.000    0.000    0.000    0.000    0.000    0.000 
#
# Total GULP energy -245700.709028 kJ/mol
# GULP energy per Si atom -5584.107023 kJ/mol
# Density = 2.081937 g / cm^3
# Si number density = 20.866859 Si / 1000 Ang^3
#
#
#
# Elastic Constant Matrix: (Units=GPa)
#
#
# Indices 1 2 3 4 5 6 
#
# 1 59.7218 22.2364 27.5111 0.0000 0.0000 0.0000
# 2 22.2364 111.0107 23.7800 0.0000 0.0000 0.0000
# 3 27.5111 23.7800 77.2047 0.0000 0.0000 0.0000
# 4 0.0000 0.0000 0.0000 25.8524 0.0000 0.0000
# 5 0.0000 0.0000 0.0000 0.0000 22.0275 0.0000
# 6 0.0000 0.0000 0.0000 0.0000 0.0000 30.6189
#
#
#
# Elastic Compliance Matrix: (Units=1/GPa)
#
#
# Indices 1 2 3 4 5 6 
#
# 1 0.020794 -0.002760 -0.006559 0.000000 0.000000 0.000000
# 2 -0.002760 0.010011 -0.002100 0.000000 0.000000 0.000000
# 3 -0.006559 -0.002100 0.015937 0.000000 0.000000 0.000000
# 4 0.000000 0.000000 0.000000 0.038681 0.000000 0.000000
# 5 0.000000 0.000000 0.000000 0.000000 0.045398 0.000000
# 6 0.000000 0.000000 0.000000 0.000000 0.000000 0.032660
#
#
# Mechanical properties :
#
#
# Convention : Reuss Voigt Hill
#
# Bulk Modulus (GPa) = 41.83688 43.88801 42.86244
# Shear Modulus (GPa) = 25.73524 27.32706 26.53115
#
# Velocity S-wave (km/s) = 3.51566 3.62275 3.56961
# Velocity P-wave (km/s) = 6.04754 6.21105 6.12984
#
# Compressibility (1/GPa) = 0.02390236
#
# Stress axis : x y z
#
# Youngs Moduli (GPa) = 48.09172 99.89176 62.74791
#
# Poissons Ratio (x) = 0.27570 0.41159
# Poissons Ratio (y) = 0.13273 0.13177
# Poissons Ratio (z) = 0.31546 0.20977
#
# Static dielectric constant tensor:
#      x y z
#    x 1.800470 0.000000 0.000000 
#    y 0.000000 1.830750 0.000000 
#    z 0.000000 0.000000 1.740900 
# 
# From -- ./inp_files/13351.got.cif
#   From: 2010.05.17/outbox.cif.g08.bks.cpg/sg68_7_cif.got.tgz:13351.got - 2010.06.03 18:57:09.
