data_PCOD9508854
_publ_section_title
;
Structure prediction by ZEFSAII (Michael W. Deem and Ramdas Pophale) SiO2 
 PCOD9508854
Probable space group: C C C A
;
_chemical_formula_sum "Si O2"
_cell_formula_units_Z 60
_cell_length_a 13.402503
_cell_length_b 5.397475
_cell_length_c 33.107869
_cell_angle_alpha 90.000000
_cell_angle_beta 90.000000
_cell_angle_gamma 90.000000
_cell_volume 2395.012479
_symmetry_space_group_name_H-M "C C C A"
_symmetry_group_IT_number 68
_space_group.IT_coordinate_system_code '2'
_symmetry_cell_setting 'orthorhombic'
loop_
_space_group_symop_operation_xyz
x,y,z
-x,1/2-y,z
x,1/2-y,1/2-z
-x,y,1/2-z
-x,-y,-z
x,1/2+y,-z
-x,1/2+y,1/2+z
x,-y,1/2+z
1/2+x,1/2+y,z
1/2-x,-y,z
1/2+x,-y,1/2-z
1/2-x,1/2+y,1/2-z
1/2-x,1/2-y,-z
1/2+x,y,-z
1/2-x,y,1/2+z
1/2+x,1/2-y,1/2+z
loop_
_atom_site_type_symbol
_atom_site_label
_atom_site_fract_x
_atom_site_fract_y
_atom_site_fract_z
Si Si1 0.750000 0.000000 0.662850
Si Si2 0.858812 0.629201 0.110703
Si Si3 0.500000 0.750000 0.750000
Si Si4 0.902926 0.605599 0.690289
Si Si5 0.629586 0.990989 0.978376
O O1 0.666887 0.889332 0.632093
O O2 0.804959 0.782212 0.688344
O O3 0.750000 0.500000 0.108777
O O4 0.918652 0.484590 0.144587
O O5 0.901205 0.601021 0.066117
O O6 0.581894 0.623717 0.719934
O O7 0.000000 0.750000 0.703456
O O8 0.750000 0.000000 0.978597
O O9 0.601626 0.271162 0.990623
#
# Coordination Sequence:
#
# PCOD9508854 Si02
#       5
#     8  16   4  16  16
#     4  10  22  42  74 108 138 190 244 292 358 456
#     4   9  20  36  64  99 139 188 239 294 357 432
#     4  12  26  48  76 110 140 192 236 320 390 456
#     4  11  24  45  78 101 145 188 239 298 373 451
#     4   9  18  29  53  95 143 188 239 298 354 423
#
# _framework density 25.052057999999999
#
# number of rings (size 3 to 8) (size 9 to 14) (size 15 to 20)
#    0.000    2.133    0.000    2.000   13.067    0.000 
#    0.000    0.000  132.000    1.600    0.000    0.000 
#    0.000    0.000    0.000    0.000    0.000    0.000 
#
# Total GULP energy -167342.850560 kJ/mol
# GULP energy per Si atom -5578.095019 kJ/mol
# Density = 2.499504 g / cm^3
# Si number density = 25.052058 Si / 1000 Ang^3
#
#
#
# Elastic Constant Matrix: (Units=GPa)
#
#
# Indices 1 2 3 4 5 6 
#
# 1 75.7970 11.0699 43.4673 0.0000 0.0000 0.0000
# 2 11.0699 106.3883 50.6640 0.0000 0.0000 0.0000
# 3 43.4673 50.6640 158.6047 0.0000 0.0000 0.0000
# 4 0.0000 0.0000 0.0000 11.8373 0.0000 0.0000
# 5 0.0000 0.0000 0.0000 0.0000 25.6190 0.0000
# 6 0.0000 0.0000 0.0000 0.0000 0.0000 -1.7310
#
#
#
# Elastic Compliance Matrix: (Units=1/GPa)
#
#
# Indices 1 2 3 4 5 6 
#
# 1 0.015675 0.000489 -0.004452 0.000000 0.000000 0.000000
# 2 0.000489 0.011101 -0.003680 0.000000 0.000000 0.000000
# 3 -0.004452 -0.003680 0.008701 0.000000 0.000000 0.000000
# 4 0.000000 0.000000 0.000000 0.084478 0.000000 0.000000
# 5 0.000000 0.000000 0.000000 0.000000 0.039034 0.000000
# 6 0.000000 0.000000 0.000000 0.000000 0.000000 -0.577705
#
#
# Mechanical properties :
#
#
# Convention : Reuss Voigt Hill
#
# Bulk Modulus (GPa) = 49.52823 61.24361 55.38592
# Shear Modulus (GPa) = -12.60399 22.85099 5.12350
#
# Velocity S-wave (km/s) = -2.24545 3.02344 1.43164
# Velocity P-wave (km/s) = 3.61805 6.05705 4.98890
#
# Compressibility (1/GPa) = 0.02019051
#
# Stress axis : x y z
#
# Youngs Moduli (GPa) = 63.79652 90.08031 114.93308
#
# Poissons Ratio (x) = -0.04406 0.51169
# Poissons Ratio (y) = -0.03121 0.42298
# Poissons Ratio (z) = 0.28403 0.33151
#
# Static dielectric constant tensor:
#      x y z
#    x 2.100980 0.000000 0.000000 
#    y 0.000000 1.015730 0.000000 
#    z 0.000000 0.000000 1.934990 
# 
# From -- ./inp_files/55433.got.cif
#   From: 2010.05.17/outbox.cif.g08.bks.cpg/sg68_28_cif.got.tgz:55433.got - 2010.06.03 18:57:09.
