data_PCOD9508360
_publ_section_title
;
Structure prediction by ZEFSAII (Michael W. Deem and Ramdas Pophale) SiO2 
 PCOD9508360
Probable space group: C C C A
;
_chemical_formula_sum "Si O2"
_cell_formula_units_Z 88
_cell_length_a 11.051761
_cell_length_b 26.837327
_cell_length_c 13.895804
_cell_angle_alpha 90.000000
_cell_angle_beta 90.000000
_cell_angle_gamma 90.000000
_cell_volume 4121.491630
_symmetry_space_group_name_H-M "C C C A"
_symmetry_group_IT_number 68
_space_group.IT_coordinate_system_code '2'
_symmetry_cell_setting 'orthorhombic'
loop_
_space_group_symop_operation_xyz
x,y,z
-x,1/2-y,z
x,1/2-y,1/2-z
-x,y,1/2-z
-x,-y,-z
x,1/2+y,-z
-x,1/2+y,1/2+z
x,-y,1/2+z
1/2+x,1/2+y,z
1/2-x,-y,z
1/2+x,-y,1/2-z
1/2-x,1/2+y,1/2-z
1/2-x,1/2-y,-z
1/2+x,y,-z
1/2-x,y,1/2+z
1/2+x,1/2-y,1/2+z
loop_
_atom_site_type_symbol
_atom_site_label
_atom_site_fract_x
_atom_site_fract_y
_atom_site_fract_z
Si Si1 0.519876 0.660598 0.646772
Si Si2 0.250000 0.000000 0.046621
Si Si3 0.700593 0.412513 0.409697
Si Si4 0.793355 0.821457 0.490974
Si Si5 0.366838 0.937528 0.710861
Si Si6 0.644084 0.242060 0.861509
O O1 0.500000 0.686177 0.750000
O O2 0.409592 0.626638 0.608287
O O3 0.581452 0.691348 0.563401
O O4 0.620352 0.618925 0.674216
O O5 0.335291 0.029048 0.120803
O O6 0.182719 0.040468 0.979665
O O7 0.795487 0.376581 0.463409
O O8 0.722352 0.435095 0.302933
O O9 0.688448 0.808702 0.413546
O O10 0.784104 0.784270 0.580113
O O11 0.500000 0.951705 0.750000
O O12 0.500000 0.250000 0.869255
O O13 0.675584 0.250000 0.750000
#
# Coordination Sequence:
#
# PCOD9508360 Si02
#       6
#    16   8  16  16  16  16
#     4   9  20  38  60  88 123 158 206 252 294 364
#     4  12  20  38  60  88 122 162 204 250 314 348
#     4  10  22  36  62  88 118 162 208 246 300 364
#     4  11  21  41  66  89 123 166 201 248 316 369
#     4   9  21  38  54  84 122 155 203 252 288 358
#     4  10  24  41  63  93 127 154 200 258 311 371
#
# _framework density 21.351493000000001
#
# number of rings (size 3 to 8) (size 9 to 14) (size 15 to 20)
#    0.000    2.364    1.818    1.636    5.091    2.909 
#    3.273    0.000    4.000    0.000    0.000    0.000 
#    0.000    0.000    0.000    0.000    0.000    0.000 
#
# Total GULP energy -245075.318274 kJ/mol
# GULP energy per Si atom -5569.893597 kJ/mol
# Density = 2.130290 g / cm^3
# Si number density = 21.351493 Si / 1000 Ang^3
#
#
#
# Elastic Constant Matrix: (Units=GPa)
#
#
# Indices 1 2 3 4 5 6 
#
# 1 39.3308 -0.6688 26.6296 0.0000 0.0000 0.0000
# 2 -0.6688 55.8585 30.4873 0.0000 0.0000 0.0000
# 3 26.6296 30.4873 164.0434 0.0000 0.0000 0.0000
# 4 0.0000 0.0000 0.0000 26.1261 0.0000 0.0000
# 5 0.0000 0.0000 0.0000 0.0000 35.9472 0.0000
# 6 0.0000 0.0000 0.0000 0.0000 0.0000 13.8925
#
#
#
# Elastic Compliance Matrix: (Units=1/GPa)
#
#
# Indices 1 2 3 4 5 6 
#
# 1 0.029087 0.003256 -0.005327 0.000000 0.000000 0.000000
# 2 0.003256 0.020288 -0.004299 0.000000 0.000000 0.000000
# 3 -0.005327 -0.004299 0.007760 0.000000 0.000000 0.000000
# 4 0.000000 0.000000 0.000000 0.038276 0.000000 0.000000
# 5 0.000000 0.000000 0.000000 0.000000 0.027819 0.000000
# 6 0.000000 0.000000 0.000000 0.000000 0.000000 0.071981
#
#
# Mechanical properties :
#
#
# Convention : Reuss Voigt Hill
#
# Bulk Modulus (GPa) = 22.52538 41.34766 31.93652
# Shear Modulus (GPa) = 22.44678 28.71214 25.57946
#
# Velocity S-wave (km/s) = 3.24589 3.67104 3.46499
# Velocity P-wave (km/s) = 4.96190 6.11359 5.56760
#
# Compressibility (1/GPa) = 0.04439436
#
# Stress axis : x y z
#
# Youngs Moduli (GPa) = 34.37914 49.29098 128.87209
#
# Poissons Ratio (x) = -0.16047 0.68649
# Poissons Ratio (y) = -0.11193 0.55401
# Poissons Ratio (z) = 0.18313 0.21190
#
# Static dielectric constant tensor:
#      x y z
#    x 1.821830 0.000000 0.000000 
#    y 0.000000 1.823580 0.000000 
#    z 0.000000 0.000000 1.845700 
# 
# From -- ./inp_files/12034.got.cif
#   From: 2010.05.17/outbox.cif.g08.bks.cpg/sg68_7_cif.got.tgz:12034.got - 2010.06.03 18:57:09.
