data_PCOD9508225
_publ_section_title
;
Structure prediction by ZEFSAII (Michael W. Deem and Ramdas Pophale) SiO2 
 PCOD9508225
Probable space group: C C C A
;
_chemical_formula_sum "Si O2"
_cell_formula_units_Z 88
_cell_length_a 14.078357
_cell_length_b 25.089925
_cell_length_c 11.382837
_cell_angle_alpha 90.000000
_cell_angle_beta 90.000000
_cell_angle_gamma 90.000000
_cell_volume 4020.701703
_symmetry_space_group_name_H-M "C C C A"
_symmetry_group_IT_number 68
_space_group.IT_coordinate_system_code '2'
_symmetry_cell_setting 'orthorhombic'
loop_
_space_group_symop_operation_xyz
x,y,z
-x,1/2-y,z
x,1/2-y,1/2-z
-x,y,1/2-z
-x,-y,-z
x,1/2+y,-z
-x,1/2+y,1/2+z
x,-y,1/2+z
1/2+x,1/2+y,z
1/2-x,-y,z
1/2+x,-y,1/2-z
1/2-x,1/2+y,1/2-z
1/2-x,1/2-y,-z
1/2+x,y,-z
1/2-x,y,1/2+z
1/2+x,1/2-y,1/2+z
loop_
_atom_site_type_symbol
_atom_site_label
_atom_site_fract_x
_atom_site_fract_y
_atom_site_fract_z
Si Si1 0.151359 0.898920 0.003582
Si Si2 0.658828 0.750000 0.250000
Si Si3 0.690154 0.945171 0.239803
Si Si4 0.521234 0.192863 0.563110
Si Si5 0.553306 0.990656 0.875363
Si Si6 0.189730 0.654406 0.880059
O O1 0.142125 0.932465 0.884114
O O2 0.078553 0.850523 0.008307
O O3 0.124477 0.941538 0.102420
O O4 0.254584 0.871713 0.011870
O O5 0.589891 0.711845 0.328627
O O6 0.719000 0.713297 0.162880
O O7 0.722411 0.886436 0.278276
O O8 0.750000 0.000000 0.224856
O O9 0.616844 0.958353 0.344433
O O10 0.500000 0.250000 0.504167
O O11 0.422457 0.164381 0.599348
O O12 0.500000 0.981016 0.750000
O O13 0.500000 0.000000 0.000000
#
# Coordination Sequence:
#
# PCOD9508225 Si02
#       6
#    16   8  16  16  16  16
#     4  12  26  44  72 107 144 200 244 307 384 445
#     4  10  21  42  72 106 139 190 251 314 378 450
#     4  12  26  43  67 102 148 190 245 309 365 448
#     4  10  22  42  72 104 139 184 254 311 372 446
#     4  12  26  46  70 102 147 197 250 304 373 444
#     4  11  23  42  69 102 142 184 245 308 369 452
#
# _framework density 21.886727
#
# number of rings (size 3 to 8) (size 9 to 14) (size 15 to 20)
#    0.000    0.727    5.455    3.545    2.545    4.364 
#    0.000    0.000    0.000    0.000    0.000    0.000 
#    0.000    0.000    0.000    0.000    0.000    0.000 
#
# Total GULP energy -244944.313473 kJ/mol
# GULP energy per Si atom -5566.916215 kJ/mol
# Density = 2.183691 g / cm^3
# Si number density = 21.886727 Si / 1000 Ang^3
#
#
#
# Elastic Constant Matrix: (Units=GPa)
#
#
# Indices 1 2 3 4 5 6 
#
# 1 56.7557 45.7818 21.7694 0.0000 0.0000 0.0000
# 2 45.7818 139.2809 34.6391 0.0000 0.0000 0.0000
# 3 21.7694 34.6391 77.6568 0.0000 0.0000 0.0000
# 4 0.0000 0.0000 0.0000 24.9814 0.0000 0.0000
# 5 0.0000 0.0000 0.0000 0.0000 26.8152 0.0000
# 6 0.0000 0.0000 0.0000 0.0000 0.0000 45.5991
#
#
#
# Elastic Compliance Matrix: (Units=1/GPa)
#
#
# Indices 1 2 3 4 5 6 
#
# 1 0.024909 -0.007256 -0.003746 0.000000 0.000000 0.000000
# 2 -0.007256 0.010189 -0.002511 0.000000 0.000000 0.000000
# 3 -0.003746 -0.002511 0.015047 0.000000 0.000000 0.000000
# 4 0.000000 0.000000 0.000000 0.040030 0.000000 0.000000
# 5 0.000000 0.000000 0.000000 0.000000 0.037292 0.000000
# 6 0.000000 0.000000 0.000000 0.000000 0.000000 0.021930
#
#
# Mechanical properties :
#
#
# Convention : Reuss Voigt Hill
#
# Bulk Modulus (GPa) = 43.25325 53.11935 48.18630
# Shear Modulus (GPa) = 27.15457 30.91269 29.03363
#
# Velocity S-wave (km/s) = 3.52616 3.76226 3.64612
# Velocity P-wave (km/s) = 6.03188 6.57234 6.30790
#
# Compressibility (1/GPa) = 0.02311965
#
# Stress axis : x y z
#
# Youngs Moduli (GPa) = 40.14553 98.14256 66.45701
#
# Poissons Ratio (x) = 0.71213 0.24896
# Poissons Ratio (y) = 0.29130 0.16687
# Poissons Ratio (z) = 0.15039 0.24642
#
# Static dielectric constant tensor:
#      x y z
#    x 1.909030 0.000000 0.000000 
#    y 0.000000 1.795260 0.000000 
#    z 0.000000 0.000000 1.864390 
# 
# From -- ./inp_files/13323.got.cif
#   From: 2010.05.17/outbox.cif.g08.bks.cpg/sg68_7_cif.got.tgz:13323.got - 2010.06.03 18:57:09.
