data_PCOD9508323
_publ_section_title
;
Structure prediction by ZEFSAII (Michael W. Deem and Ramdas Pophale) SiO2 
 PCOD9508323
Probable space group: C C C A
;
_chemical_formula_sum "Si O2"
_cell_formula_units_Z 96
_cell_length_a 19.102213
_cell_length_b 11.135541
_cell_length_c 21.729125
_cell_angle_alpha 90.000000
_cell_angle_beta 90.000000
_cell_angle_gamma 90.000000
_cell_volume 4622.077710
_symmetry_space_group_name_H-M "C C C A"
_symmetry_group_IT_number 68
_space_group.IT_coordinate_system_code '2'
_symmetry_cell_setting 'orthorhombic'
loop_
_space_group_symop_operation_xyz
x,y,z
-x,1/2-y,z
x,1/2-y,1/2-z
-x,y,1/2-z
-x,-y,-z
x,1/2+y,-z
-x,1/2+y,1/2+z
x,-y,1/2+z
1/2+x,1/2+y,z
1/2-x,-y,z
1/2+x,-y,1/2-z
1/2-x,1/2+y,1/2-z
1/2-x,1/2-y,-z
1/2+x,y,-z
1/2-x,y,1/2+z
1/2+x,1/2-y,1/2+z
loop_
_atom_site_type_symbol
_atom_site_label
_atom_site_fract_x
_atom_site_fract_y
_atom_site_fract_z
Si Si1 0.375780 0.736897 0.105458
Si Si2 0.770622 0.363748 0.635039
Si Si3 0.329496 0.733842 0.526568
Si Si4 0.332441 0.025925 0.382807
Si Si5 0.636216 0.622428 0.749841
Si Si6 0.425876 0.364640 0.783874
O O1 0.298345 0.783770 0.125499
O O2 0.376739 0.595959 0.120155
O O3 0.426677 0.820309 0.145596
O O4 0.378732 0.746802 0.031804
O O5 0.750000 0.500000 0.621697
O O6 0.828503 0.322850 0.585092
O O7 0.798633 0.355220 0.704183
O O8 0.250000 0.750000 0.500000
O O9 0.344597 0.604953 0.556568
O O10 0.250000 0.000000 0.384496
O O11 0.345962 0.097044 0.320322
O O12 0.595302 0.750000 0.750000
O O13 0.605835 0.496857 0.723785
O O14 0.388394 0.250000 0.750000
O O15 0.500000 0.372304 0.750000
#
# Coordination Sequence:
#
# PCOD9508323 Si02
#       6
#    16  16  16  16  16  16
#     4  11  23  38  61  90 130 178 215 264 318 401
#     4  11  21  33  57  95 137 165 204 246 326 405
#     4  10  22  34  53  90 138 179 205 243 312 407
#     4  12  21  35  57  92 138 176 211 250 318 404
#     4  12  23  38  62  96 128 163 211 276 335 392
#     4  11  25  45  66  88 113 164 231 277 328 376
#
# _framework density 20.769880000000001
#
# number of rings (size 3 to 8) (size 9 to 14) (size 15 to 20)
#    0.000    0.833    8.333    0.500    4.667    1.000 
#    0.000    0.000    0.000    1.000    4.333    0.000 
#    0.000    0.000    0.000    0.000    0.000    0.000 
#
# Total GULP energy -267775.189149 kJ/mol
# GULP energy per Si atom -5578.649774 kJ/mol
# Density = 2.072261 g / cm^3
# Si number density = 20.769880 Si / 1000 Ang^3
#
#
#
# Elastic Constant Matrix: (Units=GPa)
#
#
# Indices 1 2 3 4 5 6 
#
# 1 30.2050 16.5433 26.7580 0.0000 0.0000 0.0000
# 2 16.5433 173.1536 50.3063 0.0000 0.0000 0.0000
# 3 26.7580 50.3063 154.4217 0.0000 0.0000 0.0000
# 4 0.0000 0.0000 0.0000 44.8201 0.0000 0.0000
# 5 0.0000 0.0000 0.0000 0.0000 16.3134 0.0000
# 6 0.0000 0.0000 0.0000 0.0000 0.0000 10.4001
#
#
#
# Elastic Compliance Matrix: (Units=1/GPa)
#
#
# Indices 1 2 3 4 5 6 
#
# 1 0.039718 -0.001983 -0.006236 0.000000 0.000000 0.000000
# 2 -0.001983 0.006478 -0.001767 0.000000 0.000000 0.000000
# 3 -0.006236 -0.001767 0.008132 0.000000 0.000000 0.000000
# 4 0.000000 0.000000 0.000000 0.022311 0.000000 0.000000
# 5 0.000000 0.000000 0.000000 0.000000 0.061299 0.000000
# 6 0.000000 0.000000 0.000000 0.000000 0.000000 0.096153
#
#
# Mechanical properties :
#
#
# Convention : Reuss Voigt Hill
#
# Bulk Modulus (GPa) = 29.10716 60.55505 44.83110
# Shear Modulus (GPa) = 18.83134 31.91825 25.37479
#
# Velocity S-wave (km/s) = 3.01436 3.92440 3.49909
# Velocity P-wave (km/s) = 5.11465 7.05359 6.16087
#
# Compressibility (1/GPa) = 0.03435581
#
# Stress axis : x y z
#
# Youngs Moduli (GPa) = 25.17774 154.36968 122.97189
#
# Poissons Ratio (x) = 0.30609 0.76688
# Poissons Ratio (y) = 0.04992 0.21726
# Poissons Ratio (z) = 0.15701 0.27273
#
# Static dielectric constant tensor:
#      x y z
#    x 1.769120 0.000000 0.000000 
#    y 0.000000 1.813660 0.000000 
#    z 0.000000 0.000000 1.765860 
# 
# From -- ./inp_files/33543.got.cif
#   From: 2010.05.17/outbox.cif.g08.bks.cpg/sg68_17_cif.got.tgz:33543.got - 2010.06.03 18:57:09.
