data_PCOD9508540
_publ_section_title
;
Structure prediction by ZEFSAII (Michael W. Deem and Ramdas Pophale) SiO2 
 PCOD9508540
Probable space group: C C C A
;
_chemical_formula_sum "Si O2"
_cell_formula_units_Z 64
_cell_length_a 12.518552
_cell_length_b 13.963019
_cell_length_c 14.005684
_cell_angle_alpha 90.000000
_cell_angle_beta 90.000000
_cell_angle_gamma 90.000000
_cell_volume 2448.148457
_symmetry_space_group_name_H-M "C C C A"
_symmetry_group_IT_number 68
_space_group.IT_coordinate_system_code '2'
_symmetry_cell_setting 'orthorhombic'
loop_
_space_group_symop_operation_xyz
x,y,z
-x,1/2-y,z
x,1/2-y,1/2-z
-x,y,1/2-z
-x,-y,-z
x,1/2+y,-z
-x,1/2+y,1/2+z
x,-y,1/2+z
1/2+x,1/2+y,z
1/2-x,-y,z
1/2+x,-y,1/2-z
1/2-x,1/2+y,1/2-z
1/2-x,1/2-y,-z
1/2+x,y,-z
1/2-x,y,1/2+z
1/2+x,1/2-y,1/2+z
loop_
_atom_site_type_symbol
_atom_site_label
_atom_site_fract_x
_atom_site_fract_y
_atom_site_fract_z
Si Si1 0.841411 0.574007 0.268605
Si Si2 0.235361 0.385428 0.005808
Si Si3 0.531724 0.564492 0.589743
Si Si4 0.298840 0.272484 0.842009
O O1 0.750000 0.500000 0.297018
O O2 0.903133 0.521560 0.180026
O O3 0.790710 0.664745 0.214581
O O4 0.925799 0.596771 0.352826
O O5 0.250000 0.500000 0.007230
O O6 0.382153 0.634455 0.959687
O O7 0.321896 0.340225 0.933040
O O8 0.231758 0.325505 0.103175
O O9 0.500000 0.500000 0.500000
O O10 0.372742 0.250000 0.750000
#
# Coordination Sequence:
#
# PCOD9508540 Si02
#       4
#    16  16  16  16
#     4  10  23  44  70 109 156 200 257 315 392 486
#     4  10  23  44  70 109 156 198 255 326 398 478
#     4  10  22  39  70 110 144 198 262 312 386 465
#     4  10  22  39  71 107 146 202 255 310 399 473
#
# _framework density 26.142208
#
# number of rings (size 3 to 8) (size 9 to 14) (size 15 to 20)
#    0.000    2.000    0.000    3.000    7.000    2.000 
#    0.000   10.000    0.000    0.000    0.000    0.000 
#    0.000    0.000    0.000    0.000    0.000    0.000 
#
# Total GULP energy -178215.176201 kJ/mol
# GULP energy per Si atom -5569.224256 kJ/mol
# Density = 2.608271 g / cm^3
# Si number density = 26.142208 Si / 1000 Ang^3
#
#
#
# Elastic Constant Matrix: (Units=GPa)
#
#
# Indices 1 2 3 4 5 6 
#
# 1 116.2083 18.5117 29.3515 0.0000 0.0000 0.0000
# 2 18.5117 180.5220 59.3572 0.0000 0.0000 0.0000
# 3 29.3515 59.3572 248.0024 0.0000 0.0000 0.0000
# 4 0.0000 0.0000 0.0000 51.8634 0.0000 0.0000
# 5 0.0000 0.0000 0.0000 0.0000 23.3786 0.0000
# 6 0.0000 0.0000 0.0000 0.0000 0.0000 3.1655
#
#
#
# Elastic Compliance Matrix: (Units=1/GPa)
#
#
# Indices 1 2 3 4 5 6 
#
# 1 0.008933 -0.000617 -0.000910 0.000000 0.000000 0.000000
# 2 -0.000617 0.006055 -0.001376 0.000000 0.000000 0.000000
# 3 -0.000910 -0.001376 0.004469 0.000000 0.000000 0.000000
# 4 0.000000 0.000000 0.000000 0.019281 0.000000 0.000000
# 5 0.000000 0.000000 0.000000 0.000000 0.042774 0.000000
# 6 0.000000 0.000000 0.000000 0.000000 0.000000 0.315903
#
#
# Mechanical properties :
#
#
# Convention : Reuss Voigt Hill
#
# Bulk Modulus (GPa) = 73.24858 84.35260 78.80059
# Shear Modulus (GPa) = 12.26174 44.84901 28.55538
#
# Velocity S-wave (km/s) = 2.16808 4.14645 3.30860
# Velocity P-wave (km/s) = 5.86068 7.43377 6.69360
#
# Compressibility (1/GPa) = 0.01365214
#
# Stress axis : x y z
#
# Youngs Moduli (GPa) = 111.94121 165.14498 223.75043
#
# Poissons Ratio (x) = 0.10189 0.20352
# Poissons Ratio (y) = 0.06907 0.30794
# Poissons Ratio (z) = 0.10182 0.22728
#
# Static dielectric constant tensor:
#      x y z
#    x 2.241490 0.000000 0.000000 
#    y 0.000000 2.221770 0.000000 
#    z 0.000000 0.000000 2.300130 
# 
# From -- ./inp_files/21790.got.cif
#   From: 2010.05.17/outbox.cif.g08.bks.cpg/sg68_11_cif.got.tgz:21790.got - 2010.06.03 18:57:09.
