data_PCOD9508571
_publ_section_title
;
Structure prediction by ZEFSAII (Michael W. Deem and Ramdas Pophale) SiO2 
 PCOD9508571
Probable space group: C C C A
;
_chemical_formula_sum "Si O2"
_cell_formula_units_Z 80
_cell_length_a 7.136804
_cell_length_b 26.818232
_cell_length_c 18.925572
_cell_angle_alpha 90.000000
_cell_angle_beta 90.000000
_cell_angle_gamma 90.000000
_cell_volume 3622.287587
_symmetry_space_group_name_H-M "C C C A"
_symmetry_group_IT_number 68
_space_group.IT_coordinate_system_code '2'
_symmetry_cell_setting 'orthorhombic'
loop_
_space_group_symop_operation_xyz
x,y,z
-x,1/2-y,z
x,1/2-y,1/2-z
-x,y,1/2-z
-x,-y,-z
x,1/2+y,-z
-x,1/2+y,1/2+z
x,-y,1/2+z
1/2+x,1/2+y,z
1/2-x,-y,z
1/2+x,-y,1/2-z
1/2-x,1/2+y,1/2-z
1/2-x,1/2-y,-z
1/2+x,y,-z
1/2-x,y,1/2+z
1/2+x,1/2-y,1/2+z
loop_
_atom_site_type_symbol
_atom_site_label
_atom_site_fract_x
_atom_site_fract_y
_atom_site_fract_z
Si Si1 0.616145 0.838665 0.320640
Si Si2 0.205332 0.143428 0.438437
Si Si3 0.918385 0.695478 0.080893
Si Si4 0.840584 0.447070 0.192517
Si Si5 0.911351 0.033441 0.060989
O O1 0.500000 0.824953 0.250000
O O2 0.456675 0.846995 0.380750
O O3 0.768293 0.802554 0.355693
O O4 0.734980 0.890441 0.308939
O O5 0.178110 0.175769 0.509099
O O6 0.406933 0.157909 0.407054
O O7 0.183281 0.085559 0.460561
O O8 0.000000 0.750000 0.069201
O O9 0.750000 0.500000 0.210632
O O10 0.000000 0.440814 0.250000
O O11 0.926272 0.455054 0.115549
O O12 0.750000 0.000000 0.096541
O O13 0.000000 0.000000 0.000000
#
# Coordination Sequence:
#
# PCOD9508571 Si02
#       5
#    16  16  16  16  16
#     4  10  25  47  67 103 148 179 232 301 352 421
#     4  11  24  42  71 104 141 190 232 293 355 423
#     4  12  25  44  75 103 136 188 243 291 358 424
#     4  10  22  40  62  92 133 180 220 268 342 414
#     4  11  23  36  61  98 136 176 223 281 337 408
#
# _framework density 22.085491000000001
#
# number of rings (size 3 to 8) (size 9 to 14) (size 15 to 20)
#    0.000    1.200    2.000    3.000    8.400    0.800 
#    0.000    3.000    0.000    0.000    0.000    0.000 
#    0.000    0.000    0.000    0.000    0.000    0.000 
#
# Total GULP energy -223300.635599 kJ/mol
# GULP energy per Si atom -5582.515890 kJ/mol
# Density = 2.203522 g / cm^3
# Si number density = 22.085491 Si / 1000 Ang^3
#
#
#
# Elastic Constant Matrix: (Units=GPa)
#
#
# Indices 1 2 3 4 5 6 
#
# 1 75.8589 27.8327 15.1480 0.0000 0.0000 0.0000
# 2 27.8327 90.6329 50.0398 0.0000 0.0000 0.0000
# 3 15.1480 50.0398 90.1139 0.0000 0.0000 0.0000
# 4 0.0000 0.0000 0.0000 3.9171 0.0000 0.0000
# 5 0.0000 0.0000 0.0000 0.0000 19.9872 0.0000
# 6 0.0000 0.0000 0.0000 0.0000 0.0000 38.1433
#
#
#
# Elastic Compliance Matrix: (Units=1/GPa)
#
#
# Indices 1 2 3 4 5 6 
#
# 1 0.014856 -0.004591 0.000052 0.000000 0.000000 0.000000
# 2 -0.004591 0.017331 -0.008852 0.000000 0.000000 0.000000
# 3 0.000052 -0.008852 0.016004 0.000000 0.000000 0.000000
# 4 0.000000 0.000000 0.000000 0.255288 0.000000 0.000000
# 5 0.000000 0.000000 0.000000 0.000000 0.050032 0.000000
# 6 0.000000 0.000000 0.000000 0.000000 0.000000 0.026217
#
#
# Mechanical properties :
#
#
# Convention : Reuss Voigt Hill
#
# Bulk Modulus (GPa) = 46.70922 49.18298 47.94610
# Shear Modulus (GPa) = 12.08763 23.31522 17.70142
#
# Velocity S-wave (km/s) = 2.34201 3.25265 2.83414
# Velocity P-wave (km/s) = 5.33934 6.03523 5.69792
#
# Compressibility (1/GPa) = 0.02140905
#
# Stress axis : x y z
#
# Youngs Moduli (GPa) = 67.31095 57.70119 62.48544
#
# Poissons Ratio (x) = 0.26491 -0.00325
# Poissons Ratio (y) = 0.30903 0.55311
# Poissons Ratio (z) = -0.00350 0.51076
#
# Static dielectric constant tensor:
#      x y z
#    x 1.839060 0.000000 0.000000 
#    y 0.000000 2.397560 0.000000 
#    z 0.000000 0.000000 1.739800 
# 
# From -- ./inp_files/28467.got.cif
#   From: 2010.05.17/outbox.cif.g08.bks.cpg/sg68_15_cif.got.tgz:28467.got - 2010.06.03 18:57:09.
