data_PCOD9508626
_publ_section_title
;
Structure prediction by ZEFSAII (Michael W. Deem and Ramdas Pophale) SiO2 
 PCOD9508626
Probable space group: C C C A
;
_chemical_formula_sum "Si O2"
_cell_formula_units_Z 92
_cell_length_a 21.283984
_cell_length_b 22.257288
_cell_length_c 8.958601
_cell_angle_alpha 90.000000
_cell_angle_beta 90.000000
_cell_angle_gamma 90.000000
_cell_volume 4243.902165
_symmetry_space_group_name_H-M "C C C A"
_symmetry_group_IT_number 68
_space_group.IT_coordinate_system_code '2'
_symmetry_cell_setting 'orthorhombic'
loop_
_space_group_symop_operation_xyz
x,y,z
-x,1/2-y,z
x,1/2-y,1/2-z
-x,y,1/2-z
-x,-y,-z
x,1/2+y,-z
-x,1/2+y,1/2+z
x,-y,1/2+z
1/2+x,1/2+y,z
1/2-x,-y,z
1/2+x,-y,1/2-z
1/2-x,1/2+y,1/2-z
1/2-x,1/2-y,-z
1/2+x,y,-z
1/2-x,y,1/2+z
1/2+x,1/2-y,1/2+z
loop_
_atom_site_type_symbol
_atom_site_label
_atom_site_fract_x
_atom_site_fract_y
_atom_site_fract_z
Si Si1 0.000000 0.250000 0.250000
Si Si2 0.449786 0.075033 0.976370
Si Si3 0.607568 0.803397 0.037854
Si Si4 0.423153 0.453333 0.866328
Si Si5 0.264020 0.149357 0.846729
Si Si6 0.218367 0.064543 0.090533
Si Si7 0.665911 0.250000 0.250000
O O1 0.048926 0.284773 0.141658
O O2 0.411937 0.132280 0.029218
O O3 0.523103 0.086911 0.942960
O O4 0.424167 0.056360 0.811622
O O5 0.442570 0.020993 0.091826
O O6 0.670204 0.815372 0.136090
O O7 0.625404 0.760889 0.899768
O O8 0.355591 0.441610 0.934190
O O9 0.271882 0.086901 0.758534
O O10 0.211467 0.193360 0.781177
O O11 0.243268 0.122909 0.004681
O O12 0.250000 0.000000 0.063330
#
# Coordination Sequence:
#
# PCOD9508626 Si02
#       7
#     4  16  16  16  16  16   8
#     4  12  30  46  84  96 142 186 256 298 356 440
#     4  10  22  42  67  99 138 187 228 298 356 429
#     4  12  26  49  70 106 139 194 251 299 362 436
#     4  10  22  40  67 101 140 180 235 282 370 436
#     4  12  26  47  73 105 150 191 243 308 367 442
#     4  12  26  42  72 111 144 193 239 306 374 438
#     4  12  29  47  74 105 149 196 250 302 376 420
#
# _framework density 21.678162
#
# number of rings (size 3 to 8) (size 9 to 14) (size 15 to 20)
#    0.000    0.696    3.478    3.652    4.870    0.348 
#    0.000    5.217    0.000    0.000    0.000    0.000 
#    0.000    0.000    0.000    0.000    0.000    0.000 
#
# Total GULP energy -257033.158589 kJ/mol
# GULP energy per Si atom -5587.677361 kJ/mol
# Density = 2.162882 g / cm^3
# Si number density = 21.678162 Si / 1000 Ang^3
#
#
#
# Elastic Constant Matrix: (Units=GPa)
#
#
# Indices 1 2 3 4 5 6 
#
# 1 146.5820 42.5802 32.6983 0.0000 0.0000 0.0000
# 2 42.5802 78.9942 27.4207 0.0000 0.0000 0.0000
# 3 32.6983 27.4207 45.4218 0.0000 0.0000 0.0000
# 4 0.0000 0.0000 0.0000 36.2311 0.0000 0.0000
# 5 0.0000 0.0000 0.0000 0.0000 6.8002 0.0000
# 6 0.0000 0.0000 0.0000 0.0000 0.0000 43.0266
#
#
#
# Elastic Compliance Matrix: (Units=1/GPa)
#
#
# Indices 1 2 3 4 5 6 
#
# 1 0.008719 -0.003189 -0.004351 0.000000 0.000000 0.000000
# 2 -0.003189 0.017182 -0.008077 0.000000 0.000000 0.000000
# 3 -0.004351 -0.008077 0.030024 0.000000 0.000000 0.000000
# 4 0.000000 0.000000 0.000000 0.027601 0.000000 0.000000
# 5 0.000000 0.000000 0.000000 0.000000 0.147054 0.000000
# 6 0.000000 0.000000 0.000000 0.000000 0.000000 0.023241
#
#
# Mechanical properties :
#
#
# Convention : Reuss Voigt Hill
#
# Bulk Modulus (GPa) = 40.50140 52.93293 46.71717
# Shear Modulus (GPa) = 17.04820 28.43150 22.73985
#
# Velocity S-wave (km/s) = 2.80737 3.62543 3.24230
# Velocity P-wave (km/s) = 5.40666 6.48040 5.96773
#
# Compressibility (1/GPa) = 0.02469050
#
# Stress axis : x y z
#
# Youngs Moduli (GPa) = 114.68811 58.20066 33.30662
#
# Poissons Ratio (x) = 0.18563 0.14493
# Poissons Ratio (y) = 0.36580 0.26900
# Poissons Ratio (z) = 0.49905 0.47006
#
# Static dielectric constant tensor:
#      x y z
#    x 1.801450 0.000000 0.000000 
#    y 0.000000 1.783640 0.000000 
#    z 0.000000 0.000000 1.767040 
# 
# From -- ./inp_files/7177.got.cif
#   From: 2010.05.17/outbox.cif.g08.bks.cpg/sg68_4_cif.got.tgz:7177.got - 2010.06.03 18:57:09.
