data_PCOD9508392
_publ_section_title
;
Structure prediction by ZEFSAII (Michael W. Deem and Ramdas Pophale) SiO2 
 PCOD9508392
Probable space group: C C C A
;
_chemical_formula_sum "Si O2"
_cell_formula_units_Z 116
_cell_length_a 25.348331
_cell_length_b 8.570238
_cell_length_c 26.567238
_cell_angle_alpha 90.000000
_cell_angle_beta 90.000000
_cell_angle_gamma 90.000000
_cell_volume 5771.499449
_symmetry_space_group_name_H-M "C C C A"
_symmetry_group_IT_number 68
_space_group.IT_coordinate_system_code '2'
_symmetry_cell_setting 'orthorhombic'
loop_
_space_group_symop_operation_xyz
x,y,z
-x,1/2-y,z
x,1/2-y,1/2-z
-x,y,1/2-z
-x,-y,-z
x,1/2+y,-z
-x,1/2+y,1/2+z
x,-y,1/2+z
1/2+x,1/2+y,z
1/2-x,-y,z
1/2+x,-y,1/2-z
1/2-x,1/2+y,1/2-z
1/2-x,1/2-y,-z
1/2+x,y,-z
1/2-x,y,1/2+z
1/2+x,1/2-y,1/2+z
loop_
_atom_site_type_symbol
_atom_site_label
_atom_site_fract_x
_atom_site_fract_y
_atom_site_fract_z
Si Si1 0.295269 0.755547 0.957602
Si Si2 0.871061 0.976178 0.511206
Si Si3 0.667325 0.095232 0.685893
Si Si4 0.920781 0.143043 0.334309
Si Si5 0.058807 0.710388 0.947425
Si Si6 0.500000 0.250000 0.750000
Si Si7 0.720748 0.218963 0.156016
Si Si8 0.642017 0.598036 0.718518
O O1 0.272267 0.736560 0.902032
O O2 0.327677 0.916641 0.961683
O O3 0.250000 0.750000 0.000000
O O4 0.337840 0.623748 0.970981
O O5 0.902689 0.859950 0.547518
O O6 0.913182 0.082150 0.482172
O O7 0.621743 0.214448 0.668911
O O8 0.723558 0.177269 0.680247
O O9 0.680284 0.929760 0.658047
O O10 0.653178 0.038860 0.741843
O O11 0.944469 0.153862 0.389890
O O12 0.962342 0.159388 0.288804
O O13 0.894441 0.975833 0.324112
O O14 0.000000 0.750000 0.965307
O O15 0.694507 0.348679 0.190490
O O16 0.622344 0.750000 0.750000
#
# Coordination Sequence:
#
# PCOD9508392 Si02
#       8
#    16  16  16  16  16   4  16  16
#     4  11  23  40  62  91 130 171 207 255 320 397
#     4  10  24  41  64  93 132 161 220 270 320 389
#     4  10  22  37  64  89 125 169 210 256 310 386
#     4  12  23  42  68  92 125 171 221 264 328 386
#     4  11  23  42  69  96 124 169 219 282 338 379
#     4  12  24  44  66  92 120 168 226 276 300 392
#     4  10  23  38  62  92 129 165 205 250 325 383
#     4  10  22  41  61  93 132 163 209 265 316 378
#
# _framework density 20.098763000000002
#
# number of rings (size 3 to 8) (size 9 to 14) (size 15 to 20)
#    0.000    1.379    2.069    2.483    7.724    7.172 
#    2.483    0.345    0.000    3.310    0.000    0.000 
#    0.000    0.000    0.000    0.000    0.000    0.000 
#
# Total GULP energy -323916.098457 kJ/mol
# GULP energy per Si atom -5584.760318 kJ/mol
# Density = 2.005302 g / cm^3
# Si number density = 20.098763 Si / 1000 Ang^3
#
#
#
# Elastic Constant Matrix: (Units=GPa)
#
#
# Indices 1 2 3 4 5 6 
#
# 1 78.9764 22.0780 8.3653 0.0000 0.0000 0.0000
# 2 22.0780 54.5884 10.7434 0.0000 0.0000 0.0000
# 3 8.3653 10.7434 66.8757 0.0000 0.0000 0.0000
# 4 0.0000 0.0000 0.0000 2.5622 0.0000 0.0000
# 5 0.0000 0.0000 0.0000 0.0000 24.1455 0.0000
# 6 0.0000 0.0000 0.0000 0.0000 0.0000 17.3658
#
#
#
# Elastic Compliance Matrix: (Units=1/GPa)
#
#
# Indices 1 2 3 4 5 6 
#
# 1 0.014327 -0.005620 -0.000889 0.000000 0.000000 0.000000
# 2 -0.005620 0.021121 -0.002690 0.000000 0.000000 0.000000
# 3 -0.000889 -0.002690 0.015497 0.000000 0.000000 0.000000
# 4 0.000000 0.000000 0.000000 0.390293 0.000000 0.000000
# 5 0.000000 0.000000 0.000000 0.000000 0.041416 0.000000
# 6 0.000000 0.000000 0.000000 0.000000 0.000000 0.057584
#
#
# Mechanical properties :
#
#
# Convention : Reuss Voigt Hill
#
# Bulk Modulus (GPa) = 30.72501 31.42376 31.07438
# Shear Modulus (GPa) = 8.77986 19.43161 14.10574
#
# Velocity S-wave (km/s) = 2.09233 3.11272 2.65206
# Velocity P-wave (km/s) = 4.59971 5.34671 4.98722
#
# Compressibility (1/GPa) = 0.03254678
#
# Stress axis : x y z
#
# Youngs Moduli (GPa) = 69.79752 47.34597 64.53055
#
# Poissons Ratio (x) = 0.26606 0.05739
# Poissons Ratio (y) = 0.39223 0.17360
# Poissons Ratio (z) = 0.06208 0.12737
#
# Static dielectric constant tensor:
#      x y z
#    x 2.941910 0.000000 0.000000 
#    y 0.000000 1.752000 0.000000 
#    z 0.000000 0.000000 1.701260 
# 
# From -- ./inp_files/52199.got.cif
#   From: 2010.05.17/outbox.cif.g08.bks.cpg/sg68_27_cif.got.tgz:52199.got - 2010.06.03 18:57:09.
