data_PCOD9508454
_publ_section_title
;
Structure prediction by ZEFSAII (Michael W. Deem and Ramdas Pophale) SiO2 
 PCOD9508454
Probable space group: C C C A
;
_chemical_formula_sum "Si O2"
_cell_formula_units_Z 88
_cell_length_a 14.554660
_cell_length_b 21.022538
_cell_length_c 14.289515
_cell_angle_alpha 90.000000
_cell_angle_beta 90.000000
_cell_angle_gamma 90.000000
_cell_volume 4372.247112
_symmetry_space_group_name_H-M "C C C A"
_symmetry_group_IT_number 68
_space_group.IT_coordinate_system_code '2'
_symmetry_cell_setting 'orthorhombic'
loop_
_space_group_symop_operation_xyz
x,y,z
-x,1/2-y,z
x,1/2-y,1/2-z
-x,y,1/2-z
-x,-y,-z
x,1/2+y,-z
-x,1/2+y,1/2+z
x,-y,1/2+z
1/2+x,1/2+y,z
1/2-x,-y,z
1/2+x,-y,1/2-z
1/2-x,1/2+y,1/2-z
1/2-x,1/2-y,-z
1/2+x,y,-z
1/2-x,y,1/2+z
1/2+x,1/2-y,1/2+z
loop_
_atom_site_type_symbol
_atom_site_label
_atom_site_fract_x
_atom_site_fract_y
_atom_site_fract_z
Si Si1 0.561913 0.081014 0.168531
Si Si2 0.091183 0.144698 0.536848
Si Si3 0.500000 0.750000 0.407144
Si Si4 0.750000 0.500000 0.141222
Si Si5 0.107241 0.511554 0.520254
Si Si6 0.849277 0.250000 0.250000
Si Si7 0.789823 0.139955 0.787401
O O1 0.500000 0.048928 0.250000
O O2 0.489091 0.114388 0.100759
O O3 0.624790 0.133596 0.217083
O O4 0.623254 0.031030 0.111222
O O5 0.043030 0.196900 0.474195
O O6 0.125747 0.086575 0.471631
O O7 0.170932 0.163017 0.610954
O O8 0.415675 0.734999 0.337564
O O9 0.760094 0.566185 0.196467
O O10 0.835805 0.491493 0.070742
O O11 0.000000 0.500000 0.500000
O O12 0.784372 0.312088 0.254442
#
# Coordination Sequence:
#
# PCOD9508454 Si02
#       7
#    16  16   8   8  16   8  16
#     4   9  19  38  62  97 124 159 207 255 315 369
#     4   9  21  41  65  91 122 171 213 251 312 383
#     4  11  26  46  59  86 126 174 213 252 332 385
#     4  10  22  38  64  94 124 166 214 254 318 384
#     4   9  19  37  61  90 122 158 203 257 310 376
#     4  11  28  44  59  94 130 164 213 272 324 367
#     4  10  23  41  64  96 127 162 212 267 309 373
#
# _framework density 20.126950000000001
#
# number of rings (size 3 to 8) (size 9 to 14) (size 15 to 20)
#    0.000    2.364    0.000    1.091    7.636    5.818 
#    3.273    0.000    0.000    0.000    0.000    0.000 
#    0.000    0.000    0.000    0.000    0.000    0.000 
#
# Total GULP energy -245213.533056 kJ/mol
# GULP energy per Si atom -5573.034842 kJ/mol
# Density = 2.008114 g / cm^3
# Si number density = 20.126950 Si / 1000 Ang^3
#
#
#
# Elastic Constant Matrix: (Units=GPa)
#
#
# Indices 1 2 3 4 5 6 
#
# 1 71.5073 8.0446 1.8683 0.0000 0.0000 0.0000
# 2 8.0446 45.1158 19.9364 0.0000 0.0000 0.0000
# 3 1.8683 19.9364 47.4752 0.0000 0.0000 0.0000
# 4 0.0000 0.0000 0.0000 28.2370 0.0000 0.0000
# 5 0.0000 0.0000 0.0000 0.0000 5.0765 0.0000
# 6 0.0000 0.0000 0.0000 0.0000 0.0000 16.4304
#
#
#
# Elastic Compliance Matrix: (Units=1/GPa)
#
#
# Indices 1 2 3 4 5 6 
#
# 1 0.014286 -0.002823 0.000623 0.000000 0.000000 0.000000
# 2 -0.002823 0.027773 -0.011552 0.000000 0.000000 0.000000
# 3 0.000623 -0.011552 0.025890 0.000000 0.000000 0.000000
# 4 0.000000 0.000000 0.000000 0.035415 0.000000 0.000000
# 5 0.000000 0.000000 0.000000 0.000000 0.196984 0.000000
# 6 0.000000 0.000000 0.000000 0.000000 0.000000 0.060863
#
#
# Mechanical properties :
#
#
# Convention : Reuss Voigt Hill
#
# Bulk Modulus (GPa) = 24.72404 24.86632 24.79518
# Shear Modulus (GPa) = 12.43178 18.89874 15.66526
#
# Velocity S-wave (km/s) = 2.48799 3.06760 2.79287
# Velocity P-wave (km/s) = 4.53477 4.99284 4.76931
#
# Compressibility (1/GPa) = 0.04044646
#
# Stress axis : x y z
#
# Youngs Moduli (GPa) = 69.99926 36.00603 38.62486
#
# Poissons Ratio (x) = 0.10163 -0.02407
# Poissons Ratio (y) = 0.19759 0.44619
# Poissons Ratio (z) = -0.04362 0.41593
#
# Static dielectric constant tensor:
#      x y z
#    x 1.726950 0.000000 0.000000 
#    y 0.000000 1.733790 0.000000 
#    z 0.000000 0.000000 1.755620 
# 
# From -- ./inp_files/22318.got.cif
#   From: 2010.05.17/outbox.cif.g08.bks.cpg/sg68_12_cif.got.tgz:22318.got - 2010.06.03 18:57:09.
