data_PCOD9508139
_publ_section_title
;
Structure prediction by ZEFSAII (Michael W. Deem and Ramdas Pophale) SiO2 
 PCOD9508139
Probable space group: C C C A
;
_chemical_formula_sum "Si O2"
_cell_formula_units_Z 80
_cell_length_a 14.330213
_cell_length_b 9.719643
_cell_length_c 24.663068
_cell_angle_alpha 90.000000
_cell_angle_beta 90.000000
_cell_angle_gamma 90.000000
_cell_volume 3435.184438
_symmetry_space_group_name_H-M "C C C A"
_symmetry_group_IT_number 68
_space_group.IT_coordinate_system_code '2'
_symmetry_cell_setting 'orthorhombic'
loop_
_space_group_symop_operation_xyz
x,y,z
-x,1/2-y,z
x,1/2-y,1/2-z
-x,y,1/2-z
-x,-y,-z
x,1/2+y,-z
-x,1/2+y,1/2+z
x,-y,1/2+z
1/2+x,1/2+y,z
1/2-x,-y,z
1/2+x,-y,1/2-z
1/2-x,1/2+y,1/2-z
1/2-x,1/2-y,-z
1/2+x,y,-z
1/2-x,y,1/2+z
1/2+x,1/2-y,1/2+z
loop_
_atom_site_type_symbol
_atom_site_label
_atom_site_fract_x
_atom_site_fract_y
_atom_site_fract_z
Si Si1 0.210612 0.150140 0.545612
Si Si2 0.479847 0.461811 0.438471
Si Si3 0.642246 0.338584 0.631162
Si Si4 0.111952 0.091477 0.246059
Si Si5 0.643519 0.481350 0.860167
O O1 0.250000 0.250000 0.500000
O O2 0.257175 0.173209 0.603928
O O3 0.250000 0.000000 0.528773
O O4 0.100073 0.153369 0.554545
O O5 0.500000 0.500000 0.500000
O O6 0.424467 0.589895 0.412015
O O7 0.569402 0.444603 0.399339
O O8 0.638354 0.435547 0.683930
O O9 0.613848 0.180388 0.640227
O O10 0.147984 0.250000 0.250000
O O11 0.142295 0.991981 0.295017
O O12 0.000000 0.095631 0.250000
O O13 0.750000 0.500000 0.879257
#
# Coordination Sequence:
#
# PCOD9508139 Si02
#       5
#    16  16  16  16  16
#     4  10  23  42  65  95 133 182 233 288 345 417
#     4  11  23  39  62  93 129 175 224 277 342 419
#     4  10  21  41  66  93 132 178 233 288 348 422
#     4   9  17  36  66  94 125 172 230 279 344 414
#     4  11  23  39  64 101 136 173 225 292 356 418
#
# _framework density 23.288414
#
# number of rings (size 3 to 8) (size 9 to 14) (size 15 to 20)
#    0.000    1.800    2.000    1.800    0.000   10.400 
#    0.000    5.000    0.000    0.000    0.000    0.000 
#    0.000    0.000    0.000    0.000    0.000    0.200 
#
# Total GULP energy -223240.855527 kJ/mol
# GULP energy per Si atom -5581.021388 kJ/mol
# Density = 2.323541 g / cm^3
# Si number density = 23.288414 Si / 1000 Ang^3
#
#
#
# Elastic Constant Matrix: (Units=GPa)
#
#
# Indices 1 2 3 4 5 6 
#
# 1 174.3314 5.8058 85.5176 0.0000 0.0000 0.0000
# 2 5.8058 70.1199 25.0174 0.0000 0.0000 0.0000
# 3 85.5176 25.0174 207.0050 0.0000 0.0000 0.0000
# 4 0.0000 0.0000 0.0000 19.5135 0.0000 0.0000
# 5 0.0000 0.0000 0.0000 0.0000 -32.4147 0.0000
# 6 0.0000 0.0000 0.0000 0.0000 0.0000 24.9228
#
#
#
# Elastic Compliance Matrix: (Units=1/GPa)
#
#
# Indices 1 2 3 4 5 6 
#
# 1 0.007210 0.000487 -0.003037 0.000000 0.000000 0.000000
# 2 0.000487 0.014937 -0.002006 0.000000 0.000000 0.000000
# 3 -0.003037 -0.002006 0.006328 0.000000 0.000000 0.000000
# 4 0.000000 0.000000 0.000000 0.051247 0.000000 0.000000
# 5 0.000000 0.000000 0.000000 0.000000 -0.030850 0.000000
# 6 0.000000 0.000000 0.000000 0.000000 0.000000 0.040124
#
#
# Mechanical properties :
#
#
# Convention : Reuss Voigt Hill
#
# Bulk Modulus (GPa) = 51.65033 76.01532 63.83282
# Shear Modulus (GPa) = 47.81828 24.74537 36.28183
#
# Velocity S-wave (km/s) = 4.53626 3.26323 3.95135
# Velocity P-wave (km/s) = 7.04724 6.84908 6.94887
#
# Compressibility (1/GPa) = 0.01936096
#
# Stress axis : x y z
#
# Youngs Moduli (GPa) = 138.69676 66.94890 158.02615
#
# Poissons Ratio (x) = -0.03258 0.47999
# Poissons Ratio (y) = -0.06751 0.31704
# Poissons Ratio (z) = 0.42128 0.13432
#
# Static dielectric constant tensor:
#      x y z
#    x 1.928790 0.000000 0.000000 
#    y 0.000000 1.928190 0.000000 
#    z 0.000000 0.000000 2.006600 
# 
# From -- ./inp_files/45153.got.cif
#   From: 2010.05.17/outbox.cif.g08.bks.cpg/sg68_23_cif.got.tgz:45153.got - 2010.06.03 18:57:09.
