data_PCOD9508956
_publ_section_title
;
Structure prediction by ZEFSAII (Michael W. Deem and Ramdas Pophale) SiO2 
 PCOD9508956
Probable space group: C C C A
;
_chemical_formula_sum "Si O2"
_cell_formula_units_Z 96
_cell_length_a 21.068834
_cell_length_b 24.108305
_cell_length_c 10.269611
_cell_angle_alpha 90.000000
_cell_angle_beta 90.000000
_cell_angle_gamma 90.000000
_cell_volume 5216.283321
_symmetry_space_group_name_H-M "C C C A"
_symmetry_group_IT_number 68
_space_group.IT_coordinate_system_code '2'
_symmetry_cell_setting 'orthorhombic'
loop_
_space_group_symop_operation_xyz
x,y,z
-x,1/2-y,z
x,1/2-y,1/2-z
-x,y,1/2-z
-x,-y,-z
x,1/2+y,-z
-x,1/2+y,1/2+z
x,-y,1/2+z
1/2+x,1/2+y,z
1/2-x,-y,z
1/2+x,-y,1/2-z
1/2-x,1/2+y,1/2-z
1/2-x,1/2-y,-z
1/2+x,y,-z
1/2-x,y,1/2+z
1/2+x,1/2-y,1/2+z
loop_
_atom_site_type_symbol
_atom_site_label
_atom_site_fract_x
_atom_site_fract_y
_atom_site_fract_z
Si Si1 0.382265 0.925855 0.006923
Si Si2 0.649615 0.622504 0.289615
Si Si3 0.459690 0.307295 0.639390
Si Si4 0.879892 0.554893 0.053889
Si Si5 0.493114 0.871436 0.611694
Si Si6 0.778898 0.437022 0.783269
O O1 0.371651 0.898018 0.147239
O O2 0.392591 0.990593 0.032528
O O3 0.441690 0.896985 0.938929
O O4 0.323392 0.924799 0.906991
O O5 0.613463 0.681378 0.317293
O O6 0.628502 0.583988 0.412644
O O7 0.724792 0.610270 0.283710
O O8 0.500000 0.250000 0.631198
O O9 0.500000 0.340040 0.750000
O O10 0.466612 0.331549 0.497746
O O11 0.819604 0.563148 0.149402
O O12 0.940584 0.580824 0.124813
O O13 0.500000 0.842925 0.750000
O O14 0.750000 0.500000 0.795206
#
# Coordination Sequence:
#
# PCOD9508956 Si02
#       6
#    16  16  16  16  16  16
#     4  12  21  37  55  87 134 176 205 250 300 372
#     4  11  23  35  60  91 120 163 223 248 303 387
#     4  10  22  44  68  88 108 150 213 278 333 362
#     4  11  22  36  55  85 132 176 210 244 297 373
#     4  11  23  39  58  92 119 162 212 266 315 373
#     4  12  22  36  56  86 135 183 207 236 298 383
#
# _framework density 18.403908999999999
#
# number of rings (size 3 to 8) (size 9 to 14) (size 15 to 20)
#    0.000    0.833    6.667    1.500    0.000    0.333 
#    0.000    0.000    0.000    1.000    4.333    0.000 
#    0.000    0.000    0.000    0.000    0.000    0.000 
#
# Total GULP energy -267314.953031 kJ/mol
# GULP energy per Si atom -5569.061521 kJ/mol
# Density = 1.836202 g / cm^3
# Si number density = 18.403909 Si / 1000 Ang^3
#
#
#
# Elastic Constant Matrix: (Units=GPa)
#
#
# Indices 1 2 3 4 5 6 
#
# 1 89.0835 27.4300 26.5060 0.0000 0.0000 0.0000
# 2 27.4300 61.1249 18.7704 0.0000 0.0000 0.0000
# 3 26.5060 18.7704 139.1891 0.0000 0.0000 0.0000
# 4 0.0000 0.0000 0.0000 6.5312 0.0000 0.0000
# 5 0.0000 0.0000 0.0000 0.0000 37.9126 0.0000
# 6 0.0000 0.0000 0.0000 0.0000 0.0000 48.2385
#
#
#
# Elastic Compliance Matrix: (Units=1/GPa)
#
#
# Indices 1 2 3 4 5 6 
#
# 1 0.013455 -0.005478 -0.001823 0.000000 0.000000 0.000000
# 2 -0.005478 0.019297 -0.001559 0.000000 0.000000 0.000000
# 3 -0.001823 -0.001559 0.007742 0.000000 0.000000 0.000000
# 4 0.000000 0.000000 0.000000 0.153111 0.000000 0.000000
# 5 0.000000 0.000000 0.000000 0.000000 0.026376 0.000000
# 6 0.000000 0.000000 0.000000 0.000000 0.000000 0.020730
#
#
# Mechanical properties :
#
#
# Convention : Reuss Voigt Hill
#
# Bulk Modulus (GPa) = 43.91237 48.31226 46.11231
# Shear Modulus (GPa) = 18.79534 32.98253 25.88893
#
# Velocity S-wave (km/s) = 3.19920 4.23797 3.75468
# Velocity P-wave (km/s) = 6.12851 7.08909 6.62623
#
# Compressibility (1/GPa) = 0.02277263
#
# Stress axis : x y z
#
# Youngs Moduli (GPa) = 74.32350 51.82167 129.16594
#
# Poissons Ratio (x) = 0.28387 0.23553
# Poissons Ratio (y) = 0.40714 0.20139
# Poissons Ratio (z) = 0.13553 0.08080
#
# Static dielectric constant tensor:
#      x y z
#    x 1.628080 0.000000 0.000000 
#    y 0.000000 0.968060 0.000000 
#    z 0.000000 0.000000 1.652890 
# 
# From -- ./inp_files/8154.got.cif
#   From: 2010.05.17/outbox.cif.g08.bks.cpg/sg68_5_cif.got.tgz:8154.got - 2010.06.03 18:57:09.
