data_PCOD9508656
_publ_section_title
;
Structure prediction by ZEFSAII (Michael W. Deem and Ramdas Pophale) SiO2 
 PCOD9508656
Probable space group: C C C A
;
_chemical_formula_sum "Si O2"
_cell_formula_units_Z 64
_cell_length_a 5.095848
_cell_length_b 30.670050
_cell_length_c 18.149099
_cell_angle_alpha 90.000000
_cell_angle_beta 90.000000
_cell_angle_gamma 90.000000
_cell_volume 2836.521103
_symmetry_space_group_name_H-M "C C C A"
_symmetry_group_IT_number 68
_space_group.IT_coordinate_system_code '2'
_symmetry_cell_setting 'orthorhombic'
loop_
_space_group_symop_operation_xyz
x,y,z
-x,1/2-y,z
x,1/2-y,1/2-z
-x,y,1/2-z
-x,-y,-z
x,1/2+y,-z
-x,1/2+y,1/2+z
x,-y,1/2+z
1/2+x,1/2+y,z
1/2-x,-y,z
1/2+x,-y,1/2-z
1/2-x,1/2+y,1/2-z
1/2-x,1/2-y,-z
1/2+x,y,-z
1/2-x,y,1/2+z
1/2+x,1/2-y,1/2+z
loop_
_atom_site_type_symbol
_atom_site_label
_atom_site_fract_x
_atom_site_fract_y
_atom_site_fract_z
Si Si1 0.750000 0.500000 0.303369
Si Si2 0.252057 0.280255 0.366388
Si Si3 0.633442 0.406997 0.329636
Si Si4 0.292338 0.364899 0.455002
Si Si5 0.500000 0.658959 0.250000
O O1 0.500000 0.505390 0.250000
O O2 0.732962 0.455256 0.349133
O O3 0.500000 0.250000 0.355198
O O4 0.302335 0.314156 0.432274
O O5 0.000000 0.250000 0.379610
O O6 0.195189 0.309889 0.294713
O O7 0.500000 0.412532 0.250000
O O8 0.418118 0.390683 0.386957
O O9 0.853712 0.370986 0.310436
O O10 0.495080 0.374343 0.521484
#
# Coordination Sequence:
#
# PCOD9508656 Si02
#       5
#     8  16  16  16   8
#     4  10  22  40  70 112 138 168 226 292 338 404
#     4  12  27  44  67  99 137 183 237 296 346 405
#     4  11  23  44  75 104 137 182 229 286 340 420
#     4  12  27  46  68 100 142 188 230 282 350 416
#     4  12  23  42  72 104 140 174 234 292 355 400
#
# _framework density 22.562847999999999
#
# number of rings (size 3 to 8) (size 9 to 14) (size 15 to 20)
#    0.000    0.500    3.750    4.875    0.000    6.000 
#    0.000    1.250    0.000    0.000    0.000    0.000 
#    0.000    0.000    0.000    0.000    0.000    0.000 
#
# Total GULP energy -179226.969433 kJ/mol
# GULP energy per Si atom -5600.842795 kJ/mol
# Density = 2.251149 g / cm^3
# Si number density = 22.562848 Si / 1000 Ang^3
#
#
#
# Elastic Constant Matrix: (Units=GPa)
#
#
# Indices 1 2 3 4 5 6 
#
# 1 118.2269 33.8240 6.2886 0.0000 0.0000 0.0000
# 2 33.8240 126.3241 10.3017 0.0000 0.0000 0.0000
# 3 6.2886 10.3017 74.1059 0.0000 0.0000 0.0000
# 4 0.0000 0.0000 0.0000 18.7330 0.0000 0.0000
# 5 0.0000 0.0000 0.0000 0.0000 50.6078 0.0000
# 6 0.0000 0.0000 0.0000 0.0000 0.0000 20.8719
#
#
#
# Elastic Compliance Matrix: (Units=1/GPa)
#
#
# Indices 1 2 3 4 5 6 
#
# 1 0.009174 -0.002420 -0.000442 0.000000 0.000000 0.000000
# 2 -0.002420 0.008645 -0.000996 0.000000 0.000000 0.000000
# 3 -0.000442 -0.000996 0.013670 0.000000 0.000000 0.000000
# 4 0.000000 0.000000 0.000000 0.053382 0.000000 0.000000
# 5 0.000000 0.000000 0.000000 0.000000 0.019760 0.000000
# 6 0.000000 0.000000 0.000000 0.000000 0.000000 0.047911
#
#
# Mechanical properties :
#
#
# Convention : Reuss Voigt Hill
#
# Bulk Modulus (GPa) = 42.06598 46.60949 44.33773
# Shear Modulus (GPa) = 29.72923 35.92539 32.82731
#
# Velocity S-wave (km/s) = 3.63384 3.99461 3.81849
# Velocity P-wave (km/s) = 6.02418 6.47907 6.25576
#
# Compressibility (1/GPa) = 0.02377218
#
# Stress axis : x y z
#
# Youngs Moduli (GPa) = 109.00023 115.66735 73.15164
#
# Poissons Ratio (x) = 0.27996 0.03234
# Poissons Ratio (y) = 0.26383 0.07289
# Poissons Ratio (z) = 0.04818 0.11526
#
# Static dielectric constant tensor:
#      x y z
#    x 1.843620 0.000000 0.000000 
#    y 0.000000 1.845630 0.000000 
#    z 0.000000 0.000000 1.862080 
# 
# From -- ./inp_files/27145.got.cif
#   From: 2010.05.17/outbox.cif.g08.bks.cpg/sg68_14_cif.got.tgz:27145.got - 2010.06.03 18:57:09.
