data_PCOD9508199
_publ_section_title
;
Structure prediction by ZEFSAII (Michael W. Deem and Ramdas Pophale) SiO2 
 PCOD9508199
Probable space group: C C C A
;
_chemical_formula_sum "Si O2"
_cell_formula_units_Z 60
_cell_length_a 25.170319
_cell_length_b 13.232920
_cell_length_c 8.733638
_cell_angle_alpha 90.000000
_cell_angle_beta 90.000000
_cell_angle_gamma 90.000000
_cell_volume 2908.972352
_symmetry_space_group_name_H-M "C C C A"
_symmetry_group_IT_number 68
_space_group.IT_coordinate_system_code '2'
_symmetry_cell_setting 'orthorhombic'
loop_
_space_group_symop_operation_xyz
x,y,z
-x,1/2-y,z
x,1/2-y,1/2-z
-x,y,1/2-z
-x,-y,-z
x,1/2+y,-z
-x,1/2+y,1/2+z
x,-y,1/2+z
1/2+x,1/2+y,z
1/2-x,-y,z
1/2+x,-y,1/2-z
1/2-x,1/2+y,1/2-z
1/2-x,1/2-y,-z
1/2+x,y,-z
1/2-x,y,1/2+z
1/2+x,1/2-y,1/2+z
loop_
_atom_site_type_symbol
_atom_site_label
_atom_site_fract_x
_atom_site_fract_y
_atom_site_fract_z
Si Si1 0.500000 0.250000 0.750000
Si Si2 0.775691 0.368325 0.279537
Si Si3 0.061707 0.100501 0.037541
Si Si4 0.500000 0.559018 0.750000
Si Si5 0.682776 0.048684 0.036166
O O1 0.459096 0.309483 0.857870
O O2 0.786732 0.250000 0.250000
O O3 0.715302 0.386241 0.337174
O O4 0.810224 0.432742 0.404672
O O5 0.788125 0.423141 0.120974
O O6 0.034957 0.115980 0.872739
O O7 0.122684 0.079392 0.998781
O O8 0.038196 0.007466 0.138796
#
# Coordination Sequence:
#
# PCOD9508199 Si02
#       5
#     4  16  16   8  16
#     4  10  24  42  64 102 140 176 248 294 352 434
#     4  11  24  43  64 103 138 181 236 288 339 438
#     4  10  21  42  66  97 133 185 228 297 355 411
#     4   9  20  40  66  91 132 172 236 287 345 418
#     4  11  23  42  69  95 142 185 231 289 355 409
#
# _framework density 20.625841000000001
#
# number of rings (size 3 to 8) (size 9 to 14) (size 15 to 20)
#    0.000    1.600    0.000    5.600    1.867    0.533 
#    4.800    0.000    0.000    0.000    0.000    0.000 
#    0.000    0.000    0.000    0.000    0.000    0.000 
#
# Total GULP energy -167077.268657 kJ/mol
# GULP energy per Si atom -5569.242289 kJ/mol
# Density = 2.057890 g / cm^3
# Si number density = 20.625841 Si / 1000 Ang^3
#
#
#
# Elastic Constant Matrix: (Units=GPa)
#
#
# Indices 1 2 3 4 5 6 
#
# 1 185.1475 73.2463 85.3300 0.0000 0.0000 0.0000
# 2 73.2463 137.7472 70.5642 0.0000 0.0000 0.0000
# 3 85.3300 70.5642 180.9017 0.0000 0.0000 0.0000
# 4 0.0000 0.0000 0.0000 210.4320 0.0000 0.0000
# 5 0.0000 0.0000 0.0000 0.0000 27.2932 0.0000
# 6 0.0000 0.0000 0.0000 0.0000 0.0000 16.1920
#
#
#
# Elastic Compliance Matrix: (Units=1/GPa)
#
#
# Indices 1 2 3 4 5 6 
#
# 1 0.007668 -0.002780 -0.002533 0.000000 0.000000 0.000000
# 2 -0.002780 0.010081 -0.002621 0.000000 0.000000 0.000000
# 3 -0.002533 -0.002621 0.007745 0.000000 0.000000 0.000000
# 4 0.000000 0.000000 0.000000 0.004752 0.000000 0.000000
# 5 0.000000 0.000000 0.000000 0.000000 0.036639 0.000000
# 6 0.000000 0.000000 0.000000 0.000000 0.000000 0.061759
#
#
# Mechanical properties :
#
#
# Convention : Reuss Voigt Hill
#
# Bulk Modulus (GPa) = 103.87952 106.89748 105.38850
# Shear Modulus (GPa) = 33.84800 69.09383 51.47091
#
# Velocity S-wave (km/s) = 4.05538 5.79408 5.00088
# Velocity P-wave (km/s) = 8.50889 9.83368 9.19518
#
# Compressibility (1/GPa) = 0.00962654
#
# Stress axis : x y z
#
# Youngs Moduli (GPa) = 130.40969 99.20117 129.12005
#
# Poissons Ratio (x) = 0.27579 0.32701
# Poissons Ratio (y) = 0.36255 0.33839
# Poissons Ratio (z) = 0.33027 0.25998
#
# Static dielectric constant tensor:
#      x y z
#    x 1.765050 0.000000 0.000000 
#    y 0.000000 1.800550 0.000000 
#    z 0.000000 0.000000 1.742420 
# 
# From -- ./inp_files/5100.got.cif
#   From: 2010.05.17/outbox.cif.g08.bks.cpg/sg68_3_cif.got.tgz:5100.got - 2010.06.03 18:57:09.
