data_PCOD9508242
_publ_section_title
;
Structure prediction by ZEFSAII (Michael W. Deem and Ramdas Pophale) SiO2 
 PCOD9508242
Probable space group: C C C A
;
_chemical_formula_sum "Si O2"
_cell_formula_units_Z 68
_cell_length_a 13.537497
_cell_length_b 18.587747
_cell_length_c 11.071082
_cell_angle_alpha 90.000000
_cell_angle_beta 90.000000
_cell_angle_gamma 90.000000
_cell_volume 2785.833737
_symmetry_space_group_name_H-M "C C C A"
_symmetry_group_IT_number 68
_space_group.IT_coordinate_system_code '2'
_symmetry_cell_setting 'orthorhombic'
loop_
_space_group_symop_operation_xyz
x,y,z
-x,1/2-y,z
x,1/2-y,1/2-z
-x,y,1/2-z
-x,-y,-z
x,1/2+y,-z
-x,1/2+y,1/2+z
x,-y,1/2+z
1/2+x,1/2+y,z
1/2-x,-y,z
1/2+x,-y,1/2-z
1/2-x,1/2+y,1/2-z
1/2-x,1/2-y,-z
1/2+x,y,-z
1/2-x,y,1/2+z
1/2+x,1/2-y,1/2+z
loop_
_atom_site_type_symbol
_atom_site_label
_atom_site_fract_x
_atom_site_fract_y
_atom_site_fract_z
Si Si1 0.658774 0.206145 0.918919
Si Si2 0.831598 0.864035 0.523283
Si Si3 0.000000 0.250000 0.250000
Si Si4 0.437030 0.992975 0.373245
Si Si5 0.535378 0.652069 0.877952
O O1 0.687112 0.290010 0.901614
O O2 0.568899 0.197656 0.827756
O O3 0.743553 0.146047 0.924989
O O4 0.606876 0.203021 0.049228
O O5 0.849685 0.935783 0.601423
O O6 0.936624 0.858358 0.456465
O O7 0.500000 0.975582 0.250000
O O8 0.500000 0.000000 0.500000
O O9 0.407741 0.076379 0.357433
O O10 0.500000 0.676806 0.750000
#
# Coordination Sequence:
#
# PCOD9508242 Si02
#       5
#    16  16   4  16  16
#     4  11  24  39  66  99 140 189 244 307 374 461
#     4  10  22  40  62 103 132 184 243 294 375 444
#     4  12  24  44  62 100 150 208 256 320 400 448
#     4   9  20  39  69 100 140 184 237 302 369 443
#     4  10  21  43  66  96 137 179 234 309 379 444
#
# _framework density 24.409210000000002
#
# number of rings (size 3 to 8) (size 9 to 14) (size 15 to 20)
#    0.000    1.882    2.353    0.000    1.647    6.588 
#    0.000    0.000    0.000   14.118    0.000    0.000 
#    0.000    0.000    0.000    0.000    0.000    0.000 
#
# Total GULP energy -189480.007981 kJ/mol
# GULP energy per Si atom -5572.941411 kJ/mol
# Density = 2.435365 g / cm^3
# Si number density = 24.409210 Si / 1000 Ang^3
#
#
#
# Elastic Constant Matrix: (Units=GPa)
#
#
# Indices 1 2 3 4 5 6 
#
# 1 136.1359 51.1911 42.0100 0.0000 0.0000 0.0000
# 2 51.1911 190.2819 34.3658 0.0000 0.0000 0.0000
# 3 42.0100 34.3658 98.5771 0.0000 0.0000 0.0000
# 4 0.0000 0.0000 0.0000 24.9241 0.0000 0.0000
# 5 0.0000 0.0000 0.0000 0.0000 28.7527 0.0000
# 6 0.0000 0.0000 0.0000 0.0000 0.0000 18.7846
#
#
#
# Elastic Compliance Matrix: (Units=1/GPa)
#
#
# Indices 1 2 3 4 5 6 
#
# 1 0.009030 -0.001851 -0.003203 0.000000 0.000000 0.000000
# 2 -0.001851 0.005988 -0.001299 0.000000 0.000000 0.000000
# 3 -0.003203 -0.001299 0.011962 0.000000 0.000000 0.000000
# 4 0.000000 0.000000 0.000000 0.040122 0.000000 0.000000
# 5 0.000000 0.000000 0.000000 0.000000 0.034779 0.000000
# 6 0.000000 0.000000 0.000000 0.000000 0.000000 0.053235
#
#
# Mechanical properties :
#
#
# Convention : Reuss Voigt Hill
#
# Bulk Modulus (GPa) = 70.05350 75.56984 72.81167
# Shear Modulus (GPa) = 28.97215 34.32083 31.64649
#
# Velocity S-wave (km/s) = 3.44893 3.75382 3.60460
# Velocity P-wave (km/s) = 6.67998 7.05797 6.87157
#
# Compressibility (1/GPa) = 0.01427480
#
# Stress axis : x y z
#
# Youngs Moduli (GPa) = 110.74222 167.00521 83.59734
#
# Poissons Ratio (x) = 0.30910 0.26776
# Poissons Ratio (y) = 0.20497 0.10857
# Poissons Ratio (z) = 0.35471 0.21689
#
# Static dielectric constant tensor:
#      x y z
#    x 2.099920 0.000000 0.000000 
#    y 0.000000 2.016520 0.000000 
#    z 0.000000 0.000000 0.965660 
# 
# From -- ./inp_files/13020.got.cif
#   From: 2010.05.17/outbox.cif.g08.bks.cpg/sg68_7_cif.got.tgz:13020.got - 2010.06.03 18:57:09.
