data_PCOD9508428
_publ_section_title
;
Structure prediction by ZEFSAII (Michael W. Deem and Ramdas Pophale) SiO2 
 PCOD9508428
Probable space group: C C C A
;
_chemical_formula_sum "Si O2"
_cell_formula_units_Z 40
_cell_length_a 18.388811
_cell_length_b 7.901270
_cell_length_c 10.119831
_cell_angle_alpha 90.000000
_cell_angle_beta 90.000000
_cell_angle_gamma 90.000000
_cell_volume 1470.360447
_symmetry_space_group_name_H-M "C C C A"
_symmetry_group_IT_number 68
_space_group.IT_coordinate_system_code '2'
_symmetry_cell_setting 'orthorhombic'
loop_
_space_group_symop_operation_xyz
x,y,z
-x,1/2-y,z
x,1/2-y,1/2-z
-x,y,1/2-z
-x,-y,-z
x,1/2+y,-z
-x,1/2+y,1/2+z
x,-y,1/2+z
1/2+x,1/2+y,z
1/2-x,-y,z
1/2+x,-y,1/2-z
1/2-x,1/2+y,1/2-z
1/2-x,1/2-y,-z
1/2+x,y,-z
1/2-x,y,1/2+z
1/2+x,1/2-y,1/2+z
loop_
_atom_site_type_symbol
_atom_site_label
_atom_site_fract_x
_atom_site_fract_y
_atom_site_fract_z
Si Si1 0.750000 0.000000 0.421537
Si Si2 0.075379 0.899404 0.830421
Si Si3 0.139803 0.763748 0.413776
O O1 0.806881 0.877741 0.350778
O O2 0.697930 0.882813 0.509516
O O3 0.118719 0.750000 0.750000
O O4 0.000000 0.903958 0.750000
O O5 0.094910 0.096108 0.836478
O O6 0.086450 0.831215 0.980649
#
# Coordination Sequence:
#
# PCOD9508428 Si02
#       3
#     8  16  16
#     4   8  16  36  68  90 124 178 220 290 360 400
#     4  10  22  38  60  93 138 187 232 282 345 413
#     4   9  18  39  64  94 134 173 232 291 344 417
#
# _framework density 27.204211999999998
#
# number of rings (size 3 to 8) (size 9 to 14) (size 15 to 20)
#    0.000    2.800    0.000    0.000    0.000    6.400 
#    0.000   28.000    0.000    0.000    0.000    0.000 
#    0.000   67.200    0.000    0.000    0.000   20.400 
#
# Total GULP energy -111480.985480 kJ/mol
# GULP energy per Si atom -5574.049274 kJ/mol
# Density = 2.714229 g / cm^3
# Si number density = 27.204212 Si / 1000 Ang^3
#
#
#
# Elastic Constant Matrix: (Units=GPa)
#
#
# Indices 1 2 3 4 5 6 
#
# 1 160.2404 90.0407 73.5374 0.0000 0.0000 0.0000
# 2 90.0407 277.3937 61.9007 0.0000 0.0000 0.0000
# 3 73.5374 61.9007 89.0318 0.0000 0.0000 0.0000
# 4 0.0000 0.0000 0.0000 377.9180 0.0000 0.0000
# 5 0.0000 0.0000 0.0000 0.0000 -53.1651 0.0000
# 6 0.0000 0.0000 0.0000 0.0000 0.0000 43.5581
#
#
#
# Elastic Compliance Matrix: (Units=1/GPa)
#
#
# Indices 1 2 3 4 5 6 
#
# 1 0.010748 -0.001785 -0.007637 0.000000 0.000000 0.000000
# 2 -0.001785 0.004563 -0.001699 0.000000 0.000000 0.000000
# 3 -0.007637 -0.001699 0.018721 0.000000 0.000000 0.000000
# 4 0.000000 0.000000 0.000000 0.002646 0.000000 0.000000
# 5 0.000000 0.000000 0.000000 0.000000 -0.018809 0.000000
# 6 0.000000 0.000000 0.000000 0.000000 0.000000 0.022958
#
#
# Mechanical properties :
#
#
# Convention : Reuss Voigt Hill
#
# Bulk Modulus (GPa) = 84.80364 108.62482 96.71423
# Shear Modulus (GPa) = 74.62964 93.74134 84.18549
#
# Velocity S-wave (km/s) = 5.24335 5.87650 5.56893
# Velocity P-wave (km/s) = 8.24000 9.27687 8.77377
#
# Compressibility (1/GPa) = 0.01179195
#
# Stress axis : x y z
#
# Youngs Moduli (GPa) = 93.03984 219.13842 53.41679
#
# Poissons Ratio (x) = 0.39108 0.40793
# Poissons Ratio (y) = 0.16604 0.09074
# Poissons Ratio (z) = 0.71052 0.37225
#
# Static dielectric constant tensor:
#      x y z
#    x 2.117800 0.000000 0.000000 
#    y 0.000000 2.206270 0.000000 
#    z 0.000000 0.000000 2.229460 
# 
# From -- ./inp_files/13701.got.cif
#   From: 2010.05.17/outbox.cif.g08.bks.cpg/sg68_7_cif.got.tgz:13701.got - 2010.06.03 18:57:09.
