data_PCOD9508907
_publ_section_title
;
Structure prediction by ZEFSAII (Michael W. Deem and Ramdas Pophale) SiO2 
 PCOD9508907
Probable space group: C C C A
;
_chemical_formula_sum "Si O2"
_cell_formula_units_Z 72
_cell_length_a 32.358193
_cell_length_b 8.352789
_cell_length_c 12.847839
_cell_angle_alpha 90.000000
_cell_angle_beta 90.000000
_cell_angle_gamma 90.000000
_cell_volume 3472.528810
_symmetry_space_group_name_H-M "C C C A"
_symmetry_group_IT_number 68
_space_group.IT_coordinate_system_code '2'
_symmetry_cell_setting 'orthorhombic'
loop_
_space_group_symop_operation_xyz
x,y,z
-x,1/2-y,z
x,1/2-y,1/2-z
-x,y,1/2-z
-x,-y,-z
x,1/2+y,-z
-x,1/2+y,1/2+z
x,-y,1/2+z
1/2+x,1/2+y,z
1/2-x,-y,z
1/2+x,-y,1/2-z
1/2-x,1/2+y,1/2-z
1/2-x,1/2-y,-z
1/2+x,y,-z
1/2-x,y,1/2+z
1/2+x,1/2-y,1/2+z
loop_
_atom_site_type_symbol
_atom_site_label
_atom_site_fract_x
_atom_site_fract_y
_atom_site_fract_z
Si Si1 0.307319 0.260371 0.565639
Si Si2 0.864642 0.039583 0.575577
Si Si3 0.750000 0.000000 0.431668
Si Si4 0.442337 0.974886 0.579425
Si Si5 0.000000 0.250000 0.060815
Si Si6 0.405962 0.250000 0.250000
O O1 0.342306 0.376153 0.612351
O O2 0.331821 0.152174 0.482756
O O3 0.277163 0.383090 0.504834
O O4 0.280027 0.126950 0.626933
O O5 0.880192 0.138992 0.673039
O O6 0.902010 0.009364 0.492897
O O7 0.472358 0.866597 0.509608
O O8 0.431462 0.869267 0.678190
O O9 0.466764 0.134093 0.614556
#
# Coordination Sequence:
#
# PCOD9508907 Si02
#       6
#    16  16   8  16   8   8
#     4   9  17  33  63  93 130 162 219 266 316 392
#     4  11  20  39  63  95 127 170 220 273 318 396
#     4   8  16  30  60 100 114 180 208 246 348 384
#     4  11  22  43  65  96 126 173 216 273 332 400
#     4  10  22  43  69  86 138 160 210 288 328 388
#     4  12  24  39  70  92 134 174 228 268 344 392
#
# _framework density 20.734169000000001
#
# number of rings (size 3 to 8) (size 9 to 14) (size 15 to 20)
#    0.000    1.778    4.444    0.000    0.000    0.444 
#    0.000    5.556    0.000    8.000    0.000    0.000 
#    0.000    0.000    0.000    0.000    0.000    0.000 
#
# Total GULP energy -200617.505815 kJ/mol
# GULP energy per Si atom -5572.708495 kJ/mol
# Density = 2.068698 g / cm^3
# Si number density = 20.734169 Si / 1000 Ang^3
#
#
#
# Elastic Constant Matrix: (Units=GPa)
#
#
# Indices 1 2 3 4 5 6 
#
# 1 117.4900 81.7952 33.4166 0.0000 0.0000 0.0000
# 2 81.7952 185.4204 45.8530 0.0000 0.0000 0.0000
# 3 33.4166 45.8530 57.1270 0.0000 0.0000 0.0000
# 4 0.0000 0.0000 0.0000 38.6964 0.0000 0.0000
# 5 0.0000 0.0000 0.0000 0.0000 2.5975 0.0000
# 6 0.0000 0.0000 0.0000 0.0000 0.0000 85.8221
#
#
#
# Elastic Compliance Matrix: (Units=1/GPa)
#
#
# Indices 1 2 3 4 5 6 
#
# 1 0.012885 -0.004766 -0.003712 0.000000 0.000000 0.000000
# 2 -0.004766 0.008492 -0.004028 0.000000 0.000000 0.000000
# 3 -0.003712 -0.004028 0.022909 0.000000 0.000000 0.000000
# 4 0.000000 0.000000 0.000000 0.025842 0.000000 0.000000
# 5 0.000000 0.000000 0.000000 0.000000 0.384984 0.000000
# 6 0.000000 0.000000 0.000000 0.000000 0.000000 0.011652
#
#
# Mechanical properties :
#
#
# Convention : Reuss Voigt Hill
#
# Bulk Modulus (GPa) = 51.88213 75.79631 63.83922
# Shear Modulus (GPa) = 10.03611 38.68803 24.36207
#
# Velocity S-wave (km/s) = 2.20247 4.32430 3.43151
# Velocity P-wave (km/s) = 5.61647 7.84655 6.82323
#
# Compressibility (1/GPa) = 0.01927446
#
# Stress axis : x y z
#
# Youngs Moduli (GPa) = 77.60813 117.76100 43.65103
#
# Poissons Ratio (x) = 0.56128 0.16202
# Poissons Ratio (y) = 0.36990 0.17582
# Poissons Ratio (z) = 0.28805 0.47433
#
# Static dielectric constant tensor:
#      x y z
#    x 1.822210 0.000000 0.000000 
#    y 0.000000 1.780670 0.000000 
#    z 0.000000 0.000000 1.797140 
# 
# From -- ./inp_files/19515.got.cif
#   From: 2010.05.17/outbox.cif.g08.bks.cpg/sg68_10_cif.got.tgz:19515.got - 2010.06.03 18:57:09.
