data_PCOD9508001
_publ_section_title
;
Structure prediction by ZEFSAII (Michael W. Deem and Ramdas Pophale) SiO2 
 PCOD9508001
Probable space group: C C C A
;
_chemical_formula_sum "Si O2"
_cell_formula_units_Z 56
_cell_length_a 12.866880
_cell_length_b 7.945370
_cell_length_c 23.191920
_cell_angle_alpha 90.000000
_cell_angle_beta 90.000000
_cell_angle_gamma 90.000000
_cell_volume 2370.959203
_symmetry_space_group_name_H-M "C C C A"
_symmetry_group_IT_number 68
_space_group.IT_coordinate_system_code '2'
_symmetry_cell_setting 'orthorhombic'
loop_
_space_group_symop_operation_xyz
x,y,z
-x,1/2-y,z
x,1/2-y,1/2-z
-x,y,1/2-z
-x,-y,-z
x,1/2+y,-z
-x,1/2+y,1/2+z
x,-y,1/2+z
1/2+x,1/2+y,z
1/2-x,-y,z
1/2+x,-y,1/2-z
1/2-x,1/2+y,1/2-z
1/2-x,1/2-y,-z
1/2+x,y,-z
1/2-x,y,1/2+z
1/2+x,1/2-y,1/2+z
loop_
_atom_site_type_symbol
_atom_site_label
_atom_site_fract_x
_atom_site_fract_y
_atom_site_fract_z
Si Si1 0.145981 0.569859 0.720594
Si Si2 0.250000 0.500000 0.541346
Si Si3 0.549325 0.064978 0.331723
Si Si4 0.383468 0.814756 0.554452
O O1 0.157492 0.750000 0.750000
O O2 0.250000 0.500000 0.692856
O O3 0.120153 0.452962 0.775731
O O4 0.047235 0.560333 0.678575
O O5 0.312990 0.652475 0.571038
O O6 0.332907 0.406221 0.499879
O O7 0.500000 0.250000 0.331687
O O8 0.608348 0.055860 0.391997
O O9 0.500000 0.750000 0.541676
#
# Coordination Sequence:
#
# PCOD9508001 Si02
#       4
#    16   8  16  16
#     4  11  22  41  65  94 136 178 224 280 342 411
#     4  10  22  44  72  94 138 184 224 290 346 392
#     4  10  21  40  62  97 134 170 221 279 331 409
#     4  10  22  43  67 102 136 174 231 281 342 404
#
# _framework density 23.619133999999999
#
# number of rings (size 3 to 8) (size 9 to 14) (size 15 to 20)
#    0.000    1.714    0.000    6.000    2.000    0.000 
#   20.571   14.286    0.000    0.000    0.000    0.000 
#    0.000    0.000    0.000    0.000    0.000    0.000 
#
# Total GULP energy -156625.162621 kJ/mol
# GULP energy per Si atom -5593.755808 kJ/mol
# Density = 2.356538 g / cm^3
# Si number density = 23.619134 Si / 1000 Ang^3
#
#
#
# Elastic Constant Matrix: (Units=GPa)
#
#
# Indices 1 2 3 4 5 6 
#
# 1 138.1005 32.7074 48.2721 0.0000 0.0000 0.0000
# 2 32.7074 89.8951 11.1478 0.0000 0.0000 0.0000
# 3 48.2721 11.1478 75.8780 0.0000 0.0000 0.0000
# 4 0.0000 0.0000 0.0000 -80.3519 0.0000 0.0000
# 5 0.0000 0.0000 0.0000 0.0000 -13.8955 0.0000
# 6 0.0000 0.0000 0.0000 0.0000 0.0000 43.4543
#
#
#
# Elastic Compliance Matrix: (Units=1/GPa)
#
#
# Indices 1 2 3 4 5 6 
#
# 1 0.010004 -0.002904 -0.005938 0.000000 0.000000 0.000000
# 2 -0.002904 0.012173 0.000059 0.000000 0.000000 0.000000
# 3 -0.005938 0.000059 0.016948 0.000000 0.000000 0.000000
# 4 0.000000 0.000000 0.000000 -0.012445 0.000000 0.000000
# 5 0.000000 0.000000 0.000000 0.000000 -0.071966 0.000000
# 6 0.000000 0.000000 0.000000 0.000000 0.000000 0.023013
#
#
# Mechanical properties :
#
#
# Convention : Reuss Voigt Hill
#
# Bulk Modulus (GPa) = 46.38224 54.23646 50.30935
# Shear Modulus (GPa) = 2016.18880 3.95780 1010.07330
#
# Velocity S-wave (km/s) = 29.24856 1.29588 20.70215
# Velocity P-wave (km/s) = 34.06344 5.02512 24.34717
#
# Compressibility (1/GPa) = 0.02155998
#
# Stress axis : x y z
#
# Youngs Moduli (GPa) = 99.95627 82.14740 59.00382
#
# Poissons Ratio (x) = 0.23853 0.35036
# Poissons Ratio (y) = 0.29024 -0.00347
# Poissons Ratio (z) = 0.59354 -0.00483
#
# Static dielectric constant tensor:
#      x y z
#    x 1.926250 0.000000 0.000000 
#    y 0.000000 1.651600 0.000000 
#    z 0.000000 0.000000 1.934170 
# 
# From -- ./inp_files/38177.got.cif
#   From: 2010.05.17/outbox.cif.g08.bks.cpg/sg68_20_cif.got.tgz:38177.got - 2010.06.03 18:57:09.
