data_PCOD9508212
_publ_section_title
;
Structure prediction by ZEFSAII (Michael W. Deem and Ramdas Pophale) SiO2 
 PCOD9508212
Probable space group: C C C A
;
_chemical_formula_sum "Si O2"
_cell_formula_units_Z 72
_cell_length_a 16.593491
_cell_length_b 10.527804
_cell_length_c 18.955048
_cell_angle_alpha 90.000000
_cell_angle_beta 90.000000
_cell_angle_gamma 90.000000
_cell_volume 3311.314597
_symmetry_space_group_name_H-M "C C C A"
_symmetry_group_IT_number 68
_space_group.IT_coordinate_system_code '2'
_symmetry_cell_setting 'orthorhombic'
loop_
_space_group_symop_operation_xyz
x,y,z
-x,1/2-y,z
x,1/2-y,1/2-z
-x,y,1/2-z
-x,-y,-z
x,1/2+y,-z
-x,1/2+y,1/2+z
x,-y,1/2+z
1/2+x,1/2+y,z
1/2-x,-y,z
1/2+x,-y,1/2-z
1/2-x,1/2+y,1/2-z
1/2-x,1/2-y,-z
1/2+x,y,-z
1/2-x,y,1/2+z
1/2+x,1/2-y,1/2+z
loop_
_atom_site_type_symbol
_atom_site_label
_atom_site_fract_x
_atom_site_fract_y
_atom_site_fract_z
Si Si1 0.694863 0.624499 0.488716
Si Si2 0.478988 0.612159 0.054043
Si Si3 0.200745 0.750000 0.750000
Si Si4 0.927378 0.952979 0.801695
Si Si5 0.808655 0.874974 0.352925
O O1 0.750000 0.500000 0.477537
O O2 0.750000 0.750000 0.500000
O O3 0.618610 0.619303 0.436066
O O4 0.659606 0.624416 0.567786
O O5 0.500000 0.750000 0.023333
O O6 0.535209 0.594983 0.123617
O O7 0.500000 0.500000 0.000000
O O8 0.140142 0.636166 0.766288
O O9 0.259374 0.758567 0.681138
O O10 0.000000 0.955345 0.750000
O O11 0.885431 0.088920 0.807633
O O12 0.750000 0.000000 0.352062
#
# Coordination Sequence:
#
# PCOD9508212 Si02
#       5
#    16  16   8  16  16
#     4  11  24  44  70 102 138 186 240 292 357 436
#     4  12  25  45  71 106 146 191 241 304 369 434
#     4  10  21  42  69  92 126 184 234 288 355 432
#     4  11  23  43  68 100 135 181 238 299 362 430
#     4   9  21  42  65  93 137 175 228 295 351 423
#
# _framework density 21.74363
#
# number of rings (size 3 to 8) (size 9 to 14) (size 15 to 20)
#    0.000    1.333    2.222    3.000    9.333    0.000 
#    8.000    0.556    0.000    0.000    0.000    0.000 
#    0.000    0.000    0.000    0.000    0.000    0.000 
#
# Total GULP energy -200445.226969 kJ/mol
# GULP energy per Si atom -5567.922971 kJ/mol
# Density = 2.169414 g / cm^3
# Si number density = 21.743630 Si / 1000 Ang^3
#
#
#
# Elastic Constant Matrix: (Units=GPa)
#
#
# Indices 1 2 3 4 5 6 
#
# 1 89.2111 56.4482 14.6343 0.0000 0.0000 0.0000
# 2 56.4482 110.2677 20.7154 0.0000 0.0000 0.0000
# 3 14.6343 20.7154 59.5748 0.0000 0.0000 0.0000
# 4 0.0000 0.0000 0.0000 1.7255 0.0000 0.0000
# 5 0.0000 0.0000 0.0000 0.0000 -54.4064 0.0000
# 6 0.0000 0.0000 0.0000 0.0000 0.0000 28.4420
#
#
#
# Elastic Compliance Matrix: (Units=1/GPa)
#
#
# Indices 1 2 3 4 5 6 
#
# 1 0.016660 -0.008302 -0.001206 0.000000 0.000000 0.000000
# 2 -0.008302 0.013840 -0.002773 0.000000 0.000000 0.000000
# 3 -0.001206 -0.002773 0.018046 0.000000 0.000000 0.000000
# 4 0.000000 0.000000 0.000000 0.579531 0.000000 0.000000
# 5 0.000000 0.000000 0.000000 0.000000 -0.018380 0.000000
# 6 0.000000 0.000000 0.000000 0.000000 0.000000 0.035159
#
#
# Mechanical properties :
#
#
# Convention : Reuss Voigt Hill
#
# Bulk Modulus (GPa) = 41.69378 49.18326 45.43852
# Shear Modulus (GPa) = 7.38102 6.30261 6.84181
#
# Velocity S-wave (km/s) = 1.84443 1.70437 1.77579
# Velocity P-wave (km/s) = 4.87368 5.15188 5.01471
#
# Compressibility (1/GPa) = 0.02398440
#
# Stress axis : x y z
#
# Youngs Moduli (GPa) = 60.02253 72.25492 55.41390
#
# Poissons Ratio (x) = 0.59988 0.06681
# Poissons Ratio (y) = 0.49832 0.15366
# Poissons Ratio (z) = 0.07237 0.20036
#
# Static dielectric constant tensor:
#      x y z
#    x 1.789190 0.000000 0.000000 
#    y 0.000000 1.840860 0.000000 
#    z 0.000000 0.000000 1.800550 
# 
# From -- ./inp_files/31626.got.cif
#   From: 2010.05.17/outbox.cif.g08.bks.cpg/sg68_16_cif.got.tgz:31626.got - 2010.06.03 18:57:09.
