data_PCOD9508592
_publ_section_title
;
Structure prediction by ZEFSAII (Michael W. Deem and Ramdas Pophale) SiO2 
 PCOD9508592
Probable space group: C C C A
;
_chemical_formula_sum "Si O2"
_cell_formula_units_Z 96
_cell_length_a 8.414466
_cell_length_b 25.413851
_cell_length_c 22.085191
_cell_angle_alpha 90.000000
_cell_angle_beta 90.000000
_cell_angle_gamma 90.000000
_cell_volume 4722.785257
_symmetry_space_group_name_H-M "C C C A"
_symmetry_group_IT_number 68
_space_group.IT_coordinate_system_code '2'
_symmetry_cell_setting 'orthorhombic'
loop_
_space_group_symop_operation_xyz
x,y,z
-x,1/2-y,z
x,1/2-y,1/2-z
-x,y,1/2-z
-x,-y,-z
x,1/2+y,-z
-x,1/2+y,1/2+z
x,-y,1/2+z
1/2+x,1/2+y,z
1/2-x,-y,z
1/2+x,-y,1/2-z
1/2-x,1/2+y,1/2-z
1/2-x,1/2-y,-z
1/2+x,y,-z
1/2-x,y,1/2+z
1/2+x,1/2-y,1/2+z
loop_
_atom_site_type_symbol
_atom_site_label
_atom_site_fract_x
_atom_site_fract_y
_atom_site_fract_z
Si Si1 0.664338 0.224340 0.629579
Si Si2 0.158730 0.322941 0.924730
Si Si3 0.499931 0.640029 0.455251
Si Si4 0.587829 0.531800 0.814534
Si Si5 0.573867 0.654079 0.815849
Si Si6 0.930550 0.481010 0.436479
O O1 0.500000 0.250000 0.654939
O O2 0.764400 0.265388 0.587923
O O3 0.597347 0.178721 0.587403
O O4 0.785867 0.196243 0.674901
O O5 0.313391 0.357410 0.940310
O O6 0.065358 0.335806 0.863906
O O7 0.035462 0.336133 0.978331
O O8 0.557216 0.581566 0.441028
O O9 0.500000 0.527797 0.750000
O O10 0.750000 0.500000 0.807815
O O11 0.624676 0.593403 0.825452
O O12 0.501363 0.506603 0.874012
O O13 0.500000 0.659203 0.750000
O O14 0.750000 0.500000 0.435793
O O15 0.000000 0.500000 0.500000
#
# Coordination Sequence:
#
# PCOD9508592 Si02
#       6
#    16  16  16  16  16  16
#     4  10  22  40  64  91 123 167 215 265 318 378
#     4  11  23  39  63  92 125 167 211 262 323 386
#     4  11  22  39  62  94 129 163 213 269 326 384
#     4  10  23  42  66  93 125 166 211 259 316 380
#     4  11  24  44  65  91 129 170 212 261 318 379
#     4  11  22  37  60  90 126 165 209 264 321 381
#
# _framework density 20.326988
#
# number of rings (size 3 to 8) (size 9 to 14) (size 15 to 20)
#    0.000    1.333    0.000    6.000    0.000    7.333 
#    0.000    5.833    0.000    0.000    0.000    0.000 
#    0.000    0.000    0.000    0.000    0.000    0.000 
#
# Total GULP energy -267981.728307 kJ/mol
# GULP energy per Si atom -5582.952673 kJ/mol
# Density = 2.028072 g / cm^3
# Si number density = 20.326988 Si / 1000 Ang^3
#
#
#
# Elastic Constant Matrix: (Units=GPa)
#
#
# Indices 1 2 3 4 5 6 
#
# 1 112.5425 69.7364 62.3186 0.0000 0.0000 0.0000
# 2 69.7364 154.1130 49.2688 0.0000 0.0000 0.0000
# 3 62.3186 49.2688 117.8398 0.0000 0.0000 0.0000
# 4 0.0000 0.0000 0.0000 24.7967 0.0000 0.0000
# 5 0.0000 0.0000 0.0000 0.0000 22.2097 0.0000
# 6 0.0000 0.0000 0.0000 0.0000 0.0000 32.0926
#
#
#
# Elastic Compliance Matrix: (Units=1/GPa)
#
#
# Indices 1 2 3 4 5 6 
#
# 1 0.015315 -0.005011 -0.006004 0.000000 0.000000 0.000000
# 2 -0.005011 0.009129 -0.001167 0.000000 0.000000 0.000000
# 3 -0.006004 -0.001167 0.012149 0.000000 0.000000 0.000000
# 4 0.000000 0.000000 0.000000 0.040328 0.000000 0.000000
# 5 0.000000 0.000000 0.000000 0.000000 0.045025 0.000000
# 6 0.000000 0.000000 0.000000 0.000000 0.000000 0.031160
#
#
# Mechanical properties :
#
#
# Convention : Reuss Voigt Hill
#
# Bulk Modulus (GPa) = 81.76859 83.01590 82.39224
# Shear Modulus (GPa) = 27.54103 29.36458 28.45280
#
# Velocity S-wave (km/s) = 3.68489 3.80493 3.74539
# Velocity P-wave (km/s) = 7.64320 7.76094 7.70229
#
# Compressibility (1/GPa) = 0.01222964
#
# Stress axis : x y z
#
# Youngs Moduli (GPa) = 65.29492 109.53923 82.30850
#
# Poissons Ratio (x) = 0.54885 0.49421
# Poissons Ratio (y) = 0.32716 0.09606
# Poissons Ratio (z) = 0.39205 0.12784
#
# Static dielectric constant tensor:
#      x y z
#    x 1.742780 0.000000 0.000000 
#    y 0.000000 1.746260 0.000000 
#    z 0.000000 0.000000 1.716690 
# 
# From -- ./inp_files/36498.got.cif
#   From: 2010.05.17/outbox.cif.g08.bks.cpg/sg68_19_cif.got.tgz:36498.got - 2010.06.03 18:57:09.
