data_PCOD9508640
_publ_section_title
;
Structure prediction by ZEFSAII (Michael W. Deem and Ramdas Pophale) SiO2 
 PCOD9508640
Probable space group: C C C A
;
_chemical_formula_sum "Si O2"
_cell_formula_units_Z 88
_cell_length_a 31.198093
_cell_length_b 10.476325
_cell_length_c 13.525307
_cell_angle_alpha 90.000000
_cell_angle_beta 90.000000
_cell_angle_gamma 90.000000
_cell_volume 4420.629757
_symmetry_space_group_name_H-M "C C C A"
_symmetry_group_IT_number 68
_space_group.IT_coordinate_system_code '2'
_symmetry_cell_setting 'orthorhombic'
loop_
_space_group_symop_operation_xyz
x,y,z
-x,1/2-y,z
x,1/2-y,1/2-z
-x,y,1/2-z
-x,-y,-z
x,1/2+y,-z
-x,1/2+y,1/2+z
x,-y,1/2+z
1/2+x,1/2+y,z
1/2-x,-y,z
1/2+x,-y,1/2-z
1/2-x,1/2+y,1/2-z
1/2-x,1/2-y,-z
1/2+x,y,-z
1/2-x,y,1/2+z
1/2+x,1/2-y,1/2+z
loop_
_atom_site_type_symbol
_atom_site_label
_atom_site_fract_x
_atom_site_fract_y
_atom_site_fract_z
Si Si1 0.028979 0.627383 0.489004
Si Si2 0.705086 0.299196 0.542481
Si Si3 0.405957 0.617164 0.805771
Si Si4 0.097303 0.573564 0.640817
Si Si5 0.833077 0.750000 0.750000
Si Si6 0.157564 0.552148 0.469487
O O1 0.059185 0.624126 0.392450
O O2 0.059409 0.646192 0.585056
O O3 0.000000 0.750000 0.479163
O O4 0.000000 0.500000 0.500000
O O5 0.750000 0.250000 0.500000
O O6 0.697542 0.292945 0.660444
O O7 0.671854 0.195605 0.497047
O O8 0.694348 0.446358 0.519097
O O9 0.397105 0.750000 0.750000
O O10 0.421172 0.523203 0.719997
O O11 0.363917 0.561401 0.861738
O O12 0.133729 0.652382 0.698419
O O13 0.121955 0.507956 0.549012
#
# Coordination Sequence:
#
# PCOD9508640 Si02
#       6
#    16  16  16  16   8  16
#     4  11  26  42  61  98 137 169 224 291 345 394
#     4  11  22  42  64  97 135 168 207 284 333 389
#     4  11  22  41  68  92 127 182 227 275 335 406
#     4  10  22  40  68  89 126 176 220 268 324 403
#     4  10  22  42  65  92 126 172 226 252 329 422
#     4  10  22  41  66  96 131 168 226 264 330 408
#
# _framework density 19.906666999999999
#
# number of rings (size 3 to 8) (size 9 to 14) (size 15 to 20)
#    0.000    1.455    1.818    2.727    2.545    5.455 
#    4.909    1.818    0.000    0.000    0.000    0.000 
#    0.000    0.000    0.000    0.000    0.000    0.000 
#
# Total GULP energy -245329.770993 kJ/mol
# GULP energy per Si atom -5575.676613 kJ/mol
# Density = 1.986136 g / cm^3
# Si number density = 19.906667 Si / 1000 Ang^3
#
#
#
# Elastic Constant Matrix: (Units=GPa)
#
#
# Indices 1 2 3 4 5 6 
#
# 1 84.4771 28.5712 35.9622 0.0000 0.0000 0.0000
# 2 28.5712 88.7220 33.7231 0.0000 0.0000 0.0000
# 3 35.9622 33.7231 124.8894 0.0000 0.0000 0.0000
# 4 0.0000 0.0000 0.0000 26.0702 0.0000 0.0000
# 5 0.0000 0.0000 0.0000 0.0000 34.2760 0.0000
# 6 0.0000 0.0000 0.0000 0.0000 0.0000 36.2095
#
#
#
# Elastic Compliance Matrix: (Units=1/GPa)
#
#
# Indices 1 2 3 4 5 6 
#
# 1 0.014357 -0.003401 -0.003216 0.000000 0.000000 0.000000
# 2 -0.003401 0.013366 -0.002630 0.000000 0.000000 0.000000
# 3 -0.003216 -0.002630 0.009643 0.000000 0.000000 0.000000
# 4 0.000000 0.000000 0.000000 0.038358 0.000000 0.000000
# 5 0.000000 0.000000 0.000000 0.000000 0.029175 0.000000
# 6 0.000000 0.000000 0.000000 0.000000 0.000000 0.027617
#
#
# Mechanical properties :
#
#
# Convention : Reuss Voigt Hill
#
# Bulk Modulus (GPa) = 52.98625 54.95574 53.97100
# Shear Modulus (GPa) = 31.78645 32.63328 32.20987
#
# Velocity S-wave (km/s) = 4.00030 4.05324 4.02686
# Velocity P-wave (km/s) = 6.92904 7.04071 6.98510
#
# Compressibility (1/GPa) = 0.01887282
#
# Stress axis : x y z
#
# Youngs Moduli (GPa) = 69.65374 74.81680 103.70039
#
# Poissons Ratio (x) = 0.25445 0.33347
# Poissons Ratio (y) = 0.23689 0.27271
# Poissons Ratio (z) = 0.22399 0.19675
#
# Static dielectric constant tensor:
#      x y z
#    x 1.676290 0.000000 0.000000 
#    y 0.000000 1.728110 0.000000 
#    z 0.000000 0.000000 1.717930 
# 
# From -- ./inp_files/17657.got.cif
#   From: 2010.05.17/outbox.cif.g08.bks.cpg/sg68_9_cif.got.tgz:17657.got - 2010.06.03 18:57:09.
