data_PCOD9508494
_publ_section_title
;
Structure prediction by ZEFSAII (Michael W. Deem and Ramdas Pophale) SiO2 
 PCOD9508494
Probable space group: C C C A
;
_chemical_formula_sum "Si O2"
_cell_formula_units_Z 72
_cell_length_a 17.581368
_cell_length_b 14.274881
_cell_length_c 13.948401
_cell_angle_alpha 90.000000
_cell_angle_beta 90.000000
_cell_angle_gamma 90.000000
_cell_volume 3500.657203
_symmetry_space_group_name_H-M "C C C A"
_symmetry_group_IT_number 68
_space_group.IT_coordinate_system_code '2'
_symmetry_cell_setting 'orthorhombic'
loop_
_space_group_symop_operation_xyz
x,y,z
-x,1/2-y,z
x,1/2-y,1/2-z
-x,y,1/2-z
-x,-y,-z
x,1/2+y,-z
-x,1/2+y,1/2+z
x,-y,1/2+z
1/2+x,1/2+y,z
1/2-x,-y,z
1/2+x,-y,1/2-z
1/2-x,1/2+y,1/2-z
1/2-x,1/2-y,-z
1/2+x,y,-z
1/2-x,y,1/2+z
1/2+x,1/2-y,1/2+z
loop_
_atom_site_type_symbol
_atom_site_label
_atom_site_fract_x
_atom_site_fract_y
_atom_site_fract_z
Si Si1 0.241929 0.603643 0.931047
Si Si2 0.619109 0.895932 0.577291
Si Si3 0.500000 0.750000 0.979173
Si Si4 0.123042 0.615315 0.552580
Si Si5 0.752758 0.643364 0.781755
O O1 0.250000 0.500000 0.974033
O O2 0.227619 0.597351 0.819408
O O3 0.171031 0.643282 0.988908
O O4 0.324149 0.642146 0.959937
O O5 0.549404 0.824123 0.582937
O O6 0.676450 0.893949 0.667627
O O7 0.599068 0.005097 0.555830
O O8 0.447922 0.683624 0.045431
O O9 0.179102 0.633617 0.642267
O O10 0.740720 0.750000 0.750000
#
# Coordination Sequence:
#
# PCOD9508494 Si02
#       5
#    16  16   8  16  16
#     4   9  18  37  62  83 106 142 191 243 288 331
#     4  10  22  39  60  87 118 153 194 242 293 345
#     4  12  22  38  58  82 124 164 190 228 290 360
#     4  10  22  39  60  87 118 153 194 242 293 345
#     4  11  20  36  63  88 111 146 197 248 289 338
#
# _framework density 20.567567
#
# number of rings (size 3 to 8) (size 9 to 14) (size 15 to 20)
#    0.000    1.778    0.000    6.667    0.000    3.556 
#    0.000   10.000    0.000   16.000    0.000    0.000 
#    0.000    0.000    0.000    0.000    0.000    0.000 
#
# Total GULP energy -200726.904889 kJ/mol
# GULP energy per Si atom -5575.747358 kJ/mol
# Density = 2.052075 g / cm^3
# Si number density = 20.567567 Si / 1000 Ang^3
#
#
#
# Elastic Constant Matrix: (Units=GPa)
#
#
# Indices 1 2 3 4 5 6 
#
# 1 98.5353 39.8622 19.4437 0.0000 0.0000 0.0000
# 2 39.8622 112.5798 -12.9166 0.0000 0.0000 0.0000
# 3 19.4437 -12.9166 82.9333 0.0000 0.0000 0.0000
# 4 0.0000 0.0000 0.0000 28.1464 0.0000 0.0000
# 5 0.0000 0.0000 0.0000 0.0000 -8.4926 0.0000
# 6 0.0000 0.0000 0.0000 0.0000 0.0000 28.2965
#
#
#
# Elastic Compliance Matrix: (Units=1/GPa)
#
#
# Indices 1 2 3 4 5 6 
#
# 1 0.012930 -0.005016 -0.003813 0.000000 0.000000 0.000000
# 2 -0.005016 0.010990 0.002888 0.000000 0.000000 0.000000
# 3 -0.003813 0.002888 0.013401 0.000000 0.000000 0.000000
# 4 0.000000 0.000000 0.000000 0.035529 0.000000 0.000000
# 5 0.000000 0.000000 0.000000 0.000000 -0.117749 0.000000
# 6 0.000000 0.000000 0.000000 0.000000 0.000000 0.035340
#
#
# Mechanical properties :
#
#
# Convention : Reuss Voigt Hill
#
# Bulk Modulus (GPa) = 39.30843 42.98079 41.14461
# Shear Modulus (GPa) = 462.87236 26.10066 244.48651
#
# Velocity S-wave (km/s) = 15.01793 3.56620 10.91458
# Velocity P-wave (km/s) = 17.88494 6.15628 13.37480
#
# Compressibility (1/GPa) = 0.02543983
#
# Stress axis : x y z
#
# Youngs Moduli (GPa) = 77.33912 90.99315 74.61867
#
# Poissons Ratio (x) = 0.45639 0.28449
# Poissons Ratio (y) = 0.38791 -0.21547
# Poissons Ratio (z) = 0.29486 -0.26275
#
# Static dielectric constant tensor:
#      x y z
#    x 1.788660 0.000000 0.000000 
#    y 0.000000 0.714310 0.000000 
#    z 0.000000 0.000000 1.716820 
# 
# From -- ./inp_files/23366.got.cif
#   From: 2010.05.17/outbox.cif.g08.bks.cpg/sg68_12_cif.got.tgz:23366.got - 2010.06.03 18:57:09.
