data_PCOD9508129
_publ_section_title
;
Structure prediction by ZEFSAII (Michael W. Deem and Ramdas Pophale) SiO2 
 PCOD9508129
Probable space group: C C C A
;
_chemical_formula_sum "Si O2"
_cell_formula_units_Z 80
_cell_length_a 21.509839
_cell_length_b 14.188993
_cell_length_c 11.146818
_cell_angle_alpha 90.000000
_cell_angle_beta 90.000000
_cell_angle_gamma 90.000000
_cell_volume 3402.041792
_symmetry_space_group_name_H-M "C C C A"
_symmetry_group_IT_number 68
_space_group.IT_coordinate_system_code '2'
_symmetry_cell_setting 'orthorhombic'
loop_
_space_group_symop_operation_xyz
x,y,z
-x,1/2-y,z
x,1/2-y,1/2-z
-x,y,1/2-z
-x,-y,-z
x,1/2+y,-z
-x,1/2+y,1/2+z
x,-y,1/2+z
1/2+x,1/2+y,z
1/2-x,-y,z
1/2+x,-y,1/2-z
1/2-x,1/2+y,1/2-z
1/2-x,1/2-y,-z
1/2+x,y,-z
1/2-x,y,1/2+z
1/2+x,1/2-y,1/2+z
loop_
_atom_site_type_symbol
_atom_site_label
_atom_site_fract_x
_atom_site_fract_y
_atom_site_fract_z
Si Si1 0.384288 0.130681 0.631592
Si Si2 0.815570 0.038569 0.994258
Si Si3 0.977153 0.149850 0.562963
Si Si4 0.066819 0.445251 0.134676
Si Si5 0.751602 0.201983 0.868460
O O1 0.420406 0.180494 0.523767
O O2 0.432350 0.105580 0.736603
O O3 0.320017 0.180436 0.661153
O O4 0.359035 0.034430 0.574593
O O5 0.793263 0.111919 0.895779
O O6 0.750000 0.000000 0.044030
O O7 0.860470 0.068723 0.100255
O O8 0.000000 0.250000 0.616872
O O9 0.027828 0.104603 0.471167
O O10 0.953317 0.056940 0.637627
O O11 0.778354 0.250000 0.750000
O O12 0.750000 0.250000 0.000000
#
# Coordination Sequence:
#
# PCOD9508129 Si02
#       5
#    16  16  16  16  16
#     4  10  22  39  64  91 129 183 230 284 361 441
#     4   9  21  40  58  87 129 174 220 277 356 417
#     4  10  23  39  65  98 131 173 235 298 355 422
#     4  10  21  41  65  93 136 178 233 288 360 435
#     4  11  24  39  63  99 136 175 235 296 355 429
#
# _framework density 23.515288999999999
#
# number of rings (size 3 to 8) (size 9 to 14) (size 15 to 20)
#    0.000    2.000    0.000    1.800    5.600    8.000 
#    0.000    0.000    0.000   10.800    0.000    0.000 
#    0.000    0.000    0.000    0.000    0.000    0.000 
#
# Total GULP energy -223109.668984 kJ/mol
# GULP energy per Si atom -5577.741725 kJ/mol
# Density = 2.346177 g / cm^3
# Si number density = 23.515289 Si / 1000 Ang^3
#
#
#
# Elastic Constant Matrix: (Units=GPa)
#
#
# Indices 1 2 3 4 5 6 
#
# 1 107.2467 22.3896 26.7857 0.0000 0.0000 0.0000
# 2 22.3896 96.1368 28.3624 0.0000 0.0000 0.0000
# 3 26.7857 28.3624 95.1836 0.0000 0.0000 0.0000
# 4 0.0000 0.0000 0.0000 8.8670 0.0000 0.0000
# 5 0.0000 0.0000 0.0000 0.0000 41.3710 0.0000
# 6 0.0000 0.0000 0.0000 0.0000 0.0000 -210.6091
#
#
#
# Elastic Compliance Matrix: (Units=1/GPa)
#
#
# Indices 1 2 3 4 5 6 
#
# 1 0.010273 -0.001688 -0.002388 0.000000 0.000000 0.000000
# 2 -0.001688 0.011682 -0.003006 0.000000 0.000000 0.000000
# 3 -0.002388 -0.003006 0.012074 0.000000 0.000000 0.000000
# 4 0.000000 0.000000 0.000000 0.112778 0.000000 0.000000
# 5 0.000000 0.000000 0.000000 0.000000 0.024172 0.000000
# 6 0.000000 0.000000 0.000000 0.000000 0.000000 -0.004748
#
#
# Mechanical properties :
#
#
# Convention : Reuss Voigt Hill
#
# Bulk Modulus (GPa) = 50.34018 50.40472 50.37245
# Shear Modulus (GPa) = 26.73585 -17.33891 4.69847
#
# Velocity S-wave (km/s) = 3.37554 -2.71836 1.41506
# Velocity P-wave (km/s) = 6.05361 3.41010 4.91299
#
# Compressibility (1/GPa) = 0.01986485
#
# Stress axis : x y z
#
# Youngs Moduli (GPa) = 97.34137 85.60357 82.82479
#
# Poissons Ratio (x) = 0.14450 0.19778
# Poissons Ratio (y) = 0.16432 0.24896
# Poissons Ratio (z) = 0.23245 0.25731
#
# Static dielectric constant tensor:
#      x y z
#    x 6.627760 0.000000 0.000000 
#    y 0.000000 1.973650 0.000000 
#    z 0.000000 0.000000 1.748400 
# 
# From -- ./inp_files/16233.got.cif
#   From: 2010.05.17/outbox.cif.g08.bks.cpg/sg68_9_cif.got.tgz:16233.got - 2010.06.03 18:57:09.
