data_PCOD9508339
_publ_section_title
;
Structure prediction by ZEFSAII (Michael W. Deem and Ramdas Pophale) SiO2 
 PCOD9508339
Probable space group: C C C A
;
_chemical_formula_sum "Si O2"
_cell_formula_units_Z 104
_cell_length_a 18.000910
_cell_length_b 22.357895
_cell_length_c 13.264078
_cell_angle_alpha 90.000000
_cell_angle_beta 90.000000
_cell_angle_gamma 90.000000
_cell_volume 5338.293404
_symmetry_space_group_name_H-M "C C C A"
_symmetry_group_IT_number 68
_space_group.IT_coordinate_system_code '2'
_symmetry_cell_setting 'orthorhombic'
loop_
_space_group_symop_operation_xyz
x,y,z
-x,1/2-y,z
x,1/2-y,1/2-z
-x,y,1/2-z
-x,-y,-z
x,1/2+y,-z
-x,1/2+y,1/2+z
x,-y,1/2+z
1/2+x,1/2+y,z
1/2-x,-y,z
1/2+x,-y,1/2-z
1/2-x,1/2+y,1/2-z
1/2-x,1/2-y,-z
1/2+x,y,-z
1/2-x,y,1/2+z
1/2+x,1/2-y,1/2+z
loop_
_atom_site_type_symbol
_atom_site_label
_atom_site_fract_x
_atom_site_fract_y
_atom_site_fract_z
Si Si1 0.389594 0.917906 0.695064
Si Si2 0.027662 0.123761 0.890213
Si Si3 0.766630 0.392704 0.131501
Si Si4 0.000000 0.750000 0.456002
Si Si5 0.596860 0.327730 0.577792
Si Si6 0.000000 0.385562 0.250000
Si Si7 0.856667 0.958047 0.699302
Si Si8 0.750000 0.500000 0.976608
O O1 0.419874 0.885355 0.794971
O O2 0.459673 0.921554 0.620507
O O3 0.320419 0.883997 0.647257
O O4 0.365293 0.982929 0.732176
O O5 0.991538 0.190123 0.891903
O O6 0.073486 0.123253 0.992889
O O7 0.817057 0.336772 0.099925
O O8 0.801505 0.415695 0.236967
O O9 0.773619 0.445330 0.048611
O O10 0.930375 0.734048 0.528228
O O11 0.546398 0.344756 0.672889
O O12 0.937389 0.426443 0.305253
O O13 0.816816 0.977443 0.596003
#
# Coordination Sequence:
#
# PCOD9508339 Si02
#       8
#    16  16  16   8  16   8  16   8
#     4  11  19  37  56  90 121 159 198 247 298 378
#     4   9  21  37  64  80 117 153 204 251 307 353
#     4  11  22  36  57  89 126 164 197 239 310 374
#     4   8  20  42  62  86 108 154 208 258 318 348
#     4   9  21  40  59  90 113 160 203 253 309 368
#     4  10  22  35  60  86 120 155 210 242 296 390
#     4  11  22  36  52  88 126 160 195 239 302 379
#     4  12  20  34  58  78 132 168 186 244 306 354
#
# _framework density 19.481881999999999
#
# number of rings (size 3 to 8) (size 9 to 14) (size 15 to 20)
#    0.923    0.923    3.077    1.846    2.154    1.538 
#    0.000    4.615    0.000    3.692    0.000    0.000 
#    0.000    0.000    0.000    0.000    0.000    0.000 
#
# Total GULP energy -289695.021429 kJ/mol
# GULP energy per Si atom -5571.058104 kJ/mol
# Density = 1.943754 g / cm^3
# Si number density = 19.481882 Si / 1000 Ang^3
#
#
#
# Elastic Constant Matrix: (Units=GPa)
#
#
# Indices 1 2 3 4 5 6 
#
# 1 89.9292 -0.9780 19.6393 0.0000 0.0000 0.0000
# 2 -0.9780 22.0329 -12.8842 0.0000 0.0000 0.0000
# 3 19.6393 -12.8842 47.2381 0.0000 0.0000 0.0000
# 4 0.0000 0.0000 0.0000 61.1861 0.0000 0.0000
# 5 0.0000 0.0000 0.0000 0.0000 21.3387 0.0000
# 6 0.0000 0.0000 0.0000 0.0000 0.0000 22.2609
#
#
#
# Elastic Compliance Matrix: (Units=1/GPa)
#
#
# Indices 1 2 3 4 5 6 
#
# 1 0.012387 -0.002929 -0.005949 0.000000 0.000000 0.000000
# 2 -0.002929 0.054692 0.016135 0.000000 0.000000 0.000000
# 3 -0.005949 0.016135 0.028043 0.000000 0.000000 0.000000
# 4 0.000000 0.000000 0.000000 0.016344 0.000000 0.000000
# 5 0.000000 0.000000 0.000000 0.000000 0.046863 0.000000
# 6 0.000000 0.000000 0.000000 0.000000 0.000000 0.044922
#
#
# Mechanical properties :
#
#
# Convention : Reuss Voigt Hill
#
# Bulk Modulus (GPa) = 9.12103 18.97270 14.04686
# Shear Modulus (GPa) = 22.19441 31.18536 26.68989
#
# Velocity S-wave (km/s) = 3.37892 4.00526 3.70535
# Velocity P-wave (km/s) = 4.46259 5.58115 5.05292
#
# Compressibility (1/GPa) = 0.10963674
#
# Stress axis : x y z
#
# Youngs Moduli (GPa) = 80.72885 18.28428 35.65907
#
# Poissons Ratio (x) = 0.05355 0.21213
# Poissons Ratio (y) = 0.23644 -0.57535
# Poissons Ratio (z) = 0.48024 -0.29501
#
# Static dielectric constant tensor:
#      x y z
#    x 1.702120 0.000000 0.000000 
#    y 0.000000 1.679290 0.000000 
#    z 0.000000 0.000000 1.693680 
# 
# From -- ./inp_files/23976.got.cif
#   From: 2010.05.17/outbox.cif.g08.bks.cpg/sg68_12_cif.got.tgz:23976.got - 2010.06.03 18:57:09.
