data_PCOD9508306
_publ_section_title
;
Structure prediction by ZEFSAII (Michael W. Deem and Ramdas Pophale) SiO2 
 PCOD9508306
Probable space group: C C C A
;
_chemical_formula_sum "Si O2"
_cell_formula_units_Z 96
_cell_length_a 18.265078
_cell_length_b 9.322415
_cell_length_c 22.997511
_cell_angle_alpha 90.000000
_cell_angle_beta 90.000000
_cell_angle_gamma 90.000000
_cell_volume 3915.892840
_symmetry_space_group_name_H-M "C C C A"
_symmetry_group_IT_number 68
_space_group.IT_coordinate_system_code '2'
_symmetry_cell_setting 'orthorhombic'
loop_
_space_group_symop_operation_xyz
x,y,z
-x,1/2-y,z
x,1/2-y,1/2-z
-x,y,1/2-z
-x,-y,-z
x,1/2+y,-z
-x,1/2+y,1/2+z
x,-y,1/2+z
1/2+x,1/2+y,z
1/2-x,-y,z
1/2+x,-y,1/2-z
1/2-x,1/2+y,1/2-z
1/2-x,1/2-y,-z
1/2+x,y,-z
1/2-x,y,1/2+z
1/2+x,1/2-y,1/2+z
loop_
_atom_site_type_symbol
_atom_site_label
_atom_site_fract_x
_atom_site_fract_y
_atom_site_fract_z
Si Si1 0.500000 0.250000 0.456963
Si Si2 0.181179 0.055529 0.317295
Si Si3 0.882033 0.419477 0.605298
Si Si4 0.431925 0.502753 0.777741
Si Si5 0.237348 0.688958 0.099936
Si Si6 0.500000 0.750000 0.145040
Si Si7 0.380277 0.233830 0.555246
O O1 0.537445 0.128442 0.417398
O O2 0.431305 0.212003 0.498633
O O3 0.113068 0.053376 0.276961
O O4 0.208195 0.294794 0.155869
O O5 0.186689 0.942490 0.372831
O O6 0.250000 0.000000 0.279790
O O7 0.885122 0.413153 0.675151
O O8 0.818405 0.312561 0.586744
O O9 0.865510 0.575020 0.579611
O O10 0.500000 0.585157 0.750000
O O11 0.464806 0.371639 0.815224
O O12 0.302072 0.684631 0.051252
O O13 0.563944 0.807086 0.101837
#
# Coordination Sequence:
#
# PCOD9508306 Si02
#       7
#     8  16  16  16  16   8  16
#     4  11  26  46  68 100 142 184 236 305 356 408
#     4   8  22  42  65 101 137 187 215 275 356 412
#     4  11  25  42  66 104 138 181 235 297 348 424
#     4  11  22  39  63  99 139 189 226 273 347 422
#     4   9  21  44  68  96 137 175 227 285 346 426
#     4   9  21  36  65  98 133 168 233 293 322 420
#     4  10  21  46  71  98 130 183 240 297 352 412
#
# _framework density 24.515481999999999
#
# number of rings (size 3 to 8) (size 9 to 14) (size 15 to 20)
#    1.000    1.000    0.000    2.250    2.333    5.333 
#   18.000    0.000    0.000    0.000    0.000    0.000 
#    0.000    0.000    0.000    0.000    0.000    0.000 
#
# Total GULP energy -267246.713222 kJ/mol
# GULP energy per Si atom -5567.639859 kJ/mol
# Density = 2.445968 g / cm^3
# Si number density = 24.515482 Si / 1000 Ang^3
#
#
#
# Elastic Constant Matrix: (Units=GPa)
#
#
# Indices 1 2 3 4 5 6 
#
# 1 135.4255 32.8156 51.3595 0.0000 0.0000 0.0000
# 2 32.8156 75.2368 30.1808 0.0000 0.0000 0.0000
# 3 51.3595 30.1808 107.2414 0.0000 0.0000 0.0000
# 4 0.0000 0.0000 0.0000 11.5297 0.0000 0.0000
# 5 0.0000 0.0000 0.0000 0.0000 99.0964 0.0000
# 6 0.0000 0.0000 0.0000 0.0000 0.0000 30.8056
#
#
#
# Elastic Compliance Matrix: (Units=1/GPa)
#
#
# Indices 1 2 3 4 5 6 
#
# 1 0.009454 -0.002601 -0.003796 0.000000 0.000000 0.000000
# 2 -0.002601 0.015698 -0.003172 0.000000 0.000000 0.000000
# 3 -0.003796 -0.003172 0.012035 0.000000 0.000000 0.000000
# 4 0.000000 0.000000 0.000000 0.086732 0.000000 0.000000
# 5 0.000000 0.000000 0.000000 0.000000 0.010091 0.000000
# 6 0.000000 0.000000 0.000000 0.000000 0.000000 0.032462
#
#
# Mechanical properties :
#
#
# Convention : Reuss Voigt Hill
#
# Bulk Modulus (GPa) = 55.40223 60.73506 58.06865
# Shear Modulus (GPa) = 26.09239 41.85621 33.97430
#
# Velocity S-wave (km/s) = 3.26594 4.13648 3.72671
# Velocity P-wave (km/s) = 6.07204 6.90231 6.50045
#
# Compressibility (1/GPa) = 0.01804981
#
# Stress axis : x y z
#
# Youngs Moduli (GPa) = 105.77719 63.70105 83.08861
#
# Poissons Ratio (x) = 0.16568 0.31537
# Poissons Ratio (y) = 0.27511 0.26359
# Poissons Ratio (z) = 0.40149 0.20208
#
# Static dielectric constant tensor:
#      x y z
#    x 2.031810 0.000000 0.000000 
#    y 0.000000 2.035840 0.000000 
#    z 0.000000 0.000000 2.004120 
# 
# From -- ./inp_files/46046.got.cif
#   From: 2010.05.17/outbox.cif.g08.bks.cpg/sg68_24_cif.got.tgz:46046.got - 2010.06.03 18:57:09.
