data_PCOD9508726
_publ_section_title
;
Structure prediction by ZEFSAII (Michael W. Deem and Ramdas Pophale) SiO2 
 PCOD9508726
Probable space group: C C C A
;
_chemical_formula_sum "Si O2"
_cell_formula_units_Z 72
_cell_length_a 10.165252
_cell_length_b 17.850196
_cell_length_c 17.913202
_cell_angle_alpha 90.000000
_cell_angle_beta 90.000000
_cell_angle_gamma 90.000000
_cell_volume 3250.381682
_symmetry_space_group_name_H-M "C C C A"
_symmetry_group_IT_number 68
_space_group.IT_coordinate_system_code '2'
_symmetry_cell_setting 'orthorhombic'
loop_
_space_group_symop_operation_xyz
x,y,z
-x,1/2-y,z
x,1/2-y,1/2-z
-x,y,1/2-z
-x,-y,-z
x,1/2+y,-z
-x,1/2+y,1/2+z
x,-y,1/2+z
1/2+x,1/2+y,z
1/2-x,-y,z
1/2+x,-y,1/2-z
1/2-x,1/2+y,1/2-z
1/2-x,1/2-y,-z
1/2+x,y,-z
1/2-x,y,1/2+z
1/2+x,1/2-y,1/2+z
loop_
_atom_site_type_symbol
_atom_site_label
_atom_site_fract_x
_atom_site_fract_y
_atom_site_fract_z
Si Si1 0.750000 0.000000 0.324173
Si Si2 0.496975 0.519835 0.413004
Si Si3 0.892302 0.685305 0.568490
Si Si4 0.362876 0.418408 0.202680
Si Si5 0.147533 0.278010 0.602674
O O1 0.631734 0.017140 0.378008
O O2 0.749102 0.933901 0.263532
O O3 0.500000 0.500000 0.500000
O O4 0.461973 0.608103 0.407732
O O5 0.608774 0.483196 0.360359
O O6 0.854759 0.685185 0.480313
O O7 0.756257 0.712560 0.605974
O O8 0.000000 0.750000 0.578382
O O9 0.500000 0.413024 0.250000
O O10 0.327201 0.343394 0.160486
O O11 0.000000 0.250000 0.615633
#
# Coordination Sequence:
#
# PCOD9508726 Si02
#       5
#     8  16  16  16  16
#     4  10  26  42  68 100 142 172 244 290 360 438
#     4  11  23  43  72 100 130 189 245 292 353 426
#     4  10  23  40  67 104 139 173 241 303 345 412
#     4  10  23  43  66  98 139 185 231 290 356 436
#     4  10  22  41  67 100 140 182 232 292 352 419
#
# _framework density 22.151244999999999
#
# number of rings (size 3 to 8) (size 9 to 14) (size 15 to 20)
#    0.000    1.778    2.222    0.000    9.333    3.111 
#    0.000    0.000    0.000    0.000    0.000    0.000 
#    0.000    0.000    0.000    0.000    0.000    0.000 
#
# Total GULP energy -200755.199713 kJ/mol
# GULP energy per Si atom -5576.533325 kJ/mol
# Density = 2.210083 g / cm^3
# Si number density = 22.151245 Si / 1000 Ang^3
#
#
#
# Elastic Constant Matrix: (Units=GPa)
#
#
# Indices 1 2 3 4 5 6 
#
# 1 88.1989 12.3037 51.5092 0.0000 0.0000 0.0000
# 2 12.3037 119.8216 63.3005 0.0000 0.0000 0.0000
# 3 51.5092 63.3005 117.6436 0.0000 0.0000 0.0000
# 4 0.0000 0.0000 0.0000 44.2536 0.0000 0.0000
# 5 0.0000 0.0000 0.0000 0.0000 6.5156 0.0000
# 6 0.0000 0.0000 0.0000 0.0000 0.0000 7.4770
#
#
#
# Elastic Compliance Matrix: (Units=1/GPa)
#
#
# Indices 1 2 3 4 5 6 
#
# 1 0.015904 0.002858 -0.008501 0.000000 0.000000 0.000000
# 2 0.002858 0.012174 -0.007802 0.000000 0.000000 0.000000
# 3 -0.008501 -0.007802 0.016420 0.000000 0.000000 0.000000
# 4 0.000000 0.000000 0.000000 0.022597 0.000000 0.000000
# 5 0.000000 0.000000 0.000000 0.000000 0.153479 0.000000
# 6 0.000000 0.000000 0.000000 0.000000 0.000000 0.133743
#
#
# Mechanical properties :
#
#
# Convention : Reuss Voigt Hill
#
# Bulk Modulus (GPa) = 56.79123 64.43231 60.61177
# Shear Modulus (GPa) = 12.91734 24.88597 18.90165
#
# Velocity S-wave (km/s) = 2.41745 3.35544 2.92430
# Velocity P-wave (km/s) = 5.78668 6.64549 6.23090
#
# Compressibility (1/GPa) = 0.01760835
#
# Stress axis : x y z
#
# Youngs Moduli (GPa) = 62.87646 82.14327 60.89988
#
# Poissons Ratio (x) = -0.23477 0.51773
# Poissons Ratio (y) = -0.17971 0.47513
# Poissons Ratio (z) = 0.53454 0.64086
#
# Static dielectric constant tensor:
#      x y z
#    x 1.846500 0.000000 0.000000 
#    y 0.000000 1.839320 0.000000 
#    z 0.000000 0.000000 1.792250 
# 
# From -- ./inp_files/29415.got.cif
#   From: 2010.05.17/outbox.cif.g08.bks.cpg/sg68_15_cif.got.tgz:29415.got - 2010.06.03 18:57:09.
