data_PCOD9508037
_publ_section_title
;
Structure prediction by ZEFSAII (Michael W. Deem and Ramdas Pophale) SiO2 
 PCOD9508037
Probable space group: C C C A
;
_chemical_formula_sum "Si O2"
_cell_formula_units_Z 116
_cell_length_a 29.462391
_cell_length_b 10.487928
_cell_length_c 18.459386
_cell_angle_alpha 90.000000
_cell_angle_beta 90.000000
_cell_angle_gamma 90.000000
_cell_volume 5703.939854
_symmetry_space_group_name_H-M "C C C A"
_symmetry_group_IT_number 68
_space_group.IT_coordinate_system_code '2'
_symmetry_cell_setting 'orthorhombic'
loop_
_space_group_symop_operation_xyz
x,y,z
-x,1/2-y,z
x,1/2-y,1/2-z
-x,y,1/2-z
-x,-y,-z
x,1/2+y,-z
-x,1/2+y,1/2+z
x,-y,1/2+z
1/2+x,1/2+y,z
1/2-x,-y,z
1/2+x,-y,1/2-z
1/2-x,1/2+y,1/2-z
1/2-x,1/2-y,-z
1/2+x,y,-z
1/2-x,y,1/2+z
1/2+x,1/2-y,1/2+z
loop_
_atom_site_type_symbol
_atom_site_label
_atom_site_fract_x
_atom_site_fract_y
_atom_site_fract_z
Si Si1 0.554271 0.001990 0.507788
Si Si2 0.922642 0.615916 0.834169
Si Si3 0.799998 0.812310 0.981920
Si Si4 0.621239 0.357854 0.307935
Si Si5 0.300525 0.022695 0.380718
Si Si6 0.500000 0.250000 0.750000
Si Si7 0.665591 0.251360 0.835169
Si Si8 0.397963 0.752724 0.537632
O O1 0.567906 0.057733 0.586887
O O2 0.577617 0.111498 0.459926
O O3 0.500000 0.000000 0.500000
O O4 0.575313 0.861009 0.495319
O O5 0.899788 0.496818 0.791118
O O6 0.889099 0.739037 0.835857
O O7 0.968569 0.661370 0.798811
O O8 0.809408 0.836155 0.895848
O O9 0.750000 0.750000 0.000000
O O10 0.801795 0.932992 0.036044
O O11 0.845949 0.738482 0.008746
O O12 0.614658 0.250000 0.250000
O O13 0.673817 0.379868 0.328804
O O14 0.601626 0.303805 0.382198
O O15 0.250000 0.000000 0.357284
O O16 0.324022 0.888910 0.369547
O O17 0.679724 0.250000 0.750000
#
# Coordination Sequence:
#
# PCOD9508037 Si02
#       8
#    16  16  16  16  16   4  16  16
#     4  11  23  42  67  98 135 176 234 295 354 423
#     4  10  23  41  65  94 136 176 221 292 349 433
#     4  11  22  40  71  94 131 192 230 290 356 422
#     4   9  21  43  64  89 133 180 222 283 356 406
#     4  10  21  40  65  94 136 175 232 292 334 433
#     4  12  24  40  66 104 128 180 226 274 372 432
#     4  11  22  44  65  97 142 180 229 292 364 418
#     4  10  23  41  65  98 134 178 231 292 349 429
#
# _framework density 20.336819999999999
#
# number of rings (size 3 to 8) (size 9 to 14) (size 15 to 20)
#    0.000    1.655    3.448    1.241    1.931    1.655 
#    4.966    2.414    0.000    0.000    0.000    0.000 
#    0.000    0.000    0.000    0.000    0.000    0.000 
#
# Total GULP energy -323011.320393 kJ/mol
# GULP energy per Si atom -5569.160696 kJ/mol
# Density = 2.029053 g / cm^3
# Si number density = 20.336820 Si / 1000 Ang^3
#
#
#
# Elastic Constant Matrix: (Units=GPa)
#
#
# Indices 1 2 3 4 5 6 
#
# 1 124.4298 32.7067 28.7283 0.0000 0.0000 0.0000
# 2 32.7067 72.6635 24.7379 0.0000 0.0000 0.0000
# 3 28.7283 24.7379 94.5482 0.0000 0.0000 0.0000
# 4 0.0000 0.0000 0.0000 57.2346 0.0000 0.0000
# 5 0.0000 0.0000 0.0000 0.0000 17.9792 0.0000
# 6 0.0000 0.0000 0.0000 0.0000 0.0000 24.4338
#
#
#
# Elastic Compliance Matrix: (Units=1/GPa)
#
#
# Indices 1 2 3 4 5 6 
#
# 1 0.009424 -0.003586 -0.001925 0.000000 0.000000 0.000000
# 2 -0.003586 0.016473 -0.003220 0.000000 0.000000 0.000000
# 3 -0.001925 -0.003220 0.012004 0.000000 0.000000 0.000000
# 4 0.000000 0.000000 0.000000 0.017472 0.000000 0.000000
# 5 0.000000 0.000000 0.000000 0.000000 0.055620 0.000000
# 6 0.000000 0.000000 0.000000 0.000000 0.000000 0.040927
#
#
# Mechanical properties :
#
#
# Convention : Reuss Voigt Hill
#
# Bulk Modulus (GPa) = 48.93044 51.55417 50.24230
# Shear Modulus (GPa) = 28.37763 33.62741 31.00252
#
# Velocity S-wave (km/s) = 3.73953 4.07077 3.90866
# Velocity P-wave (km/s) = 6.53894 6.89203 6.71780
#
# Compressibility (1/GPa) = 0.02043718
#
# Stress axis : x y z
#
# Youngs Moduli (GPa) = 106.11414 60.70665 83.30483
#
# Poissons Ratio (x) = 0.21772 0.16037
# Poissons Ratio (y) = 0.38057 0.26826
# Poissons Ratio (z) = 0.20428 0.19549
#
# Static dielectric constant tensor:
#      x y z
#    x 1.742410 0.000000 0.000000 
#    y 0.000000 1.779930 0.000000 
#    z 0.000000 0.000000 2.031490 
# 
# From -- ./inp_files/30027.got.cif
#   From: 2010.05.17/outbox.cif.g08.bks.cpg/sg68_16_cif.got.tgz:30027.got - 2010.06.03 18:57:09.
