data_PCOD9508292
_publ_section_title
;
Structure prediction by ZEFSAII (Michael W. Deem and Ramdas Pophale) SiO2 
 PCOD9508292
Probable space group: C C C A
;
_chemical_formula_sum "Si O2"
_cell_formula_units_Z 96
_cell_length_a 24.349666
_cell_length_b 11.830983
_cell_length_c 17.133538
_cell_angle_alpha 90.000000
_cell_angle_beta 90.000000
_cell_angle_gamma 90.000000
_cell_volume 4935.837928
_symmetry_space_group_name_H-M "C C C A"
_symmetry_group_IT_number 68
_space_group.IT_coordinate_system_code '2'
_symmetry_cell_setting 'orthorhombic'
loop_
_space_group_symop_operation_xyz
x,y,z
-x,1/2-y,z
x,1/2-y,1/2-z
-x,y,1/2-z
-x,-y,-z
x,1/2+y,-z
-x,1/2+y,1/2+z
x,-y,1/2+z
1/2+x,1/2+y,z
1/2-x,-y,z
1/2+x,-y,1/2-z
1/2-x,1/2+y,1/2-z
1/2-x,1/2-y,-z
1/2+x,y,-z
1/2-x,y,1/2+z
1/2+x,1/2-y,1/2+z
loop_
_atom_site_type_symbol
_atom_site_label
_atom_site_fract_x
_atom_site_fract_y
_atom_site_fract_z
Si Si1 0.124788 0.508805 0.308516
Si Si2 0.314823 0.032519 0.848475
Si Si3 0.783388 0.815836 0.332120
Si Si4 0.062678 0.717587 0.339559
Si Si5 0.334866 0.702980 0.372516
Si Si6 0.844624 0.165020 0.555256
O O1 0.144307 0.512689 0.218747
O O2 0.174651 0.582554 0.345327
O O3 0.073235 0.582965 0.336346
O O4 0.120420 0.378531 0.333055
O O5 0.326708 0.165735 0.852492
O O6 0.250000 0.000000 0.832885
O O7 0.334152 0.966454 0.925849
O O8 0.792233 0.750000 0.250000
O O9 0.721001 0.852284 0.338888
O O10 0.794510 0.727622 0.401256
O O11 0.077242 0.750000 0.250000
O O12 0.102405 0.782628 0.400085
O O13 0.000000 0.750000 0.353972
O O14 0.342729 0.690060 0.464502
#
# Coordination Sequence:
#
# PCOD9508292 Si02
#       6
#    16  16  16  16  16  16
#     4  11  21  38  61  91 122 161 215 258 296 373
#     4  12  22  37  58  87 136 177 206 239 298 377
#     4  11  19  38  57  83 125 176 210 240 284 369
#     4  10  21  44  73  89 106 154 217 268 303 357
#     4  12  25  33  57  89 133 168 197 248 322 367
#     4  11  23  38  57  93 123 160 213 256 299 367
#
# _framework density 19.449584999999999
#
# number of rings (size 3 to 8) (size 9 to 14) (size 15 to 20)
#    0.000    0.833    5.000    4.500    4.667    0.000 
#    0.000    0.833    0.000    0.000    0.000    0.000 
#    0.000    0.000    0.000    0.000    0.000    0.000 
#
# Total GULP energy -267653.177514 kJ/mol
# GULP energy per Si atom -5576.107865 kJ/mol
# Density = 1.940532 g / cm^3
# Si number density = 19.449585 Si / 1000 Ang^3
#
#
#
# Elastic Constant Matrix: (Units=GPa)
#
#
# Indices 1 2 3 4 5 6 
#
# 1 83.2501 37.9086 15.0629 0.0000 0.0000 0.0000
# 2 37.9086 141.4401 16.5679 0.0000 0.0000 0.0000
# 3 15.0629 16.5679 68.6950 0.0000 0.0000 0.0000
# 4 0.0000 0.0000 0.0000 17.9003 0.0000 0.0000
# 5 0.0000 0.0000 0.0000 0.0000 1.2541 0.0000
# 6 0.0000 0.0000 0.0000 0.0000 0.0000 22.4731
#
#
#
# Elastic Compliance Matrix: (Units=1/GPa)
#
#
# Indices 1 2 3 4 5 6 
#
# 1 0.014006 -0.003493 -0.002229 0.000000 0.000000 0.000000
# 2 -0.003493 0.008147 -0.001199 0.000000 0.000000 0.000000
# 3 -0.002229 -0.001199 0.015335 0.000000 0.000000 0.000000
# 4 0.000000 0.000000 0.000000 0.055865 0.000000 0.000000
# 5 0.000000 0.000000 0.000000 0.000000 0.797358 0.000000
# 6 0.000000 0.000000 0.000000 0.000000 0.000000 0.044498
#
#
# Mechanical properties :
#
#
# Convention : Reuss Voigt Hill
#
# Bulk Modulus (GPa) = 42.28943 48.05158 45.17050
# Shear Modulus (GPa) = 5.22504 23.24857 14.23680
#
# Velocity S-wave (km/s) = 1.64082 3.46110 2.70846
# Velocity P-wave (km/s) = 5.03786 6.38213 5.74942
#
# Compressibility (1/GPa) = 0.02364657
#
# Stress axis : x y z
#
# Youngs Moduli (GPa) = 71.39955 122.74925 65.21052
#
# Poissons Ratio (x) = 0.42873 0.14533
# Poissons Ratio (y) = 0.24938 0.07819
# Poissons Ratio (z) = 0.15913 0.14717
#
# Static dielectric constant tensor:
#      x y z
#    x 1.690960 0.000000 0.000000 
#    y 0.000000 1.780560 0.000000 
#    z 0.000000 0.000000 1.679610 
# 
# From -- ./inp_files/33549.got.cif
#   From: 2010.05.17/outbox.cif.g08.bks.cpg/sg68_17_cif.got.tgz:33549.got - 2010.06.03 18:57:09.
