data_PCOD9508160
_publ_section_title
;
Structure prediction by ZEFSAII (Michael W. Deem and Ramdas Pophale) SiO2 
 PCOD9508160
Probable space group: C C C A
;
_chemical_formula_sum "Si O2"
_cell_formula_units_Z 120
_cell_length_a 19.586059
_cell_length_b 22.009568
_cell_length_c 13.065104
_cell_angle_alpha 90.000000
_cell_angle_beta 90.000000
_cell_angle_gamma 90.000000
_cell_volume 5632.114144
_symmetry_space_group_name_H-M "C C C A"
_symmetry_group_IT_number 68
_space_group.IT_coordinate_system_code '2'
_symmetry_cell_setting 'orthorhombic'
loop_
_space_group_symop_operation_xyz
x,y,z
-x,1/2-y,z
x,1/2-y,1/2-z
-x,y,1/2-z
-x,-y,-z
x,1/2+y,-z
-x,1/2+y,1/2+z
x,-y,1/2+z
1/2+x,1/2+y,z
1/2-x,-y,z
1/2+x,-y,1/2-z
1/2-x,1/2+y,1/2-z
1/2-x,1/2-y,-z
1/2+x,y,-z
1/2-x,y,1/2+z
1/2+x,1/2-y,1/2+z
loop_
_atom_site_type_symbol
_atom_site_label
_atom_site_fract_x
_atom_site_fract_y
_atom_site_fract_z
Si Si1 0.853679 0.577062 0.869068
Si Si2 0.081097 0.318676 0.271120
Si Si3 0.609215 0.732252 0.643074
Si Si4 0.217692 0.349342 0.959201
Si Si5 0.731569 0.061125 0.285141
Si Si6 0.000000 0.858038 0.250000
Si Si7 0.631491 0.160766 0.001973
Si Si8 0.602723 0.055105 0.141358
O O1 0.888121 0.632024 0.806863
O O2 0.787293 0.559419 0.803728
O O3 0.900763 0.517081 0.877250
O O4 0.822593 0.601066 0.974248
O O5 0.106309 0.250000 0.250000
O O6 0.100875 0.333291 0.388537
O O7 0.000000 0.319182 0.250000
O O8 0.644987 0.750000 0.750000
O O9 0.660628 0.698768 0.568663
O O10 0.549987 0.686838 0.684670
O O11 0.592242 0.793515 0.580005
O O12 0.241079 0.380818 0.854569
O O13 0.287360 0.324864 0.008072
O O14 0.657560 0.063160 0.233385
O O15 0.750000 0.000000 0.347151
O O16 0.961883 0.905829 0.176199
O O17 0.627727 0.091615 0.041850
#
# Coordination Sequence:
#
# PCOD9508160 Si02
#       8
#    16  16  16  16  16   8  16  16
#     4  11  25  45  73 105 143 184 239 300 351 431
#     4  11  27  50  69  97 144 196 237 288 357 438
#     4  12  26  46  71 103 145 186 241 303 355 425
#     4  12  24  42  72 108 136 185 238 297 366 415
#     4  10  21  41  69  98 144 182 229 290 357 422
#     4  12  25  48  72  98 149 196 232 296 363 422
#     4  12  25  44  73 105 139 192 243 296 365 432
#     4  11  25  44  72 109 141 186 240 292 361 435
#
# _framework density 21.306387000000001
#
# number of rings (size 3 to 8) (size 9 to 14) (size 15 to 20)
#    0.000    0.667    5.333    1.400    2.800    3.733 
#    0.000    1.333    0.000    0.000    0.000    0.000 
#    0.000    0.000    0.000    0.000    0.000    0.000 
#
# Total GULP energy -334956.392374 kJ/mol
# GULP energy per Si atom -5582.606540 kJ/mol
# Density = 2.125789 g / cm^3
# Si number density = 21.306387 Si / 1000 Ang^3
#
#
#
# Elastic Constant Matrix: (Units=GPa)
#
#
# Indices 1 2 3 4 5 6 
#
# 1 58.9591 39.0900 12.0400 0.0000 0.0000 0.0000
# 2 39.0900 156.3602 42.8239 0.0000 0.0000 0.0000
# 3 12.0400 42.8239 78.7574 0.0000 0.0000 0.0000
# 4 0.0000 0.0000 0.0000 32.4580 0.0000 0.0000
# 5 0.0000 0.0000 0.0000 0.0000 30.1591 0.0000
# 6 0.0000 0.0000 0.0000 0.0000 0.0000 24.2329
#
#
#
# Elastic Compliance Matrix: (Units=1/GPa)
#
#
# Indices 1 2 3 4 5 6 
#
# 1 0.020342 -0.004975 -0.000405 0.000000 0.000000 0.000000
# 2 -0.004975 0.008731 -0.003987 0.000000 0.000000 0.000000
# 3 -0.000405 -0.003987 0.014927 0.000000 0.000000 0.000000
# 4 0.000000 0.000000 0.000000 0.030809 0.000000 0.000000
# 5 0.000000 0.000000 0.000000 0.000000 0.033157 0.000000
# 6 0.000000 0.000000 0.000000 0.000000 0.000000 0.041266
#
#
# Mechanical properties :
#
#
# Convention : Reuss Voigt Hill
#
# Bulk Modulus (GPa) = 39.57723 53.55381 46.56552
# Shear Modulus (GPa) = 28.34663 30.71150 29.52907
#
# Velocity S-wave (km/s) = 3.65146 3.80073 3.72684
# Velocity P-wave (km/s) = 6.03268 6.66711 6.35781
#
# Compressibility (1/GPa) = 0.02526705
#
# Stress axis : x y z
#
# Youngs Moduli (GPa) = 49.16003 114.53334 66.99257
#
# Poissons Ratio (x) = 0.56975 0.02712
# Poissons Ratio (y) = 0.24455 0.26710
# Poissons Ratio (z) = 0.01990 0.45664
#
# Static dielectric constant tensor:
#      x y z
#    x 1.799170 0.000000 0.000000 
#    y 0.000000 1.876870 0.000000 
#    z 0.000000 0.000000 1.745170 
# 
# From -- ./inp_files/15792.got.cif
#   From: 2010.05.17/outbox.cif.g08.bks.cpg/sg68_8_cif.got.tgz:15792.got - 2010.06.03 18:57:09.
