data_PCOD9508605
_publ_section_title
;
Structure prediction by ZEFSAII (Michael W. Deem and Ramdas Pophale) SiO2 
 PCOD9508605
Probable space group: C C C A
;
_chemical_formula_sum "Si O2"
_cell_formula_units_Z 112
_cell_length_a 31.005617
_cell_length_b 14.297309
_cell_length_c 13.087874
_cell_angle_alpha 90.000000
_cell_angle_beta 90.000000
_cell_angle_gamma 90.000000
_cell_volume 5801.813801
_symmetry_space_group_name_H-M "C C C A"
_symmetry_group_IT_number 68
_space_group.IT_coordinate_system_code '2'
_symmetry_cell_setting 'orthorhombic'
loop_
_space_group_symop_operation_xyz
x,y,z
-x,1/2-y,z
x,1/2-y,1/2-z
-x,y,1/2-z
-x,-y,-z
x,1/2+y,-z
-x,1/2+y,1/2+z
x,-y,1/2+z
1/2+x,1/2+y,z
1/2-x,-y,z
1/2+x,-y,1/2-z
1/2-x,1/2+y,1/2-z
1/2-x,1/2-y,-z
1/2+x,y,-z
1/2-x,y,1/2+z
1/2+x,1/2-y,1/2+z
loop_
_atom_site_type_symbol
_atom_site_label
_atom_site_fract_x
_atom_site_fract_y
_atom_site_fract_z
Si Si1 0.519382 0.845417 0.509383
Si Si2 0.028902 0.026202 0.351251
Si Si3 0.730929 0.314074 0.153919
Si Si4 0.610652 0.295998 0.590309
Si Si5 0.697916 0.151733 0.008475
Si Si6 0.620549 0.604320 0.306310
Si Si7 0.298582 0.531854 0.707918
O O1 0.500000 0.750000 0.553069
O O2 0.523046 0.929115 0.589460
O O3 0.565418 0.816992 0.462641
O O4 0.488802 0.888093 0.420476
O O5 0.000000 0.025864 0.250000
O O6 0.079413 0.040291 0.330271
O O7 0.747058 0.250000 0.250000
O O8 0.709051 0.246388 0.070923
O O9 0.697546 0.386263 0.206578
O O10 0.770445 0.357724 0.089187
O O11 0.649291 0.342166 0.528234
O O12 0.621938 0.186743 0.609198
O O13 0.610226 0.344274 0.700541
O O14 0.702639 0.072578 0.093409
O O15 0.664527 0.546227 0.291915
O O16 0.250000 0.500000 0.728743
#
# Coordination Sequence:
#
# PCOD9508605 Si02
#       7
#    16  16  16  16  16  16  16
#     4  11  23  43  69  99 130 172 216 264 332 388
#     4  11  23  44  70  99 134 170 215 272 323 393
#     4   9  21  41  62  86 124 166 210 263 324 383
#     4  11  23  40  66  93 125 172 213 267 314 393
#     4  10  22  40  65  87 122 169 210 263 324 385
#     4  11  24  40  66  95 129 168 217 263 322 383
#     4  11  24  41  61  94 128 164 212 271 322 379
#
# _framework density 19.304307000000001
#
# number of rings (size 3 to 8) (size 9 to 14) (size 15 to 20)
#    0.000    1.429    2.857    1.714    8.000    2.286 
#    5.143    0.000    0.000    0.000    0.000    0.000 
#    0.000    0.000    0.000    0.000    0.000    0.000 
#
# Total GULP energy -312643.905104 kJ/mol
# GULP energy per Si atom -5582.926877 kJ/mol
# Density = 1.926037 g / cm^3
# Si number density = 19.304307 Si / 1000 Ang^3
#
#
#
# Elastic Constant Matrix: (Units=GPa)
#
#
# Indices 1 2 3 4 5 6 
#
# 1 88.8902 21.3978 10.4247 0.0000 0.0000 0.0000
# 2 21.3978 81.7253 19.7119 0.0000 0.0000 0.0000
# 3 10.4247 19.7119 70.2252 0.0000 0.0000 0.0000
# 4 0.0000 0.0000 0.0000 10.2378 0.0000 0.0000
# 5 0.0000 0.0000 0.0000 0.0000 22.0242 0.0000
# 6 0.0000 0.0000 0.0000 0.0000 0.0000 25.8922
#
#
#
# Elastic Compliance Matrix: (Units=1/GPa)
#
#
# Indices 1 2 3 4 5 6 
#
# 1 0.012068 -0.002926 -0.000970 0.000000 0.000000 0.000000
# 2 -0.002926 0.013834 -0.003449 0.000000 0.000000 0.000000
# 3 -0.000970 -0.003449 0.015352 0.000000 0.000000 0.000000
# 4 0.000000 0.000000 0.000000 0.097678 0.000000 0.000000
# 5 0.000000 0.000000 0.000000 0.000000 0.045405 0.000000
# 6 0.000000 0.000000 0.000000 0.000000 0.000000 0.038622
#
#
# Mechanical properties :
#
#
# Convention : Reuss Voigt Hill
#
# Bulk Modulus (GPa) = 37.64431 38.21215 37.92823
# Shear Modulus (GPa) = 20.28381 24.25124 22.26753
#
# Velocity S-wave (km/s) = 3.24503 3.54822 3.40001
# Velocity P-wave (km/s) = 5.79509 6.05179 5.92483
#
# Compressibility (1/GPa) = 0.02656444
#
# Stress axis : x y z
#
# Youngs Moduli (GPa) = 82.86450 72.28580 65.13810
#
# Poissons Ratio (x) = 0.21148 0.06320
# Poissons Ratio (y) = 0.24243 0.22465
# Poissons Ratio (z) = 0.08040 0.24930
#
# Static dielectric constant tensor:
#      x y z
#    x 1.660200 0.000000 0.000000 
#    y 0.000000 1.713380 0.000000 
#    z 0.000000 0.000000 1.649250 
# 
# From -- ./inp_files/17791.got.cif
#   From: 2010.05.17/outbox.cif.g08.bks.cpg/sg68_9_cif.got.tgz:17791.got - 2010.06.03 18:57:09.
