data_PCOD9508045
_publ_section_title
;
Structure prediction by ZEFSAII (Michael W. Deem and Ramdas Pophale) SiO2 
 PCOD9508045
Probable space group: C C C A
;
_chemical_formula_sum "Si O2"
_cell_formula_units_Z 60
_cell_length_a 13.188684
_cell_length_b 16.443823
_cell_length_c 11.152744
_cell_angle_alpha 90.000000
_cell_angle_beta 90.000000
_cell_angle_gamma 90.000000
_cell_volume 2418.722194
_symmetry_space_group_name_H-M "C C C A"
_symmetry_group_IT_number 68
_space_group.IT_coordinate_system_code '2'
_symmetry_cell_setting 'orthorhombic'
loop_
_space_group_symop_operation_xyz
x,y,z
-x,1/2-y,z
x,1/2-y,1/2-z
-x,y,1/2-z
-x,-y,-z
x,1/2+y,-z
-x,1/2+y,1/2+z
x,-y,1/2+z
1/2+x,1/2+y,z
1/2-x,-y,z
1/2+x,-y,1/2-z
1/2-x,1/2+y,1/2-z
1/2-x,1/2-y,-z
1/2+x,y,-z
1/2-x,y,1/2+z
1/2+x,1/2-y,1/2+z
loop_
_atom_site_type_symbol
_atom_site_label
_atom_site_fract_x
_atom_site_fract_y
_atom_site_fract_z
Si Si1 0.250000 0.500000 0.900835
Si Si2 0.141430 0.790483 0.374477
Si Si3 0.431638 0.112596 0.593222
Si Si4 0.000000 0.750000 0.750000
Si Si5 0.657062 0.140719 0.558888
O O1 0.353584 0.454304 0.854644
O O2 0.293925 0.571591 0.979434
O O3 0.106910 0.750000 0.250000
O O4 0.087129 0.862226 0.452927
O O5 0.253773 0.827597 0.354538
O O6 0.139390 0.715351 0.467235
O O7 0.426910 0.195686 0.669002
O O8 0.552756 0.101021 0.604794
#
# Coordination Sequence:
#
# PCOD9508045 Si02
#       5
#     8  16  16   4  16
#     4  10  24  44  64 104 150 180 244 298 382 440
#     4  10  22  41  71 107 142 183 253 304 364 441
#     4  11  23  44  72 105 143 195 242 314 365 452
#     4  12  24  44  78 104 144 196 276 290 384 448
#     4  10  21  40  66 103 142 190 230 303 368 439
#
# _framework density 24.806488000000002
#
# number of rings (size 3 to 8) (size 9 to 14) (size 15 to 20)
#    0.000    1.600    2.667    0.800    1.867    2.133 
#    0.000   14.667    0.000    0.000    0.000    0.000 
#    0.000    0.000    0.000    0.000    0.000    0.000 
#
# Total GULP energy -167027.938060 kJ/mol
# GULP energy per Si atom -5567.597935 kJ/mol
# Density = 2.475003 g / cm^3
# Si number density = 24.806488 Si / 1000 Ang^3
#
#
#
# Elastic Constant Matrix: (Units=GPa)
#
#
# Indices 1 2 3 4 5 6 
#
# 1 191.3122 26.6728 22.0789 0.0000 0.0000 0.0000
# 2 26.6728 70.4375 -6.9518 0.0000 0.0000 0.0000
# 3 22.0789 -6.9518 90.6017 0.0000 0.0000 0.0000
# 4 0.0000 0.0000 0.0000 26.7121 0.0000 0.0000
# 5 0.0000 0.0000 0.0000 0.0000 31.3571 0.0000
# 6 0.0000 0.0000 0.0000 0.0000 0.0000 11.2496
#
#
#
# Elastic Compliance Matrix: (Units=1/GPa)
#
#
# Indices 1 2 3 4 5 6 
#
# 1 0.005733 -0.002327 -0.001576 0.000000 0.000000 0.000000
# 2 -0.002327 0.015249 0.001737 0.000000 0.000000 0.000000
# 3 -0.001576 0.001737 0.011555 0.000000 0.000000 0.000000
# 4 0.000000 0.000000 0.000000 0.037436 0.000000 0.000000
# 5 0.000000 0.000000 0.000000 0.000000 0.031891 0.000000
# 6 0.000000 0.000000 0.000000 0.000000 0.000000 0.088892
#
#
# Mechanical properties :
#
#
# Convention : Reuss Voigt Hill
#
# Bulk Modulus (GPa) = 35.45228 48.43902 41.94565
# Shear Modulus (GPa) = 24.45121 34.56718 29.50920
#
# Velocity S-wave (km/s) = 3.14296 3.73698 3.45276
# Velocity P-wave (km/s) = 5.24342 6.17974 5.73073
#
# Compressibility (1/GPa) = 0.02820693
#
# Stress axis : x y z
#
# Youngs Moduli (GPa) = 174.42049 65.57630 86.54571
#
# Poissons Ratio (x) = 0.15257 0.13637
# Poissons Ratio (y) = 0.40580 -0.15033
# Poissons Ratio (z) = 0.27483 -0.11391
#
# Static dielectric constant tensor:
#      x y z
#    x 2.071830 0.000000 0.000000 
#    y 0.000000 1.945360 0.000000 
#    z 0.000000 0.000000 2.052450 
# 
# From -- ./inp_files/12715.got.cif
#   From: 2010.05.17/outbox.cif.g08.bks.cpg/sg68_7_cif.got.tgz:12715.got - 2010.06.03 18:57:09.
