data_PCOD9508013
_publ_section_title
;
Structure prediction by ZEFSAII (Michael W. Deem and Ramdas Pophale) SiO2 
 PCOD9508013
Probable space group: C C C A
;
_chemical_formula_sum "Si O2"
_cell_formula_units_Z 104
_cell_length_a 7.791251
_cell_length_b 20.837820
_cell_length_c 32.083090
_cell_angle_alpha 90.000000
_cell_angle_beta 90.000000
_cell_angle_gamma 90.000000
_cell_volume 5208.775834
_symmetry_space_group_name_H-M "C C C A"
_symmetry_group_IT_number 68
_space_group.IT_coordinate_system_code '2'
_symmetry_cell_setting 'orthorhombic'
loop_
_space_group_symop_operation_xyz
x,y,z
-x,1/2-y,z
x,1/2-y,1/2-z
-x,y,1/2-z
-x,-y,-z
x,1/2+y,-z
-x,1/2+y,1/2+z
x,-y,1/2+z
1/2+x,1/2+y,z
1/2-x,-y,z
1/2+x,-y,1/2-z
1/2-x,1/2+y,1/2-z
1/2-x,1/2-y,-z
1/2+x,y,-z
1/2-x,y,1/2+z
1/2+x,1/2-y,1/2+z
loop_
_atom_site_type_symbol
_atom_site_label
_atom_site_fract_x
_atom_site_fract_y
_atom_site_fract_z
Si Si1 0.500000 0.137717 0.250000
Si Si2 0.424780 0.959742 0.675384
Si Si3 0.454162 0.505688 0.547975
Si Si4 0.039802 0.075285 0.371659
Si Si5 0.744596 0.250000 0.750000
Si Si6 0.000000 0.250000 0.623301
Si Si7 0.077135 0.883704 0.398103
Si Si8 0.355332 0.701692 0.337930
O O1 0.556409 0.087925 0.285715
O O2 0.641026 0.189396 0.233361
O O3 0.452522 0.911356 0.637363
O O4 0.250000 0.000000 0.677626
O O5 0.552143 0.018594 0.662931
O O6 0.500000 0.500000 0.500000
O O7 0.250000 0.500000 0.551685
O O8 0.525136 0.458244 0.584681
O O9 0.485339 0.578164 0.561889
O O10 0.229843 0.100550 0.382544
O O11 0.920511 0.131962 0.353232
O O12 0.649456 0.285723 0.711970
O O13 0.064017 0.308970 0.596575
O O14 0.164624 0.223719 0.648677
O O15 0.500000 0.750000 0.355188
#
# Coordination Sequence:
#
# PCOD9508013 Si02
#       8
#     8  16  16  16   8   8  16  16
#     4  11  24  40  60  88 129 166 218 282 327 390
#     4  11  22  38  59  90 121 165 215 269 334 389
#     4   9  20  38  67  98 133 169 209 269 331 398
#     4  10  22  42  64  95 131 164 223 275 326 397
#     4  11  23  42  60  87 125 170 223 273 328 397
#     4  12  22  39  68  92 126 172 218 262 326 395
#     4  10  21  40  63  92 128 171 214 269 326 395
#     4  12  24  42  65  92 124 173 222 270 327 391
#
# _framework density 19.966304000000001
#
# number of rings (size 3 to 8) (size 9 to 14) (size 15 to 20)
#    0.000    1.385    1.538    6.231    0.000    4.923 
#    2.769    0.000    1.692    2.769    0.000    0.000 
#    0.000    0.000    0.000    0.000    0.000    0.000 
#
# Total GULP energy -289531.272894 kJ/mol
# GULP energy per Si atom -5567.909094 kJ/mol
# Density = 1.992086 g / cm^3
# Si number density = 19.966304 Si / 1000 Ang^3
#
#
#
# Elastic Constant Matrix: (Units=GPa)
#
#
# Indices 1 2 3 4 5 6 
#
# 1 90.6039 52.9434 31.7397 0.0000 0.0000 0.0000
# 2 52.9434 200.2866 69.9537 0.0000 0.0000 0.0000
# 3 31.7397 69.9537 113.6129 0.0000 0.0000 0.0000
# 4 0.0000 0.0000 0.0000 12.0204 0.0000 0.0000
# 5 0.0000 0.0000 0.0000 0.0000 20.5705 0.0000
# 6 0.0000 0.0000 0.0000 0.0000 0.0000 36.8500
#
#
#
# Elastic Compliance Matrix: (Units=1/GPa)
#
#
# Indices 1 2 3 4 5 6 
#
# 1 0.013397 -0.002846 -0.001990 0.000000 0.000000 0.000000
# 2 -0.002846 0.006965 -0.003494 0.000000 0.000000 0.000000
# 3 -0.001990 -0.003494 0.011509 0.000000 0.000000 0.000000
# 4 0.000000 0.000000 0.000000 0.083192 0.000000 0.000000
# 5 0.000000 0.000000 0.000000 0.000000 0.048613 0.000000
# 6 0.000000 0.000000 0.000000 0.000000 0.000000 0.027137
#
#
# Mechanical properties :
#
#
# Convention : Reuss Voigt Hill
#
# Bulk Modulus (GPa) = 65.73996 79.30856 72.52426
# Shear Modulus (GPa) = 23.52442 30.54595 27.03519
#
# Velocity S-wave (km/s) = 3.43622 3.91560 3.68372
# Velocity P-wave (km/s) = 6.98144 7.76209 7.38209
#
# Compressibility (1/GPa) = 0.01521145
#
# Stress axis : x y z
#
# Youngs Moduli (GPa) = 74.64080 143.56612 86.88925
#
# Poissons Ratio (x) = 0.40864 0.17293
# Poissons Ratio (y) = 0.21245 0.30355
# Poissons Ratio (z) = 0.14856 0.50156
#
# Static dielectric constant tensor:
#      x y z
#    x 1.782110 0.000000 0.000000 
#    y 0.000000 1.751960 0.000000 
#    z 0.000000 0.000000 1.735190 
# 
# From -- ./inp_files/54150.got.cif
#   From: 2010.05.17/outbox.cif.g08.bks.cpg/sg68_28_cif.got.tgz:54150.got - 2010.06.03 18:57:09.
