data_PCOD9508086
_publ_section_title
;
Structure prediction by ZEFSAII (Michael W. Deem and Ramdas Pophale) SiO2 
 PCOD9508086
Probable space group: C C C A
;
_chemical_formula_sum "Si O2"
_cell_formula_units_Z 96
_cell_length_a 21.544264
_cell_length_b 14.074487
_cell_length_c 14.848691
_cell_angle_alpha 90.000000
_cell_angle_beta 90.000000
_cell_angle_gamma 90.000000
_cell_volume 4502.486364
_symmetry_space_group_name_H-M "C C C A"
_symmetry_group_IT_number 68
_space_group.IT_coordinate_system_code '2'
_symmetry_cell_setting 'orthorhombic'
loop_
_space_group_symop_operation_xyz
x,y,z
-x,1/2-y,z
x,1/2-y,1/2-z
-x,y,1/2-z
-x,-y,-z
x,1/2+y,-z
-x,1/2+y,1/2+z
x,-y,1/2+z
1/2+x,1/2+y,z
1/2-x,-y,z
1/2+x,-y,1/2-z
1/2-x,1/2+y,1/2-z
1/2-x,1/2-y,-z
1/2+x,y,-z
1/2-x,y,1/2+z
1/2+x,1/2-y,1/2+z
loop_
_atom_site_type_symbol
_atom_site_label
_atom_site_fract_x
_atom_site_fract_y
_atom_site_fract_z
Si Si1 0.365767 0.463082 0.162972
Si Si2 0.123757 0.815230 0.827508
Si Si3 0.989511 0.139214 0.586669
Si Si4 0.750000 0.000000 0.033943
Si Si5 0.191877 0.184958 0.517635
Si Si6 0.500000 0.250000 0.588403
Si Si7 0.892849 0.835250 0.317778
O O1 0.378601 0.572297 0.190489
O O2 0.427859 0.416099 0.117009
O O3 0.305896 0.460641 0.097363
O O4 0.353915 0.403800 0.253193
O O5 0.153840 0.750000 0.750000
O O6 0.155828 0.809964 0.924308
O O7 0.057809 0.769531 0.849345
O O8 0.991974 0.158235 0.479012
O O9 0.000000 0.250000 0.615342
O O10 0.051563 0.102684 0.636619
O O11 0.781715 0.079365 0.973331
O O12 0.250000 0.250000 0.500000
O O13 0.147054 0.207593 0.600386
O O14 0.911098 0.750000 0.250000
#
# Coordination Sequence:
#
# PCOD9508086 Si02
#       7
#    16  16  16   8  16   8  16
#     4  11  25  44  70 102 147 184 233 307 350 432
#     4  11  26  47  65 100 141 186 235 280 361 442
#     4  10  21  40  70 106 134 176 238 299 366 415
#     4  10  26  46  64 100 144 188 246 282 350 442
#     4  11  25  45  69  97 134 192 237 295 358 421
#     4  10  21  42  69  98 138 176 229 286 351 432
#     4  12  22  41  70 107 136 175 239 305 368 419
#
# _framework density 21.321552000000001
#
# number of rings (size 3 to 8) (size 9 to 14) (size 15 to 20)
#    0.500    0.667    3.333    1.750    2.333    8.667 
#    3.000    0.000    0.000    0.000    0.000    0.000 
#    0.000    0.000    0.000    0.000    0.000    0.000 
#
# Total GULP energy -267555.351489 kJ/mol
# GULP energy per Si atom -5574.069823 kJ/mol
# Density = 2.127302 g / cm^3
# Si number density = 21.321552 Si / 1000 Ang^3
#
#
#
# Elastic Constant Matrix: (Units=GPa)
#
#
# Indices 1 2 3 4 5 6 
#
# 1 95.5499 14.9796 15.6699 0.0000 0.0000 0.0000
# 2 14.9796 42.4565 29.4988 0.0000 0.0000 0.0000
# 3 15.6699 29.4988 105.8558 0.0000 0.0000 0.0000
# 4 0.0000 0.0000 0.0000 -23.6544 0.0000 0.0000
# 5 0.0000 0.0000 0.0000 0.0000 -281.6962 0.0000
# 6 0.0000 0.0000 0.0000 0.0000 0.0000 27.7133
#
#
#
# Elastic Compliance Matrix: (Units=1/GPa)
#
#
# Indices 1 2 3 4 5 6 
#
# 1 0.011118 -0.003447 -0.000685 0.000000 0.000000 0.000000
# 2 -0.003447 0.030277 -0.007927 0.000000 0.000000 0.000000
# 3 -0.000685 -0.007927 0.011757 0.000000 0.000000 0.000000
# 4 0.000000 0.000000 0.000000 -0.042275 0.000000 0.000000
# 5 0.000000 0.000000 0.000000 0.000000 -0.003550 0.000000
# 6 0.000000 0.000000 0.000000 0.000000 0.000000 0.036084
#
#
# Mechanical properties :
#
#
# Convention : Reuss Voigt Hill
#
# Bulk Modulus (GPa) = 34.44147 40.46208 37.45177
# Shear Modulus (GPa) = 64.75996 -43.27988 10.74004
#
# Velocity S-wave (km/s) = 5.51715 -4.51029 2.24680
# Velocity P-wave (km/s) = 7.53483 2.84699 4.93297
#
# Compressibility (1/GPa) = 0.02903476
#
# Stress axis : x y z
#
# Youngs Moduli (GPa) = 89.94035 33.02801 85.05328
#
# Poissons Ratio (x) = 0.11383 0.05830
# Poissons Ratio (y) = 0.30999 0.67423
# Poissons Ratio (z) = 0.06165 0.26182
#
# Static dielectric constant tensor:
#      x y z
#    x 1.793460 0.000000 0.000000 
#    y 0.000000 1.840920 0.000000 
#    z 0.000000 0.000000 1.729480 
# 
# From -- ./inp_files/24483.got.cif
#   From: 2010.05.17/outbox.cif.g08.bks.cpg/sg68_13_cif.got.tgz:24483.got - 2010.06.03 18:57:09.
