data_PCOD9508872
_publ_section_title
;
Structure prediction by ZEFSAII (Michael W. Deem and Ramdas Pophale) SiO2 
 PCOD9508872
Probable space group: C C C A
;
_chemical_formula_sum "Si O2"
_cell_formula_units_Z 52
_cell_length_a 9.168194
_cell_length_b 29.890928
_cell_length_c 10.411188
_cell_angle_alpha 90.000000
_cell_angle_beta 90.000000
_cell_angle_gamma 90.000000
_cell_volume 2853.142623
_symmetry_space_group_name_H-M "C C C A"
_symmetry_group_IT_number 68
_space_group.IT_coordinate_system_code '2'
_symmetry_cell_setting 'orthorhombic'
loop_
_space_group_symop_operation_xyz
x,y,z
-x,1/2-y,z
x,1/2-y,1/2-z
-x,y,1/2-z
-x,-y,-z
x,1/2+y,-z
-x,1/2+y,1/2+z
x,-y,1/2+z
1/2+x,1/2+y,z
1/2-x,-y,z
1/2+x,-y,1/2-z
1/2-x,1/2+y,1/2-z
1/2-x,1/2-y,-z
1/2+x,y,-z
1/2-x,y,1/2+z
1/2+x,1/2-y,1/2+z
loop_
_atom_site_type_symbol
_atom_site_label
_atom_site_fract_x
_atom_site_fract_y
_atom_site_fract_z
Si Si1 0.587687 0.979705 0.618964
Si Si2 0.082978 0.872657 0.383038
Si Si3 0.410015 0.337261 0.628260
Si Si4 0.000000 0.750000 0.750000
O O1 0.500000 0.989404 0.750000
O O2 0.591552 0.926197 0.601273
O O3 0.500000 0.000000 0.500000
O O4 0.750000 0.000000 0.625096
O O5 0.246891 0.854695 0.377630
O O6 0.000000 0.863236 0.250000
O O7 0.995787 0.850298 0.500133
O O8 0.500000 0.357027 0.750000
O O9 0.410930 0.284190 0.660198
#
# Coordination Sequence:
#
# PCOD9508872 Si02
#       4
#    16  16  16   4
#     4  11  24  40  61  93 128 167 211 255 303 366
#     4  11  23  40  65  94 124 167 208 254 313 364
#     4  10  22  43  63  91 127 160 205 259 311 373
#     4   8  24  44  64  92 124 156 212 252 320 368
#
# _framework density 18.225517
#
# number of rings (size 3 to 8) (size 9 to 14) (size 15 to 20)
#    0.923    0.615    0.000    4.615    0.000   11.077 
#    0.000    0.000    0.000    0.000    0.000    0.000 
#    0.000    0.000    0.000    0.000    0.000    0.000 
#
# Total GULP energy -145124.015647 kJ/mol
# GULP energy per Si atom -5581.692909 kJ/mol
# Density = 1.818404 g / cm^3
# Si number density = 18.225517 Si / 1000 Ang^3
#
#
#
# Elastic Constant Matrix: (Units=GPa)
#
#
# Indices 1 2 3 4 5 6 
#
# 1 218.3753 89.8922 116.6776 0.0000 0.0000 0.0000
# 2 89.8922 107.4490 104.0590 0.0000 0.0000 0.0000
# 3 116.6776 104.0590 188.5237 0.0000 0.0000 0.0000
# 4 0.0000 0.0000 0.0000 46.1549 0.0000 0.0000
# 5 0.0000 0.0000 0.0000 0.0000 65.2255 0.0000
# 6 0.0000 0.0000 0.0000 0.0000 0.0000 32.0469
#
#
#
# Elastic Compliance Matrix: (Units=1/GPa)
#
#
# Indices 1 2 3 4 5 6 
#
# 1 0.007509 -0.003827 -0.002535 0.000000 0.000000 0.000000
# 2 -0.003827 0.021946 -0.009745 0.000000 0.000000 0.000000
# 3 -0.002535 -0.009745 0.012252 0.000000 0.000000 0.000000
# 4 0.000000 0.000000 0.000000 0.021666 0.000000 0.000000
# 5 0.000000 0.000000 0.000000 0.000000 0.015331 0.000000
# 6 0.000000 0.000000 0.000000 0.000000 0.000000 0.031204
#
#
# Mechanical properties :
#
#
# Convention : Reuss Voigt Hill
#
# Bulk Modulus (GPa) = 105.33766 126.17840 115.75803
# Shear Modulus (GPa) = 34.41462 42.26673 38.34067
#
# Velocity S-wave (km/s) = 4.35013 4.82092 4.59157
# Velocity P-wave (km/s) = 9.11887 10.01850 9.57925
#
# Compressibility (1/GPa) = 0.00949328
#
# Stress axis : x y z
#
# Youngs Moduli (GPa) = 133.17166 45.56656 81.61921
#
# Poissons Ratio (x) = 0.17439 0.20690
# Poissons Ratio (y) = 0.50968 0.79536
# Poissons Ratio (z) = 0.33758 0.44404
#
# Static dielectric constant tensor:
#      x y z
#    x 1.576350 0.000000 0.000000 
#    y 0.000000 1.640420 0.000000 
#    z 0.000000 0.000000 1.612500 
# 
# From -- ./inp_files/10682.got.cif
#   From: 2010.05.17/outbox.cif.g08.bks.cpg/sg68_6_cif.got.tgz:10682.got - 2010.06.03 18:57:09.
