data_PCOD9508220
_publ_section_title
;
Structure prediction by ZEFSAII (Michael W. Deem and Ramdas Pophale) SiO2 
 PCOD9508220
Probable space group: C C C A
;
_chemical_formula_sum "Si O2"
_cell_formula_units_Z 88
_cell_length_a 19.210086
_cell_length_b 14.587358
_cell_length_c 13.791019
_cell_angle_alpha 90.000000
_cell_angle_beta 90.000000
_cell_angle_gamma 90.000000
_cell_volume 3864.580048
_symmetry_space_group_name_H-M "C C C A"
_symmetry_group_IT_number 68
_space_group.IT_coordinate_system_code '2'
_symmetry_cell_setting 'orthorhombic'
loop_
_space_group_symop_operation_xyz
x,y,z
-x,1/2-y,z
x,1/2-y,1/2-z
-x,y,1/2-z
-x,-y,-z
x,1/2+y,-z
-x,1/2+y,1/2+z
x,-y,1/2+z
1/2+x,1/2+y,z
1/2-x,-y,z
1/2+x,-y,1/2-z
1/2-x,1/2+y,1/2-z
1/2-x,1/2-y,-z
1/2+x,y,-z
1/2-x,y,1/2+z
1/2+x,1/2-y,1/2+z
loop_
_atom_site_type_symbol
_atom_site_label
_atom_site_fract_x
_atom_site_fract_y
_atom_site_fract_z
Si Si1 0.352607 0.855647 0.575605
Si Si2 0.916586 0.356723 0.257220
Si Si3 0.710058 0.750000 0.750000
Si Si4 0.109752 0.932704 0.554515
Si Si5 0.534545 0.658352 0.446789
Si Si6 0.263337 0.108713 0.418856
O O1 0.332481 0.817035 0.679043
O O2 0.419728 0.804070 0.534061
O O3 0.287278 0.853940 0.503371
O O4 0.378107 0.960070 0.568327
O O5 0.900515 0.250000 0.250000
O O6 0.878045 0.397426 0.164904
O O7 0.909774 0.383994 0.369989
O O8 0.000000 0.377464 0.250000
O O9 0.743961 0.677193 0.826877
O O10 0.161254 0.893052 0.472910
O O11 0.030113 0.906347 0.531115
O O12 0.500000 0.750000 0.402010
O O13 0.250000 0.000000 0.395745
#
# Coordination Sequence:
#
# PCOD9508220 Si02
#       6
#    16  16   8  16  16  16
#     4  11  26  44  65  97 134 180 227 276 339 407
#     4   9  16  33  63 100 127 162 219 272 319 386
#     4  12  26  46  69 102 137 178 234 282 344 412
#     4  10  21  42  70  98 136 175 226 279 336 401
#     4  11  20  39  65  96 135 176 223 276 329 394
#     4  10  25  49  72  98 135 177 224 281 344 412
#
# _framework density 22.770909
#
# number of rings (size 3 to 8) (size 9 to 14) (size 15 to 20)
#    0.000    1.636    3.636    2.182    0.000    6.545 
#    3.273   11.364    0.000    0.000    0.000    0.000 
#    0.000    0.000    0.000    0.000    0.000    0.000 
#
# Total GULP energy -245318.280052 kJ/mol
# GULP energy per Si atom -5575.415456 kJ/mol
# Density = 2.271908 g / cm^3
# Si number density = 22.770909 Si / 1000 Ang^3
#
#
#
# Elastic Constant Matrix: (Units=GPa)
#
#
# Indices 1 2 3 4 5 6 
#
# 1 84.0247 38.3602 50.8928 0.0000 0.0000 0.0000
# 2 38.3602 107.6284 45.6839 0.0000 0.0000 0.0000
# 3 50.8928 45.6839 138.9984 0.0000 0.0000 0.0000
# 4 0.0000 0.0000 0.0000 48.6236 0.0000 0.0000
# 5 0.0000 0.0000 0.0000 0.0000 8.0486 0.0000
# 6 0.0000 0.0000 0.0000 0.0000 0.0000 10.0063
#
#
#
# Elastic Compliance Matrix: (Units=1/GPa)
#
#
# Indices 1 2 3 4 5 6 
#
# 1 0.016573 -0.003871 -0.004796 0.000000 0.000000 0.000000
# 2 -0.003871 0.011702 -0.002429 0.000000 0.000000 0.000000
# 3 -0.004796 -0.002429 0.009748 0.000000 0.000000 0.000000
# 4 0.000000 0.000000 0.000000 0.020566 0.000000 0.000000
# 5 0.000000 0.000000 0.000000 0.000000 0.124246 0.000000
# 6 0.000000 0.000000 0.000000 0.000000 0.000000 0.099937
#
#
# Mechanical properties :
#
#
# Convention : Reuss Voigt Hill
#
# Bulk Modulus (GPa) = 63.16196 66.72505 64.94351
# Shear Modulus (GPa) = 16.11648 26.38333 21.24991
#
# Velocity S-wave (km/s) = 2.66327 3.40758 3.05815
# Velocity P-wave (km/s) = 6.10374 6.69690 6.40719
#
# Compressibility (1/GPa) = 0.01583231
#
# Stress axis : x y z
#
# Youngs Moduli (GPa) = 60.33753 85.45665 102.58061
#
# Poissons Ratio (x) = 0.33083 0.49196
# Poissons Ratio (y) = 0.23359 0.24912
# Poissons Ratio (z) = 0.28937 0.20753
#
# Static dielectric constant tensor:
#      x y z
#    x 1.977310 0.000000 0.000000 
#    y 0.000000 1.879160 0.000000 
#    z 0.000000 0.000000 1.972550 
# 
# From -- ./inp_files/32930.got.cif
#   From: 2010.05.17/outbox.cif.g08.bks.cpg/sg68_17_cif.got.tgz:32930.got - 2010.06.03 18:57:09.
