data_PCOD9508133
_publ_section_title
;
Structure prediction by ZEFSAII (Michael W. Deem and Ramdas Pophale) SiO2 
 PCOD9508133
Probable space group: C C C A
;
_chemical_formula_sum "Si O2"
_cell_formula_units_Z 104
_cell_length_a 8.427800
_cell_length_b 21.065233
_cell_length_c 26.994641
_cell_angle_alpha 90.000000
_cell_angle_beta 90.000000
_cell_angle_gamma 90.000000
_cell_volume 4792.455006
_symmetry_space_group_name_H-M "C C C A"
_symmetry_group_IT_number 68
_space_group.IT_coordinate_system_code '2'
_symmetry_cell_setting 'orthorhombic'
loop_
_space_group_symop_operation_xyz
x,y,z
-x,1/2-y,z
x,1/2-y,1/2-z
-x,y,1/2-z
-x,-y,-z
x,1/2+y,-z
-x,1/2+y,1/2+z
x,-y,1/2+z
1/2+x,1/2+y,z
1/2-x,-y,z
1/2+x,-y,1/2-z
1/2-x,1/2+y,1/2-z
1/2-x,1/2-y,-z
1/2+x,y,-z
1/2-x,y,1/2+z
1/2+x,1/2-y,1/2+z
loop_
_atom_site_type_symbol
_atom_site_label
_atom_site_fract_x
_atom_site_fract_y
_atom_site_fract_z
Si Si1 0.092625 0.159135 0.461272
Si Si2 0.262771 0.351994 0.436069
Si Si3 0.250000 0.000000 0.090055
Si Si4 0.350242 0.935590 0.284084
Si Si5 0.692068 0.243644 0.626895
Si Si6 0.404983 0.043181 0.891521
Si Si7 0.674437 0.689933 0.774829
O O1 0.124756 0.165619 0.518901
O O2 0.192904 0.202580 0.423910
O O3 0.107609 0.087664 0.439574
O O4 0.909023 0.171906 0.453230
O O5 0.262052 0.428750 0.433065
O O6 0.273349 0.312305 0.385030
O O7 0.427330 0.993550 0.112938
O O8 0.500000 0.946815 0.250000
O O9 0.397667 0.917891 0.340384
O O10 0.252458 0.876922 0.263497
O O11 0.250000 0.000000 0.285842
O O12 0.500000 0.250000 0.640025
O O13 0.798310 0.207237 0.667577
O O14 0.250000 0.000000 0.893044
O O15 0.760364 0.750000 0.750000
O O16 0.500000 0.687504 0.750000
#
# Coordination Sequence:
#
# PCOD9508133 Si02
#       7
#    16  16   8  16  16  16  16
#     4  10  21  41  66 101 134 181 235 281 352 423
#     4  10  23  39  67 101 140 183 234 289 347 429
#     4  10  24  42  64 104 136 186 244 280 352 430
#     4  11  25  46  73 104 139 184 233 299 364 433
#     4  10  22  45  70  96 142 186 231 289 355 430
#     4  10  23  42  67  97 139 185 226 292 355 417
#     4  11  26  48  70 105 139 178 241 294 357 433
#
# _framework density 21.700776999999999
#
# number of rings (size 3 to 8) (size 9 to 14) (size 15 to 20)
#    0.000    1.692    1.538    0.923    6.462    1.231 
#   16.615    0.000    0.000    0.000    0.000    0.000 
#    0.000    0.000    0.000    0.000    0.000    0.000 
#
# Total GULP energy -289636.897912 kJ/mol
# GULP energy per Si atom -5569.940344 kJ/mol
# Density = 2.165139 g / cm^3
# Si number density = 21.700777 Si / 1000 Ang^3
#
#
#
# Elastic Constant Matrix: (Units=GPa)
#
#
# Indices 1 2 3 4 5 6 
#
# 1 95.5133 34.3671 39.4274 0.0000 0.0000 0.0000
# 2 34.3671 115.2736 33.4518 0.0000 0.0000 0.0000
# 3 39.4274 33.4518 53.6461 0.0000 0.0000 0.0000
# 4 0.0000 0.0000 0.0000 8.8686 0.0000 0.0000
# 5 0.0000 0.0000 0.0000 0.0000 68.2088 0.0000
# 6 0.0000 0.0000 0.0000 0.0000 0.0000 18.7082
#
#
#
# Elastic Compliance Matrix: (Units=1/GPa)
#
#
# Indices 1 2 3 4 5 6 
#
# 1 0.015262 -0.001581 -0.010231 0.000000 0.000000 0.000000
# 2 -0.001581 0.010755 -0.005545 0.000000 0.000000 0.000000
# 3 -0.010231 -0.005545 0.029617 0.000000 0.000000 0.000000
# 4 0.000000 0.000000 0.000000 0.112757 0.000000 0.000000
# 5 0.000000 0.000000 0.000000 0.000000 0.014661 0.000000
# 6 0.000000 0.000000 0.000000 0.000000 0.000000 0.053453
#
#
# Mechanical properties :
#
#
# Convention : Reuss Voigt Hill
#
# Bulk Modulus (GPa) = 47.79796 53.21397 50.50596
# Shear Modulus (GPa) = 17.97316 29.63622 23.80469
#
# Velocity S-wave (km/s) = 2.88101 3.69951 3.31562
# Velocity P-wave (km/s) = 5.75680 6.54396 6.16296
#
# Compressibility (1/GPa) = 0.02092139
#
# Stress axis : x y z
#
# Youngs Moduli (GPa) = 65.52254 92.97616 33.76400
#
# Poissons Ratio (x) = 0.14701 0.34543
# Poissons Ratio (y) = 0.10360 0.18721
# Poissons Ratio (z) = 0.67035 0.51552
#
# Static dielectric constant tensor:
#      x y z
#    x 1.792080 0.000000 0.000000 
#    y 0.000000 1.876510 0.000000 
#    z 0.000000 0.000000 1.898290 
# 
# From -- ./inp_files/49445.got.cif
#   From: 2010.05.17/outbox.cif.g08.bks.cpg/sg68_25_cif.got.tgz:49445.got - 2010.06.03 18:57:09.
