data_PCOD9508018
_publ_section_title
;
Structure prediction by ZEFSAII (Michael W. Deem and Ramdas Pophale) SiO2 
 PCOD9508018
Probable space group: C C C A
;
_chemical_formula_sum "Si O2"
_cell_formula_units_Z 56
_cell_length_a 12.637258
_cell_length_b 8.125129
_cell_length_c 25.725757
_cell_angle_alpha 90.000000
_cell_angle_beta 90.000000
_cell_angle_gamma 90.000000
_cell_volume 2641.504044
_symmetry_space_group_name_H-M "C C C A"
_symmetry_group_IT_number 68
_space_group.IT_coordinate_system_code '2'
_symmetry_cell_setting 'orthorhombic'
loop_
_space_group_symop_operation_xyz
x,y,z
-x,1/2-y,z
x,1/2-y,1/2-z
-x,y,1/2-z
-x,-y,-z
x,1/2+y,-z
-x,1/2+y,1/2+z
x,-y,1/2+z
1/2+x,1/2+y,z
1/2-x,-y,z
1/2+x,-y,1/2-z
1/2-x,1/2+y,1/2-z
1/2-x,1/2-y,-z
1/2+x,y,-z
1/2-x,y,1/2+z
1/2+x,1/2-y,1/2+z
loop_
_atom_site_type_symbol
_atom_site_label
_atom_site_fract_x
_atom_site_fract_y
_atom_site_fract_z
Si Si1 0.500000 0.250000 0.473900
Si Si2 0.240058 0.250000 0.250000
Si Si3 0.872209 0.445173 0.060406
Si Si4 0.399739 0.981892 0.780008
Si Si5 0.500000 0.250000 0.644024
O O1 0.442765 0.389913 0.441026
O O2 0.588138 0.339064 0.510365
O O3 0.318261 0.334430 0.207924
O O4 0.161548 0.399732 0.261372
O O5 0.750000 0.500000 0.059445
O O6 0.910492 0.336126 0.108713
O O7 0.500000 0.918045 0.750000
O O8 0.440398 0.106841 0.823580
#
# Coordination Sequence:
#
# PCOD9508018 Si02
#       5
#     8   8  16  16   8
#     4   9  20  42  65  90 120 164 213 234 300 381
#     4  10  22  38  68  78 104 174 210 232 320 358
#     4  10  21  40  64  91 125 164 196 254 305 370
#     4  11  21  43  58  85 118 161 204 261 293 370
#     4  11  23  40  57  94 136 140 205 272 303 353
#
# _framework density 21.200043000000001
#
# number of rings (size 3 to 8) (size 9 to 14) (size 15 to 20)
#    0.000    1.714    2.857    1.286    0.000    2.286 
#   15.429    0.000    0.000    0.000    0.000    0.000 
#    0.000    0.000    0.000    0.000    0.000    0.000 
#
# Total GULP energy -155939.831713 kJ/mol
# GULP energy per Si atom -5569.279704 kJ/mol
# Density = 2.115179 g / cm^3
# Si number density = 21.200043 Si / 1000 Ang^3
#
#
#
# Elastic Constant Matrix: (Units=GPa)
#
#
# Indices 1 2 3 4 5 6 
#
# 1 170.9082 67.5444 45.8888 0.0000 0.0000 0.0000
# 2 67.5444 124.8576 41.8082 0.0000 0.0000 0.0000
# 3 45.8888 41.8082 58.4178 0.0000 0.0000 0.0000
# 4 0.0000 0.0000 0.0000 -3.0695 0.0000 0.0000
# 5 0.0000 0.0000 0.0000 0.0000 1.1800 0.0000
# 6 0.0000 0.0000 0.0000 0.0000 0.0000 58.0003
#
#
#
# Elastic Compliance Matrix: (Units=1/GPa)
#
#
# Indices 1 2 3 4 5 6 
#
# 1 0.008185 -0.002992 -0.004288 0.000000 0.000000 0.000000
# 2 -0.002992 0.011627 -0.005971 0.000000 0.000000 0.000000
# 3 -0.004288 -0.005971 0.024760 0.000000 0.000000 0.000000
# 4 0.000000 0.000000 0.000000 -0.325789 0.000000 0.000000
# 5 0.000000 0.000000 0.000000 0.000000 0.847452 0.000000
# 6 0.000000 0.000000 0.000000 0.000000 0.000000 0.017241
#
#
# Mechanical properties :
#
#
# Convention : Reuss Voigt Hill
#
# Bulk Modulus (GPa) = 55.34156 73.85183 64.59669
# Shear Modulus (GPa) = 8.11686 24.48498 16.30092
#
# Velocity S-wave (km/s) = 1.95883 3.40214 2.77593
# Velocity P-wave (km/s) = 5.59260 7.09536 6.38832
#
# Compressibility (1/GPa) = 0.01806960
#
# Stress axis : x y z
#
# Youngs Moduli (GPa) = 122.17605 86.00664 40.38793
#
# Poissons Ratio (x) = 0.25732 0.17319
# Poissons Ratio (y) = 0.36554 0.24115
# Poissons Ratio (z) = 0.52392 0.51354
#
# Static dielectric constant tensor:
#      x y z
#    x 1.718760 0.000000 0.000000 
#    y 0.000000 1.798940 0.000000 
#    z 0.000000 0.000000 1.757740 
# 
# From -- ./inp_files/49936.got.cif
#   From: 2010.05.17/outbox.cif.g08.bks.cpg/sg68_25_cif.got.tgz:49936.got - 2010.06.03 18:57:09.
