data_PCOD9508536
_publ_section_title
;
Structure prediction by ZEFSAII (Michael W. Deem and Ramdas Pophale) SiO2 
 PCOD9508536
Probable space group: C C C A
;
_chemical_formula_sum "Si O2"
_cell_formula_units_Z 116
_cell_length_a 18.210358
_cell_length_b 10.789144
_cell_length_c 28.046378
_cell_angle_alpha 90.000000
_cell_angle_beta 90.000000
_cell_angle_gamma 90.000000
_cell_volume 5510.388972
_symmetry_space_group_name_H-M "C C C A"
_symmetry_group_IT_number 68
_space_group.IT_coordinate_system_code '2'
_symmetry_cell_setting 'orthorhombic'
loop_
_space_group_symop_operation_xyz
x,y,z
-x,1/2-y,z
x,1/2-y,1/2-z
-x,y,1/2-z
-x,-y,-z
x,1/2+y,-z
-x,1/2+y,1/2+z
x,-y,1/2+z
1/2+x,1/2+y,z
1/2-x,-y,z
1/2+x,-y,1/2-z
1/2-x,1/2+y,1/2-z
1/2-x,1/2-y,-z
1/2+x,y,-z
1/2-x,y,1/2+z
1/2+x,1/2-y,1/2+z
loop_
_atom_site_type_symbol
_atom_site_label
_atom_site_fract_x
_atom_site_fract_y
_atom_site_fract_z
Si Si1 0.900097 0.772560 0.670534
Si Si2 0.890989 0.916904 0.411308
Si Si3 0.055774 0.484597 0.096904
Si Si4 0.418926 0.807788 0.486893
Si Si5 0.826451 0.695853 0.376453
Si Si6 0.686237 0.834304 0.415962
Si Si7 0.740254 0.132707 0.718162
Si Si8 0.500000 0.750000 0.250000
O O1 0.854356 0.689455 0.634557
O O2 0.843454 0.851837 0.701638
O O3 0.945937 0.694271 0.709624
O O4 0.939029 0.871277 0.635028
O O5 0.896949 0.836430 0.459509
O O6 0.871366 0.822799 0.368950
O O7 0.971650 0.972603 0.403624
O O8 0.827564 0.018453 0.419826
O O9 0.075247 0.431087 0.044952
O O10 0.115905 0.591383 0.106657
O O11 0.500000 0.750000 0.485962
O O12 0.360942 0.722268 0.459279
O O13 0.760344 0.751331 0.410198
O O14 0.787955 0.640601 0.329925
O O15 0.759496 0.250000 0.750000
O O16 0.750000 0.000000 0.742264
#
# Coordination Sequence:
#
# PCOD9508536 Si02
#       8
#    16  16  16  16  16  16  16   4
#     4  10  22  39  68  94 126 165 217 266 330 382
#     4  12  24  41  65  94 135 177 223 275 333 397
#     4  11  22  43  67  89 135 174 217 277 330 403
#     4  11  23  40  66  93 125 184 232 270 328 402
#     4  11  25  43  66  98 131 175 218 268 349 398
#     4  10  24  43  62  94 134 172 222 283 327 393
#     4  11  23  46  71  97 131 173 217 266 335 412
#     4  12  20  36  64 112 118 156 222 272 314 408
#
# _framework density 21.051145000000002
#
# number of rings (size 3 to 8) (size 9 to 14) (size 15 to 20)
#    0.000    1.103    3.448    2.897    3.862    2.759 
#    4.966    0.000    0.000    0.828    0.000    0.000 
#    0.000    0.000    0.000    0.000    0.000    0.000 
#
# Total GULP energy -323307.785745 kJ/mol
# GULP energy per Si atom -5574.272168 kJ/mol
# Density = 2.100323 g / cm^3
# Si number density = 21.051145 Si / 1000 Ang^3
#
#
#
# Elastic Constant Matrix: (Units=GPa)
#
#
# Indices 1 2 3 4 5 6 
#
# 1 91.0143 20.2054 29.9142 0.0000 0.0000 0.0000
# 2 20.2054 85.9112 8.6195 0.0000 0.0000 0.0000
# 3 29.9142 8.6195 49.7868 0.0000 0.0000 0.0000
# 4 0.0000 0.0000 0.0000 13.1764 0.0000 0.0000
# 5 0.0000 0.0000 0.0000 0.0000 55.9454 0.0000
# 6 0.0000 0.0000 0.0000 0.0000 0.0000 33.7446
#
#
#
# Elastic Compliance Matrix: (Units=1/GPa)
#
#
# Indices 1 2 3 4 5 6 
#
# 1 0.014211 -0.002530 -0.008101 0.000000 0.000000 0.000000
# 2 -0.002530 0.012296 -0.000609 0.000000 0.000000 0.000000
# 3 -0.008101 -0.000609 0.025058 0.000000 0.000000 0.000000
# 4 0.000000 0.000000 0.000000 0.075893 0.000000 0.000000
# 5 0.000000 0.000000 0.000000 0.000000 0.017875 0.000000
# 6 0.000000 0.000000 0.000000 0.000000 0.000000 0.029634
#
#
# Mechanical properties :
#
#
# Convention : Reuss Voigt Hill
#
# Bulk Modulus (GPa) = 34.37959 38.24340 36.31150
# Shear Modulus (GPa) = 24.13796 31.77149 27.95473
#
# Velocity S-wave (km/s) = 3.38987 3.88912 3.64805
# Velocity P-wave (km/s) = 5.62926 6.19463 5.91870
#
# Compressibility (1/GPa) = 0.02908703
#
# Stress axis : x y z
#
# Youngs Moduli (GPa) = 70.36582 81.32761 39.90663
#
# Poissons Ratio (x) = 0.20573 0.32328
# Poissons Ratio (y) = 0.17800 0.02430
# Poissons Ratio (z) = 0.57003 0.04952
#
# Static dielectric constant tensor:
#      x y z
#    x 1.850300 0.000000 0.000000 
#    y 0.000000 1.879280 0.000000 
#    z 0.000000 0.000000 1.726860 
# 
# From -- ./inp_files/55667.got.cif
#   From: 2010.05.17/outbox.cif.g08.bks.cpg/sg68_28_cif.got.tgz:55667.got - 2010.06.03 18:57:09.
