data_PCOD9508459
_publ_section_title
;
Structure prediction by ZEFSAII (Michael W. Deem and Ramdas Pophale) SiO2 
 PCOD9508459
Probable space group: C C C A
;
_chemical_formula_sum "Si O2"
_cell_formula_units_Z 100
_cell_length_a 14.748846
_cell_length_b 11.181885
_cell_length_c 30.656327
_cell_angle_alpha 90.000000
_cell_angle_beta 90.000000
_cell_angle_gamma 90.000000
_cell_volume 5055.838379
_symmetry_space_group_name_H-M "C C C A"
_symmetry_group_IT_number 68
_space_group.IT_coordinate_system_code '2'
_symmetry_cell_setting 'orthorhombic'
loop_
_space_group_symop_operation_xyz
x,y,z
-x,1/2-y,z
x,1/2-y,1/2-z
-x,y,1/2-z
-x,-y,-z
x,1/2+y,-z
-x,1/2+y,1/2+z
x,-y,1/2+z
1/2+x,1/2+y,z
1/2-x,-y,z
1/2+x,-y,1/2-z
1/2-x,1/2+y,1/2-z
1/2-x,1/2-y,-z
1/2+x,y,-z
1/2-x,y,1/2+z
1/2+x,1/2-y,1/2+z
loop_
_atom_site_type_symbol
_atom_site_label
_atom_site_fract_x
_atom_site_fract_y
_atom_site_fract_z
Si Si1 0.149114 0.449186 0.583875
Si Si2 0.525913 0.616983 0.095521
Si Si3 0.437742 0.462344 0.811350
Si Si4 0.250000 0.000000 0.229578
Si Si5 0.056268 0.125628 0.001115
Si Si6 0.198262 0.750000 0.250000
Si Si7 0.921652 0.661847 0.328997
Si Si8 0.000000 0.750000 0.750000
O O1 0.250000 0.500000 0.581720
O O2 0.126071 0.379558 0.538946
O O3 0.136399 0.377406 0.629158
O O4 0.068979 0.548527 0.586477
O O5 0.500000 0.750000 0.108478
O O6 0.570917 0.557747 0.137033
O O7 0.586138 0.624570 0.051785
O O8 0.343231 0.515600 0.795969
O O9 0.525761 0.548679 0.807182
O O10 0.451928 0.342117 0.783495
O O11 0.242778 0.128616 0.252598
O O12 0.000000 0.250000 0.996352
O O13 0.000000 0.000000 0.000000
O O14 0.134451 0.770736 0.291961
O O15 0.000000 0.750000 0.345566
#
# Coordination Sequence:
#
# PCOD9508459 Si02
#       8
#    16  16  16   8  16   8  16   4
#     4  10  22  38  65  99 124 160 222 271 316 378
#     4   9  19  40  62  86 131 172 204 250 327 391
#     4  11  23  40  62  92 121 171 208 261 317 385
#     4  12  26  40  62  94 126 160 214 274 314 370
#     4   9  18  38  66  90 125 171 209 255 323 393
#     4  12  26  44  65  93 128 168 220 266 326 373
#     4  11  23  43  64  85 126 173 212 255 322 394
#     4  12  22  40  64  84 124 162 220 244 328 392
#
# _framework density 19.779112999999999
#
# number of rings (size 3 to 8) (size 9 to 14) (size 15 to 20)
#    0.000    1.600    2.400    2.160    1.120    1.280 
#    1.440    7.200    0.000    0.000    0.000    0.000 
#    0.000    0.000    0.000    0.000    0.000    0.000 
#
# Total GULP energy -278449.974542 kJ/mol
# GULP energy per Si atom -5568.999491 kJ/mol
# Density = 1.973409 g / cm^3
# Si number density = 19.779113 Si / 1000 Ang^3
#
#
#
# Elastic Constant Matrix: (Units=GPa)
#
#
# Indices 1 2 3 4 5 6 
#
# 1 64.7678 24.9939 63.2680 0.0000 0.0000 0.0000
# 2 24.9939 119.0273 40.1543 0.0000 0.0000 0.0000
# 3 63.2680 40.1543 123.7474 0.0000 0.0000 0.0000
# 4 0.0000 0.0000 0.0000 15.0696 0.0000 0.0000
# 5 0.0000 0.0000 0.0000 0.0000 2.9326 0.0000
# 6 0.0000 0.0000 0.0000 0.0000 0.0000 21.7756
#
#
#
# Elastic Compliance Matrix: (Units=1/GPa)
#
#
# Indices 1 2 3 4 5 6 
#
# 1 0.031024 -0.001307 -0.015438 0.000000 0.000000 0.000000
# 2 -0.001307 0.009489 -0.002411 0.000000 0.000000 0.000000
# 3 -0.015438 -0.002411 0.016756 0.000000 0.000000 0.000000
# 4 0.000000 0.000000 0.000000 0.066359 0.000000 0.000000
# 5 0.000000 0.000000 0.000000 0.000000 0.340990 0.000000
# 6 0.000000 0.000000 0.000000 0.000000 0.000000 0.045923
#
#
# Mechanical properties :
#
#
# Convention : Reuss Voigt Hill
#
# Bulk Modulus (GPa) = 52.74611 62.70830 57.72721
# Shear Modulus (GPa) = 9.00623 19.89734 14.45178
#
# Velocity S-wave (km/s) = 2.13619 3.17516 2.70600
# Velocity P-wave (km/s) = 5.72799 6.72423 6.24600
#
# Compressibility (1/GPa) = 0.01895874
#
# Stress axis : x y z
#
# Youngs Moduli (GPa) = 32.23288 105.38310 59.67970
#
# Poissons Ratio (x) = 0.13770 0.92132
# Poissons Ratio (y) = 0.04212 0.14389
# Poissons Ratio (z) = 0.49760 0.25408
#
# Static dielectric constant tensor:
#      x y z
#    x 1.692040 0.000000 0.000000 
#    y 0.000000 1.883670 0.000000 
#    z 0.000000 0.000000 1.724320 
# 
# From -- ./inp_files/55228.got.cif
#   From: 2010.05.17/outbox.cif.g08.bks.cpg/sg68_28_cif.got.tgz:55228.got - 2010.06.03 18:57:09.
