data_PCOD9508058
_publ_section_title
;
Structure prediction by ZEFSAII (Michael W. Deem and Ramdas Pophale) SiO2 
 PCOD9508058
Probable space group: C C C A
;
_chemical_formula_sum "Si O2"
_cell_formula_units_Z 104
_cell_length_a 20.582471
_cell_length_b 14.627893
_cell_length_c 17.419376
_cell_angle_alpha 90.000000
_cell_angle_beta 90.000000
_cell_angle_gamma 90.000000
_cell_volume 5244.594083
_symmetry_space_group_name_H-M "C C C A"
_symmetry_group_IT_number 68
_space_group.IT_coordinate_system_code '2'
_symmetry_cell_setting 'orthorhombic'
loop_
_space_group_symop_operation_xyz
x,y,z
-x,1/2-y,z
x,1/2-y,1/2-z
-x,y,1/2-z
-x,-y,-z
x,1/2+y,-z
-x,1/2+y,1/2+z
x,-y,1/2+z
1/2+x,1/2+y,z
1/2-x,-y,z
1/2+x,-y,1/2-z
1/2-x,1/2+y,1/2-z
1/2-x,1/2-y,-z
1/2+x,y,-z
1/2-x,y,1/2+z
1/2+x,1/2-y,1/2+z
loop_
_atom_site_type_symbol
_atom_site_label
_atom_site_fract_x
_atom_site_fract_y
_atom_site_fract_z
Si Si1 0.019226 0.450975 0.335707
Si Si2 0.953693 0.663163 0.142768
Si Si3 0.241253 0.394993 0.189061
Si Si4 0.845032 0.250000 0.750000
Si Si5 0.049115 0.167231 0.460609
Si Si6 0.801568 0.218533 0.063555
Si Si7 0.634950 0.671772 0.196316
O O1 0.027645 0.560645 0.331253
O O2 0.087096 0.397069 0.346645
O O3 0.000000 0.421411 0.250000
O O4 0.970148 0.414405 0.401841
O O5 0.888078 0.698737 0.184572
O O6 0.000000 0.750000 0.160044
O O7 0.958024 0.649280 0.050931
O O8 0.250000 0.500000 0.200775
O O9 0.299675 0.328837 0.214352
O O10 0.227238 0.372362 0.101031
O O11 0.178017 0.374551 0.239121
O O12 0.123885 0.198461 0.457148
O O13 0.000000 0.250000 0.439898
O O14 0.813370 0.287930 0.134861
O O15 0.750000 0.250000 0.000000
O O16 0.600912 0.750000 0.250000
#
# Coordination Sequence:
#
# PCOD9508058 Si02
#       7
#    16  16  16   8  16  16  16
#     4  12  23  40  70 100 131 176 225 281 342 412
#     4  11  26  44  63  97 134 178 226 276 338 414
#     4  11  23  41  65 100 129 175 229 281 335 411
#     4  12  21  42  70  88 133 182 222 282 338 408
#     4  11  24  42  68  98 138 175 221 291 346 403
#     4  11  22  43  65  94 135 180 218 279 352 405
#     4  10  21  40  66  96 132 166 222 281 336 396
#
# _framework density 19.829943
#
# number of rings (size 3 to 8) (size 9 to 14) (size 15 to 20)
#    0.000    0.923    3.846    5.308    0.000    1.231 
#    2.769    0.000    0.000    0.000    0.000    0.000 
#    0.000    0.000    0.000    0.000    0.000    0.000 
#
# Total GULP energy -289688.267402 kJ/mol
# GULP energy per Si atom -5570.928219 kJ/mol
# Density = 1.978481 g / cm^3
# Si number density = 19.829943 Si / 1000 Ang^3
#
#
#
# Elastic Constant Matrix: (Units=GPa)
#
#
# Indices 1 2 3 4 5 6 
#
# 1 114.8431 56.2719 33.3664 0.0000 0.0000 0.0000
# 2 56.2719 133.6651 40.7077 0.0000 0.0000 0.0000
# 3 33.3664 40.7077 88.0799 0.0000 0.0000 0.0000
# 4 0.0000 0.0000 0.0000 26.3424 0.0000 0.0000
# 5 0.0000 0.0000 0.0000 0.0000 90.8522 0.0000
# 6 0.0000 0.0000 0.0000 0.0000 0.0000 771.9425
#
#
#
# Elastic Compliance Matrix: (Units=1/GPa)
#
#
# Indices 1 2 3 4 5 6 
#
# 1 0.011406 -0.004057 -0.002446 0.000000 0.000000 0.000000
# 2 -0.004057 0.010150 -0.003154 0.000000 0.000000 0.000000
# 3 -0.002446 -0.003154 0.013738 0.000000 0.000000 0.000000
# 4 0.000000 0.000000 0.000000 0.037962 0.000000 0.000000
# 5 0.000000 0.000000 0.000000 0.000000 0.011007 0.000000
# 6 0.000000 0.000000 0.000000 0.000000 0.000000 0.001295
#
#
# Mechanical properties :
#
#
# Convention : Reuss Voigt Hill
#
# Bulk Modulus (GPa) = 62.57932 66.36445 64.47189
# Shear Modulus (GPa) = 45.37298 191.57690 118.47494
#
# Velocity S-wave (km/s) = 4.78860 9.83970 7.73791
# Velocity P-wave (km/s) = 7.88675 12.75274 10.60267
#
# Compressibility (1/GPa) = 0.01597972
#
# Stress axis : x y z
#
# Youngs Moduli (GPa) = 87.67314 98.52312 72.79305
#
# Poissons Ratio (x) = 0.39970 0.17804
# Poissons Ratio (y) = 0.35569 0.22960
# Poissons Ratio (z) = 0.21443 0.31075
#
# Static dielectric constant tensor:
#      x y z
#    x 1.778060 0.000000 0.000000 
#    y 0.000000 2.075360 0.000000 
#    z 0.000000 0.000000 1.731830 
# 
# From -- ./inp_files/33017.got.cif
#   From: 2010.05.17/outbox.cif.g08.bks.cpg/sg68_17_cif.got.tgz:33017.got - 2010.06.03 18:57:09.
