data_PCOD9508381
_publ_section_title
;
Structure prediction by ZEFSAII (Michael W. Deem and Ramdas Pophale) SiO2 
 PCOD9508381
Probable space group: C C C A
;
_chemical_formula_sum "Si O2"
_cell_formula_units_Z 72
_cell_length_a 8.478961
_cell_length_b 19.838354
_cell_length_c 22.777802
_cell_angle_alpha 90.000000
_cell_angle_beta 90.000000
_cell_angle_gamma 90.000000
_cell_volume 3831.422866
_symmetry_space_group_name_H-M "C C C A"
_symmetry_group_IT_number 68
_space_group.IT_coordinate_system_code '2'
_symmetry_cell_setting 'orthorhombic'
loop_
_space_group_symop_operation_xyz
x,y,z
-x,1/2-y,z
x,1/2-y,1/2-z
-x,y,1/2-z
-x,-y,-z
x,1/2+y,-z
-x,1/2+y,1/2+z
x,-y,1/2+z
1/2+x,1/2+y,z
1/2-x,-y,z
1/2+x,-y,1/2-z
1/2-x,1/2+y,1/2-z
1/2-x,1/2-y,-z
1/2+x,y,-z
1/2-x,y,1/2+z
1/2+x,1/2-y,1/2+z
loop_
_atom_site_type_symbol
_atom_site_label
_atom_site_fract_x
_atom_site_fract_y
_atom_site_fract_z
Si Si1 0.822464 0.778885 0.314287
Si Si2 0.164798 0.928864 0.833538
Si Si3 0.000000 0.250000 0.505021
Si Si4 0.772756 0.691732 0.915594
Si Si5 0.301691 0.576671 0.306401
O O1 0.773534 0.750000 0.250000
O O2 0.713939 0.747647 0.364612
O O3 0.808636 0.859544 0.321937
O O4 0.000000 0.750000 0.322222
O O5 0.236387 0.876537 0.879313
O O6 0.193735 0.915859 0.764417
O O7 0.974818 0.920407 0.835583
O O8 0.250000 0.000000 0.845122
O O9 0.912636 0.302112 0.462089
O O10 0.879562 0.210558 0.546334
O O11 0.250000 0.500000 0.318468
#
# Coordination Sequence:
#
# PCOD9508381 Si02
#       5
#    16  16   8  16  16
#     4  11  22  35  64  98 126 161 203 260 314 382
#     4  10  22  38  61  89 128 165 199 257 314 381
#     4  10  24  38  64  80 118 166 214 270 298 358
#     4  11  21  42  59  90 120 161 216 258 311 359
#     4  10  22  37  59  95 134 166 196 241 324 397
#
# _framework density 18.791974
#
# number of rings (size 3 to 8) (size 9 to 14) (size 15 to 20)
#    0.000    1.556    3.333    1.333    3.111    1.778 
#    0.000    1.111    0.000    5.333    0.000    0.000 
#    0.000    0.000    0.000    0.000    0.000    0.000 
#
# Total GULP energy -200618.860038 kJ/mol
# GULP energy per Si atom -5572.746112 kJ/mol
# Density = 1.874920 g / cm^3
# Si number density = 18.791974 Si / 1000 Ang^3
#
#
#
# Elastic Constant Matrix: (Units=GPa)
#
#
# Indices 1 2 3 4 5 6 
#
# 1 53.3839 42.2511 20.6434 0.0000 0.0000 0.0000
# 2 42.2511 151.3709 34.5644 0.0000 0.0000 0.0000
# 3 20.6434 34.5644 93.0940 0.0000 0.0000 0.0000
# 4 0.0000 0.0000 0.0000 16.9329 0.0000 0.0000
# 5 0.0000 0.0000 0.0000 0.0000 -114.8488 0.0000
# 6 0.0000 0.0000 0.0000 0.0000 0.0000 23.8689
#
#
#
# Elastic Compliance Matrix: (Units=1/GPa)
#
#
# Indices 1 2 3 4 5 6 
#
# 1 0.024893 -0.006215 -0.003213 0.000000 0.000000 0.000000
# 2 -0.006215 0.008770 -0.001878 0.000000 0.000000 0.000000
# 3 -0.003213 -0.001878 0.012151 0.000000 0.000000 0.000000
# 4 0.000000 0.000000 0.000000 0.059056 0.000000 0.000000
# 5 0.000000 0.000000 0.000000 0.000000 -0.008707 0.000000
# 6 0.000000 0.000000 0.000000 0.000000 0.000000 0.041895
#
#
# Mechanical properties :
#
#
# Convention : Reuss Voigt Hill
#
# Bulk Modulus (GPa) = 43.09619 54.75186 48.92402
# Shear Modulus (GPa) = 29.69039 -1.45007 14.12016
#
# Velocity S-wave (km/s) = 3.97917 -0.87939 2.74413
# Velocity P-wave (km/s) = 6.64039 5.30735 6.01094
#
# Compressibility (1/GPa) = 0.02320391
#
# Stress axis : x y z
#
# Youngs Moduli (GPa) = 40.17153 114.02788 82.29444
#
# Poissons Ratio (x) = 0.70865 0.26438
# Poissons Ratio (y) = 0.24965 0.15455
# Poissons Ratio (z) = 0.12906 0.21414
#
# Static dielectric constant tensor:
#      x y z
#    x 1.722540 0.000000 0.000000 
#    y 0.000000 1.672900 0.000000 
#    z 0.000000 0.000000 1.624490 
# 
# From -- ./inp_files/42901.got.cif
#   From: 2010.05.17/outbox.cif.g08.bks.cpg/sg68_22_cif.got.tgz:42901.got - 2010.06.03 18:57:09.
