data_PCOD9508800
_publ_section_title
;
Structure prediction by ZEFSAII (Michael W. Deem and Ramdas Pophale) SiO2 
 PCOD9508800
Probable space group: C C C A
;
_chemical_formula_sum "Si O2"
_cell_formula_units_Z 88
_cell_length_a 11.152710
_cell_length_b 19.376661
_cell_length_c 19.455797
_cell_angle_alpha 90.000000
_cell_angle_beta 90.000000
_cell_angle_gamma 90.000000
_cell_volume 4204.442108
_symmetry_space_group_name_H-M "C C C A"
_symmetry_group_IT_number 68
_space_group.IT_coordinate_system_code '2'
_symmetry_cell_setting 'orthorhombic'
loop_
_space_group_symop_operation_xyz
x,y,z
-x,1/2-y,z
x,1/2-y,1/2-z
-x,y,1/2-z
-x,-y,-z
x,1/2+y,-z
-x,1/2+y,1/2+z
x,-y,1/2+z
1/2+x,1/2+y,z
1/2-x,-y,z
1/2+x,-y,1/2-z
1/2-x,1/2+y,1/2-z
1/2-x,1/2-y,-z
1/2+x,y,-z
1/2-x,y,1/2+z
1/2+x,1/2-y,1/2+z
loop_
_atom_site_type_symbol
_atom_site_label
_atom_site_fract_x
_atom_site_fract_y
_atom_site_fract_z
Si Si1 0.000000 0.750000 0.038847
Si Si2 0.108941 0.511529 0.112089
Si Si3 0.854994 0.328705 0.751501
Si Si4 0.822034 0.343588 0.905712
Si Si5 0.353885 0.056766 0.139294
Si Si6 0.099457 0.116796 0.487641
O O1 0.108893 0.728825 0.088132
O O2 0.007854 0.820119 0.996706
O O3 0.250000 0.500000 0.135665
O O4 0.117812 0.583789 0.070963
O O5 0.076587 0.447493 0.062705
O O6 0.987661 0.525371 0.156533
O O7 0.810877 0.250000 0.750000
O O8 0.809938 0.356897 0.824569
O O9 0.823432 0.380480 0.690345
O O10 0.000000 0.326762 0.750000
O O11 0.706170 0.341266 0.951217
O O12 0.250000 0.000000 0.142988
O O13 0.362401 0.086884 0.061769
#
# Coordination Sequence:
#
# PCOD9508800 Si02
#       6
#     8  16  16  16  16  16
#     4  12  22  38  67  98 137 176 242 278 356 420
#     4  10  22  42  67  95 141 177 223 280 349 398
#     4  11  22  42  68  98 136 181 235 285 340 417
#     4  11  22  41  64  96 134 180 227 287 346 409
#     4  12  24  40  70 108 137 182 238 287 339 423
#     4  11  24  40  65 100 137 179 225 289 350 409
#
# _framework density 20.930244999999999
#
# number of rings (size 3 to 8) (size 9 to 14) (size 15 to 20)
#    0.000    0.909    3.636    4.909    2.545    2.182 
#    0.000    0.000    0.000    0.000    0.000    1.273 
#    0.000    0.000    0.000    0.000    0.000    0.000 
#
# Total GULP energy -244990.213965 kJ/mol
# GULP energy per Si atom -5567.959408 kJ/mol
# Density = 2.088261 g / cm^3
# Si number density = 20.930245 Si / 1000 Ang^3
#
#
#
# Elastic Constant Matrix: (Units=GPa)
#
#
# Indices 1 2 3 4 5 6 
#
# 1 85.3210 27.0061 16.8419 0.0000 0.0000 0.0000
# 2 27.0061 150.7957 32.1005 0.0000 0.0000 0.0000
# 3 16.8419 32.1005 80.6552 0.0000 0.0000 0.0000
# 4 0.0000 0.0000 0.0000 -135.1828 0.0000 0.0000
# 5 0.0000 0.0000 0.0000 0.0000 -0.6490 0.0000
# 6 0.0000 0.0000 0.0000 0.0000 0.0000 40.5809
#
#
#
# Elastic Compliance Matrix: (Units=1/GPa)
#
#
# Indices 1 2 3 4 5 6 
#
# 1 0.012688 -0.001866 -0.001907 0.000000 0.000000 0.000000
# 2 -0.001866 0.007520 -0.002603 0.000000 0.000000 0.000000
# 3 -0.001907 -0.002603 0.013833 0.000000 0.000000 0.000000
# 4 0.000000 0.000000 0.000000 -0.007397 0.000000 0.000000
# 5 0.000000 0.000000 0.000000 0.000000 -1.540841 0.000000
# 6 0.000000 0.000000 0.000000 0.000000 0.000000 0.024642
#
#
# Mechanical properties :
#
#
# Convention : Reuss Voigt Hill
#
# Bulk Modulus (GPa) = 46.97499 52.07431 49.52465
# Shear Modulus (GPa) = -3.40204 -2.99528 -3.19866
#
# Velocity S-wave (km/s) = -1.27630 -1.19757 -1.23756
# Velocity P-wave (km/s) = 4.50781 4.79809 4.65522
#
# Compressibility (1/GPa) = 0.02128792
#
# Stress axis : x y z
#
# Youngs Moduli (GPa) = 78.81755 132.98076 72.29294
#
# Poissons Ratio (x) = 0.24819 0.13783
# Poissons Ratio (y) = 0.14710 0.18819
# Poissons Ratio (z) = 0.15027 0.34617
#
# Static dielectric constant tensor:
#      x y z
#    x 1.920450 0.000000 0.000000 
#    y 0.000000 1.804430 0.000000 
#    z 0.000000 0.000000 1.785800 
# 
# From -- ./inp_files/37457.got.cif
#   From: 2010.05.17/outbox.cif.g08.bks.cpg/sg68_19_cif.got.tgz:37457.got - 2010.06.03 18:57:09.
