data_PCOD9508866
_publ_section_title
;
Structure prediction by ZEFSAII (Michael W. Deem and Ramdas Pophale) SiO2 
 PCOD9508866
Probable space group: C C C A
;
_chemical_formula_sum "Si O2"
_cell_formula_units_Z 44
_cell_length_a 11.576743
_cell_length_b 8.237438
_cell_length_c 17.031959
_cell_angle_alpha 90.000000
_cell_angle_beta 90.000000
_cell_angle_gamma 90.000000
_cell_volume 1624.213643
_symmetry_space_group_name_H-M "C C C A"
_symmetry_group_IT_number 68
_space_group.IT_coordinate_system_code '2'
_symmetry_cell_setting 'orthorhombic'
loop_
_space_group_symop_operation_xyz
x,y,z
-x,1/2-y,z
x,1/2-y,1/2-z
-x,y,1/2-z
-x,-y,-z
x,1/2+y,-z
-x,1/2+y,1/2+z
x,-y,1/2+z
1/2+x,1/2+y,z
1/2-x,-y,z
1/2+x,-y,1/2-z
1/2-x,1/2+y,1/2-z
1/2-x,1/2-y,-z
1/2+x,y,-z
1/2-x,y,1/2+z
1/2+x,1/2-y,1/2+z
loop_
_atom_site_type_symbol
_atom_site_label
_atom_site_fract_x
_atom_site_fract_y
_atom_site_fract_z
Si Si1 0.000000 0.750000 0.250000
Si Si2 0.915992 0.519614 0.860112
Si Si3 0.322348 0.355618 0.848360
Si Si4 0.250000 0.000000 0.502468
O O1 0.922230 0.639684 0.306870
O O2 0.845241 0.671124 0.823177
O O3 0.951000 0.575040 0.637640
O O4 0.860147 0.497707 0.945269
O O5 0.250000 0.500000 0.808424
O O6 0.259859 0.354081 0.933848
#
# Coordination Sequence:
#
# PCOD9508866 Si02
#       4
#     4  16  16   8
#     4  12  32  46  68 100 166 246 252 312 372 502
#     4  11  24  48  67 111 156 199 270 306 401 489
#     4   9  23  43  80 114 141 193 256 350 414 444
#     4  10  22  42  86 114 142 186 262 362 408 446
#
# _framework density 27.090032999999998
#
# number of rings (size 3 to 8) (size 9 to 14) (size 15 to 20)
#    1.091    0.727    0.000    2.182    5.091    5.818 
#    3.273    0.000    0.000    0.000    0.000    0.000 
#    0.000    0.000    0.000    0.000    0.000    0.000 
#
# Total GULP energy -123085.856948 kJ/mol
# GULP energy per Si atom -5594.811679 kJ/mol
# Density = 2.702837 g / cm^3
# Si number density = 27.090033 Si / 1000 Ang^3
#
#
#
# Elastic Constant Matrix: (Units=GPa)
#
#
# Indices 1 2 3 4 5 6 
#
# 1 177.1561 82.0073 56.2098 0.0000 0.0000 0.0000
# 2 82.0073 226.5471 90.1191 0.0000 0.0000 0.0000
# 3 56.2098 90.1191 124.1970 0.0000 0.0000 0.0000
# 4 0.0000 0.0000 0.0000 52.7023 0.0000 0.0000
# 5 0.0000 0.0000 0.0000 0.0000 48.1845 0.0000
# 6 0.0000 0.0000 0.0000 0.0000 0.0000 56.2439
#
#
#
# Elastic Compliance Matrix: (Units=1/GPa)
#
#
# Indices 1 2 3 4 5 6 
#
# 1 0.007084 -0.001812 -0.001891 0.000000 0.000000 0.000000
# 2 -0.001812 0.006669 -0.004019 0.000000 0.000000 0.000000
# 3 -0.001891 -0.004019 0.011824 0.000000 0.000000 0.000000
# 4 0.000000 0.000000 0.000000 0.018975 0.000000 0.000000
# 5 0.000000 0.000000 0.000000 0.000000 0.020754 0.000000
# 6 0.000000 0.000000 0.000000 0.000000 0.000000 0.017780
#
#
# Mechanical properties :
#
#
# Convention : Reuss Voigt Hill
#
# Bulk Modulus (GPa) = 98.69555 109.39693 104.04624
# Shear Modulus (GPa) = 49.06537 51.39706 50.23122
#
# Velocity S-wave (km/s) = 4.26043 4.36049 4.31075
# Velocity P-wave (km/s) = 7.79187 8.11309 7.95410
#
# Compressibility (1/GPa) = 0.01013217
#
# Stress axis : x y z
#
# Youngs Moduli (GPa) = 141.17283 149.95594 84.57531
#
# Poissons Ratio (x) = 0.27170 0.15995
# Poissons Ratio (y) = 0.25578 0.33989
# Poissons Ratio (z) = 0.26699 0.60265
#
# Static dielectric constant tensor:
#      x y z
#    x 2.051030 0.000000 0.000000 
#    y 0.000000 2.212890 0.000000 
#    z 0.000000 0.000000 2.142490 
# 
# From -- ./inp_files/30234.got.cif
#   From: 2010.05.17/outbox.cif.g08.bks.cpg/sg68_16_cif.got.tgz:30234.got - 2010.06.03 18:57:09.
