data_PCOD9508371
_publ_section_title
;
Structure prediction by ZEFSAII (Michael W. Deem and Ramdas Pophale) SiO2 
 PCOD9508371
Probable space group: C C C A
;
_chemical_formula_sum "Si O2"
_cell_formula_units_Z 80
_cell_length_a 8.794146
_cell_length_b 28.000393
_cell_length_c 15.622781
_cell_angle_alpha 90.000000
_cell_angle_beta 90.000000
_cell_angle_gamma 90.000000
_cell_volume 3846.946471
_symmetry_space_group_name_H-M "C C C A"
_symmetry_group_IT_number 68
_space_group.IT_coordinate_system_code '2'
_symmetry_cell_setting 'orthorhombic'
loop_
_space_group_symop_operation_xyz
x,y,z
-x,1/2-y,z
x,1/2-y,1/2-z
-x,y,1/2-z
-x,-y,-z
x,1/2+y,-z
-x,1/2+y,1/2+z
x,-y,1/2+z
1/2+x,1/2+y,z
1/2-x,-y,z
1/2+x,-y,1/2-z
1/2-x,1/2+y,1/2-z
1/2-x,1/2-y,-z
1/2+x,y,-z
1/2-x,y,1/2+z
1/2+x,1/2-y,1/2+z
loop_
_atom_site_type_symbol
_atom_site_label
_atom_site_fract_x
_atom_site_fract_y
_atom_site_fract_z
Si Si1 0.252685 0.317467 0.565280
Si Si2 0.847975 0.404922 0.030170
Si Si3 0.401482 0.890337 0.323334
Si Si4 0.500000 0.250000 0.486809
Si Si5 0.049606 0.036577 0.575565
Si Si6 0.500000 0.519125 0.250000
O O1 0.223834 0.353261 0.485456
O O2 0.279714 0.353240 0.643532
O O3 0.398563 0.285177 0.544754
O O4 0.111141 0.282325 0.569575
O O5 0.715590 0.441126 0.058635
O O6 0.985314 0.401861 0.097630
O O7 0.924353 0.422525 0.941610
O O8 0.500000 0.865396 0.250000
O O9 0.369634 0.942547 0.281250
O O10 0.000000 0.000000 0.500000
O O11 0.040416 0.012037 0.667650
#
# Coordination Sequence:
#
# PCOD9508371 Si02
#       6
#    16  16  16   8  16   8
#     4  11  20  42  66 102 123 168 215 275 344 397
#     4  12  22  41  66  92 135 177 216 282 331 394
#     4  10  22  41  61  94 136 178 215 269 337 398
#     4  10  22  36  77  99 118 154 230 268 326 439
#     4  12  23  40  61  93 132 177 235 271 325 385
#     4  10  24  42  58  99 130 189 228 274 316 402
#
# _framework density 20.795714
#
# number of rings (size 3 to 8) (size 9 to 14) (size 15 to 20)
#    0.600    0.400    6.000    0.600    0.000    1.600 
#    7.200    0.500    0.000    1.200    0.000    0.000 
#    0.000    0.000    0.000    0.000    0.000    0.000 
#
# Total GULP energy -223193.080378 kJ/mol
# GULP energy per Si atom -5579.827009 kJ/mol
# Density = 2.074838 g / cm^3
# Si number density = 20.795714 Si / 1000 Ang^3
#
#
#
# Elastic Constant Matrix: (Units=GPa)
#
#
# Indices 1 2 3 4 5 6 
#
# 1 92.8378 64.0031 35.3056 0.0000 0.0000 0.0000
# 2 64.0031 120.4347 55.1246 0.0000 0.0000 0.0000
# 3 35.3056 55.1246 117.8643 0.0000 0.0000 0.0000
# 4 0.0000 0.0000 0.0000 21.3133 0.0000 0.0000
# 5 0.0000 0.0000 0.0000 0.0000 20.6884 0.0000
# 6 0.0000 0.0000 0.0000 0.0000 0.0000 49.5438
#
#
#
# Elastic Compliance Matrix: (Units=1/GPa)
#
#
# Indices 1 2 3 4 5 6 
#
# 1 0.017113 -0.008586 -0.001110 0.000000 0.000000 0.000000
# 2 -0.008586 0.014873 -0.004384 0.000000 0.000000 0.000000
# 3 -0.001110 -0.004384 0.010867 0.000000 0.000000 0.000000
# 4 0.000000 0.000000 0.000000 0.046919 0.000000 0.000000
# 5 0.000000 0.000000 0.000000 0.000000 0.048336 0.000000
# 6 0.000000 0.000000 0.000000 0.000000 0.000000 0.020184
#
#
# Mechanical properties :
#
#
# Convention : Reuss Voigt Hill
#
# Bulk Modulus (GPa) = 68.06408 71.11150 69.58779
# Shear Modulus (GPa) = 26.12991 30.08935 28.10963
#
# Velocity S-wave (km/s) = 3.54857 3.80794 3.68054
# Velocity P-wave (km/s) = 7.04206 7.32143 7.18311
#
# Compressibility (1/GPa) = 0.01469204
#
# Stress axis : x y z
#
# Youngs Moduli (GPa) = 58.43436 67.23620 92.01890
#
# Poissons Ratio (x) = 0.57731 0.10218
# Poissons Ratio (y) = 0.50174 0.40341
# Poissons Ratio (z) = 0.06489 0.29476
#
# Static dielectric constant tensor:
#      x y z
#    x 1.824440 0.000000 0.000000 
#    y 0.000000 1.798890 0.000000 
#    z 0.000000 0.000000 1.755990 
# 
# From -- ./inp_files/28388.got.cif
#   From: 2010.05.17/outbox.cif.g08.bks.cpg/sg68_15_cif.got.tgz:28388.got - 2010.06.03 18:57:09.
