data_PCOD9508994
_publ_section_title
;
Structure prediction by ZEFSAII (Michael W. Deem and Ramdas Pophale) SiO2 
 PCOD9508994
Probable space group: C C C A
;
_chemical_formula_sum "Si O2"
_cell_formula_units_Z 68
_cell_length_a 18.235259
_cell_length_b 5.030102
_cell_length_c 29.754261
_cell_angle_alpha 90.000000
_cell_angle_beta 90.000000
_cell_angle_gamma 90.000000
_cell_volume 2729.215921
_symmetry_space_group_name_H-M "C C C A"
_symmetry_group_IT_number 68
_space_group.IT_coordinate_system_code '2'
_symmetry_cell_setting 'orthorhombic'
loop_
_space_group_symop_operation_xyz
x,y,z
-x,1/2-y,z
x,1/2-y,1/2-z
-x,y,1/2-z
-x,-y,-z
x,1/2+y,-z
-x,1/2+y,1/2+z
x,-y,1/2+z
1/2+x,1/2+y,z
1/2-x,-y,z
1/2+x,-y,1/2-z
1/2-x,1/2+y,1/2-z
1/2-x,1/2-y,-z
1/2+x,y,-z
1/2-x,y,1/2+z
1/2+x,1/2-y,1/2+z
loop_
_atom_site_type_symbol
_atom_site_label
_atom_site_fract_x
_atom_site_fract_y
_atom_site_fract_z
Si Si1 0.700001 0.750000 0.750000
Si Si2 0.000000 0.250000 0.750000
Si Si3 0.000000 0.750000 0.400877
Si Si4 0.250000 0.500000 0.134262
Si Si5 0.750000 0.500000 0.572263
Si Si6 0.592892 0.919403 0.470676
Si Si7 0.893545 0.584363 0.322667
O O1 0.750000 0.500000 0.757438
O O2 0.651949 0.691691 0.705448
O O3 0.045605 0.446023 0.716544
O O4 0.956896 0.966685 0.430602
O O5 0.939356 0.630665 0.367350
O O6 0.230328 0.748829 0.103169
O O7 0.176435 0.414044 0.161195
O O8 0.677967 0.436818 0.543432
O O9 0.579837 0.122251 0.512052
#
# Coordination Sequence:
#
# PCOD9508994 Si02
#       7
#     8   4   8   8   8  16  16
#     4  11  24  43  74 107 141 186 240 297 348 419
#     4   8  20  44  76 110 150 192 240 296 368 424
#     4  11  24  47  74 106 152 190 238 301 364 433
#     4  12  24  45  77 112 140 192 246 298 351 433
#     4  12  26  47  77 108 142 186 248 300 361 427
#     4  12  26  48  73 105 144 191 242 298 363 431
#     4  10  22  44  75 106 150 190 243 294 361 428
#
# _framework density 24.915581
#
# number of rings (size 3 to 8) (size 9 to 14) (size 15 to 20)
#    0.000    0.941    3.529    2.824    1.647    0.000 
#    0.000    0.000    5.176    9.176    0.000    0.000 
#    0.000    0.000    0.000    0.000    0.000    0.000 
#
# Total GULP energy -189810.301570 kJ/mol
# GULP energy per Si atom -5582.655929 kJ/mol
# Density = 2.485887 g / cm^3
# Si number density = 24.915581 Si / 1000 Ang^3
#
#
#
# Elastic Constant Matrix: (Units=GPa)
#
#
# Indices 1 2 3 4 5 6 
#
# 1 183.3801 15.1415 69.8479 0.0000 0.0000 0.0000
# 2 15.1415 72.1232 6.0108 0.0000 0.0000 0.0000
# 3 69.8479 6.0108 120.1680 0.0000 0.0000 0.0000
# 4 0.0000 0.0000 0.0000 -37.9240 0.0000 0.0000
# 5 0.0000 0.0000 0.0000 0.0000 50.2641 0.0000
# 6 0.0000 0.0000 0.0000 0.0000 0.0000 29.2485
#
#
#
# Elastic Compliance Matrix: (Units=1/GPa)
#
#
# Indices 1 2 3 4 5 6 
#
# 1 0.007098 -0.001151 -0.004068 0.000000 0.000000 0.000000
# 2 -0.001151 0.014110 -0.000037 0.000000 0.000000 0.000000
# 3 -0.004068 -0.000037 0.010688 0.000000 0.000000 0.000000
# 4 0.000000 0.000000 0.000000 -0.026369 0.000000 0.000000
# 5 0.000000 0.000000 0.000000 0.000000 0.019895 0.000000
# 6 0.000000 0.000000 0.000000 0.000000 0.000000 0.034190
#
#
# Mechanical properties :
#
#
# Convention : Reuss Voigt Hill
#
# Bulk Modulus (GPa) = 46.76370 61.96352 54.36361
# Shear Modulus (GPa) = 64.72394 27.29579 46.00986
#
# Velocity S-wave (km/s) = 5.10232 3.31347 4.30191
# Velocity P-wave (km/s) = 7.31582 6.28985 6.82215
#
# Compressibility (1/GPa) = 0.02138411
#
# Stress axis : x y z
#
# Youngs Moduli (GPa) = 140.89197 70.87233 93.56271
#
# Poissons Ratio (x) = 0.08158 0.38061
# Poissons Ratio (y) = 0.16217 0.00344
# Poissons Ratio (z) = 0.57314 0.00260
#
# Static dielectric constant tensor:
#      x y z
#    x 2.091520 0.000000 0.000000 
#    y 0.000000 1.912850 0.000000 
#    z 0.000000 0.000000 2.023490 
# 
# From -- ./inp_files/51662.got.cif
#   From: 2010.05.17/outbox.cif.g08.bks.cpg/sg68_26_cif.got.tgz:51662.got - 2010.06.03 18:57:09.
