data_PCOD9508545
_publ_section_title
;
Structure prediction by ZEFSAII (Michael W. Deem and Ramdas Pophale) SiO2 
 PCOD9508545
Probable space group: C C C A
;
_chemical_formula_sum "Si O2"
_cell_formula_units_Z 80
_cell_length_a 8.706337
_cell_length_b 18.656583
_cell_length_c 23.771660
_cell_angle_alpha 90.000000
_cell_angle_beta 90.000000
_cell_angle_gamma 90.000000
_cell_volume 3861.242593
_symmetry_space_group_name_H-M "C C C A"
_symmetry_group_IT_number 68
_space_group.IT_coordinate_system_code '2'
_symmetry_cell_setting 'orthorhombic'
loop_
_space_group_symop_operation_xyz
x,y,z
-x,1/2-y,z
x,1/2-y,1/2-z
-x,y,1/2-z
-x,-y,-z
x,1/2+y,-z
-x,1/2+y,1/2+z
x,-y,1/2+z
1/2+x,1/2+y,z
1/2-x,-y,z
1/2+x,-y,1/2-z
1/2-x,1/2+y,1/2-z
1/2-x,1/2-y,-z
1/2+x,y,-z
1/2-x,y,1/2+z
1/2+x,1/2-y,1/2+z
loop_
_atom_site_type_symbol
_atom_site_label
_atom_site_fract_x
_atom_site_fract_y
_atom_site_fract_z
Si Si1 0.077650 0.580577 0.392614
Si Si2 0.075902 0.178106 0.811418
Si Si3 0.093625 0.415828 0.415369
Si Si4 0.642356 0.305418 0.881846
Si Si5 0.402552 0.318864 0.023782
O O1 0.068992 0.500936 0.417851
O O2 0.254993 0.594576 0.377407
O O3 0.972243 0.603830 0.340780
O O4 0.019098 0.634808 0.439309
O O5 0.254315 0.191614 0.825513
O O6 0.000000 0.250000 0.838619
O O7 0.000000 0.175834 0.750000
O O8 0.135039 0.372115 0.472247
O O9 0.940767 0.380806 0.391766
O O10 0.500000 0.250000 0.879309
O O11 0.761383 0.296909 0.934844
O O12 0.500000 0.250000 0.005232
#
# Coordination Sequence:
#
# PCOD9508545 Si02
#       5
#    16  16  16  16  16
#     4  10  22  40  57  85 128 165 202 258 315 362
#     4  10  22  43  67  89 119 157 201 263 330 374
#     4  11  22  36  57  88 124 166 212 249 297 372
#     4  11  22  38  64  95 127 166 216 259 305 375
#     4  11  22  36  58  88 129 172 207 251 308 364
#
# _framework density 20.718717999999999
#
# number of rings (size 3 to 8) (size 9 to 14) (size 15 to 20)
#    0.000    1.400    0.000    7.200    0.000    7.200 
#    0.000   12.000    0.000    0.000    0.000    0.000 
#    0.000    0.000    0.000    0.000    0.000    0.000 
#
# Total GULP energy -222995.292150 kJ/mol
# GULP energy per Si atom -5574.882304 kJ/mol
# Density = 2.067156 g / cm^3
# Si number density = 20.718718 Si / 1000 Ang^3
#
#
#
# Elastic Constant Matrix: (Units=GPa)
#
#
# Indices 1 2 3 4 5 6 
#
# 1 149.0945 55.4676 48.0177 0.0000 0.0000 0.0000
# 2 55.4676 116.6403 46.4622 0.0000 0.0000 0.0000
# 3 48.0177 46.4622 77.0805 0.0000 0.0000 0.0000
# 4 0.0000 0.0000 0.0000 8.4890 0.0000 0.0000
# 5 0.0000 0.0000 0.0000 0.0000 11.2565 0.0000
# 6 0.0000 0.0000 0.0000 0.0000 0.0000 40.5933
#
#
#
# Elastic Compliance Matrix: (Units=1/GPa)
#
#
# Indices 1 2 3 4 5 6 
#
# 1 0.008989 -0.002690 -0.003978 0.000000 0.000000 0.000000
# 2 -0.002690 0.012087 -0.005610 0.000000 0.000000 0.000000
# 3 -0.003978 -0.005610 0.018834 0.000000 0.000000 0.000000
# 4 0.000000 0.000000 0.000000 0.117800 0.000000 0.000000
# 5 0.000000 0.000000 0.000000 0.000000 0.088837 0.000000
# 6 0.000000 0.000000 0.000000 0.000000 0.000000 0.024635
#
#
# Mechanical properties :
#
#
# Convention : Reuss Voigt Hill
#
# Bulk Modulus (GPa) = 65.13453 71.41225 68.27339
# Shear Modulus (GPa) = 16.61922 24.92561 20.77242
#
# Velocity S-wave (km/s) = 2.83527 3.47226 3.16981
# Velocity P-wave (km/s) = 6.49801 7.11462 6.81329
#
# Compressibility (1/GPa) = 0.01535284
#
# Stress axis : x y z
#
# Youngs Moduli (GPa) = 111.24437 82.73127 53.09685
#
# Poissons Ratio (x) = 0.22255 0.21124
# Poissons Ratio (y) = 0.29925 0.29788
# Poissons Ratio (z) = 0.44258 0.46414
#
# Static dielectric constant tensor:
#      x y z
#    x 1.759100 0.000000 0.000000 
#    y 0.000000 1.764590 0.000000 
#    z 0.000000 0.000000 1.828500 
# 
# From -- ./inp_files/49114.got.cif
#   From: 2010.05.17/outbox.cif.g08.bks.cpg/sg68_25_cif.got.tgz:49114.got - 2010.06.03 18:57:09.
