data_PCOD9508711
_publ_section_title
;
Structure prediction by ZEFSAII (Michael W. Deem and Ramdas Pophale) SiO2 
 PCOD9508711
Probable space group: C C C A
;
_chemical_formula_sum "Si O2"
_cell_formula_units_Z 68
_cell_length_a 9.222194
_cell_length_b 14.864961
_cell_length_c 24.056611
_cell_angle_alpha 90.000000
_cell_angle_beta 90.000000
_cell_angle_gamma 90.000000
_cell_volume 3297.861963
_symmetry_space_group_name_H-M "C C C A"
_symmetry_group_IT_number 68
_space_group.IT_coordinate_system_code '2'
_symmetry_cell_setting 'orthorhombic'
loop_
_space_group_symop_operation_xyz
x,y,z
-x,1/2-y,z
x,1/2-y,1/2-z
-x,y,1/2-z
-x,-y,-z
x,1/2+y,-z
-x,1/2+y,1/2+z
x,-y,1/2+z
1/2+x,1/2+y,z
1/2-x,-y,z
1/2+x,-y,1/2-z
1/2-x,1/2+y,1/2-z
1/2-x,1/2-y,-z
1/2+x,y,-z
1/2-x,y,1/2+z
1/2+x,1/2-y,1/2+z
loop_
_atom_site_type_symbol
_atom_site_label
_atom_site_fract_x
_atom_site_fract_y
_atom_site_fract_z
Si Si1 0.673638 0.249501 0.559770
Si Si2 0.599493 0.160878 0.130368
Si Si3 0.253296 0.389479 0.239831
Si Si4 0.686134 0.402807 0.132314
Si Si5 0.500000 0.250000 0.750000
O O1 0.500000 0.250000 0.556051
O O2 0.750000 0.250000 0.500000
O O3 0.754304 0.170801 0.595134
O O4 0.722964 0.337357 0.593484
O O5 0.500000 0.250000 0.123907
O O6 0.634075 0.142495 0.194058
O O7 0.480443 0.088609 0.112851
O O8 0.250000 0.500000 0.235191
O O9 0.296080 0.369726 0.303648
O O10 0.112979 0.325752 0.225652
O O11 0.750000 0.500000 0.131405
#
# Coordination Sequence:
#
# PCOD9508711 Si02
#       5
#    16  16  16  16   4
#     4  11  24  44  68  92 126 171 227 281 346 414
#     4  10  22  41  65  95 132 178 222 277 348 409
#     4  11  26  39  67 100 147 180 235 278 351 420
#     4  10  23  41  66  96 135 173 222 279 342 412
#     4  12  24  40  62  98 144 188 242 280 352 404
#
# _framework density 20.619420999999999
#
# number of rings (size 3 to 8) (size 9 to 14) (size 15 to 20)
#    0.000    1.412    0.000    5.647   13.176    2.824 
#    0.000    5.882    0.000    0.000    0.000    0.000 
#    0.000    0.000    0.000    0.000    0.000    0.000 
#
# Total GULP energy -189319.435326 kJ/mol
# GULP energy per Si atom -5568.218686 kJ/mol
# Density = 2.057249 g / cm^3
# Si number density = 20.619421 Si / 1000 Ang^3
#
#
#
# Elastic Constant Matrix: (Units=GPa)
#
#
# Indices 1 2 3 4 5 6 
#
# 1 203.4397 49.7749 66.6380 0.0000 0.0000 0.0000
# 2 49.7749 72.5033 29.0282 0.0000 0.0000 0.0000
# 3 66.6380 29.0282 141.3608 0.0000 0.0000 0.0000
# 4 0.0000 0.0000 0.0000 -17.5811 0.0000 0.0000
# 5 0.0000 0.0000 0.0000 0.0000 31.0796 0.0000
# 6 0.0000 0.0000 0.0000 0.0000 0.0000 27.5148
#
#
#
# Elastic Compliance Matrix: (Units=1/GPa)
#
#
# Indices 1 2 3 4 5 6 
#
# 1 0.006559 -0.003558 -0.002362 0.000000 0.000000 0.000000
# 2 -0.003558 0.016958 -0.001805 0.000000 0.000000 0.000000
# 3 -0.002362 -0.001805 0.008558 0.000000 0.000000 0.000000
# 4 0.000000 0.000000 0.000000 -0.056879 0.000000 0.000000
# 5 0.000000 0.000000 0.000000 0.000000 0.032175 0.000000
# 6 0.000000 0.000000 0.000000 0.000000 0.000000 0.036344
#
#
# Mechanical properties :
#
#
# Convention : Reuss Voigt Hill
#
# Bulk Modulus (GPa) = 60.14556 78.68735 69.41645
# Shear Modulus (GPa) = 77.27219 26.32683 51.79951
#
# Velocity S-wave (km/s) = 6.12836 3.57711 5.01759
# Velocity P-wave (km/s) = 8.90553 7.43677 8.20408
#
# Compressibility (1/GPa) = 0.01662633
#
# Stress axis : x y z
#
# Youngs Moduli (GPa) = 152.45155 58.97058 116.84923
#
# Poissons Ratio (x) = 0.20980 0.27595
# Poissons Ratio (y) = 0.54237 0.21093
# Poissons Ratio (z) = 0.36003 0.10645
#
# Static dielectric constant tensor:
#      x y z
#    x 1.771340 0.000000 0.000000 
#    y 0.000000 1.836270 0.000000 
#    z 0.000000 0.000000 1.719560 
# 
# From -- ./inp_files/35856.got.cif
#   From: 2010.05.17/outbox.cif.g08.bks.cpg/sg68_18_cif.got.tgz:35856.got - 2010.06.03 18:57:09.
