data_PCOD9508950
_publ_section_title
;
Structure prediction by ZEFSAII (Michael W. Deem and Ramdas Pophale) SiO2 
 PCOD9508950
Probable space group: C C C A
;
_chemical_formula_sum "Si O2"
_cell_formula_units_Z 52
_cell_length_a 26.758794
_cell_length_b 8.598882
_cell_length_c 10.906967
_cell_angle_alpha 90.000000
_cell_angle_beta 90.000000
_cell_angle_gamma 90.000000
_cell_volume 2509.646338
_symmetry_space_group_name_H-M "C C C A"
_symmetry_group_IT_number 68
_space_group.IT_coordinate_system_code '2'
_symmetry_cell_setting 'orthorhombic'
loop_
_space_group_symop_operation_xyz
x,y,z
-x,1/2-y,z
x,1/2-y,1/2-z
-x,y,1/2-z
-x,-y,-z
x,1/2+y,-z
-x,1/2+y,1/2+z
x,-y,1/2+z
1/2+x,1/2+y,z
1/2-x,-y,z
1/2+x,-y,1/2-z
1/2-x,1/2+y,1/2-z
1/2-x,1/2-y,-z
1/2+x,y,-z
1/2-x,y,1/2+z
1/2+x,1/2-y,1/2+z
loop_
_atom_site_type_symbol
_atom_site_label
_atom_site_fract_x
_atom_site_fract_y
_atom_site_fract_z
Si Si1 0.500000 0.750000 0.250000
Si Si2 0.119562 0.797225 0.122031
Si Si3 0.596252 0.651450 0.134991
Si Si4 0.768221 0.324978 0.874836
O O1 0.537772 0.642858 0.172535
O O2 0.093067 0.750000 0.250000
O O3 0.172510 0.707057 0.126745
O O4 0.122183 0.984438 0.122599
O O5 0.097567 0.743217 0.992654
O O6 0.618420 0.750000 0.250000
O O7 0.747862 0.250000 0.750000
O O8 0.750000 0.500000 0.875522
O O9 0.750000 0.250000 0.000000
#
# Coordination Sequence:
#
# PCOD9508950 Si02
#       4
#     4  16  16  16
#     4   8  24  44  68 100 140 172 232 276 340 396
#     4  11  23  41  67 100 133 179 226 274 342 395
#     4  10  22  44  66  98 138 175 227 278 336 402
#     4  11  24  42  65 100 136 176 225 277 337 399
#
# _framework density 20.720051000000002
#
# number of rings (size 3 to 8) (size 9 to 14) (size 15 to 20)
#    0.923    0.615    0.000    4.615    0.000    7.385 
#    0.000    0.000    0.000    0.000    0.000    0.000 
#    0.000    0.000    0.000    0.000    0.000    0.000 
#
# Total GULP energy -144970.794663 kJ/mol
# GULP energy per Si atom -5575.799795 kJ/mol
# Density = 2.067289 g / cm^3
# Si number density = 20.720051 Si / 1000 Ang^3
#
#
#
# Elastic Constant Matrix: (Units=GPa)
#
#
# Indices 1 2 3 4 5 6 
#
# 1 80.9167 32.2984 22.6245 0.0000 0.0000 0.0000
# 2 32.2984 197.4889 85.9826 0.0000 0.0000 0.0000
# 3 22.6245 85.9826 231.3887 0.0000 0.0000 0.0000
# 4 0.0000 0.0000 0.0000 43.4590 0.0000 0.0000
# 5 0.0000 0.0000 0.0000 0.0000 19.5132 0.0000
# 6 0.0000 0.0000 0.0000 0.0000 0.0000 -90.9225
#
#
#
# Elastic Compliance Matrix: (Units=1/GPa)
#
#
# Indices 1 2 3 4 5 6 
#
# 1 0.013288 -0.001918 -0.000587 0.000000 0.000000 0.000000
# 2 -0.001918 0.006318 -0.002160 0.000000 0.000000 0.000000
# 3 -0.000587 -0.002160 0.005182 0.000000 0.000000 0.000000
# 4 0.000000 0.000000 0.000000 0.023010 0.000000 0.000000
# 5 0.000000 0.000000 0.000000 0.000000 0.051247 0.000000
# 6 0.000000 0.000000 0.000000 0.000000 0.000000 -0.010998
#
#
# Mechanical properties :
#
#
# Convention : Reuss Voigt Hill
#
# Bulk Modulus (GPa) = 64.68986 87.95614 76.32300
# Shear Modulus (GPa) = 48.76698 19.00252 33.88475
#
# Velocity S-wave (km/s) = 4.85667 3.03166 4.04835
# Velocity P-wave (km/s) = 7.92075 7.40247 7.66599
#
# Compressibility (1/GPa) = 0.01545837
#
# Stress axis : x y z
#
# Youngs Moduli (GPa) = 75.25641 158.28603 192.98434
#
# Poissons Ratio (x) = 0.30356 0.11321
# Poissons Ratio (y) = 0.14432 0.41686
# Poissons Ratio (z) = 0.04415 0.34191
#
# Static dielectric constant tensor:
#      x y z
#    x 2.008510 0.000000 0.000000 
#    y 0.000000 1.718120 0.000000 
#    z 0.000000 0.000000 1.783680 
# 
# From -- ./inp_files/16804.got.cif
#   From: 2010.05.17/outbox.cif.g08.bks.cpg/sg68_9_cif.got.tgz:16804.got - 2010.06.03 18:57:09.
