data_PCOD9508406
_publ_section_title
;
Structure prediction by ZEFSAII (Michael W. Deem and Ramdas Pophale) SiO2 
 PCOD9508406
Probable space group: C C C A
;
_chemical_formula_sum "Si O2"
_cell_formula_units_Z 96
_cell_length_a 8.874306
_cell_length_b 21.399460
_cell_length_c 24.245395
_cell_angle_alpha 90.000000
_cell_angle_beta 90.000000
_cell_angle_gamma 90.000000
_cell_volume 4604.330375
_symmetry_space_group_name_H-M "C C C A"
_symmetry_group_IT_number 68
_space_group.IT_coordinate_system_code '2'
_symmetry_cell_setting 'orthorhombic'
loop_
_space_group_symop_operation_xyz
x,y,z
-x,1/2-y,z
x,1/2-y,1/2-z
-x,y,1/2-z
-x,-y,-z
x,1/2+y,-z
-x,1/2+y,1/2+z
x,-y,1/2+z
1/2+x,1/2+y,z
1/2-x,-y,z
1/2+x,-y,1/2-z
1/2-x,1/2+y,1/2-z
1/2-x,1/2-y,-z
1/2+x,y,-z
1/2-x,y,1/2+z
1/2+x,1/2-y,1/2+z
loop_
_atom_site_type_symbol
_atom_site_label
_atom_site_fract_x
_atom_site_fract_y
_atom_site_fract_z
Si Si1 0.874099 0.553160 0.703237
Si Si2 0.933644 0.151390 0.051408
Si Si3 0.987458 0.109663 0.931750
Si Si4 0.345404 0.718362 0.590312
Si Si5 0.091139 0.519721 0.603574
Si Si6 0.710685 0.661909 0.130729
O O1 0.750000 0.500000 0.715959
O O2 0.806200 0.620613 0.685610
O O3 0.000000 0.559234 0.750000
O O4 0.963857 0.531877 0.648565
O O5 0.796155 0.200419 0.051778
O O6 0.880228 0.082075 0.068840
O O7 0.053878 0.169563 0.098125
O O8 0.004779 0.140149 0.991809
O O9 0.819522 0.121622 0.909756
O O10 0.094216 0.150502 0.891020
O O11 0.032984 0.038151 0.932378
O O12 0.500000 0.750000 0.568202
O O13 0.284248 0.769286 0.633706
O O14 0.250000 0.500000 0.629789
#
# Coordination Sequence:
#
# PCOD9508406 Si02
#       6
#    16  16  16  16  16  16
#     4  11  23  44  70 100 121 157 210 277 347 397
#     4  11  22  35  60  91 133 188 221 265 312 379
#     4  11  21  38  58  94 136 178 220 259 315 387
#     4  10  22  38  57  85 129 181 220 261 308 376
#     4  11  22  39  62  95 131 170 216 274 332 384
#     4  10  23  38  62  93 131 166 217 271 317 385
#
# _framework density 20.849938000000002
#
# number of rings (size 3 to 8) (size 9 to 14) (size 15 to 20)
#    0.000    1.333    3.333    2.500    0.000    7.333 
#    0.000    0.000    0.000    8.000    0.000    5.833 
#    0.000    0.000    0.000    0.000    0.000    0.000 
#
# Total GULP energy -267638.549269 kJ/mol
# GULP energy per Si atom -5575.803110 kJ/mol
# Density = 2.080248 g / cm^3
# Si number density = 20.849938 Si / 1000 Ang^3
#
#
#
# Elastic Constant Matrix: (Units=GPa)
#
#
# Indices 1 2 3 4 5 6 
#
# 1 99.7083 45.7250 14.8064 0.0000 0.0000 0.0000
# 2 45.7250 149.3950 36.7899 0.0000 0.0000 0.0000
# 3 14.8064 36.7899 55.6015 0.0000 0.0000 0.0000
# 4 0.0000 0.0000 0.0000 5.8365 0.0000 0.0000
# 5 0.0000 0.0000 0.0000 0.0000 24.9636 0.0000
# 6 0.0000 0.0000 0.0000 0.0000 0.0000 39.1719
#
#
#
# Elastic Compliance Matrix: (Units=1/GPa)
#
#
# Indices 1 2 3 4 5 6 
#
# 1 0.011704 -0.003363 -0.000892 0.000000 0.000000 0.000000
# 2 -0.003363 0.008963 -0.005035 0.000000 0.000000 0.000000
# 3 -0.000892 -0.005035 0.021554 0.000000 0.000000 0.000000
# 4 0.000000 0.000000 0.000000 0.171335 0.000000 0.000000
# 5 0.000000 0.000000 0.000000 0.000000 0.040058 0.000000
# 6 0.000000 0.000000 0.000000 0.000000 0.000000 0.025529
#
#
# Mechanical properties :
#
#
# Convention : Reuss Voigt Hill
#
# Bulk Modulus (GPa) = 42.29754 55.48305 48.89029
# Shear Modulus (GPa) = 16.36117 27.81996 22.09056
#
# Velocity S-wave (km/s) = 2.80431 3.65676 3.25853
# Velocity P-wave (km/s) = 5.55124 6.67065 6.13652
#
# Compressibility (1/GPa) = 0.02364204
#
# Stress axis : x y z
#
# Youngs Moduli (GPa) = 85.44318 111.57318 46.39492
#
# Poissons Ratio (x) = 0.37517 0.04137
# Poissons Ratio (y) = 0.28730 0.23360
# Poissons Ratio (z) = 0.07619 0.56177
#
# Static dielectric constant tensor:
#      x y z
#    x 1.817600 0.000000 0.000000 
#    y 0.000000 1.810890 0.000000 
#    z 0.000000 0.000000 1.694530 
# 
# From -- ./inp_files/43302.got.cif
#   From: 2010.05.17/outbox.cif.g08.bks.cpg/sg68_22_cif.got.tgz:43302.got - 2010.06.03 18:57:09.
