data_PCOD9508442
_publ_section_title
;
Structure prediction by ZEFSAII (Michael W. Deem and Ramdas Pophale) SiO2 
 PCOD9508442
Probable space group: C C C A
;
_chemical_formula_sum "Si O2"
_cell_formula_units_Z 56
_cell_length_a 12.030109
_cell_length_b 14.390007
_cell_length_c 14.245810
_cell_angle_alpha 90.000000
_cell_angle_beta 90.000000
_cell_angle_gamma 90.000000
_cell_volume 2466.139931
_symmetry_space_group_name_H-M "C C C A"
_symmetry_group_IT_number 68
_space_group.IT_coordinate_system_code '2'
_symmetry_cell_setting 'orthorhombic'
loop_
_space_group_symop_operation_xyz
x,y,z
-x,1/2-y,z
x,1/2-y,1/2-z
-x,y,1/2-z
-x,-y,-z
x,1/2+y,-z
-x,1/2+y,1/2+z
x,-y,1/2+z
1/2+x,1/2+y,z
1/2-x,-y,z
1/2+x,-y,1/2-z
1/2-x,1/2+y,1/2-z
1/2-x,1/2-y,-z
1/2+x,y,-z
1/2-x,y,1/2+z
1/2+x,1/2-y,1/2+z
loop_
_atom_site_type_symbol
_atom_site_label
_atom_site_fract_x
_atom_site_fract_y
_atom_site_fract_z
Si Si1 0.356538 0.859362 0.347641
Si Si2 0.750000 0.000000 0.507400
Si Si3 0.500000 0.902046 0.750000
Si Si4 0.692749 0.250000 0.250000
Si Si5 0.584755 0.570350 0.145392
O O1 0.488045 0.853688 0.366300
O O2 0.278102 0.769670 0.335804
O O3 0.352936 0.907203 0.243439
O O4 0.308419 0.925695 0.426218
O O5 0.665087 0.945913 0.440115
O O6 0.519285 0.972660 0.836334
O O7 0.608607 0.337185 0.251574
#
# Coordination Sequence:
#
# PCOD9508442 Si02
#       5
#    16   8   8   8  16
#     4  10  22  38  62  93 128 170 214 267 329 389
#     4  12  20  38  70 100 126 168 228 280 320 392
#     4   9  20  38  62  89 124 168 210 261 328 388
#     4  11  20  37  62  90 126 165 208 265 330 390
#     4  10  22  42  65  93 127 172 225 270 320 397
#
# _framework density 22.707552
#
# number of rings (size 3 to 8) (size 9 to 14) (size 15 to 20)
#    0.000    2.000    0.000    6.857    0.000    2.286 
#    0.000    5.714    0.000   20.571    0.000    0.000 
#    0.000    0.000    0.000    0.000    0.000    0.000 
#
# Total GULP energy -156343.395030 kJ/mol
# GULP energy per Si atom -5583.692680 kJ/mol
# Density = 2.265587 g / cm^3
# Si number density = 22.707552 Si / 1000 Ang^3
#
#
#
# Elastic Constant Matrix: (Units=GPa)
#
#
# Indices 1 2 3 4 5 6 
#
# 1 182.0189 58.2676 76.6063 0.0000 0.0000 0.0000
# 2 58.2676 108.0831 41.3889 0.0000 0.0000 0.0000
# 3 76.6063 41.3889 140.3647 0.0000 0.0000 0.0000
# 4 0.0000 0.0000 0.0000 8.0932 0.0000 0.0000
# 5 0.0000 0.0000 0.0000 0.0000 7.8257 0.0000
# 6 0.0000 0.0000 0.0000 0.0000 0.0000 55.9879
#
#
#
# Elastic Compliance Matrix: (Units=1/GPa)
#
#
# Indices 1 2 3 4 5 6 
#
# 1 0.007878 -0.002932 -0.003435 0.000000 0.000000 0.000000
# 2 -0.002932 0.011521 -0.001797 0.000000 0.000000 0.000000
# 3 -0.003435 -0.001797 0.009529 0.000000 0.000000 0.000000
# 4 0.000000 0.000000 0.000000 0.123560 0.000000 0.000000
# 5 0.000000 0.000000 0.000000 0.000000 0.127784 0.000000
# 6 0.000000 0.000000 0.000000 0.000000 0.000000 0.017861
#
#
# Mechanical properties :
#
#
# Convention : Reuss Voigt Hill
#
# Bulk Modulus (GPa) = 79.36466 86.99914 83.18190
# Shear Modulus (GPa) = 15.69065 31.32830 23.50947
#
# Velocity S-wave (km/s) = 2.63152 3.71838 3.22112
# Velocity P-wave (km/s) = 6.65281 7.53865 7.10954
#
# Compressibility (1/GPa) = 0.01260007
#
# Stress axis : x y z
#
# Youngs Moduli (GPa) = 126.93284 86.79974 104.94266
#
# Poissons Ratio (x) = 0.25447 0.36050
# Poissons Ratio (y) = 0.37212 0.18859
# Poissons Ratio (z) = 0.43604 0.15599
#
# Static dielectric constant tensor:
#      x y z
#    x 1.913900 0.000000 0.000000 
#    y 0.000000 1.931820 0.000000 
#    z 0.000000 0.000000 1.781360 
# 
# From -- ./inp_files/23275.got.cif
#   From: 2010.05.17/outbox.cif.g08.bks.cpg/sg68_12_cif.got.tgz:23275.got - 2010.06.03 18:57:09.
