data_PCOD9508714
_publ_section_title
;
Structure prediction by ZEFSAII (Michael W. Deem and Ramdas Pophale) SiO2 
 PCOD9508714
Probable space group: C C C A
;
_chemical_formula_sum "Si O2"
_cell_formula_units_Z 112
_cell_length_a 30.876239
_cell_length_b 10.913802
_cell_length_c 15.362553
_cell_angle_alpha 90.000000
_cell_angle_beta 90.000000
_cell_angle_gamma 90.000000
_cell_volume 5176.829464
_symmetry_space_group_name_H-M "C C C A"
_symmetry_group_IT_number 68
_space_group.IT_coordinate_system_code '2'
_symmetry_cell_setting 'orthorhombic'
loop_
_space_group_symop_operation_xyz
x,y,z
-x,1/2-y,z
x,1/2-y,1/2-z
-x,y,1/2-z
-x,-y,-z
x,1/2+y,-z
-x,1/2+y,1/2+z
x,-y,1/2+z
1/2+x,1/2+y,z
1/2-x,-y,z
1/2+x,-y,1/2-z
1/2-x,1/2+y,1/2-z
1/2-x,1/2-y,-z
1/2+x,y,-z
1/2-x,y,1/2+z
1/2+x,1/2-y,1/2+z
loop_
_atom_site_type_symbol
_atom_site_label
_atom_site_fract_x
_atom_site_fract_y
_atom_site_fract_z
Si Si1 0.453034 0.759203 0.919500
Si Si2 0.951385 0.897272 0.764597
Si Si3 0.338322 0.493530 0.414892
Si Si4 0.357339 0.608274 0.227911
Si Si5 0.799607 0.507506 0.409471
Si Si6 0.433305 0.981711 0.039746
Si Si7 0.141549 0.730686 0.149267
O O1 0.500000 0.750000 0.874925
O O2 0.444781 0.626760 0.968311
O O3 0.410026 0.781449 0.863976
O O4 0.455723 0.880972 0.979280
O O5 0.953487 0.750000 0.750000
O O6 0.907225 0.938968 0.714645
O O7 0.000000 0.945363 0.750000
O O8 0.942802 0.938924 0.862470
O O9 0.337923 0.547630 0.316712
O O10 0.301195 0.509825 0.485685
O O11 0.381635 0.538030 0.465239
O O12 0.345191 0.350295 0.402930
O O13 0.361404 0.750000 0.250000
O O14 0.327678 0.594047 0.142815
O O15 0.750000 0.500000 0.380556
O O16 0.826275 0.625243 0.379245
O O17 0.149037 0.750000 0.250000
#
# Coordination Sequence:
#
# PCOD9508714 Si02
#       7
#    16  16  16  16  16  16  16
#     4  11  24  42  66 103 140 189 235 293 353 439
#     4   9  20  38  64  99 132 182 231 284 344 425
#     4  10  23  46  70 100 136 180 231 287 359 425
#     4  10  23  44  69  98 141 180 229 288 349 425
#     4  12  27  45  73 102 132 186 234 293 370 422
#     4  10  22  41  65  98 136 185 235 286 358 413
#     4  11  24  48  71  97 146 184 227 301 362 423
#
# _framework density 21.634862999999999
#
# number of rings (size 3 to 8) (size 9 to 14) (size 15 to 20)
#    0.000    1.571    2.857    0.429    4.000    6.571 
#    0.000    0.000    0.000    0.000    0.000    0.000 
#    0.000    0.000    0.000    0.000    0.000    0.000 
#
# Total GULP energy -312166.092288 kJ/mol
# GULP energy per Si atom -5574.394505 kJ/mol
# Density = 2.158562 g / cm^3
# Si number density = 21.634863 Si / 1000 Ang^3
#
#
#
# Elastic Constant Matrix: (Units=GPa)
#
#
# Indices 1 2 3 4 5 6 
#
# 1 141.1184 22.5982 38.6031 0.0000 0.0000 0.0000
# 2 22.5982 96.6954 9.0722 0.0000 0.0000 0.0000
# 3 38.6031 9.0722 43.4443 0.0000 0.0000 0.0000
# 4 0.0000 0.0000 0.0000 13.5932 0.0000 0.0000
# 5 0.0000 0.0000 0.0000 0.0000 -15.0142 0.0000
# 6 0.0000 0.0000 0.0000 0.0000 0.0000 10.3881
#
#
#
# Elastic Compliance Matrix: (Units=1/GPa)
#
#
# Indices 1 2 3 4 5 6 
#
# 1 0.009561 -0.001466 -0.008190 0.000000 0.000000 0.000000
# 2 -0.001466 0.010773 -0.000947 0.000000 0.000000 0.000000
# 3 -0.008190 -0.000947 0.030493 0.000000 0.000000 0.000000
# 4 0.000000 0.000000 0.000000 0.073566 0.000000 0.000000
# 5 0.000000 0.000000 0.000000 0.000000 -0.066604 0.000000
# 6 0.000000 0.000000 0.000000 0.000000 0.000000 0.096264
#
#
# Mechanical properties :
#
#
# Convention : Reuss Voigt Hill
#
# Bulk Modulus (GPa) = 33.75894 46.86722 40.31308
# Shear Modulus (GPa) = 27.00760 15.85907 21.43333
#
# Velocity S-wave (km/s) = 3.53701 2.71040 3.15093
# Velocity P-wave (km/s) = 5.68493 5.61292 5.64904
#
# Compressibility (1/GPa) = 0.02962178
#
# Stress axis : x y z
#
# Youngs Moduli (GPa) = 104.58794 92.82251 32.79465
#
# Poissons Ratio (x) = 0.13609 0.26858
# Poissons Ratio (y) = 0.15334 0.03106
# Poissons Ratio (z) = 0.85654 0.08790
#
# Static dielectric constant tensor:
#      x y z
#    x 1.839690 0.000000 0.000000 
#    y 0.000000 1.857810 0.000000 
#    z 0.000000 0.000000 1.791630 
# 
# From -- ./inp_files/26441.got.cif
#   From: 2010.05.17/outbox.cif.g08.bks.cpg/sg68_14_cif.got.tgz:26441.got - 2010.06.03 18:57:09.
