data_PCOD9508924
_publ_section_title
;
Structure prediction by ZEFSAII (Michael W. Deem and Ramdas Pophale) SiO2 
 PCOD9508924
Probable space group: C C C A
;
_chemical_formula_sum "Si O2"
_cell_formula_units_Z 96
_cell_length_a 23.397438
_cell_length_b 11.475333
_cell_length_c 18.015231
_cell_angle_alpha 90.000000
_cell_angle_beta 90.000000
_cell_angle_gamma 90.000000
_cell_volume 4836.970486
_symmetry_space_group_name_H-M "C C C A"
_symmetry_group_IT_number 68
_space_group.IT_coordinate_system_code '2'
_symmetry_cell_setting 'orthorhombic'
loop_
_space_group_symop_operation_xyz
x,y,z
-x,1/2-y,z
x,1/2-y,1/2-z
-x,y,1/2-z
-x,-y,-z
x,1/2+y,-z
-x,1/2+y,1/2+z
x,-y,1/2+z
1/2+x,1/2+y,z
1/2-x,-y,z
1/2+x,-y,1/2-z
1/2-x,1/2+y,1/2-z
1/2-x,1/2-y,-z
1/2+x,y,-z
1/2-x,y,1/2+z
1/2+x,1/2-y,1/2+z
loop_
_atom_site_type_symbol
_atom_site_label
_atom_site_fract_x
_atom_site_fract_y
_atom_site_fract_z
Si Si1 0.939565 0.085936 0.286187
Si Si2 0.439065 0.314128 0.321806
Si Si3 0.871983 0.087407 0.140126
Si Si4 0.063714 0.280502 0.441598
Si Si5 0.745822 0.132955 0.552819
Si Si6 0.127144 0.158957 0.916268
O O1 0.890080 0.113319 0.225348
O O2 0.935700 0.150214 0.364341
O O3 0.000000 0.118262 0.250000
O O4 0.942915 0.949037 0.305131
O O5 0.500000 0.250000 0.334435
O O6 0.413835 0.250000 0.250000
O O7 0.398185 0.280225 0.388521
O O8 0.909155 0.158671 0.081513
O O9 0.807893 0.119509 0.109884
O O10 0.892101 0.953972 0.129085
O O11 0.103239 0.347696 0.500374
O O12 0.000000 0.250000 0.469028
O O13 0.750000 0.250000 0.500000
O O14 0.805513 0.150491 0.593939
O O15 0.750000 0.000000 0.517200
#
# Coordination Sequence:
#
# PCOD9508924 Si02
#       6
#    16  16  16  16  16  16
#     4  12  23  41  66  96 136 179 216 269 344 406
#     4  11  21  40  65  95 132 175 214 273 340 404
#     4  11  23  43  65  93 133 176 224 268 331 401
#     4  12  26  37  66  99 134 174 218 272 336 401
#     4  10  22  43  71  92 132 179 219 280 335 388
#     4  11  24  43  68  97 131 172 226 281 329 397
#
# _framework density 19.847135000000002
#
# number of rings (size 3 to 8) (size 9 to 14) (size 15 to 20)
#    0.000    0.833    6.667    1.000    2.333    0.667 
#    0.000    1.667    0.000    0.000    0.000    0.000 
#    0.000    0.000    0.000    0.000    0.000    0.000 
#
# Total GULP energy -267295.044429 kJ/mol
# GULP energy per Si atom -5568.646759 kJ/mol
# Density = 1.980196 g / cm^3
# Si number density = 19.847135 Si / 1000 Ang^3
#
#
#
# Elastic Constant Matrix: (Units=GPa)
#
#
# Indices 1 2 3 4 5 6 
#
# 1 116.5011 26.4358 36.6699 0.0000 0.0000 0.0000
# 2 26.4358 105.8029 16.4393 0.0000 0.0000 0.0000
# 3 36.6699 16.4393 81.2869 0.0000 0.0000 0.0000
# 4 0.0000 0.0000 0.0000 25.5959 0.0000 0.0000
# 5 0.0000 0.0000 0.0000 0.0000 17.7033 0.0000
# 6 0.0000 0.0000 0.0000 0.0000 0.0000 22.2816
#
#
#
# Elastic Compliance Matrix: (Units=1/GPa)
#
#
# Indices 1 2 3 4 5 6 
#
# 1 0.010370 -0.001925 -0.004289 0.000000 0.000000 0.000000
# 2 -0.001925 0.010115 -0.001177 0.000000 0.000000 0.000000
# 3 -0.004289 -0.001177 0.014475 0.000000 0.000000 0.000000
# 4 0.000000 0.000000 0.000000 0.039069 0.000000 0.000000
# 5 0.000000 0.000000 0.000000 0.000000 0.056487 0.000000
# 6 0.000000 0.000000 0.000000 0.000000 0.000000 0.044880
#
#
# Mechanical properties :
#
#
# Convention : Reuss Voigt Hill
#
# Bulk Modulus (GPa) = 49.55767 51.40898 50.48333
# Shear Modulus (GPa) = 25.39296 28.05254 26.72275
#
# Velocity S-wave (km/s) = 3.58079 3.76364 3.67335
# Velocity P-wave (km/s) = 6.48999 6.69667 6.59414
#
# Compressibility (1/GPa) = 0.02017851
#
# Stress axis : x y z
#
# Youngs Moduli (GPa) = 96.42866 98.85919 69.08435
#
# Poissons Ratio (x) = 0.19028 0.29630
# Poissons Ratio (y) = 0.18560 0.08134
# Poissons Ratio (z) = 0.41358 0.11640
#
# Static dielectric constant tensor:
#      x y z
#    x 1.757120 0.000000 0.000000 
#    y 0.000000 1.785920 0.000000 
#    z 0.000000 0.000000 1.746950 
# 
# From -- ./inp_files/33544.got.cif
#   From: 2010.05.17/outbox.cif.g08.bks.cpg/sg68_17_cif.got.tgz:33544.got - 2010.06.03 18:57:09.
