data_PCOD9508917
_publ_section_title
;
Structure prediction by ZEFSAII (Michael W. Deem and Ramdas Pophale) SiO2 
 PCOD9508917
Probable space group: C C C A
;
_chemical_formula_sum "Si O2"
_cell_formula_units_Z 92
_cell_length_a 19.511263
_cell_length_b 21.747082
_cell_length_c 9.312124
_cell_angle_alpha 90.000000
_cell_angle_beta 90.000000
_cell_angle_gamma 90.000000
_cell_volume 3951.255610
_symmetry_space_group_name_H-M "C C C A"
_symmetry_group_IT_number 68
_space_group.IT_coordinate_system_code '2'
_symmetry_cell_setting 'orthorhombic'
loop_
_space_group_symop_operation_xyz
x,y,z
-x,1/2-y,z
x,1/2-y,1/2-z
-x,y,1/2-z
-x,-y,-z
x,1/2+y,-z
-x,1/2+y,1/2+z
x,-y,1/2+z
1/2+x,1/2+y,z
1/2-x,-y,z
1/2+x,-y,1/2-z
1/2-x,1/2+y,1/2-z
1/2-x,1/2-y,-z
1/2+x,y,-z
1/2-x,y,1/2+z
1/2+x,1/2-y,1/2+z
loop_
_atom_site_type_symbol
_atom_site_label
_atom_site_fract_x
_atom_site_fract_y
_atom_site_fract_z
Si Si1 0.000000 0.064824 0.750000
Si Si2 0.300792 0.951137 0.004924
Si Si3 0.000000 0.130021 0.250000
Si Si4 0.799879 0.663233 0.001734
Si Si5 0.043762 0.845352 0.031309
Si Si6 0.739001 0.250000 0.750000
Si Si7 0.500000 0.750000 0.750000
Si Si8 0.613529 0.530406 0.269924
O O1 0.993790 0.105640 0.609237
O O2 0.065420 0.024345 0.717248
O O3 0.256490 0.890392 0.968411
O O4 0.337610 0.993623 0.882390
O O5 0.250000 0.000000 0.076178
O O6 0.350820 0.936923 0.135491
O O7 0.001630 0.172320 0.389331
O O8 0.057730 0.082418 0.309928
O O9 0.802028 0.707786 0.863047
O O10 0.875847 0.636477 0.022071
O O11 0.779222 0.703082 0.142643
O O12 0.045908 0.790525 0.145832
#
# Coordination Sequence:
#
# PCOD9508917 Si02
#       8
#     8  16   8  16  16   8   4  16
#     4  10  22  43  70  94 142 187 224 278 354 436
#     4  12  26  39  70 105 144 185 232 295 367 436
#     4  11  24  42  70 100 140 184 234 291 358 430
#     4  11  26  48  74 106 144 188 250 301 362 432
#     4  11  24  44  71 103 137 186 238 299 352 423
#     4  10  27  50  72 104 136 195 240 300 366 410
#     4  10  26  48  68 104 140 190 248 300 368 404
#     4  11  24  44  64 104 140 184 231 278 363 446
#
# _framework density 23.283738
#
# number of rings (size 3 to 8) (size 9 to 14) (size 15 to 20)
#    0.000    1.043    0.000    5.217    9.739    4.522 
#    6.261    0.000    0.000    0.000    0.000    0.000 
#    0.000    0.000    0.000    0.000    0.000    0.000 
#
# Total GULP energy -256149.717201 kJ/mol
# GULP energy per Si atom -5568.472113 kJ/mol
# Density = 2.323074 g / cm^3
# Si number density = 23.283738 Si / 1000 Ang^3
#
#
#
# Elastic Constant Matrix: (Units=GPa)
#
#
# Indices 1 2 3 4 5 6 
#
# 1 68.1551 25.5098 22.6585 0.0000 0.0000 0.0000
# 2 25.5098 84.7408 23.1053 0.0000 0.0000 0.0000
# 3 22.6585 23.1053 119.7127 0.0000 0.0000 0.0000
# 4 0.0000 0.0000 0.0000 21.8017 0.0000 0.0000
# 5 0.0000 0.0000 0.0000 0.0000 30.3908 0.0000
# 6 0.0000 0.0000 0.0000 0.0000 0.0000 39.9460
#
#
#
# Elastic Compliance Matrix: (Units=1/GPa)
#
#
# Indices 1 2 3 4 5 6 
#
# 1 0.017152 -0.004516 -0.002375 0.000000 0.000000 0.000000
# 2 -0.004516 0.013645 -0.001779 0.000000 0.000000 0.000000
# 3 -0.002375 -0.001779 0.009146 0.000000 0.000000 0.000000
# 4 0.000000 0.000000 0.000000 0.045868 0.000000 0.000000
# 5 0.000000 0.000000 0.000000 0.000000 0.032905 0.000000
# 6 0.000000 0.000000 0.000000 0.000000 0.000000 0.025034
#
#
# Mechanical properties :
#
#
# Convention : Reuss Voigt Hill
#
# Bulk Modulus (GPa) = 44.23935 46.12843 45.18389
# Shear Modulus (GPa) = 29.65179 31.85003 30.75091
#
# Velocity S-wave (km/s) = 3.57248 3.70254 3.63809
# Velocity P-wave (km/s) = 6.00485 6.17518 6.09061
#
# Compressibility (1/GPa) = 0.02260431
#
# Stress axis : x y z
#
# Youngs Moduli (GPa) = 58.30152 73.28615 109.33540
#
# Poissons Ratio (x) = 0.33095 0.25966
# Poissons Ratio (y) = 0.26328 0.19449
# Poissons Ratio (z) = 0.13846 0.13037
#
# Static dielectric constant tensor:
#      x y z
#    x 2.011210 0.000000 0.000000 
#    y 0.000000 1.936790 0.000000 
#    z 0.000000 0.000000 1.548500 
# 
# From -- ./inp_files/7195.got.cif
#   From: 2010.05.17/outbox.cif.g08.bks.cpg/sg68_4_cif.got.tgz:7195.got - 2010.06.03 18:57:09.
