data_PCOD9508460
_publ_section_title
;
Structure prediction by ZEFSAII (Michael W. Deem and Ramdas Pophale) SiO2 
 PCOD9508460
Probable space group: C C C A
;
_chemical_formula_sum "Si O2"
_cell_formula_units_Z 96
_cell_length_a 11.348336
_cell_length_b 21.239778
_cell_length_c 20.064402
_cell_angle_alpha 90.000000
_cell_angle_beta 90.000000
_cell_angle_gamma 90.000000
_cell_volume 4836.245956
_symmetry_space_group_name_H-M "C C C A"
_symmetry_group_IT_number 68
_space_group.IT_coordinate_system_code '2'
_symmetry_cell_setting 'orthorhombic'
loop_
_space_group_symop_operation_xyz
x,y,z
-x,1/2-y,z
x,1/2-y,1/2-z
-x,y,1/2-z
-x,-y,-z
x,1/2+y,-z
-x,1/2+y,1/2+z
x,-y,1/2+z
1/2+x,1/2+y,z
1/2-x,-y,z
1/2+x,-y,1/2-z
1/2-x,1/2+y,1/2-z
1/2-x,1/2-y,-z
1/2+x,y,-z
1/2-x,y,1/2+z
1/2+x,1/2-y,1/2+z
loop_
_atom_site_type_symbol
_atom_site_label
_atom_site_fract_x
_atom_site_fract_y
_atom_site_fract_z
Si Si1 0.820291 0.411720 0.740788
Si Si2 0.375940 0.714756 0.811342
Si Si3 0.782847 0.400277 0.897229
Si Si4 0.641630 0.764329 0.550133
Si Si5 0.562406 0.021378 0.568167
Si Si6 0.912958 0.546464 0.697326
O O1 0.895946 0.356499 0.709555
O O2 0.780994 0.397176 0.816393
O O3 0.878047 0.480016 0.732581
O O4 0.705103 0.414153 0.694741
O O5 0.500000 0.750000 0.816932
O O6 0.310808 0.750000 0.750000
O O7 0.326145 0.723213 0.884423
O O8 0.840280 0.337310 0.927473
O O9 0.656315 0.420468 0.929257
O O10 0.864791 0.460078 0.910630
O O11 0.500000 0.750000 0.532688
O O12 0.750000 0.750000 0.500000
O O13 0.468603 0.035234 0.625983
O O14 0.500000 0.000000 0.500000
O O15 0.000000 0.578078 0.750000
#
# Coordination Sequence:
#
# PCOD9508460 Si02
#       6
#    16  16  16  16  16  16
#     4  11  22  38  67 101 133 166 236 283 340 409
#     4  10  22  38  66 102 123 171 228 284 331 398
#     4  11  23  43  65  97 136 173 228 291 341 406
#     4  11  27  46  71 101 138 186 232 287 352 415
#     4  11  25  40  67  98 135 180 220 279 351 416
#     4  11  21  37  65  96 130 178 216 280 346 403
#
# _framework density 19.850107999999999
#
# number of rings (size 3 to 8) (size 9 to 14) (size 15 to 20)
#    0.000    1.167    5.000    1.000    9.333    4.000 
#    0.000    0.000    0.000    0.000    0.000    0.000 
#    0.000    0.000    0.000    0.000    0.000    0.000 
#
# Total GULP energy -267483.169175 kJ/mol
# GULP energy per Si atom -5572.566024 kJ/mol
# Density = 1.980493 g / cm^3
# Si number density = 19.850108 Si / 1000 Ang^3
#
#
#
# Elastic Constant Matrix: (Units=GPa)
#
#
# Indices 1 2 3 4 5 6 
#
# 1 132.6037 34.7314 66.0676 0.0000 0.0000 0.0000
# 2 34.7314 92.3893 10.4211 0.0000 0.0000 0.0000
# 3 66.0676 10.4211 146.7623 0.0000 0.0000 0.0000
# 4 0.0000 0.0000 0.0000 23.5777 0.0000 0.0000
# 5 0.0000 0.0000 0.0000 0.0000 33.0351 0.0000
# 6 0.0000 0.0000 0.0000 0.0000 0.0000 28.4232
#
#
#
# Elastic Compliance Matrix: (Units=1/GPa)
#
#
# Indices 1 2 3 4 5 6 
#
# 1 0.010751 -0.003524 -0.004589 0.000000 0.000000 0.000000
# 2 -0.003524 0.012066 0.000730 0.000000 0.000000 0.000000
# 3 -0.004589 0.000730 0.008828 0.000000 0.000000 0.000000
# 4 0.000000 0.000000 0.000000 0.042413 0.000000 0.000000
# 5 0.000000 0.000000 0.000000 0.000000 0.030271 0.000000
# 6 0.000000 0.000000 0.000000 0.000000 0.000000 0.035183
#
#
# Mechanical properties :
#
#
# Convention : Reuss Voigt Hill
#
# Bulk Modulus (GPa) = 59.25061 66.02171 62.63616
# Shear Modulus (GPa) = 31.26863 34.37621 32.82242
#
# Velocity S-wave (km/s) = 3.97323 4.16599 4.07075
# Velocity P-wave (km/s) = 7.13881 7.51485 7.32924
#
# Compressibility (1/GPa) = 0.01687746
#
# Stress axis : x y z
#
# Youngs Moduli (GPa) = 93.01590 82.87630 113.27636
#
# Poissons Ratio (x) = 0.29204 0.51988
# Poissons Ratio (y) = 0.32777 -0.08264
# Poissons Ratio (z) = 0.42689 -0.06046
#
# Static dielectric constant tensor:
#      x y z
#    x 1.678280 0.000000 0.000000 
#    y 0.000000 1.724030 0.000000 
#    z 0.000000 0.000000 -2.803700 
# 
# From -- ./inp_files/37641.got.cif
#   From: 2010.05.17/outbox.cif.g08.bks.cpg/sg68_19_cif.got.tgz:37641.got - 2010.06.03 18:57:09.
