data_PCOD9508408
_publ_section_title
;
Structure prediction by ZEFSAII (Michael W. Deem and Ramdas Pophale) SiO2 
 PCOD9508408
Probable space group: C C C A
;
_chemical_formula_sum "Si O2"
_cell_formula_units_Z 120
_cell_length_a 21.856015
_cell_length_b 11.749487
_cell_length_c 24.409468
_cell_angle_alpha 90.000000
_cell_angle_beta 90.000000
_cell_angle_gamma 90.000000
_cell_volume 6268.277278
_symmetry_space_group_name_H-M "C C C A"
_symmetry_group_IT_number 68
_space_group.IT_coordinate_system_code '2'
_symmetry_cell_setting 'orthorhombic'
loop_
_space_group_symop_operation_xyz
x,y,z
-x,1/2-y,z
x,1/2-y,1/2-z
-x,y,1/2-z
-x,-y,-z
x,1/2+y,-z
-x,1/2+y,1/2+z
x,-y,1/2+z
1/2+x,1/2+y,z
1/2-x,-y,z
1/2+x,-y,1/2-z
1/2-x,1/2+y,1/2-z
1/2-x,1/2-y,-z
1/2+x,y,-z
1/2-x,y,1/2+z
1/2+x,1/2-y,1/2+z
loop_
_atom_site_type_symbol
_atom_site_label
_atom_site_fract_x
_atom_site_fract_y
_atom_site_fract_z
Si Si1 0.716972 0.670710 0.099062
Si Si2 0.250000 0.500000 0.709406
Si Si3 0.641862 0.078051 0.149517
Si Si4 0.068867 0.296694 0.867037
Si Si5 0.844532 0.942782 0.435176
Si Si6 0.158714 0.357524 0.284529
Si Si7 0.689344 0.079023 0.558108
Si Si8 0.930042 0.452289 0.736261
O O1 0.785711 0.622801 0.091466
O O2 0.671933 0.575244 0.073377
O O3 0.695211 0.677616 0.161681
O O4 0.709378 0.793305 0.072082
O O5 0.289074 0.585032 0.671984
O O6 0.205761 0.572701 0.746945
O O7 0.614534 0.191148 0.123951
O O8 0.602378 0.059663 0.204658
O O9 0.647117 0.975793 0.105888
O O10 0.094379 0.396303 0.906204
O O11 0.074080 0.344560 0.804684
O O12 0.000000 0.250000 0.875582
O O13 0.843832 0.920315 0.499744
O O14 0.136832 0.250000 0.250000
O O15 0.103277 0.443991 0.294603
O O16 0.750000 0.000000 0.552818
O O17 0.000000 0.474643 0.750000
#
# Coordination Sequence:
#
# PCOD9508408 Si02
#       8
#    16   8  16  16  16  16  16  16
#     4  11  22  42  64  99 142 172 222 282 348 414
#     4  10  22  38  58 100 136 168 212 272 344 414
#     4  11  24  38  67 100 136 172 219 278 341 402
#     4  12  25  45  71 100 135 178 235 290 330 404
#     4  11  25  40  71 100 130 184 228 286 343 399
#     4  11  24  38  61  97 141 175 217 277 348 416
#     4  12  24  43  66 101 139 180 227 278 351 415
#     4  11  23  44  66  98 130 178 231 276 335 409
#
# _framework density 19.144016000000001
#
# number of rings (size 3 to 8) (size 9 to 14) (size 15 to 20)
#    0.000    0.800    4.667    4.000    5.600    0.267 
#    0.000    0.667    2.933    0.000    0.000    0.000 
#    0.000    0.000    0.000    0.000    0.000    0.000 
#
# Total GULP energy -335118.106541 kJ/mol
# GULP energy per Si atom -5585.301776 kJ/mol
# Density = 1.910044 g / cm^3
# Si number density = 19.144016 Si / 1000 Ang^3
#
#
#
# Elastic Constant Matrix: (Units=GPa)
#
#
# Indices 1 2 3 4 5 6 
#
# 1 90.7629 39.7529 26.1778 0.0000 0.0000 0.0000
# 2 39.7529 127.6805 24.7703 0.0000 0.0000 0.0000
# 3 26.1778 24.7703 102.9745 0.0000 0.0000 0.0000
# 4 0.0000 0.0000 0.0000 -7.8671 0.0000 0.0000
# 5 0.0000 0.0000 0.0000 0.0000 24.4017 0.0000
# 6 0.0000 0.0000 0.0000 0.0000 0.0000 30.7437
#
#
#
# Elastic Compliance Matrix: (Units=1/GPa)
#
#
# Indices 1 2 3 4 5 6 
#
# 1 0.013349 -0.003669 -0.002511 0.000000 0.000000 0.000000
# 2 -0.003669 0.009224 -0.001286 0.000000 0.000000 0.000000
# 3 -0.002511 -0.001286 0.010659 0.000000 0.000000 0.000000
# 4 0.000000 0.000000 0.000000 -0.127111 0.000000 0.000000
# 5 0.000000 0.000000 0.000000 0.000000 0.040981 0.000000
# 6 0.000000 0.000000 0.000000 0.000000 0.000000 0.032527
#
#
# Mechanical properties :
#
#
# Convention : Reuss Voigt Hill
#
# Bulk Modulus (GPa) = 54.64604 55.86888 55.25746
# Shear Modulus (GPa) = 7570.95426 24.83677 3797.89551
#
# Velocity S-wave (km/s) = 62.95492 3.60580 44.58881
# Velocity P-wave (km/s) = 72.89058 6.82514 51.76687
#
# Compressibility (1/GPa) = 0.01829959
#
# Stress axis : x y z
#
# Youngs Moduli (GPa) = 74.91253 108.41421 93.81905
#
# Poissons Ratio (x) = 0.39777 0.23557
# Poissons Ratio (y) = 0.27485 0.12066
# Poissons Ratio (z) = 0.18810 0.13943
#
# Static dielectric constant tensor:
#      x y z
#    x 1.658780 0.000000 0.000000 
#    y 0.000000 1.712320 0.000000 
#    z 0.000000 0.000000 1.696890 
# 
# From -- ./inp_files/46700.got.cif
#   From: 2010.05.17/outbox.cif.g08.bks.cpg/sg68_24_cif.got.tgz:46700.got - 2010.06.03 18:57:09.
