data_PCOD9508814
_publ_section_title
;
Structure prediction by ZEFSAII (Michael W. Deem and Ramdas Pophale) SiO2 
 PCOD9508814
Probable space group: C C C A
;
_chemical_formula_sum "Si O2"
_cell_formula_units_Z 64
_cell_length_a 12.260177
_cell_length_b 7.732758
_cell_length_c 32.961719
_cell_angle_alpha 90.000000
_cell_angle_beta 90.000000
_cell_angle_gamma 90.000000
_cell_volume 3124.935169
_symmetry_space_group_name_H-M "C C C A"
_symmetry_group_IT_number 68
_space_group.IT_coordinate_system_code '2'
_symmetry_cell_setting 'orthorhombic'
loop_
_space_group_symop_operation_xyz
x,y,z
-x,1/2-y,z
x,1/2-y,1/2-z
-x,y,1/2-z
-x,-y,-z
x,1/2+y,-z
-x,1/2+y,1/2+z
x,-y,1/2+z
1/2+x,1/2+y,z
1/2-x,-y,z
1/2+x,-y,1/2-z
1/2-x,1/2+y,1/2-z
1/2-x,1/2-y,-z
1/2+x,y,-z
1/2-x,y,1/2+z
1/2+x,1/2-y,1/2+z
loop_
_atom_site_type_symbol
_atom_site_label
_atom_site_fract_x
_atom_site_fract_y
_atom_site_fract_z
Si Si1 0.016182 0.454310 0.297450
Si Si2 0.500000 0.750000 0.014179
Si Si3 0.625095 0.939196 0.551248
Si Si4 0.250000 0.000000 0.167237
Si Si5 0.653470 0.138646 0.142046
O O1 0.143080 0.475333 0.306272
O O2 0.000000 0.250000 0.306042
O O3 0.000000 0.489966 0.250000
O O4 0.938512 0.576834 0.325298
O O5 0.457790 0.594568 0.041504
O O6 0.597413 0.697810 0.983729
O O7 0.605947 0.876249 0.596850
O O8 0.750000 0.000000 0.548603
O O9 0.213869 0.824781 0.144289
O O10 0.750000 0.000000 0.146982
#
# Coordination Sequence:
#
# PCOD9508814 Si02
#       5
#    16   8  16   8  16
#     4  11  26  45  72 103 138 180 233 284 341 410
#     4  10  22  42  68  92 134 174 218 280 350 396
#     4  10  23  42  65  99 131 173 224 279 336 412
#     4  12  26  44  72 100 138 186 222 288 340 404
#     4  11  25  46  70 103 139 182 231 281 344 412
#
# _framework density 20.480423999999999
#
# number of rings (size 3 to 8) (size 9 to 14) (size 15 to 20)
#    0.000    1.250    2.500    1.500    7.000    2.000 
#   11.250    0.000    0.000    0.000    0.000    0.000 
#    0.000    0.000    0.000    0.000    0.000    0.000 
#
# Total GULP energy -178589.524770 kJ/mol
# GULP energy per Si atom -5580.922649 kJ/mol
# Density = 2.043381 g / cm^3
# Si number density = 20.480424 Si / 1000 Ang^3
#
#
#
# Elastic Constant Matrix: (Units=GPa)
#
#
# Indices 1 2 3 4 5 6 
#
# 1 135.1930 46.8895 77.1831 0.0000 0.0000 0.0000
# 2 46.8895 139.5984 81.7664 0.0000 0.0000 0.0000
# 3 77.1831 81.7664 155.4185 0.0000 0.0000 0.0000
# 4 0.0000 0.0000 0.0000 1.6067 0.0000 0.0000
# 5 0.0000 0.0000 0.0000 0.0000 99.8008 0.0000
# 6 0.0000 0.0000 0.0000 0.0000 0.0000 25.5804
#
#
#
# Elastic Compliance Matrix: (Units=1/GPa)
#
#
# Indices 1 2 3 4 5 6 
#
# 1 0.010368 -0.000674 -0.004794 0.000000 0.000000 0.000000
# 2 -0.000674 0.010398 -0.005135 0.000000 0.000000 0.000000
# 3 -0.004794 -0.005135 0.011517 0.000000 0.000000 0.000000
# 4 0.000000 0.000000 0.000000 0.622384 0.000000 0.000000
# 5 0.000000 0.000000 0.000000 0.000000 0.010020 0.000000
# 6 0.000000 0.000000 0.000000 0.000000 0.000000 0.039092
#
#
# Mechanical properties :
#
#
# Convention : Reuss Voigt Hill
#
# Bulk Modulus (GPa) = 90.29591 93.54313 91.91952
# Shear Modulus (GPa) = 6.86175 40.35564 23.60869
#
# Velocity S-wave (km/s) = 1.83239 4.44379 3.39889
# Velocity P-wave (km/s) = 6.97578 8.49136 7.77061
#
# Compressibility (1/GPa) = 0.01107470
#
# Stress axis : x y z
#
# Youngs Moduli (GPa) = 96.45403 96.17314 86.83023
#
# Poissons Ratio (x) = 0.06487 0.41625
# Poissons Ratio (y) = 0.06506 0.44591
# Poissons Ratio (z) = 0.46239 0.49389
#
# Static dielectric constant tensor:
#      x y z
#    x 1.721000 0.000000 0.000000 
#    y 0.000000 1.826540 0.000000 
#    z 0.000000 0.000000 1.709480 
# 
# From -- ./inp_files/54428.got.cif
#   From: 2010.05.17/outbox.cif.g08.bks.cpg/sg68_28_cif.got.tgz:54428.got - 2010.06.03 18:57:09.
