data_PCOD9508971
_publ_section_title
;
Structure prediction by ZEFSAII (Michael W. Deem and Ramdas Pophale) SiO2 
 PCOD9508971
Probable space group: C C C A
;
_chemical_formula_sum "Si O2"
_cell_formula_units_Z 64
_cell_length_a 31.165284
_cell_length_b 10.470701
_cell_length_c 8.987119
_cell_angle_alpha 90.000000
_cell_angle_beta 90.000000
_cell_angle_gamma 90.000000
_cell_volume 2932.697975
_symmetry_space_group_name_H-M "C C C A"
_symmetry_group_IT_number 68
_space_group.IT_coordinate_system_code '2'
_symmetry_cell_setting 'orthorhombic'
loop_
_space_group_symop_operation_xyz
x,y,z
-x,1/2-y,z
x,1/2-y,1/2-z
-x,y,1/2-z
-x,-y,-z
x,1/2+y,-z
-x,1/2+y,1/2+z
x,-y,1/2+z
1/2+x,1/2+y,z
1/2-x,-y,z
1/2+x,-y,1/2-z
1/2-x,1/2+y,1/2-z
1/2-x,1/2-y,-z
1/2+x,y,-z
1/2-x,y,1/2+z
1/2+x,1/2-y,1/2+z
loop_
_atom_site_type_symbol
_atom_site_label
_atom_site_fract_x
_atom_site_fract_y
_atom_site_fract_z
Si Si1 0.890693 0.302969 0.584060
Si Si2 0.750000 0.500000 0.881848
Si Si3 0.500000 0.009462 0.750000
Si Si4 0.792808 0.364261 0.642576
Si Si5 0.561933 0.932078 0.492509
O O1 0.900092 0.250000 0.750000
O O2 0.840766 0.339567 0.587826
O O3 0.902717 0.178180 0.489815
O O4 0.917539 0.427179 0.533364
O O5 0.788840 0.477351 0.765568
O O6 0.763817 0.607653 0.000003
O O7 0.470575 0.090347 0.641547
O O8 0.532303 0.932536 0.640982
O O9 0.778309 0.250000 0.750000
#
# Coordination Sequence:
#
# PCOD9508971 Si02
#       5
#    16   8   8  16  16
#     4  11  25  44  69 100 143 177 226 288 346 403
#     4  10  22  44  70 102 134 180 232 276 342 408
#     4  10  24  42  72 102 132 184 234 286 342 414
#     4  10  23  41  70  97 139 177 227 280 340 405
#     4  11  24  45  70 100 138 181 231 284 349 405
#
# _framework density 21.822908999999999
#
# number of rings (size 3 to 8) (size 9 to 14) (size 15 to 20)
#    0.000    1.500    2.500    0.750    7.000    7.000 
#    0.000    0.000    0.000    0.000    0.000    0.000 
#    0.000    0.000    0.000    0.000    0.000    0.000 
#
# Total GULP energy -178377.288335 kJ/mol
# GULP energy per Si atom -5574.290260 kJ/mol
# Density = 2.177324 g / cm^3
# Si number density = 21.822909 Si / 1000 Ang^3
#
#
#
# Elastic Constant Matrix: (Units=GPa)
#
#
# Indices 1 2 3 4 5 6 
#
# 1 114.5212 55.0297 72.4489 0.0000 0.0000 0.0000
# 2 55.0297 106.9846 31.3699 0.0000 0.0000 0.0000
# 3 72.4489 31.3699 118.7953 0.0000 0.0000 0.0000
# 4 0.0000 0.0000 0.0000 38.7373 0.0000 0.0000
# 5 0.0000 0.0000 0.0000 0.0000 26.8167 0.0000
# 6 0.0000 0.0000 0.0000 0.0000 0.0000 27.9860
#
#
#
# Elastic Compliance Matrix: (Units=1/GPa)
#
#
# Indices 1 2 3 4 5 6 
#
# 1 0.017458 -0.006350 -0.008970 0.000000 0.000000 0.000000
# 2 -0.006350 0.012441 0.000587 0.000000 0.000000 0.000000
# 3 -0.008970 0.000587 0.013733 0.000000 0.000000 0.000000
# 4 0.000000 0.000000 0.000000 0.025815 0.000000 0.000000
# 5 0.000000 0.000000 0.000000 0.000000 0.037290 0.000000
# 6 0.000000 0.000000 0.000000 0.000000 0.000000 0.035732
#
#
# Mechanical properties :
#
#
# Convention : Reuss Voigt Hill
#
# Bulk Modulus (GPa) = 70.58677 73.11090 71.84884
# Shear Modulus (GPa) = 28.30341 30.80486 29.55414
#
# Velocity S-wave (km/s) = 3.60524 3.76118 3.68403
# Velocity P-wave (km/s) = 7.05307 7.24131 7.14781
#
# Compressibility (1/GPa) = 0.01416696
#
# Stress axis : x y z
#
# Youngs Moduli (GPa) = 57.28078 80.37927 72.81525
#
# Poissons Ratio (x) = 0.51037 0.65317
# Poissons Ratio (y) = 0.36371 -0.04275
# Poissons Ratio (z) = 0.51382 -0.04719
#
# Static dielectric constant tensor:
#      x y z
#    x 1.794700 0.000000 0.000000 
#    y 0.000000 1.914900 0.000000 
#    z 0.000000 0.000000 1.834040 
# 
# From -- ./inp_files/9387.got.cif
#   From: 2010.05.17/outbox.cif.g08.bks.cpg/sg68_5_cif.got.tgz:9387.got - 2010.06.03 18:57:09.
