data_PCOD9508961
_publ_section_title
;
Structure prediction by ZEFSAII (Michael W. Deem and Ramdas Pophale) SiO2 
 PCOD9508961
Probable space group: C C C A
;
_chemical_formula_sum "Si O2"
_cell_formula_units_Z 88
_cell_length_a 12.524929
_cell_length_b 12.222041
_cell_length_c 25.902473
_cell_angle_alpha 90.000000
_cell_angle_beta 90.000000
_cell_angle_gamma 90.000000
_cell_volume 3965.155638
_symmetry_space_group_name_H-M "C C C A"
_symmetry_group_IT_number 68
_space_group.IT_coordinate_system_code '2'
_symmetry_cell_setting 'orthorhombic'
loop_
_space_group_symop_operation_xyz
x,y,z
-x,1/2-y,z
x,1/2-y,1/2-z
-x,y,1/2-z
-x,-y,-z
x,1/2+y,-z
-x,1/2+y,1/2+z
x,-y,1/2+z
1/2+x,1/2+y,z
1/2-x,-y,z
1/2+x,-y,1/2-z
1/2-x,1/2+y,1/2-z
1/2-x,1/2-y,-z
1/2+x,y,-z
1/2-x,y,1/2+z
1/2+x,1/2-y,1/2+z
loop_
_atom_site_type_symbol
_atom_site_label
_atom_site_fract_x
_atom_site_fract_y
_atom_site_fract_z
Si Si1 0.286825 0.627579 0.847424
Si Si2 0.045421 0.412315 0.176051
Si Si3 0.500000 0.750000 0.093195
Si Si4 0.250000 0.000000 0.385435
Si Si5 0.777205 0.719679 0.942109
Si Si6 0.000000 0.922021 0.250000
Si Si7 0.000000 0.250000 0.676995
Si Si8 0.678089 0.250000 0.750000
O O1 0.250000 0.500000 0.849660
O O2 0.244388 0.688586 0.898795
O O3 0.410960 0.674157 0.849170
O O4 0.242561 0.679154 0.793143
O O5 0.145648 0.473601 0.149063
O O6 0.965797 0.491218 0.207046
O O7 0.104078 0.328925 0.214948
O O8 0.980105 0.349088 0.132822
O O9 0.595746 0.791535 0.059302
O O10 0.271065 0.106676 0.420425
O O11 0.750000 0.750000 0.000000
O O12 0.062932 0.836867 0.285887
#
# Coordination Sequence:
#
# PCOD9508961 Si02
#       8
#    16  16   8   8  16   8   8   8
#     4  12  27  46  70 107 153 205 255 319 393 474
#     4  11  22  37  66  98 144 189 239 301 378 460
#     4  10  22  46  68 107 133 181 255 310 378 482
#     4  10  22  44  68  96 142 190 242 314 390 452
#     4  11  26  49  73 102 139 186 259 323 397 464
#     4  11  22  35  60 100 146 199 238 297 374 458
#     4  11  26  41  60 101 155 194 259 295 380 468
#     4  12  22  40  66 104 148 200 242 308 374 478
#
# _framework density 22.193328000000001
#
# number of rings (size 3 to 8) (size 9 to 14) (size 15 to 20)
#    0.000    0.909    3.636    4.364    7.636    0.727 
#    0.000    3.636    0.000    0.000    0.000    0.000 
#    0.000    0.000    0.000    0.000    0.000    0.000 
#
# Total GULP energy -244989.868001 kJ/mol
# GULP energy per Si atom -5567.951545 kJ/mol
# Density = 2.214281 g / cm^3
# Si number density = 22.193328 Si / 1000 Ang^3
#
#
#
# Elastic Constant Matrix: (Units=GPa)
#
#
# Indices 1 2 3 4 5 6 
#
# 1 72.3733 36.4701 34.1015 0.0000 0.0000 0.0000
# 2 36.4701 168.4591 71.3865 0.0000 0.0000 0.0000
# 3 34.1015 71.3865 148.0973 0.0000 0.0000 0.0000
# 4 0.0000 0.0000 0.0000 29.2056 0.0000 0.0000
# 5 0.0000 0.0000 0.0000 0.0000 17.3388 0.0000
# 6 0.0000 0.0000 0.0000 0.0000 0.0000 30.4821
#
#
#
# Elastic Compliance Matrix: (Units=1/GPa)
#
#
# Indices 1 2 3 4 5 6 
#
# 1 0.016253 -0.002429 -0.002572 0.000000 0.000000 0.000000
# 2 -0.002429 0.007823 -0.003212 0.000000 0.000000 0.000000
# 3 -0.002572 -0.003212 0.008893 0.000000 0.000000 0.000000
# 4 0.000000 0.000000 0.000000 0.034240 0.000000 0.000000
# 5 0.000000 0.000000 0.000000 0.000000 0.057674 0.000000
# 6 0.000000 0.000000 0.000000 0.000000 0.000000 0.032806
#
#
# Mechanical properties :
#
#
# Convention : Reuss Voigt Hill
#
# Bulk Modulus (GPa) = 60.44422 74.76064 67.60243
# Shear Modulus (GPa) = 27.83534 31.87006 29.85270
#
# Velocity S-wave (km/s) = 3.54534 3.79360 3.67157
# Velocity P-wave (km/s) = 6.63730 7.27652 6.96424
#
# Compressibility (1/GPa) = 0.01654418
#
# Stress axis : x y z
#
# Youngs Moduli (GPa) = 61.52733 127.82944 112.45377
#
# Poissons Ratio (x) = 0.31048 0.28920
# Poissons Ratio (y) = 0.14944 0.36115
# Poissons Ratio (z) = 0.15823 0.41053
#
# Static dielectric constant tensor:
#      x y z
#    x 1.917240 0.000000 0.000000 
#    y 0.000000 1.880150 0.000000 
#    z 0.000000 0.000000 1.799380 
# 
# From -- ./inp_files/54724.got.cif
#   From: 2010.05.17/outbox.cif.g08.bks.cpg/sg68_28_cif.got.tgz:54724.got - 2010.06.03 18:57:09.
