data_PCOD9508548
_publ_section_title
;
Structure prediction by ZEFSAII (Michael W. Deem and Ramdas Pophale) SiO2 
 PCOD9508548
Probable space group: C C C A
;
_chemical_formula_sum "Si O2"
_cell_formula_units_Z 80
_cell_length_a 24.744233
_cell_length_b 11.990772
_cell_length_c 13.041769
_cell_angle_alpha 90.000000
_cell_angle_beta 90.000000
_cell_angle_gamma 90.000000
_cell_volume 3869.524896
_symmetry_space_group_name_H-M "C C C A"
_symmetry_group_IT_number 68
_space_group.IT_coordinate_system_code '2'
_symmetry_cell_setting 'orthorhombic'
loop_
_space_group_symop_operation_xyz
x,y,z
-x,1/2-y,z
x,1/2-y,1/2-z
-x,y,1/2-z
-x,-y,-z
x,1/2+y,-z
-x,1/2+y,1/2+z
x,-y,1/2+z
1/2+x,1/2+y,z
1/2-x,-y,z
1/2+x,-y,1/2-z
1/2-x,1/2+y,1/2-z
1/2-x,1/2-y,-z
1/2+x,y,-z
1/2-x,y,1/2+z
1/2+x,1/2-y,1/2+z
loop_
_atom_site_type_symbol
_atom_site_label
_atom_site_fract_x
_atom_site_fract_y
_atom_site_fract_z
Si Si1 0.831966 0.787859 0.003538
Si Si2 0.754563 0.622578 0.121392
Si Si3 0.438730 0.054390 0.744750
Si Si4 0.344996 0.375730 0.215669
Si Si5 0.940576 0.750893 0.584791
O O1 0.793814 0.694613 0.051348
O O2 0.835911 0.879717 0.093369
O O3 0.804730 0.824976 0.896029
O O4 0.891248 0.740503 0.990693
O O5 0.750000 0.500000 0.078202
O O6 0.786362 0.612267 0.228769
O O7 0.500000 0.005395 0.750000
O O8 0.434358 0.133225 0.644724
O O9 0.437001 0.146339 0.835973
O O10 0.390151 0.965773 0.752253
O O11 0.362410 0.250000 0.250000
O O12 0.000000 0.750000 0.537291
#
# Coordination Sequence:
#
# PCOD9508548 Si02
#       5
#    16  16  16  16  16
#     4  10  22  40  60  92 121 156 208 252 309 362
#     4  10  22  40  58  84 125 159 201 249 303 372
#     4   9  19  39  64  89 122 163 202 250 311 368
#     4  10  22  41  58  88 128 159 203 251 309 373
#     4   9  19  40  66  92 119 159 214 258 303 369
#
# _framework density 20.674372999999999
#
# number of rings (size 3 to 8) (size 9 to 14) (size 15 to 20)
#    0.000    2.400    0.000    2.400    2.800    1.200 
#   36.000    2.000    0.000    0.000    0.000    0.000 
#    0.000    0.000    0.000    0.000    0.000    0.000 
#
# Total GULP energy -222849.540529 kJ/mol
# GULP energy per Si atom -5571.238513 kJ/mol
# Density = 2.062732 g / cm^3
# Si number density = 20.674373 Si / 1000 Ang^3
#
#
#
# Elastic Constant Matrix: (Units=GPa)
#
#
# Indices 1 2 3 4 5 6 
#
# 1 145.1275 29.5795 37.4486 0.0000 0.0000 0.0000
# 2 29.5795 67.7495 -13.5502 0.0000 0.0000 0.0000
# 3 37.4486 -13.5502 37.5877 0.0000 0.0000 0.0000
# 4 0.0000 0.0000 0.0000 -151.2984 0.0000 0.0000
# 5 0.0000 0.0000 0.0000 0.0000 1255.3018 0.0000
# 6 0.0000 0.0000 0.0000 0.0000 0.0000 -0.6608
#
#
#
# Elastic Compliance Matrix: (Units=1/GPa)
#
#
# Indices 1 2 3 4 5 6 
#
# 1 0.012772 -0.008752 -0.015880 0.000000 0.000000 0.000000
# 2 -0.008752 0.021905 0.016617 0.000000 0.000000 0.000000
# 3 -0.015880 0.016617 0.048416 0.000000 0.000000 0.000000
# 4 0.000000 0.000000 0.000000 -0.006609 0.000000 0.000000
# 5 0.000000 0.000000 0.000000 0.000000 0.000797 0.000000
# 6 0.000000 0.000000 0.000000 0.000000 0.000000 -1.513353
#
#
# Mechanical properties :
#
#
# Convention : Reuss Voigt Hill
#
# Bulk Modulus (GPa) = 14.91169 39.71338 27.31253
# Shear Modulus (GPa) = -3.57734 233.80098 115.11182
#
# Velocity S-wave (km/s) = -1.31684 10.64579 7.46990
# Velocity P-wave (km/s) = 2.21725 13.05225 9.36155
#
# Compressibility (1/GPa) = 0.06706149
#
# Stress axis : x y z
#
# Youngs Moduli (GPa) = 78.29606 45.65184 20.65435
#
# Poissons Ratio (x) = 0.39956 0.32799
# Poissons Ratio (y) = 0.68527 -0.34321
# Poissons Ratio (z) = 1.24334 -0.75858
#
# Static dielectric constant tensor:
#      x y z
#    x 1.754790 0.000000 0.000000 
#    y 0.000000 1.734890 0.000000 
#    z 0.000000 0.000000 1.794810 
# 
# From -- ./inp_files/20835.got.cif
#   From: 2010.05.17/outbox.cif.g08.bks.cpg/sg68_11_cif.got.tgz:20835.got - 2010.06.03 18:57:09.
