data_PCOD9508328
_publ_section_title
;
Structure prediction by ZEFSAII (Michael W. Deem and Ramdas Pophale) SiO2 
 PCOD9508328
Probable space group: C C C A
;
_chemical_formula_sum "Si O2"
_cell_formula_units_Z 96
_cell_length_a 22.253463
_cell_length_b 9.461840
_cell_length_c 21.849799
_cell_angle_alpha 90.000000
_cell_angle_beta 90.000000
_cell_angle_gamma 90.000000
_cell_volume 4600.665411
_symmetry_space_group_name_H-M "C C C A"
_symmetry_group_IT_number 68
_space_group.IT_coordinate_system_code '2'
_symmetry_cell_setting 'orthorhombic'
loop_
_space_group_symop_operation_xyz
x,y,z
-x,1/2-y,z
x,1/2-y,1/2-z
-x,y,1/2-z
-x,-y,-z
x,1/2+y,-z
-x,1/2+y,1/2+z
x,-y,1/2+z
1/2+x,1/2+y,z
1/2-x,-y,z
1/2+x,-y,1/2-z
1/2-x,1/2+y,1/2-z
1/2-x,1/2-y,-z
1/2+x,y,-z
1/2-x,y,1/2+z
1/2+x,1/2-y,1/2+z
loop_
_atom_site_type_symbol
_atom_site_label
_atom_site_fract_x
_atom_site_fract_y
_atom_site_fract_z
Si Si1 0.456358 0.003748 0.307756
Si Si2 0.436180 0.912677 0.120105
Si Si3 0.848940 0.197759 0.187826
Si Si4 0.066119 0.261829 0.891238
Si Si5 0.197379 0.882519 0.943256
Si Si6 0.133890 0.868189 0.500362
O O1 0.500000 0.009813 0.250000
O O2 0.494146 0.914625 0.359080
O O3 0.394991 0.925483 0.294026
O O4 0.440979 0.156634 0.334319
O O5 0.392862 0.820898 0.162632
O O6 0.418472 0.868059 0.051411
O O7 0.420687 0.078540 0.126449
O O8 0.817067 0.250000 0.250000
O O9 0.812122 0.143881 0.129167
O O10 0.000000 0.250000 0.921887
O O11 0.114602 0.204924 0.937852
O O12 0.189310 0.723937 0.971442
O O13 0.250000 0.000000 0.949013
O O14 0.146420 0.970843 0.980006
#
# Coordination Sequence:
#
# PCOD9508328 Si02
#       6
#    16  16  16  16  16  16
#     4  11  21  37  58  89 127 174 210 247 306 385
#     4  10  22  34  58  91 125 163 207 248 310 383
#     4  11  22  40  65  89 125 163 215 260 312 378
#     4  10  22  36  55  89 131 165 201 250 312 378
#     4  11  24  42  70  91 120 162 217 270 327 370
#     4  11  21  41  62  93 126 161 205 269 320 381
#
# _framework density 20.866548000000002
#
# number of rings (size 3 to 8) (size 9 to 14) (size 15 to 20)
#    0.000    1.333    5.000    1.000    0.000    8.333 
#    0.000    0.000    3.667    0.000    0.000    0.000 
#    0.000    0.000    0.000    0.000    0.000    0.000 
#
# Total GULP energy -267572.417340 kJ/mol
# GULP energy per Si atom -5574.425361 kJ/mol
# Density = 2.081905 g / cm^3
# Si number density = 20.866548 Si / 1000 Ang^3
#
#
#
# Elastic Constant Matrix: (Units=GPa)
#
#
# Indices 1 2 3 4 5 6 
#
# 1 19.3983 1.1735 9.1155 0.0000 0.0000 0.0000
# 2 1.1735 111.1858 17.5595 0.0000 0.0000 0.0000
# 3 9.1155 17.5595 87.3657 0.0000 0.0000 0.0000
# 4 0.0000 0.0000 0.0000 30.9143 0.0000 0.0000
# 5 0.0000 0.0000 0.0000 0.0000 12.9476 0.0000
# 6 0.0000 0.0000 0.0000 0.0000 0.0000 16.9727
#
#
#
# Elastic Compliance Matrix: (Units=1/GPa)
#
#
# Indices 1 2 3 4 5 6 
#
# 1 0.054221 0.000332 -0.005724 0.000000 0.000000 0.000000
# 2 0.000332 0.009291 -0.001902 0.000000 0.000000 0.000000
# 3 -0.005724 -0.001902 0.012426 0.000000 0.000000 0.000000
# 4 0.000000 0.000000 0.000000 0.032347 0.000000 0.000000
# 5 0.000000 0.000000 0.000000 0.000000 0.077235 0.000000
# 6 0.000000 0.000000 0.000000 0.000000 0.000000 0.058918
#
#
# Mechanical properties :
#
#
# Convention : Reuss Voigt Hill
#
# Bulk Modulus (GPa) = 16.30022 30.40519 23.35270
# Shear Modulus (GPa) = 17.89067 24.84034 21.36551
#
# Velocity S-wave (km/s) = 2.93129 3.45402 3.20333
# Velocity P-wave (km/s) = 4.39150 5.52357 4.98974
#
# Compressibility (1/GPa) = 0.06134887
#
# Stress axis : x y z
#
# Youngs Moduli (GPa) = 18.44315 107.63301 80.47887
#
# Poissons Ratio (x) = -0.03570 0.46065
# Poissons Ratio (y) = -0.00612 0.15307
# Poissons Ratio (z) = 0.10557 0.20471
#
# Static dielectric constant tensor:
#      x y z
#    x 1.796370 0.000000 0.000000 
#    y 0.000000 1.771830 0.000000 
#    z 0.000000 0.000000 1.764770 
# 
# From -- ./inp_files/36500.got.cif
#   From: 2010.05.17/outbox.cif.g08.bks.cpg/sg68_19_cif.got.tgz:36500.got - 2010.06.03 18:57:09.
