data_PCOD9508936
_publ_section_title
;
Structure prediction by ZEFSAII (Michael W. Deem and Ramdas Pophale) SiO2 
 PCOD9508936
Probable space group: C C C A
;
_chemical_formula_sum "Si O2"
_cell_formula_units_Z 64
_cell_length_a 12.156353
_cell_length_b 15.452800
_cell_length_c 12.100005
_cell_angle_alpha 90.000000
_cell_angle_beta 90.000000
_cell_angle_gamma 90.000000
_cell_volume 2272.982208
_symmetry_space_group_name_H-M "C C C A"
_symmetry_group_IT_number 68
_space_group.IT_coordinate_system_code '2'
_symmetry_cell_setting 'orthorhombic'
loop_
_space_group_symop_operation_xyz
x,y,z
-x,1/2-y,z
x,1/2-y,1/2-z
-x,y,1/2-z
-x,-y,-z
x,1/2+y,-z
-x,1/2+y,1/2+z
x,-y,1/2+z
1/2+x,1/2+y,z
1/2-x,-y,z
1/2+x,-y,1/2-z
1/2-x,1/2+y,1/2-z
1/2-x,1/2-y,-z
1/2+x,y,-z
1/2-x,y,1/2+z
1/2+x,1/2-y,1/2+z
loop_
_atom_site_type_symbol
_atom_site_label
_atom_site_fract_x
_atom_site_fract_y
_atom_site_fract_z
Si Si1 0.152799 0.218831 0.378134
Si Si2 0.145888 0.615798 0.180067
Si Si3 0.500000 0.472795 0.750000
Si Si4 0.286983 0.408368 0.886325
Si Si5 0.500000 0.250000 0.442885
O O1 0.127775 0.250000 0.250000
O O2 0.235114 0.138435 0.368816
O O3 0.193163 0.310845 0.428993
O O4 0.061826 0.190579 0.466178
O O5 0.181700 0.608764 0.307098
O O6 0.070468 0.532403 0.164959
O O7 0.075444 0.695219 0.137818
O O8 0.402467 0.426802 0.819759
O O9 0.250000 0.500000 0.941802
#
# Coordination Sequence:
#
# PCOD9508936 Si02
#       5
#    16  16   8  16   8
#     4  10  23  43  70  98 137 187 242 283 344 438
#     4  10  24  41  70 100 137 180 242 292 341 422
#     4  10  22  43  75  98 132 192 226 286 361 418
#     4   9  21  41  68  97 131 178 240 282 343 429
#     4  12  25  39  70 110 142 178 238 309 359 386
#
# _framework density 28.156839000000002
#
# number of rings (size 3 to 8) (size 9 to 14) (size 15 to 20)
#    0.000    2.000    0.000    1.125   21.000    0.000 
#    0.000    5.000    0.000    0.000    0.000    0.000 
#    0.000    0.000    0.000    0.000    0.000    0.000 
#
# Total GULP energy -178345.179402 kJ/mol
# GULP energy per Si atom -5573.286856 kJ/mol
# Density = 2.809275 g / cm^3
# Si number density = 28.156839 Si / 1000 Ang^3
#
#
#
# Elastic Constant Matrix: (Units=GPa)
#
#
# Indices 1 2 3 4 5 6 
#
# 1 165.0808 71.4740 34.1704 0.0000 0.0000 0.0000
# 2 71.4740 175.4714 32.9091 0.0000 0.0000 0.0000
# 3 34.1704 32.9091 118.0073 0.0000 0.0000 0.0000
# 4 0.0000 0.0000 0.0000 32.8779 0.0000 0.0000
# 5 0.0000 0.0000 0.0000 0.0000 33.8270 0.0000
# 6 0.0000 0.0000 0.0000 0.0000 0.0000 78.7137
#
#
#
# Elastic Compliance Matrix: (Units=1/GPa)
#
#
# Indices 1 2 3 4 5 6 
#
# 1 0.007569 -0.002820 -0.001405 0.000000 0.000000 0.000000
# 2 -0.002820 0.007064 -0.001153 0.000000 0.000000 0.000000
# 3 -0.001405 -0.001153 0.009203 0.000000 0.000000 0.000000
# 4 0.000000 0.000000 0.000000 0.030416 0.000000 0.000000
# 5 0.000000 0.000000 0.000000 0.000000 0.029562 0.000000
# 6 0.000000 0.000000 0.000000 0.000000 0.000000 0.012704
#
#
# Mechanical properties :
#
#
# Convention : Reuss Voigt Hill
#
# Bulk Modulus (GPa) = 76.45993 81.74071 79.10032
# Shear Modulus (GPa) = 44.78903 50.41745 47.60324
#
# Velocity S-wave (km/s) = 3.99268 4.23613 4.11621
# Velocity P-wave (km/s) = 6.96199 7.28148 7.12353
#
# Compressibility (1/GPa) = 0.01307875
#
# Stress axis : x y z
#
# Youngs Moduli (GPa) = 132.11178 141.56778 108.66383
#
# Poissons Ratio (x) = 0.39916 0.15272
# Poissons Ratio (y) = 0.37250 0.12534
# Poissons Ratio (z) = 0.18568 0.16329
#
# Static dielectric constant tensor:
#      x y z
#    x 2.387930 0.000000 0.000000 
#    y 0.000000 2.204460 0.000000 
#    z 0.000000 0.000000 2.297820 
# 
# From -- ./inp_files/20481.got.cif
#   From: 2010.05.17/outbox.cif.g08.bks.cpg/sg68_11_cif.got.tgz:20481.got - 2010.06.03 18:57:09.
