data_PCOD9508758
_publ_section_title
;
Structure prediction by ZEFSAII (Michael W. Deem and Ramdas Pophale) SiO2 
 PCOD9508758
Probable space group: C C C A
;
_chemical_formula_sum "Si O2"
_cell_formula_units_Z 104
_cell_length_a 18.669708
_cell_length_b 8.960591
_cell_length_c 29.229139
_cell_angle_alpha 90.000000
_cell_angle_beta 90.000000
_cell_angle_gamma 90.000000
_cell_volume 4889.789941
_symmetry_space_group_name_H-M "C C C A"
_symmetry_group_IT_number 68
_space_group.IT_coordinate_system_code '2'
_symmetry_cell_setting 'orthorhombic'
loop_
_space_group_symop_operation_xyz
x,y,z
-x,1/2-y,z
x,1/2-y,1/2-z
-x,y,1/2-z
-x,-y,-z
x,1/2+y,-z
-x,1/2+y,1/2+z
x,-y,1/2+z
1/2+x,1/2+y,z
1/2-x,-y,z
1/2+x,-y,1/2-z
1/2-x,1/2+y,1/2-z
1/2-x,1/2-y,-z
1/2+x,y,-z
1/2-x,y,1/2+z
1/2+x,1/2-y,1/2+z
loop_
_atom_site_type_symbol
_atom_site_label
_atom_site_fract_x
_atom_site_fract_y
_atom_site_fract_z
Si Si1 0.083800 0.706533 0.871643
Si Si2 0.750000 0.000000 0.280033
Si Si3 0.626353 0.137398 0.716531
Si Si4 0.153582 0.633181 0.542285
Si Si5 0.677766 0.288138 0.450352
Si Si6 0.851008 0.617738 0.139845
Si Si7 0.922403 0.682158 0.295178
O O1 0.133104 0.783409 0.832219
O O2 0.110700 0.772790 0.919776
O O3 0.100407 0.529777 0.866806
O O4 0.000000 0.750000 0.864591
O O5 0.802891 0.088347 0.245305
O O6 0.701874 0.087320 0.317407
O O7 0.587198 0.250000 0.750000
O O8 0.580062 0.991974 0.709274
O O9 0.238351 0.670387 0.544924
O O10 0.139662 0.696397 0.491344
O O11 0.143031 0.455355 0.550953
O O12 0.679557 0.173036 0.407902
O O13 0.890870 0.764332 0.157593
O O14 0.884468 0.750000 0.250000
O O15 0.000000 0.750000 0.294703
#
# Coordination Sequence:
#
# PCOD9508758 Si02
#       7
#    16   8  16  16  16  16  16
#     4  12  26  45  67  98 143 187 238 283 351 430
#     4  12  26  42  64 100 136 176 234 292 358 412
#     4  12  26  44  66  98 136 186 230 293 350 411
#     4  10  22  45  67 108 129 185 217 291 355 428
#     4  10  22  41  75  98 140 166 232 285 363 422
#     4  12  24  42  64  99 131 180 223 290 345 410
#     4  11  23  42  63  88 125 174 225 272 327 405
#
# _framework density 21.268806000000001
#
# number of rings (size 3 to 8) (size 9 to 14) (size 15 to 20)
#    0.000    0.769    3.077    3.692    2.154    5.231 
#    0.000    3.846    0.000    0.000    0.000    0.000 
#    0.000    0.000    0.000    0.000    0.000    0.000 
#
# Total GULP energy -289907.222025 kJ/mol
# GULP energy per Si atom -5575.138885 kJ/mol
# Density = 2.122040 g / cm^3
# Si number density = 21.268806 Si / 1000 Ang^3
#
#
#
# Elastic Constant Matrix: (Units=GPa)
#
#
# Indices 1 2 3 4 5 6 
#
# 1 59.5617 37.9394 33.8709 0.0000 0.0000 0.0000
# 2 37.9394 159.8624 33.1352 0.0000 0.0000 0.0000
# 3 33.8709 33.1352 128.5061 0.0000 0.0000 0.0000
# 4 0.0000 0.0000 0.0000 37.9325 0.0000 0.0000
# 5 0.0000 0.0000 0.0000 0.0000 14.9548 0.0000
# 6 0.0000 0.0000 0.0000 0.0000 0.0000 8.9144
#
#
#
# Elastic Compliance Matrix: (Units=1/GPa)
#
#
# Indices 1 2 3 4 5 6 
#
# 1 0.022224 -0.004289 -0.004752 0.000000 0.000000 0.000000
# 2 -0.004289 0.007436 -0.000787 0.000000 0.000000 0.000000
# 3 -0.004752 -0.000787 0.009237 0.000000 0.000000 0.000000
# 4 0.000000 0.000000 0.000000 0.026363 0.000000 0.000000
# 5 0.000000 0.000000 0.000000 0.000000 0.066868 0.000000
# 6 0.000000 0.000000 0.000000 0.000000 0.000000 0.112178
#
#
# Mechanical properties :
#
#
# Convention : Reuss Voigt Hill
#
# Bulk Modulus (GPa) = 51.97121 61.98013 56.97567
# Shear Modulus (GPa) = 18.49282 28.55933 23.52607
#
# Velocity S-wave (km/s) = 2.95189 3.66837 3.32946
# Velocity P-wave (km/s) = 6.00889 6.86638 6.45190
#
# Compressibility (1/GPa) = 0.01924142
#
# Stress axis : x y z
#
# Youngs Moduli (GPa) = 44.99722 134.47268 108.25994
#
# Poissons Ratio (x) = 0.57680 0.51440
# Poissons Ratio (y) = 0.19301 0.08519
# Poissons Ratio (z) = 0.21381 0.10582
#
# Static dielectric constant tensor:
#      x y z
#    x 1.783510 0.000000 0.000000 
#    y 0.000000 1.942670 0.000000 
#    z 0.000000 0.000000 1.920670 
# 
# From -- ./inp_files/51838.got.cif
#   From: 2010.05.17/outbox.cif.g08.bks.cpg/sg68_26_cif.got.tgz:51838.got - 2010.06.03 18:57:09.
