data_PCOD9508151
_publ_section_title
;
Structure prediction by ZEFSAII (Michael W. Deem and Ramdas Pophale) SiO2 
 PCOD9508151
Probable space group: C C C A
;
_chemical_formula_sum "Si O2"
_cell_formula_units_Z 52
_cell_length_a 32.044726
_cell_length_b 15.931569
_cell_length_c 5.113159
_cell_angle_alpha 90.000000
_cell_angle_beta 90.000000
_cell_angle_gamma 90.000000
_cell_volume 2610.384062
_symmetry_space_group_name_H-M "C C C A"
_symmetry_group_IT_number 68
_space_group.IT_coordinate_system_code '2'
_symmetry_cell_setting 'orthorhombic'
loop_
_space_group_symop_operation_xyz
x,y,z
-x,1/2-y,z
x,1/2-y,1/2-z
-x,y,1/2-z
-x,-y,-z
x,1/2+y,-z
-x,1/2+y,1/2+z
x,-y,1/2+z
1/2+x,1/2+y,z
1/2-x,-y,z
1/2+x,-y,1/2-z
1/2-x,1/2+y,1/2-z
1/2-x,1/2-y,-z
1/2+x,y,-z
1/2-x,y,1/2+z
1/2+x,1/2-y,1/2+z
loop_
_atom_site_type_symbol
_atom_site_label
_atom_site_fract_x
_atom_site_fract_y
_atom_site_fract_z
Si Si1 0.918956 0.696132 0.008364
Si Si2 0.773960 0.648949 0.772895
Si Si3 0.854131 0.444768 0.485665
Si Si4 0.000000 0.750000 0.250000
O O1 0.913586 0.750000 0.750000
O O2 0.896648 0.608188 0.971005
O O3 0.899818 0.750000 0.250000
O O4 0.968098 0.694282 0.080337
O O5 0.775336 0.750000 0.750000
O O6 0.761332 0.620709 0.482036
O O7 0.816728 0.615642 0.893429
O O8 0.851760 0.479526 0.778838
#
# Coordination Sequence:
#
# PCOD9508151 Si02
#       4
#    16  16  16   4
#     4  10  21  41  68  90 119 159 215 251 301 375
#     4  10  22  40  62  87 120 167 219 255 289 353
#     4  12  25  39  60  96 133 165 201 255 326 370
#     4   8  22  40  74  92 106 164 220 248 306 364
#
# _framework density 19.920442000000001
#
# number of rings (size 3 to 8) (size 9 to 14) (size 15 to 20)
#    0.923    0.615    0.000    5.077    0.000    7.385 
#    0.000    1.538    0.000    0.000    0.000    0.000 
#    0.000    0.000    0.000    0.000    0.000    0.000 
#
# Total GULP energy -145031.761190 kJ/mol
# GULP energy per Si atom -5578.144661 kJ/mol
# Density = 1.987510 g / cm^3
# Si number density = 19.920442 Si / 1000 Ang^3
#
#
#
# Elastic Constant Matrix: (Units=GPa)
#
#
# Indices 1 2 3 4 5 6 
#
# 1 107.4292 33.0618 15.1785 0.0000 0.0000 0.0000
# 2 33.0618 29.6689 16.8937 0.0000 0.0000 0.0000
# 3 15.1785 16.8937 100.4956 0.0000 0.0000 0.0000
# 4 0.0000 0.0000 0.0000 27.2930 0.0000 0.0000
# 5 0.0000 0.0000 0.0000 0.0000-1104.8866 0.0000
# 6 0.0000 0.0000 0.0000 0.0000 0.0000 -8.6285
#
#
#
# Elastic Compliance Matrix: (Units=1/GPa)
#
#
# Indices 1 2 3 4 5 6 
#
# 1 0.014196 -0.016144 0.000570 0.000000 0.000000 0.000000
# 2 -0.016144 0.055632 -0.006914 0.000000 0.000000 0.000000
# 3 0.000570 -0.006914 0.011027 0.000000 0.000000 0.000000
# 4 0.000000 0.000000 0.000000 0.036639 0.000000 0.000000
# 5 0.000000 0.000000 0.000000 0.000000 -0.000905 0.000000
# 6 0.000000 0.000000 0.000000 0.000000 0.000000 -0.115895
#
#
# Mechanical properties :
#
#
# Convention : Reuss Voigt Hill
#
# Bulk Modulus (GPa) = 27.87123 40.87352 34.37237
# Shear Modulus (GPa) = 86.75851 -205.74710 -59.49430
#
# Velocity S-wave (km/s) = 6.60659 -10.17392 -5.47090
# Velocity P-wave (km/s) = 8.49810 10.83737 4.75557
#
# Compressibility (1/GPa) = 0.03587929
#
# Stress axis : x y z
#
# Youngs Moduli (GPa) = 70.44023 17.97511 90.68768
#
# Poissons Ratio (x) = 0.29020 -0.05167
# Poissons Ratio (y) = 1.13721 0.62699
# Poissons Ratio (z) = -0.04013 0.12427
#
# Static dielectric constant tensor:
#      x y z
#    x 1.709080 0.000000 0.000000 
#    y 0.000000 1.683230 0.000000 
#    z 0.000000 0.000000 1.700400 
# 
# From -- ./inp_files/2547.got.cif
#   From: 2010.05.17/outbox.cif.g08.bks.cpg/sg68_2_cif.got.tgz:2547.got - 2010.06.03 18:57:09.
