data_PCOD9508861
_publ_section_title
;
Structure prediction by ZEFSAII (Michael W. Deem and Ramdas Pophale) SiO2 
 PCOD9508861
Probable space group: C C C A
;
_chemical_formula_sum "Si O2"
_cell_formula_units_Z 56
_cell_length_a 10.975551
_cell_length_b 13.526672
_cell_length_c 15.505945
_cell_angle_alpha 90.000000
_cell_angle_beta 90.000000
_cell_angle_gamma 90.000000
_cell_volume 2302.054126
_symmetry_space_group_name_H-M "C C C A"
_symmetry_group_IT_number 68
_space_group.IT_coordinate_system_code '2'
_symmetry_cell_setting 'orthorhombic'
loop_
_space_group_symop_operation_xyz
x,y,z
-x,1/2-y,z
x,1/2-y,1/2-z
-x,y,1/2-z
-x,-y,-z
x,1/2+y,-z
-x,1/2+y,1/2+z
x,-y,1/2+z
1/2+x,1/2+y,z
1/2-x,-y,z
1/2+x,-y,1/2-z
1/2-x,1/2+y,1/2-z
1/2-x,1/2-y,-z
1/2+x,y,-z
1/2-x,y,1/2+z
1/2+x,1/2-y,1/2+z
loop_
_atom_site_type_symbol
_atom_site_label
_atom_site_fract_x
_atom_site_fract_y
_atom_site_fract_z
Si Si1 0.694657 0.166640 0.437721
Si Si2 0.941228 0.850241 0.846302
Si Si3 0.982955 0.570444 0.351691
Si Si4 0.750000 0.500000 0.932204
O O1 0.750000 0.250000 0.500000
O O2 0.796350 0.157207 0.361567
O O3 0.562777 0.155952 0.394773
O O4 0.688070 0.075189 0.503060
O O5 0.000000 0.750000 0.886775
O O6 0.000000 0.851519 0.750000
O O7 0.972947 0.959703 0.879877
O O8 0.841534 0.565576 0.375803
O O9 0.000000 0.577774 0.250000
#
# Coordination Sequence:
#
# PCOD9508861 Si02
#       4
#    16  16  16   8
#     4  12  26  46  74 109 154 197 260 325 395 467
#     4  10  22  42  75 106 146 195 257 310 402 473
#     4  11  26  47  74 106 152 204 259 320 398 481
#     4  12  26  44  74 106 150 194 258 324 390 458
#
# _framework density 24.326101000000001
#
# number of rings (size 3 to 8) (size 9 to 14) (size 15 to 20)
#    0.000    0.857    2.857    2.571   12.000    0.000 
#    0.000    1.429    0.000    0.000    0.000    0.000 
#    0.000    0.000    0.000    0.000    0.000    0.000 
#
# Total GULP energy -156208.352049 kJ/mol
# GULP energy per Si atom -5578.869716 kJ/mol
# Density = 2.427073 g / cm^3
# Si number density = 24.326101 Si / 1000 Ang^3
#
#
#
# Elastic Constant Matrix: (Units=GPa)
#
#
# Indices 1 2 3 4 5 6 
#
# 1 171.5825 37.6029 90.2945 0.0000 0.0000 0.0000
# 2 37.6029 119.4556 53.8257 0.0000 0.0000 0.0000
# 3 90.2945 53.8257 125.9369 0.0000 0.0000 0.0000
# 4 0.0000 0.0000 0.0000 19.2226 0.0000 0.0000
# 5 0.0000 0.0000 0.0000 0.0000 28.4442 0.0000
# 6 0.0000 0.0000 0.0000 0.0000 0.0000 36.1182
#
#
#
# Elastic Compliance Matrix: (Units=1/GPa)
#
#
# Indices 1 2 3 4 5 6 
#
# 1 0.009360 0.000096 -0.006752 0.000000 0.000000 0.000000
# 2 0.000096 0.010369 -0.004501 0.000000 0.000000 0.000000
# 3 -0.006752 -0.004501 0.014705 0.000000 0.000000 0.000000
# 4 0.000000 0.000000 0.000000 0.052022 0.000000 0.000000
# 5 0.000000 0.000000 0.000000 0.000000 0.035157 0.000000
# 6 0.000000 0.000000 0.000000 0.000000 0.000000 0.027687
#
#
# Mechanical properties :
#
#
# Convention : Reuss Voigt Hill
#
# Bulk Modulus (GPa) = 82.50125 86.71347 84.60736
# Shear Modulus (GPa) = 28.46499 32.44045 30.45272
#
# Velocity S-wave (km/s) = 3.42444 3.65576 3.54199
# Velocity P-wave (km/s) = 7.04444 7.31732 7.18217
#
# Compressibility (1/GPa) = 0.01212103
#
# Stress axis : x y z
#
# Youngs Moduli (GPa) = 106.83291 96.44118 68.00273
#
# Poissons Ratio (x) = -0.00926 0.45917
# Poissons Ratio (y) = -0.01026 0.30605
# Poissons Ratio (z) = 0.72136 0.43404
#
# Static dielectric constant tensor:
#      x y z
#    x 2.007460 0.000000 0.000000 
#    y 0.000000 1.703330 0.000000 
#    z 0.000000 0.000000 1.909550 
# 
# From -- ./inp_files/20102.got.cif
#   From: 2010.05.17/outbox.cif.g08.bks.cpg/sg68_11_cif.got.tgz:20102.got - 2010.06.03 18:57:09.
