data_PCOD9508636
_publ_section_title
;
Structure prediction by ZEFSAII (Michael W. Deem and Ramdas Pophale) SiO2 
 PCOD9508636
Probable space group: C C C A
;
_chemical_formula_sum "Si O2"
_cell_formula_units_Z 80
_cell_length_a 14.800547
_cell_length_b 21.045310
_cell_length_c 11.112477
_cell_angle_alpha 90.000000
_cell_angle_beta 90.000000
_cell_angle_gamma 90.000000
_cell_volume 3461.337670
_symmetry_space_group_name_H-M "C C C A"
_symmetry_group_IT_number 68
_space_group.IT_coordinate_system_code '2'
_symmetry_cell_setting 'orthorhombic'
loop_
_space_group_symop_operation_xyz
x,y,z
-x,1/2-y,z
x,1/2-y,1/2-z
-x,y,1/2-z
-x,-y,-z
x,1/2+y,-z
-x,1/2+y,1/2+z
x,-y,1/2+z
1/2+x,1/2+y,z
1/2-x,-y,z
1/2+x,-y,1/2-z
1/2-x,1/2+y,1/2-z
1/2-x,1/2-y,-z
1/2+x,y,-z
1/2-x,y,1/2+z
1/2+x,1/2-y,1/2+z
loop_
_atom_site_type_symbol
_atom_site_label
_atom_site_fract_x
_atom_site_fract_y
_atom_site_fract_z
Si Si1 0.500000 0.750000 0.958124
Si Si2 0.229275 0.873684 0.714023
Si Si3 0.954603 0.371888 0.078611
Si Si4 0.250000 0.500000 0.942874
Si Si5 0.648446 0.250000 0.250000
Si Si6 0.857570 0.558700 0.374101
Si Si7 0.500000 0.017931 0.750000
O O1 0.415749 0.759129 0.866810
O O2 0.512580 0.810380 0.046162
O O3 0.127848 0.856480 0.671941
O O4 0.289825 0.810516 0.715430
O O5 0.264175 0.907309 0.836568
O O6 0.249990 0.933612 0.626802
O O7 0.997546 0.434165 0.137878
O O8 0.917422 0.392368 0.948120
O O9 0.164369 0.505110 0.029186
O O10 0.913039 0.527069 0.265679
#
# Coordination Sequence:
#
# PCOD9508636 Si02
#       7
#     8  16  16   8   8  16   8
#     4  11  26  49  70 106 140 195 242 311 366 432
#     4  11  24  45  71 106 136 194 244 292 361 446
#     4  11  26  45  69 105 142 187 239 302 366 431
#     4  10  22  40  68 102 146 176 238 302 352 430
#     4  11  26  46  78  97 144 192 256 293 368 458
#     4  11  22  43  66 103 142 188 231 293 370 429
#     4  12  26  39  72 107 144 188 234 306 364 432
#
# _framework density 23.112451
#
# number of rings (size 3 to 8) (size 9 to 14) (size 15 to 20)
#    0.000    1.000    2.000    4.800    5.600    2.800 
#    0.000    0.000    0.000    0.000    0.000    0.000 
#    0.000    0.000    0.000    0.000    0.000    0.000 
#
# Total GULP energy -222985.864881 kJ/mol
# GULP energy per Si atom -5574.646622 kJ/mol
# Density = 2.305985 g / cm^3
# Si number density = 23.112451 Si / 1000 Ang^3
#
#
#
# Elastic Constant Matrix: (Units=GPa)
#
#
# Indices 1 2 3 4 5 6 
#
# 1 66.1630 39.9330 14.5731 0.0000 0.0000 0.0000
# 2 39.9330 121.8319 37.4251 0.0000 0.0000 0.0000
# 3 14.5731 37.4251 72.0666 0.0000 0.0000 0.0000
# 4 0.0000 0.0000 0.0000 63.0621 0.0000 0.0000
# 5 0.0000 0.0000 0.0000 0.0000 35.7340 0.0000
# 6 0.0000 0.0000 0.0000 0.0000 0.0000 41.7242
#
#
#
# Elastic Compliance Matrix: (Units=1/GPa)
#
#
# Indices 1 2 3 4 5 6 
#
# 1 0.018873 -0.005965 -0.000719 0.000000 0.000000 0.000000
# 2 -0.005965 0.011651 -0.004844 0.000000 0.000000 0.000000
# 3 -0.000719 -0.004844 0.016537 0.000000 0.000000 0.000000
# 4 0.000000 0.000000 0.000000 0.015857 0.000000 0.000000
# 5 0.000000 0.000000 0.000000 0.000000 0.027985 0.000000
# 6 0.000000 0.000000 0.000000 0.000000 0.000000 0.023967
#
#
# Mechanical properties :
#
#
# Convention : Reuss Voigt Hill
#
# Bulk Modulus (GPa) = 41.65829 49.32489 45.49159
# Shear Modulus (GPa) = 34.26338 39.31274 36.78806
#
# Velocity S-wave (km/s) = 3.85446 4.12871 3.99394
# Velocity P-wave (km/s) = 6.15406 6.64198 6.40267
#
# Compressibility (1/GPa) = 0.02400483
#
# Stress axis : x y z
#
# Youngs Moduli (GPa) = 52.98635 85.82654 60.46984
#
# Poissons Ratio (x) = 0.51197 0.04345
# Poissons Ratio (y) = 0.31607 0.29294
# Poissons Ratio (z) = 0.03808 0.41578
#
# Static dielectric constant tensor:
#      x y z
#    x 1.926730 0.000000 0.000000 
#    y 0.000000 1.998200 0.000000 
#    z 0.000000 0.000000 1.934000 
# 
# From -- ./inp_files/14392.got.cif
#   From: 2010.05.17/outbox.cif.g08.bks.cpg/sg68_8_cif.got.tgz:14392.got - 2010.06.03 18:57:09.
