data_PCOD9508421
_publ_section_title
;
Structure prediction by ZEFSAII (Michael W. Deem and Ramdas Pophale) SiO2 
 PCOD9508421
Probable space group: C C C A
;
_chemical_formula_sum "Si O2"
_cell_formula_units_Z 96
_cell_length_a 9.673281
_cell_length_b 20.560862
_cell_length_c 24.466268
_cell_angle_alpha 90.000000
_cell_angle_beta 90.000000
_cell_angle_gamma 90.000000
_cell_volume 4866.120404
_symmetry_space_group_name_H-M "C C C A"
_symmetry_group_IT_number 68
_space_group.IT_coordinate_system_code '2'
_symmetry_cell_setting 'orthorhombic'
loop_
_space_group_symop_operation_xyz
x,y,z
-x,1/2-y,z
x,1/2-y,1/2-z
-x,y,1/2-z
-x,-y,-z
x,1/2+y,-z
-x,1/2+y,1/2+z
x,-y,1/2+z
1/2+x,1/2+y,z
1/2-x,-y,z
1/2+x,-y,1/2-z
1/2-x,1/2+y,1/2-z
1/2-x,1/2-y,-z
1/2+x,y,-z
1/2-x,y,1/2+z
1/2+x,1/2-y,1/2+z
loop_
_atom_site_type_symbol
_atom_site_label
_atom_site_fract_x
_atom_site_fract_y
_atom_site_fract_z
Si Si1 0.106699 0.167644 0.109830
Si Si2 0.827728 0.857701 0.013538
Si Si3 0.917922 0.943654 0.469249
Si Si4 0.474203 0.324472 0.185520
Si Si5 0.815395 0.062074 0.851807
Si Si6 0.706594 0.307053 0.877152
O O1 0.186353 0.106538 0.132370
O O2 0.171387 0.232300 0.136219
O O3 0.944569 0.160968 0.120694
O O4 0.137456 0.173338 0.045023
O O5 0.767509 0.813736 0.061628
O O6 0.972469 0.885399 0.034942
O O7 0.716413 0.915167 0.000380
O O8 0.878490 0.964791 0.408563
O O9 0.000000 0.000000 0.500000
O O10 0.500000 0.250000 0.162976
O O11 0.500000 0.319712 0.250000
O O12 0.571922 0.385256 0.168938
O O13 0.317661 0.336516 0.164719
O O14 0.750000 0.000000 0.820169
#
# Coordination Sequence:
#
# PCOD9508421 Si02
#       6
#    16  16  16  16  16  16
#     4  10  22  38  59  97 136 173 211 262 335 393
#     4  11  20  34  55  89 132 175 218 263 313 403
#     4  11  21  35  55  87 134 185 215 252 324 401
#     4  11  24  47  75  97 122 169 232 289 347 400
#     4  11  23  42  66  92 136 174 220 275 331 399
#     4  11  21  39  63  93 131 168 219 273 327 398
#
# _framework density 19.728242000000002
#
# number of rings (size 3 to 8) (size 9 to 14) (size 15 to 20)
#    0.000    1.167    5.000    3.000    0.000    0.000 
#    3.000    3.333    0.000    0.000    0.000    0.000 
#    0.000    0.000    0.000    0.000    0.000    0.000 
#
# Total GULP energy -267606.609924 kJ/mol
# GULP energy per Si atom -5575.137707 kJ/mol
# Density = 1.968334 g / cm^3
# Si number density = 19.728242 Si / 1000 Ang^3
#
#
#
# Elastic Constant Matrix: (Units=GPa)
#
#
# Indices 1 2 3 4 5 6 
#
# 1 158.5317 50.8805 44.3994 0.0000 0.0000 0.0000
# 2 50.8805 81.1786 29.4609 0.0000 0.0000 0.0000
# 3 44.3994 29.4609 56.4188 0.0000 0.0000 0.0000
# 4 0.0000 0.0000 0.0000 -148.8907 0.0000 0.0000
# 5 0.0000 0.0000 0.0000 0.0000 -3.1081 0.0000
# 6 0.0000 0.0000 0.0000 0.0000 0.0000 39.0129
#
#
#
# Elastic Compliance Matrix: (Units=1/GPa)
#
#
# Indices 1 2 3 4 5 6 
#
# 1 0.008934 -0.003761 -0.005067 0.000000 0.000000 0.000000
# 2 -0.003761 0.016782 -0.005804 0.000000 0.000000 0.000000
# 3 -0.005067 -0.005804 0.024743 0.000000 0.000000 0.000000
# 4 0.000000 0.000000 0.000000 -0.006716 0.000000 0.000000
# 5 0.000000 0.000000 0.000000 0.000000 -0.321736 0.000000
# 6 0.000000 0.000000 0.000000 0.000000 0.000000 0.025633
#
#
# Mechanical properties :
#
#
# Convention : Reuss Voigt Hill
#
# Bulk Modulus (GPa) = 47.17898 60.62342 53.90120
# Shear Modulus (GPa) = -23.14459 -11.17130 -17.15795
#
# Velocity S-wave (km/s) = -3.42887 -2.38220 -2.95229
# Velocity P-wave (km/s) = 2.87926 4.81969 3.96986
#
# Compressibility (1/GPa) = 0.02119588
#
# Stress axis : x y z
#
# Youngs Moduli (GPa) = 111.93262 59.58816 40.41610
#
# Poissons Ratio (x) = 0.22409 0.20478
# Poissons Ratio (y) = 0.42094 0.23456
# Poissons Ratio (z) = 0.56715 0.34583
#
# Static dielectric constant tensor:
#      x y z
#    x 1.733160 0.000000 0.000000 
#    y 0.000000 1.765480 0.000000 
#    z 0.000000 0.000000 1.695240 
# 
# From -- ./inp_files/49323.got.cif
#   From: 2010.05.17/outbox.cif.g08.bks.cpg/sg68_25_cif.got.tgz:49323.got - 2010.06.03 18:57:09.
