data_PCOD9508968
_publ_section_title
;
Structure prediction by ZEFSAII (Michael W. Deem and Ramdas Pophale) SiO2 
 PCOD9508968
Probable space group: C C C A
;
_chemical_formula_sum "Si O2"
_cell_formula_units_Z 52
_cell_length_a 7.621892
_cell_length_b 13.607854
_cell_length_c 21.451299
_cell_angle_alpha 90.000000
_cell_angle_beta 90.000000
_cell_angle_gamma 90.000000
_cell_volume 2224.877111
_symmetry_space_group_name_H-M "C C C A"
_symmetry_group_IT_number 68
_space_group.IT_coordinate_system_code '2'
_symmetry_cell_setting 'orthorhombic'
loop_
_space_group_symop_operation_xyz
x,y,z
-x,1/2-y,z
x,1/2-y,1/2-z
-x,y,1/2-z
-x,-y,-z
x,1/2+y,-z
-x,1/2+y,1/2+z
x,-y,1/2+z
1/2+x,1/2+y,z
1/2-x,-y,z
1/2+x,-y,1/2-z
1/2-x,1/2+y,1/2-z
1/2-x,1/2-y,-z
1/2+x,y,-z
1/2-x,y,1/2+z
1/2+x,1/2-y,1/2+z
loop_
_atom_site_type_symbol
_atom_site_label
_atom_site_fract_x
_atom_site_fract_y
_atom_site_fract_z
Si Si1 0.000000 0.250000 0.750000
Si Si2 0.947380 0.380294 0.422426
Si Si3 0.061249 0.616323 0.059952
Si Si4 0.234180 0.618249 0.340707
O O1 0.866518 0.321522 0.712399
O O2 0.934494 0.498233 0.431429
O O3 0.748117 0.345388 0.416350
O O4 0.034769 0.353595 0.488525
O O5 0.071097 0.355692 0.364542
O O6 0.891988 0.639510 0.100303
O O7 0.250000 0.500000 0.327486
#
# Coordination Sequence:
#
# PCOD9508968 Si02
#       4
#     4  16  16  16
#     4  12  28  52  70  98 144 202 264 290 326 430
#     4   9  15  29  62 104 137 173 221 283 371 436
#     4   9  15  29  62 103 137 172 219 285 368 437
#     4  10  22  44  69  97 140 187 234 297 354 412
#
# _framework density 23.372077000000001
#
# number of rings (size 3 to 8) (size 9 to 14) (size 15 to 20)
#    0.000    2.462    3.077    0.000    0.000    0.000 
#   11.077    4.615    0.000    0.000    0.000    0.000 
#    0.000    0.000    0.000    0.000    0.000    0.000 
#
# Total GULP energy -145184.683842 kJ/mol
# GULP energy per Si atom -5584.026302 kJ/mol
# Density = 2.331888 g / cm^3
# Si number density = 23.372077 Si / 1000 Ang^3
#
#
#
# Elastic Constant Matrix: (Units=GPa)
#
#
# Indices 1 2 3 4 5 6 
#
# 1 190.2346 76.4730 53.3496 0.0000 0.0000 0.0000
# 2 76.4730 165.1589 54.3919 0.0000 0.0000 0.0000
# 3 53.3496 54.3919 87.5347 0.0000 0.0000 0.0000
# 4 0.0000 0.0000 0.0000 28.8603 0.0000 0.0000
# 5 0.0000 0.0000 0.0000 0.0000 66.0291 0.0000
# 6 0.0000 0.0000 0.0000 0.0000 0.0000 24.9043
#
#
#
# Elastic Compliance Matrix: (Units=1/GPa)
#
#
# Indices 1 2 3 4 5 6 
#
# 1 0.006972 -0.002299 -0.002820 0.000000 0.000000 0.000000
# 2 -0.002299 0.008371 -0.003800 0.000000 0.000000 0.000000
# 3 -0.002820 -0.003800 0.015504 0.000000 0.000000 0.000000
# 4 0.000000 0.000000 0.000000 0.034650 0.000000 0.000000
# 5 0.000000 0.000000 0.000000 0.000000 0.015145 0.000000
# 6 0.000000 0.000000 0.000000 0.000000 0.000000 0.040154
#
#
# Mechanical properties :
#
#
# Convention : Reuss Voigt Hill
#
# Bulk Modulus (GPa) = 76.87925 90.15080 83.51502
# Shear Modulus (GPa) = 34.97212 41.20631 38.08921
#
# Velocity S-wave (km/s) = 3.87243 4.20343 4.04132
# Velocity P-wave (km/s) = 7.27731 7.88760 7.58859
#
# Compressibility (1/GPa) = 0.01300741
#
# Stress axis : x y z
#
# Youngs Moduli (GPa) = 143.43186 119.46110 64.49823
#
# Poissons Ratio (x) = 0.27468 0.18191
# Poissons Ratio (y) = 0.32980 0.24510
# Poissons Ratio (z) = 0.40454 0.45397
#
# Static dielectric constant tensor:
#      x y z
#    x 1.827950 0.000000 0.000000 
#    y 0.000000 2.061700 0.000000 
#    z 0.000000 0.000000 1.833310 
# 
# From -- ./inp_files/27602.got.cif
#   From: 2010.05.17/outbox.cif.g08.bks.cpg/sg68_14_cif.got.tgz:27602.got - 2010.06.03 18:57:09.
