data_PCOD9508298
_publ_section_title
;
Structure prediction by ZEFSAII (Michael W. Deem and Ramdas Pophale) SiO2 
 PCOD9508298
Probable space group: C C C A
;
_chemical_formula_sum "Si O2"
_cell_formula_units_Z 56
_cell_length_a 13.603876
_cell_length_b 15.369278
_cell_length_c 10.700594
_cell_angle_alpha 90.000000
_cell_angle_beta 90.000000
_cell_angle_gamma 90.000000
_cell_volume 2237.298942
_symmetry_space_group_name_H-M "C C C A"
_symmetry_group_IT_number 68
_space_group.IT_coordinate_system_code '2'
_symmetry_cell_setting 'orthorhombic'
loop_
_space_group_symop_operation_xyz
x,y,z
-x,1/2-y,z
x,1/2-y,1/2-z
-x,y,1/2-z
-x,-y,-z
x,1/2+y,-z
-x,1/2+y,1/2+z
x,-y,1/2+z
1/2+x,1/2+y,z
1/2-x,-y,z
1/2+x,-y,1/2-z
1/2-x,1/2+y,1/2-z
1/2-x,1/2-y,-z
1/2+x,y,-z
1/2-x,y,1/2+z
1/2+x,1/2-y,1/2+z
loop_
_atom_site_type_symbol
_atom_site_label
_atom_site_fract_x
_atom_site_fract_y
_atom_site_fract_z
Si Si1 0.845947 0.345737 0.199965
Si Si2 0.632477 0.385843 0.190760
Si Si3 0.140761 0.216577 0.949006
Si Si4 0.000000 0.464442 0.250000
O O1 0.819428 0.250000 0.250000
O O2 0.747881 0.397770 0.165775
O O3 0.913663 0.399631 0.293939
O O4 0.903521 0.326658 0.072053
O O5 0.597077 0.304294 0.109030
O O6 0.637341 0.352747 0.335742
O O7 0.563777 0.468020 0.168790
O O8 0.250000 0.250000 0.000000
#
# Coordination Sequence:
#
# PCOD9508298 Si02
#       4
#    16  16  16   8
#     4  11  22  47  68  92 135 184 216 264 340 408
#     4  10  21  45  69  97 132 173 226 274 326 393
#     4   9  18  42  75  90 124 186 222 256 333 408
#     4  12  27  41  62 112 136 160 226 293 329 380
#
# _framework density 25.030183000000001
#
# number of rings (size 3 to 8) (size 9 to 14) (size 15 to 20)
#    0.000    1.714    5.714    1.286    0.000    3.429 
#   15.429    2.857    0.000    0.000    0.000    0.000 
#    0.000    0.000    0.000    0.000    0.000    0.000 
#
# Total GULP energy -156076.322008 kJ/mol
# GULP energy per Si atom -5574.154357 kJ/mol
# Density = 2.497321 g / cm^3
# Si number density = 25.030183 Si / 1000 Ang^3
#
#
#
# Elastic Constant Matrix: (Units=GPa)
#
#
# Indices 1 2 3 4 5 6 
#
# 1 132.8232 56.9123 -2.7207 0.0000 0.0000 0.0000
# 2 56.9123 130.7933 13.8842 0.0000 0.0000 0.0000
# 3 -2.7207 13.8842 117.1877 0.0000 0.0000 0.0000
# 4 0.0000 0.0000 0.0000 17.4507 0.0000 0.0000
# 5 0.0000 0.0000 0.0000 0.0000 20.8740 0.0000
# 6 0.0000 0.0000 0.0000 0.0000 0.0000 56.1055
#
#
#
# Elastic Compliance Matrix: (Units=1/GPa)
#
#
# Indices 1 2 3 4 5 6 
#
# 1 0.009311 -0.004127 0.000705 0.000000 0.000000 0.000000
# 2 -0.004127 0.009572 -0.001230 0.000000 0.000000 0.000000
# 3 0.000705 -0.001230 0.008695 0.000000 0.000000 0.000000
# 4 0.000000 0.000000 0.000000 0.057304 0.000000 0.000000
# 5 0.000000 0.000000 0.000000 0.000000 0.047906 0.000000
# 6 0.000000 0.000000 0.000000 0.000000 0.000000 0.017824
#
#
# Mechanical properties :
#
#
# Convention : Reuss Voigt Hill
#
# Bulk Modulus (GPa) = 54.71665 57.43955 56.07810
# Shear Modulus (GPa) = 30.11914 39.73461 34.92687
#
# Velocity S-wave (km/s) = 3.47264 3.98863 3.73954
# Velocity P-wave (km/s) = 6.16334 6.64907 6.41081
#
# Compressibility (1/GPa) = 0.01827597
#
# Stress axis : x y z
#
# Youngs Moduli (GPa) = 107.39536 104.47363 115.00337
#
# Poissons Ratio (x) = 0.43111 -0.08109
# Poissons Ratio (y) = 0.44317 0.14144
# Poissons Ratio (z) = -0.07572 0.12849
#
# Static dielectric constant tensor:
#      x y z
#    x 2.109340 0.000000 0.000000 
#    y 0.000000 1.973380 0.000000 
#    z 0.000000 0.000000 2.030330 
# 
# From -- ./inp_files/12668.got.cif
#   From: 2010.05.17/outbox.cif.g08.bks.cpg/sg68_7_cif.got.tgz:12668.got - 2010.06.03 18:57:09.
