data_PCOD9508187
_publ_section_title
;
Structure prediction by ZEFSAII (Michael W. Deem and Ramdas Pophale) SiO2 
 PCOD9508187
Probable space group: C C C A
;
_chemical_formula_sum "Si O2"
_cell_formula_units_Z 72
_cell_length_a 13.478864
_cell_length_b 23.677084
_cell_length_c 11.362335
_cell_angle_alpha 90.000000
_cell_angle_beta 90.000000
_cell_angle_gamma 90.000000
_cell_volume 3626.177809
_symmetry_space_group_name_H-M "C C C A"
_symmetry_group_IT_number 68
_space_group.IT_coordinate_system_code '2'
_symmetry_cell_setting 'orthorhombic'
loop_
_space_group_symop_operation_xyz
x,y,z
-x,1/2-y,z
x,1/2-y,1/2-z
-x,y,1/2-z
-x,-y,-z
x,1/2+y,-z
-x,1/2+y,1/2+z
x,-y,1/2+z
1/2+x,1/2+y,z
1/2-x,-y,z
1/2+x,-y,1/2-z
1/2-x,1/2+y,1/2-z
1/2-x,1/2-y,-z
1/2+x,y,-z
1/2-x,y,1/2+z
1/2+x,1/2-y,1/2+z
loop_
_atom_site_type_symbol
_atom_site_label
_atom_site_fract_x
_atom_site_fract_y
_atom_site_fract_z
Si Si1 0.136299 0.631245 0.192610
Si Si2 0.857330 0.470946 0.633267
Si Si3 0.000000 0.554312 0.750000
Si Si4 0.850078 0.615916 0.915145
Si Si5 0.453143 0.811669 0.591248
O O1 0.128952 0.571419 0.257240
O O2 0.239695 0.630729 0.125898
O O3 0.120082 0.676742 0.298173
O O4 0.043719 0.644180 0.108775
O O5 0.750000 0.500000 0.642968
O O6 0.944962 0.516212 0.650838
O O7 0.854106 0.432743 0.515979
O O8 0.915208 0.592166 0.808824
O O9 0.897634 0.671276 0.973484
O O10 0.500000 0.750000 0.592887
#
# Coordination Sequence:
#
# PCOD9508187 Si02
#       5
#    16  16   8  16  16
#     4  10  21  42  64  95 128 165 219 261 323 394
#     4  11  23  38  62  92 131 177 208 251 327 392
#     4  12  24  42  59  94 137 176 212 274 316 382
#     4  11  25  38  65  96 128 166 224 270 310 400
#     4  10  23  45  70  92 126 173 217 278 336 378
#
# _framework density 19.855616999999999
#
# number of rings (size 3 to 8) (size 9 to 14) (size 15 to 20)
#    0.000    1.333    2.222    4.667    6.222    0.889 
#    0.000    2.778    0.000    0.000    0.000    0.000 
#    0.000    0.000    0.000    0.000    0.000    0.000 
#
# Total GULP energy -201102.218804 kJ/mol
# GULP energy per Si atom -5586.172745 kJ/mol
# Density = 1.981042 g / cm^3
# Si number density = 19.855617 Si / 1000 Ang^3
#
#
#
# Elastic Constant Matrix: (Units=GPa)
#
#
# Indices 1 2 3 4 5 6 
#
# 1 142.9545 41.0046 61.0706 0.0000 0.0000 0.0000
# 2 41.0046 62.6389 24.2183 0.0000 0.0000 0.0000
# 3 61.0706 24.2183 68.6820 0.0000 0.0000 0.0000
# 4 0.0000 0.0000 0.0000 11.1270 0.0000 0.0000
# 5 0.0000 0.0000 0.0000 0.0000 37.8080 0.0000
# 6 0.0000 0.0000 0.0000 0.0000 0.0000 38.2061
#
#
#
# Elastic Compliance Matrix: (Units=1/GPa)
#
#
# Indices 1 2 3 4 5 6 
#
# 1 0.012248 -0.004408 -0.009337 0.000000 0.000000 0.000000
# 2 -0.004408 0.020071 -0.003158 0.000000 0.000000 0.000000
# 3 -0.009337 -0.003158 0.023975 0.000000 0.000000 0.000000
# 4 0.000000 0.000000 0.000000 0.089872 0.000000 0.000000
# 5 0.000000 0.000000 0.000000 0.000000 0.026449 0.000000
# 6 0.000000 0.000000 0.000000 0.000000 0.000000 0.026174
#
#
# Mechanical properties :
#
#
# Convention : Reuss Voigt Hill
#
# Bulk Modulus (GPa) = 44.46481 58.54027 51.50254
# Shear Modulus (GPa) = 20.82545 27.29365 24.05955
#
# Velocity S-wave (km/s) = 3.24210 3.71159 3.48476
# Velocity P-wave (km/s) = 6.03802 6.92206 6.49509
#
# Compressibility (1/GPa) = 0.02248970
#
# Stress axis : x y z
#
# Youngs Moduli (GPa) = 81.64443 49.82303 41.70983
#
# Poissons Ratio (x) = 0.21963 0.38942
# Poissons Ratio (y) = 0.35990 0.13171
# Poissons Ratio (z) = 0.76227 0.15733
#
# Static dielectric constant tensor:
#      x y z
#    x 1.672910 0.000000 0.000000 
#    y 0.000000 1.706990 0.000000 
#    z 0.000000 0.000000 1.712850 
# 
# From -- ./inp_files/11847.got.cif
#   From: 2010.05.17/outbox.cif.g08.bks.cpg/sg68_6_cif.got.tgz:11847.got - 2010.06.03 18:57:09.
