data_PCOD9508396
_publ_section_title
;
Structure prediction by ZEFSAII (Michael W. Deem and Ramdas Pophale) SiO2 
 PCOD9508396
Probable space group: C C C A
;
_chemical_formula_sum "Si O2"
_cell_formula_units_Z 80
_cell_length_a 17.592348
_cell_length_b 9.037818
_cell_length_c 24.429768
_cell_angle_alpha 90.000000
_cell_angle_beta 90.000000
_cell_angle_gamma 90.000000
_cell_volume 3884.246128
_symmetry_space_group_name_H-M "C C C A"
_symmetry_group_IT_number 68
_space_group.IT_coordinate_system_code '2'
_symmetry_cell_setting 'orthorhombic'
loop_
_space_group_symop_operation_xyz
x,y,z
-x,1/2-y,z
x,1/2-y,1/2-z
-x,y,1/2-z
-x,-y,-z
x,1/2+y,-z
-x,1/2+y,1/2+z
x,-y,1/2+z
1/2+x,1/2+y,z
1/2-x,-y,z
1/2+x,-y,1/2-z
1/2-x,1/2+y,1/2-z
1/2-x,1/2-y,-z
1/2+x,y,-z
1/2-x,y,1/2+z
1/2+x,1/2-y,1/2+z
loop_
_atom_site_type_symbol
_atom_site_label
_atom_site_fract_x
_atom_site_fract_y
_atom_site_fract_z
Si Si1 0.209639 0.154114 0.696056
Si Si2 0.563144 0.647207 0.626019
Si Si3 0.937012 0.122665 0.448552
Si Si4 0.200380 0.189558 0.402339
Si Si5 0.354861 0.395205 0.057940
O O1 0.198806 0.250000 0.750000
O O2 0.130235 0.112984 0.667560
O O3 0.258722 0.249267 0.651900
O O4 0.250000 0.000000 0.708805
O O5 0.500000 0.750000 0.653597
O O6 0.534896 0.503679 0.593177
O O7 0.599087 0.757624 0.581288
O O8 0.862738 0.196318 0.421525
O O9 0.901490 0.055437 0.504437
O O10 0.000000 0.250000 0.457984
O O11 0.268029 0.163868 0.446664
O O12 0.157747 0.031244 0.400141
#
# Coordination Sequence:
#
# PCOD9508396 Si02
#       5
#    16  16  16  16  16
#     4  11  25  46  75  95 123 169 225 288 348 406
#     4  11  24  42  65  99 139 175 220 276 338 397
#     4  12  23  39  63  94 143 185 225 263 329 406
#     4  10  22  41  63  97 130 171 222 282 328 393
#     4  10  22  37  64  97 136 181 221 263 321 400
#
# _framework density 20.596018000000001
#
# number of rings (size 3 to 8) (size 9 to 14) (size 15 to 20)
#    0.000    1.200    2.000    3.600    5.600    7.600 
#    0.000    0.000    0.000    0.600    0.000    0.000 
#    0.000    0.000    0.000    0.000    0.000    0.000 
#
# Total GULP energy -223366.440734 kJ/mol
# GULP energy per Si atom -5584.161018 kJ/mol
# Density = 2.054914 g / cm^3
# Si number density = 20.596018 Si / 1000 Ang^3
#
#
#
# Elastic Constant Matrix: (Units=GPa)
#
#
# Indices 1 2 3 4 5 6 
#
# 1 85.3166 18.8284 16.4778 0.0000 0.0000 0.0000
# 2 18.8284 107.9970 24.3092 0.0000 0.0000 0.0000
# 3 16.4778 24.3092 74.9261 0.0000 0.0000 0.0000
# 4 0.0000 0.0000 0.0000 30.6807 0.0000 0.0000
# 5 0.0000 0.0000 0.0000 0.0000 5.7866 0.0000
# 6 0.0000 0.0000 0.0000 0.0000 0.0000 41.7567
#
#
#
# Elastic Compliance Matrix: (Units=1/GPa)
#
#
# Indices 1 2 3 4 5 6 
#
# 1 0.012519 -0.001686 -0.002206 0.000000 0.000000 0.000000
# 2 -0.001686 0.010216 -0.002944 0.000000 0.000000 0.000000
# 3 -0.002206 -0.002944 0.014787 0.000000 0.000000 0.000000
# 4 0.000000 0.000000 0.000000 0.032594 0.000000 0.000000
# 5 0.000000 0.000000 0.000000 0.000000 0.172814 0.000000
# 6 0.000000 0.000000 0.000000 0.000000 0.000000 0.023948
#
#
# Mechanical properties :
#
#
# Convention : Reuss Voigt Hill
#
# Bulk Modulus (GPa) = 41.92855 43.05227 42.49041
# Shear Modulus (GPa) = 17.33102 29.55308 23.44205
#
# Velocity S-wave (km/s) = 2.90396 3.79211 3.37736
# Velocity P-wave (km/s) = 5.62546 6.33419 5.99032
#
# Compressibility (1/GPa) = 0.02385010
#
# Stress axis : x y z
#
# Youngs Moduli (GPa) = 79.87705 97.88502 67.62808
#
# Poissons Ratio (x) = 0.16504 0.14920
# Poissons Ratio (y) = 0.13467 0.19908
# Poissons Ratio (z) = 0.17623 0.28815
#
# Static dielectric constant tensor:
#      x y z
#    x 1.799290 0.000000 0.000000 
#    y 0.000000 1.757030 0.000000 
#    z 0.000000 0.000000 1.695500 
# 
# From -- ./inp_files/49104.got.cif
#   From: 2010.05.17/outbox.cif.g08.bks.cpg/sg68_25_cif.got.tgz:49104.got - 2010.06.03 18:57:09.
