data_PCOD9508985
_publ_section_title
;
Structure prediction by ZEFSAII (Michael W. Deem and Ramdas Pophale) SiO2 
 PCOD9508985
Probable space group: C C C A
;
_chemical_formula_sum "Si O2"
_cell_formula_units_Z 72
_cell_length_a 20.451714
_cell_length_b 7.314746
_cell_length_c 22.310383
_cell_angle_alpha 90.000000
_cell_angle_beta 90.000000
_cell_angle_gamma 90.000000
_cell_volume 3337.613065
_symmetry_space_group_name_H-M "C C C A"
_symmetry_group_IT_number 68
_space_group.IT_coordinate_system_code '2'
_symmetry_cell_setting 'orthorhombic'
loop_
_space_group_symop_operation_xyz
x,y,z
-x,1/2-y,z
x,1/2-y,1/2-z
-x,y,1/2-z
-x,-y,-z
x,1/2+y,-z
-x,1/2+y,1/2+z
x,-y,1/2+z
1/2+x,1/2+y,z
1/2-x,-y,z
1/2+x,-y,1/2-z
1/2-x,1/2+y,1/2-z
1/2-x,1/2-y,-z
1/2+x,y,-z
1/2-x,y,1/2+z
1/2+x,1/2-y,1/2+z
loop_
_atom_site_type_symbol
_atom_site_label
_atom_site_fract_x
_atom_site_fract_y
_atom_site_fract_z
Si Si1 0.972147 0.955354 0.186615
Si Si2 0.321983 0.536285 0.655216
Si Si3 0.684593 0.120063 0.427867
Si Si4 0.637171 0.247243 0.552920
Si Si5 0.000000 0.250000 0.413196
O O1 0.892296 0.966506 0.188389
O O2 0.000000 0.750000 0.178409
O O3 0.000000 0.020812 0.250000
O O4 0.998732 0.080211 0.133135
O O5 0.250000 0.500000 0.684386
O O6 0.318031 0.734750 0.624575
O O7 0.330299 0.385148 0.602107
O O8 0.673660 0.225609 0.490180
O O9 0.750000 0.000000 0.428465
O O10 0.633821 0.955083 0.424471
O O11 0.561588 0.201733 0.545756
#
# Coordination Sequence:
#
# PCOD9508985 Si02
#       5
#    16  16  16  16   8
#     4  10  22  44  72  88 120 162 209 269 333 374
#     4  11  22  39  63  96 125 164 211 259 308 380
#     4  12  21  35  57  87 132 174 204 248 306 363
#     4  11  22  35  56  89 131 172 210 247 304 366
#     4  10  23  40  60  92 122 166 213 254 310 382
#
# _framework density 21.572302000000001
#
# number of rings (size 3 to 8) (size 9 to 14) (size 15 to 20)
#    0.000    1.111    4.444    3.000    0.000    0.889 
#    2.000    0.000   19.556    0.000    0.000    0.000 
#    0.000    0.000    0.000    0.000    0.000    0.000 
#
# Total GULP energy -200834.443527 kJ/mol
# GULP energy per Si atom -5578.734542 kJ/mol
# Density = 2.152320 g / cm^3
# Si number density = 21.572302 Si / 1000 Ang^3
#
#
#
# Elastic Constant Matrix: (Units=GPa)
#
#
# Indices 1 2 3 4 5 6 
#
# 1 156.0334 3.2272 50.5377 0.0000 0.0000 0.0000
# 2 3.2272 106.8956 9.1872 0.0000 0.0000 0.0000
# 3 50.5377 9.1872 40.9805 0.0000 0.0000 0.0000
# 4 0.0000 0.0000 0.0000 -24.6966 0.0000 0.0000
# 5 0.0000 0.0000 0.0000 0.0000 15.3341 0.0000
# 6 0.0000 0.0000 0.0000 0.0000 0.0000 17.8708
#
#
#
# Elastic Compliance Matrix: (Units=1/GPa)
#
#
# Indices 1 2 3 4 5 6 
#
# 1 0.010743 0.000830 -0.013435 0.000000 0.000000 0.000000
# 2 0.000830 0.009603 -0.003177 0.000000 0.000000 0.000000
# 3 -0.013435 -0.003177 0.041682 0.000000 0.000000 0.000000
# 4 0.000000 0.000000 0.000000 -0.040491 0.000000 0.000000
# 5 0.000000 0.000000 0.000000 0.000000 0.065214 0.000000
# 6 0.000000 0.000000 0.000000 0.000000 0.000000 0.055957
#
#
# Mechanical properties :
#
#
# Convention : Reuss Voigt Hill
#
# Bulk Modulus (GPa) = 32.82399 47.75709 40.29054
# Shear Modulus (GPa) = 27.11126 17.76547 22.43837
#
# Velocity S-wave (km/s) = 3.54893 2.87284 3.22863
# Velocity P-wave (km/s) = 5.66057 5.76112 5.71106
#
# Compressibility (1/GPa) = 0.03046552
#
# Stress axis : x y z
#
# Youngs Moduli (GPa) = 93.08343 104.13533 23.99133
#
# Poissons Ratio (x) = -0.08647 0.32231
# Poissons Ratio (y) = -0.07729 0.07622
# Poissons Ratio (z) = 1.25054 0.33082
#
# Static dielectric constant tensor:
#      x y z
#    x 1.916530 0.000000 0.000000 
#    y 0.000000 1.883700 0.000000 
#    z 0.000000 0.000000 1.750560 
# 
# From -- ./inp_files/40103.got.cif
#   From: 2010.05.17/outbox.cif.g08.bks.cpg/sg68_21_cif.got.tgz:40103.got - 2010.06.03 18:57:09.
