data_PCOD9508589
_publ_section_title
;
Structure prediction by ZEFSAII (Michael W. Deem and Ramdas Pophale) SiO2 
 PCOD9508589
Probable space group: C C C A
;
_chemical_formula_sum "Si O2"
_cell_formula_units_Z 68
_cell_length_a 6.082193
_cell_length_b 20.284597
_cell_length_c 25.152003
_cell_angle_alpha 90.000000
_cell_angle_beta 90.000000
_cell_angle_gamma 90.000000
_cell_volume 3103.124192
_symmetry_space_group_name_H-M "C C C A"
_symmetry_group_IT_number 68
_space_group.IT_coordinate_system_code '2'
_symmetry_cell_setting 'orthorhombic'
loop_
_space_group_symop_operation_xyz
x,y,z
-x,1/2-y,z
x,1/2-y,1/2-z
-x,y,1/2-z
-x,-y,-z
x,1/2+y,-z
-x,1/2+y,1/2+z
x,-y,1/2+z
1/2+x,1/2+y,z
1/2-x,-y,z
1/2+x,-y,1/2-z
1/2-x,1/2+y,1/2-z
1/2-x,1/2-y,-z
1/2+x,y,-z
1/2-x,y,1/2+z
1/2+x,1/2-y,1/2+z
loop_
_atom_site_type_symbol
_atom_site_label
_atom_site_fract_x
_atom_site_fract_y
_atom_site_fract_z
Si Si1 0.912951 0.939934 0.307835
Si Si2 0.500000 0.750000 0.063622
Si Si3 0.750000 0.500000 0.890173
Si Si4 0.885349 0.107331 0.024670
Si Si5 0.000000 0.250000 0.250000
Si Si6 0.296332 0.299604 0.341780
O O1 0.835023 0.876562 0.340070
O O2 0.000000 0.917509 0.250000
O O3 0.750000 0.000000 0.295918
O O4 0.082317 0.968538 0.349444
O O5 0.396168 0.686682 0.034186
O O6 0.681444 0.720371 0.103570
O O7 0.861630 0.557480 0.925537
O O8 0.638103 0.094563 0.997999
O O9 0.146289 0.290842 0.290087
O O10 0.500000 0.250000 0.335123
#
# Coordination Sequence:
#
# PCOD9508589 Si02
#       6
#    16   8   8  16   4  16
#     4  12  26  44  72 107 150 197 252 310 383 464
#     4  11  26  47  76 110 146 192 253 326 397 460
#     4  12  28  50  74 108 152 204 254 322 384 466
#     4  12  29  51  81 113 153 204 263 327 394 462
#     4  10  22  40  64 106 140 192 244 304 370 474
#     4  11  24  42  72 102 148 195 248 312 390 459
#
# _framework density 21.913401
#
# number of rings (size 3 to 8) (size 9 to 14) (size 15 to 20)
#    0.000    0.471    1.176    6.000   11.529    3.765 
#    0.000    0.000    0.000    0.000    0.000    0.000 
#    0.000    0.000    0.000    0.000    0.000    0.000 
#
# Total GULP energy -189585.459481 kJ/mol
# GULP energy per Si atom -5576.042926 kJ/mol
# Density = 2.186353 g / cm^3
# Si number density = 21.913401 Si / 1000 Ang^3
#
#
#
# Elastic Constant Matrix: (Units=GPa)
#
#
# Indices 1 2 3 4 5 6 
#
# 1 98.7686 12.2879 39.4638 0.0000 0.0000 0.0000
# 2 12.2879 78.1596 -0.1122 0.0000 0.0000 0.0000
# 3 39.4638 -0.1122 80.4436 0.0000 0.0000 0.0000
# 4 0.0000 0.0000 0.0000 81.7316 0.0000 0.0000
# 5 0.0000 0.0000 0.0000 0.0000 61.8519 0.0000
# 6 0.0000 0.0000 0.0000 0.0000 0.0000 19.7972
#
#
#
# Elastic Compliance Matrix: (Units=1/GPa)
#
#
# Indices 1 2 3 4 5 6 
#
# 1 0.012910 -0.002039 -0.006336 0.000000 0.000000 0.000000
# 2 -0.002039 0.013116 0.001018 0.000000 0.000000 0.000000
# 3 -0.006336 0.001018 0.015541 0.000000 0.000000 0.000000
# 4 0.000000 0.000000 0.000000 0.012235 0.000000 0.000000
# 5 0.000000 0.000000 0.000000 0.000000 0.016168 0.000000
# 6 0.000000 0.000000 0.000000 0.000000 0.000000 0.050512
#
#
# Mechanical properties :
#
#
# Convention : Reuss Voigt Hill
#
# Bulk Modulus (GPa) = 37.23807 40.07230 38.65518
# Shear Modulus (GPa) = 34.68689 46.39161 40.53925
#
# Velocity S-wave (km/s) = 3.98289 4.60613 4.30580
# Velocity P-wave (km/s) = 6.17911 6.82751 6.51139
#
# Compressibility (1/GPa) = 0.02685424
#
# Stress axis : x y z
#
# Youngs Moduli (GPa) = 77.45943 76.24090 64.34640
#
# Poissons Ratio (x) = 0.15544 0.40771
# Poissons Ratio (y) = 0.15792 -0.06553
# Poissons Ratio (z) = 0.49080 -0.07765
#
# Static dielectric constant tensor:
#      x y z
#    x 1.873290 0.000000 0.000000 
#    y 0.000000 1.707020 0.000000 
#    z 0.000000 0.000000 1.789170 
# 
# From -- ./inp_files/48234.got.cif
#   From: 2010.05.17/outbox.cif.g08.bks.cpg/sg68_25_cif.got.tgz:48234.got - 2010.06.03 18:57:09.
