data_PCOD9508228
_publ_section_title
;
Structure prediction by ZEFSAII (Michael W. Deem and Ramdas Pophale) SiO2 
 PCOD9508228
Probable space group: C C C A
;
_chemical_formula_sum "Si O2"
_cell_formula_units_Z 72
_cell_length_a 19.126958
_cell_length_b 22.221403
_cell_length_c 8.286997
_cell_angle_alpha 90.000000
_cell_angle_beta 90.000000
_cell_angle_gamma 90.000000
_cell_volume 3522.204451
_symmetry_space_group_name_H-M "C C C A"
_symmetry_group_IT_number 68
_space_group.IT_coordinate_system_code '2'
_symmetry_cell_setting 'orthorhombic'
loop_
_space_group_symop_operation_xyz
x,y,z
-x,1/2-y,z
x,1/2-y,1/2-z
-x,y,1/2-z
-x,-y,-z
x,1/2+y,-z
-x,1/2+y,1/2+z
x,-y,1/2+z
1/2+x,1/2+y,z
1/2-x,-y,z
1/2+x,-y,1/2-z
1/2-x,1/2+y,1/2-z
1/2-x,1/2-y,-z
1/2+x,y,-z
1/2-x,y,1/2+z
1/2+x,1/2-y,1/2+z
loop_
_atom_site_type_symbol
_atom_site_label
_atom_site_fract_x
_atom_site_fract_y
_atom_site_fract_z
Si Si1 0.806745 0.711518 0.096265
Si Si2 0.000000 0.407011 0.250000
Si Si3 0.552614 0.291750 0.912481
Si Si4 0.288717 0.925615 0.615769
Si Si5 0.849728 0.031859 0.230485
O O1 0.827373 0.750000 0.250000
O O2 0.783510 0.645148 0.144844
O O3 0.750000 0.750000 0.000000
O O4 0.872706 0.700689 0.984873
O O5 0.981790 0.357236 0.387227
O O6 0.928766 0.445941 0.234170
O O7 0.500000 0.250000 0.012514
O O8 0.563998 0.250000 0.750000
O O9 0.208401 0.946257 0.640091
O O10 0.321772 0.942710 0.441169
O O11 0.337471 0.960230 0.747137
#
# Coordination Sequence:
#
# PCOD9508228 Si02
#       5
#    16   8  16  16  16
#     4  12  25  40  67 100 132 177 230 279 343 410
#     4  10  21  42  72  94 135 180 228 276 362 412
#     4   9  21  42  64  92 134 181 218 273 345 419
#     4  11  24  43  65 101 130 179 233 281 343 409
#     4  11  23  44  69  96 136 177 227 287 342 414
#
# _framework density 20.441742000000001
#
# number of rings (size 3 to 8) (size 9 to 14) (size 15 to 20)
#    0.000    1.556    2.222    4.667    6.222    1.333 
#    0.000    0.000    0.000    0.000    0.000    0.000 
#    0.000    0.000    0.000    0.000    0.000    0.000 
#
# Total GULP energy -200485.066930 kJ/mol
# GULP energy per Si atom -5569.029637 kJ/mol
# Density = 2.039522 g / cm^3
# Si number density = 20.441742 Si / 1000 Ang^3
#
#
#
# Elastic Constant Matrix: (Units=GPa)
#
#
# Indices 1 2 3 4 5 6 
#
# 1 154.9371 46.6076 14.1625 0.0000 0.0000 0.0000
# 2 46.6076 152.5807 14.1088 0.0000 0.0000 0.0000
# 3 14.1625 14.1088 58.2928 0.0000 0.0000 0.0000
# 4 0.0000 0.0000 0.0000 16.3263 0.0000 0.0000
# 5 0.0000 0.0000 0.0000 0.0000 20.0277 0.0000
# 6 0.0000 0.0000 0.0000 0.0000 0.0000 39.8576
#
#
#
# Elastic Compliance Matrix: (Units=1/GPa)
#
#
# Indices 1 2 3 4 5 6 
#
# 1 0.007194 -0.002083 -0.001244 0.000000 0.000000 0.000000
# 2 -0.002083 0.007307 -0.001263 0.000000 0.000000 0.000000
# 3 -0.001244 -0.001263 0.017763 0.000000 0.000000 0.000000
# 4 0.000000 0.000000 0.000000 0.061251 0.000000 0.000000
# 5 0.000000 0.000000 0.000000 0.000000 0.049931 0.000000
# 6 0.000000 0.000000 0.000000 0.000000 0.000000 0.025089
#
#
# Mechanical properties :
#
#
# Convention : Reuss Voigt Hill
#
# Bulk Modulus (GPa) = 43.31661 57.28538 50.30100
# Shear Modulus (GPa) = 26.96754 34.63776 30.80265
#
# Velocity S-wave (km/s) = 3.63607 4.12085 3.88603
# Velocity P-wave (km/s) = 6.23412 7.12225 6.69293
#
# Compressibility (1/GPa) = 0.02308583
#
# Stress axis : x y z
#
# Youngs Moduli (GPa) = 138.99678 136.85867 56.29821
#
# Poissons Ratio (x) = 0.28502 0.07003
# Poissons Ratio (y) = 0.28948 0.07108
# Poissons Ratio (z) = 0.17289 0.17279
#
# Static dielectric constant tensor:
#      x y z
#    x 1.790820 0.000000 0.000000 
#    y 0.000000 1.831180 0.000000 
#    z 0.000000 0.000000 1.822270 
# 
# From -- ./inp_files/6950.got.cif
#   From: 2010.05.17/outbox.cif.g08.bks.cpg/sg68_4_cif.got.tgz:6950.got - 2010.06.03 18:57:09.
