data_PCOD9508070
_publ_section_title
;
Structure prediction by ZEFSAII (Michael W. Deem and Ramdas Pophale) SiO2 
 PCOD9508070
Probable space group: C C C A
;
_chemical_formula_sum "Si O2"
_cell_formula_units_Z 88
_cell_length_a 15.572225
_cell_length_b 10.654405
_cell_length_c 22.871349
_cell_angle_alpha 90.000000
_cell_angle_beta 90.000000
_cell_angle_gamma 90.000000
_cell_volume 3794.649367
_symmetry_space_group_name_H-M "C C C A"
_symmetry_group_IT_number 68
_space_group.IT_coordinate_system_code '2'
_symmetry_cell_setting 'orthorhombic'
loop_
_space_group_symop_operation_xyz
x,y,z
-x,1/2-y,z
x,1/2-y,1/2-z
-x,y,1/2-z
-x,-y,-z
x,1/2+y,-z
-x,1/2+y,1/2+z
x,-y,1/2+z
1/2+x,1/2+y,z
1/2-x,-y,z
1/2+x,-y,1/2-z
1/2-x,1/2+y,1/2-z
1/2-x,1/2-y,-z
1/2+x,y,-z
1/2-x,y,1/2+z
1/2+x,1/2-y,1/2+z
loop_
_atom_site_type_symbol
_atom_site_label
_atom_site_fract_x
_atom_site_fract_y
_atom_site_fract_z
Si Si1 0.983373 0.115061 0.542820
Si Si2 0.500000 0.561047 0.750000
Si Si3 0.305108 0.876166 0.994121
Si Si4 0.384473 0.091542 0.150143
Si Si5 0.308524 0.163114 0.625190
Si Si6 0.081633 0.825965 0.810012
O O1 0.881257 0.120872 0.552526
O O2 0.000000 0.250000 0.513402
O O3 0.046090 0.105265 0.598204
O O4 0.000000 0.000000 0.500000
O O5 0.433242 0.632836 0.791258
O O6 0.552977 0.465194 0.792833
O O7 0.338550 0.878517 0.060832
O O8 0.250000 0.000000 0.985595
O O9 0.250000 0.750000 0.000000
O O10 0.294012 0.154432 0.132493
O O11 0.354064 0.947684 0.162135
O O12 0.342344 0.297975 0.645258
O O13 0.101460 0.750000 0.750000
O O14 0.000000 0.750000 0.835523
#
# Coordination Sequence:
#
# PCOD9508070 Si02
#       6
#    16   8  16  16  16  16
#     4  12  25  45  71 103 142 185 243 295 365 436
#     4  10  21  40  67  98 134 178 246 288 348 406
#     4  12  25  44  67 101 138 186 236 299 362 438
#     4  11  22  41  66  98 139 188 221 293 364 427
#     4  11  20  39  65  95 133 184 226 279 367 421
#     4   9  17  32  57  95 120 160 226 290 322 394
#
# _framework density 23.190550000000002
#
# number of rings (size 3 to 8) (size 9 to 14) (size 15 to 20)
#    0.000    1.273    7.273    2.182    0.000    3.636 
#    0.000    4.091    4.000    0.000    0.000    0.000 
#    0.000    0.000    0.000    0.000    0.000    0.000 
#
# Total GULP energy -245612.117502 kJ/mol
# GULP energy per Si atom -5582.093580 kJ/mol
# Density = 2.313777 g / cm^3
# Si number density = 23.190550 Si / 1000 Ang^3
#
#
#
# Elastic Constant Matrix: (Units=GPa)
#
#
# Indices 1 2 3 4 5 6 
#
# 1 166.0399 48.0676 71.5060 0.0000 0.0000 0.0000
# 2 48.0676 109.4838 21.0251 0.0000 0.0000 0.0000
# 3 71.5060 21.0251 65.3544 0.0000 0.0000 0.0000
# 4 0.0000 0.0000 0.0000 11.3014 0.0000 0.0000
# 5 0.0000 0.0000 0.0000 0.0000 52.5844 0.0000
# 6 0.0000 0.0000 0.0000 0.0000 0.0000 28.1435
#
#
#
# Elastic Compliance Matrix: (Units=1/GPa)
#
#
# Indices 1 2 3 4 5 6 
#
# 1 0.012242 -0.002987 -0.012433 0.000000 0.000000 0.000000
# 2 -0.002987 0.010464 -0.000098 0.000000 0.000000 0.000000
# 3 -0.012433 -0.000098 0.028936 0.000000 0.000000 0.000000
# 4 0.000000 0.000000 0.000000 0.088485 0.000000 0.000000
# 5 0.000000 0.000000 0.000000 0.000000 0.019017 0.000000
# 6 0.000000 0.000000 0.000000 0.000000 0.000000 0.035532
#
#
# Mechanical properties :
#
#
# Convention : Reuss Voigt Hill
#
# Bulk Modulus (GPa) = 48.53113 69.11949 58.82531
# Shear Modulus (GPa) = 21.49788 31.75782 26.62785
#
# Velocity S-wave (km/s) = 3.04799 3.70459 3.39222
# Velocity P-wave (km/s) = 5.77577 6.94035 6.38467
#
# Compressibility (1/GPa) = 0.02060533
#
# Stress axis : x y z
#
# Youngs Moduli (GPa) = 81.68785 95.56546 34.55888
#
# Poissons Ratio (x) = 0.28545 0.42967
# Poissons Ratio (y) = 0.24400 0.00340
# Poissons Ratio (z) = 1.01563 0.00939
#
# Static dielectric constant tensor:
#      x y z
#    x 1.958080 0.000000 0.000000 
#    y 0.000000 1.984830 0.000000 
#    z 0.000000 0.000000 2.028200 
# 
# From -- ./inp_files/45323.got.cif
#   From: 2010.05.17/outbox.cif.g08.bks.cpg/sg68_23_cif.got.tgz:45323.got - 2010.06.03 18:57:09.
