data_PCOD9508491
_publ_section_title
;
Structure prediction by ZEFSAII (Michael W. Deem and Ramdas Pophale) SiO2 
 PCOD9508491
Probable space group: C C C A
;
_chemical_formula_sum "Si O2"
_cell_formula_units_Z 112
_cell_length_a 15.047684
_cell_length_b 11.138885
_cell_length_c 31.879770
_cell_angle_alpha 90.000000
_cell_angle_beta 90.000000
_cell_angle_gamma 90.000000
_cell_volume 5343.509209
_symmetry_space_group_name_H-M "C C C A"
_symmetry_group_IT_number 68
_space_group.IT_coordinate_system_code '2'
_symmetry_cell_setting 'orthorhombic'
loop_
_space_group_symop_operation_xyz
x,y,z
-x,1/2-y,z
x,1/2-y,1/2-z
-x,y,1/2-z
-x,-y,-z
x,1/2+y,-z
-x,1/2+y,1/2+z
x,-y,1/2+z
1/2+x,1/2+y,z
1/2-x,-y,z
1/2+x,-y,1/2-z
1/2-x,1/2+y,1/2-z
1/2-x,1/2-y,-z
1/2+x,y,-z
1/2-x,y,1/2+z
1/2+x,1/2-y,1/2+z
loop_
_atom_site_type_symbol
_atom_site_label
_atom_site_fract_x
_atom_site_fract_y
_atom_site_fract_z
Si Si1 0.335922 0.467913 0.513304
Si Si2 0.646321 0.492405 0.351496
Si Si3 0.126316 0.833739 0.424250
Si Si4 0.896239 0.706049 0.916834
Si Si5 0.008336 0.391315 0.299998
Si Si6 0.572768 0.582831 0.562785
Si Si7 0.655898 0.565880 0.134432
O O1 0.250000 0.500000 0.485164
O O2 0.320614 0.574541 0.546981
O O3 0.362329 0.345526 0.538148
O O4 0.412269 0.490386 0.479305
O O5 0.750000 0.500000 0.338305
O O6 0.639535 0.364893 0.375549
O O7 0.620159 0.590286 0.387244
O O8 0.571867 0.525561 0.317507
O O9 0.137847 0.697621 0.437500
O O10 0.026055 0.870392 0.434631
O O11 0.842017 0.809566 0.892142
O O12 0.000000 0.750000 0.919206
O O13 0.000000 0.250000 0.312164
O O14 0.000000 0.397917 0.250000
O O15 0.102124 0.423964 0.321853
O O16 0.593206 0.512579 0.604580
O O17 0.750000 0.500000 0.138979
#
# Coordination Sequence:
#
# PCOD9508491 Si02
#       7
#    16  16  16  16  16  16  16
#     4  11  25  39  58  88 127 170 232 281 322 383
#     4  11  21  41  71  94 125 167 218 269 328 398
#     4  10  22  39  59  86 121 170 226 262 333 389
#     4  11  21  41  67  92 126 178 230 276 325 390
#     4  11  23  46  74 103 133 167 219 273 330 412
#     4  11  24  38  58  88 128 180 212 276 328 395
#     4  12  24  39  67  99 135 174 217 277 335 391
#
# _framework density 20.960008999999999
#
# number of rings (size 3 to 8) (size 9 to 14) (size 15 to 20)
#    0.000    1.000    4.286    3.429    8.000    1.143 
#    0.000    0.000    0.000    1.714    0.000    0.000 
#    0.000    0.000    0.000    0.000    0.000    0.000 
#
# Total GULP energy -312159.665049 kJ/mol
# GULP energy per Si atom -5574.279733 kJ/mol
# Density = 2.091230 g / cm^3
# Si number density = 20.960009 Si / 1000 Ang^3
#
#
#
# Elastic Constant Matrix: (Units=GPa)
#
#
# Indices 1 2 3 4 5 6 
#
# 1 125.6721 9.1289 17.1665 0.0000 0.0000 0.0000
# 2 9.1289 50.1321 -3.1394 0.0000 0.0000 0.0000
# 3 17.1665 -3.1394 69.9942 0.0000 0.0000 0.0000
# 4 0.0000 0.0000 0.0000 21.7397 0.0000 0.0000
# 5 0.0000 0.0000 0.0000 0.0000 712.9079 0.0000
# 6 0.0000 0.0000 0.0000 0.0000 0.0000 30.4314
#
#
#
# Elastic Compliance Matrix: (Units=1/GPa)
#
#
# Indices 1 2 3 4 5 6 
#
# 1 0.008368 -0.001657 -0.002127 0.000000 0.000000 0.000000
# 2 -0.001657 0.020332 0.001318 0.000000 0.000000 0.000000
# 3 -0.002127 0.001318 0.014868 0.000000 0.000000 0.000000
# 4 0.000000 0.000000 0.000000 0.045999 0.000000 0.000000
# 5 0.000000 0.000000 0.000000 0.000000 0.001403 0.000000
# 6 0.000000 0.000000 0.000000 0.000000 0.000000 0.032861
#
#
# Mechanical properties :
#
#
# Convention : Reuss Voigt Hill
#
# Bulk Modulus (GPa) = 25.88218 32.45673 29.16946
# Shear Modulus (GPa) = 35.30096 167.85861 101.57978
#
# Velocity S-wave (km/s) = 4.10836 8.95874 6.96913
# Velocity P-wave (km/s) = 5.90593 11.06936 8.87160
#
# Compressibility (1/GPa) = 0.03863662
#
# Stress axis : x y z
#
# Youngs Moduli (GPa) = 119.50185 49.18454 67.26035
#
# Poissons Ratio (x) = 0.08150 0.14304
# Poissons Ratio (y) = 0.19801 -0.08867
# Poissons Ratio (z) = 0.25414 -0.06484
#
# Static dielectric constant tensor:
#      x y z
#    x 2.050950 0.000000 0.000000 
#    y 0.000000 1.875120 0.000000 
#    z 0.000000 0.000000 1.746450 
# 
# From -- ./inp_files/55253.got.cif
#   From: 2010.05.17/outbox.cif.g08.bks.cpg/sg68_28_cif.got.tgz:55253.got - 2010.06.03 18:57:09.
