data_PCOD9508340
_publ_section_title
;
Structure prediction by ZEFSAII (Michael W. Deem and Ramdas Pophale) SiO2 
 PCOD9508340
Probable space group: C C C A
;
_chemical_formula_sum "Si O2"
_cell_formula_units_Z 116
_cell_length_a 26.983144
_cell_length_b 17.086003
_cell_length_c 12.626233
_cell_angle_alpha 90.000000
_cell_angle_beta 90.000000
_cell_angle_gamma 90.000000
_cell_volume 5821.123707
_symmetry_space_group_name_H-M "C C C A"
_symmetry_group_IT_number 68
_space_group.IT_coordinate_system_code '2'
_symmetry_cell_setting 'orthorhombic'
loop_
_space_group_symop_operation_xyz
x,y,z
-x,1/2-y,z
x,1/2-y,1/2-z
-x,y,1/2-z
-x,-y,-z
x,1/2+y,-z
-x,1/2+y,1/2+z
x,-y,1/2+z
1/2+x,1/2+y,z
1/2-x,-y,z
1/2+x,-y,1/2-z
1/2-x,1/2+y,1/2-z
1/2-x,1/2-y,-z
1/2+x,y,-z
1/2-x,y,1/2+z
1/2+x,1/2-y,1/2+z
loop_
_atom_site_type_symbol
_atom_site_label
_atom_site_fract_x
_atom_site_fract_y
_atom_site_fract_z
Si Si1 0.113555 0.988512 0.767612
Si Si2 0.755867 0.805244 0.650960
Si Si3 0.166339 0.769150 0.014550
Si Si4 0.795750 0.952365 0.102015
Si Si5 0.055290 0.015026 0.465795
Si Si6 0.000000 0.250000 0.750000
Si Si7 0.416492 0.640907 0.861330
Si Si8 0.872263 0.389707 0.059244
O O1 0.163377 0.998848 0.835225
O O2 0.100070 0.074726 0.722654
O O3 0.068490 0.966549 0.845046
O O4 0.122410 0.925439 0.675754
O O5 0.767644 0.750000 0.750000
O O6 0.804677 0.816299 0.577808
O O7 0.712359 0.764502 0.582278
O O8 0.729462 0.887203 0.677592
O O9 0.132554 0.702944 0.956694
O O10 0.130430 0.809354 0.099555
O O11 0.750000 0.000000 0.060199
O O12 0.822558 0.917356 0.999759
O O13 0.071128 0.088357 0.536568
O O14 0.085044 0.935374 0.494535
O O15 0.000000 0.000000 0.500000
O O16 0.037858 0.305876 0.817905
#
# Coordination Sequence:
#
# PCOD9508340 Si02
#       8
#    16  16  16  16  16   4  16  16
#     4  10  22  41  65  92 126 174 212 265 326 384
#     4  10  22  38  60  87 124 175 213 259 324 382
#     4  10  23  39  61  91 132 163 212 270 321 377
#     4  10  22  35  60  87 128 165 221 265 308 374
#     4  10  22  41  65  90 127 157 210 268 327 381
#     4  12  28  40  76 100 122 168 222 260 356 378
#     4  11  25  41  68  98 128 161 218 272 319 396
#     4   9  22  39  58  90 126 169 210 268 319 386
#
# _framework density 19.927423999999998
#
# number of rings (size 3 to 8) (size 9 to 14) (size 15 to 20)
#    0.000    1.931    0.000    1.655   16.414    2.207 
#    0.000    0.000    0.000    0.000    0.000    0.000 
#    0.000    0.000    0.000    0.000    0.000    0.000 
#
# Total GULP energy -323310.028064 kJ/mol
# GULP energy per Si atom -5574.310829 kJ/mol
# Density = 1.988207 g / cm^3
# Si number density = 19.927424 Si / 1000 Ang^3
#
#
#
# Elastic Constant Matrix: (Units=GPa)
#
#
# Indices 1 2 3 4 5 6 
#
# 1 106.9053 37.3229 36.4009 0.0000 0.0000 0.0000
# 2 37.3229 58.9556 20.9786 0.0000 0.0000 0.0000
# 3 36.4009 20.9786 96.6959 0.0000 0.0000 0.0000
# 4 0.0000 0.0000 0.0000 5.4484 0.0000 0.0000
# 5 0.0000 0.0000 0.0000 0.0000 24.0809 0.0000
# 6 0.0000 0.0000 0.0000 0.0000 0.0000 13.8271
#
#
#
# Elastic Compliance Matrix: (Units=1/GPa)
#
#
# Indices 1 2 3 4 5 6 
#
# 1 0.012939 -0.006998 -0.003352 0.000000 0.000000 0.000000
# 2 -0.006998 0.022166 -0.002175 0.000000 0.000000 0.000000
# 3 -0.003352 -0.002175 0.012076 0.000000 0.000000 0.000000
# 4 0.000000 0.000000 0.000000 0.183540 0.000000 0.000000
# 5 0.000000 0.000000 0.000000 0.000000 0.041527 0.000000
# 6 0.000000 0.000000 0.000000 0.000000 0.000000 0.072322
#
#
# Mechanical properties :
#
#
# Convention : Reuss Voigt Hill
#
# Bulk Modulus (GPa) = 45.18782 50.21796 47.70289
# Shear Modulus (GPa) = 13.26275 19.86158 16.56216
#
# Velocity S-wave (km/s) = 2.58263 3.16047 2.88605
# Velocity P-wave (km/s) = 5.62305 6.21074 5.92419
#
# Compressibility (1/GPa) = 0.02212986
#
# Stress axis : x y z
#
# Youngs Moduli (GPa) = 77.28692 45.11406 82.81217
#
# Poissons Ratio (x) = 0.31572 0.27763
# Poissons Ratio (y) = 0.54087 0.18008
# Poissons Ratio (z) = 0.25910 0.09810
#
# Static dielectric constant tensor:
#      x y z
#    x 1.571660 0.000000 0.000000 
#    y 0.000000 1.769610 0.000000 
#    z 0.000000 0.000000 1.715180 
# 
# From -- ./inp_files/17247.got.cif
#   From: 2010.05.17/outbox.cif.g08.bks.cpg/sg68_9_cif.got.tgz:17247.got - 2010.06.03 18:57:09.
