data_PCOD9508535
_publ_section_title
;
Structure prediction by ZEFSAII (Michael W. Deem and Ramdas Pophale) SiO2 
 PCOD9508535
Probable space group: C C C A
;
_chemical_formula_sum "Si O2"
_cell_formula_units_Z 52
_cell_length_a 13.534237
_cell_length_b 21.419594
_cell_length_c 8.003758
_cell_angle_alpha 90.000000
_cell_angle_beta 90.000000
_cell_angle_gamma 90.000000
_cell_volume 2320.272329
_symmetry_space_group_name_H-M "C C C A"
_symmetry_group_IT_number 68
_space_group.IT_coordinate_system_code '2'
_symmetry_cell_setting 'orthorhombic'
loop_
_space_group_symop_operation_xyz
x,y,z
-x,1/2-y,z
x,1/2-y,1/2-z
-x,y,1/2-z
-x,-y,-z
x,1/2+y,-z
-x,1/2+y,1/2+z
x,-y,1/2+z
1/2+x,1/2+y,z
1/2-x,-y,z
1/2+x,-y,1/2-z
1/2-x,1/2+y,1/2-z
1/2-x,1/2-y,-z
1/2+x,y,-z
1/2-x,y,1/2+z
1/2+x,1/2-y,1/2+z
loop_
_atom_site_type_symbol
_atom_site_label
_atom_site_fract_x
_atom_site_fract_y
_atom_site_fract_z
Si Si1 0.951772 0.437122 0.570113
Si Si2 0.607503 0.360451 0.585908
Si Si3 0.500000 0.750000 0.250000
Si Si4 0.270110 0.072580 0.289785
O O1 0.838130 0.434134 0.621340
O O2 0.000000 0.428624 0.750000
O O3 0.000000 0.500000 0.500000
O O4 0.998450 0.386816 0.449644
O O5 0.576985 0.290643 0.637025
O O6 0.671411 0.382639 0.421398
O O7 0.669570 0.394991 0.730276
O O8 0.250000 0.000000 0.339552
#
# Coordination Sequence:
#
# PCOD9508535 Si02
#       4
#    16  16   4  16
#     4  10  22  39  68 111 150 178 222 303 384 447
#     4  11  27  46  72 105 149 200 247 305 364 450
#     4  12  32  52  66  96 158 216 274 290 352 440
#     4  11  23  44  79 120 145 179 242 316 400 447
#
# _framework density 22.411162999999998
#
# number of rings (size 3 to 8) (size 9 to 14) (size 15 to 20)
#    0.000    1.231    3.077    0.923   10.769    1.231 
#    0.000    5.385    0.000    0.000    0.000    0.000 
#    0.000    0.000    0.000    0.000    0.000    0.000 
#
# Total GULP energy -144857.086010 kJ/mol
# GULP energy per Si atom -5571.426385 kJ/mol
# Density = 2.236015 g / cm^3
# Si number density = 22.411163 Si / 1000 Ang^3
#
#
#
# Elastic Constant Matrix: (Units=GPa)
#
#
# Indices 1 2 3 4 5 6 
#
# 1 167.0033 52.9420 83.8933 0.0000 0.0000 0.0000
# 2 52.9420 142.7208 62.2651 0.0000 0.0000 0.0000
# 3 83.8933 62.2651 123.2133 0.0000 0.0000 0.0000
# 4 0.0000 0.0000 0.0000 37.4983 0.0000 0.0000
# 5 0.0000 0.0000 0.0000 0.0000 64.6510 0.0000
# 6 0.0000 0.0000 0.0000 0.0000 0.0000 48.0769
#
#
#
# Elastic Compliance Matrix: (Units=1/GPa)
#
#
# Indices 1 2 3 4 5 6 
#
# 1 0.009184 -0.000871 -0.005813 0.000000 0.000000 0.000000
# 2 -0.000871 0.009071 -0.003991 0.000000 0.000000 0.000000
# 3 -0.005813 -0.003991 0.014091 0.000000 0.000000 0.000000
# 4 0.000000 0.000000 0.000000 0.026668 0.000000 0.000000
# 5 0.000000 0.000000 0.000000 0.000000 0.015468 0.000000
# 6 0.000000 0.000000 0.000000 0.000000 0.000000 0.020800
#
#
# Mechanical properties :
#
#
# Convention : Reuss Voigt Hill
#
# Bulk Modulus (GPa) = 90.94271 92.34870 91.64570
# Shear Modulus (GPa) = 41.56371 45.63437 43.59904
#
# Velocity S-wave (km/s) = 4.31118 4.51736 4.41547
# Velocity P-wave (km/s) = 8.09005 8.27676 8.18394
#
# Compressibility (1/GPa) = 0.01099593
#
# Stress axis : x y z
#
# Youngs Moduli (GPa) = 108.88238 110.24314 70.96697
#
# Poissons Ratio (x) = 0.09598 0.41256
# Poissons Ratio (y) = 0.09480 0.28324
# Poissons Ratio (z) = 0.63297 0.43999
#
# Static dielectric constant tensor:
#      x y z
#    x 2.030310 0.000000 0.000000 
#    y 0.000000 1.937340 0.000000 
#    z 0.000000 0.000000 1.906810 
# 
# From -- ./inp_files/4643.got.cif
#   From: 2010.05.17/outbox.cif.g08.bks.cpg/sg68_3_cif.got.tgz:4643.got - 2010.06.03 18:57:09.
