data_PCOD9508217
_publ_section_title
;
Structure prediction by ZEFSAII (Michael W. Deem and Ramdas Pophale) SiO2 
 PCOD9508217
Probable space group: C C C A
;
_chemical_formula_sum "Si O2"
_cell_formula_units_Z 72
_cell_length_a 26.548524
_cell_length_b 8.752685
_cell_length_c 13.769283
_cell_angle_alpha 90.000000
_cell_angle_beta 90.000000
_cell_angle_gamma 90.000000
_cell_volume 3199.580240
_symmetry_space_group_name_H-M "C C C A"
_symmetry_group_IT_number 68
_space_group.IT_coordinate_system_code '2'
_symmetry_cell_setting 'orthorhombic'
loop_
_space_group_symop_operation_xyz
x,y,z
-x,1/2-y,z
x,1/2-y,1/2-z
-x,y,1/2-z
-x,-y,-z
x,1/2+y,-z
-x,1/2+y,1/2+z
x,-y,1/2+z
1/2+x,1/2+y,z
1/2-x,-y,z
1/2+x,-y,1/2-z
1/2-x,1/2+y,1/2-z
1/2-x,1/2-y,-z
1/2+x,y,-z
1/2-x,y,1/2+z
1/2+x,1/2-y,1/2+z
loop_
_atom_site_type_symbol
_atom_site_label
_atom_site_fract_x
_atom_site_fract_y
_atom_site_fract_z
Si Si1 0.675532 0.543213 0.581444
Si Si2 0.799077 0.197581 0.116042
Si Si3 0.609852 0.250000 0.750000
Si Si4 0.788647 0.250000 0.750000
Si Si5 0.062705 0.034454 0.097388
Si Si6 0.500000 0.750000 0.547208
O O1 0.699368 0.622183 0.488251
O O2 0.700540 0.380833 0.602876
O O3 0.679640 0.644557 0.678255
O O4 0.617235 0.513887 0.557559
O O5 0.851101 0.169338 0.174946
O O6 0.749933 0.162331 0.178734
O O7 0.575734 0.126951 0.804892
O O8 0.029684 0.880989 0.106072
O O9 0.036788 0.152788 0.023208
#
# Coordination Sequence:
#
# PCOD9508217 Si02
#       6
#    16  16   8   8  16   8
#     4  11  23  42  68  94 132 176 222 273 333 391
#     4  10  23  41  66  96 130 177 221 271 328 385
#     4   9  20  39  64  97 136 171 218 267 332 401
#     4  11  24  40  60  98 136 170 220 268 318 397
#     4  10  21  42  69  99 131 175 217 280 339 399
#     4  10  22  43  72  99 132 168 224 277 348 411
#
# _framework density 22.502952000000001
#
# number of rings (size 3 to 8) (size 9 to 14) (size 15 to 20)
#    0.000    1.778    0.000    4.000    0.000    7.556 
#    0.000   11.111    0.000    5.333    0.000    0.000 
#    0.000    0.000    0.000    0.000    0.000    0.000 
#
# Total GULP energy -201499.730655 kJ/mol
# GULP energy per Si atom -5597.214740 kJ/mol
# Density = 2.245173 g / cm^3
# Si number density = 22.502952 Si / 1000 Ang^3
#
#
#
# Elastic Constant Matrix: (Units=GPa)
#
#
# Indices 1 2 3 4 5 6 
#
# 1 112.2106 40.6995 32.9434 0.0000 0.0000 0.0000
# 2 40.6995 97.5390 33.5327 0.0000 0.0000 0.0000
# 3 32.9434 33.5327 109.8458 0.0000 0.0000 0.0000
# 4 0.0000 0.0000 0.0000 39.5524 0.0000 0.0000
# 5 0.0000 0.0000 0.0000 0.0000 29.9779 0.0000
# 6 0.0000 0.0000 0.0000 0.0000 0.0000 12.6881
#
#
#
# Elastic Compliance Matrix: (Units=1/GPa)
#
#
# Indices 1 2 3 4 5 6 
#
# 1 0.010920 -0.003833 -0.002105 0.000000 0.000000 0.000000
# 2 -0.003833 0.012800 -0.002758 0.000000 0.000000 0.000000
# 3 -0.002105 -0.002758 0.010577 0.000000 0.000000 0.000000
# 4 0.000000 0.000000 0.000000 0.025283 0.000000 0.000000
# 5 0.000000 0.000000 0.000000 0.000000 0.033358 0.000000
# 6 0.000000 0.000000 0.000000 0.000000 0.000000 0.078814
#
#
# Mechanical properties :
#
#
# Convention : Reuss Voigt Hill
#
# Bulk Modulus (GPa) = 59.15319 59.32739 59.24029
# Shear Modulus (GPa) = 25.67025 30.60501 28.13763
#
# Velocity S-wave (km/s) = 3.38116 3.69188 3.53993
# Velocity P-wave (km/s) = 6.44879 6.67793 6.56436
#
# Compressibility (1/GPa) = 0.01690526
#
# Stress axis : x y z
#
# Youngs Moduli (GPa) = 91.57520 78.12645 94.54616
#
# Poissons Ratio (x) = 0.29945 0.19901
# Poissons Ratio (y) = 0.35100 0.26075
# Poissons Ratio (z) = 0.19276 0.21546
#
# Static dielectric constant tensor:
#      x y z
#    x 1.855840 0.000000 0.000000 
#    y 0.000000 1.769390 0.000000 
#    z 0.000000 0.000000 1.824060 
# 
# From -- ./inp_files/19497.got.cif
#   From: 2010.05.17/outbox.cif.g08.bks.cpg/sg68_10_cif.got.tgz:19497.got - 2010.06.03 18:57:09.
