data_PCOD9508746
_publ_section_title
;
Structure prediction by ZEFSAII (Michael W. Deem and Ramdas Pophale) SiO2 
 PCOD9508746
Probable space group: C C C A
;
_chemical_formula_sum "Si O2"
_cell_formula_units_Z 48
_cell_length_a 5.585161
_cell_length_b 18.307657
_cell_length_c 16.530076
_cell_angle_alpha 90.000000
_cell_angle_beta 90.000000
_cell_angle_gamma 90.000000
_cell_volume 1690.220303
_symmetry_space_group_name_H-M "C C C A"
_symmetry_group_IT_number 68
_space_group.IT_coordinate_system_code '2'
_symmetry_cell_setting 'orthorhombic'
loop_
_space_group_symop_operation_xyz
x,y,z
-x,1/2-y,z
x,1/2-y,1/2-z
-x,y,1/2-z
-x,-y,-z
x,1/2+y,-z
-x,1/2+y,1/2+z
x,-y,1/2+z
1/2+x,1/2+y,z
1/2-x,-y,z
1/2+x,-y,1/2-z
1/2-x,1/2+y,1/2-z
1/2-x,1/2-y,-z
1/2+x,y,-z
1/2-x,y,1/2+z
1/2+x,1/2-y,1/2+z
loop_
_atom_site_type_symbol
_atom_site_label
_atom_site_fract_x
_atom_site_fract_y
_atom_site_fract_z
Si Si1 0.546331 0.358917 0.958451
Si Si2 0.598175 0.170684 0.158822
Si Si3 0.995232 0.488176 0.875219
O O1 0.620930 0.331343 0.867303
O O2 0.527541 0.447306 0.942881
O O3 0.287785 0.334546 0.992094
O O4 0.500000 0.250000 0.137174
O O5 0.500000 0.158573 0.250000
O O6 0.506535 0.098698 0.110273
O O7 0.750000 0.500000 0.828139
O O8 0.250000 0.500000 0.837893
#
# Coordination Sequence:
#
# PCOD9508746 Si02
#       3
#    16  16  16
#     4  11  24  45  73 106 142 182 234 295 354 418
#     4  10  24  46  70 102 145 189 236 292 354 422
#     4  10  22  41  70 101 136 179 232 286 346 412
#
# _framework density 28.398662999999999
#
# number of rings (size 3 to 8) (size 9 to 14) (size 15 to 20)
#    0.000    1.667    0.000    4.000    0.000   22.667 
#    0.000   21.667    0.000   36.000    0.000    0.000 
#    0.000    0.000    0.000    0.000    0.000    0.000 
#
# Total GULP energy -133623.074850 kJ/mol
# GULP energy per Si atom -5567.628119 kJ/mol
# Density = 2.833403 g / cm^3
# Si number density = 28.398663 Si / 1000 Ang^3
#
#
#
# Elastic Constant Matrix: (Units=GPa)
#
#
# Indices 1 2 3 4 5 6 
#
# 1 269.0612 45.7179 91.9612 0.0000 0.0000 0.0000
# 2 45.7179 231.0987 42.2320 0.0000 0.0000 0.0000
# 3 91.9612 42.2320 132.5412 0.0000 0.0000 0.0000
# 4 0.0000 0.0000 0.0000 314.7937 0.0000 0.0000
# 5 0.0000 0.0000 0.0000 0.0000 -31.0527 0.0000
# 6 0.0000 0.0000 0.0000 0.0000 0.0000 46.3135
#
#
#
# Elastic Compliance Matrix: (Units=1/GPa)
#
#
# Indices 1 2 3 4 5 6 
#
# 1 0.004902 -0.000370 -0.003283 0.000000 0.000000 0.000000
# 2 -0.000370 0.004623 -0.001216 0.000000 0.000000 0.000000
# 3 -0.003283 -0.001216 0.010210 0.000000 0.000000 0.000000
# 4 0.000000 0.000000 0.000000 0.003177 0.000000 0.000000
# 5 0.000000 0.000000 0.000000 0.000000 -0.032203 0.000000
# 6 0.000000 0.000000 0.000000 0.000000 0.000000 0.021592
#
#
# Mechanical properties :
#
#
# Convention : Reuss Voigt Hill
#
# Bulk Modulus (GPa) = 100.03879 110.28038 105.15958
# Shear Modulus (GPa) = 197.08231 96.19690 146.63960
#
# Velocity S-wave (km/s) = 8.33961 5.82643 7.19362
# Velocity P-wave (km/s) = 11.31526 9.17498 10.30086
#
# Compressibility (1/GPa) = 0.00999612
#
# Stress axis : x y z
#
# Youngs Moduli (GPa) = 204.01744 216.32931 97.94052
#
# Poissons Ratio (x) = 0.07998 0.32154
# Poissons Ratio (y) = 0.07543 0.11913
# Poissons Ratio (z) = 0.66980 0.26314
#
# Static dielectric constant tensor:
#      x y z
#    x 2.170420 0.000000 0.000000 
#    y 0.000000 2.534890 0.000000 
#    z 0.000000 0.000000 2.419150 
# 
# From -- ./inp_files/34754.got.cif
#   From: 2010.05.17/outbox.cif.g08.bks.cpg/sg68_18_cif.got.tgz:34754.got - 2010.06.03 18:57:09.
