data_PCOD9508761
_publ_section_title
;
Structure prediction by ZEFSAII (Michael W. Deem and Ramdas Pophale) SiO2 
 PCOD9508761
Probable space group: C C C A
;
_chemical_formula_sum "Si O2"
_cell_formula_units_Z 92
_cell_length_a 15.110309
_cell_length_b 22.535312
_cell_length_c 13.082635
_cell_angle_alpha 90.000000
_cell_angle_beta 90.000000
_cell_angle_gamma 90.000000
_cell_volume 4454.840361
_symmetry_space_group_name_H-M "C C C A"
_symmetry_group_IT_number 68
_space_group.IT_coordinate_system_code '2'
_symmetry_cell_setting 'orthorhombic'
loop_
_space_group_symop_operation_xyz
x,y,z
-x,1/2-y,z
x,1/2-y,1/2-z
-x,y,1/2-z
-x,-y,-z
x,1/2+y,-z
-x,1/2+y,1/2+z
x,-y,1/2+z
1/2+x,1/2+y,z
1/2-x,-y,z
1/2+x,-y,1/2-z
1/2-x,1/2+y,1/2-z
1/2-x,1/2-y,-z
1/2+x,y,-z
1/2-x,y,1/2+z
1/2+x,1/2-y,1/2+z
loop_
_atom_site_type_symbol
_atom_site_label
_atom_site_fract_x
_atom_site_fract_y
_atom_site_fract_z
Si Si1 0.032724 0.844413 0.398085
Si Si2 0.604561 0.680690 0.271384
Si Si3 0.853531 0.504196 0.099534
Si Si4 0.840532 0.628363 0.566812
Si Si5 0.356722 0.129407 0.995700
Si Si6 0.500000 0.949100 0.750000
Si Si7 0.500000 0.750000 0.750000
O O1 0.087924 0.837038 0.500498
O O2 0.056525 0.792576 0.321000
O O3 0.929661 0.842213 0.429348
O O4 0.043680 0.905416 0.334792
O O5 0.626567 0.750000 0.250000
O O6 0.500000 0.674365 0.250000
O O7 0.654210 0.642802 0.185542
O O8 0.625102 0.654187 0.382796
O O9 0.750000 0.500000 0.133814
O O10 0.867765 0.440105 0.050863
O O11 0.923354 0.515147 0.190857
O O12 0.865208 0.558283 0.018839
O O13 0.743557 0.642237 0.526203
#
# Coordination Sequence:
#
# PCOD9508761 Si02
#       7
#    16  16  16  16  16   8   4
#     4  10  22  42  61  92 127 172 219 264 324 383
#     4  11  25  44  67  96 132 179 222 277 335 388
#     4   9  21  40  64  98 135 172 212 273 330 386
#     4  11  24  41  68  98 128 174 217 268 335 392
#     4  10  23  44  66  95 136 168 220 273 324 403
#     4   9  20  37  64  94 129 170 217 254 320 400
#     4  10  24  40  68  82 128 174 206 284 322 366
#
# _framework density 20.651693999999999
#
# number of rings (size 3 to 8) (size 9 to 14) (size 15 to 20)
#    0.000    1.913    1.739    0.000    3.652   10.435 
#    3.130    5.217    0.000    0.000    0.000    0.000 
#    0.000    0.000    0.000    0.000    0.000    0.000 
#
# Total GULP energy -256713.226713 kJ/mol
# GULP energy per Si atom -5580.722320 kJ/mol
# Density = 2.060469 g / cm^3
# Si number density = 20.651694 Si / 1000 Ang^3
#
#
#
# Elastic Constant Matrix: (Units=GPa)
#
#
# Indices 1 2 3 4 5 6 
#
# 1 77.6387 54.9051 53.1793 0.0000 0.0000 0.0000
# 2 54.9051 74.3423 43.4935 0.0000 0.0000 0.0000
# 3 53.1793 43.4935 132.3946 0.0000 0.0000 0.0000
# 4 0.0000 0.0000 0.0000 22.1611 0.0000 0.0000
# 5 0.0000 0.0000 0.0000 0.0000 36.9486 0.0000
# 6 0.0000 0.0000 0.0000 0.0000 0.0000 -0.3919
#
#
#
# Elastic Compliance Matrix: (Units=1/GPa)
#
#
# Indices 1 2 3 4 5 6 
#
# 1 0.030356 -0.018922 -0.005977 0.000000 0.000000 0.000000
# 2 -0.018922 0.028447 -0.001745 0.000000 0.000000 0.000000
# 3 -0.005977 -0.001745 0.010527 0.000000 0.000000 0.000000
# 4 0.000000 0.000000 0.000000 0.045124 0.000000 0.000000
# 5 0.000000 0.000000 0.000000 0.000000 0.027065 0.000000
# 6 0.000000 0.000000 0.000000 0.000000 0.000000 -2.551795
#
#
# Mechanical properties :
#
#
# Convention : Reuss Voigt Hill
#
# Bulk Modulus (GPa) = 62.33584 65.28126 63.80855
# Shear Modulus (GPa) = -2.12617 20.59675 9.23529
#
# Velocity S-wave (km/s) = -1.01576 3.16149 2.11699
# Velocity P-wave (km/s) = 5.37347 6.70865 6.07784
#
# Compressibility (1/GPa) = 0.01604214
#
# Stress axis : x y z
#
# Youngs Moduli (GPa) = 32.94281 35.15319 94.99349
#
# Poissons Ratio (x) = 0.66518 0.56776
# Poissons Ratio (y) = 0.62335 0.16573
# Poissons Ratio (z) = 0.19689 0.06133
#
# Static dielectric constant tensor:
#      x y z
#    x 1.719250 0.000000 0.000000 
#    y 0.000000 1.786920 0.000000 
#    z 0.000000 0.000000 1.698800 
# 
# From -- ./inp_files/14483.got.cif
#   From: 2010.05.17/outbox.cif.g08.bks.cpg/sg68_8_cif.got.tgz:14483.got - 2010.06.03 18:57:09.
