data_PCOD9508541
_publ_section_title
;
Structure prediction by ZEFSAII (Michael W. Deem and Ramdas Pophale) SiO2 
 PCOD9508541
Probable space group: C C C A
;
_chemical_formula_sum "Si O2"
_cell_formula_units_Z 116
_cell_length_a 17.463192
_cell_length_b 11.034956
_cell_length_c 27.327481
_cell_angle_alpha 90.000000
_cell_angle_beta 90.000000
_cell_angle_gamma 90.000000
_cell_volume 5266.157402
_symmetry_space_group_name_H-M "C C C A"
_symmetry_group_IT_number 68
_space_group.IT_coordinate_system_code '2'
_symmetry_cell_setting 'orthorhombic'
loop_
_space_group_symop_operation_xyz
x,y,z
-x,1/2-y,z
x,1/2-y,1/2-z
-x,y,1/2-z
-x,-y,-z
x,1/2+y,-z
-x,1/2+y,1/2+z
x,-y,1/2+z
1/2+x,1/2+y,z
1/2-x,-y,z
1/2+x,-y,1/2-z
1/2-x,1/2+y,1/2-z
1/2-x,1/2-y,-z
1/2+x,y,-z
1/2-x,y,1/2+z
1/2+x,1/2-y,1/2+z
loop_
_atom_site_type_symbol
_atom_site_label
_atom_site_fract_x
_atom_site_fract_y
_atom_site_fract_z
Si Si1 0.908435 0.872249 0.665144
Si Si2 0.897428 0.931183 0.419272
Si Si3 0.070101 0.561697 0.085016
Si Si4 0.322030 0.908460 0.483106
Si Si5 0.827596 0.754829 0.359917
Si Si6 0.664487 0.801927 0.406004
Si Si7 0.742745 0.130383 0.720576
Si Si8 0.500000 0.750000 0.250000
O O1 0.899024 0.759612 0.628601
O O2 0.821191 0.903312 0.680180
O O3 0.951349 0.834520 0.713894
O O4 0.943060 0.978724 0.633102
O O5 0.844709 0.875315 0.461947
O O6 0.879103 0.873965 0.366247
O O7 0.985311 0.902851 0.431133
O O8 0.870169 0.069939 0.420631
O O9 0.109871 0.483459 0.042884
O O10 0.130233 0.662431 0.103044
O O11 0.316350 0.786976 0.451094
O O12 0.250000 0.000000 0.481757
O O13 0.743440 0.802115 0.375469
O O14 0.815588 0.684126 0.309005
O O15 0.715827 0.250000 0.750000
O O16 0.750000 0.000000 0.747834
#
# Coordination Sequence:
#
# PCOD9508541 Si02
#       8
#    16  16  16  16  16  16  16   4
#     4  10  22  39  70  93 128 174 218 267 337 410
#     4  12  26  40  62 102 139 173 229 291 339 405
#     4  11  23  45  65  93 136 184 222 275 354 415
#     4  11  23  41  70  94 127 187 238 286 340 408
#     4  11  23  43  70  93 135 184 221 267 354 413
#     4  10  23  42  66  96 131 176 231 284 334 402
#     4  11  23  44  73 105 129 170 228 281 331 410
#     4  12  20  40  64 108 130 168 214 292 342 408
#
# _framework density 22.027446000000001
#
# number of rings (size 3 to 8) (size 9 to 14) (size 15 to 20)
#    0.000    1.103    3.448    2.897    1.931    4.966 
#    4.966    0.000    0.000    0.828    0.000    0.000 
#    0.000    0.000    0.000    0.000    0.000    0.000 
#
# Total GULP energy -323707.052690 kJ/mol
# GULP energy per Si atom -5581.156081 kJ/mol
# Density = 2.197731 g / cm^3
# Si number density = 22.027446 Si / 1000 Ang^3
#
#
#
# Elastic Constant Matrix: (Units=GPa)
#
#
# Indices 1 2 3 4 5 6 
#
# 1 82.6500 15.6138 12.9241 0.0000 0.0000 0.0000
# 2 15.6138 89.0402 30.1045 0.0000 0.0000 0.0000
# 3 12.9241 30.1045 74.4210 0.0000 0.0000 0.0000
# 4 0.0000 0.0000 0.0000 15.5866 0.0000 0.0000
# 5 0.0000 0.0000 0.0000 0.0000 13.5254 0.0000
# 6 0.0000 0.0000 0.0000 0.0000 0.0000 21.5038
#
#
#
# Elastic Compliance Matrix: (Units=1/GPa)
#
#
# Indices 1 2 3 4 5 6 
#
# 1 0.012658 -0.001710 -0.001506 0.000000 0.000000 0.000000
# 2 -0.001710 0.013241 -0.005059 0.000000 0.000000 0.000000
# 3 -0.001506 -0.005059 0.015745 0.000000 0.000000 0.000000
# 4 0.000000 0.000000 0.000000 0.064158 0.000000 0.000000
# 5 0.000000 0.000000 0.000000 0.000000 0.073935 0.000000
# 6 0.000000 0.000000 0.000000 0.000000 0.000000 0.046503
#
#
# Mechanical properties :
#
#
# Convention : Reuss Voigt Hill
#
# Bulk Modulus (GPa) = 39.85261 40.37734 40.11497
# Shear Modulus (GPa) = 19.90791 22.62109 21.26450
#
# Velocity S-wave (km/s) = 3.00955 3.20808 3.11040
# Velocity P-wave (km/s) = 5.49619 5.66504 5.58125
#
# Compressibility (1/GPa) = 0.02509246
#
# Stress axis : x y z
#
# Youngs Moduli (GPa) = 79.00227 75.52091 63.51127
#
# Poissons Ratio (x) = 0.12917 0.09567
# Poissons Ratio (y) = 0.13512 0.32132
# Poissons Ratio (z) = 0.11900 0.38208
#
# Static dielectric constant tensor:
#      x y z
#    x 1.828100 0.000000 0.000000 
#    y 0.000000 1.873330 0.000000 
#    z 0.000000 0.000000 1.816720 
# 
# From -- ./inp_files/55668.got.cif
#   From: 2010.05.17/outbox.cif.g08.bks.cpg/sg68_28_cif.got.tgz:55668.got - 2010.06.03 18:57:09.
