data_PCOD9508188
_publ_section_title
;
Structure prediction by ZEFSAII (Michael W. Deem and Ramdas Pophale) SiO2 
 PCOD9508188
Probable space group: C C C A
;
_chemical_formula_sum "Si O2"
_cell_formula_units_Z 76
_cell_length_a 28.264290
_cell_length_b 8.339468
_cell_length_c 16.323600
_cell_angle_alpha 90.000000
_cell_angle_beta 90.000000
_cell_angle_gamma 90.000000
_cell_volume 3847.621750
_symmetry_space_group_name_H-M "C C C A"
_symmetry_group_IT_number 68
_space_group.IT_coordinate_system_code '2'
_symmetry_cell_setting 'orthorhombic'
loop_
_space_group_symop_operation_xyz
x,y,z
-x,1/2-y,z
x,1/2-y,1/2-z
-x,y,1/2-z
-x,-y,-z
x,1/2+y,-z
-x,1/2+y,1/2+z
x,-y,1/2+z
1/2+x,1/2+y,z
1/2-x,-y,z
1/2+x,-y,1/2-z
1/2-x,1/2+y,1/2-z
1/2-x,1/2-y,-z
1/2+x,y,-z
1/2-x,y,1/2+z
1/2+x,1/2-y,1/2+z
loop_
_atom_site_type_symbol
_atom_site_label
_atom_site_fract_x
_atom_site_fract_y
_atom_site_fract_z
Si Si1 0.714936 0.250000 0.250000
Si Si2 0.000000 0.750000 0.026505
Si Si3 0.750000 0.500000 0.869283
Si Si4 0.697767 0.827050 0.506686
Si Si5 0.843398 0.559964 0.116315
Si Si6 0.450626 0.449481 0.891062
Si Si7 0.000000 0.250000 0.250000
O O1 0.747857 0.347090 0.311669
O O2 0.681986 0.370953 0.197407
O O3 0.980513 0.605469 0.081560
O O4 0.040232 0.676497 0.965792
O O5 0.705183 0.528333 0.927781
O O6 0.750000 0.750000 0.500000
O O7 0.662697 0.702695 0.549402
O O8 0.683478 0.907349 0.422144
O O9 0.897350 0.507256 0.123141
O O10 0.469581 0.362884 0.809889
#
# Coordination Sequence:
#
# PCOD9508188 Si02
#       7
#     8   8   8  16  16  16   4
#     4  10  26  36  55  89 122 158 202 252 310 366
#     4   9  20  40  70  91 120 164 206 259 322 380
#     4  10  22  38  56  80 116 160 206 240 304 360
#     4  11  21  39  62  84 114 164 210 252 301 353
#     4  11  23  39  61  92 120 156 213 258 297 369
#     4  10  21  42  64  96 124 163 208 260 318 386
#     4  10  24  42  62  94 136 168 200 248 348 394
#
# _framework density 19.752461
#
# number of rings (size 3 to 8) (size 9 to 14) (size 15 to 20)
#    0.000    1.684    2.105    1.263    5.895    2.105 
#    3.789    4.211    0.000    0.000    0.000    0.000 
#    0.000    0.000    0.000    0.000    0.000    0.000 
#
# Total GULP energy -212016.258309 kJ/mol
# GULP energy per Si atom -5579.375219 kJ/mol
# Density = 1.970750 g / cm^3
# Si number density = 19.752461 Si / 1000 Ang^3
#
#
#
# Elastic Constant Matrix: (Units=GPa)
#
#
# Indices 1 2 3 4 5 6 
#
# 1 119.8267 73.7830 64.2996 0.0000 0.0000 0.0000
# 2 73.7830 112.0472 71.5965 0.0000 0.0000 0.0000
# 3 64.2996 71.5965 130.2632 0.0000 0.0000 0.0000
# 4 0.0000 0.0000 0.0000 52.9573 0.0000 0.0000
# 5 0.0000 0.0000 0.0000 0.0000 13.1957 0.0000
# 6 0.0000 0.0000 0.0000 0.0000 0.0000 38.7227
#
#
#
# Elastic Compliance Matrix: (Units=1/GPa)
#
#
# Indices 1 2 3 4 5 6 
#
# 1 0.014758 -0.007804 -0.002995 0.000000 0.000000 0.000000
# 2 -0.007804 0.017883 -0.005977 0.000000 0.000000 0.000000
# 3 -0.002995 -0.005977 0.012440 0.000000 0.000000 0.000000
# 4 0.000000 0.000000 0.000000 0.018883 0.000000 0.000000
# 5 0.000000 0.000000 0.000000 0.000000 0.075782 0.000000
# 6 0.000000 0.000000 0.000000 0.000000 0.000000 0.025825
#
#
# Mechanical properties :
#
#
# Convention : Reuss Voigt Hill
#
# Bulk Modulus (GPa) = 86.73983 86.83282 86.78633
# Shear Modulus (GPa) = 24.63457 31.13901 27.88679
#
# Velocity S-wave (km/s) = 3.53535 3.97478 3.76149
# Velocity P-wave (km/s) = 7.78933 8.06976 7.93079
#
# Compressibility (1/GPa) = 0.01152873
#
# Stress axis : x y z
#
# Youngs Moduli (GPa) = 67.75915 55.91926 80.38391
#
# Poissons Ratio (x) = 0.43641 0.24078
# Poissons Ratio (y) = 0.52881 0.48043
# Poissons Ratio (z) = 0.20296 0.33421
#
# Static dielectric constant tensor:
#      x y z
#    x 1.657110 0.000000 0.000000 
#    y 0.000000 1.781560 0.000000 
#    z 0.000000 0.000000 1.732950 
# 
# From -- ./inp_files/34341.got.cif
#   From: 2010.05.17/outbox.cif.g08.bks.cpg/sg68_18_cif.got.tgz:34341.got - 2010.06.03 18:57:09.
