data_PCOD9508509
_publ_section_title
;
Structure prediction by ZEFSAII (Michael W. Deem and Ramdas Pophale) SiO2 
 PCOD9508509
Probable space group: C C C A
;
_chemical_formula_sum "Si O2"
_cell_formula_units_Z 56
_cell_length_a 16.447802
_cell_length_b 14.049735
_cell_length_c 10.978876
_cell_angle_alpha 90.000000
_cell_angle_beta 90.000000
_cell_angle_gamma 90.000000
_cell_volume 2537.078366
_symmetry_space_group_name_H-M "C C C A"
_symmetry_group_IT_number 68
_space_group.IT_coordinate_system_code '2'
_symmetry_cell_setting 'orthorhombic'
loop_
_space_group_symop_operation_xyz
x,y,z
-x,1/2-y,z
x,1/2-y,1/2-z
-x,y,1/2-z
-x,-y,-z
x,1/2+y,-z
-x,1/2+y,1/2+z
x,-y,1/2+z
1/2+x,1/2+y,z
1/2-x,-y,z
1/2+x,-y,1/2-z
1/2-x,1/2+y,1/2-z
1/2-x,1/2-y,-z
1/2+x,y,-z
1/2-x,y,1/2+z
1/2+x,1/2-y,1/2+z
loop_
_atom_site_type_symbol
_atom_site_label
_atom_site_fract_x
_atom_site_fract_y
_atom_site_fract_z
Si Si1 0.000000 0.250000 0.550142
Si Si2 0.149912 0.267603 0.385381
Si Si3 0.288452 0.591331 0.963285
Si Si4 0.039957 0.955644 0.124378
O O1 0.926619 0.209077 0.468828
O O2 0.973194 0.341797 0.623268
O O3 0.122118 0.250000 0.250000
O O4 0.221561 0.345759 0.391219
O O5 0.179875 0.167326 0.439861
O O6 0.250000 0.500000 0.027187
O O7 0.361894 0.544419 0.885535
O O8 0.000000 0.994470 0.250000
O O9 0.000000 0.000000 0.000000
#
# Coordination Sequence:
#
# PCOD9508509 Si02
#       4
#     8  16  16  16
#     4  10  22  42  64  90 127 164 207 256 317 382
#     4  10  22  39  63  93 125 165 211 260 313 375
#     4  10  23  40  60  90 126 164 208 260 318 379
#     4  11  25  43  66  93 125 168 213 261 318 378
#
# _framework density 22.072634000000001
#
# number of rings (size 3 to 8) (size 9 to 14) (size 15 to 20)
#    0.000    1.714    0.000    2.571    0.000   19.429 
#    0.000    0.000    0.000    0.000    0.000    0.000 
#    0.000    0.000    0.000    0.000    0.000    0.000 
#
# Total GULP energy -156162.986146 kJ/mol
# GULP energy per Si atom -5577.249505 kJ/mol
# Density = 2.202240 g / cm^3
# Si number density = 22.072634 Si / 1000 Ang^3
#
#
#
# Elastic Constant Matrix: (Units=GPa)
#
#
# Indices 1 2 3 4 5 6 
#
# 1 113.9336 16.7360 23.6301 0.0000 0.0000 0.0000
# 2 16.7360 86.2571 3.4793 0.0000 0.0000 0.0000
# 3 23.6301 3.4793 93.7816 0.0000 0.0000 0.0000
# 4 0.0000 0.0000 0.0000 -12.6236 0.0000 0.0000
# 5 0.0000 0.0000 0.0000 0.0000 95.3352 0.0000
# 6 0.0000 0.0000 0.0000 0.0000 0.0000 249.6636
#
#
#
# Elastic Compliance Matrix: (Units=1/GPa)
#
#
# Indices 1 2 3 4 5 6 
#
# 1 0.009518 -0.001753 -0.002333 0.000000 0.000000 0.000000
# 2 -0.001753 0.011933 -0.000001 0.000000 0.000000 0.000000
# 3 -0.002333 -0.000001 0.011251 0.000000 0.000000 0.000000
# 4 0.000000 0.000000 0.000000 -0.079217 0.000000 0.000000
# 5 0.000000 0.000000 0.000000 0.000000 0.010489 0.000000
# 6 0.000000 0.000000 0.000000 0.000000 0.000000 0.004005
#
#
# Mechanical properties :
#
#
# Convention : Reuss Voigt Hill
#
# Bulk Modulus (GPa) = 40.76875 42.40701 41.58788
# Shear Modulus (GPa) = -319.11176 83.15014 -117.98081
#
# Velocity S-wave (km/s) = -12.03692 6.14434 -7.31896
# Velocity P-wave (km/s) = 13.21638 8.34215 7.24849
#
# Compressibility (1/GPa) = 0.02452859
#
# Stress axis : x y z
#
# Youngs Moduli (GPa) = 105.05923 83.79866 88.88062
#
# Poissons Ratio (x) = 0.14687 0.20739
# Poissons Ratio (y) = 0.18414 0.00010
# Poissons Ratio (z) = 0.24514 0.00009
#
# Static dielectric constant tensor:
#      x y z
#    x 3.052990 0.000000 0.000000 
#    y 0.000000 1.842510 0.000000 
#    z 0.000000 0.000000 1.782280 
# 
# From -- ./inp_files/12493.got.cif
#   From: 2010.05.17/outbox.cif.g08.bks.cpg/sg68_7_cif.got.tgz:12493.got - 2010.06.03 18:57:09.
