data_PCOD9508957
_publ_section_title
;
Structure prediction by ZEFSAII (Michael W. Deem and Ramdas Pophale) SiO2 
 PCOD9508957
Probable space group: C C C A
;
_chemical_formula_sum "Si O2"
_cell_formula_units_Z 96
_cell_length_a 10.206026
_cell_length_b 20.564526
_cell_length_c 23.416143
_cell_angle_alpha 90.000000
_cell_angle_beta 90.000000
_cell_angle_gamma 90.000000
_cell_volume 4914.628963
_symmetry_space_group_name_H-M "C C C A"
_symmetry_group_IT_number 68
_space_group.IT_coordinate_system_code '2'
_symmetry_cell_setting 'orthorhombic'
loop_
_space_group_symop_operation_xyz
x,y,z
-x,1/2-y,z
x,1/2-y,1/2-z
-x,y,1/2-z
-x,-y,-z
x,1/2+y,-z
-x,1/2+y,1/2+z
x,-y,1/2+z
1/2+x,1/2+y,z
1/2-x,-y,z
1/2+x,-y,1/2-z
1/2-x,1/2+y,1/2-z
1/2-x,1/2-y,-z
1/2+x,y,-z
1/2-x,y,1/2+z
1/2+x,1/2-y,1/2+z
loop_
_atom_site_type_symbol
_atom_site_label
_atom_site_fract_x
_atom_site_fract_y
_atom_site_fract_z
Si Si1 0.647785 0.753273 0.374184
Si Si2 0.541737 0.094863 0.121993
Si Si3 0.276953 0.853241 0.454507
Si Si4 0.242166 0.613691 0.914757
Si Si5 0.388057 0.291606 0.191406
Si Si6 0.987823 0.532727 0.936297
O O1 0.500000 0.750000 0.355548
O O2 0.666953 0.715879 0.434303
O O3 0.690399 0.827395 0.376817
O O4 0.744919 0.714449 0.333747
O O5 0.640076 0.131306 0.077839
O O6 0.388572 0.098623 0.105792
O O7 0.567185 0.133674 0.181480
O O8 0.568056 0.019090 0.109356
O O9 0.253063 0.859725 0.521087
O O10 0.387106 0.907310 0.439637
O O11 0.131866 0.557776 0.917906
O O12 0.500000 0.250000 0.157644
O O13 0.379437 0.250000 0.250000
O O14 0.000000 0.500000 0.000000
#
# Coordination Sequence:
#
# PCOD9508957 Si02
#       6
#    16  16  16  16  16  16
#     4  11  23  39  58  93 120 163 213 269 316 376
#     4  11  23  35  60  92 120 164 226 250 301 391
#     4  11  22  36  55  85 136 178 210 246 297 374
#     4  12  21  37  55  88 133 177 210 248 303 376
#     4  10  22  44  68  89 109 150 212 281 336 364
#     4  12  22  36  56  87 136 184 207 236 299 384
#
# _framework density 19.533518999999998
#
# number of rings (size 3 to 8) (size 9 to 14) (size 15 to 20)
#    0.000    0.833    6.667    1.500    0.000    0.333 
#    0.000    0.000    0.000    0.000   34.667    0.000 
#    0.000    0.000    0.000    0.000    0.000    0.000 
#
# Total GULP energy -267473.281262 kJ/mol
# GULP energy per Si atom -5572.360026 kJ/mol
# Density = 1.948906 g / cm^3
# Si number density = 19.533519 Si / 1000 Ang^3
#
#
#
# Elastic Constant Matrix: (Units=GPa)
#
#
# Indices 1 2 3 4 5 6 
#
# 1 137.5186 21.4557 5.3975 0.0000 0.0000 0.0000
# 2 21.4557 88.8032 13.2824 0.0000 0.0000 0.0000
# 3 5.3975 13.2824 48.9499 0.0000 0.0000 0.0000
# 4 0.0000 0.0000 0.0000 18.8730 0.0000 0.0000
# 5 0.0000 0.0000 0.0000 0.0000 6.3368 0.0000
# 6 0.0000 0.0000 0.0000 0.0000 0.0000 30.9240
#
#
#
# Elastic Compliance Matrix: (Units=1/GPa)
#
#
# Indices 1 2 3 4 5 6 
#
# 1 0.007562 -0.001774 -0.000352 0.000000 0.000000 0.000000
# 2 -0.001774 0.012154 -0.003102 0.000000 0.000000 0.000000
# 3 -0.000352 -0.003102 0.021310 0.000000 0.000000 0.000000
# 4 0.000000 0.000000 0.000000 0.052986 0.000000 0.000000
# 5 0.000000 0.000000 0.000000 0.000000 0.157809 0.000000
# 6 0.000000 0.000000 0.000000 0.000000 0.000000 0.032337
#
#
# Mechanical properties :
#
#
# Convention : Reuss Voigt Hill
#
# Bulk Modulus (GPa) = 32.71431 39.50475 36.10953
# Shear Modulus (GPa) = 16.40391 26.90250 21.65321
#
# Velocity S-wave (km/s) = 2.90104 3.71516 3.33305
# Velocity P-wave (km/s) = 5.29203 6.21861 5.77394
#
# Compressibility (1/GPa) = 0.03056766
#
# Stress axis : x y z
#
# Youngs Moduli (GPa) = 132.23274 82.28030 46.92706
#
# Poissons Ratio (x) = 0.14600 0.01654
# Poissons Ratio (y) = 0.23464 0.14558
# Poissons Ratio (z) = 0.04660 0.25525
#
# Static dielectric constant tensor:
#      x y z
#    x 1.698380 0.000000 0.000000 
#    y 0.000000 1.742460 0.000000 
#    z 0.000000 0.000000 1.838620 
# 
# From -- ./inp_files/49341.got.cif
#   From: 2010.05.17/outbox.cif.g08.bks.cpg/sg68_25_cif.got.tgz:49341.got - 2010.06.03 18:57:09.
