data_PCOD9508349
_publ_section_title
;
Structure prediction by ZEFSAII (Michael W. Deem and Ramdas Pophale) SiO2 
 PCOD9508349
Probable space group: C C C A
;
_chemical_formula_sum "Si O2"
_cell_formula_units_Z 88
_cell_length_a 8.795652
_cell_length_b 18.012348
_cell_length_c 23.764046
_cell_angle_alpha 90.000000
_cell_angle_beta 90.000000
_cell_angle_gamma 90.000000
_cell_volume 3764.946000
_symmetry_space_group_name_H-M "C C C A"
_symmetry_group_IT_number 68
_space_group.IT_coordinate_system_code '2'
_symmetry_cell_setting 'orthorhombic'
loop_
_space_group_symop_operation_xyz
x,y,z
-x,1/2-y,z
x,1/2-y,1/2-z
-x,y,1/2-z
-x,-y,-z
x,1/2+y,-z
-x,1/2+y,1/2+z
x,-y,1/2+z
1/2+x,1/2+y,z
1/2-x,-y,z
1/2+x,-y,1/2-z
1/2-x,1/2+y,1/2-z
1/2-x,1/2-y,-z
1/2+x,y,-z
1/2-x,y,1/2+z
1/2+x,1/2-y,1/2+z
loop_
_atom_site_type_symbol
_atom_site_label
_atom_site_fract_x
_atom_site_fract_y
_atom_site_fract_z
Si Si1 0.716615 0.888956 0.558626
Si Si2 0.868639 0.911700 0.449286
Si Si3 0.250000 0.500000 0.659446
Si Si4 0.826998 0.769823 0.913165
Si Si5 0.092757 0.537195 0.325216
Si Si6 0.145261 0.710164 0.309563
O O1 0.814774 0.931081 0.511648
O O2 0.541621 0.890089 0.543016
O O3 0.749927 0.928043 0.618430
O O4 0.748579 0.802214 0.561938
O O5 0.751303 0.845517 0.434078
O O6 0.886966 0.963015 0.393772
O O7 0.421247 0.505969 0.687365
O O8 0.792334 0.775514 0.846735
O O9 0.000000 0.750000 0.924240
O O10 0.250000 0.500000 0.303500
O O11 0.104437 0.623426 0.307000
O O12 0.161310 0.750000 0.250000
O O13 0.000000 0.750000 0.338673
#
# Coordination Sequence:
#
# PCOD9508349 Si02
#       6
#    16  16   8  16  16  16
#     4  11  22  36  57  89 133 181 224 276 321 405
#     4  10  22  36  56  91 131 181 228 272 331 392
#     4  10  24  36  62  96 140 182 222 268 344 410
#     4  11  22  37  62  90 125 170 224 284 332 401
#     4  10  23  41  69  99 138 182 221 287 344 417
#     4  10  22  45  74  93 127 170 224 282 359 416
#
# _framework density 23.373508000000001
#
# number of rings (size 3 to 8) (size 9 to 14) (size 15 to 20)
#    0.000    1.636    0.000    5.455    8.909    1.818 
#    0.000    0.000   18.000    0.000    0.000    0.000 
#    0.000    0.000    0.000    0.000    0.000    0.000 
#
# Total GULP energy -245548.687059 kJ/mol
# GULP energy per Si atom -5580.651979 kJ/mol
# Density = 2.332031 g / cm^3
# Si number density = 23.373508 Si / 1000 Ang^3
#
#
#
# Elastic Constant Matrix: (Units=GPa)
#
#
# Indices 1 2 3 4 5 6 
#
# 1 225.8910 63.9654 27.1912 0.0000 0.0000 0.0000
# 2 63.9654 74.6533 -7.6813 0.0000 0.0000 0.0000
# 3 27.1912 -7.6813 60.8978 0.0000 0.0000 0.0000
# 4 0.0000 0.0000 0.0000 -25.5206 0.0000 0.0000
# 5 0.0000 0.0000 0.0000 0.0000 59.3934 0.0000
# 6 0.0000 0.0000 0.0000 0.0000 0.0000 33.5242
#
#
#
# Elastic Compliance Matrix: (Units=1/GPa)
#
#
# Indices 1 2 3 4 5 6 
#
# 1 0.006574 -0.006013 -0.003694 0.000000 0.000000 0.000000
# 2 -0.006013 0.019071 0.005090 0.000000 0.000000 0.000000
# 3 -0.003694 0.005090 0.018712 0.000000 0.000000 0.000000
# 4 0.000000 0.000000 0.000000 -0.039184 0.000000 0.000000
# 5 0.000000 0.000000 0.000000 0.000000 0.016837 0.000000
# 6 0.000000 0.000000 0.000000 0.000000 0.000000 0.029829
#
#
# Mechanical properties :
#
#
# Convention : Reuss Voigt Hill
#
# Bulk Modulus (GPa) = 28.46998 58.71031 43.59014
# Shear Modulus (GPa) = 68.69876 32.01052 50.35464
#
# Velocity S-wave (km/s) = 5.42729 3.70472 4.64653
# Velocity P-wave (km/s) = 7.17502 6.59339 6.89034
#
# Compressibility (1/GPa) = 0.03512472
#
# Stress axis : x y z
#
# Youngs Moduli (GPa) = 152.10731 52.43483 53.44054
#
# Poissons Ratio (x) = 0.31530 0.19741
# Poissons Ratio (y) = 0.91465 -0.27204
# Poissons Ratio (z) = 0.56187 -0.26692
#
# Static dielectric constant tensor:
#      x y z
#    x 1.957280 0.000000 0.000000 
#    y 0.000000 1.909010 0.000000 
#    z 0.000000 0.000000 1.976490 
# 
# From -- ./inp_files/54043.got.cif
#   From: 2010.05.17/outbox.cif.g08.bks.cpg/sg68_28_cif.got.tgz:54043.got - 2010.06.03 18:57:09.
