data_PCOD9508926
_publ_section_title
;
Structure prediction by ZEFSAII (Michael W. Deem and Ramdas Pophale) SiO2 
 PCOD9508926
Probable space group: C C C A
;
_chemical_formula_sum "Si O2"
_cell_formula_units_Z 56
_cell_length_a 10.748684
_cell_length_b 10.347116
_cell_length_c 20.076372
_cell_angle_alpha 90.000000
_cell_angle_beta 90.000000
_cell_angle_gamma 90.000000
_cell_volume 2232.851536
_symmetry_space_group_name_H-M "C C C A"
_symmetry_group_IT_number 68
_space_group.IT_coordinate_system_code '2'
_symmetry_cell_setting 'orthorhombic'
loop_
_space_group_symop_operation_xyz
x,y,z
-x,1/2-y,z
x,1/2-y,1/2-z
-x,y,1/2-z
-x,-y,-z
x,1/2+y,-z
-x,1/2+y,1/2+z
x,-y,1/2+z
1/2+x,1/2+y,z
1/2-x,-y,z
1/2+x,-y,1/2-z
1/2-x,1/2+y,1/2-z
1/2-x,1/2-y,-z
1/2+x,y,-z
1/2-x,y,1/2+z
1/2+x,1/2-y,1/2+z
loop_
_atom_site_type_symbol
_atom_site_label
_atom_site_fract_x
_atom_site_fract_y
_atom_site_fract_z
Si Si1 0.000000 0.458724 0.750000
Si Si2 0.837470 0.624418 0.504730
Si Si3 0.329391 0.365976 0.138927
Si Si4 0.612703 0.658018 0.151943
O O1 0.076565 0.376864 0.698227
O O2 0.096853 0.543771 0.795014
O O3 0.750000 0.500000 0.506697
O O4 0.750000 0.750000 0.500000
O O5 0.900210 0.630137 0.432360
O O6 0.910207 0.621529 0.574123
O O7 0.250000 0.500000 0.139885
O O8 0.238290 0.243393 0.149538
O O9 0.500000 0.750000 0.171104
#
# Coordination Sequence:
#
# PCOD9508926 Si02
#       4
#     8  16  16  16
#     4  12  25  44  76 103 154 205 228 319 386 460
#     4   9  21  45  73 104 143 196 252 324 363 446
#     4  10  22  43  72 105 142 188 262 297 373 464
#     4  11  23  44  75 102 144 201 248 306 388 446
#
# _framework density 25.080036
#
# number of rings (size 3 to 8) (size 9 to 14) (size 15 to 20)
#    0.000    1.714    2.857    0.429    0.000    2.286 
#    0.000    0.000   12.571    0.000    0.000    0.000 
#    0.000    0.000    0.000    0.000    0.000    0.000 
#
# Total GULP energy -156711.712382 kJ/mol
# GULP energy per Si atom -5596.846871 kJ/mol
# Density = 2.502295 g / cm^3
# Si number density = 25.080036 Si / 1000 Ang^3
#
#
#
# Elastic Constant Matrix: (Units=GPa)
#
#
# Indices 1 2 3 4 5 6 
#
# 1 58.3157 43.7187 65.6633 0.0000 0.0000 0.0000
# 2 43.7187 110.2363 46.0300 0.0000 0.0000 0.0000
# 3 65.6633 46.0300 268.7210 0.0000 0.0000 0.0000
# 4 0.0000 0.0000 0.0000 50.7519 0.0000 0.0000
# 5 0.0000 0.0000 0.0000 0.0000 58.7419 0.0000
# 6 0.0000 0.0000 0.0000 0.0000 0.0000 46.8113
#
#
#
# Elastic Compliance Matrix: (Units=1/GPa)
#
#
# Indices 1 2 3 4 5 6 
#
# 1 0.031280 -0.009924 -0.005944 0.000000 0.000000 0.000000
# 2 -0.009924 0.012918 0.000212 0.000000 0.000000 0.000000
# 3 -0.005944 0.000212 0.005137 0.000000 0.000000 0.000000
# 4 0.000000 0.000000 0.000000 0.019704 0.000000 0.000000
# 5 0.000000 0.000000 0.000000 0.000000 0.017024 0.000000
# 6 0.000000 0.000000 0.000000 0.000000 0.000000 0.021362
#
#
# Mechanical properties :
#
#
# Convention : Reuss Voigt Hill
#
# Bulk Modulus (GPa) = 55.47658 83.12188 69.29923
# Shear Modulus (GPa) = 34.54362 50.05177 42.29770
#
# Velocity S-wave (km/s) = 3.71527 4.47215 4.11117
# Velocity P-wave (km/s) = 6.36963 7.73831 7.08709
#
# Compressibility (1/GPa) = 0.01802562
#
# Stress axis : x y z
#
# Youngs Moduli (GPa) = 31.96918 77.40844 194.65250
#
# Poissons Ratio (x) = 0.76817 1.15694
# Poissons Ratio (y) = 0.31725 -0.04127
# Poissons Ratio (z) = 0.19001 -0.01641
#
# Static dielectric constant tensor:
#      x y z
#    x 1.951690 0.000000 0.000000 
#    y 0.000000 2.056550 0.000000 
#    z 0.000000 0.000000 2.021390 
# 
# From -- ./inp_files/36943.got.cif
#   From: 2010.05.17/outbox.cif.g08.bks.cpg/sg68_19_cif.got.tgz:36943.got - 2010.06.03 18:57:09.
