data_PCOD9508619
_publ_section_title
;
Structure prediction by ZEFSAII (Michael W. Deem and Ramdas Pophale) SiO2 
 PCOD9508619
Probable space group: C C C A
;
_chemical_formula_sum "Si O2"
_cell_formula_units_Z 88
_cell_length_a 16.140978
_cell_length_b 14.275246
_cell_length_c 19.484571
_cell_angle_alpha 90.000000
_cell_angle_beta 90.000000
_cell_angle_gamma 90.000000
_cell_volume 4489.565322
_symmetry_space_group_name_H-M "C C C A"
_symmetry_group_IT_number 68
_space_group.IT_coordinate_system_code '2'
_symmetry_cell_setting 'orthorhombic'
loop_
_space_group_symop_operation_xyz
x,y,z
-x,1/2-y,z
x,1/2-y,1/2-z
-x,y,1/2-z
-x,-y,-z
x,1/2+y,-z
-x,1/2+y,1/2+z
x,-y,1/2+z
1/2+x,1/2+y,z
1/2-x,-y,z
1/2+x,-y,1/2-z
1/2-x,1/2+y,1/2-z
1/2-x,1/2-y,-z
1/2+x,y,-z
1/2-x,y,1/2+z
1/2+x,1/2-y,1/2+z
loop_
_atom_site_type_symbol
_atom_site_label
_atom_site_fract_x
_atom_site_fract_y
_atom_site_fract_z
Si Si1 0.726007 0.902940 0.965141
Si Si2 0.630775 0.759960 0.454455
Si Si3 0.273926 0.250000 0.250000
Si Si4 0.889023 0.679688 0.809547
Si Si5 0.500000 0.250000 0.434578
Si Si6 0.000000 0.520310 0.750000
Si Si7 0.110621 0.884117 0.157778
O O1 0.804863 0.842964 0.941035
O O2 0.670472 0.928912 0.899339
O O3 0.750000 0.000000 0.000657
O O4 0.676881 0.830542 0.013198
O O5 0.594127 0.723922 0.383341
O O6 0.566993 0.792780 0.512816
O O7 0.211310 0.315260 0.204304
O O8 0.332191 0.184855 0.203371
O O9 0.916155 0.750000 0.750000
O O10 0.938575 0.584686 0.795844
O O11 0.545445 0.176795 0.385844
O O12 0.940182 0.456649 0.703496
#
# Coordination Sequence:
#
# PCOD9508619 Si02
#       7
#    16  16   8  16   8   8  16
#     4  10  22  40  66  93 130 169 224 275 326 406
#     4  10  22  43  65  96 128 179 220 273 343 403
#     4  10  22  42  72  88 140 180 222 264 340 416
#     4  10  24  43  65  95 127 184 218 274 335 412
#     4  10  24  41  73  90 140 172 218 280 346 396
#     4  12  27  39  68  98 142 162 232 287 333 398
#     4  11  23  43  64 102 127 179 219 277 336 401
#
# _framework density 19.601006999999999
#
# number of rings (size 3 to 8) (size 9 to 14) (size 15 to 20)
#    0.545    1.091    1.818    1.364    7.636    1.455 
#    3.273    3.636    0.000    0.000    0.000    0.000 
#    0.000    0.000    0.000    0.000    0.000    0.000 
#
# Total GULP energy -245411.839598 kJ/mol
# GULP energy per Si atom -5577.541809 kJ/mol
# Density = 1.955639 g / cm^3
# Si number density = 19.601007 Si / 1000 Ang^3
#
#
#
# Elastic Constant Matrix: (Units=GPa)
#
#
# Indices 1 2 3 4 5 6 
#
# 1 128.2129 64.3180 51.3584 0.0000 0.0000 0.0000
# 2 64.3180 82.9121 41.9173 0.0000 0.0000 0.0000
# 3 51.3584 41.9173 94.8191 0.0000 0.0000 0.0000
# 4 0.0000 0.0000 0.0000 13.4399 0.0000 0.0000
# 5 0.0000 0.0000 0.0000 0.0000 31.3197 0.0000
# 6 0.0000 0.0000 0.0000 0.0000 0.0000 46.3759
#
#
#
# Elastic Compliance Matrix: (Units=1/GPa)
#
#
# Indices 1 2 3 4 5 6 
#
# 1 0.013606 -0.008794 -0.003482 0.000000 0.000000 0.000000
# 2 -0.008794 0.021217 -0.004616 0.000000 0.000000 0.000000
# 3 -0.003482 -0.004616 0.014473 0.000000 0.000000 0.000000
# 4 0.000000 0.000000 0.000000 0.074405 0.000000 0.000000
# 5 0.000000 0.000000 0.000000 0.000000 0.031929 0.000000
# 6 0.000000 0.000000 0.000000 0.000000 0.000000 0.021563
#
#
# Mechanical properties :
#
#
# Convention : Reuss Voigt Hill
#
# Bulk Modulus (GPa) = 64.46925 69.01461 66.74193
# Shear Modulus (GPa) = 23.13239 28.11714 25.62476
#
# Velocity S-wave (km/s) = 3.43908 3.79155 3.61961
# Velocity P-wave (km/s) = 6.98082 7.37930 7.18282
#
# Compressibility (1/GPa) = 0.01551127
#
# Stress axis : x y z
#
# Youngs Moduli (GPa) = 73.49738 47.13262 69.09446
#
# Poissons Ratio (x) = 0.41450 0.24058
# Poissons Ratio (y) = 0.64636 0.31894
# Poissons Ratio (z) = 0.25591 0.21756
#
# Static dielectric constant tensor:
#      x y z
#    x 1.751630 0.000000 0.000000 
#    y 0.000000 1.655130 0.000000 
#    z 0.000000 0.000000 1.656690 
# 
# From -- ./inp_files/31890.got.cif
#   From: 2010.05.17/outbox.cif.g08.bks.cpg/sg68_16_cif.got.tgz:31890.got - 2010.06.03 18:57:09.
