data_PCOD9508275
_publ_section_title
;
Structure prediction by ZEFSAII (Michael W. Deem and Ramdas Pophale) SiO2 
 PCOD9508275
Probable space group: C C C A
;
_chemical_formula_sum "Si O2"
_cell_formula_units_Z 88
_cell_length_a 19.103813
_cell_length_b 11.486044
_cell_length_c 17.022729
_cell_angle_alpha 90.000000
_cell_angle_beta 90.000000
_cell_angle_gamma 90.000000
_cell_volume 3735.250385
_symmetry_space_group_name_H-M "C C C A"
_symmetry_group_IT_number 68
_space_group.IT_coordinate_system_code '2'
_symmetry_cell_setting 'orthorhombic'
loop_
_space_group_symop_operation_xyz
x,y,z
-x,1/2-y,z
x,1/2-y,1/2-z
-x,y,1/2-z
-x,-y,-z
x,1/2+y,-z
-x,1/2+y,1/2+z
x,-y,1/2+z
1/2+x,1/2+y,z
1/2-x,-y,z
1/2+x,-y,1/2-z
1/2-x,1/2+y,1/2-z
1/2-x,1/2-y,-z
1/2+x,y,-z
1/2-x,y,1/2+z
1/2+x,1/2-y,1/2+z
loop_
_atom_site_type_symbol
_atom_site_label
_atom_site_fract_x
_atom_site_fract_y
_atom_site_fract_z
Si Si1 0.080866 0.975329 0.774164
Si Si2 0.658184 0.880519 0.479259
Si Si3 0.029441 0.582214 0.068079
Si Si4 0.742320 0.793556 0.608117
Si Si5 0.621902 0.395641 0.129441
Si Si6 0.170556 0.750000 0.750000
O O1 0.116579 0.857449 0.742796
O O2 0.000000 0.968384 0.750000
O O3 0.074628 0.011740 0.865800
O O4 0.118497 0.072807 0.721504
O O5 0.584811 0.843841 0.518150
O O6 0.712343 0.892169 0.551595
O O7 0.692770 0.775750 0.431285
O O8 0.646158 0.992769 0.423912
O O9 0.959155 0.631923 0.107656
O O10 0.000000 0.500000 0.000000
O O11 0.678680 0.702864 0.615966
O O12 0.775066 0.815516 0.691851
#
# Coordination Sequence:
#
# PCOD9508275 Si02
#       6
#    16  16  16  16  16   8
#     4  10  22  42  65  91 128 173 222 282 332 398
#     4  10  22  43  63  97 131 174 219 273 330 403
#     4   9  21  41  70  96 124 173 229 269 339 395
#     4  11  25  39  65  98 140 173 221 274 338 407
#     4  10  21  44  66  95 137 173 217 283 336 392
#     4  12  25  40  60  99 130 178 228 266 344 409
#
# _framework density 23.559331
#
# number of rings (size 3 to 8) (size 9 to 14) (size 15 to 20)
#    0.000    1.818    1.818    0.818    2.545    8.000 
#    0.000    1.818    0.000    0.000    0.000    0.000 
#    0.000    0.000    0.000    0.000    0.000    0.000 
#
# Total GULP energy -245214.438578 kJ/mol
# GULP energy per Si atom -5573.055422 kJ/mol
# Density = 2.350571 g / cm^3
# Si number density = 23.559331 Si / 1000 Ang^3
#
#
#
# Elastic Constant Matrix: (Units=GPa)
#
#
# Indices 1 2 3 4 5 6 
#
# 1 111.9571 45.4245 16.3037 0.0000 0.0000 0.0000
# 2 45.4245 47.4910 18.6681 0.0000 0.0000 0.0000
# 3 16.3037 18.6681 81.5598 0.0000 0.0000 0.0000
# 4 0.0000 0.0000 0.0000 6.6183 0.0000 0.0000
# 5 0.0000 0.0000 0.0000 0.0000 37.8631 0.0000
# 6 0.0000 0.0000 0.0000 0.0000 0.0000 15.7374
#
#
#
# Elastic Compliance Matrix: (Units=1/GPa)
#
#
# Indices 1 2 3 4 5 6 
#
# 1 0.014604 -0.014088 0.000305 0.000000 0.000000 0.000000
# 2 -0.014088 0.036729 -0.005591 0.000000 0.000000 0.000000
# 3 0.000305 -0.005591 0.013480 0.000000 0.000000 0.000000
# 4 0.000000 0.000000 0.000000 0.151096 0.000000 0.000000
# 5 0.000000 0.000000 0.000000 0.000000 0.026411 0.000000
# 6 0.000000 0.000000 0.000000 0.000000 0.000000 0.063543
#
#
# Mechanical properties :
#
#
# Convention : Reuss Voigt Hill
#
# Bulk Modulus (GPa) = 38.36487 44.64450 41.50468
# Shear Modulus (GPa) = 14.15238 22.75120 18.45179
#
# Velocity S-wave (km/s) = 2.45360 3.11094 2.80162
# Velocity P-wave (km/s) = 4.93423 5.64756 5.30290
#
# Compressibility (1/GPa) = 0.02606552
#
# Stress axis : x y z
#
# Youngs Moduli (GPa) = 68.47664 27.22616 74.18649
#
# Poissons Ratio (x) = 0.38357 -0.02265
# Poissons Ratio (y) = 0.96471 0.41476
# Poissons Ratio (z) = -0.02091 0.15221
#
# Static dielectric constant tensor:
#      x y z
#    x 1.895690 0.000000 0.000000 
#    y 0.000000 1.907110 0.000000 
#    z 0.000000 0.000000 2.058070 
# 
# From -- ./inp_files/31880.got.cif
#   From: 2010.05.17/outbox.cif.g08.bks.cpg/sg68_16_cif.got.tgz:31880.got - 2010.06.03 18:57:09.
