data_PCOD9508350
_publ_section_title
;
Structure prediction by ZEFSAII (Michael W. Deem and Ramdas Pophale) SiO2 
 PCOD9508350
Probable space group: C C C A
;
_chemical_formula_sum "Si O2"
_cell_formula_units_Z 116
_cell_length_a 22.504876
_cell_length_b 26.765495
_cell_length_c 8.943320
_cell_angle_alpha 90.000000
_cell_angle_beta 90.000000
_cell_angle_gamma 90.000000
_cell_volume 5387.045881
_symmetry_space_group_name_H-M "C C C A"
_symmetry_group_IT_number 68
_space_group.IT_coordinate_system_code '2'
_symmetry_cell_setting 'orthorhombic'
loop_
_space_group_symop_operation_xyz
x,y,z
-x,1/2-y,z
x,1/2-y,1/2-z
-x,y,1/2-z
-x,-y,-z
x,1/2+y,-z
-x,1/2+y,1/2+z
x,-y,1/2+z
1/2+x,1/2+y,z
1/2-x,-y,z
1/2+x,-y,1/2-z
1/2-x,1/2+y,1/2-z
1/2-x,1/2-y,-z
1/2+x,y,-z
1/2-x,y,1/2+z
1/2+x,1/2-y,1/2+z
loop_
_atom_site_type_symbol
_atom_site_label
_atom_site_fract_x
_atom_site_fract_y
_atom_site_fract_z
Si Si1 0.676479 0.905075 0.066625
Si Si2 0.439245 0.557893 0.660051
Si Si3 0.721469 0.049341 0.858139
Si Si4 0.175033 0.716230 0.891795
Si Si5 0.402288 0.327087 0.124335
Si Si6 0.000000 0.750000 0.250000
Si Si7 0.889827 0.508398 0.059995
Si Si8 0.309664 0.808188 0.607076
O O1 0.729058 0.925514 0.959661
O O2 0.620561 0.940453 0.030975
O O3 0.670146 0.848574 0.015800
O O4 0.696569 0.913872 0.234359
O O5 0.500000 0.556801 0.750000
O O6 0.421642 0.615441 0.641306
O O7 0.440199 0.527151 0.506342
O O8 0.395725 0.526755 0.770091
O O9 0.750000 0.000000 0.782036
O O10 0.667946 0.026824 0.954047
O O11 0.158497 0.750000 0.750000
O O12 0.238969 0.690720 0.860771
O O13 0.125534 0.679838 0.959167
O O14 0.182038 0.754731 0.030471
O O15 0.455641 0.287397 0.158084
O O16 0.350853 0.317850 0.249561
#
# Coordination Sequence:
#
# PCOD9508350 Si02
#       8
#    16  16  16  16  16   4  16  16
#     4  11  23  35  61  95 134 178 225 273 345 437
#     4  12  26  45  70 100 129 186 244 298 353 415
#     4  10  22  36  56  92 134 180 220 276 346 413
#     4  11  25  42  65 105 146 172 220 307 368 420
#     4  12  25  47  77 101 135 192 242 283 360 434
#     4  12  24  52  78  96 132 184 246 294 312 442
#     4  11  23  43  64  90 138 173 231 298 341 408
#     4  11  23  40  67  99 141 183 227 283 359 435
#
# _framework density 21.533138000000001
#
# number of rings (size 3 to 8) (size 9 to 14) (size 15 to 20)
#    0.000    0.828    4.828    3.310    7.724    0.000 
#    0.000    0.345    0.000    0.000    0.000    0.000 
#    0.000    0.000    0.000    0.000    0.000    0.000 
#
# Total GULP energy -324129.281636 kJ/mol
# GULP energy per Si atom -5588.435890 kJ/mol
# Density = 2.148413 g / cm^3
# Si number density = 21.533138 Si / 1000 Ang^3
#
#
#
# Elastic Constant Matrix: (Units=GPa)
#
#
# Indices 1 2 3 4 5 6 
#
# 1 73.6716 30.0778 20.7849 0.0000 0.0000 0.0000
# 2 30.0778 127.4292 28.4452 0.0000 0.0000 0.0000
# 3 20.7849 28.4452 66.9350 0.0000 0.0000 0.0000
# 4 0.0000 0.0000 0.0000 73.8543 0.0000 0.0000
# 5 0.0000 0.0000 0.0000 0.0000 22.6604 0.0000
# 6 0.0000 0.0000 0.0000 0.0000 0.0000 197.5498
#
#
#
# Elastic Compliance Matrix: (Units=1/GPa)
#
#
# Indices 1 2 3 4 5 6 
#
# 1 0.015797 -0.002910 -0.003669 0.000000 0.000000 0.000000
# 2 -0.002910 0.009206 -0.003009 0.000000 0.000000 0.000000
# 3 -0.003669 -0.003009 0.017358 0.000000 0.000000 0.000000
# 4 0.000000 0.000000 0.000000 0.013540 0.000000 0.000000
# 5 0.000000 0.000000 0.000000 0.000000 0.044130 0.000000
# 6 0.000000 0.000000 0.000000 0.000000 0.000000 0.005062
#
#
# Mechanical properties :
#
#
# Convention : Reuss Voigt Hill
#
# Bulk Modulus (GPa) = 43.12922 47.40574 45.26748
# Shear Modulus (GPa) = 37.88019 71.39476 54.63748
#
# Velocity S-wave (km/s) = 4.19878 5.76435 5.04269
# Velocity P-wave (km/s) = 6.60144 8.14658 7.41437
#
# Compressibility (1/GPa) = 0.02318614
#
# Stress axis : x y z
#
# Youngs Moduli (GPa) = 63.30432 108.62621 57.61137
#
# Poissons Ratio (x) = 0.31606 0.21136
# Poissons Ratio (y) = 0.18419 0.17333
# Poissons Ratio (z) = 0.23225 0.32682
#
# Static dielectric constant tensor:
#      x y z
#    x 1.830400 0.000000 0.000000 
#    y 0.000000 1.815890 0.000000 
#    z 0.000000 0.000000 1.804470 
# 
# From -- ./inp_files/8364.got.cif
#   From: 2010.05.17/outbox.cif.g08.bks.cpg/sg68_5_cif.got.tgz:8364.got - 2010.06.03 18:57:09.
