data_PCOD9508080
_publ_section_title
;
Structure prediction by ZEFSAII (Michael W. Deem and Ramdas Pophale) SiO2 
 PCOD9508080
Probable space group: C C C A
;
_chemical_formula_sum "Si O2"
_cell_formula_units_Z 64
_cell_length_a 11.201014
_cell_length_b 22.588313
_cell_length_c 12.151377
_cell_angle_alpha 90.000000
_cell_angle_beta 90.000000
_cell_angle_gamma 90.000000
_cell_volume 3074.444321
_symmetry_space_group_name_H-M "C C C A"
_symmetry_group_IT_number 68
_space_group.IT_coordinate_system_code '2'
_symmetry_cell_setting 'orthorhombic'
loop_
_space_group_symop_operation_xyz
x,y,z
-x,1/2-y,z
x,1/2-y,1/2-z
-x,y,1/2-z
-x,-y,-z
x,1/2+y,-z
-x,1/2+y,1/2+z
x,-y,1/2+z
1/2+x,1/2+y,z
1/2-x,-y,z
1/2+x,-y,1/2-z
1/2-x,1/2+y,1/2-z
1/2-x,1/2-y,-z
1/2+x,y,-z
1/2-x,y,1/2+z
1/2+x,1/2-y,1/2+z
loop_
_atom_site_type_symbol
_atom_site_label
_atom_site_fract_x
_atom_site_fract_y
_atom_site_fract_z
Si Si1 0.587370 0.383945 0.345094
Si Si2 0.680425 0.816963 0.224437
Si Si3 0.510002 0.633126 0.095965
Si Si4 0.111240 0.490093 0.083533
O O1 0.500000 0.363121 0.250000
O O2 0.710292 0.351702 0.325976
O O3 0.540897 0.371284 0.468108
O O4 0.603844 0.454916 0.333519
O O5 0.714524 0.750000 0.250000
O O6 0.577084 0.814527 0.132475
O O7 0.625977 0.853476 0.328969
O O8 0.429015 0.574624 0.125660
O O9 0.250000 0.500000 0.039946
O O10 0.000000 0.500000 0.000000
#
# Coordination Sequence:
#
# PCOD9508080 Si02
#       4
#    16  16  16  16
#     4  11  26  41  69 107 138 178 239 298 358 432
#     4  11  25  47  71  98 139 193 238 290 360 425
#     4  10  23  45  71  99 137 184 235 291 360 431
#     4  10  21  40  69 103 141 183 228 296 368 435
#
# _framework density 20.816770999999999
#
# number of rings (size 3 to 8) (size 9 to 14) (size 15 to 20)
#    0.000    1.500    2.500    1.500    7.000    3.500 
#    4.500    1.250    0.000    0.000    0.000    0.000 
#    0.000    0.000    0.000    0.000    0.000    0.000 
#
# Total GULP energy -178145.514025 kJ/mol
# GULP energy per Si atom -5567.047313 kJ/mol
# Density = 2.076939 g / cm^3
# Si number density = 20.816771 Si / 1000 Ang^3
#
#
#
# Elastic Constant Matrix: (Units=GPa)
#
#
# Indices 1 2 3 4 5 6 
#
# 1 91.8942 15.7019 62.9737 0.0000 0.0000 0.0000
# 2 15.7019 98.7471 42.0200 0.0000 0.0000 0.0000
# 3 62.9737 42.0200 132.6789 0.0000 0.0000 0.0000
# 4 0.0000 0.0000 0.0000 16.7404 0.0000 0.0000
# 5 0.0000 0.0000 0.0000 0.0000 16.5830 0.0000
# 6 0.0000 0.0000 0.0000 0.0000 0.0000 28.3281
#
#
#
# Elastic Compliance Matrix: (Units=1/GPa)
#
#
# Indices 1 2 3 4 5 6 
#
# 1 0.016183 0.000803 -0.007935 0.000000 0.000000 0.000000
# 2 0.000803 0.011744 -0.004101 0.000000 0.000000 0.000000
# 3 -0.007935 -0.004101 0.012602 0.000000 0.000000 0.000000
# 4 0.000000 0.000000 0.000000 0.059736 0.000000 0.000000
# 5 0.000000 0.000000 0.000000 0.000000 0.060303 0.000000
# 6 0.000000 0.000000 0.000000 0.000000 0.000000 0.035301
#
#
# Mechanical properties :
#
#
# Convention : Reuss Voigt Hill
#
# Bulk Modulus (GPa) = 55.35952 62.74571 59.05262
# Shear Modulus (GPa) = 22.28615 25.83861 24.06238
#
# Velocity S-wave (km/s) = 3.27553 3.52695 3.40356
# Velocity P-wave (km/s) = 6.39976 6.84055 6.62382
#
# Compressibility (1/GPa) = 0.01806374
#
# Stress axis : x y z
#
# Youngs Moduli (GPa) = 61.79419 85.14893 79.35187
#
# Poissons Ratio (x) = -0.06842 0.62968
# Poissons Ratio (y) = -0.04965 0.32541
# Poissons Ratio (z) = 0.49036 0.34918
#
# Static dielectric constant tensor:
#      x y z
#    x 1.819940 0.000000 0.000000 
#    y 0.000000 1.823640 0.000000 
#    z 0.000000 0.000000 1.744760 
# 
# From -- ./inp_files/11513.got.cif
#   From: 2010.05.17/outbox.cif.g08.bks.cpg/sg68_6_cif.got.tgz:11513.got - 2010.06.03 18:57:09.
