data_PCOD9508647
_publ_section_title
;
Structure prediction by ZEFSAII (Michael W. Deem and Ramdas Pophale) SiO2 
 PCOD9508647
Probable space group: C C C A
;
_chemical_formula_sum "Si O2"
_cell_formula_units_Z 120
_cell_length_a 14.126439
_cell_length_b 18.532796
_cell_length_c 23.447925
_cell_angle_alpha 90.000000
_cell_angle_beta 90.000000
_cell_angle_gamma 90.000000
_cell_volume 6138.723326
_symmetry_space_group_name_H-M "C C C A"
_symmetry_group_IT_number 68
_space_group.IT_coordinate_system_code '2'
_symmetry_cell_setting 'orthorhombic'
loop_
_space_group_symop_operation_xyz
x,y,z
-x,1/2-y,z
x,1/2-y,1/2-z
-x,y,1/2-z
-x,-y,-z
x,1/2+y,-z
-x,1/2+y,1/2+z
x,-y,1/2+z
1/2+x,1/2+y,z
1/2-x,-y,z
1/2+x,-y,1/2-z
1/2-x,1/2+y,1/2-z
1/2-x,1/2-y,-z
1/2+x,y,-z
1/2-x,y,1/2+z
1/2+x,1/2-y,1/2+z
loop_
_atom_site_type_symbol
_atom_site_label
_atom_site_fract_x
_atom_site_fract_y
_atom_site_fract_z
Si Si1 0.887926 0.668793 0.236596
Si Si2 0.145658 0.032222 0.810930
Si Si3 0.105314 0.608235 0.755950
Si Si4 0.240271 0.656107 0.855223
Si Si5 0.816053 0.683146 0.523010
Si Si6 0.335677 0.318327 0.646232
Si Si7 0.299575 0.926350 0.923789
Si Si8 0.000000 0.750000 0.581780
O O1 0.855943 0.750000 0.250000
O O2 0.853399 0.606776 0.278358
O O3 0.842389 0.648647 0.175231
O O4 0.000000 0.668406 0.250000
O O5 0.121797 0.049507 0.876741
O O6 0.250000 0.000000 0.815661
O O7 0.097121 0.971695 0.772023
O O8 0.161841 0.614752 0.815650
O O9 0.161449 0.655634 0.710546
O O10 0.000000 0.638656 0.750000
O O11 0.232655 0.642613 0.922801
O O12 0.212794 0.740610 0.854560
O O13 0.750000 0.750000 0.500000
O O14 0.833685 0.625040 0.473852
O O15 0.916644 0.714199 0.544724
O O16 0.277836 0.376160 0.609100
O O17 0.441345 0.306479 0.620840
O O18 0.250000 0.000000 0.944302
#
# Coordination Sequence:
#
# PCOD9508647 Si02
#       8
#    16  16  16  16  16  16  16   8
#     4  11  23  40  62  95 130 165 218 264 322 406
#     4  11  21  41  64  87 126 173 208 265 327 399
#     4  12  22  36  66  97 132 164 211 269 344 394
#     4  11  22  39  66  96 132 168 213 275 332 380
#     4  11  23  44  68  93 132 177 223 280 328 385
#     4  11  20  39  66  98 131 166 219 273 329 392
#     4  11  21  42  68  88 123 182 225 251 332 405
#     4  10  22  40  69 100 132 159 234 282 322 382
#
# _framework density 19.548038999999999
#
# number of rings (size 3 to 8) (size 9 to 14) (size 15 to 20)
#    0.000    0.933    6.667    4.000    0.000    0.533 
#    4.800    0.667    0.000    0.000    0.000    0.000 
#    0.000    0.000    0.000    0.000    0.000    0.000 
#
# Total GULP energy -334214.321028 kJ/mol
# GULP energy per Si atom -5570.238684 kJ/mol
# Density = 1.950355 g / cm^3
# Si number density = 19.548039 Si / 1000 Ang^3
#
#
#
# Elastic Constant Matrix: (Units=GPa)
#
#
# Indices 1 2 3 4 5 6 
#
# 1 84.7497 3.8138 27.5310 0.0000 0.0000 0.0000
# 2 3.8138 96.8273 33.2996 0.0000 0.0000 0.0000
# 3 27.5310 33.2996 121.4001 0.0000 0.0000 0.0000
# 4 0.0000 0.0000 0.0000 7.5114 0.0000 0.0000
# 5 0.0000 0.0000 0.0000 0.0000 23.2092 0.0000
# 6 0.0000 0.0000 0.0000 0.0000 0.0000 17.3078
#
#
#
# Elastic Compliance Matrix: (Units=1/GPa)
#
#
# Indices 1 2 3 4 5 6 
#
# 1 0.012764 0.000544 -0.003044 0.000000 0.000000 0.000000
# 2 0.000544 0.011427 -0.003258 0.000000 0.000000 0.000000
# 3 -0.003044 -0.003258 0.009821 0.000000 0.000000 0.000000
# 4 0.000000 0.000000 0.000000 0.133131 0.000000 0.000000
# 5 0.000000 0.000000 0.000000 0.000000 0.043086 0.000000
# 6 0.000000 0.000000 0.000000 0.000000 0.000000 0.057778
#
#
# Mechanical properties :
#
#
# Convention : Reuss Voigt Hill
#
# Bulk Modulus (GPa) = 44.45117 48.02954 46.24035
# Shear Modulus (GPa) = 17.42041 25.49453 21.45747
#
# Velocity S-wave (km/s) = 2.98847 3.61529 3.31672
# Velocity P-wave (km/s) = 5.89039 6.48463 6.19464
#
# Compressibility (1/GPa) = 0.02249660
#
# Stress axis : x y z
#
# Youngs Moduli (GPa) = 78.34695 87.51539 101.82213
#
# Poissons Ratio (x) = -0.04761 0.30992
# Poissons Ratio (y) = -0.04262 0.33170
# Poissons Ratio (z) = 0.23847 0.28509
#
# Static dielectric constant tensor:
#      x y z
#    x 1.839740 0.000000 0.000000 
#    y 0.000000 1.711680 0.000000 
#    z 0.000000 0.000000 1.765530 
# 
# From -- ./inp_files/38941.got.cif
#   From: 2010.05.17/outbox.cif.g08.bks.cpg/sg68_20_cif.got.tgz:38941.got - 2010.06.03 18:57:09.
