data_PCOD9508300
_publ_section_title
;
Structure prediction by ZEFSAII (Michael W. Deem and Ramdas Pophale) SiO2 
 PCOD9508300
Probable space group: C C C A
;
_chemical_formula_sum "Si O2"
_cell_formula_units_Z 56
_cell_length_a 11.137563
_cell_length_b 9.784254
_cell_length_c 20.106301
_cell_angle_alpha 90.000000
_cell_angle_beta 90.000000
_cell_angle_gamma 90.000000
_cell_volume 2191.038818
_symmetry_space_group_name_H-M "C C C A"
_symmetry_group_IT_number 68
_space_group.IT_coordinate_system_code '2'
_symmetry_cell_setting 'orthorhombic'
loop_
_space_group_symop_operation_xyz
x,y,z
-x,1/2-y,z
x,1/2-y,1/2-z
-x,y,1/2-z
-x,-y,-z
x,1/2+y,-z
-x,1/2+y,1/2+z
x,-y,1/2+z
1/2+x,1/2+y,z
1/2-x,-y,z
1/2+x,-y,1/2-z
1/2-x,1/2+y,1/2-z
1/2-x,1/2-y,-z
1/2+x,y,-z
1/2-x,y,1/2+z
1/2+x,1/2-y,1/2+z
loop_
_atom_site_type_symbol
_atom_site_label
_atom_site_fract_x
_atom_site_fract_y
_atom_site_fract_z
Si Si1 0.000000 0.443514 0.750000
Si Si2 0.875747 0.834882 0.498544
Si Si3 0.388866 0.642983 0.143365
Si Si4 0.182251 0.864568 0.147669
O O1 0.916447 0.539008 0.797716
O O2 0.923107 0.357910 0.698977
O O3 0.750000 0.750000 0.500000
O O4 0.881403 0.917602 0.568024
O O5 0.866251 0.900374 0.426182
O O6 0.000000 0.750000 0.497929
O O7 0.500000 0.750000 0.143909
O O8 0.269151 0.734237 0.150718
O O9 0.250000 0.000000 0.168949
#
# Coordination Sequence:
#
# PCOD9508300 Si02
#       4
#     8  16  16  16
#     4  12  25  46  71 104 150 197 230 294 371 456
#     4   9  21  46  70  99 139 190 238 313 357 412
#     4  10  21  45  72  94 148 188 231 303 365 418
#     4  11  24  44  70 107 139 187 251 287 365 450
#
# _framework density 25.558651999999999
#
# number of rings (size 3 to 8) (size 9 to 14) (size 15 to 20)
#    0.000    1.714    2.857    0.429    0.000    1.143 
#   15.429    0.000    0.000    0.000    0.000    0.000 
#    0.000    0.000    0.000    0.000    0.000    0.000 
#
# Total GULP energy -156751.772086 kJ/mol
# GULP energy per Si atom -5598.277574 kJ/mol
# Density = 2.550048 g / cm^3
# Si number density = 25.558652 Si / 1000 Ang^3
#
#
#
# Elastic Constant Matrix: (Units=GPa)
#
#
# Indices 1 2 3 4 5 6 
#
# 1 156.3079 70.5635 89.9780 0.0000 0.0000 0.0000
# 2 70.5635 52.0623 51.9158 0.0000 0.0000 0.0000
# 3 89.9780 51.9158 244.0823 0.0000 0.0000 0.0000
# 4 0.0000 0.0000 0.0000 34.8478 0.0000 0.0000
# 5 0.0000 0.0000 0.0000 0.0000 45.1211 0.0000
# 6 0.0000 0.0000 0.0000 0.0000 0.0000 30.4860
#
#
#
# Elastic Compliance Matrix: (Units=1/GPa)
#
#
# Indices 1 2 3 4 5 6 
#
# 1 0.017045 -0.021369 -0.001738 0.000000 0.000000 0.000000
# 2 -0.021369 0.051168 -0.003006 0.000000 0.000000 0.000000
# 3 -0.001738 -0.003006 0.005377 0.000000 0.000000 0.000000
# 4 0.000000 0.000000 0.000000 0.028696 0.000000 0.000000
# 5 0.000000 0.000000 0.000000 0.000000 0.022163 0.000000
# 6 0.000000 0.000000 0.000000 0.000000 0.000000 0.032802
#
#
# Mechanical properties :
#
#
# Convention : Reuss Voigt Hill
#
# Bulk Modulus (GPa) = 46.80810 97.48523 72.14667
# Shear Modulus (GPa) = 23.08424 38.09067 30.58746
#
# Velocity S-wave (km/s) = 3.00857 3.86466 3.46317
# Velocity P-wave (km/s) = 5.51565 7.62487 6.65436
#
# Compressibility (1/GPa) = 0.02136382
#
# Stress axis : x y z
#
# Youngs Moduli (GPa) = 58.66825 19.54356 185.97198
#
# Poissons Ratio (x) = 0.41762 0.32328
# Poissons Ratio (y) = 1.25367 0.55902
# Poissons Ratio (z) = 0.10199 0.05875
#
# Static dielectric constant tensor:
#      x y z
#    x 2.093500 0.000000 0.000000 
#    y 0.000000 2.028160 0.000000 
#    z 0.000000 0.000000 2.013570 
# 
# From -- ./inp_files/36964.got.cif
#   From: 2010.05.17/outbox.cif.g08.bks.cpg/sg68_19_cif.got.tgz:36964.got - 2010.06.03 18:57:09.
