data_PCOD9508764
_publ_section_title
;
Structure prediction by ZEFSAII (Michael W. Deem and Ramdas Pophale) SiO2 
 PCOD9508764
Probable space group: C C C A
;
_chemical_formula_sum "Si O2"
_cell_formula_units_Z 84
_cell_length_a 24.012612
_cell_length_b 7.943695
_cell_length_c 21.705863
_cell_angle_alpha 90.000000
_cell_angle_beta 90.000000
_cell_angle_gamma 90.000000
_cell_volume 4140.368750
_symmetry_space_group_name_H-M "C C C A"
_symmetry_group_IT_number 68
_space_group.IT_coordinate_system_code '2'
_symmetry_cell_setting 'orthorhombic'
loop_
_space_group_symop_operation_xyz
x,y,z
-x,1/2-y,z
x,1/2-y,1/2-z
-x,y,1/2-z
-x,-y,-z
x,1/2+y,-z
-x,1/2+y,1/2+z
x,-y,1/2+z
1/2+x,1/2+y,z
1/2-x,-y,z
1/2+x,-y,1/2-z
1/2-x,1/2+y,1/2-z
1/2-x,1/2-y,-z
1/2+x,y,-z
1/2-x,y,1/2+z
1/2+x,1/2-y,1/2+z
loop_
_atom_site_type_symbol
_atom_site_label
_atom_site_fract_x
_atom_site_fract_y
_atom_site_fract_z
Si Si1 0.000000 0.250000 0.750000
Si Si2 0.000000 0.250000 0.392980
Si Si3 0.750000 0.000000 0.096113
Si Si4 0.171813 0.802462 0.817180
Si Si5 0.856319 0.792145 0.051750
Si Si6 0.076025 0.964705 0.340646
Si Si7 0.386880 0.592198 0.420494
O O1 0.041076 0.348319 0.704184
O O2 0.963091 0.377853 0.354572
O O3 0.953621 0.127892 0.424401
O O4 0.720793 0.862510 0.139111
O O5 0.798486 0.894359 0.061885
O O6 0.190732 0.750000 0.750000
O O7 0.137340 0.664282 0.856450
O O8 0.131013 0.962100 0.808843
O O9 0.902389 0.886397 0.094661
O O10 0.864483 0.597443 0.071064
O O11 0.865632 0.801462 0.978800
#
# Coordination Sequence:
#
# PCOD9508764 Si02
#       7
#     4   8   8  16  16  16  16
#     4  12  24  36  64 100 130 186 206 268 328 380
#     4  10  22  42  62  94 133 179 208 266 332 380
#     4  10  24  46  64  92 132 170 216 284 332 386
#     4  10  24  43  64  95 127 169 218 269 325 394
#     4  11  24  44  65  97 130 168 227 271 329 396
#     4  10  24  38  62  94 131 170 220 262 315 397
#     4  11  24  41  69  96 131 174 215 276 324 400
#
# _framework density 20.288048
#
# number of rings (size 3 to 8) (size 9 to 14) (size 15 to 20)
#    0.000    1.524    0.000    4.571    8.000    9.143 
#    3.429    0.000    0.000    0.000    0.000    0.000 
#    0.000    0.000    0.000    0.000    0.000    0.000 
#
# Total GULP energy -234146.236370 kJ/mol
# GULP energy per Si atom -5574.910390 kJ/mol
# Density = 2.024187 g / cm^3
# Si number density = 20.288048 Si / 1000 Ang^3
#
#
#
# Elastic Constant Matrix: (Units=GPa)
#
#
# Indices 1 2 3 4 5 6 
#
# 1 82.1987 6.9130 18.2298 0.0000 0.0000 0.0000
# 2 6.9130 81.8949 10.0528 0.0000 0.0000 0.0000
# 3 18.2298 10.0528 65.7725 0.0000 0.0000 0.0000
# 4 0.0000 0.0000 0.0000 22.3097 0.0000 0.0000
# 5 0.0000 0.0000 0.0000 0.0000 -48.3978 0.0000
# 6 0.0000 0.0000 0.0000 0.0000 0.0000 10.6211
#
#
#
# Elastic Compliance Matrix: (Units=1/GPa)
#
#
# Indices 1 2 3 4 5 6 
#
# 1 0.012998 -0.000668 -0.003501 0.000000 0.000000 0.000000
# 2 -0.000668 0.012479 -0.001722 0.000000 0.000000 0.000000
# 3 -0.003501 -0.001722 0.016437 0.000000 0.000000 0.000000
# 4 0.000000 0.000000 0.000000 0.044823 0.000000 0.000000
# 5 0.000000 0.000000 0.000000 0.000000 -0.020662 0.000000
# 6 0.000000 0.000000 0.000000 0.000000 0.000000 0.094152
#
#
# Mechanical properties :
#
#
# Convention : Reuss Voigt Hill
#
# Bulk Modulus (GPa) = 33.18578 33.36191 33.27385
# Shear Modulus (GPa) = 27.46454 9.88463 18.67458
#
# Velocity S-wave (km/s) = 3.68330 2.20969 3.03722
# Velocity P-wave (km/s) = 5.87211 4.79480 5.36059
#
# Compressibility (1/GPa) = 0.03013339
#
# Stress axis : x y z
#
# Youngs Moduli (GPa) = 76.93413 80.13764 60.83687
#
# Poissons Ratio (x) = 0.05349 0.21297
# Poissons Ratio (y) = 0.05135 0.10478
# Poissons Ratio (z) = 0.26932 0.13802
#
# Static dielectric constant tensor:
#      x y z
#    x 1.788150 0.000000 0.000000 
#    y 0.000000 1.739410 0.000000 
#    z 0.000000 0.000000 1.698790 
# 
# From -- ./inp_files/36223.got.cif
#   From: 2010.05.17/outbox.cif.g08.bks.cpg/sg68_19_cif.got.tgz:36223.got - 2010.06.03 18:57:09.
