data_PCOD9508240
_publ_section_title
;
Structure prediction by ZEFSAII (Michael W. Deem and Ramdas Pophale) SiO2 
 PCOD9508240
Probable space group: C C C A
;
_chemical_formula_sum "Si O2"
_cell_formula_units_Z 104
_cell_length_a 23.704657
_cell_length_b 22.394615
_cell_length_c 9.060806
_cell_angle_alpha 90.000000
_cell_angle_beta 90.000000
_cell_angle_gamma 90.000000
_cell_volume 4809.989276
_symmetry_space_group_name_H-M "C C C A"
_symmetry_group_IT_number 68
_space_group.IT_coordinate_system_code '2'
_symmetry_cell_setting 'orthorhombic'
loop_
_space_group_symop_operation_xyz
x,y,z
-x,1/2-y,z
x,1/2-y,1/2-z
-x,y,1/2-z
-x,-y,-z
x,1/2+y,-z
-x,1/2+y,1/2+z
x,-y,1/2+z
1/2+x,1/2+y,z
1/2-x,-y,z
1/2+x,-y,1/2-z
1/2-x,1/2+y,1/2-z
1/2-x,1/2-y,-z
1/2+x,y,-z
1/2-x,y,1/2+z
1/2+x,1/2-y,1/2+z
loop_
_atom_site_type_symbol
_atom_site_label
_atom_site_fract_x
_atom_site_fract_y
_atom_site_fract_z
Si Si1 0.632000 0.932263 0.624222
Si Si2 0.517205 0.931480 0.481965
Si Si3 0.172805 0.949490 0.710274
Si Si4 0.073750 0.121623 0.304140
Si Si5 0.393192 0.750000 0.250000
Si Si6 0.292611 0.703607 0.071903
Si Si7 0.723093 0.870693 0.791116
O O1 0.565197 0.919956 0.605210
O O2 0.656013 0.945222 0.461191
O O3 0.667672 0.878649 0.692647
O O4 0.648777 0.989164 0.723572
O O5 0.460506 0.892471 0.453774
O O6 0.548646 0.919395 0.326725
O O7 0.500000 0.000000 0.500000
O O8 0.138249 0.899182 0.802334
O O9 0.238478 0.930722 0.715310
O O10 0.071010 0.189368 0.246397
O O11 0.351204 0.763942 0.387088
O O12 0.294377 0.650059 0.952861
O O13 0.250000 0.750000 0.000000
O O14 0.263250 0.678732 0.218826
#
# Coordination Sequence:
#
# PCOD9508240 Si02
#       7
#    16  16  16  16   8  16  16
#     4  11  25  38  67  99 140 187 240 301 374 445
#     4  10  21  43  66  94 134 181 235 303 368 436
#     4  11  22  40  61  99 139 184 238 297 366 451
#     4  10  22  41  70 101 135 182 250 300 363 438
#     4  12  24  43  74 108 142 190 255 302 362 438
#     4  12  23  42  66  96 142 193 238 288 358 441
#     4  12  24  41  64 100 143 191 236 295 367 446
#
# _framework density 21.621669000000001
#
# number of rings (size 3 to 8) (size 9 to 14) (size 15 to 20)
#    0.000    0.923    6.154    0.462    4.308    2.462 
#    0.000    0.000    0.000    0.000    0.000    0.000 
#    0.000    0.000    0.000    0.000    0.000    0.000 
#
# Total GULP energy -290134.968019 kJ/mol
# GULP energy per Si atom -5579.518616 kJ/mol
# Density = 2.157246 g / cm^3
# Si number density = 21.621669 Si / 1000 Ang^3
#
#
#
# Elastic Constant Matrix: (Units=GPa)
#
#
# Indices 1 2 3 4 5 6 
#
# 1 116.3891 42.3180 42.9140 0.0000 0.0000 0.0000
# 2 42.3180 102.1711 24.6074 0.0000 0.0000 0.0000
# 3 42.9140 24.6074 100.0392 0.0000 0.0000 0.0000
# 4 0.0000 0.0000 0.0000 40.6987 0.0000 0.0000
# 5 0.0000 0.0000 0.0000 0.0000 44.7488 0.0000
# 6 0.0000 0.0000 0.0000 0.0000 0.0000 -3.6379
#
#
#
# Elastic Compliance Matrix: (Units=1/GPa)
#
#
# Indices 1 2 3 4 5 6 
#
# 1 0.011431 -0.003777 -0.003974 0.000000 0.000000 0.000000
# 2 -0.003777 0.011652 -0.001246 0.000000 0.000000 0.000000
# 3 -0.003974 -0.001246 0.012007 0.000000 0.000000 0.000000
# 4 0.000000 0.000000 0.000000 0.024571 0.000000 0.000000
# 5 0.000000 0.000000 0.000000 0.000000 0.022347 0.000000
# 6 0.000000 0.000000 0.000000 0.000000 0.000000 -0.274883
#
#
# Mechanical properties :
#
#
# Convention : Reuss Voigt Hill
#
# Bulk Modulus (GPa) = 58.49545 59.80870 59.15207
# Shear Modulus (GPa) = -29.55387 30.27926 0.36269
#
# Velocity S-wave (km/s) = -3.70112 3.74627 0.41001
# Velocity P-wave (km/s) = 2.97463 6.81427 5.25750
#
# Compressibility (1/GPa) = 0.01709535
#
# Stress axis : x y z
#
# Youngs Moduli (GPa) = 87.48444 85.82200 83.28203
#
# Poissons Ratio (x) = 0.32417 0.33099
# Poissons Ratio (y) = 0.33045 0.10375
# Poissons Ratio (z) = 0.34769 0.10692
#
# Static dielectric constant tensor:
#      x y z
#    x 1.809400 0.000000 0.000000 
#    y 0.000000 1.847320 0.000000 
#    z 0.000000 0.000000 1.761810 
# 
# From -- ./inp_files/9136.got.cif
#   From: 2010.05.17/outbox.cif.g08.bks.cpg/sg68_5_cif.got.tgz:9136.got - 2010.06.03 18:57:09.
