data_PCOD9508867
_publ_section_title
;
Structure prediction by ZEFSAII (Michael W. Deem and Ramdas Pophale) SiO2 
 PCOD9508867
Probable space group: C C C A
;
_chemical_formula_sum "Si O2"
_cell_formula_units_Z 88
_cell_length_a 25.859886
_cell_length_b 10.697229
_cell_length_c 14.671319
_cell_angle_alpha 90.000000
_cell_angle_beta 90.000000
_cell_angle_gamma 90.000000
_cell_volume 4058.514100
_symmetry_space_group_name_H-M "C C C A"
_symmetry_group_IT_number 68
_space_group.IT_coordinate_system_code '2'
_symmetry_cell_setting 'orthorhombic'
loop_
_space_group_symop_operation_xyz
x,y,z
-x,1/2-y,z
x,1/2-y,1/2-z
-x,y,1/2-z
-x,-y,-z
x,1/2+y,-z
-x,1/2+y,1/2+z
x,-y,1/2+z
1/2+x,1/2+y,z
1/2-x,-y,z
1/2+x,-y,1/2-z
1/2-x,1/2+y,1/2-z
1/2-x,1/2-y,-z
1/2+x,y,-z
1/2-x,y,1/2+z
1/2+x,1/2-y,1/2+z
loop_
_atom_site_type_symbol
_atom_site_label
_atom_site_fract_x
_atom_site_fract_y
_atom_site_fract_z
Si Si1 0.413981 0.250000 0.250000
Si Si2 0.058329 0.222528 0.545397
Si Si3 0.716620 0.818057 0.420181
Si Si4 0.360501 0.998782 0.793297
Si Si5 0.750000 0.500000 0.713763
Si Si6 0.147695 0.250000 0.250000
Si Si7 0.379822 0.536043 0.495345
O O1 0.442483 0.246623 0.346473
O O2 0.379946 0.373956 0.252613
O O3 0.091691 0.329249 0.494469
O O4 0.000000 0.250000 0.512218
O O5 0.085949 0.084728 0.536925
O O6 0.750000 0.750000 0.500000
O O7 0.681000 0.746037 0.344760
O O8 0.677075 0.927008 0.455590
O O9 0.756953 0.882282 0.352196
O O10 0.300202 0.011292 0.773490
O O11 0.371493 0.992570 0.898791
O O12 0.384394 0.122871 0.748763
#
# Coordination Sequence:
#
# PCOD9508867 Si02
#       7
#     8  16  16  16   8   8  16
#     4  10  23  41  66  95 126 170 221 288 346 418
#     4  11  23  45  69  96 128 172 227 292 360 418
#     4  11  26  38  63  94 137 183 231 272 334 408
#     4  10  23  39  63  91 136 174 222 273 336 396
#     4  10  24  38  60  92 136 184 224 266 320 408
#     4  10  22  43  56  87 129 182 218 270 317 394
#     4  11  25  41  67 100 133 174 229 289 343 413
#
# _framework density 21.682812999999999
#
# number of rings (size 3 to 8) (size 9 to 14) (size 15 to 20)
#    0.000    1.455    0.000    4.091   15.273    0.727 
#    0.000    0.000    0.000    0.000    0.000   11.455 
#    0.000    0.000    0.000    0.000    0.000    0.000 
#
# Total GULP energy -245020.822274 kJ/mol
# GULP energy per Si atom -5568.655052 kJ/mol
# Density = 2.163346 g / cm^3
# Si number density = 21.682813 Si / 1000 Ang^3
#
#
#
# Elastic Constant Matrix: (Units=GPa)
#
#
# Indices 1 2 3 4 5 6 
#
# 1 85.4126 47.8445 32.0514 0.0000 0.0000 0.0000
# 2 47.8445 173.4568 22.1003 0.0000 0.0000 0.0000
# 3 32.0514 22.1003 75.6838 0.0000 0.0000 0.0000
# 4 0.0000 0.0000 0.0000 29.6123 0.0000 0.0000
# 5 0.0000 0.0000 0.0000 0.0000 6.9208 0.0000
# 6 0.0000 0.0000 0.0000 0.0000 0.0000 22.6963
#
#
#
# Elastic Compliance Matrix: (Units=1/GPa)
#
#
# Indices 1 2 3 4 5 6 
#
# 1 0.015880 -0.003660 -0.005657 0.000000 0.000000 0.000000
# 2 -0.003660 0.006831 -0.000445 0.000000 0.000000 0.000000
# 3 -0.005657 -0.000445 0.015738 0.000000 0.000000 0.000000
# 4 0.000000 0.000000 0.000000 0.033770 0.000000 0.000000
# 5 0.000000 0.000000 0.000000 0.000000 0.144493 0.000000
# 6 0.000000 0.000000 0.000000 0.000000 0.000000 0.044060
#
#
# Mechanical properties :
#
#
# Convention : Reuss Voigt Hill
#
# Bulk Modulus (GPa) = 52.83264 59.83841 56.33553
# Shear Modulus (GPa) = 17.44564 27.34965 22.39765
#
# Velocity S-wave (km/s) = 2.83960 3.55540 3.21747
# Velocity P-wave (km/s) = 5.93044 6.67170 6.31196
#
# Compressibility (1/GPa) = 0.01892769
#
# Stress axis : x y z
#
# Youngs Moduli (GPa) = 62.97038 146.38627 63.53916
#
# Poissons Ratio (x) = 0.53571 0.35942
# Poissons Ratio (y) = 0.23045 0.02827
# Poissons Ratio (z) = 0.35620 0.06514
#
# Static dielectric constant tensor:
#      x y z
#    x 1.827450 0.000000 0.000000 
#    y 0.000000 1.946500 0.000000 
#    z 0.000000 0.000000 1.833600 
# 
# From -- ./inp_files/25321.got.cif
#   From: 2010.05.17/outbox.cif.g08.bks.cpg/sg68_13_cif.got.tgz:25321.got - 2010.06.03 18:57:09.
