data_PCOD9508270
_publ_section_title
;
Structure prediction by ZEFSAII (Michael W. Deem and Ramdas Pophale) SiO2 
 PCOD9508270
Probable space group: C C C A
;
_chemical_formula_sum "Si O2"
_cell_formula_units_Z 116
_cell_length_a 27.231145
_cell_length_b 23.637930
_cell_length_c 9.961384
_cell_angle_alpha 90.000000
_cell_angle_beta 90.000000
_cell_angle_gamma 90.000000
_cell_volume 6412.022341
_symmetry_space_group_name_H-M "C C C A"
_symmetry_group_IT_number 68
_space_group.IT_coordinate_system_code '2'
_symmetry_cell_setting 'orthorhombic'
loop_
_space_group_symop_operation_xyz
x,y,z
-x,1/2-y,z
x,1/2-y,1/2-z
-x,y,1/2-z
-x,-y,-z
x,1/2+y,-z
-x,1/2+y,1/2+z
x,-y,1/2+z
1/2+x,1/2+y,z
1/2-x,-y,z
1/2+x,-y,1/2-z
1/2-x,1/2+y,1/2-z
1/2-x,1/2-y,-z
1/2+x,y,-z
1/2-x,y,1/2+z
1/2+x,1/2-y,1/2+z
loop_
_atom_site_type_symbol
_atom_site_label
_atom_site_fract_x
_atom_site_fract_y
_atom_site_fract_z
Si Si1 0.383334 0.599882 0.132687
Si Si2 0.562822 0.347020 0.612035
Si Si3 0.840979 0.682614 0.095938
Si Si4 0.143324 0.684093 0.094124
Si Si5 0.737759 0.867880 0.449597
Si Si6 0.488130 0.450893 0.600958
Si Si7 0.000000 0.250000 0.250000
Si Si8 0.720705 0.557806 0.312442
O O1 0.400969 0.632833 0.267195
O O2 0.431765 0.567043 0.087739
O O3 0.338009 0.557512 0.162801
O O4 0.366480 0.643689 0.016990
O O5 0.594895 0.337308 0.480346
O O6 0.522525 0.395632 0.587473
O O7 0.534247 0.291105 0.661227
O O8 0.855652 0.747926 0.084415
O O9 0.852904 0.665891 0.249987
O O10 0.782683 0.675211 0.072752
O O11 0.190238 0.661085 0.012872
O O12 0.727436 0.898657 0.309695
O O13 0.755921 0.914934 0.554820
O O14 0.500000 0.472203 0.750000
O O15 0.500000 0.500000 0.500000
O O16 0.750000 0.500000 0.283755
#
# Coordination Sequence:
#
# PCOD9508270 Si02
#       8
#    16  16  16  16  16  16   4  16
#     4  10  21  44  63  91 124 164 213 255 319 380
#     4  11  22  39  70  95 123 166 213 269 324 378
#     4  10  23  39  59  91 131 163 202 255 316 389
#     4  11  22  38  62  93 125 163 205 254 325 374
#     4  11  21  41  58  87 128 163 206 252 311 381
#     4  10  23  44  64  92 124 164 218 260 316 382
#     4  12  20  40  72  98 132 152 224 280 316 384
#     4  11  23  39  62  90 122 164 208 260 308 368
#
# _framework density 18.091016
#
# number of rings (size 3 to 8) (size 9 to 14) (size 15 to 20)
#    0.000    1.379    4.828    1.655    0.000    2.207 
#    9.931    0.000    0.000    0.000    0.000    0.000 
#    0.000    0.000    0.000    0.000    0.000    0.000 
#
# Total GULP energy -323821.482037 kJ/mol
# GULP energy per Si atom -5583.129001 kJ/mol
# Density = 1.804984 g / cm^3
# Si number density = 18.091016 Si / 1000 Ang^3
#
#
#
# Elastic Constant Matrix: (Units=GPa)
#
#
# Indices 1 2 3 4 5 6 
#
# 1 139.8990 45.7687 48.0571 0.0000 0.0000 0.0000
# 2 45.7687 75.0242 25.2707 0.0000 0.0000 0.0000
# 3 48.0571 25.2707 42.9312 0.0000 0.0000 0.0000
# 4 0.0000 0.0000 0.0000 25.4243 0.0000 0.0000
# 5 0.0000 0.0000 0.0000 0.0000 21.1455 0.0000
# 6 0.0000 0.0000 0.0000 0.0000 0.0000 15.8946
#
#
#
# Elastic Compliance Matrix: (Units=1/GPa)
#
#
# Indices 1 2 3 4 5 6 
#
# 1 0.012342 -0.003587 -0.011704 0.000000 0.000000 0.000000
# 2 -0.003587 0.017668 -0.006385 0.000000 0.000000 0.000000
# 3 -0.011704 -0.006385 0.040153 0.000000 0.000000 0.000000
# 4 0.000000 0.000000 0.000000 0.039332 0.000000 0.000000
# 5 0.000000 0.000000 0.000000 0.000000 0.047291 0.000000
# 6 0.000000 0.000000 0.000000 0.000000 0.000000 0.062914
#
#
# Mechanical properties :
#
#
# Convention : Reuss Voigt Hill
#
# Bulk Modulus (GPa) = 37.29791 55.11639 46.20715
# Shear Modulus (GPa) = 18.38303 21.74341 20.06322
#
# Velocity S-wave (km/s) = 3.19116 3.47059 3.33380
# Velocity P-wave (km/s) = 5.85146 6.82585 6.35735
#
# Compressibility (1/GPa) = 0.02681116
#
# Stress axis : x y z
#
# Youngs Moduli (GPa) = 81.02373 56.60010 24.90469
#
# Poissons Ratio (x) = 0.20302 0.29149
# Poissons Ratio (y) = 0.29062 0.15901
# Poissons Ratio (z) = 0.94833 0.36137
#
# Static dielectric constant tensor:
#      x y z
#    x 1.614110 0.000000 0.000000 
#    y 0.000000 1.588420 0.000000 
#    z 0.000000 0.000000 1.599150 
# 
# From -- ./inp_files/9170.got.cif
#   From: 2010.05.17/outbox.cif.g08.bks.cpg/sg68_5_cif.got.tgz:9170.got - 2010.06.03 18:57:09.
