data_PCOD9508600
_publ_section_title
;
Structure prediction by ZEFSAII (Michael W. Deem and Ramdas Pophale) SiO2 
 PCOD9508600
Probable space group: C C C A
;
_chemical_formula_sum "Si O2"
_cell_formula_units_Z 72
_cell_length_a 7.754842
_cell_length_b 18.062049
_cell_length_c 25.680914
_cell_angle_alpha 90.000000
_cell_angle_beta 90.000000
_cell_angle_gamma 90.000000
_cell_volume 3597.082896
_symmetry_space_group_name_H-M "C C C A"
_symmetry_group_IT_number 68
_space_group.IT_coordinate_system_code '2'
_symmetry_cell_setting 'orthorhombic'
loop_
_space_group_symop_operation_xyz
x,y,z
-x,1/2-y,z
x,1/2-y,1/2-z
-x,y,1/2-z
-x,-y,-z
x,1/2+y,-z
-x,1/2+y,1/2+z
x,-y,1/2+z
1/2+x,1/2+y,z
1/2-x,-y,z
1/2+x,-y,1/2-z
1/2-x,1/2+y,1/2-z
1/2-x,1/2-y,-z
1/2+x,y,-z
1/2-x,y,1/2+z
1/2+x,1/2-y,1/2+z
loop_
_atom_site_type_symbol
_atom_site_label
_atom_site_fract_x
_atom_site_fract_y
_atom_site_fract_z
Si Si1 0.250000 0.500000 0.120540
Si Si2 0.000000 0.750000 0.627366
Si Si3 0.503820 0.055489 0.451180
Si Si4 0.003779 0.399372 0.311973
Si Si5 0.750000 0.500000 0.636495
Si Si6 0.821163 0.787444 0.447692
O O1 0.319386 0.438280 0.078030
O O2 0.371168 0.544163 0.160846
O O3 0.962196 0.820018 0.663722
O O4 0.163834 0.776210 0.592436
O O5 0.614542 0.129198 0.460933
O O6 0.500000 0.000000 0.500000
O O7 0.599702 0.016512 0.403677
O O8 0.191707 0.430358 0.329549
O O9 0.000000 0.399167 0.250000
O O10 0.750000 0.750000 0.500000
O O11 0.000000 0.750000 0.429459
#
# Coordination Sequence:
#
# PCOD9508600 Si02
#       6
#     8   8  16  16   8  16
#     4  10  24  40  70  96 130 172 232 290 340 410
#     4  12  25  46  68 100 140 180 225 286 356 412
#     4  11  24  39  64  96 133 175 221 273 340 417
#     4  11  23  44  69  94 127 176 231 289 351 401
#     4  10  22  40  64  94 128 164 220 278 328 416
#     4  12  27  41  65  99 142 183 223 274 345 424
#
# _framework density 20.016220000000001
#
# number of rings (size 3 to 8) (size 9 to 14) (size 15 to 20)
#    0.000    0.889    3.333    3.000   12.444    0.000 
#    0.000    0.000    0.000    1.333    0.000    0.000 
#    0.000    0.000    0.000    0.000    0.000    0.000 
#
# Total GULP energy -200555.020246 kJ/mol
# GULP energy per Si atom -5570.972785 kJ/mol
# Density = 1.997066 g / cm^3
# Si number density = 20.016220 Si / 1000 Ang^3
#
#
#
# Elastic Constant Matrix: (Units=GPa)
#
#
# Indices 1 2 3 4 5 6 
#
# 1 80.9988 43.6222 64.6749 0.0000 0.0000 0.0000
# 2 43.6222 146.3152 85.7815 0.0000 0.0000 0.0000
# 3 64.6749 85.7815 187.6372 0.0000 0.0000 0.0000
# 4 0.0000 0.0000 0.0000 21.7972 0.0000 0.0000
# 5 0.0000 0.0000 0.0000 0.0000 5.3602 0.0000
# 6 0.0000 0.0000 0.0000 0.0000 0.0000 38.5585
#
#
#
# Elastic Compliance Matrix: (Units=1/GPa)
#
#
# Indices 1 2 3 4 5 6 
#
# 1 0.017586 -0.002308 -0.005007 0.000000 0.000000 0.000000
# 2 -0.002308 0.009640 -0.003612 0.000000 0.000000 0.000000
# 3 -0.005007 -0.003612 0.008706 0.000000 0.000000 0.000000
# 4 0.000000 0.000000 0.000000 0.045877 0.000000 0.000000
# 5 0.000000 0.000000 0.000000 0.000000 0.186560 0.000000
# 6 0.000000 0.000000 0.000000 0.000000 0.000000 0.025935
#
#
# Mechanical properties :
#
#
# Convention : Reuss Voigt Hill
#
# Bulk Modulus (GPa) = 71.02063 89.23427 80.12745
# Shear Modulus (GPa) = 15.58360 27.86802 21.72581
#
# Velocity S-wave (km/s) = 2.79328 3.73536 3.29813
# Velocity P-wave (km/s) = 6.77951 7.95498 7.39065
#
# Compressibility (1/GPa) = 0.01408042
#
# Stress axis : x y z
#
# Youngs Moduli (GPa) = 56.86205 103.73382 114.86044
#
# Poissons Ratio (x) = 0.23941 0.57506
# Poissons Ratio (y) = 0.13123 0.41483
# Poissons Ratio (z) = 0.28468 0.37465
#
# Static dielectric constant tensor:
#      x y z
#    x 3.696190 0.000000 0.000000 
#    y 0.000000 1.773790 0.000000 
#    z 0.000000 0.000000 1.644800 
# 
# From -- ./inp_files/40119.got.cif
#   From: 2010.05.17/outbox.cif.g08.bks.cpg/sg68_21_cif.got.tgz:40119.got - 2010.06.03 18:57:09.
