data_PCOD9508296
_publ_section_title
;
Structure prediction by ZEFSAII (Michael W. Deem and Ramdas Pophale) SiO2 
 PCOD9508296
Probable space group: C C C A
;
_chemical_formula_sum "Si O2"
_cell_formula_units_Z 72
_cell_length_a 8.767563
_cell_length_b 23.306093
_cell_length_c 18.387331
_cell_angle_alpha 90.000000
_cell_angle_beta 90.000000
_cell_angle_gamma 90.000000
_cell_volume 3757.223798
_symmetry_space_group_name_H-M "C C C A"
_symmetry_group_IT_number 68
_space_group.IT_coordinate_system_code '2'
_symmetry_cell_setting 'orthorhombic'
loop_
_space_group_symop_operation_xyz
x,y,z
-x,1/2-y,z
x,1/2-y,1/2-z
-x,y,1/2-z
-x,-y,-z
x,1/2+y,-z
-x,1/2+y,1/2+z
x,-y,1/2+z
1/2+x,1/2+y,z
1/2-x,-y,z
1/2+x,-y,1/2-z
1/2-x,1/2+y,1/2-z
1/2-x,1/2-y,-z
1/2+x,y,-z
1/2-x,y,1/2+z
1/2+x,1/2-y,1/2+z
loop_
_atom_site_type_symbol
_atom_site_label
_atom_site_fract_x
_atom_site_fract_y
_atom_site_fract_z
Si Si1 0.636296 0.921437 0.543552
Si Si2 0.743005 0.686253 0.743286
Si Si3 0.972238 0.044071 0.092990
Si Si4 0.500946 0.686055 0.875741
Si Si5 0.500000 0.907672 0.250000
O O1 0.813505 0.925961 0.566441
O O2 0.606397 0.931839 0.458213
O O3 0.555634 0.863644 0.570805
O O4 0.553649 0.976565 0.579734
O O5 0.813293 0.750000 0.750000
O O6 0.619730 0.686165 0.808306
O O7 0.659608 0.678145 0.665674
O O8 0.856635 0.634550 0.754416
O O9 0.002714 0.055824 0.176794
O O10 0.500000 0.750000 0.909029
#
# Coordination Sequence:
#
# PCOD9508296 Si02
#       5
#    16  16  16  16   8
#     4  10  21  45  57  87 119 162 193 253 294 369
#     4   9  19  34  57  87 124 157 188 249 306 348
#     4  10  24  39  64  84 126 155 200 242 314 340
#     4   9  18  37  61  83 116 161 201 238 298 362
#     4  12  21  38  58  98 111 154 206 250 282 368
#
# _framework density 19.163084999999999
#
# number of rings (size 3 to 8) (size 9 to 14) (size 15 to 20)
#    0.000    2.222    2.222    1.667    3.111    1.778 
#    0.000    3.333    0.000    0.000    0.000    0.000 
#    0.000    0.000    0.000    0.000    0.000    0.000 
#
# Total GULP energy -200863.866328 kJ/mol
# GULP energy per Si atom -5579.551842 kJ/mol
# Density = 1.911947 g / cm^3
# Si number density = 19.163085 Si / 1000 Ang^3
#
#
#
# Elastic Constant Matrix: (Units=GPa)
#
#
# Indices 1 2 3 4 5 6 
#
# 1 32.8182 14.5852 15.3575 0.0000 0.0000 0.0000
# 2 14.5852 106.9990 44.5914 0.0000 0.0000 0.0000
# 3 15.3575 44.5914 124.1355 0.0000 0.0000 0.0000
# 4 0.0000 0.0000 0.0000 21.4931 0.0000 0.0000
# 5 0.0000 0.0000 0.0000 0.0000 15.4490 0.0000
# 6 0.0000 0.0000 0.0000 0.0000 0.0000 22.3906
#
#
#
# Elastic Compliance Matrix: (Units=1/GPa)
#
#
# Indices 1 2 3 4 5 6 
#
# 1 0.033317 -0.003321 -0.002929 0.000000 0.000000 0.000000
# 2 -0.003321 0.011322 -0.003656 0.000000 0.000000 0.000000
# 3 -0.002929 -0.003656 0.009731 0.000000 0.000000 0.000000
# 4 0.000000 0.000000 0.000000 0.046527 0.000000 0.000000
# 5 0.000000 0.000000 0.000000 0.000000 0.064729 0.000000
# 6 0.000000 0.000000 0.000000 0.000000 0.000000 0.044662
#
#
# Mechanical properties :
#
#
# Convention : Reuss Voigt Hill
#
# Bulk Modulus (GPa) = 28.93620 45.89123 37.41371
# Shear Modulus (GPa) = 20.69362 24.49445 22.59404
#
# Velocity S-wave (km/s) = 3.28970 3.57909 3.43744
# Velocity P-wave (km/s) = 5.43712 6.40933 5.94314
#
# Compressibility (1/GPa) = 0.03455879
#
# Stress axis : x y z
#
# Youngs Moduli (GPa) = 30.01436 88.32121 102.75940
#
# Poissons Ratio (x) = 0.29331 0.30098
# Poissons Ratio (y) = 0.09968 0.37572
# Poissons Ratio (z) = 0.08791 0.32293
#
# Static dielectric constant tensor:
#      x y z
#    x 1.695400 0.000000 0.000000 
#    y 0.000000 1.659690 0.000000 
#    z 0.000000 0.000000 1.648770 
# 
# From -- ./inp_files/25854.got.cif
#   From: 2010.05.17/outbox.cif.g08.bks.cpg/sg68_13_cif.got.tgz:25854.got - 2010.06.03 18:57:09.
