data_PCOD9508345
_publ_section_title
;
Structure prediction by ZEFSAII (Michael W. Deem and Ramdas Pophale) SiO2 
 PCOD9508345
Probable space group: C C C A
;
_chemical_formula_sum "Si O2"
_cell_formula_units_Z 116
_cell_length_a 17.861761
_cell_length_b 21.167680
_cell_length_c 16.260316
_cell_angle_alpha 90.000000
_cell_angle_beta 90.000000
_cell_angle_gamma 90.000000
_cell_volume 6147.896065
_symmetry_space_group_name_H-M "C C C A"
_symmetry_group_IT_number 68
_space_group.IT_coordinate_system_code '2'
_symmetry_cell_setting 'orthorhombic'
loop_
_space_group_symop_operation_xyz
x,y,z
-x,1/2-y,z
x,1/2-y,1/2-z
-x,y,1/2-z
-x,-y,-z
x,1/2+y,-z
-x,1/2+y,1/2+z
x,-y,1/2+z
1/2+x,1/2+y,z
1/2-x,-y,z
1/2+x,-y,1/2-z
1/2-x,1/2+y,1/2-z
1/2-x,1/2-y,-z
1/2+x,y,-z
1/2-x,y,1/2+z
1/2+x,1/2-y,1/2+z
loop_
_atom_site_type_symbol
_atom_site_label
_atom_site_fract_x
_atom_site_fract_y
_atom_site_fract_z
Si Si1 0.178674 0.030290 0.175583
Si Si2 0.500000 0.750000 0.750000
Si Si3 0.530161 0.180483 0.526772
Si Si4 0.872597 0.136006 0.441775
Si Si5 0.861502 0.768594 0.654111
Si Si6 0.811216 0.904680 0.256726
Si Si7 0.797365 0.825706 0.101894
Si Si8 0.380165 0.306717 0.373495
O O1 0.135201 0.076285 0.117162
O O2 0.224670 0.072249 0.241892
O O3 0.250000 0.000000 0.126864
O O4 0.144259 0.968689 0.219012
O O5 0.553213 0.708462 0.690910
O O6 0.500000 0.250000 0.501434
O O7 0.457502 0.137304 0.525758
O O8 0.569581 0.191408 0.615149
O O9 0.589258 0.162811 0.456933
O O10 0.863038 0.201368 0.392151
O O11 0.812017 0.141443 0.514672
O O12 0.865008 0.750000 0.750000
O O13 0.786254 0.805740 0.628331
O O14 0.829404 0.871996 0.171589
O O15 0.823036 0.852495 0.326897
O O16 0.842517 0.759811 0.103583
#
# Coordination Sequence:
#
# PCOD9508345 Si02
#       8
#    16   4  16  16  16  16  16  16
#     4   8  21  41  59  80 114 167 211 259 292 355
#     4  12  20  28  60  92 134 156 170 244 342 388
#     4  10  22  36  52  91 133 159 190 249 313 391
#     4  11  21  39  61  86 128 167 204 251 319 378
#     4  11  23  35  60  97 126 161 209 261 324 382
#     4   9  21  37  60  84 120 156 204 256 306 365
#     4  12  20  34  64  96 119 154 206 270 318 371
#     4  12  19  34  57  95 128 156 191 251 328 376
#
# _framework density 18.868243
#
# number of rings (size 3 to 8) (size 9 to 14) (size 15 to 20)
#    0.828    0.552    4.828    2.897    1.931    2.483 
#    2.483    0.690    3.034    4.966    0.000    0.000 
#    0.000    0.000    0.000    0.000    0.000    0.000 
#
# Total GULP energy -323110.621286 kJ/mol
# GULP energy per Si atom -5570.872781 kJ/mol
# Density = 1.882530 g / cm^3
# Si number density = 18.868243 Si / 1000 Ang^3
#
#
#
# Elastic Constant Matrix: (Units=GPa)
#
#
# Indices 1 2 3 4 5 6 
#
# 1 26.4894 0.7898 -0.0303 0.0000 0.0000 0.0000
# 2 0.7898 73.7127 12.5856 0.0000 0.0000 0.0000
# 3 -0.0303 12.5856 93.6978 0.0000 0.0000 0.0000
# 4 0.0000 0.0000 0.0000 7.4432 0.0000 0.0000
# 5 0.0000 0.0000 0.0000 0.0000 18.1013 0.0000
# 6 0.0000 0.0000 0.0000 0.0000 0.0000 10.4544
#
#
#
# Elastic Compliance Matrix: (Units=1/GPa)
#
#
# Indices 1 2 3 4 5 6 
#
# 1 0.037763 -0.000416 0.000068 0.000000 0.000000 0.000000
# 2 -0.000416 0.013889 -0.001866 0.000000 0.000000 0.000000
# 3 0.000068 -0.001866 0.010923 0.000000 0.000000 0.000000
# 4 0.000000 0.000000 0.000000 0.134350 0.000000 0.000000
# 5 0.000000 0.000000 0.000000 0.000000 0.055245 0.000000
# 6 0.000000 0.000000 0.000000 0.000000 0.000000 0.095653
#
#
# Mechanical properties :
#
#
# Convention : Reuss Voigt Hill
#
# Bulk Modulus (GPa) = 17.19749 24.51004 20.85376
# Shear Modulus (GPa) = 13.45409 19.23678 16.34544
#
# Velocity S-wave (km/s) = 2.67321 3.19648 2.94648
# Velocity P-wave (km/s) = 4.31999 5.16155 4.75941
#
# Compressibility (1/GPa) = 0.05814803
#
# Stress axis : x y z
#
# Youngs Moduli (GPa) = 26.48066 71.99839 91.54793
#
# Poissons Ratio (x) = 0.02997 -0.00624
# Poissons Ratio (y) = 0.01102 0.17081
# Poissons Ratio (z) = -0.00180 0.13433
#
# Static dielectric constant tensor:
#      x y z
#    x 1.713080 0.000000 0.000000 
#    y 0.000000 1.659110 0.000000 
#    z 0.000000 0.000000 1.672950 
# 
# From -- ./inp_files/23924.got.cif
#   From: 2010.05.17/outbox.cif.g08.bks.cpg/sg68_12_cif.got.tgz:23924.got - 2010.06.03 18:57:09.
