data_PCOD9508278
_publ_section_title
;
Structure prediction by ZEFSAII (Michael W. Deem and Ramdas Pophale) SiO2 
 PCOD9508278
Probable space group: C C C A
;
_chemical_formula_sum "Si O2"
_cell_formula_units_Z 88
_cell_length_a 22.052706
_cell_length_b 10.894009
_cell_length_c 17.028947
_cell_angle_alpha 90.000000
_cell_angle_beta 90.000000
_cell_angle_gamma 90.000000
_cell_volume 4091.074716
_symmetry_space_group_name_H-M "C C C A"
_symmetry_group_IT_number 68
_space_group.IT_coordinate_system_code '2'
_symmetry_cell_setting 'orthorhombic'
loop_
_space_group_symop_operation_xyz
x,y,z
-x,1/2-y,z
x,1/2-y,1/2-z
-x,y,1/2-z
-x,-y,-z
x,1/2+y,-z
-x,1/2+y,1/2+z
x,-y,1/2+z
1/2+x,1/2+y,z
1/2-x,-y,z
1/2+x,-y,1/2-z
1/2-x,1/2+y,1/2-z
1/2-x,1/2-y,-z
1/2+x,y,-z
1/2-x,y,1/2+z
1/2+x,1/2-y,1/2+z
loop_
_atom_site_type_symbol
_atom_site_label
_atom_site_fract_x
_atom_site_fract_y
_atom_site_fract_z
Si Si1 0.250000 0.500000 0.920151
Si Si2 0.683310 0.791935 0.339686
Si Si3 0.564288 0.503340 0.848605
Si Si4 0.574352 0.968382 0.331157
Si Si5 0.347772 0.120154 0.969313
Si Si6 0.568021 0.266759 0.085617
O O1 0.265722 0.388049 0.863557
O O2 0.305899 0.537515 0.975631
O O3 0.685047 0.750000 0.250000
O O4 0.690290 0.679841 0.399335
O O5 0.619655 0.862155 0.358382
O O6 0.588049 0.473993 0.761900
O O7 0.496706 0.446415 0.847337
O O8 0.599879 0.453252 0.923612
O O9 0.567789 0.650629 0.856733
O O10 0.579482 0.104143 0.369418
O O11 0.379991 0.226537 0.020463
O O12 0.500000 0.250000 0.049918
#
# Coordination Sequence:
#
# PCOD9508278 Si02
#       6
#     8  16  16  16  16  16
#     4  12  28  52  68  98 140 190 244 298 338 412
#     4  12  26  48  70 102 135 183 238 287 350 417
#     4  10  22  40  70 102 140 181 220 285 351 419
#     4  10  21  44  67 103 140 175 230 280 349 420
#     4  12  25  44  70 103 140 180 234 288 354 414
#     4  10  22  38  67 100 139 181 225 279 345 419
#
# _framework density 21.510238999999999
#
# number of rings (size 3 to 8) (size 9 to 14) (size 15 to 20)
#    0.000    1.091    3.636    2.182    2.545    4.364 
#    3.273    0.000    0.000    0.000    0.000    0.000 
#    0.000    0.000    0.000    0.000    0.000    0.000 
#
# Total GULP energy -245570.565520 kJ/mol
# GULP energy per Si atom -5581.149216 kJ/mol
# Density = 2.146128 g / cm^3
# Si number density = 21.510239 Si / 1000 Ang^3
#
#
#
# Elastic Constant Matrix: (Units=GPa)
#
#
# Indices 1 2 3 4 5 6 
#
# 1 55.5269 11.6966 51.2428 0.0000 0.0000 0.0000
# 2 11.6966 44.6554 34.0073 0.0000 0.0000 0.0000
# 3 51.2428 34.0073 107.5505 0.0000 0.0000 0.0000
# 4 0.0000 0.0000 0.0000 77.8641 0.0000 0.0000
# 5 0.0000 0.0000 0.0000 0.0000 28.6745 0.0000
# 6 0.0000 0.0000 0.0000 0.0000 0.0000 29.6514
#
#
#
# Elastic Compliance Matrix: (Units=1/GPa)
#
#
# Indices 1 2 3 4 5 6 
#
# 1 0.032773 0.004356 -0.016992 0.000000 0.000000 0.000000
# 2 0.004356 0.030075 -0.011585 0.000000 0.000000 0.000000
# 3 -0.016992 -0.011585 0.021057 0.000000 0.000000 0.000000
# 4 0.000000 0.000000 0.000000 0.012843 0.000000 0.000000
# 5 0.000000 0.000000 0.000000 0.000000 0.034874 0.000000
# 6 0.000000 0.000000 0.000000 0.000000 0.000000 0.033725
#
#
# Mechanical properties :
#
#
# Convention : Reuss Voigt Hill
#
# Bulk Modulus (GPa) = 28.19850 44.62513 36.41182
# Shear Modulus (GPa) = 22.16201 34.62373 28.39287
#
# Velocity S-wave (km/s) = 3.21331 4.01638 3.63708
# Velocity P-wave (km/s) = 5.18700 6.50381 5.88237
#
# Compressibility (1/GPa) = 0.03546288
#
# Stress axis : x y z
#
# Youngs Moduli (GPa) = 30.51313 33.24967 47.48977
#
# Poissons Ratio (x) = -0.14484 0.80695
# Poissons Ratio (y) = -0.13292 0.55018
# Poissons Ratio (z) = 0.51848 0.38521
#
# Static dielectric constant tensor:
#      x y z
#    x 1.825190 0.000000 0.000000 
#    y 0.000000 1.834580 0.000000 
#    z 0.000000 0.000000 1.758480 
# 
# From -- ./inp_files/25283.got.cif
#   From: 2010.05.17/outbox.cif.g08.bks.cpg/sg68_13_cif.got.tgz:25283.got - 2010.06.03 18:57:09.
