data_PCOD9508177
_publ_section_title
;
Structure prediction by ZEFSAII (Michael W. Deem and Ramdas Pophale) SiO2 
 PCOD9508177
Probable space group: C C C A
;
_chemical_formula_sum "Si O2"
_cell_formula_units_Z 84
_cell_length_a 8.727703
_cell_length_b 20.057940
_cell_length_c 25.420868
_cell_angle_alpha 90.000000
_cell_angle_beta 90.000000
_cell_angle_gamma 90.000000
_cell_volume 4450.170622
_symmetry_space_group_name_H-M "C C C A"
_symmetry_group_IT_number 68
_space_group.IT_coordinate_system_code '2'
_symmetry_cell_setting 'orthorhombic'
loop_
_space_group_symop_operation_xyz
x,y,z
-x,1/2-y,z
x,1/2-y,1/2-z
-x,y,1/2-z
-x,-y,-z
x,1/2+y,-z
-x,1/2+y,1/2+z
x,-y,1/2+z
1/2+x,1/2+y,z
1/2-x,-y,z
1/2+x,-y,1/2-z
1/2-x,1/2+y,1/2-z
1/2-x,1/2-y,-z
1/2+x,y,-z
1/2-x,y,1/2+z
1/2+x,1/2-y,1/2+z
loop_
_atom_site_type_symbol
_atom_site_label
_atom_site_fract_x
_atom_site_fract_y
_atom_site_fract_z
Si Si1 0.849853 0.662894 0.952841
Si Si2 0.000000 0.250000 0.750000
Si Si3 0.321684 0.572061 0.242583
Si Si4 0.302948 0.422494 0.136552
Si Si5 0.374389 0.360945 0.330774
Si Si6 0.795789 0.179756 0.436946
O O1 0.748701 0.616888 0.915087
O O2 0.811112 0.740161 0.940750
O O3 0.030513 0.652538 0.942153
O O4 0.804140 0.654135 0.013742
O O5 0.919368 0.300190 0.708360
O O6 0.500000 0.568317 0.250000
O O7 0.250000 0.500000 0.234408
O O8 0.284495 0.608156 0.187605
O O9 0.241222 0.598937 0.294127
O O10 0.250000 0.500000 0.129503
O O11 0.479764 0.406339 0.151691
O O12 0.288123 0.337501 0.382971
#
# Coordination Sequence:
#
# PCOD9508177 Si02
#       6
#    16   4  16  16  16  16
#     4  10  21  42  61  96 120 169 210 260 316 374
#     4  12  24  40  62  92 128 160 210 258 318 376
#     4  11  22  39  61  88 122 164 208 255 313 379
#     4  11  22  40  64  89 126 165 208 259 311 376
#     4  12  23  41  61  95 123 168 207 261 318 374
#     4  10  22  38  67  88 127 161 211 263 317 370
#
# _framework density 18.875681
#
# number of rings (size 3 to 8) (size 9 to 14) (size 15 to 20)
#    0.000    1.143    1.905    5.714    0.000    3.048 
#    0.000    4.762    0.000    0.000    0.000    0.000 
#    0.000    0.000    0.000    0.000    0.000    0.000 
#
# Total GULP energy -234282.428316 kJ/mol
# GULP energy per Si atom -5578.153055 kJ/mol
# Density = 1.883272 g / cm^3
# Si number density = 18.875681 Si / 1000 Ang^3
#
#
#
# Elastic Constant Matrix: (Units=GPa)
#
#
# Indices 1 2 3 4 5 6 
#
# 1 136.2121 45.9583 62.1957 0.0000 0.0000 0.0000
# 2 45.9583 51.8991 45.2874 0.0000 0.0000 0.0000
# 3 62.1957 45.2874 184.0232 0.0000 0.0000 0.0000
# 4 0.0000 0.0000 0.0000 25.5119 0.0000 0.0000
# 5 0.0000 0.0000 0.0000 0.0000 43.7757 0.0000
# 6 0.0000 0.0000 0.0000 0.0000 0.0000 21.0944
#
#
#
# Elastic Compliance Matrix: (Units=1/GPa)
#
#
# Indices 1 2 3 4 5 6 
#
# 1 0.010853 -0.008163 -0.001659 0.000000 0.000000 0.000000
# 2 -0.008163 0.030677 -0.004791 0.000000 0.000000 0.000000
# 3 -0.001659 -0.004791 0.007174 0.000000 0.000000 0.000000
# 4 0.000000 0.000000 0.000000 0.039197 0.000000 0.000000
# 5 0.000000 0.000000 0.000000 0.000000 0.022844 0.000000
# 6 0.000000 0.000000 0.000000 0.000000 0.000000 0.047406
#
#
# Mechanical properties :
#
#
# Convention : Reuss Voigt Hill
#
# Bulk Modulus (GPa) = 51.33890 75.44634 63.39262
# Shear Modulus (GPa) = 25.79045 32.65593 29.22319
#
# Velocity S-wave (km/s) = 3.70040 4.16390 3.93898
# Velocity P-wave (km/s) = 6.74647 7.94823 7.37188
#
# Compressibility (1/GPa) = 0.01947841
#
# Stress axis : x y z
#
# Youngs Moduli (GPa) = 92.13708 32.59757 139.39528
#
# Poissons Ratio (x) = 0.26610 0.23130
# Poissons Ratio (y) = 0.75213 0.66778
# Poissons Ratio (z) = 0.15288 0.15616
#
# Static dielectric constant tensor:
#      x y z
#    x 1.653200 0.000000 0.000000 
#    y 0.000000 1.721530 0.000000 
#    z 0.000000 0.000000 1.672370 
# 
# From -- ./inp_files/43041.got.cif
#   From: 2010.05.17/outbox.cif.g08.bks.cpg/sg68_22_cif.got.tgz:43041.got - 2010.06.03 18:57:09.
