data_PCOD9508000
_publ_section_title
;
Structure prediction by ZEFSAII (Michael W. Deem and Ramdas Pophale) SiO2 
 PCOD9508000
Probable space group: C C C A
;
_chemical_formula_sum "Si O2"
_cell_formula_units_Z 100
_cell_length_a 11.058867
_cell_length_b 25.462596
_cell_length_c 16.029899
_cell_angle_alpha 90.000000
_cell_angle_beta 90.000000
_cell_angle_gamma 90.000000
_cell_volume 4513.818586
_symmetry_space_group_name_H-M "C C C A"
_symmetry_group_IT_number 68
_space_group.IT_coordinate_system_code '2'
_symmetry_cell_setting 'orthorhombic'
loop_
_space_group_symop_operation_xyz
x,y,z
-x,1/2-y,z
x,1/2-y,1/2-z
-x,y,1/2-z
-x,-y,-z
x,1/2+y,-z
-x,1/2+y,1/2+z
x,-y,1/2+z
1/2+x,1/2+y,z
1/2-x,-y,z
1/2+x,-y,1/2-z
1/2-x,1/2+y,1/2-z
1/2-x,1/2-y,-z
1/2+x,y,-z
1/2-x,y,1/2+z
1/2+x,1/2-y,1/2+z
loop_
_atom_site_type_symbol
_atom_site_label
_atom_site_fract_x
_atom_site_fract_y
_atom_site_fract_z
Si Si1 0.500000 0.639973 0.750000
Si Si2 0.089455 0.657690 0.073149
Si Si3 0.563513 0.944513 0.991262
Si Si4 0.250000 0.500000 0.875086
Si Si5 0.647179 0.375478 0.871343
Si Si6 0.500000 0.250000 0.750000
Si Si7 0.261997 0.397368 0.805440
Si Si8 0.402539 0.186301 0.602936
O O1 0.533309 0.670806 0.835688
O O2 0.379210 0.606842 0.776374
O O3 0.227967 0.643847 0.090316
O O4 0.096301 0.698725 0.996031
O O5 0.018211 0.604166 0.042445
O O6 0.615451 0.928729 0.080737
O O7 0.500000 0.000000 0.000000
O O8 0.670684 0.959771 0.928758
O O9 0.313128 0.456016 0.819947
O O10 0.663922 0.378106 0.773849
O O11 0.534333 0.338995 0.887749
O O12 0.405897 0.225524 0.681144
O O13 0.298802 0.357318 0.879219
#
# Coordination Sequence:
#
# PCOD9508000 Si02
#       8
#     8  16  16   8  16   4  16  16
#     4  10  22  42  67  93 134 188 219 275 350 422
#     4  10  22  39  66  90 131 180 227 280 354 412
#     4  11  21  34  52  86 129 177 231 279 331 398
#     4  12  22  34  56  90 134 182 232 280 332 420
#     4  10  21  40  62  91 129 183 220 280 351 409
#     4  12  24  48  74 108 132 172 242 292 374 424
#     4  11  22  41  63  97 136 179 230 284 345 406
#     4  11  23  43  72 101 132 175 226 295 352 428
#
# _framework density 22.154192999999999
#
# number of rings (size 3 to 8) (size 9 to 14) (size 15 to 20)
#    0.000    1.280    3.200    3.840    2.240    3.200 
#    2.880    0.800    0.000    0.960    0.000    0.000 
#    0.000    0.000    0.000    0.000    0.000    0.000 
#
# Total GULP energy -278362.804689 kJ/mol
# GULP energy per Si atom -5567.256094 kJ/mol
# Density = 2.210377 g / cm^3
# Si number density = 22.154193 Si / 1000 Ang^3
#
#
#
# Elastic Constant Matrix: (Units=GPa)
#
#
# Indices 1 2 3 4 5 6 
#
# 1 78.3630 -1.4258 3.0416 0.0000 0.0000 0.0000
# 2 -1.4258 35.1649 23.7354 0.0000 0.0000 0.0000
# 3 3.0416 23.7354 154.7875 0.0000 0.0000 0.0000
# 4 0.0000 0.0000 0.0000 41.6279 0.0000 0.0000
# 5 0.0000 0.0000 0.0000 0.0000 157.6828 0.0000
# 6 0.0000 0.0000 0.0000 0.0000 0.0000 19.7628
#
#
#
# Elastic Compliance Matrix: (Units=1/GPa)
#
#
# Indices 1 2 3 4 5 6 
#
# 1 0.012789 0.000768 -0.000369 0.000000 0.000000 0.000000
# 2 0.000768 0.031767 -0.004886 0.000000 0.000000 0.000000
# 3 -0.000369 -0.004886 0.007217 0.000000 0.000000 0.000000
# 4 0.000000 0.000000 0.000000 0.024022 0.000000 0.000000
# 5 0.000000 0.000000 0.000000 0.000000 0.006342 0.000000
# 6 0.000000 0.000000 0.000000 0.000000 0.000000 0.050600
#
#
# Mechanical properties :
#
#
# Convention : Reuss Voigt Hill
#
# Bulk Modulus (GPa) = 23.36569 35.44642 29.40606
# Shear Modulus (GPa) = 32.05568 60.01231 46.03400
#
# Velocity S-wave (km/s) = 3.80799 5.21030 4.56333
# Velocity P-wave (km/s) = 5.46846 7.22710 6.40840
#
# Compressibility (1/GPa) = 0.04279779
#
# Stress axis : x y z
#
# Youngs Moduli (GPa) = 78.18967 31.47955 138.56201
#
# Poissons Ratio (x) = -0.02416 0.05113
# Poissons Ratio (y) = -0.06002 0.67705
# Poissons Ratio (z) = 0.02885 0.15382
#
# Static dielectric constant tensor:
#      x y z
#    x 2.174210 0.000000 0.000000 
#    y 0.000000 1.970810 0.000000 
#    z 0.000000 0.000000 -2.879700 
# 
# From -- ./inp_files/21222.got.cif
#   From: 2010.05.17/outbox.cif.g08.bks.cpg/sg68_11_cif.got.tgz:21222.got - 2010.06.03 18:57:09.
