data_PCOD9508422
_publ_section_title
;
Structure prediction by ZEFSAII (Michael W. Deem and Ramdas Pophale) SiO2 
 PCOD9508422
Probable space group: C C C A
;
_chemical_formula_sum "Si O2"
_cell_formula_units_Z 96
_cell_length_a 14.538297
_cell_length_b 14.635128
_cell_length_c 21.107490
_cell_angle_alpha 90.000000
_cell_angle_beta 90.000000
_cell_angle_gamma 90.000000
_cell_volume 4491.037217
_symmetry_space_group_name_H-M "C C C A"
_symmetry_group_IT_number 68
_space_group.IT_coordinate_system_code '2'
_symmetry_cell_setting 'orthorhombic'
loop_
_space_group_symop_operation_xyz
x,y,z
-x,1/2-y,z
x,1/2-y,1/2-z
-x,y,1/2-z
-x,-y,-z
x,1/2+y,-z
-x,1/2+y,1/2+z
x,-y,1/2+z
1/2+x,1/2+y,z
1/2-x,-y,z
1/2+x,-y,1/2-z
1/2-x,1/2+y,1/2-z
1/2-x,1/2-y,-z
1/2+x,y,-z
1/2-x,y,1/2+z
1/2+x,1/2-y,1/2+z
loop_
_atom_site_type_symbol
_atom_site_label
_atom_site_fract_x
_atom_site_fract_y
_atom_site_fract_z
Si Si1 0.326779 0.843243 0.864090
Si Si2 0.500000 0.250000 0.134091
Si Si3 0.420057 0.430850 0.799354
Si Si4 0.214491 0.664070 0.891754
Si Si5 0.092297 0.571389 0.405191
Si Si6 0.750000 0.500000 0.279656
Si Si7 0.655954 0.444414 0.490304
O O1 0.414476 0.796212 0.830084
O O2 0.258412 0.763744 0.887472
O O3 0.270952 0.911524 0.821066
O O4 0.367055 0.900185 0.923438
O O5 0.546985 0.329630 0.093243
O O6 0.500000 0.403405 0.750000
O O7 0.364177 0.354089 0.839311
O O8 0.451454 0.505110 0.852165
O O9 0.340769 0.480548 0.759931
O O10 0.301272 0.593729 0.885258
O O11 0.172960 0.637319 0.959692
O O12 0.094495 0.517241 0.471254
O O13 0.750000 0.500000 0.479324
#
# Coordination Sequence:
#
# PCOD9508422 Si02
#       7
#    16   8  16  16  16   8  16
#     4  11  22  38  61  95 127 162 214 269 323 389
#     4  10  22  38  59  98 126 164 215 268 320 396
#     4  11  21  40  65  89 125 174 215 265 331 389
#     4   9  19  38  64  88 123 168 216 258 318 386
#     4   9  18  38  62  91 128 167 214 263 325 392
#     4  12  24  40  62  96 132 164 212 276 328 392
#     4   9  17  35  65  90 119 169 210 259 322 388
#
# _framework density 21.375909
#
# number of rings (size 3 to 8) (size 9 to 14) (size 15 to 20)
#    0.000    2.000    2.500    2.500    0.000    1.333 
#    0.000    4.583    0.000    0.000    0.000    0.000 
#    0.000    0.000    0.000    0.000    0.000    0.000 
#
# Total GULP energy -267794.327347 kJ/mol
# GULP energy per Si atom -5579.048486 kJ/mol
# Density = 2.132726 g / cm^3
# Si number density = 21.375909 Si / 1000 Ang^3
#
#
#
# Elastic Constant Matrix: (Units=GPa)
#
#
# Indices 1 2 3 4 5 6 
#
# 1 86.1440 26.7834 24.7116 0.0000 0.0000 0.0000
# 2 26.7834 110.2547 20.8857 0.0000 0.0000 0.0000
# 3 24.7116 20.8857 66.4633 0.0000 0.0000 0.0000
# 4 0.0000 0.0000 0.0000 1.5529 0.0000 0.0000
# 5 0.0000 0.0000 0.0000 0.0000 27.3803 0.0000
# 6 0.0000 0.0000 0.0000 0.0000 0.0000 39.0159
#
#
#
# Elastic Compliance Matrix: (Units=1/GPa)
#
#
# Indices 1 2 3 4 5 6 
#
# 1 0.013611 -0.002496 -0.004276 0.000000 0.000000 0.000000
# 2 -0.002496 0.010102 -0.002246 0.000000 0.000000 0.000000
# 3 -0.004276 -0.002246 0.017342 0.000000 0.000000 0.000000
# 4 0.000000 0.000000 0.000000 0.643955 0.000000 0.000000
# 5 0.000000 0.000000 0.000000 0.000000 0.036523 0.000000
# 6 0.000000 0.000000 0.000000 0.000000 0.000000 0.025631
#
#
# Mechanical properties :
#
#
# Convention : Reuss Voigt Hill
#
# Bulk Modulus (GPa) = 43.44627 45.29148 44.36888
# Shear Modulus (GPa) = 6.46937 26.28858 16.37897
#
# Velocity S-wave (km/s) = 1.74156 3.51069 2.77110
# Velocity P-wave (km/s) = 4.94096 6.13737 5.57137
#
# Compressibility (1/GPa) = 0.02301693
#
# Stress axis : x y z
#
# Youngs Moduli (GPa) = 73.46797 98.99165 57.66434
#
# Poissons Ratio (x) = 0.24713 0.24659
# Poissons Ratio (y) = 0.18341 0.12953
# Poissons Ratio (z) = 0.31417 0.22236
#
# Static dielectric constant tensor:
#      x y z
#    x 1.889080 0.000000 0.000000 
#    y 0.000000 1.782570 0.000000 
#    z 0.000000 0.000000 1.771510 
# 
# From -- ./inp_files/38605.got.cif
#   From: 2010.05.17/outbox.cif.g08.bks.cpg/sg68_20_cif.got.tgz:38605.got - 2010.06.03 18:57:09.
