data_PCOD9508769
_publ_section_title
;
Structure prediction by ZEFSAII (Michael W. Deem and Ramdas Pophale) SiO2 
 PCOD9508769
Probable space group: C C C A
;
_chemical_formula_sum "Si O2"
_cell_formula_units_Z 116
_cell_length_a 17.249328
_cell_length_b 10.758879
_cell_length_c 26.885465
_cell_angle_alpha 90.000000
_cell_angle_beta 90.000000
_cell_angle_gamma 90.000000
_cell_volume 4989.496887
_symmetry_space_group_name_H-M "C C C A"
_symmetry_group_IT_number 68
_space_group.IT_coordinate_system_code '2'
_symmetry_cell_setting 'orthorhombic'
loop_
_space_group_symop_operation_xyz
x,y,z
-x,1/2-y,z
x,1/2-y,1/2-z
-x,y,1/2-z
-x,-y,-z
x,1/2+y,-z
-x,1/2+y,1/2+z
x,-y,1/2+z
1/2+x,1/2+y,z
1/2-x,-y,z
1/2+x,-y,1/2-z
1/2-x,1/2+y,1/2-z
1/2-x,1/2-y,-z
1/2+x,y,-z
1/2-x,y,1/2+z
1/2+x,1/2-y,1/2+z
loop_
_atom_site_type_symbol
_atom_site_label
_atom_site_fract_x
_atom_site_fract_y
_atom_site_fract_z
Si Si1 0.068797 0.835196 0.589568
Si Si2 0.672150 0.336556 0.968071
Si Si3 0.622939 0.204928 0.801120
Si Si4 0.537682 0.020825 0.053725
Si Si5 0.338680 0.715120 0.565167
Si Si6 0.138312 0.423366 0.767086
Si Si7 0.000000 0.250000 0.750000
Si Si8 0.286652 0.705659 0.678675
O O1 0.143361 0.795677 0.556799
O O2 0.081102 0.798332 0.646291
O O3 0.000000 0.750000 0.567243
O O4 0.031442 0.972201 0.588646
O O5 0.615151 0.435093 0.942781
O O6 0.762728 0.354509 0.957836
O O7 0.658327 0.331569 0.027341
O O8 0.584741 0.250000 0.750000
O O9 0.694761 0.299244 0.812320
O O10 0.639701 0.061239 0.787171
O O11 0.576877 0.153196 0.061190
O O12 0.500000 0.000000 0.000000
O O13 0.314831 0.718945 0.622537
O O14 0.058070 0.347665 0.776187
O O15 0.165226 0.397683 0.709793
O O16 0.197732 0.338876 0.796781
#
# Coordination Sequence:
#
# PCOD9508769 Si02
#       8
#    16  16  16  16  16  16   4  16
#     4  10  23  42  62  93 138 173 221 291 344 417
#     4  10  22  42  63  94 133 171 223 283 336 419
#     4  12  24  42  68  98 138 180 236 288 356 413
#     4  11  23  41  65  96 134 180 218 284 358 412
#     4  11  22  41  69  96 131 176 232 277 343 425
#     4  10  23  43  68  93 137 174 222 294 344 412
#     4   8  20  44  66  88 132 168 214 274 336 412
#     4  10  22  42  65 101 126 180 231 279 354 407
#
# _framework density 23.248837999999999
#
# number of rings (size 3 to 8) (size 9 to 14) (size 15 to 20)
#    0.000    1.655    4.138    0.828    0.000    6.897 
#    2.483    4.138    0.000    0.000    0.000    0.000 
#    0.000    0.000    0.000    0.000    0.000    0.000 
#
# Total GULP energy -323165.810037 kJ/mol
# GULP energy per Si atom -5571.824311 kJ/mol
# Density = 2.319592 g / cm^3
# Si number density = 23.248838 Si / 1000 Ang^3
#
#
#
# Elastic Constant Matrix: (Units=GPa)
#
#
# Indices 1 2 3 4 5 6 
#
# 1 109.4759 17.0389 24.3834 0.0000 0.0000 0.0000
# 2 17.0389 48.5773 -5.5781 0.0000 0.0000 0.0000
# 3 24.3834 -5.5781 143.0350 0.0000 0.0000 0.0000
# 4 0.0000 0.0000 0.0000 17.6392 0.0000 0.0000
# 5 0.0000 0.0000 0.0000 0.0000 17.8648 0.0000
# 6 0.0000 0.0000 0.0000 0.0000 0.0000 26.9986
#
#
#
# Elastic Compliance Matrix: (Units=1/GPa)
#
#
# Indices 1 2 3 4 5 6 
#
# 1 0.010139 -0.003772 -0.001876 0.000000 0.000000 0.000000
# 2 -0.003772 0.022081 0.001504 0.000000 0.000000 0.000000
# 3 -0.001876 0.001504 0.007370 0.000000 0.000000 0.000000
# 4 0.000000 0.000000 0.000000 0.056692 0.000000 0.000000
# 5 0.000000 0.000000 0.000000 0.000000 0.055976 0.000000
# 6 0.000000 0.000000 0.000000 0.000000 0.000000 0.037039
#
#
# Mechanical properties :
#
#
# Convention : Reuss Voigt Hill
#
# Bulk Modulus (GPa) = 31.94488 41.41963 36.68226
# Shear Modulus (GPa) = 24.03636 30.18347 27.10992
#
# Velocity S-wave (km/s) = 3.21888 3.60707 3.41849
# Velocity P-wave (km/s) = 5.25216 5.93316 5.60302
#
# Compressibility (1/GPa) = 0.03130392
#
# Stress axis : x y z
#
# Youngs Moduli (GPa) = 98.62706 45.28691 135.69115
#
# Poissons Ratio (x) = 0.17081 0.25449
# Poissons Ratio (y) = 0.37200 -0.20410
# Poissons Ratio (z) = 0.18498 -0.06812
#
# Static dielectric constant tensor:
#      x y z
#    x 2.073020 0.000000 0.000000 
#    y 0.000000 1.987330 0.000000 
#    z 0.000000 0.000000 1.871080 
# 
# From -- ./inp_files/51482.got.cif
#   From: 2010.05.17/outbox.cif.g08.bks.cpg/sg68_26_cif.got.tgz:51482.got - 2010.06.03 18:57:09.
