data_PCOD9508503
_publ_section_title
;
Structure prediction by ZEFSAII (Michael W. Deem and Ramdas Pophale) SiO2 
 PCOD9508503
Probable space group: C C C A
;
_chemical_formula_sum "Si O2"
_cell_formula_units_Z 116
_cell_length_a 24.017442
_cell_length_b 17.685675
_cell_length_c 12.971993
_cell_angle_alpha 90.000000
_cell_angle_beta 90.000000
_cell_angle_gamma 90.000000
_cell_volume 5510.044372
_symmetry_space_group_name_H-M "C C C A"
_symmetry_group_IT_number 68
_space_group.IT_coordinate_system_code '2'
_symmetry_cell_setting 'orthorhombic'
loop_
_space_group_symop_operation_xyz
x,y,z
-x,1/2-y,z
x,1/2-y,1/2-z
-x,y,1/2-z
-x,-y,-z
x,1/2+y,-z
-x,1/2+y,1/2+z
x,-y,1/2+z
1/2+x,1/2+y,z
1/2-x,-y,z
1/2+x,-y,1/2-z
1/2-x,1/2+y,1/2-z
1/2-x,1/2-y,-z
1/2+x,y,-z
1/2-x,y,1/2+z
1/2+x,1/2-y,1/2+z
loop_
_atom_site_type_symbol
_atom_site_label
_atom_site_fract_x
_atom_site_fract_y
_atom_site_fract_z
Si Si1 0.816526 0.411016 0.731234
Si Si2 0.931018 0.579552 0.959299
Si Si3 0.367532 0.569985 0.246809
Si Si4 0.600030 0.673470 0.867820
Si Si5 0.223265 0.318918 0.175237
Si Si6 0.000000 0.750000 0.250000
Si Si7 0.334127 0.813704 0.540761
Si Si8 0.442558 0.419943 0.940138
O O1 0.827599 0.499966 0.722923
O O2 0.872832 0.374469 0.776075
O O3 0.770065 0.383767 0.812667
O O4 0.805323 0.370941 0.621763
O O5 0.901044 0.549313 0.856518
O O6 0.993435 0.605799 0.935165
O O7 0.890159 0.643176 0.003357
O O8 0.938762 0.509617 0.036725
O O9 0.331212 0.643167 0.223495
O O10 0.410597 0.590633 0.334732
O O11 0.541908 0.704332 0.823692
O O12 0.643579 0.739251 0.900850
O O13 0.587757 0.623550 0.967680
O O14 0.239973 0.250000 0.250000
O O15 0.205403 0.299181 0.058279
#
# Coordination Sequence:
#
# PCOD9508503 Si02
#       8
#    16  16  16  16  16   4  16  16
#     4  12  24  44  67  99 130 174 228 286 338 407
#     4  10  22  39  62  94 132 174 215 268 334 401
#     4  11  23  44  65  97 133 173 228 282 334 408
#     4  12  24  39  68  99 137 175 227 274 348 401
#     4  11  26  45  68  94 132 181 229 282 343 403
#     4  12  24  40  64 108 142 176 222 296 330 420
#     4  11  23  45  65  95 139 171 222 288 337 405
#     4  11  22  38  66  95 131 178 215 268 336 405
#
# _framework density 21.052461000000001
#
# number of rings (size 3 to 8) (size 9 to 14) (size 15 to 20)
#    0.000    0.828    4.138    3.310    0.000    3.310 
#    0.000    1.379    0.000    2.483    0.000    0.000 
#    0.000    0.000    0.000    0.000    0.000    0.000 
#
# Total GULP energy -324278.000262 kJ/mol
# GULP energy per Si atom -5591.000005 kJ/mol
# Density = 2.100454 g / cm^3
# Si number density = 21.052461 Si / 1000 Ang^3
#
#
#
# Elastic Constant Matrix: (Units=GPa)
#
#
# Indices 1 2 3 4 5 6 
#
# 1 57.1655 -13.3395 15.1553 0.0000 0.0000 0.0000
# 2 -13.3395 49.8898 19.7761 0.0000 0.0000 0.0000
# 3 15.1553 19.7761 62.6254 0.0000 0.0000 0.0000
# 4 0.0000 0.0000 0.0000 22.2098 0.0000 0.0000
# 5 0.0000 0.0000 0.0000 0.0000 38.7359 0.0000
# 6 0.0000 0.0000 0.0000 0.0000 0.0000 22.5329
#
#
#
# Elastic Compliance Matrix: (Units=1/GPa)
#
#
# Indices 1 2 3 4 5 6 
#
# 1 0.021753 0.009034 -0.008117 0.000000 0.000000 0.000000
# 2 0.009034 0.026664 -0.010606 0.000000 0.000000 0.000000
# 3 -0.008117 -0.010606 0.021282 0.000000 0.000000 0.000000
# 4 0.000000 0.000000 0.000000 0.045025 0.000000 0.000000
# 5 0.000000 0.000000 0.000000 0.000000 0.025816 0.000000
# 6 0.000000 0.000000 0.000000 0.000000 0.000000 0.044380
#
#
# Mechanical properties :
#
#
# Convention : Reuss Voigt Hill
#
# Bulk Modulus (GPa) = 19.87290 23.65161 21.76226
# Shear Modulus (GPa) = 22.61718 26.56832 24.59275
#
# Velocity S-wave (km/s) = 3.28125 3.55633 3.42155
# Velocity P-wave (km/s) = 4.88013 5.30304 5.09597
#
# Compressibility (1/GPa) = 0.05031978
#
# Stress axis : x y z
#
# Youngs Moduli (GPa) = 45.97069 37.50384 46.98909
#
# Poissons Ratio (x) = -0.33880 0.38141
# Poissons Ratio (y) = -0.41529 0.49838
# Poissons Ratio (z) = 0.37314 0.39777
#
# Static dielectric constant tensor:
#      x y z
#    x 1.747690 0.000000 0.000000 
#    y 0.000000 1.755330 0.000000 
#    z 0.000000 0.000000 1.747910 
# 
# From -- ./inp_files/14827.got.cif
#   From: 2010.05.17/outbox.cif.g08.bks.cpg/sg68_8_cif.got.tgz:14827.got - 2010.06.03 18:57:09.
