data_PCOD9508618
_publ_section_title
;
Structure prediction by ZEFSAII (Michael W. Deem and Ramdas Pophale) SiO2 
 PCOD9508618
Probable space group: C C C A
;
_chemical_formula_sum "Si O2"
_cell_formula_units_Z 64
_cell_length_a 8.711407
_cell_length_b 12.353883
_cell_length_c 27.850222
_cell_angle_alpha 90.000000
_cell_angle_beta 90.000000
_cell_angle_gamma 90.000000
_cell_volume 2997.232616
_symmetry_space_group_name_H-M "C C C A"
_symmetry_group_IT_number 68
_space_group.IT_coordinate_system_code '2'
_symmetry_cell_setting 'orthorhombic'
loop_
_space_group_symop_operation_xyz
x,y,z
-x,1/2-y,z
x,1/2-y,1/2-z
-x,y,1/2-z
-x,-y,-z
x,1/2+y,-z
-x,1/2+y,1/2+z
x,-y,1/2+z
1/2+x,1/2+y,z
1/2-x,-y,z
1/2+x,-y,1/2-z
1/2-x,1/2+y,1/2-z
1/2-x,1/2-y,-z
1/2+x,y,-z
1/2-x,y,1/2+z
1/2+x,1/2-y,1/2+z
loop_
_atom_site_type_symbol
_atom_site_label
_atom_site_fract_x
_atom_site_fract_y
_atom_site_fract_z
Si Si1 0.433059 0.480220 0.851902
Si Si2 0.500000 0.565898 0.750000
Si Si3 0.000000 0.250000 0.334572
Si Si4 0.750000 0.500000 0.002538
Si Si5 0.012109 0.378440 0.561985
Si Si6 0.745840 0.750000 0.250000
O O1 0.250000 0.500000 0.853844
O O2 0.489605 0.494741 0.797461
O O3 0.478189 0.358041 0.865715
O O4 0.513775 0.567923 0.885513
O O5 0.646776 0.644567 0.749684
O O6 0.144135 0.247096 0.298056
O O7 0.656257 0.581965 0.968943
O O8 0.865912 0.567874 0.035524
O O9 0.000000 0.250000 0.564565
#
# Coordination Sequence:
#
# PCOD9508618 Si02
#       6
#    16   8   8   8  16   8
#     4  12  26  44  67 105 145 187 236 289 347 421
#     4  11  24  41  66  98 142 185 235 280 348 406
#     4  11  24  42  64  94 140 184 234 288 342 399
#     4  10  24  50  74 110 138 182 230 298 362 418
#     4  11  25  47  77 107 143 181 236 291 356 422
#     4  10  22  40  66  92 130 192 236 288 334 404
#
# _framework density 21.353028999999999
#
# number of rings (size 3 to 8) (size 9 to 14) (size 15 to 20)
#    0.000    1.000    3.750    2.250    3.500    4.000 
#    9.000    0.000    0.000    0.000    0.000    0.000 
#    0.000    0.000    0.000    0.000    0.000    0.000 
#
# Total GULP energy -179224.309645 kJ/mol
# GULP energy per Si atom -5600.759676 kJ/mol
# Density = 2.130443 g / cm^3
# Si number density = 21.353029 Si / 1000 Ang^3
#
#
#
# Elastic Constant Matrix: (Units=GPa)
#
#
# Indices 1 2 3 4 5 6 
#
# 1 67.2124 22.7021 4.3347 0.0000 0.0000 0.0000
# 2 22.7021 187.9254 32.4599 0.0000 0.0000 0.0000
# 3 4.3347 32.4599 93.1725 0.0000 0.0000 0.0000
# 4 0.0000 0.0000 0.0000 -47.7700 0.0000 0.0000
# 5 0.0000 0.0000 0.0000 0.0000 10.4819 0.0000
# 6 0.0000 0.0000 0.0000 0.0000 0.0000 10.1729
#
#
#
# Elastic Compliance Matrix: (Units=1/GPa)
#
#
# Indices 1 2 3 4 5 6 
#
# 1 0.015512 -0.001861 -0.000073 0.000000 0.000000 0.000000
# 2 -0.001861 0.005885 -0.001964 0.000000 0.000000 0.000000
# 3 -0.000073 -0.001964 0.011420 0.000000 0.000000 0.000000
# 4 0.000000 0.000000 0.000000 -0.020934 0.000000 0.000000
# 5 0.000000 0.000000 0.000000 0.000000 0.095402 0.000000
# 6 0.000000 0.000000 0.000000 0.000000 0.000000 0.098300
#
#
# Mechanical properties :
#
#
# Convention : Reuss Voigt Hill
#
# Bulk Modulus (GPa) = 39.96672 51.92262 45.94467
# Shear Modulus (GPa) = 22.55070 13.83122 18.19096
#
# Velocity S-wave (km/s) = 3.25328 2.54784 2.92192
# Velocity P-wave (km/s) = 5.73319 5.74668 5.73994
#
# Compressibility (1/GPa) = 0.02502082
#
# Stress axis : x y z
#
# Youngs Moduli (GPa) = 64.46795 169.91499 87.56311
#
# Poissons Ratio (x) = 0.31625 0.00641
# Poissons Ratio (y) = 0.11999 0.17195
# Poissons Ratio (z) = 0.00472 0.33367
#
# Static dielectric constant tensor:
#      x y z
#    x 1.809200 0.000000 0.000000 
#    y 0.000000 1.784430 0.000000 
#    z 0.000000 0.000000 1.746520 
# 
# From -- ./inp_files/53845.got.cif
#   From: 2010.05.17/outbox.cif.g08.bks.cpg/sg68_27_cif.got.tgz:53845.got - 2010.06.03 18:57:09.
