data_PCOD9508937
_publ_section_title
;
Structure prediction by ZEFSAII (Michael W. Deem and Ramdas Pophale) SiO2 
 PCOD9508937
Probable space group: C C C A
;
_chemical_formula_sum "Si O2"
_cell_formula_units_Z 88
_cell_length_a 20.511035
_cell_length_b 13.837524
_cell_length_c 15.578063
_cell_angle_alpha 90.000000
_cell_angle_beta 90.000000
_cell_angle_gamma 90.000000
_cell_volume 4421.396048
_symmetry_space_group_name_H-M "C C C A"
_symmetry_group_IT_number 68
_space_group.IT_coordinate_system_code '2'
_symmetry_cell_setting 'orthorhombic'
loop_
_space_group_symop_operation_xyz
x,y,z
-x,1/2-y,z
x,1/2-y,1/2-z
-x,y,1/2-z
-x,-y,-z
x,1/2+y,-z
-x,1/2+y,1/2+z
x,-y,1/2+z
1/2+x,1/2+y,z
1/2-x,-y,z
1/2+x,-y,1/2-z
1/2-x,1/2+y,1/2-z
1/2-x,1/2-y,-z
1/2+x,y,-z
1/2-x,y,1/2+z
1/2+x,1/2-y,1/2+z
loop_
_atom_site_type_symbol
_atom_site_label
_atom_site_fract_x
_atom_site_fract_y
_atom_site_fract_z
Si Si1 0.433883 0.558642 0.348017
Si Si2 0.059450 0.644817 0.572406
Si Si3 0.623734 0.939878 0.533435
Si Si4 0.250000 0.500000 0.120150
Si Si5 0.843620 0.655092 0.794748
Si Si6 0.500760 0.147716 0.386082
O O1 0.494326 0.628403 0.372323
O O2 0.387707 0.565132 0.431787
O O3 0.394606 0.595667 0.265653
O O4 0.465281 0.448964 0.345627
O O5 0.094346 0.542366 0.561411
O O6 0.113411 0.699970 0.626743
O O7 0.039491 0.667327 0.475664
O O8 0.697977 0.941083 0.562754
O O9 0.573748 0.872187 0.584899
O O10 0.210077 0.421596 0.175200
O O11 0.815074 0.750000 0.750000
O O12 0.500000 0.250000 0.339059
#
# Coordination Sequence:
#
# PCOD9508937 Si02
#       6
#    16  16  16   8  16  16
#     4   9  18  34  55  88 116 142 189 244 291 349
#     4   8  17  32  55  83 117 142 176 239 296 348
#     4   8  17  35  57  74 110 156 187 236 288 341
#     4  10  22  44  54  70 118 162 200 244 282 350
#     4  11  23  36  57  84 116 154 194 239 305 351
#     4   9  17  32  59  91 114 144 191 238 301 351
#
# _framework density 19.903214999999999
#
# number of rings (size 3 to 8) (size 9 to 14) (size 15 to 20)
#    0.000    2.909    0.000    2.727    5.091    1.455 
#    3.273    0.909    0.000    9.818    0.000    0.000 
#    0.000    0.000    0.000    0.000    0.000    0.000 
#
# Total GULP energy -245031.130075 kJ/mol
# GULP energy per Si atom -5568.889320 kJ/mol
# Density = 1.985791 g / cm^3
# Si number density = 19.903215 Si / 1000 Ang^3
#
#
#
# Elastic Constant Matrix: (Units=GPa)
#
#
# Indices 1 2 3 4 5 6 
#
# 1 107.9660 31.9365 60.7455 0.0000 0.0000 0.0000
# 2 31.9365 99.7474 19.7435 0.0000 0.0000 0.0000
# 3 60.7455 19.7435 87.0360 0.0000 0.0000 0.0000
# 4 0.0000 0.0000 0.0000 6.7491 0.0000 0.0000
# 5 0.0000 0.0000 0.0000 0.0000 24.8534 0.0000
# 6 0.0000 0.0000 0.0000 0.0000 0.0000 21.6705
#
#
#
# Elastic Compliance Matrix: (Units=1/GPa)
#
#
# Indices 1 2 3 4 5 6 
#
# 1 0.016101 -0.003069 -0.010541 0.000000 0.000000 0.000000
# 2 -0.003069 0.011081 -0.000372 0.000000 0.000000 0.000000
# 3 -0.010541 -0.000372 0.018931 0.000000 0.000000 0.000000
# 4 0.000000 0.000000 0.000000 0.148168 0.000000 0.000000
# 5 0.000000 0.000000 0.000000 0.000000 0.040236 0.000000
# 6 0.000000 0.000000 0.000000 0.000000 0.000000 0.046146
#
#
# Mechanical properties :
#
#
# Convention : Reuss Voigt Hill
#
# Bulk Modulus (GPa) = 55.09802 57.73338 56.41570
# Shear Modulus (GPa) = 15.88933 22.80952 19.34942
#
# Velocity S-wave (km/s) = 2.82854 3.38897 3.12136
# Velocity P-wave (km/s) = 6.19763 6.66209 6.43405
#
# Compressibility (1/GPa) = 0.01814947
#
# Stress axis : x y z
#
# Youngs Moduli (GPa) = 62.10912 90.24095 52.82355
#
# Poissons Ratio (x) = 0.27691 0.55682
# Poissons Ratio (y) = 0.19059 0.01965
# Poissons Ratio (z) = 0.65470 0.03358
#
# Static dielectric constant tensor:
#      x y z
#    x 1.719610 0.000000 0.000000 
#    y 0.000000 1.769490 0.000000 
#    z 0.000000 0.000000 1.795660 
# 
# From -- ./inp_files/32943.got.cif
#   From: 2010.05.17/outbox.cif.g08.bks.cpg/sg68_17_cif.got.tgz:32943.got - 2010.06.03 18:57:09.
