data_PCOD9508817
_publ_section_title
;
Structure prediction by ZEFSAII (Michael W. Deem and Ramdas Pophale) SiO2 
 PCOD9508817
Probable space group: C C C A
;
_chemical_formula_sum "Si O2"
_cell_formula_units_Z 88
_cell_length_a 23.840394
_cell_length_b 8.914880
_cell_length_c 19.131893
_cell_angle_alpha 90.000000
_cell_angle_beta 90.000000
_cell_angle_gamma 90.000000
_cell_volume 4066.182562
_symmetry_space_group_name_H-M "C C C A"
_symmetry_group_IT_number 68
_space_group.IT_coordinate_system_code '2'
_symmetry_cell_setting 'orthorhombic'
loop_
_space_group_symop_operation_xyz
x,y,z
-x,1/2-y,z
x,1/2-y,1/2-z
-x,y,1/2-z
-x,-y,-z
x,1/2+y,-z
-x,1/2+y,1/2+z
x,-y,1/2+z
1/2+x,1/2+y,z
1/2-x,-y,z
1/2+x,-y,1/2-z
1/2-x,1/2+y,1/2-z
1/2-x,1/2-y,-z
1/2+x,y,-z
1/2-x,y,1/2+z
1/2+x,1/2-y,1/2+z
loop_
_atom_site_type_symbol
_atom_site_label
_atom_site_fract_x
_atom_site_fract_y
_atom_site_fract_z
Si Si1 0.315055 0.975201 0.586755
Si Si2 0.500000 0.250000 0.250000
Si Si3 0.070311 0.017097 0.299641
Si Si4 0.547848 0.558840 0.447496
Si Si5 0.375648 0.800140 0.984531
Si Si6 0.689254 0.431808 0.250101
Si Si7 0.500000 0.250000 0.750000
O O1 0.336104 0.814943 0.556917
O O2 0.322459 0.978134 0.669815
O O3 0.250000 0.000000 0.571413
O O4 0.346597 0.108760 0.546915
O O5 0.540744 0.355585 0.294331
O O6 0.041004 0.098152 0.366298
O O7 0.137050 0.994828 0.294828
O O8 0.048375 0.119677 0.235873
O O9 0.500000 0.500000 0.500000
O O10 0.575073 0.699284 0.484804
O O11 0.594567 0.428266 0.439794
O O12 0.691227 0.250000 0.250000
O O13 0.750000 0.500000 0.270823
#
# Coordination Sequence:
#
# PCOD9508817 Si02
#       7
#    16   4  16  16  16  16   4
#     4  10  22  42  68  97 135 180 232 283 344 411
#     4  10  24  42  68  90 128 190 220 286 344 430
#     4  11  25  44  66 100 139 177 235 284 357 415
#     4  11  25  40  66  95 132 176 223 285 340 414
#     4  10  23  39  64  97 132 180 217 283 340 412
#     4  11  25  44  72 102 140 189 237 295 350 423
#     4  10  28  38  68  98 132 186 220 294 344 422
#
# _framework density 21.641919999999999
#
# number of rings (size 3 to 8) (size 9 to 14) (size 15 to 20)
#    0.000    1.455    0.909    2.182    8.909    4.364 
#    0.000    4.545    0.000    0.000    0.000    0.000 
#    0.000    0.000    0.000    0.000    0.000    0.000 
#
# Total GULP energy -245189.909755 kJ/mol
# GULP energy per Si atom -5572.497949 kJ/mol
# Density = 2.159266 g / cm^3
# Si number density = 21.641920 Si / 1000 Ang^3
#
#
#
# Elastic Constant Matrix: (Units=GPa)
#
#
# Indices 1 2 3 4 5 6 
#
# 1 147.0573 46.3459 53.3100 0.0000 0.0000 0.0000
# 2 46.3459 93.3680 2.5629 0.0000 0.0000 0.0000
# 3 53.3100 2.5629 81.7589 0.0000 0.0000 0.0000
# 4 0.0000 0.0000 0.0000 4.2283 0.0000 0.0000
# 5 0.0000 0.0000 0.0000 0.0000 36.0818 0.0000
# 6 0.0000 0.0000 0.0000 0.0000 0.0000 20.7035
#
#
#
# Elastic Compliance Matrix: (Units=1/GPa)
#
#
# Indices 1 2 3 4 5 6 
#
# 1 0.011001 -0.005268 -0.007008 0.000000 0.000000 0.000000
# 2 -0.005268 0.013242 0.003020 0.000000 0.000000 0.000000
# 3 -0.007008 0.003020 0.016706 0.000000 0.000000 0.000000
# 4 0.000000 0.000000 0.000000 0.236504 0.000000 0.000000
# 5 0.000000 0.000000 0.000000 0.000000 0.027715 0.000000
# 6 0.000000 0.000000 0.000000 0.000000 0.000000 0.048301
#
#
# Mechanical properties :
#
#
# Convention : Reuss Voigt Hill
#
# Bulk Modulus (GPa) = 44.56935 58.51352 51.54144
# Shear Modulus (GPa) = 13.17661 26.86708 20.02184
#
# Velocity S-wave (km/s) = 2.47016 3.52723 3.04491
# Velocity P-wave (km/s) = 5.36417 6.60941 6.01907
#
# Compressibility (1/GPa) = 0.02243694
#
# Stress axis : x y z
#
# Youngs Moduli (GPa) = 90.90256 75.51476 59.85947
#
# Poissons Ratio (x) = 0.39783 0.41948
# Poissons Ratio (y) = 0.47889 -0.18077
# Poissons Ratio (z) = 0.63703 -0.22805
#
# Static dielectric constant tensor:
#      x y z
#    x 1.790610 0.000000 0.000000 
#    y 0.000000 1.868850 0.000000 
#    z 0.000000 0.000000 2.307480 
# 
# From -- ./inp_files/40804.got.cif
#   From: 2010.05.17/outbox.cif.g08.bks.cpg/sg68_21_cif.got.tgz:40804.got - 2010.06.03 18:57:09.
