data_PCOD9508082
_publ_section_title
;
Structure prediction by ZEFSAII (Michael W. Deem and Ramdas Pophale) SiO2 
 PCOD9508082
Probable space group: C C C A
;
_chemical_formula_sum "Si O2"
_cell_formula_units_Z 120
_cell_length_a 12.512212
_cell_length_b 20.376838
_cell_length_c 25.965526
_cell_angle_alpha 90.000000
_cell_angle_beta 90.000000
_cell_angle_gamma 90.000000
_cell_volume 6620.152773
_symmetry_space_group_name_H-M "C C C A"
_symmetry_group_IT_number 68
_space_group.IT_coordinate_system_code '2'
_symmetry_cell_setting 'orthorhombic'
loop_
_space_group_symop_operation_xyz
x,y,z
-x,1/2-y,z
x,1/2-y,1/2-z
-x,y,1/2-z
-x,-y,-z
x,1/2+y,-z
-x,1/2+y,1/2+z
x,-y,1/2+z
1/2+x,1/2+y,z
1/2-x,-y,z
1/2+x,-y,1/2-z
1/2-x,1/2+y,1/2-z
1/2-x,1/2-y,-z
1/2+x,y,-z
1/2-x,y,1/2+z
1/2+x,1/2-y,1/2+z
loop_
_atom_site_type_symbol
_atom_site_label
_atom_site_fract_x
_atom_site_fract_y
_atom_site_fract_z
Si Si1 0.716160 0.185543 0.885868
Si Si2 0.170825 0.682794 0.549298
Si Si3 0.854010 0.545878 0.568238
Si Si4 0.750000 0.500000 0.376404
Si Si5 0.943963 0.923360 0.622959
Si Si6 0.065972 0.814900 0.062857
Si Si7 0.451837 0.683193 0.307497
Si Si8 0.627307 0.906867 0.544967
O O1 0.679205 0.250937 0.916950
O O2 0.670303 0.120194 0.913054
O O3 0.842079 0.179055 0.894693
O O4 0.671064 0.186763 0.827262
O O5 0.103618 0.626610 0.579663
O O6 0.118545 0.693613 0.493692
O O7 0.288896 0.653477 0.539347
O O8 0.750000 0.500000 0.577811
O O9 0.874417 0.551426 0.507415
O O10 0.965865 0.530421 0.596897
O O11 0.842792 0.458281 0.350448
O O12 0.680837 0.451655 0.411941
O O13 0.001383 0.879668 0.664926
O O14 0.000000 0.750000 0.074454
O O15 0.986565 0.876445 0.058849
O O16 0.500000 0.750000 0.330667
O O17 0.500000 0.681567 0.250000
#
# Coordination Sequence:
#
# PCOD9508082 Si02
#       8
#    16  16  16   8  16  16  16  16
#     4  11  22  36  53  84 119 147 198 253 301 358
#     4  11  20  34  51  84 117 163 200 239 285 346
#     4  11  22  34  52  77 117 166 208 246 276 338
#     4  10  24  36  54  76 116 170 200 238 282 358
#     4  10  22  37  59  82 116 149 199 251 297 353
#     4  12  22  30  52  82 126 168 200 237 293 355
#     4  10  21  40  69  93 107 135 192 266 324 349
#     4  11  21  34  49  77 118 172 211 230 279 337
#
# _framework density 18.126470000000001
#
# number of rings (size 3 to 8) (size 9 to 14) (size 15 to 20)
#    0.000    1.200    6.000    1.200    3.733    0.533 
#    0.000    0.000    5.867    0.000    0.000   12.133 
#    0.000    0.000    0.000    0.000    0.000    0.000 
#
# Total GULP energy -334523.609898 kJ/mol
# GULP energy per Si atom -5575.393498 kJ/mol
# Density = 1.808521 g / cm^3
# Si number density = 18.126470 Si / 1000 Ang^3
#
#
#
# Elastic Constant Matrix: (Units=GPa)
#
#
# Indices 1 2 3 4 5 6 
#
# 1 142.7536 35.3534 39.5375 0.0000 0.0000 0.0000
# 2 35.3534 62.8210 6.0042 0.0000 0.0000 0.0000
# 3 39.5375 6.0042 55.8746 0.0000 0.0000 0.0000
# 4 0.0000 0.0000 0.0000 -45.4678 0.0000 0.0000
# 5 0.0000 0.0000 0.0000 0.0000 -103.3661 0.0000
# 6 0.0000 0.0000 0.0000 0.0000 0.0000 43.2347
#
#
#
# Elastic Compliance Matrix: (Units=1/GPa)
#
#
# Indices 1 2 3 4 5 6 
#
# 1 0.010079 -0.005042 -0.006590 0.000000 0.000000 0.000000
# 2 -0.005042 0.018606 0.001569 0.000000 0.000000 0.000000
# 3 -0.006590 0.001569 0.022392 0.000000 0.000000 0.000000
# 4 0.000000 0.000000 0.000000 -0.021994 0.000000 0.000000
# 5 0.000000 0.000000 0.000000 0.000000 -0.009674 0.000000
# 6 0.000000 0.000000 0.000000 0.000000 0.000000 0.023130
#
#
# Mechanical properties :
#
#
# Convention : Reuss Voigt Hill
#
# Bulk Modulus (GPa) = 32.31101 47.02660 39.66880
# Shear Modulus (GPa) = 68.50931 -9.08290 29.71320
#
# Velocity S-wave (km/s) = 6.15445 -2.24092 4.05312
# Velocity P-wave (km/s) = 8.26843 4.39366 6.62085
#
# Compressibility (1/GPa) = 0.03094920
#
# Stress axis : x y z
#
# Youngs Moduli (GPa) = 99.21559 53.74632 44.65883
#
# Poissons Ratio (x) = 0.27100 0.29431
# Poissons Ratio (y) = 0.50027 -0.07005
# Poissons Ratio (z) = 0.65385 -0.08431
#
# Static dielectric constant tensor:
#      x y z
#    x 1.310180 0.000000 0.000000 
#    y 0.000000 1.700030 0.000000 
#    z 0.000000 0.000000 1.608140 
# 
# From -- ./inp_files/50441.got.cif
#   From: 2010.05.17/outbox.cif.g08.bks.cpg/sg68_26_cif.got.tgz:50441.got - 2010.06.03 18:57:09.
