data_PCOD9508088
_publ_section_title
;
Structure prediction by ZEFSAII (Michael W. Deem and Ramdas Pophale) SiO2 
 PCOD9508088
Probable space group: C C C A
;
_chemical_formula_sum "Si O2"
_cell_formula_units_Z 52
_cell_length_a 12.741764
_cell_length_b 8.186685
_cell_length_c 18.226184
_cell_angle_alpha 90.000000
_cell_angle_beta 90.000000
_cell_angle_gamma 90.000000
_cell_volume 1901.224436
_symmetry_space_group_name_H-M "C C C A"
_symmetry_group_IT_number 68
_space_group.IT_coordinate_system_code '2'
_symmetry_cell_setting 'orthorhombic'
loop_
_space_group_symop_operation_xyz
x,y,z
-x,1/2-y,z
x,1/2-y,1/2-z
-x,y,1/2-z
-x,-y,-z
x,1/2+y,-z
-x,1/2+y,1/2+z
x,-y,1/2+z
1/2+x,1/2+y,z
1/2-x,-y,z
1/2+x,-y,1/2-z
1/2-x,1/2+y,1/2-z
1/2-x,1/2-y,-z
1/2+x,y,-z
1/2-x,y,1/2+z
1/2+x,1/2-y,1/2+z
loop_
_atom_site_type_symbol
_atom_site_label
_atom_site_fract_x
_atom_site_fract_y
_atom_site_fract_z
Si Si1 0.309899 0.168607 0.151691
Si Si2 0.857220 0.896978 0.025123
Si Si3 0.000000 0.750000 0.250000
Si Si4 0.897075 0.806740 0.620770
O O1 0.348223 0.232636 0.072982
O O2 0.414417 0.157779 0.200161
O O3 0.213322 0.299418 0.164457
O O4 0.250000 0.000000 0.155296
O O5 0.750000 0.000000 0.019219
O O6 0.917141 0.020878 0.079670
O O7 0.886832 0.826457 0.945988
O O8 0.000000 0.750000 0.663208
#
# Coordination Sequence:
#
# PCOD9508088 Si02
#       4
#    16  16   4  16
#     4  11  26  49  73 101 140 193 252 303 373 441
#     4  10  21  40  70 110 156 191 238 298 376 453
#     4  12  32  52  78  94 148 200 252 326 368 444
#     4  11  22  38  74 117 153 193 236 303 381 453
#
# _framework density 27.350795999999999
#
# number of rings (size 3 to 8) (size 9 to 14) (size 15 to 20)
#    0.000    1.231    0.000    7.385    6.462    3.692 
#    0.000    0.000    0.000    1.846    0.000    0.000 
#    0.000    0.000    0.000    0.000    0.000    0.000 
#
# Total GULP energy -145180.286123 kJ/mol
# GULP energy per Si atom -5583.857159 kJ/mol
# Density = 2.728854 g / cm^3
# Si number density = 27.350796 Si / 1000 Ang^3
#
#
#
# Elastic Constant Matrix: (Units=GPa)
#
#
# Indices 1 2 3 4 5 6 
#
# 1 197.1985 54.5178 64.5816 0.0000 0.0000 0.0000
# 2 54.5178 163.9658 43.1523 0.0000 0.0000 0.0000
# 3 64.5816 43.1523 102.4286 0.0000 0.0000 0.0000
# 4 0.0000 0.0000 0.0000 157.7870 0.0000 0.0000
# 5 0.0000 0.0000 0.0000 0.0000 -11.8273 0.0000
# 6 0.0000 0.0000 0.0000 0.0000 0.0000 46.0355
#
#
#
# Elastic Compliance Matrix: (Units=1/GPa)
#
#
# Indices 1 2 3 4 5 6 
#
# 1 0.006607 -0.001238 -0.003644 0.000000 0.000000 0.000000
# 2 -0.001238 0.007091 -0.002207 0.000000 0.000000 0.000000
# 3 -0.003644 -0.002207 0.012990 0.000000 0.000000 0.000000
# 4 0.000000 0.000000 0.000000 0.006338 0.000000 0.000000
# 5 0.000000 0.000000 0.000000 0.000000 -0.084550 0.000000
# 6 0.000000 0.000000 0.000000 0.000000 0.000000 0.021722
#
#
# Mechanical properties :
#
#
# Convention : Reuss Voigt Hill
#
# Bulk Modulus (GPa) = 79.93303 87.56627 83.74965
# Shear Modulus (GPa) = -436.52822 58.48846 -189.01988
#
# Velocity S-wave (km/s) = -12.64713 4.62936 -8.32223
# Velocity P-wave (km/s) = 13.56385 7.78846 7.85232
#
# Compressibility (1/GPa) = 0.01251047
#
# Stress axis : x y z
#
# Youngs Moduli (GPa) = 151.36354 141.01974 76.98011
#
# Poissons Ratio (x) = 0.17453 0.28052
# Poissons Ratio (y) = 0.18733 0.16991
# Poissons Ratio (z) = 0.55158 0.31125
#
# Static dielectric constant tensor:
#      x y z
#    x 2.585580 0.000000 0.000000 
#    y 0.000000 2.255590 0.000000 
#    z 0.000000 0.000000 2.206050 
# 
# From -- ./inp_files/38128.got.cif
#   From: 2010.05.17/outbox.cif.g08.bks.cpg/sg68_20_cif.got.tgz:38128.got - 2010.06.03 18:57:09.
