data_PCOD9508534
_publ_section_title
;
Structure prediction by ZEFSAII (Michael W. Deem and Ramdas Pophale) SiO2 
 PCOD9508534
Probable space group: C C C A
;
_chemical_formula_sum "Si O2"
_cell_formula_units_Z 68
_cell_length_a 8.999320
_cell_length_b 18.267842
_cell_length_c 17.980740
_cell_angle_alpha 90.000000
_cell_angle_beta 90.000000
_cell_angle_gamma 90.000000
_cell_volume 2956.000497
_symmetry_space_group_name_H-M "C C C A"
_symmetry_group_IT_number 68
_space_group.IT_coordinate_system_code '2'
_symmetry_cell_setting 'orthorhombic'
loop_
_space_group_symop_operation_xyz
x,y,z
-x,1/2-y,z
x,1/2-y,1/2-z
-x,y,1/2-z
-x,-y,-z
x,1/2+y,-z
-x,1/2+y,1/2+z
x,-y,1/2+z
1/2+x,1/2+y,z
1/2-x,-y,z
1/2+x,-y,1/2-z
1/2-x,1/2+y,1/2-z
1/2-x,1/2-y,-z
1/2+x,y,-z
1/2-x,y,1/2+z
1/2+x,1/2-y,1/2+z
loop_
_atom_site_type_symbol
_atom_site_label
_atom_site_fract_x
_atom_site_fract_y
_atom_site_fract_z
Si Si1 0.708938 0.635350 0.889850
Si Si2 0.762003 0.199898 0.848015
Si Si3 0.500000 0.750000 0.250000
Si Si4 0.434067 0.168341 0.012181
Si Si5 0.160090 0.062600 0.739850
O O1 0.687200 0.715745 0.851764
O O2 0.565165 0.626014 0.943700
O O3 0.721789 0.580711 0.821444
O O4 0.860348 0.637706 0.937641
O O5 0.604874 0.203395 0.805268
O O6 0.791407 0.176294 0.932705
O O7 0.851918 0.139117 0.802954
O O8 0.500000 0.250000 0.998564
O O9 0.000000 0.029887 0.750000
O O10 0.250000 0.000000 0.698231
#
# Coordination Sequence:
#
# PCOD9508534 Si02
#       5
#    16  16   4  16  16
#     4  11  23  43  72 105 136 174 222 284 349 407
#     4  11  23  39  69 101 142 169 223 284 341 399
#     4  12  24  32  66 116 128 176 230 276 344 408
#     4  10  22  39  68 105 140 169 215 281 346 410
#     4  12  27  48  67  95 135 189 233 281 336 402
#
# _framework density 23.004057
#
# number of rings (size 3 to 8) (size 9 to 14) (size 15 to 20)
#    0.000    0.941    4.706    2.824    6.588    0.941 
#    0.000    2.353    0.000    0.000    0.000    0.000 
#    0.000    0.000    0.000    0.000    0.000    0.000 
#
# Total GULP energy -189743.802220 kJ/mol
# GULP energy per Si atom -5580.700065 kJ/mol
# Density = 2.295170 g / cm^3
# Si number density = 23.004057 Si / 1000 Ang^3
#
#
#
# Elastic Constant Matrix: (Units=GPa)
#
#
# Indices 1 2 3 4 5 6 
#
# 1 87.2769 1.6887 25.3858 0.0000 0.0000 0.0000
# 2 1.6887 50.5252 15.7580 0.0000 0.0000 0.0000
# 3 25.3858 15.7580 106.9259 0.0000 0.0000 0.0000
# 4 0.0000 0.0000 0.0000 -8.8548 0.0000 0.0000
# 5 0.0000 0.0000 0.0000 0.0000 56.2213 0.0000
# 6 0.0000 0.0000 0.0000 0.0000 0.0000 21.6866
#
#
#
# Elastic Compliance Matrix: (Units=1/GPa)
#
#
# Indices 1 2 3 4 5 6 
#
# 1 0.012321 0.000525 -0.003002 0.000000 0.000000 0.000000
# 2 0.000525 0.020768 -0.003185 0.000000 0.000000 0.000000
# 3 -0.003002 -0.003185 0.010535 0.000000 0.000000 0.000000
# 4 0.000000 0.000000 0.000000 -0.112933 0.000000 0.000000
# 5 0.000000 0.000000 0.000000 0.000000 0.017787 0.000000
# 6 0.000000 0.000000 0.000000 0.000000 0.000000 0.046111
#
#
# Mechanical properties :
#
#
# Convention : Reuss Voigt Hill
#
# Bulk Modulus (GPa) = 30.96233 36.71035 33.83634
# Shear Modulus (GPa) = 299.74111 27.27032 163.50572
#
# Velocity S-wave (km/s) = 11.42725 3.44678 8.43986
# Velocity P-wave (km/s) = 13.69665 5.64210 10.47453
#
# Compressibility (1/GPa) = 0.03229732
#
# Stress axis : x y z
#
# Youngs Moduli (GPa) = 81.16251 48.15105 94.92600
#
# Poissons Ratio (x) = -0.02526 0.28502
# Poissons Ratio (y) = -0.04258 0.30236
# Poissons Ratio (z) = 0.24369 0.15337
#
# Static dielectric constant tensor:
#      x y z
#    x 2.024550 0.000000 0.000000 
#    y 0.000000 1.812160 0.000000 
#    z 0.000000 0.000000 1.893190 
# 
# From -- ./inp_files/28001.got.cif
#   From: 2010.05.17/outbox.cif.g08.bks.cpg/sg68_15_cif.got.tgz:28001.got - 2010.06.03 18:57:09.
