data_PCOD9508505
_publ_section_title
;
Structure prediction by ZEFSAII (Michael W. Deem and Ramdas Pophale) SiO2 
 PCOD9508505
Probable space group: C C C A
;
_chemical_formula_sum "Si O2"
_cell_formula_units_Z 112
_cell_length_a 23.049749
_cell_length_b 16.042479
_cell_length_c 14.471032
_cell_angle_alpha 90.000000
_cell_angle_beta 90.000000
_cell_angle_gamma 90.000000
_cell_volume 5351.027512
_symmetry_space_group_name_H-M "C C C A"
_symmetry_group_IT_number 68
_space_group.IT_coordinate_system_code '2'
_symmetry_cell_setting 'orthorhombic'
loop_
_space_group_symop_operation_xyz
x,y,z
-x,1/2-y,z
x,1/2-y,1/2-z
-x,y,1/2-z
-x,-y,-z
x,1/2+y,-z
-x,1/2+y,1/2+z
x,-y,1/2+z
1/2+x,1/2+y,z
1/2-x,-y,z
1/2+x,-y,1/2-z
1/2-x,1/2+y,1/2-z
1/2-x,1/2-y,-z
1/2+x,y,-z
1/2-x,y,1/2+z
1/2+x,1/2-y,1/2+z
loop_
_atom_site_type_symbol
_atom_site_label
_atom_site_fract_x
_atom_site_fract_y
_atom_site_fract_z
Si Si1 0.002988 0.848383 0.853542
Si Si2 0.408563 0.405996 0.999990
Si Si3 0.181090 0.508663 0.223754
Si Si4 0.881401 0.087062 0.058526
Si Si5 0.379778 0.182509 0.322160
Si Si6 0.795064 0.799349 0.435483
Si Si7 0.792173 0.929588 0.910886
O O1 0.951278 0.878690 0.919402
O O2 0.000000 0.750000 0.844698
O O3 0.000000 0.886062 0.750000
O O4 0.064165 0.864661 0.901516
O O5 0.340596 0.390765 0.976194
O O6 0.408436 0.505881 0.008802
O O7 0.419785 0.356411 0.095809
O O8 0.250000 0.500000 0.207689
O O9 0.152763 0.451951 0.145026
O O10 0.151720 0.600030 0.219231
O O11 0.174245 0.471064 0.326031
O O12 0.839770 0.144203 0.995635
O O13 0.406614 0.250000 0.250000
O O14 0.330787 0.238322 0.371236
O O15 0.750000 0.750000 0.500000
O O16 0.753197 0.860663 0.377771
O O17 0.750000 0.000000 0.955448
#
# Coordination Sequence:
#
# PCOD9508505 Si02
#       7
#    16  16  16  16  16  16  16
#     4  11  25  47  70  98 132 170 228 296 345 402
#     4  11  23  42  71  93 131 177 229 276 345 413
#     4  10  22  39  62  94 136 177 226 271 331 412
#     4  11  24  42  70  97 133 180 225 277 342 412
#     4  11  23  39  59  96 135 174 220 280 334 401
#     4  12  23  37  64  99 137 178 221 279 345 406
#     4  11  21  39  63  95 133 177 221 274 334 415
#
# _framework density 20.930558999999999
#
# number of rings (size 3 to 8) (size 9 to 14) (size 15 to 20)
#    0.000    1.000    2.857    4.714    2.000    0.000 
#    0.000    0.000    0.000    0.857    0.000    0.000 
#    0.000    0.000    0.000    0.000    0.000    0.000 
#
# Total GULP energy -312688.174144 kJ/mol
# GULP energy per Si atom -5583.717395 kJ/mol
# Density = 2.088292 g / cm^3
# Si number density = 20.930559 Si / 1000 Ang^3
#
#
#
# Elastic Constant Matrix: (Units=GPa)
#
#
# Indices 1 2 3 4 5 6 
#
# 1 53.1873 32.8168 38.3314 0.0000 0.0000 0.0000
# 2 32.8168 109.4387 52.7425 0.0000 0.0000 0.0000
# 3 38.3314 52.7425 115.4286 0.0000 0.0000 0.0000
# 4 0.0000 0.0000 0.0000 -150.5239 0.0000 0.0000
# 5 0.0000 0.0000 0.0000 0.0000 84.9903 0.0000
# 6 0.0000 0.0000 0.0000 0.0000 0.0000 25.0539
#
#
#
# Elastic Compliance Matrix: (Units=1/GPa)
#
#
# Indices 1 2 3 4 5 6 
#
# 1 0.026515 -0.004754 -0.006633 0.000000 0.000000 0.000000
# 2 -0.004754 0.012570 -0.004165 0.000000 0.000000 0.000000
# 3 -0.006633 -0.004165 0.012769 0.000000 0.000000 0.000000
# 4 0.000000 0.000000 0.000000 -0.006643 0.000000 0.000000
# 5 0.000000 0.000000 0.000000 0.000000 0.011766 0.000000
# 6 0.000000 0.000000 0.000000 0.000000 0.000000 0.039914
#
#
# Mechanical properties :
#
#
# Convention : Reuss Voigt Hill
#
# Bulk Modulus (GPa) = 48.19165 58.42621 53.30893
# Shear Modulus (GPa) = 37.06121 2.18165 19.62143
#
# Velocity S-wave (km/s) = 4.21250 1.02205 3.06511
# Velocity P-wave (km/s) = 6.83628 5.41920 6.16857
#
# Compressibility (1/GPa) = 0.02075048
#
# Stress axis : x y z
#
# Youngs Moduli (GPa) = 37.71439 79.55167 78.31465
#
# Poissons Ratio (x) = 0.37822 0.51944
# Poissons Ratio (y) = 0.17931 0.32618
# Poissons Ratio (z) = 0.25015 0.33133
#
# Static dielectric constant tensor:
#      x y z
#    x 2.228340 0.000000 0.000000 
#    y 0.000000 1.758240 0.000000 
#    z 0.000000 0.000000 1.823610 
# 
# From -- ./inp_files/25457.got.cif
#   From: 2010.05.17/outbox.cif.g08.bks.cpg/sg68_13_cif.got.tgz:25457.got - 2010.06.03 18:57:09.
