data_PCOD9508190
_publ_section_title
;
Structure prediction by ZEFSAII (Michael W. Deem and Ramdas Pophale) SiO2 
 PCOD9508190
Probable space group: C C C A
;
_chemical_formula_sum "Si O2"
_cell_formula_units_Z 64
_cell_length_a 25.870048
_cell_length_b 11.786558
_cell_length_c 8.947097
_cell_angle_alpha 90.000000
_cell_angle_beta 90.000000
_cell_angle_gamma 90.000000
_cell_volume 2728.138271
_symmetry_space_group_name_H-M "C C C A"
_symmetry_group_IT_number 68
_space_group.IT_coordinate_system_code '2'
_symmetry_cell_setting 'orthorhombic'
loop_
_space_group_symop_operation_xyz
x,y,z
-x,1/2-y,z
x,1/2-y,1/2-z
-x,y,1/2-z
-x,-y,-z
x,1/2+y,-z
-x,1/2+y,1/2+z
x,-y,1/2+z
1/2+x,1/2+y,z
1/2-x,-y,z
1/2+x,-y,1/2-z
1/2-x,1/2+y,1/2-z
1/2-x,1/2-y,-z
1/2+x,y,-z
1/2-x,y,1/2+z
1/2+x,1/2-y,1/2+z
loop_
_atom_site_type_symbol
_atom_site_label
_atom_site_fract_x
_atom_site_fract_y
_atom_site_fract_z
Si Si1 0.243127 0.750000 0.250000
Si Si2 0.457710 0.846102 0.959062
Si Si3 0.500000 0.540965 0.250000
Si Si4 0.155656 0.653438 0.088858
Si Si5 0.304146 0.461738 0.809849
O O1 0.201469 0.744284 0.113695
O O2 0.280775 0.855273 0.279340
O O3 0.500000 0.750000 0.928664
O O4 0.401627 0.798229 0.915099
O O5 0.466618 0.957141 0.855784
O O6 0.466697 0.885007 0.131922
O O7 0.169032 0.558120 0.213053
O O8 0.159527 0.587661 0.934250
O O9 0.250000 0.500000 0.386121
#
# Coordination Sequence:
#
# PCOD9508190 Si02
#       5
#     8  16   8  16  16
#     4  10  22  38  65 102 135 174 224 280 340 416
#     4  11  24  45  72  97 141 184 236 291 348 421
#     4  10  24  46  66  98 140 176 236 296 342 400
#     4  11  23  40  68  98 131 182 223 276 354 409
#     4  10  21  42  64  97 139 170 223 282 334 415
#
# _framework density 23.459220999999999
#
# number of rings (size 3 to 8) (size 9 to 14) (size 15 to 20)
#    0.000    1.500    0.000    5.250    3.500    2.000 
#   18.000    0.000    0.000    0.000    0.000    0.000 
#    0.000    0.000    0.000    0.000    0.000    0.000 
#
# Total GULP energy -178581.168424 kJ/mol
# GULP energy per Si atom -5580.661513 kJ/mol
# Density = 2.340583 g / cm^3
# Si number density = 23.459221 Si / 1000 Ang^3
#
#
#
# Elastic Constant Matrix: (Units=GPa)
#
#
# Indices 1 2 3 4 5 6 
#
# 1 115.6373 45.3827 44.5766 0.0000 0.0000 0.0000
# 2 45.3827 87.3551 31.9105 0.0000 0.0000 0.0000
# 3 44.5766 31.9105 125.0381 0.0000 0.0000 0.0000
# 4 0.0000 0.0000 0.0000 28.4939 0.0000 0.0000
# 5 0.0000 0.0000 0.0000 0.0000 -140.9093 0.0000
# 6 0.0000 0.0000 0.0000 0.0000 0.0000 35.3529
#
#
#
# Elastic Compliance Matrix: (Units=1/GPa)
#
#
# Indices 1 2 3 4 5 6 
#
# 1 0.011745 -0.005042 -0.002900 0.000000 0.000000 0.000000
# 2 -0.005042 0.014789 -0.001977 0.000000 0.000000 0.000000
# 3 -0.002900 -0.001977 0.009536 0.000000 0.000000 0.000000
# 4 0.000000 0.000000 0.000000 0.035095 0.000000 0.000000
# 5 0.000000 0.000000 0.000000 0.000000 -0.007097 0.000000
# 6 0.000000 0.000000 0.000000 0.000000 0.000000 0.028286
#
#
# Mechanical properties :
#
#
# Convention : Reuss Voigt Hill
#
# Bulk Modulus (GPa) = 61.60847 63.53000 62.56923
# Shear Modulus (GPa) = 42.51601 -1.66845 20.42378
#
# Velocity S-wave (km/s) = 4.26177 -0.84425 2.95381
# Velocity P-wave (km/s) = 7.10886 5.11757 6.19376
#
# Compressibility (1/GPa) = 0.01623154
#
# Stress axis : x y z
#
# Youngs Moduli (GPa) = 85.14616 67.61743 104.86603
#
# Poissons Ratio (x) = 0.34093 0.30413
# Poissons Ratio (y) = 0.42931 0.20729
# Poissons Ratio (z) = 0.24694 0.13366
#
# Static dielectric constant tensor:
#      x y z
#    x 1.860620 0.000000 0.000000 
#    y 0.000000 1.991960 0.000000 
#    z 0.000000 0.000000 1.930700 
# 
# From -- ./inp_files/9374.got.cif
#   From: 2010.05.17/outbox.cif.g08.bks.cpg/sg68_5_cif.got.tgz:9374.got - 2010.06.03 18:57:09.
