data_PCOD9508799
_publ_section_title
;
Structure prediction by ZEFSAII (Michael W. Deem and Ramdas Pophale) SiO2 
 PCOD9508799
Probable space group: C C C A
;
_chemical_formula_sum "Si O2"
_cell_formula_units_Z 64
_cell_length_a 10.679919
_cell_length_b 24.787093
_cell_length_c 10.959006
_cell_angle_alpha 90.000000
_cell_angle_beta 90.000000
_cell_angle_gamma 90.000000
_cell_volume 2901.113499
_symmetry_space_group_name_H-M "C C C A"
_symmetry_group_IT_number 68
_space_group.IT_coordinate_system_code '2'
_symmetry_cell_setting 'orthorhombic'
loop_
_space_group_symop_operation_xyz
x,y,z
-x,1/2-y,z
x,1/2-y,1/2-z
-x,y,1/2-z
-x,-y,-z
x,1/2+y,-z
-x,1/2+y,1/2+z
x,-y,1/2+z
1/2+x,1/2+y,z
1/2-x,-y,z
1/2+x,-y,1/2-z
1/2-x,1/2+y,1/2-z
1/2-x,1/2-y,-z
1/2+x,y,-z
1/2-x,y,1/2+z
1/2+x,1/2-y,1/2+z
loop_
_atom_site_type_symbol
_atom_site_label
_atom_site_fract_x
_atom_site_fract_y
_atom_site_fract_z
Si Si1 0.499089 0.347406 0.576305
Si Si2 0.000000 0.446709 0.250000
Si Si3 0.293783 0.309143 0.765201
Si Si4 0.750000 0.500000 0.681106
Si Si5 0.108412 0.602965 0.339315
O O1 0.513955 0.406771 0.635386
O O2 0.393485 0.317814 0.656723
O O3 0.627319 0.316338 0.608379
O O4 0.452678 0.359035 0.441716
O O5 0.868549 0.477829 0.257169
O O6 0.237809 0.250000 0.750000
O O7 0.198891 0.358322 0.762636
O O8 0.811285 0.448303 0.612673
O O9 0.000000 0.582917 0.250000
#
# Coordination Sequence:
#
# PCOD9508799 Si02
#       5
#    16   8  16   8  16
#     4  10  22  44  69  97 130 178 228 275 349 410
#     4  10  22  42  67  94 133 186 232 274 352 408
#     4  10  23  48  71  95 135 182 224 283 351 411
#     4  12  22  44  66  98 144 180 232 288 342 420
#     4  12  27  42  68 105 137 176 236 284 340 416
#
# _framework density 22.060495
#
# number of rings (size 3 to 8) (size 9 to 14) (size 15 to 20)
#    0.000    1.500    6.250    1.500    3.500    3.500 
#    4.500    0.000    0.000    0.000    0.000    0.000 
#    0.000    0.000    0.000    0.000    0.000    0.000 
#
# Total GULP energy -178501.612721 kJ/mol
# GULP energy per Si atom -5578.175398 kJ/mol
# Density = 2.201028 g / cm^3
# Si number density = 22.060495 Si / 1000 Ang^3
#
#
#
# Elastic Constant Matrix: (Units=GPa)
#
#
# Indices 1 2 3 4 5 6 
#
# 1 84.8559 25.6083 -5.4812 0.0000 0.0000 0.0000
# 2 25.6083 114.0849 -12.7428 0.0000 0.0000 0.0000
# 3 -5.4812 -12.7428 24.1981 0.0000 0.0000 0.0000
# 4 0.0000 0.0000 0.0000 -0.4489 0.0000 0.0000
# 5 0.0000 0.0000 0.0000 0.0000 10.6764 0.0000
# 6 0.0000 0.0000 0.0000 0.0000 0.0000 7.3679
#
#
#
# Elastic Compliance Matrix: (Units=1/GPa)
#
#
# Indices 1 2 3 4 5 6 
#
# 1 0.012689 -0.002685 0.001460 0.000000 0.000000 0.000000
# 2 -0.002685 0.009881 0.004595 0.000000 0.000000 0.000000
# 3 0.001460 0.004595 0.044076 0.000000 0.000000 0.000000
# 4 0.000000 0.000000 0.000000 -2.227824 0.000000 0.000000
# 5 0.000000 0.000000 0.000000 0.000000 0.093665 0.000000
# 6 0.000000 0.000000 0.000000 0.000000 0.000000 0.135724
#
#
# Mechanical properties :
#
#
# Convention : Reuss Voigt Hill
#
# Bulk Modulus (GPa) = 13.62626 26.43417 20.03022
# Shear Modulus (GPa) = -2.61224 17.90272 7.64524
#
# Velocity S-wave (km/s) = -1.08936 2.85182 1.86363
# Velocity P-wave (km/s) = 2.14661 4.78043 3.70543
#
# Compressibility (1/GPa) = 0.07338768
#
# Stress axis : x y z
#
# Youngs Moduli (GPa) = 78.80607 101.19992 22.68799
#
# Poissons Ratio (x) = 0.27175 -0.03313
# Poissons Ratio (y) = 0.21161 -0.10426
# Poissons Ratio (z) = -0.11508 -0.46505
#
# Static dielectric constant tensor:
#      x y z
#    x 1.849260 0.000000 0.000000 
#    y 0.000000 1.840050 0.000000 
#    z 0.000000 0.000000 1.824230 
# 
# From -- ./inp_files/11701.got.cif
#   From: 2010.05.17/outbox.cif.g08.bks.cpg/sg68_6_cif.got.tgz:11701.got - 2010.06.03 18:57:09.
