data_PCOD9508205
_publ_section_title
;
Structure prediction by ZEFSAII (Michael W. Deem and Ramdas Pophale) SiO2 
 PCOD9508205
Probable space group: C C C A
;
_chemical_formula_sum "Si O2"
_cell_formula_units_Z 88
_cell_length_a 17.193022
_cell_length_b 13.232975
_cell_length_c 18.478711
_cell_angle_alpha 90.000000
_cell_angle_beta 90.000000
_cell_angle_gamma 90.000000
_cell_volume 4204.180797
_symmetry_space_group_name_H-M "C C C A"
_symmetry_group_IT_number 68
_space_group.IT_coordinate_system_code '2'
_symmetry_cell_setting 'orthorhombic'
loop_
_space_group_symop_operation_xyz
x,y,z
-x,1/2-y,z
x,1/2-y,1/2-z
-x,y,1/2-z
-x,-y,-z
x,1/2+y,-z
-x,1/2+y,1/2+z
x,-y,1/2+z
1/2+x,1/2+y,z
1/2-x,-y,z
1/2+x,-y,1/2-z
1/2-x,1/2+y,1/2-z
1/2-x,1/2-y,-z
1/2+x,y,-z
1/2-x,y,1/2+z
1/2+x,1/2-y,1/2+z
loop_
_atom_site_type_symbol
_atom_site_label
_atom_site_fract_x
_atom_site_fract_y
_atom_site_fract_z
Si Si1 0.087925 0.371611 0.252788
Si Si2 0.418117 0.689857 0.622212
Si Si3 0.157112 0.525089 0.609343
Si Si4 0.278976 0.400419 0.843976
Si Si5 0.187234 0.168168 0.523707
Si Si6 0.182794 0.750000 0.250000
O O1 0.087589 0.250000 0.250000
O O2 0.131856 0.418699 0.183507
O O3 0.129922 0.397610 0.328861
O O4 0.000000 0.409311 0.250000
O O5 0.500000 0.750000 0.633265
O O6 0.398445 0.574124 0.596279
O O7 0.375878 0.767551 0.567637
O O8 0.373442 0.686203 0.699039
O O9 0.250000 0.500000 0.613618
O O10 0.152631 0.603081 0.541791
O O11 0.250000 0.500000 0.804501
O O12 0.238106 0.398641 0.921195
O O13 0.239716 0.308414 0.802870
O O14 0.250000 0.250000 0.500000
#
# Coordination Sequence:
#
# PCOD9508205 Si02
#       6
#    16  16  16  16  16   8
#     4  11  24  42  66 105 143 180 227 294 363 418
#     4  11  25  43  70 104 142 185 234 302 370 422
#     4  12  24  46  75 100 141 192 242 295 363 443
#     4  11  22  39  68  98 126 179 237 280 342 422
#     4  11  24  44  67  98 137 184 241 289 349 439
#     4  10  21  42  67  96 138 174 238 290 339 440
#
# _framework density 20.931545
#
# number of rings (size 3 to 8) (size 9 to 14) (size 15 to 20)
#    0.000    0.909    2.727    4.636    0.000    5.091 
#    6.545    0.000    0.000    0.000    0.000    0.000 
#    0.000    0.000    0.000    0.000    0.000    0.000 
#
# Total GULP energy -245190.008463 kJ/mol
# GULP energy per Si atom -5572.500192 kJ/mol
# Density = 2.088390 g / cm^3
# Si number density = 20.931545 Si / 1000 Ang^3
#
#
#
# Elastic Constant Matrix: (Units=GPa)
#
#
# Indices 1 2 3 4 5 6 
#
# 1 84.7533 12.9087 -1.4566 0.0000 0.0000 0.0000
# 2 12.9087 99.5992 24.3336 0.0000 0.0000 0.0000
# 3 -1.4566 24.3336 79.3541 0.0000 0.0000 0.0000
# 4 0.0000 0.0000 0.0000 -14.1168 0.0000 0.0000
# 5 0.0000 0.0000 0.0000 0.0000 9.2596 0.0000
# 6 0.0000 0.0000 0.0000 0.0000 0.0000 28.1301
#
#
#
# Elastic Compliance Matrix: (Units=1/GPa)
#
#
# Indices 1 2 3 4 5 6 
#
# 1 0.012079 -0.001751 0.000759 0.000000 0.000000 0.000000
# 2 -0.001751 0.011107 -0.003438 0.000000 0.000000 0.000000
# 3 0.000759 -0.003438 0.013670 0.000000 0.000000 0.000000
# 4 0.000000 0.000000 0.000000 -0.070838 0.000000 0.000000
# 5 0.000000 0.000000 0.000000 0.000000 0.107996 0.000000
# 6 0.000000 0.000000 0.000000 0.000000 0.000000 0.035549
#
#
# Mechanical properties :
#
#
# Convention : Reuss Voigt Hill
#
# Bulk Modulus (GPa) = 35.72051 37.25311 36.48681
# Shear Modulus (GPa) = 39.13721 19.84932 29.49326
#
# Velocity S-wave (km/s) = 4.32878 3.08278 3.75778
# Velocity P-wave (km/s) = 6.48744 5.52337 6.02472
#
# Compressibility (1/GPa) = 0.02799512
#
# Stress axis : x y z
#
# Youngs Moduli (GPa) = 82.79071 90.03225 73.15315
#
# Poissons Ratio (x) = 0.15763 -0.05549
# Poissons Ratio (y) = 0.14495 0.25151
# Poissons Ratio (z) = -0.06280 0.30954
#
# Static dielectric constant tensor:
#      x y z
#    x 1.770130 0.000000 0.000000 
#    y 0.000000 1.834960 0.000000 
#    z 0.000000 0.000000 1.732270 
# 
# From -- ./inp_files/39459.got.cif
#   From: 2010.05.17/outbox.cif.g08.bks.cpg/sg68_20_cif.got.tgz:39459.got - 2010.06.03 18:57:09.
