data_PCOD9508178
_publ_section_title
;
Structure prediction by ZEFSAII (Michael W. Deem and Ramdas Pophale) SiO2 
 PCOD9508178
Probable space group: C C C A
;
_chemical_formula_sum "Si O2"
_cell_formula_units_Z 60
_cell_length_a 4.897354
_cell_length_b 20.945325
_cell_length_c 23.821367
_cell_angle_alpha 90.000000
_cell_angle_beta 90.000000
_cell_angle_gamma 90.000000
_cell_volume 2443.516530
_symmetry_space_group_name_H-M "C C C A"
_symmetry_group_IT_number 68
_space_group.IT_coordinate_system_code '2'
_symmetry_cell_setting 'orthorhombic'
loop_
_space_group_symop_operation_xyz
x,y,z
-x,1/2-y,z
x,1/2-y,1/2-z
-x,y,1/2-z
-x,-y,-z
x,1/2+y,-z
-x,1/2+y,1/2+z
x,-y,1/2+z
1/2+x,1/2+y,z
1/2-x,-y,z
1/2+x,-y,1/2-z
1/2-x,1/2+y,1/2-z
1/2-x,1/2-y,-z
1/2+x,y,-z
1/2-x,y,1/2+z
1/2+x,1/2-y,1/2+z
loop_
_atom_site_type_symbol
_atom_site_label
_atom_site_fract_x
_atom_site_fract_y
_atom_site_fract_z
Si Si1 0.500000 0.750000 0.092711
Si Si2 0.500000 0.750000 0.750000
Si Si3 0.168796 0.840082 0.807353
Si Si4 0.737820 0.863993 0.963879
Si Si5 0.002390 0.957579 0.629341
O O1 0.409144 0.696053 0.136214
O O2 0.708602 0.708636 0.055877
O O3 0.456045 0.806780 0.796450
O O4 0.126222 0.912984 0.822102
O O5 0.000000 0.821195 0.750000
O O6 0.849799 0.914424 0.918326
O O7 0.424784 0.873229 0.980671
O O8 0.750000 0.000000 0.607242
O O9 0.250000 0.000000 0.652606
#
# Coordination Sequence:
#
# PCOD9508178 Si02
#       5
#     8   4  16  16  16
#     4  10  21  42  63 102 140 169 231 286 356 426
#     4  12  22  40  78 102 140 182 234 290 370 428
#     4  11  24  43  68 102 139 185 226 291 358 421
#     4  11  24  42  69 100 136 180 228 290 355 411
#     4  11  27  46  69 100 139 187 241 287 338 421
#
# _framework density 24.554777999999999
#
# number of rings (size 3 to 8) (size 9 to 14) (size 15 to 20)
#    0.000    1.067    2.667    2.400    3.733    8.533 
#    0.000    0.000    0.000    0.000    0.000    0.000 
#    0.000    0.000    0.000    0.000    0.000    0.000 
#
# Total GULP energy -167023.673938 kJ/mol
# GULP energy per Si atom -5567.455798 kJ/mol
# Density = 2.449889 g / cm^3
# Si number density = 24.554778 Si / 1000 Ang^3
#
#
#
# Elastic Constant Matrix: (Units=GPa)
#
#
# Indices 1 2 3 4 5 6 
#
# 1 63.9898 27.1787 -0.0054 0.0000 0.0000 0.0000
# 2 27.1787 142.2356 34.8345 0.0000 0.0000 0.0000
# 3 -0.0054 34.8345 72.8878 0.0000 0.0000 0.0000
# 4 0.0000 0.0000 0.0000 31.3158 0.0000 0.0000
# 5 0.0000 0.0000 0.0000 0.0000 270.0548 0.0000
# 6 0.0000 0.0000 0.0000 0.0000 0.0000 218.7837
#
#
#
# Elastic Compliance Matrix: (Units=1/GPa)
#
#
# Indices 1 2 3 4 5 6 
#
# 1 0.017210 -0.003725 0.001781 0.000000 0.000000 0.000000
# 2 -0.003725 0.008769 -0.004191 0.000000 0.000000 0.000000
# 3 0.001781 -0.004191 0.015723 0.000000 0.000000 0.000000
# 4 0.000000 0.000000 0.000000 0.031933 0.000000 0.000000
# 5 0.000000 0.000000 0.000000 0.000000 0.003703 0.000000
# 6 0.000000 0.000000 0.000000 0.000000 0.000000 0.004571
#
#
# Mechanical properties :
#
#
# Convention : Reuss Voigt Hill
#
# Bulk Modulus (GPa) = 33.97604 44.79208 39.38406
# Shear Modulus (GPa) = 48.08282 118.50455 83.29368
#
# Velocity S-wave (km/s) = 4.42994 6.95457 5.83054
# Velocity P-wave (km/s) = 6.32714 9.09777 7.83588
#
# Compressibility (1/GPa) = 0.02943250
#
# Stress axis : x y z
#
# Youngs Moduli (GPa) = 58.10691 114.04160 63.60180
#
# Poissons Ratio (x) = 0.42478 -0.11330
# Poissons Ratio (y) = 0.21643 0.26656
# Poissons Ratio (z) = -0.10351 0.47795
#
# Static dielectric constant tensor:
#      x y z
#    x 2.234650 0.000000 0.000000 
#    y 0.000000 2.015810 0.000000 
#    z 0.000000 0.000000 1.860910 
# 
# From -- ./inp_files/34976.got.cif
#   From: 2010.05.17/outbox.cif.g08.bks.cpg/sg68_18_cif.got.tgz:34976.got - 2010.06.03 18:57:09.
