data_PCOD9508932
_publ_section_title
;
Structure prediction by ZEFSAII (Michael W. Deem and Ramdas Pophale) SiO2 
 PCOD9508932
Probable space group: C C C A
;
_chemical_formula_sum "Si O2"
_cell_formula_units_Z 80
_cell_length_a 16.137148
_cell_length_b 7.276267
_cell_length_c 33.392127
_cell_angle_alpha 90.000000
_cell_angle_beta 90.000000
_cell_angle_gamma 90.000000
_cell_volume 3920.843362
_symmetry_space_group_name_H-M "C C C A"
_symmetry_group_IT_number 68
_space_group.IT_coordinate_system_code '2'
_symmetry_cell_setting 'orthorhombic'
loop_
_space_group_symop_operation_xyz
x,y,z
-x,1/2-y,z
x,1/2-y,1/2-z
-x,y,1/2-z
-x,-y,-z
x,1/2+y,-z
-x,1/2+y,1/2+z
x,-y,1/2+z
1/2+x,1/2+y,z
1/2-x,-y,z
1/2+x,-y,1/2-z
1/2-x,1/2+y,1/2-z
1/2-x,1/2-y,-z
1/2+x,y,-z
1/2-x,y,1/2+z
1/2+x,1/2-y,1/2+z
loop_
_atom_site_type_symbol
_atom_site_label
_atom_site_fract_x
_atom_site_fract_y
_atom_site_fract_z
Si Si1 0.066640 0.408122 0.654318
Si Si2 0.500000 0.250000 0.899896
Si Si3 0.739570 0.718834 0.636606
Si Si4 0.250000 0.000000 0.501215
Si Si5 0.333688 0.790812 0.441417
Si Si6 0.826709 0.880365 0.715169
O O1 0.146904 0.300268 0.636509
O O2 0.101921 0.499066 0.694877
O O3 0.000000 0.250000 0.661480
O O4 0.027358 0.573193 0.627150
O O5 0.577541 0.214406 0.929009
O O6 0.750000 0.500000 0.631287
O O7 0.788859 0.813588 0.600779
O O8 0.784370 0.772251 0.678094
O O9 0.279405 0.154115 0.531955
O O10 0.172998 0.034294 0.470634
O O11 0.858186 0.750000 0.750000
O O12 0.750000 0.000000 0.732086
#
# Coordination Sequence:
#
# PCOD9508932 Si02
#       6
#    16   8  16   8  16  16
#     4  11  25  41  71 108 137 186 231 286 352 411
#     4  12  24  44  71 100 146 180 234 290 359 418
#     4  11  21  42  75  98 134 186 235 282 343 423
#     4  10  24  40  64  96 132 184 240 282 348 418
#     4  11  22  41  65  97 134 182 229 289 349 417
#     4  10  22  43  74 101 135 178 234 283 332 416
#
# _framework density 20.403773999999999
#
# number of rings (size 3 to 8) (size 9 to 14) (size 15 to 20)
#    0.000    1.200    3.000    3.000    1.400    0.800 
#    0.000    0.500   13.200    0.000    0.000    0.000 
#    0.000    0.000    0.000    0.000    0.000    0.000 
#
# Total GULP energy -223118.565044 kJ/mol
# GULP energy per Si atom -5577.964126 kJ/mol
# Density = 2.035733 g / cm^3
# Si number density = 20.403774 Si / 1000 Ang^3
#
#
#
# Elastic Constant Matrix: (Units=GPa)
#
#
# Indices 1 2 3 4 5 6 
#
# 1 135.2749 37.6487 45.7040 0.0000 0.0000 0.0000
# 2 37.6487 100.7178 22.9921 0.0000 0.0000 0.0000
# 3 45.7040 22.9921 85.5933 0.0000 0.0000 0.0000
# 4 0.0000 0.0000 0.0000 -150.5335 0.0000 0.0000
# 5 0.0000 0.0000 0.0000 0.0000 13.6356 0.0000
# 6 0.0000 0.0000 0.0000 0.0000 0.0000 25.1629
#
#
#
# Elastic Compliance Matrix: (Units=1/GPa)
#
#
# Indices 1 2 3 4 5 6 
#
# 1 0.009610 -0.002579 -0.004439 0.000000 0.000000 0.000000
# 2 -0.002579 0.011269 -0.001650 0.000000 0.000000 0.000000
# 3 -0.004439 -0.001650 0.014496 0.000000 0.000000 0.000000
# 4 0.000000 0.000000 0.000000 -0.006643 0.000000 0.000000
# 5 0.000000 0.000000 0.000000 0.000000 0.073337 0.000000
# 6 0.000000 0.000000 0.000000 0.000000 0.000000 0.039741
#
#
# Mechanical properties :
#
#
# Convention : Reuss Voigt Hill
#
# Bulk Modulus (GPa) = 55.43103 59.36394 57.39749
# Shear Modulus (GPa) = 30.27379 -7.99758 11.13811
#
# Velocity S-wave (km/s) = 3.85611 -1.98196 2.33895
# Velocity P-wave (km/s) = 6.85945 4.89083 5.95703
#
# Compressibility (1/GPa) = 0.01804044
#
# Stress axis : x y z
#
# Youngs Moduli (GPa) = 104.06164 88.73560 68.98245
#
# Poissons Ratio (x) = 0.22884 0.30618
# Poissons Ratio (y) = 0.26836 0.11383
# Poissons Ratio (z) = 0.46188 0.14643
#
# Static dielectric constant tensor:
#      x y z
#    x 1.755700 0.000000 0.000000 
#    y 0.000000 1.946280 0.000000 
#    z 0.000000 0.000000 1.689240 
# 
# From -- ./inp_files/55550.got.cif
#   From: 2010.05.17/outbox.cif.g08.bks.cpg/sg68_28_cif.got.tgz:55550.got - 2010.06.03 18:57:09.
