data_PCOD9508925
_publ_section_title
;
Structure prediction by ZEFSAII (Michael W. Deem and Ramdas Pophale) SiO2 
 PCOD9508925
Probable space group: C C C A
;
_chemical_formula_sum "Si O2"
_cell_formula_units_Z 112
_cell_length_a 11.789972
_cell_length_b 26.995662
_cell_length_c 15.424195
_cell_angle_alpha 90.000000
_cell_angle_beta 90.000000
_cell_angle_gamma 90.000000
_cell_volume 4909.183465
_symmetry_space_group_name_H-M "C C C A"
_symmetry_group_IT_number 68
_space_group.IT_coordinate_system_code '2'
_symmetry_cell_setting 'orthorhombic'
loop_
_space_group_symop_operation_xyz
x,y,z
-x,1/2-y,z
x,1/2-y,1/2-z
-x,y,1/2-z
-x,-y,-z
x,1/2+y,-z
-x,1/2+y,1/2+z
x,-y,1/2+z
1/2+x,1/2+y,z
1/2-x,-y,z
1/2+x,-y,1/2-z
1/2-x,1/2+y,1/2-z
1/2-x,1/2-y,-z
1/2+x,y,-z
1/2-x,y,1/2+z
1/2+x,1/2-y,1/2+z
loop_
_atom_site_type_symbol
_atom_site_label
_atom_site_fract_x
_atom_site_fract_y
_atom_site_fract_z
Si Si1 0.125781 0.979966 0.025290
Si Si2 0.739345 0.143541 0.397240
Si Si3 0.257318 0.830291 0.905259
Si Si4 0.144375 0.947880 0.678211
Si Si5 0.104935 0.084049 0.361543
Si Si6 0.002315 0.693923 0.352727
Si Si7 0.126384 0.762442 0.648903
O O1 0.250000 0.000000 0.995344
O O2 0.121168 0.931978 0.961843
O O3 0.870218 0.999614 0.873846
O O4 0.000000 0.000000 0.000000
O O5 0.758380 0.150015 0.498261
O O6 0.760340 0.088075 0.363291
O O7 0.613918 0.163828 0.377727
O O8 0.830736 0.181774 0.358208
O O9 0.169056 0.863868 0.851707
O O10 0.386031 0.833245 0.874936
O O11 0.214250 0.774023 0.898508
O O12 0.153384 0.950303 0.782564
O O13 0.028687 0.917709 0.656590
O O14 0.000000 0.750000 0.390362
O O15 0.000000 0.698925 0.250000
O O16 0.129962 0.750000 0.750000
O O17 0.000000 0.750000 0.616417
#
# Coordination Sequence:
#
# PCOD9508925 Si02
#       7
#    16  16  16  16  16  16  16
#     4  10  22  44  70 100 134 170 222 280 346 420
#     4  12  25  39  64  95 138 179 232 288 341 413
#     4  12  25  39  64  95 138 179 232 288 341 413
#     4  10  22  43  71  99 134 178 225 283 348 417
#     4  10  22  43  71  99 134 178 225 283 348 417
#     4  11  24  42  64  91 136 190 236 284 344 411
#     4  11  23  39  63  91 129 179 231 283 339 413
#
# _framework density 22.814385999999999
#
# number of rings (size 3 to 8) (size 9 to 14) (size 15 to 20)
#    0.000    1.143    1.429    4.714    4.000    2.857 
#    2.571    0.000    0.000    0.000    0.000    0.000 
#    0.000    0.000    0.000    0.000    0.000    0.000 
#
# Total GULP energy -312184.277518 kJ/mol
# GULP energy per Si atom -5574.719241 kJ/mol
# Density = 2.276246 g / cm^3
# Si number density = 22.814386 Si / 1000 Ang^3
#
#
#
# Elastic Constant Matrix: (Units=GPa)
#
#
# Indices 1 2 3 4 5 6 
#
# 1 146.5743 38.2215 14.2305 0.0000 0.0000 0.0000
# 2 38.2215 119.4015 41.3570 0.0000 0.0000 0.0000
# 3 14.2305 41.3570 112.4494 0.0000 0.0000 0.0000
# 4 0.0000 0.0000 0.0000 29.9716 0.0000 0.0000
# 5 0.0000 0.0000 0.0000 0.0000 27.0599 0.0000
# 6 0.0000 0.0000 0.0000 0.0000 0.0000 23.2338
#
#
#
# Elastic Compliance Matrix: (Units=1/GPa)
#
#
# Indices 1 2 3 4 5 6 
#
# 1 0.007444 -0.002357 -0.000075 0.000000 0.000000 0.000000
# 2 -0.002357 0.010344 -0.003506 0.000000 0.000000 0.000000
# 3 -0.000075 -0.003506 0.010192 0.000000 0.000000 0.000000
# 4 0.000000 0.000000 0.000000 0.033365 0.000000 0.000000
# 5 0.000000 0.000000 0.000000 0.000000 0.036955 0.000000
# 6 0.000000 0.000000 0.000000 0.000000 0.000000 0.043041
#
#
# Mechanical properties :
#
#
# Convention : Reuss Voigt Hill
#
# Bulk Modulus (GPa) = 62.09741 62.89368 62.49555
# Shear Modulus (GPa) = 31.52876 35.02747 33.27812
#
# Velocity S-wave (km/s) = 3.72152 3.92257 3.82337
# Velocity P-wave (km/s) = 6.76342 6.93850 6.85152
#
# Compressibility (1/GPa) = 0.01610373
#
# Stress axis : x y z
#
# Youngs Moduli (GPa) = 134.32920 96.67459 98.11729
#
# Poissons Ratio (x) = 0.22786 0.00738
# Poissons Ratio (y) = 0.31661 0.34401
# Poissons Ratio (z) = 0.01011 0.33895
#
# Static dielectric constant tensor:
#      x y z
#    x 1.840870 0.000000 0.000000 
#    y 0.000000 2.029150 0.000000 
#    z 0.000000 0.000000 1.912630 
# 
# From -- ./inp_files/21258.got.cif
#   From: 2010.05.17/outbox.cif.g08.bks.cpg/sg68_11_cif.got.tgz:21258.got - 2010.06.03 18:57:09.
