data_PCOD9508877
_publ_section_title
;
Structure prediction by ZEFSAII (Michael W. Deem and Ramdas Pophale) SiO2 
 PCOD9508877
Probable space group: C C C A
;
_chemical_formula_sum "Si O2"
_cell_formula_units_Z 64
_cell_length_a 11.695899
_cell_length_b 16.705060
_cell_length_c 15.312349
_cell_angle_alpha 90.000000
_cell_angle_beta 90.000000
_cell_angle_gamma 90.000000
_cell_volume 2991.737383
_symmetry_space_group_name_H-M "C C C A"
_symmetry_group_IT_number 68
_space_group.IT_coordinate_system_code '2'
_symmetry_cell_setting 'orthorhombic'
loop_
_space_group_symop_operation_xyz
x,y,z
-x,1/2-y,z
x,1/2-y,1/2-z
-x,y,1/2-z
-x,-y,-z
x,1/2+y,-z
-x,1/2+y,1/2+z
x,-y,1/2+z
1/2+x,1/2+y,z
1/2-x,-y,z
1/2+x,-y,1/2-z
1/2-x,1/2+y,1/2-z
1/2-x,1/2-y,-z
1/2+x,y,-z
1/2-x,y,1/2+z
1/2+x,1/2-y,1/2+z
loop_
_atom_site_type_symbol
_atom_site_label
_atom_site_fract_x
_atom_site_fract_y
_atom_site_fract_z
Si Si1 0.273701 0.865292 0.935925
Si Si2 0.632547 0.220214 0.889585
Si Si3 0.592361 0.012981 0.617460
Si Si4 0.643788 0.053345 0.819265
O O1 0.217671 0.794782 0.878854
O O2 0.167129 0.927896 0.943200
O O3 0.372126 0.921796 0.897813
O O4 0.326262 0.822852 0.020707
O O5 0.500000 0.250000 0.891569
O O6 0.650750 0.149111 0.821389
O O7 0.622474 0.031085 0.718575
O O8 0.459226 0.031058 0.615467
O O9 0.750000 0.000000 0.847981
#
# Coordination Sequence:
#
# PCOD9508877 Si02
#       4
#    16  16  16  16
#     4  10  22  43  64  92 139 166 210 278 329 379
#     4  11  24  41  67 101 128 173 219 274 327 385
#     4  10  22  44  64  94 136 168 215 274 321 392
#     4  11  23  41  68  99 124 176 223 257 332 390
#
# _framework density 21.392251999999999
#
# number of rings (size 3 to 8) (size 9 to 14) (size 15 to 20)
#    0.000    1.500    5.000    0.000    3.500    6.000 
#    0.000    0.000    0.000    0.000    0.000    0.000 
#    0.000    0.000    0.000    0.000    0.000    0.000 
#
# Total GULP energy -178602.978609 kJ/mol
# GULP energy per Si atom -5581.343082 kJ/mol
# Density = 2.134356 g / cm^3
# Si number density = 21.392252 Si / 1000 Ang^3
#
#
#
# Elastic Constant Matrix: (Units=GPa)
#
#
# Indices 1 2 3 4 5 6 
#
# 1 100.0613 44.8887 9.6925 0.0000 0.0000 0.0000
# 2 44.8887 179.8232 39.0866 0.0000 0.0000 0.0000
# 3 9.6925 39.0866 58.8606 0.0000 0.0000 0.0000
# 4 0.0000 0.0000 0.0000 103.7346 0.0000 0.0000
# 5 0.0000 0.0000 0.0000 0.0000 4.4406 0.0000
# 6 0.0000 0.0000 0.0000 0.0000 0.0000 29.5002
#
#
#
# Elastic Compliance Matrix: (Units=1/GPa)
#
#
# Indices 1 2 3 4 5 6 
#
# 1 0.011254 -0.002812 0.000014 0.000000 0.000000 0.000000
# 2 -0.002812 0.007202 -0.004319 0.000000 0.000000 0.000000
# 3 0.000014 -0.004319 0.019855 0.000000 0.000000 0.000000
# 4 0.000000 0.000000 0.000000 0.009640 0.000000 0.000000
# 5 0.000000 0.000000 0.000000 0.000000 0.225194 0.000000
# 6 0.000000 0.000000 0.000000 0.000000 0.000000 0.033898
#
#
# Mechanical properties :
#
#
# Convention : Reuss Voigt Hill
#
# Bulk Modulus (GPa) = 41.53421 58.45340 49.99381
# Shear Modulus (GPa) = 15.18356 43.87357 29.52856
#
# Velocity S-wave (km/s) = 2.66704 4.53361 3.71932
# Velocity P-wave (km/s) = 5.37976 7.40194 6.47034
#
# Compressibility (1/GPa) = 0.02407654
#
# Stress axis : x y z
#
# Youngs Moduli (GPa) = 88.85577 138.85127 50.36459
#
# Poissons Ratio (x) = 0.39052 -0.00073
# Poissons Ratio (y) = 0.24991 0.21754
# Poissons Ratio (z) = -0.00128 0.59975
#
# Static dielectric constant tensor:
#      x y z
#    x 1.826980 0.000000 0.000000 
#    y 0.000000 1.773770 0.000000 
#    z 0.000000 0.000000 1.813020 
# 
# From -- ./inp_files/20452.got.cif
#   From: 2010.05.17/outbox.cif.g08.bks.cpg/sg68_11_cif.got.tgz:20452.got - 2010.06.03 18:57:09.
