data_PCOD9508754
_publ_section_title
;
Structure prediction by ZEFSAII (Michael W. Deem and Ramdas Pophale) SiO2 
 PCOD9508754
Probable space group: C C C A
;
_chemical_formula_sum "Si O2"
_cell_formula_units_Z 64
_cell_length_a 10.169582
_cell_length_b 17.953587
_cell_length_c 13.820836
_cell_angle_alpha 90.000000
_cell_angle_beta 90.000000
_cell_angle_gamma 90.000000
_cell_volume 2523.414804
_symmetry_space_group_name_H-M "C C C A"
_symmetry_group_IT_number 68
_space_group.IT_coordinate_system_code '2'
_symmetry_cell_setting 'orthorhombic'
loop_
_space_group_symop_operation_xyz
x,y,z
-x,1/2-y,z
x,1/2-y,1/2-z
-x,y,1/2-z
-x,-y,-z
x,1/2+y,-z
-x,1/2+y,1/2+z
x,-y,1/2+z
1/2+x,1/2+y,z
1/2-x,-y,z
1/2+x,-y,1/2-z
1/2-x,1/2+y,1/2-z
1/2-x,1/2-y,-z
1/2+x,y,-z
1/2-x,y,1/2+z
1/2+x,1/2-y,1/2+z
loop_
_atom_site_type_symbol
_atom_site_label
_atom_site_fract_x
_atom_site_fract_y
_atom_site_fract_z
Si Si1 0.377599 0.946850 0.018011
Si Si2 0.790351 0.165741 0.089472
Si Si3 0.380448 0.195975 0.114582
Si Si4 0.215878 0.584748 0.777591
O O1 0.374238 0.916959 0.127395
O O2 0.250000 0.000000 0.011749
O O3 0.339852 0.880659 0.944476
O O4 0.500000 0.000000 0.000000
O O5 0.746535 0.249315 0.113684
O O6 0.840047 0.126307 0.185119
O O7 0.884351 0.166523 0.996100
O O8 0.500000 0.250000 0.138616
O O9 0.346536 0.129407 0.186932
O O10 0.250000 0.500000 0.751834
#
# Coordination Sequence:
#
# PCOD9508754 Si02
#       4
#    16  16  16  16
#     4  10  23  43  70 103 151 195 241 312 388 448
#     4  10  22  41  71 100 145 197 253 316 381 464
#     4  10  23  43  72 102 147 200 251 315 392 470
#     4  10  22  42  68 108 145 193 253 315 374 463
#
# _framework density 25.362458
#
# number of rings (size 3 to 8) (size 9 to 14) (size 15 to 20)
#    0.000    2.000    0.000    1.500   10.500    3.000 
#    0.000    6.250    5.500    0.000    0.000    0.000 
#    0.000    0.000    0.000    0.000    0.000    0.000 
#
# Total GULP energy -179348.002885 kJ/mol
# GULP energy per Si atom -5604.625090 kJ/mol
# Density = 2.530473 g / cm^3
# Si number density = 25.362458 Si / 1000 Ang^3
#
#
#
# Elastic Constant Matrix: (Units=GPa)
#
#
# Indices 1 2 3 4 5 6 
#
# 1 124.9321 32.5814 27.4599 0.0000 0.0000 0.0000
# 2 32.5814 156.2665 60.1412 0.0000 0.0000 0.0000
# 3 27.4599 60.1412 152.8458 0.0000 0.0000 0.0000
# 4 0.0000 0.0000 0.0000 43.4046 0.0000 0.0000
# 5 0.0000 0.0000 0.0000 0.0000 8.0180 0.0000
# 6 0.0000 0.0000 0.0000 0.0000 0.0000 51.9501
#
#
#
# Elastic Compliance Matrix: (Units=1/GPa)
#
#
# Indices 1 2 3 4 5 6 
#
# 1 0.008589 -0.001411 -0.000988 0.000000 0.000000 0.000000
# 2 -0.001411 0.007773 -0.002805 0.000000 0.000000 0.000000
# 3 -0.000988 -0.002805 0.007824 0.000000 0.000000 0.000000
# 4 0.000000 0.000000 0.000000 0.023039 0.000000 0.000000
# 5 0.000000 0.000000 0.000000 0.000000 0.124720 0.000000
# 6 0.000000 0.000000 0.000000 0.000000 0.000000 0.019249
#
#
# Mechanical properties :
#
#
# Convention : Reuss Voigt Hill
#
# Bulk Modulus (GPa) = 72.57607 74.93437 73.75522
# Shear Modulus (GPa) = 24.24893 41.59867 32.92380
#
# Velocity S-wave (km/s) = 3.09543 4.05429 3.60687
# Velocity P-wave (km/s) = 6.43842 7.17815 6.81833
#
# Compressibility (1/GPa) = 0.01377865
#
# Stress axis : x y z
#
# Youngs Moduli (GPa) = 116.42244 128.65049 127.81528
#
# Poissons Ratio (x) = 0.18147 0.12630
# Poissons Ratio (y) = 0.16422 0.35853
# Poissons Ratio (z) = 0.11504 0.36087
#
# Static dielectric constant tensor:
#      x y z
#    x 2.042850 0.000000 0.000000 
#    y 0.000000 2.008580 0.000000 
#    z 0.000000 0.000000 1.978200 
# 
# From -- ./inp_files/20409.got.cif
#   From: 2010.05.17/outbox.cif.g08.bks.cpg/sg68_11_cif.got.tgz:20409.got - 2010.06.03 18:57:09.
