data_PCOD9508485
_publ_section_title
;
Structure prediction by ZEFSAII (Michael W. Deem and Ramdas Pophale) SiO2 
 PCOD9508485
Probable space group: C C C A
;
_chemical_formula_sum "Si O2"
_cell_formula_units_Z 48
_cell_length_a 5.042912
_cell_length_b 14.518362
_cell_length_c 28.444529
_cell_angle_alpha 90.000000
_cell_angle_beta 90.000000
_cell_angle_gamma 90.000000
_cell_volume 2082.561126
_symmetry_space_group_name_H-M "C C C A"
_symmetry_group_IT_number 68
_space_group.IT_coordinate_system_code '2'
_symmetry_cell_setting 'orthorhombic'
loop_
_space_group_symop_operation_xyz
x,y,z
-x,1/2-y,z
x,1/2-y,1/2-z
-x,y,1/2-z
-x,-y,-z
x,1/2+y,-z
-x,1/2+y,1/2+z
x,-y,1/2+z
1/2+x,1/2+y,z
1/2-x,-y,z
1/2+x,-y,1/2-z
1/2-x,1/2+y,1/2-z
1/2-x,1/2-y,-z
1/2+x,y,-z
1/2-x,y,1/2+z
1/2+x,1/2-y,1/2+z
loop_
_atom_site_type_symbol
_atom_site_label
_atom_site_fract_x
_atom_site_fract_y
_atom_site_fract_z
Si Si1 0.757164 0.887543 0.780271
Si Si2 0.000409 0.062383 0.128188
Si Si3 0.015739 0.139342 0.471696
O O1 0.500000 0.858936 0.750000
O O2 0.000000 0.855144 0.750000
O O3 0.858044 0.869973 0.833665
O O4 0.750000 0.000000 0.780781
O O5 0.905274 0.108889 0.080438
O O6 0.750000 0.000000 0.147400
O O7 0.250000 0.000000 0.114342
O O8 0.230575 0.108325 0.509841
O O9 0.000000 0.250000 0.471184
#
# Coordination Sequence:
#
# PCOD9508485 Si02
#       3
#    16  16  16
#     4   9  16  28  46  72 104 135 167 210 263 318
#     4  11  21  33  55  86 111 139 185 234 275 315
#     4  10  22  39  56  77 111 153 187 220 275 339
#
# _framework density 23.048542000000001
#
# number of rings (size 3 to 8) (size 9 to 14) (size 15 to 20)
#    0.000    2.000    0.000    7.000    0.000    4.000 
#    0.000    0.000    0.000    1.000    0.000   18.667 
#    0.000    0.000    0.000    0.000    0.000    0.000 
#
# Total GULP energy -133707.174505 kJ/mol
# GULP energy per Si atom -5571.132271 kJ/mol
# Density = 2.299608 g / cm^3
# Si number density = 23.048542 Si / 1000 Ang^3
#
#
#
# Elastic Constant Matrix: (Units=GPa)
#
#
# Indices 1 2 3 4 5 6 
#
# 1 160.7493 2.0892 27.7518 0.0000 0.0000 0.0000
# 2 2.0892 49.7672 6.8840 0.0000 0.0000 0.0000
# 3 27.7518 6.8840 161.5262 0.0000 0.0000 0.0000
# 4 0.0000 0.0000 0.0000 -37.6992 0.0000 0.0000
# 5 0.0000 0.0000 0.0000 0.0000 39.7684 0.0000
# 6 0.0000 0.0000 0.0000 0.0000 0.0000 -12.3338
#
#
#
# Elastic Compliance Matrix: (Units=1/GPa)
#
#
# Indices 1 2 3 4 5 6 
#
# 1 0.006412 -0.000117 -0.001097 0.000000 0.000000 0.000000
# 2 -0.000117 0.020215 -0.000841 0.000000 0.000000 0.000000
# 3 -0.001097 -0.000841 0.006415 0.000000 0.000000 0.000000
# 4 0.000000 0.000000 0.000000 -0.026526 0.000000 0.000000
# 5 0.000000 0.000000 0.000000 0.000000 0.025146 0.000000
# 6 0.000000 0.000000 0.000000 0.000000 0.000000 -0.081078
#
#
# Mechanical properties :
#
#
# Convention : Reuss Voigt Hill
#
# Bulk Modulus (GPa) = 34.56506 49.49920 42.03213
# Shear Modulus (GPa) = -140.20527 20.30161 -59.95183
#
# Velocity S-wave (km/s) = -7.80785 2.97108 -5.10564
# Velocity P-wave (km/s) = 8.13966 5.76996 4.05966
#
# Compressibility (1/GPa) = 0.02893095
#
# Stress axis : x y z
#
# Youngs Moduli (GPa) = 155.96466 49.46857 155.87963
#
# Poissons Ratio (x) = 0.00581 0.17094
# Poissons Ratio (y) = 0.01832 0.13115
# Poissons Ratio (z) = 0.17103 0.04162
#
# Static dielectric constant tensor:
#      x y z
#    x 1.877390 0.000000 0.000000 
#    y 0.000000 1.926060 0.000000 
#    z 0.000000 0.000000 2.150230 
# 
# From -- ./inp_files/41885.got.cif
#   From: 2010.05.17/outbox.cif.g08.bks.cpg/sg68_21_cif.got.tgz:41885.got - 2010.06.03 18:57:09.
