data_PCOD9508166
_publ_section_title
;
Structure prediction by ZEFSAII (Michael W. Deem and Ramdas Pophale) SiO2 
 PCOD9508166
Probable space group: C C C A
;
_chemical_formula_sum "Si O2"
_cell_formula_units_Z 52
_cell_length_a 16.361034
_cell_length_b 5.012523
_cell_length_c 30.937111
_cell_angle_alpha 90.000000
_cell_angle_beta 90.000000
_cell_angle_gamma 90.000000
_cell_volume 2537.154305
_symmetry_space_group_name_H-M "C C C A"
_symmetry_group_IT_number 68
_space_group.IT_coordinate_system_code '2'
_symmetry_cell_setting 'orthorhombic'
loop_
_space_group_symop_operation_xyz
x,y,z
-x,1/2-y,z
x,1/2-y,1/2-z
-x,y,1/2-z
-x,-y,-z
x,1/2+y,-z
-x,1/2+y,1/2+z
x,-y,1/2+z
1/2+x,1/2+y,z
1/2-x,-y,z
1/2+x,-y,1/2-z
1/2-x,1/2+y,1/2-z
1/2-x,1/2-y,-z
1/2+x,y,-z
1/2-x,y,1/2+z
1/2+x,1/2-y,1/2+z
loop_
_atom_site_type_symbol
_atom_site_label
_atom_site_fract_x
_atom_site_fract_y
_atom_site_fract_z
Si Si1 0.554907 0.006784 0.166135
Si Si2 0.097881 0.256099 0.472442
Si Si3 0.196485 0.242498 0.388335
Si Si4 0.500000 0.250000 0.250000
O O1 0.500000 0.250000 0.146097
O O2 0.555927 0.083582 0.216889
O O3 0.500000 0.750000 0.161055
O O4 0.641009 0.914377 0.146937
O O5 0.120468 0.467090 0.509395
O O6 0.138793 0.333354 0.427472
O O7 0.000000 0.250000 0.466577
O O8 0.250000 0.500000 0.373778
O O9 0.250000 0.000000 0.406450
#
# Coordination Sequence:
#
# PCOD9508166 Si02
#       4
#    16  16  16   4
#     4  10  21  41  70  93 121 161 223 264 316 389
#     4  10  22  40  62  89 124 171 225 265 300 366
#     4  12  25  39  62  98 137 172 205 261 338 387
#     4   8  22  40  78  92 110 164 224 272 318 380
#
# _framework density 20.495403
#
# number of rings (size 3 to 8) (size 9 to 14) (size 15 to 20)
#    0.923    0.615    0.000    5.077    0.000    7.385 
#    0.000    0.000    6.769    0.000    0.000    0.000 
#    0.000    0.000    0.000    0.000    0.000    0.000 
#
# Total GULP energy -144845.539432 kJ/mol
# GULP energy per Si atom -5570.982286 kJ/mol
# Density = 2.044875 g / cm^3
# Si number density = 20.495403 Si / 1000 Ang^3
#
#
#
# Elastic Constant Matrix: (Units=GPa)
#
#
# Indices 1 2 3 4 5 6 
#
# 1 73.8699 47.2663 54.4428 0.0000 0.0000 0.0000
# 2 47.2663 141.6713 19.7356 0.0000 0.0000 0.0000
# 3 54.4428 19.7356 92.7372 0.0000 0.0000 0.0000
# 4 0.0000 0.0000 0.0000 -4.6802 0.0000 0.0000
# 5 0.0000 0.0000 0.0000 0.0000 -9.4884 0.0000
# 6 0.0000 0.0000 0.0000 0.0000 0.0000 35.9866
#
#
#
# Elastic Compliance Matrix: (Units=1/GPa)
#
#
# Indices 1 2 3 4 5 6 
#
# 1 0.030630 -0.007950 -0.016290 0.000000 0.000000 0.000000
# 2 -0.007950 0.009338 0.002680 0.000000 0.000000 0.000000
# 3 -0.016290 0.002680 0.019776 0.000000 0.000000 0.000000
# 4 0.000000 0.000000 0.000000 -0.213668 0.000000 0.000000
# 5 0.000000 0.000000 0.000000 0.000000 -0.105391 0.000000
# 6 0.000000 0.000000 0.000000 0.000000 0.000000 0.027788
#
#
# Mechanical properties :
#
#
# Convention : Reuss Voigt Hill
#
# Bulk Modulus (GPa) = 60.15444 61.24086 60.69765
# Shear Modulus (GPa) = -27.34231 16.81918 -5.26157
#
# Velocity S-wave (km/s) = -3.65646 2.86778 -1.60398
# Velocity P-wave (km/s) = 3.40407 6.39615 5.12340
#
# Compressibility (1/GPa) = 0.01662388
#
# Stress axis : x y z
#
# Youngs Moduli (GPa) = 32.64780 107.09367 50.56615
#
# Poissons Ratio (x) = 0.85138 0.82372
# Poissons Ratio (y) = 0.25955 -0.13551
# Poissons Ratio (z) = 0.53183 -0.28701
#
# Static dielectric constant tensor:
#      x y z
#    x 1.753350 0.000000 0.000000 
#    y 0.000000 1.719500 0.000000 
#    z 0.000000 0.000000 1.763090 
# 
# From -- ./inp_files/55408.got.cif
#   From: 2010.05.17/outbox.cif.g08.bks.cpg/sg68_28_cif.got.tgz:55408.got - 2010.06.03 18:57:09.
