data_PCOD9508909
_publ_section_title
;
Structure prediction by ZEFSAII (Michael W. Deem and Ramdas Pophale) SiO2 
 PCOD9508909
Probable space group: C C C A
;
_chemical_formula_sum "Si O2"
_cell_formula_units_Z 64
_cell_length_a 28.862233
_cell_length_b 8.671466
_cell_length_c 10.340796
_cell_angle_alpha 90.000000
_cell_angle_beta 90.000000
_cell_angle_gamma 90.000000
_cell_volume 2588.072419
_symmetry_space_group_name_H-M "C C C A"
_symmetry_group_IT_number 68
_space_group.IT_coordinate_system_code '2'
_symmetry_cell_setting 'orthorhombic'
loop_
_space_group_symop_operation_xyz
x,y,z
-x,1/2-y,z
x,1/2-y,1/2-z
-x,y,1/2-z
-x,-y,-z
x,1/2+y,-z
-x,1/2+y,1/2+z
x,-y,1/2+z
1/2+x,1/2+y,z
1/2-x,-y,z
1/2+x,-y,1/2-z
1/2-x,1/2+y,1/2-z
1/2-x,1/2-y,-z
1/2+x,y,-z
1/2-x,y,1/2+z
1/2+x,1/2-y,1/2+z
loop_
_atom_site_type_symbol
_atom_site_label
_atom_site_fract_x
_atom_site_fract_y
_atom_site_fract_z
Si Si1 0.563141 0.018474 0.611106
Si Si2 0.343898 0.138836 0.479580
Si Si3 0.500000 0.250000 0.059081
Si Si4 0.718000 0.619949 0.566332
Si Si5 0.122267 0.250000 0.250000
O O1 0.535753 0.148831 0.528936
O O2 0.587737 0.106749 0.727457
O O3 0.606559 0.935771 0.543405
O O4 0.528484 0.878789 0.635453
O O5 0.325889 0.278144 0.389437
O O6 0.347442 0.209156 0.624672
O O7 0.306668 0.001912 0.471455
O O8 0.750000 0.500000 0.648111
O O9 0.750000 0.750000 0.500000
#
# Coordination Sequence:
#
# PCOD9508909 Si02
#       5
#    16  16   8  16   8
#     4  11  22  43  68  96 135 177 221 286 332 406
#     4  11  20  42  66  95 132 173 222 271 338 397
#     4  10  22  43  69  94 136 172 224 290 338 386
#     4   9  19  37  70  92 129 174 210 280 337 382
#     4  12  24  39  74  96 132 190 218 274 342 403
#
# _framework density 24.728829000000001
#
# number of rings (size 3 to 8) (size 9 to 14) (size 15 to 20)
#    0.000    1.500    5.000    0.000    0.000    0.500 
#    0.000   10.000    0.000    0.000    0.000    0.000 
#    0.000    0.000    0.000    0.000    0.000    0.000 
#
# Total GULP energy -178369.085527 kJ/mol
# GULP energy per Si atom -5574.033923 kJ/mol
# Density = 2.467255 g / cm^3
# Si number density = 24.728829 Si / 1000 Ang^3
#
#
#
# Elastic Constant Matrix: (Units=GPa)
#
#
# Indices 1 2 3 4 5 6 
#
# 1 148.7158 86.1337 37.8914 0.0000 0.0000 0.0000
# 2 86.1337 212.6679 47.0775 0.0000 0.0000 0.0000
# 3 37.8914 47.0775 78.1170 0.0000 0.0000 0.0000
# 4 0.0000 0.0000 0.0000 26.0553 0.0000 0.0000
# 5 0.0000 0.0000 0.0000 0.0000 -62.8690 0.0000
# 6 0.0000 0.0000 0.0000 0.0000 0.0000 84.3993
#
#
#
# Elastic Compliance Matrix: (Units=1/GPa)
#
#
# Indices 1 2 3 4 5 6 
#
# 1 0.009208 -0.003163 -0.002561 0.000000 0.000000 0.000000
# 2 -0.003163 0.006512 -0.002391 0.000000 0.000000 0.000000
# 3 -0.002561 -0.002391 0.015484 0.000000 0.000000 0.000000
# 4 0.000000 0.000000 0.000000 0.038380 0.000000 0.000000
# 5 0.000000 0.000000 0.000000 0.000000 -0.015906 0.000000
# 6 0.000000 0.000000 0.000000 0.000000 0.000000 0.011848
#
#
# Mechanical properties :
#
#
# Convention : Reuss Voigt Hill
#
# Bulk Modulus (GPa) = 66.76907 86.85621 76.81264
# Shear Modulus (GPa) = 57.63879 27.41032 42.52456
#
# Velocity S-wave (km/s) = 4.83311 3.33293 4.15135
# Velocity P-wave (km/s) = 7.62918 7.07184 7.35579
#
# Compressibility (1/GPa) = 0.01497699
#
# Stress axis : x y z
#
# Youngs Moduli (GPa) = 108.59588 153.55540 64.58269
#
# Poissons Ratio (x) = 0.48565 0.16537
# Poissons Ratio (y) = 0.34346 0.15439
# Poissons Ratio (z) = 0.27807 0.36708
#
# Static dielectric constant tensor:
#      x y z
#    x 1.866020 0.000000 0.000000 
#    y 0.000000 2.022790 0.000000 
#    z 0.000000 0.000000 2.106400 
# 
# From -- ./inp_files/10785.got.cif
#   From: 2010.05.17/outbox.cif.g08.bks.cpg/sg68_6_cif.got.tgz:10785.got - 2010.06.03 18:57:09.
