data_PCOD9508092
_publ_section_title
;
Structure prediction by ZEFSAII (Michael W. Deem and Ramdas Pophale) SiO2 
 PCOD9508092
Probable space group: C C C A
;
_chemical_formula_sum "Si O2"
_cell_formula_units_Z 88
_cell_length_a 16.272953
_cell_length_b 10.646681
_cell_length_c 22.816131
_cell_angle_alpha 90.000000
_cell_angle_beta 90.000000
_cell_angle_gamma 90.000000
_cell_volume 3952.961764
_symmetry_space_group_name_H-M "C C C A"
_symmetry_group_IT_number 68
_space_group.IT_coordinate_system_code '2'
_symmetry_cell_setting 'orthorhombic'
loop_
_space_group_symop_operation_xyz
x,y,z
-x,1/2-y,z
x,1/2-y,1/2-z
-x,y,1/2-z
-x,-y,-z
x,1/2+y,-z
-x,1/2+y,1/2+z
x,-y,1/2+z
1/2+x,1/2+y,z
1/2-x,-y,z
1/2+x,-y,1/2-z
1/2-x,1/2+y,1/2-z
1/2-x,1/2-y,-z
1/2+x,y,-z
1/2-x,y,1/2+z
1/2+x,1/2-y,1/2+z
loop_
_atom_site_type_symbol
_atom_site_label
_atom_site_fract_x
_atom_site_fract_y
_atom_site_fract_z
Si Si1 0.605805 0.250000 0.250000
Si Si2 0.444963 0.374400 0.002616
Si Si3 0.125695 0.543644 0.884972
Si Si4 0.035418 0.010591 0.810987
Si Si5 0.220684 0.826947 0.155293
Si Si6 0.328401 0.064164 0.391250
O O1 0.556455 0.155660 0.207021
O O2 0.665259 0.342277 0.213267
O O3 0.500000 0.250000 0.002570
O O4 0.389084 0.381395 0.944525
O O5 0.500000 0.500000 0.000000
O O6 0.391293 0.384616 0.060918
O O7 0.174097 0.412349 0.893007
O O8 0.186868 0.623186 0.843273
O O9 0.038784 0.510460 0.855913
O O10 0.119194 0.977830 0.845762
O O11 0.000000 0.953917 0.750000
O O12 0.211435 0.681866 0.141863
O O13 0.250000 0.000000 0.420368
#
# Coordination Sequence:
#
# PCOD9508092 Si02
#       6
#     8  16  16  16  16  16
#     4  10  21  40  72 102 137 192 256 299 346 444
#     4  12  27  48  77 106 148 192 251 303 370 443
#     4  11  24  42  67 106 146 183 235 300 372 430
#     4  11  22  39  72 100 140 184 247 299 356 428
#     4  10  24  42  67 105 143 188 239 302 372 435
#     4  11  27  45  72 106 143 186 249 299 365 435
#
# _framework density 22.261790000000001
#
# number of rings (size 3 to 8) (size 9 to 14) (size 15 to 20)
#    0.000    1.091    3.636    1.364    7.636    3.636 
#    0.000    0.000    0.000    1.091    0.000    0.000 
#    0.000    0.000    0.000    0.000    0.000    0.000 
#
# Total GULP energy -245416.061650 kJ/mol
# GULP energy per Si atom -5577.637765 kJ/mol
# Density = 2.221112 g / cm^3
# Si number density = 22.261790 Si / 1000 Ang^3
#
#
#
# Elastic Constant Matrix: (Units=GPa)
#
#
# Indices 1 2 3 4 5 6 
#
# 1 129.7590 46.8226 32.7335 0.0000 0.0000 0.0000
# 2 46.8226 57.6429 10.8772 0.0000 0.0000 0.0000
# 3 32.7335 10.8772 86.3185 0.0000 0.0000 0.0000
# 4 0.0000 0.0000 0.0000 22.9627 0.0000 0.0000
# 5 0.0000 0.0000 0.0000 0.0000 23.3458 0.0000
# 6 0.0000 0.0000 0.0000 0.0000 0.0000 44.4275
#
#
#
# Elastic Compliance Matrix: (Units=1/GPa)
#
#
# Indices 1 2 3 4 5 6 
#
# 1 0.011772 -0.008932 -0.003339 0.000000 0.000000 0.000000
# 2 -0.008932 0.024548 0.000294 0.000000 0.000000 0.000000
# 3 -0.003339 0.000294 0.012814 0.000000 0.000000 0.000000
# 4 0.000000 0.000000 0.000000 0.043549 0.000000 0.000000
# 5 0.000000 0.000000 0.000000 0.000000 0.042834 0.000000
# 6 0.000000 0.000000 0.000000 0.000000 0.000000 0.022509
#
#
# Mechanical properties :
#
#
# Convention : Reuss Voigt Hill
#
# Bulk Modulus (GPa) = 39.71340 50.50965 45.11153
# Shear Modulus (GPa) = 26.26423 30.36636 28.31530
#
# Velocity S-wave (km/s) = 3.43853 3.69732 3.57027
# Velocity P-wave (km/s) = 5.80023 6.40040 6.10769
#
# Compressibility (1/GPa) = 0.02518041
#
# Stress axis : x y z
#
# Youngs Moduli (GPa) = 84.94795 40.73613 78.03958
#
# Poissons Ratio (x) = 0.36386 0.26054
# Poissons Ratio (y) = 0.75877 -0.02293
# Poissons Ratio (z) = 0.28360 -0.01197
#
# Static dielectric constant tensor:
#      x y z
#    x 1.894950 0.000000 0.000000 
#    y 0.000000 2.020820 0.000000 
#    z 0.000000 0.000000 1.899960 
# 
# From -- ./inp_files/45310.got.cif
#   From: 2010.05.17/outbox.cif.g08.bks.cpg/sg68_23_cif.got.tgz:45310.got - 2010.06.03 18:57:09.
