data_PCOD9508628
_publ_section_title
;
Structure prediction by ZEFSAII (Michael W. Deem and Ramdas Pophale) SiO2 
 PCOD9508628
Probable space group: C C C A
;
_chemical_formula_sum "Si O2"
_cell_formula_units_Z 96
_cell_length_a 14.398433
_cell_length_b 18.884948
_cell_length_c 17.391881
_cell_angle_alpha 90.000000
_cell_angle_beta 90.000000
_cell_angle_gamma 90.000000
_cell_volume 4729.089991
_symmetry_space_group_name_H-M "C C C A"
_symmetry_group_IT_number 68
_space_group.IT_coordinate_system_code '2'
_symmetry_cell_setting 'orthorhombic'
loop_
_space_group_symop_operation_xyz
x,y,z
-x,1/2-y,z
x,1/2-y,1/2-z
-x,y,1/2-z
-x,-y,-z
x,1/2+y,-z
-x,1/2+y,1/2+z
x,-y,1/2+z
1/2+x,1/2+y,z
1/2-x,-y,z
1/2+x,-y,1/2-z
1/2-x,1/2+y,1/2-z
1/2-x,1/2-y,-z
1/2+x,y,-z
1/2-x,y,1/2+z
1/2+x,1/2-y,1/2+z
loop_
_atom_site_type_symbol
_atom_site_label
_atom_site_fract_x
_atom_site_fract_y
_atom_site_fract_z
Si Si1 0.286491 0.284918 0.666921
Si Si2 0.484413 0.463869 0.117292
Si Si3 0.647483 0.023107 0.968590
Si Si4 0.925710 0.809111 0.122735
Si Si5 0.549130 0.380691 0.828544
Si Si6 0.102232 0.677440 0.939690
O O1 0.300799 0.250000 0.750000
O O2 0.177975 0.295177 0.652155
O O3 0.344299 0.357859 0.667472
O O4 0.335426 0.235539 0.602693
O O5 0.590652 0.471620 0.088315
O O6 0.461571 0.386565 0.148770
O O7 0.463769 0.535075 0.164322
O O8 0.417183 0.471231 0.043274
O O9 0.750000 0.000000 0.988201
O O10 0.653038 0.101563 0.933722
O O11 0.000000 0.750000 0.146024
O O12 0.917244 0.807772 0.029139
O O13 0.500000 0.356829 0.750000
O O14 0.494294 0.339464 0.896122
#
# Coordination Sequence:
#
# PCOD9508628 Si02
#       6
#    16  16  16  16  16  16
#     4  12  25  41  67  98 132 176 217 267 338 395
#     4   9  22  40  61  98 125 171 218 264 328 377
#     4   9  19  36  66  93 134 165 211 278 321 380
#     4  11  25  44  66  95 138 178 215 271 325 403
#     4  11  22  42  70  97 131 167 221 286 327 382
#     4  10  22  40  67 105 127 169 221 276 334 385
#
# _framework density 20.299890000000001
#
# number of rings (size 3 to 8) (size 9 to 14) (size 15 to 20)
#    0.000    1.667    1.667    3.000    7.000    0.333 
#    3.000    0.000    0.000    0.000    0.000    0.000 
#    0.000    0.000    0.000    0.000    0.000    0.000 
#
# Total GULP energy -268087.668742 kJ/mol
# GULP energy per Si atom -5585.159765 kJ/mol
# Density = 2.025369 g / cm^3
# Si number density = 20.299890 Si / 1000 Ang^3
#
#
#
# Elastic Constant Matrix: (Units=GPa)
#
#
# Indices 1 2 3 4 5 6 
#
# 1 128.1233 54.0970 -0.3302 0.0000 0.0000 0.0000
# 2 54.0970 93.6831 2.3203 0.0000 0.0000 0.0000
# 3 -0.3302 2.3203 42.7943 0.0000 0.0000 0.0000
# 4 0.0000 0.0000 0.0000 21.6660 0.0000 0.0000
# 5 0.0000 0.0000 0.0000 0.0000 14.3662 0.0000
# 6 0.0000 0.0000 0.0000 0.0000 0.0000 19.2121
#
#
#
# Elastic Compliance Matrix: (Units=1/GPa)
#
#
# Indices 1 2 3 4 5 6 
#
# 1 0.010328 -0.005974 0.000404 0.000000 0.000000 0.000000
# 2 -0.005974 0.014144 -0.000813 0.000000 0.000000 0.000000
# 3 0.000404 -0.000813 0.023415 0.000000 0.000000 0.000000
# 4 0.000000 0.000000 0.000000 0.046155 0.000000 0.000000
# 5 0.000000 0.000000 0.000000 0.000000 0.069608 0.000000
# 6 0.000000 0.000000 0.000000 0.000000 0.000000 0.052051
#
#
# Mechanical properties :
#
#
# Convention : Reuss Voigt Hill
#
# Bulk Modulus (GPa) = 28.47350 41.86389 35.16870
# Shear Modulus (GPa) = 20.81818 24.94977 22.88398
#
# Velocity S-wave (km/s) = 3.20587 3.50960 3.36116
# Velocity P-wave (km/s) = 5.26881 6.09020 5.69433
#
# Compressibility (1/GPa) = 0.03512037
#
# Stress axis : x y z
#
# Youngs Moduli (GPa) = 96.81990 70.70051 42.70808
#
# Poissons Ratio (x) = 0.42237 -0.01724
# Poissons Ratio (y) = 0.57841 0.03472
# Poissons Ratio (z) = -0.03908 0.05748
#
# Static dielectric constant tensor:
#      x y z
#    x 1.695750 0.000000 0.000000 
#    y 0.000000 1.747000 0.000000 
#    z 0.000000 0.000000 1.730600 
# 
# From -- ./inp_files/38564.got.cif
#   From: 2010.05.17/outbox.cif.g08.bks.cpg/sg68_20_cif.got.tgz:38564.got - 2010.06.03 18:57:09.
