data_PCOD9508910
_publ_section_title
;
Structure prediction by ZEFSAII (Michael W. Deem and Ramdas Pophale) SiO2 
 PCOD9508910
Probable space group: C C C A
;
_chemical_formula_sum "Si O2"
_cell_formula_units_Z 104
_cell_length_a 8.587117
_cell_length_b 27.359257
_cell_length_c 18.987033
_cell_angle_alpha 90.000000
_cell_angle_beta 90.000000
_cell_angle_gamma 90.000000
_cell_volume 4460.759247
_symmetry_space_group_name_H-M "C C C A"
_symmetry_group_IT_number 68
_space_group.IT_coordinate_system_code '2'
_symmetry_cell_setting 'orthorhombic'
loop_
_space_group_symop_operation_xyz
x,y,z
-x,1/2-y,z
x,1/2-y,1/2-z
-x,y,1/2-z
-x,-y,-z
x,1/2+y,-z
-x,1/2+y,1/2+z
x,-y,1/2+z
1/2+x,1/2+y,z
1/2-x,-y,z
1/2+x,-y,1/2-z
1/2-x,1/2+y,1/2-z
1/2-x,1/2-y,-z
1/2+x,y,-z
1/2-x,y,1/2+z
1/2+x,1/2-y,1/2+z
loop_
_atom_site_type_symbol
_atom_site_label
_atom_site_fract_x
_atom_site_fract_y
_atom_site_fract_z
Si Si1 0.664616 0.230983 0.830114
Si Si2 0.000000 0.871410 0.250000
Si Si3 0.259699 0.949972 0.695861
Si Si4 0.297426 0.176568 0.367975
Si Si5 0.677415 0.389147 0.491759
Si Si6 0.040320 0.128895 0.142890
Si Si7 0.445793 0.957203 0.554098
O O1 0.500000 0.250000 0.860386
O O2 0.670643 0.250000 0.750000
O O3 0.789911 0.264781 0.866833
O O4 0.656388 0.173023 0.834244
O O5 0.861637 0.907649 0.270755
O O6 0.935009 0.840094 0.184272
O O7 0.098524 0.922167 0.676394
O O8 0.362872 0.967919 0.627635
O O9 0.250000 0.000000 0.739669
O O10 0.303963 0.159789 0.448515
O O11 0.133810 0.149401 0.342892
O O12 0.573130 0.379145 0.560279
O O13 0.597931 0.425037 0.435073
O O14 0.823546 0.420078 0.518268
O O15 0.500000 0.000000 0.500000
#
# Coordination Sequence:
#
# PCOD9508910 Si02
#       7
#    16   8  16  16  16  16  16
#     4   9  19  39  67  93 122 171 223 255 319 398
#     4  12  26  44  65  96 140 168 225 288 328 394
#     4  11  25  43  62  92 131 176 220 273 334 398
#     4  11  23  42  68  95 131 177 215 279 333 391
#     4  11  21  38  66  95 132 168 218 277 337 388
#     4  10  22  43  69  95 131 173 221 273 327 405
#     4  11  21  40  64  94 125 172 224 275 327 397
#
# _framework density 23.314415
#
# number of rings (size 3 to 8) (size 9 to 14) (size 15 to 20)
#    0.000    1.385    3.077    3.231    0.000    3.692 
#    0.000    3.462    0.000    0.000    0.000    0.000 
#    0.000    0.000    0.000    0.000    0.000    0.000 
#
# Total GULP energy -290047.112724 kJ/mol
# GULP energy per Si atom -5577.829091 kJ/mol
# Density = 2.326135 g / cm^3
# Si number density = 23.314415 Si / 1000 Ang^3
#
#
#
# Elastic Constant Matrix: (Units=GPa)
#
#
# Indices 1 2 3 4 5 6 
#
# 1 40.1114 1.5157 -0.3051 0.0000 0.0000 0.0000
# 2 1.5157 107.7675 1.3788 0.0000 0.0000 0.0000
# 3 -0.3051 1.3788 41.6903 0.0000 0.0000 0.0000
# 4 0.0000 0.0000 0.0000 25.2215 0.0000 0.0000
# 5 0.0000 0.0000 0.0000 0.0000 11.7474 0.0000
# 6 0.0000 0.0000 0.0000 0.0000 0.0000 28.0391
#
#
#
# Elastic Compliance Matrix: (Units=1/GPa)
#
#
# Indices 1 2 3 4 5 6 
#
# 1 0.024945 -0.000353 0.000194 0.000000 0.000000 0.000000
# 2 -0.000353 0.009288 -0.000310 0.000000 0.000000 0.000000
# 3 0.000194 -0.000310 0.023998 0.000000 0.000000 0.000000
# 4 0.000000 0.000000 0.000000 0.039649 0.000000 0.000000
# 5 0.000000 0.000000 0.000000 0.000000 0.085125 0.000000
# 6 0.000000 0.000000 0.000000 0.000000 0.000000 0.035664
#
#
# Mechanical properties :
#
#
# Convention : Reuss Voigt Hill
#
# Bulk Modulus (GPa) = 17.45387 21.63868 19.54628
# Shear Modulus (GPa) = 20.94627 25.46691 23.20659
#
# Velocity S-wave (km/s) = 3.00063 3.30862 3.15838
# Velocity P-wave (km/s) = 4.41674 4.88849 4.65859
#
# Compressibility (1/GPa) = 0.05729388
#
# Stress axis : x y z
#
# Youngs Moduli (GPa) = 40.08753 107.66389 41.67006
#
# Poissons Ratio (x) = 0.03804 -0.00809
# Poissons Ratio (y) = 0.01416 0.01291
# Poissons Ratio (z) = -0.00779 0.03335
#
# Static dielectric constant tensor:
#      x y z
#    x 1.937750 0.000000 0.000000 
#    y 0.000000 1.968420 0.000000 
#    z 0.000000 0.000000 1.955980 
# 
# From -- ./inp_files/36576.got.cif
#   From: 2010.05.17/outbox.cif.g08.bks.cpg/sg68_19_cif.got.tgz:36576.got - 2010.06.03 18:57:09.
