data_PCOD9508041
_publ_section_title
;
Structure prediction by ZEFSAII (Michael W. Deem and Ramdas Pophale) SiO2 
 PCOD9508041
Probable space group: C C C A
;
_chemical_formula_sum "Si O2"
_cell_formula_units_Z 80
_cell_length_a 9.397140
_cell_length_b 15.974981
_cell_length_c 23.973941
_cell_angle_alpha 90.000000
_cell_angle_beta 90.000000
_cell_angle_gamma 90.000000
_cell_volume 3598.947236
_symmetry_space_group_name_H-M "C C C A"
_symmetry_group_IT_number 68
_space_group.IT_coordinate_system_code '2'
_symmetry_cell_setting 'orthorhombic'
loop_
_space_group_symop_operation_xyz
x,y,z
-x,1/2-y,z
x,1/2-y,1/2-z
-x,y,1/2-z
-x,-y,-z
x,1/2+y,-z
-x,1/2+y,1/2+z
x,-y,1/2+z
1/2+x,1/2+y,z
1/2-x,-y,z
1/2+x,-y,1/2-z
1/2-x,1/2+y,1/2-z
1/2-x,1/2-y,-z
1/2+x,y,-z
1/2-x,y,1/2+z
1/2+x,1/2-y,1/2+z
loop_
_atom_site_type_symbol
_atom_site_label
_atom_site_fract_x
_atom_site_fract_y
_atom_site_fract_z
Si Si1 0.422143 0.835210 0.162733
Si Si2 0.137539 0.703033 0.387248
Si Si3 0.500000 0.024009 0.750000
Si Si4 0.250000 0.000000 0.324293
Si Si5 0.624690 0.055840 0.472278
Si Si6 0.173946 0.859246 0.914081
O O1 0.500000 0.750000 0.184026
O O2 0.253638 0.828503 0.156342
O O3 0.445103 0.913218 0.202408
O O4 0.507935 0.847607 0.104001
O O5 0.086738 0.628371 0.428169
O O6 0.235807 0.774374 0.416150
O O7 0.000000 0.750000 0.364369
O O8 0.622054 0.976069 0.717200
O O9 0.274499 0.921333 0.365066
O O10 0.690395 0.099617 0.526401
O O11 0.500000 0.000000 0.500000
O O12 0.750000 0.000000 0.445900
#
# Coordination Sequence:
#
# PCOD9508041 Si02
#       6
#    16  16   8   8  16  16
#     4   9  20  40  66  91 127 176 228 275 336 404
#     4  11  24  40  63  99 134 175 220 272 327 397
#     4  10  21  40  66 100 127 174 224 284 350 399
#     4  10  22  40  66  94 132 172 222 282 334 402
#     4  12  24  40  63  95 133 178 221 268 326 396
#     4  10  21  42  64  88 131 180 221 265 328 398
#
# _framework density 22.228724
#
# number of rings (size 3 to 8) (size 9 to 14) (size 15 to 20)
#    0.000    1.600    1.000    3.300    0.000    4.000 
#    5.400    0.000    0.000   10.800    0.000    0.000 
#    0.000    0.000    0.000    0.000    0.000    0.000 
#
# Total GULP energy -223223.557109 kJ/mol
# GULP energy per Si atom -5580.588928 kJ/mol
# Density = 2.217813 g / cm^3
# Si number density = 22.228724 Si / 1000 Ang^3
#
#
#
# Elastic Constant Matrix: (Units=GPa)
#
#
# Indices 1 2 3 4 5 6 
#
# 1 123.6277 13.5678 11.4509 0.0000 0.0000 0.0000
# 2 13.5678 53.4639 -3.5774 0.0000 0.0000 0.0000
# 3 11.4509 -3.5774 37.0936 0.0000 0.0000 0.0000
# 4 0.0000 0.0000 0.0000 1.5775 0.0000 0.0000
# 5 0.0000 0.0000 0.0000 0.0000 14.8070 0.0000
# 6 0.0000 0.0000 0.0000 0.0000 0.0000 37.0701
#
#
#
# Elastic Compliance Matrix: (Units=1/GPa)
#
#
# Indices 1 2 3 4 5 6 
#
# 1 0.008618 -0.002380 -0.002890 0.000000 0.000000 0.000000
# 2 -0.002380 0.019483 0.002614 0.000000 0.000000 0.000000
# 3 -0.002890 0.002614 0.028103 0.000000 0.000000 0.000000
# 4 0.000000 0.000000 0.000000 0.633908 0.000000 0.000000
# 5 0.000000 0.000000 0.000000 0.000000 0.067536 0.000000
# 6 0.000000 0.000000 0.000000 0.000000 0.000000 0.026976
#
#
# Mechanical properties :
#
#
# Convention : Reuss Voigt Hill
#
# Bulk Modulus (GPa) = 19.64976 28.56306 24.10641
# Shear Modulus (GPa) = 6.19655 23.54053 14.86854
#
# Velocity S-wave (km/s) = 1.67143 3.25778 2.58909
# Velocity P-wave (km/s) = 3.54738 5.19888 4.45041
#
# Compressibility (1/GPa) = 0.05089120
#
# Stress axis : x y z
#
# Youngs Moduli (GPa) = 116.04016 51.32630 35.58335
#
# Poissons Ratio (x) = 0.12217 0.10283
# Poissons Ratio (y) = 0.27621 -0.09301
# Poissons Ratio (z) = 0.33534 -0.13416
#
# Static dielectric constant tensor:
#      x y z
#    x 1.910910 0.000000 0.000000 
#    y 0.000000 1.944220 0.000000 
#    z 0.000000 0.000000 1.773480 
# 
# From -- ./inp_files/49175.got.cif
#   From: 2010.05.17/outbox.cif.g08.bks.cpg/sg68_25_cif.got.tgz:49175.got - 2010.06.03 18:57:09.
