data_PCOD9508715
_publ_section_title
;
Structure prediction by ZEFSAII (Michael W. Deem and Ramdas Pophale) SiO2 
 PCOD9508715
Probable space group: C C C A
;
_chemical_formula_sum "Si O2"
_cell_formula_units_Z 96
_cell_length_a 22.323701
_cell_length_b 9.282571
_cell_length_c 20.174439
_cell_angle_alpha 90.000000
_cell_angle_beta 90.000000
_cell_angle_gamma 90.000000
_cell_volume 4180.574274
_symmetry_space_group_name_H-M "C C C A"
_symmetry_group_IT_number 68
_space_group.IT_coordinate_system_code '2'
_symmetry_cell_setting 'orthorhombic'
loop_
_space_group_symop_operation_xyz
x,y,z
-x,1/2-y,z
x,1/2-y,1/2-z
-x,y,1/2-z
-x,-y,-z
x,1/2+y,-z
-x,1/2+y,1/2+z
x,-y,1/2+z
1/2+x,1/2+y,z
1/2-x,-y,z
1/2+x,-y,1/2-z
1/2-x,1/2+y,1/2-z
1/2-x,1/2-y,-z
1/2+x,y,-z
1/2-x,y,1/2+z
1/2+x,1/2-y,1/2+z
loop_
_atom_site_type_symbol
_atom_site_label
_atom_site_fract_x
_atom_site_fract_y
_atom_site_fract_z
Si Si1 0.240481 0.829313 0.686006
Si Si2 0.099176 0.667836 0.812561
Si Si3 0.550591 0.123515 0.077074
Si Si4 0.771749 0.838651 0.561940
Si Si5 0.929917 0.096779 0.730640
Si Si6 0.586121 0.805734 0.051321
O O1 0.265178 0.750000 0.750000
O O2 0.169240 0.796270 0.683447
O O3 0.260704 0.745798 0.621507
O O4 0.250000 0.000000 0.685464
O O5 0.070459 0.750000 0.750000
O O6 0.099163 0.508825 0.783886
O O7 0.071133 0.710295 0.882867
O O8 0.500000 0.250000 0.093398
O O9 0.576668 0.085492 0.150978
O O10 0.547721 0.955189 0.050226
O O11 0.580843 0.209515 0.015300
O O12 0.750000 0.750000 0.500000
O O13 0.843987 0.844226 0.559990
O O14 0.750000 0.000000 0.561279
O O15 0.906220 0.250000 0.750000
O O16 0.000000 0.086733 0.750000
#
# Coordination Sequence:
#
# PCOD9508715 Si02
#       6
#    16  16  16  16  16  16
#     4  10  22  41  65  99 134 173 228 279 341 406
#     4  10  22  45  68  95 134 178 231 285 345 416
#     4  12  25  46  68 100 142 179 230 294 351 416
#     4  11  23  45  69  98 140 182 226 282 345 423
#     4  11  24  45  68  97 134 179 232 284 347 419
#     4  11  26  44  71 105 139 183 233 290 355 416
#
# _framework density 22.963353000000001
#
# number of rings (size 3 to 8) (size 9 to 14) (size 15 to 20)
#    0.000    1.167    3.333    2.500    2.333    3.667 
#    6.000    0.000    0.000    0.000    0.000    0.000 
#    0.000    0.000    0.000    0.000    0.000    0.000 
#
# Total GULP energy -267407.606088 kJ/mol
# GULP energy per Si atom -5570.991793 kJ/mol
# Density = 2.291109 g / cm^3
# Si number density = 22.963353 Si / 1000 Ang^3
#
#
#
# Elastic Constant Matrix: (Units=GPa)
#
#
# Indices 1 2 3 4 5 6 
#
# 1 44.1559 -19.4559 28.5386 0.0000 0.0000 0.0000
# 2 -19.4559 158.7666 99.3572 0.0000 0.0000 0.0000
# 3 28.5386 99.3572 219.7647 0.0000 0.0000 0.0000
# 4 0.0000 0.0000 0.0000 29.9085 0.0000 0.0000
# 5 0.0000 0.0000 0.0000 0.0000 18.4738 0.0000
# 6 0.0000 0.0000 0.0000 0.0000 0.0000 26.5764
#
#
#
# Elastic Compliance Matrix: (Units=1/GPa)
#
#
# Indices 1 2 3 4 5 6 
#
# 1 0.031997 0.009095 -0.008267 0.000000 0.000000 0.000000
# 2 0.009095 0.011369 -0.006321 0.000000 0.000000 0.000000
# 3 -0.008267 -0.006321 0.008482 0.000000 0.000000 0.000000
# 4 0.000000 0.000000 0.000000 0.033435 0.000000 0.000000
# 5 0.000000 0.000000 0.000000 0.000000 0.054131 0.000000
# 6 0.000000 0.000000 0.000000 0.000000 0.000000 0.037627
#
#
# Mechanical properties :
#
#
# Convention : Reuss Voigt Hill
#
# Bulk Modulus (GPa) = 24.47319 71.06300 47.76809
# Shear Modulus (GPa) = 24.79573 35.94156 30.36864
#
# Velocity S-wave (km/s) = 3.28959 3.96052 3.64054
# Velocity P-wave (km/s) = 5.01090 7.20609 6.20632
#
# Compressibility (1/GPa) = 0.04086105
#
# Stress axis : x y z
#
# Youngs Moduli (GPa) = 31.25273 87.96096 117.90281
#
# Poissons Ratio (x) = -0.79996 0.97468
# Poissons Ratio (y) = -0.28423 0.74525
# Poissons Ratio (z) = 0.25836 0.55599
#
# Static dielectric constant tensor:
#      x y z
#    x 1.670400 0.000000 0.000000 
#    y 0.000000 1.756110 0.000000 
#    z 0.000000 0.000000 1.927430 
# 
# From -- ./inp_files/41249.got.cif
#   From: 2010.05.17/outbox.cif.g08.bks.cpg/sg68_21_cif.got.tgz:41249.got - 2010.06.03 18:57:09.
