data_PCOD9508334
_publ_section_title
;
Structure prediction by ZEFSAII (Michael W. Deem and Ramdas Pophale) SiO2 
 PCOD9508334
Probable space group: C C C A
;
_chemical_formula_sum "Si O2"
_cell_formula_units_Z 64
_cell_length_a 17.462794
_cell_length_b 25.741842
_cell_length_c 5.613745
_cell_angle_alpha 90.000000
_cell_angle_beta 90.000000
_cell_angle_gamma 90.000000
_cell_volume 2523.515825
_symmetry_space_group_name_H-M "C C C A"
_symmetry_group_IT_number 68
_space_group.IT_coordinate_system_code '2'
_symmetry_cell_setting 'orthorhombic'
loop_
_space_group_symop_operation_xyz
x,y,z
-x,1/2-y,z
x,1/2-y,1/2-z
-x,y,1/2-z
-x,-y,-z
x,1/2+y,-z
-x,1/2+y,1/2+z
x,-y,1/2+z
1/2+x,1/2+y,z
1/2-x,-y,z
1/2+x,-y,1/2-z
1/2-x,1/2+y,1/2-z
1/2-x,1/2-y,-z
1/2+x,y,-z
1/2-x,y,1/2+z
1/2+x,1/2-y,1/2+z
loop_
_atom_site_type_symbol
_atom_site_label
_atom_site_fract_x
_atom_site_fract_y
_atom_site_fract_z
Si Si1 0.913120 0.020387 0.964831
Si Si2 0.422613 0.689517 0.386196
Si Si3 0.000000 0.387003 0.750000
Si Si4 0.667194 0.750000 0.750000
Si Si5 0.268439 0.855801 0.256265
O O1 0.878484 0.007896 0.227574
O O2 0.936613 0.078773 0.892302
O O3 0.000000 0.000000 0.000000
O O4 0.500000 0.698659 0.250000
O O5 0.448671 0.648799 0.585482
O O6 0.385964 0.738712 0.522618
O O7 0.355930 0.661747 0.240037
O O8 0.718956 0.801782 0.764255
O O9 0.246171 0.883023 0.502357
#
# Coordination Sequence:
#
# PCOD9508334 Si02
#       5
#    16  16   8   8  16
#     4   8  16  32  57  76 118 172 181 210 300 398
#     4  11  25  39  60  89 124 155 207 277 321 340
#     4  10  22  35  50  94 134 138 192 261 314 348
#     4  10  24  51  55  80 114 180 220 242 311 386
#     4  10  22  45  64  74 107 167 216 244 295 381
#
# _framework density 25.361443999999999
#
# number of rings (size 3 to 8) (size 9 to 14) (size 15 to 20)
#    0.000    2.500    0.000    3.000   14.000    0.500 
#    9.000    0.000    0.000    0.000    0.000    0.000 
#    0.000  216.000    0.000    0.000    0.000    0.000 
#
# Total GULP energy -178885.828423 kJ/mol
# GULP energy per Si atom -5590.182138 kJ/mol
# Density = 2.530372 g / cm^3
# Si number density = 25.361444 Si / 1000 Ang^3
#
#
#
# Elastic Constant Matrix: (Units=GPa)
#
#
# Indices 1 2 3 4 5 6 
#
# 1 134.2914 9.0073 50.3473 0.0000 0.0000 0.0000
# 2 9.0073 64.4863 31.8276 0.0000 0.0000 0.0000
# 3 50.3473 31.8276 208.8286 0.0000 0.0000 0.0000
# 4 0.0000 0.0000 0.0000 37.5651 0.0000 0.0000
# 5 0.0000 0.0000 0.0000 0.0000 49.8057 0.0000
# 6 0.0000 0.0000 0.0000 0.0000 0.0000 -7.8250
#
#
#
# Elastic Compliance Matrix: (Units=1/GPa)
#
#
# Indices 1 2 3 4 5 6 
#
# 1 0.008188 -0.000183 -0.001946 0.000000 0.000000 0.000000
# 2 -0.000183 0.016773 -0.002512 0.000000 0.000000 0.000000
# 3 -0.001946 -0.002512 0.005641 0.000000 0.000000 0.000000
# 4 0.000000 0.000000 0.000000 0.026620 0.000000 0.000000
# 5 0.000000 0.000000 0.000000 0.000000 0.020078 0.000000
# 6 0.000000 0.000000 0.000000 0.000000 0.000000 -0.127795
#
#
# Mechanical properties :
#
#
# Convention : Reuss Voigt Hill
#
# Bulk Modulus (GPa) = 46.90725 65.55229 56.22977
# Shear Modulus (GPa) = -146.60292 37.00409 -54.79941
#
# Velocity S-wave (km/s) = -7.61124 3.82392 -4.65342
# Velocity P-wave (km/s) = 7.66196 6.73794 2.57932
#
# Compressibility (1/GPa) = 0.02131867
#
# Stress axis : x y z
#
# Youngs Moduli (GPa) = 122.12317 59.62086 177.28204
#
# Poissons Ratio (x) = 0.01092 0.34504
# Poissons Ratio (y) = 0.02237 0.44536
# Poissons Ratio (z) = 0.23768 0.14978
#
# Static dielectric constant tensor:
#      x y z
#    x 1.933280 0.000000 0.000000 
#    y 0.000000 2.127640 0.000000 
#    z 0.000000 0.000000 2.132100 
# 
# From -- ./inp_files/1152.got.cif
#   From: 2010.05.17/outbox.cif.g08.bks.cpg/sg68_1_cif.got.tgz:1152.got - 2010.06.03 18:57:09.
