data_PCOD9508698
_publ_section_title
;
Structure prediction by ZEFSAII (Michael W. Deem and Ramdas Pophale) SiO2 
 PCOD9508698
Probable space group: C C C A
;
_chemical_formula_sum "Si O2"
_cell_formula_units_Z 48
_cell_length_a 5.224507
_cell_length_b 29.460641
_cell_length_c 13.749609
_cell_angle_alpha 90.000000
_cell_angle_beta 90.000000
_cell_angle_gamma 90.000000
_cell_volume 2116.303039
_symmetry_space_group_name_H-M "C C C A"
_symmetry_group_IT_number 68
_space_group.IT_coordinate_system_code '2'
_symmetry_cell_setting 'orthorhombic'
loop_
_space_group_symop_operation_xyz
x,y,z
-x,1/2-y,z
x,1/2-y,1/2-z
-x,y,1/2-z
-x,-y,-z
x,1/2+y,-z
-x,1/2+y,1/2+z
x,-y,1/2+z
1/2+x,1/2+y,z
1/2-x,-y,z
1/2+x,-y,1/2-z
1/2-x,1/2+y,1/2-z
1/2-x,1/2-y,-z
1/2+x,y,-z
1/2-x,y,1/2+z
1/2+x,1/2-y,1/2+z
loop_
_atom_site_type_symbol
_atom_site_label
_atom_site_fract_x
_atom_site_fract_y
_atom_site_fract_z
Si Si1 0.492251 0.804256 0.440328
Si Si2 0.500000 0.422381 0.250000
Si Si3 0.321616 0.448571 0.458279
Si Si4 0.000000 0.362109 0.250000
O O1 0.500000 0.750000 0.422928
O O2 0.711692 0.815123 0.518703
O O3 0.551128 0.830739 0.342501
O O4 0.424284 0.449076 0.348199
O O5 0.249737 0.392404 0.230268
O O6 0.250000 0.500000 0.489232
O O7 0.543193 0.426513 0.524406
#
# Coordination Sequence:
#
# PCOD9508698 Si02
#       4
#    16   8  16   8
#     4  10  22  41  64  88 120 166 213 254 299 361
#     4  12  26  39  63  96 127 162 199 254 319 371
#     4  10  23  43  65  88 118 160 206 250 298 361
#     4  12  25  39  60  94 129 162 199 254 318 369
#
# _framework density 22.681061
#
# number of rings (size 3 to 8) (size 9 to 14) (size 15 to 20)
#    0.000    1.333    0.000    4.500    0.000   13.333 
#    0.000    6.667    0.000    0.000    0.000    0.000 
#    0.000    0.000    0.000    0.000    0.000    0.000 
#
# Total GULP energy -134252.185849 kJ/mol
# GULP energy per Si atom -5593.841077 kJ/mol
# Density = 2.262944 g / cm^3
# Si number density = 22.681061 Si / 1000 Ang^3
#
#
#
# Elastic Constant Matrix: (Units=GPa)
#
#
# Indices 1 2 3 4 5 6 
#
# 1 180.6825 25.1279 30.2780 0.0000 0.0000 0.0000
# 2 25.1279 40.2402 15.2596 0.0000 0.0000 0.0000
# 3 30.2780 15.2596 101.9273 0.0000 0.0000 0.0000
# 4 0.0000 0.0000 0.0000 21.0197 0.0000 0.0000
# 5 0.0000 0.0000 0.0000 0.0000 43.5756 0.0000
# 6 0.0000 0.0000 0.0000 0.0000 0.0000 -2.8565
#
#
#
# Elastic Compliance Matrix: (Units=1/GPa)
#
#
# Indices 1 2 3 4 5 6 
#
# 1 0.006230 -0.003380 -0.001345 0.000000 0.000000 0.000000
# 2 -0.003380 0.028181 -0.003215 0.000000 0.000000 0.000000
# 3 -0.001345 -0.003215 0.010692 0.000000 0.000000 0.000000
# 4 0.000000 0.000000 0.000000 0.047574 0.000000 0.000000
# 5 0.000000 0.000000 0.000000 0.000000 0.022949 0.000000
# 6 0.000000 0.000000 0.000000 0.000000 0.000000 -0.350076
#
#
# Mechanical properties :
#
#
# Convention : Reuss Voigt Hill
#
# Bulk Modulus (GPa) = 34.21986 51.57569 42.89777
# Shear Modulus (GPa) = -23.94290 29.16006 2.60858
#
# Velocity S-wave (km/s) = -3.25258 3.58950 1.07360
# Velocity P-wave (km/s) = 1.00722 6.32204 4.52674
#
# Compressibility (1/GPa) = 0.02922280
#
# Stress axis : x y z
#
# Youngs Moduli (GPa) = 160.51338 35.48519 93.53126
#
# Poissons Ratio (x) = 0.11996 0.12576
# Poissons Ratio (y) = 0.54261 0.30068
# Poissons Ratio (z) = 0.21582 0.11408
#
# Static dielectric constant tensor:
#      x y z
#    x 1.903980 0.000000 0.000000 
#    y 0.000000 1.873840 0.000000 
#    z 0.000000 0.000000 1.805430 
# 
# From -- ./inp_files/18293.got.cif
#   From: 2010.05.17/outbox.cif.g08.bks.cpg/sg68_10_cif.got.tgz:18293.got - 2010.06.03 18:57:09.
