data_PCOD9508238
_publ_section_title
;
Structure prediction by ZEFSAII (Michael W. Deem and Ramdas Pophale) SiO2 
 PCOD9508238
Probable space group: C C C A
;
_chemical_formula_sum "Si O2"
_cell_formula_units_Z 92
_cell_length_a 14.753664
_cell_length_b 19.012971
_cell_length_c 16.662672
_cell_angle_alpha 90.000000
_cell_angle_beta 90.000000
_cell_angle_gamma 90.000000
_cell_volume 4674.062548
_symmetry_space_group_name_H-M "C C C A"
_symmetry_group_IT_number 68
_space_group.IT_coordinate_system_code '2'
_symmetry_cell_setting 'orthorhombic'
loop_
_space_group_symop_operation_xyz
x,y,z
-x,1/2-y,z
x,1/2-y,1/2-z
-x,y,1/2-z
-x,-y,-z
x,1/2+y,-z
-x,1/2+y,1/2+z
x,-y,1/2+z
1/2+x,1/2+y,z
1/2-x,-y,z
1/2+x,-y,1/2-z
1/2-x,1/2+y,1/2-z
1/2-x,1/2-y,-z
1/2+x,y,-z
1/2-x,y,1/2+z
1/2+x,1/2-y,1/2+z
loop_
_atom_site_type_symbol
_atom_site_label
_atom_site_fract_x
_atom_site_fract_y
_atom_site_fract_z
Si Si1 0.750000 0.500000 0.947462
Si Si2 0.500000 0.250000 0.750000
Si Si3 0.999177 0.166489 0.533493
Si Si4 0.611230 0.506325 0.677274
Si Si5 0.385813 0.151851 0.630457
Si Si6 0.922932 0.548891 0.358679
Si Si7 0.296436 0.382559 0.431165
O O1 0.841248 0.492565 0.898117
O O2 0.746429 0.429101 0.998650
O O3 0.435108 0.203606 0.692527
O O4 0.950766 0.148234 0.448439
O O5 0.941795 0.125268 0.602412
O O6 0.000000 0.250000 0.543881
O O7 0.105854 0.146202 0.540998
O O8 0.627403 0.423364 0.674945
O O9 0.518523 0.511640 0.626599
O O10 0.595311 0.540632 0.764168
O O11 0.680500 0.558241 0.634947
O O12 0.282940 0.169126 0.600304
#
# Coordination Sequence:
#
# PCOD9508238 Si02
#       7
#     8   4  16  16  16  16  16
#     4  12  20  36  66 106 122 164 230 282 340 390
#     4  12  28  44  64 100 138 182 214 268 344 400
#     4  11  24  47  66  94 139 180 223 270 326 408
#     4  10  21  43  65  96 134 167 217 289 338 383
#     4  12  23  46  66  99 137 175 222 274 334 403
#     4  10  22  38  65 100 128 172 221 276 345 387
#     4  11  23  41  71  97 128 175 222 283 332 390
#
# _framework density 19.683091999999998
#
# number of rings (size 3 to 8) (size 9 to 14) (size 15 to 20)
#    0.000    1.043    4.348    2.087    2.435    3.478 
#    3.130    6.087    0.000    0.000    0.000    0.000 
#    0.000    0.000    0.000    0.000    0.000    0.000 
#
# Total GULP energy -256342.183235 kJ/mol
# GULP energy per Si atom -5572.656157 kJ/mol
# Density = 1.963829 g / cm^3
# Si number density = 19.683092 Si / 1000 Ang^3
#
#
#
# Elastic Constant Matrix: (Units=GPa)
#
#
# Indices 1 2 3 4 5 6 
#
# 1 162.5783 41.1707 56.9394 0.0000 0.0000 0.0000
# 2 41.1707 80.2192 47.0165 0.0000 0.0000 0.0000
# 3 56.9394 47.0165 100.1786 0.0000 0.0000 0.0000
# 4 0.0000 0.0000 0.0000 20.9235 0.0000 0.0000
# 5 0.0000 0.0000 0.0000 0.0000 36.2420 0.0000
# 6 0.0000 0.0000 0.0000 0.0000 0.0000 28.6459
#
#
#
# Elastic Compliance Matrix: (Units=1/GPa)
#
#
# Indices 1 2 3 4 5 6 
#
# 1 0.007897 -0.001962 -0.003568 0.000000 0.000000 0.000000
# 2 -0.001962 0.017683 -0.007184 0.000000 0.000000 0.000000
# 3 -0.003568 -0.007184 0.015382 0.000000 0.000000 0.000000
# 4 0.000000 0.000000 0.000000 0.047793 0.000000 0.000000
# 5 0.000000 0.000000 0.000000 0.000000 0.027592 0.000000
# 6 0.000000 0.000000 0.000000 0.000000 0.000000 0.034909
#
#
# Mechanical properties :
#
#
# Convention : Reuss Voigt Hill
#
# Bulk Modulus (GPa) = 64.37278 70.35882 67.36580
# Shear Modulus (GPa) = 27.49319 30.35223 28.92271
#
# Velocity S-wave (km/s) = 3.74142 3.93115 3.83746
# Velocity P-wave (km/s) = 7.17216 7.51190 7.34400
#
# Compressibility (1/GPa) = 0.01553452
#
# Stress axis : x y z
#
# Youngs Moduli (GPa) = 126.62587 56.55011 65.01201
#
# Poissons Ratio (x) = 0.11095 0.23195
# Poissons Ratio (y) = 0.24844 0.46706
# Poissons Ratio (z) = 0.45178 0.40627
#
# Static dielectric constant tensor:
#      x y z
#    x 1.760110 0.000000 0.000000 
#    y 0.000000 1.680290 0.000000 
#    z 0.000000 0.000000 1.727120 
# 
# From -- ./inp_files/22408.got.cif
#   From: 2010.05.17/outbox.cif.g08.bks.cpg/sg68_12_cif.got.tgz:22408.got - 2010.06.03 18:57:09.
