data_PCOD9508557
_publ_section_title
;
Structure prediction by ZEFSAII (Michael W. Deem and Ramdas Pophale) SiO2 
 PCOD9508557
Probable space group: C C C A
;
_chemical_formula_sum "Si O2"
_cell_formula_units_Z 96
_cell_length_a 9.386408
_cell_length_b 22.737416
_cell_length_c 24.047236
_cell_angle_alpha 90.000000
_cell_angle_beta 90.000000
_cell_angle_gamma 90.000000
_cell_volume 5132.225156
_symmetry_space_group_name_H-M "C C C A"
_symmetry_group_IT_number 68
_space_group.IT_coordinate_system_code '2'
_symmetry_cell_setting 'orthorhombic'
loop_
_space_group_symop_operation_xyz
x,y,z
-x,1/2-y,z
x,1/2-y,1/2-z
-x,y,1/2-z
-x,-y,-z
x,1/2+y,-z
-x,1/2+y,1/2+z
x,-y,1/2+z
1/2+x,1/2+y,z
1/2-x,-y,z
1/2+x,-y,1/2-z
1/2-x,1/2+y,1/2-z
1/2-x,1/2-y,-z
1/2+x,y,-z
1/2-x,y,1/2+z
1/2+x,1/2-y,1/2+z
loop_
_atom_site_type_symbol
_atom_site_label
_atom_site_fract_x
_atom_site_fract_y
_atom_site_fract_z
Si Si1 0.189771 0.715254 0.054345
Si Si2 0.662970 0.083681 0.952532
Si Si3 0.902649 0.828598 0.407628
Si Si4 0.750000 0.000000 0.357340
Si Si5 0.492619 0.918763 0.687554
Si Si6 0.662033 0.092920 0.557919
Si Si7 0.750000 0.000000 0.647736
O O1 0.167348 0.764434 0.102279
O O2 0.286852 0.659655 0.068822
O O3 0.031279 0.686992 0.049821
O O4 0.250000 0.750000 0.000000
O O5 0.772584 0.134121 0.932645
O O6 0.662177 0.038746 0.901361
O O7 0.499089 0.096524 0.962465
O O8 0.734885 0.066316 0.010514
O O9 0.973384 0.866901 0.358311
O O10 0.853525 0.959436 0.321688
O O11 0.500000 0.894996 0.750000
O O12 0.628110 0.961916 0.678532
O O13 0.675321 0.049610 0.609780
#
# Coordination Sequence:
#
# PCOD9508557 Si02
#       7
#    16  16  16   8  16  16   8
#     4  11  22  38  62  89 128 165 206 247 305 381
#     4  11  23  36  57  92 131 169 204 244 313 383
#     4  10  23  40  60  91 126 164 215 254 304 378
#     4  10  22  40  60  92 130 160 208 264 318 382
#     4  11  23  44  67  91 121 165 216 273 323 366
#     4  12  24  37  61  93 130 173 199 253 311 389
#     4  12  24  40  64  96 126 156 212 262 324 386
#
# _framework density 18.705337
#
# number of rings (size 3 to 8) (size 9 to 14) (size 15 to 20)
#    0.000    1.000    5.000    2.000    4.667    2.000 
#    0.000    1.667    0.000    0.000    0.000    0.000 
#   10.000    0.000    0.000    0.000    0.000    0.000 
#
# Total GULP energy -267439.879417 kJ/mol
# GULP energy per Si atom -5571.664155 kJ/mol
# Density = 1.866276 g / cm^3
# Si number density = 18.705337 Si / 1000 Ang^3
#
#
#
# Elastic Constant Matrix: (Units=GPa)
#
#
# Indices 1 2 3 4 5 6 
#
# 1 127.6702 30.8454 24.9842 0.0000 0.0000 0.0000
# 2 30.8454 115.7052 33.7911 0.0000 0.0000 0.0000
# 3 24.9842 33.7911 66.5381 0.0000 0.0000 0.0000
# 4 0.0000 0.0000 0.0000 17.7878 0.0000 0.0000
# 5 0.0000 0.0000 0.0000 0.0000 17.7838 0.0000
# 6 0.0000 0.0000 0.0000 0.0000 0.0000 25.0502
#
#
#
# Elastic Compliance Matrix: (Units=1/GPa)
#
#
# Indices 1 2 3 4 5 6 
#
# 1 0.008700 -0.001603 -0.002453 0.000000 0.000000 0.000000
# 2 -0.001603 0.010443 -0.004702 0.000000 0.000000 0.000000
# 3 -0.002453 -0.004702 0.018338 0.000000 0.000000 0.000000
# 4 0.000000 0.000000 0.000000 0.056218 0.000000 0.000000
# 5 0.000000 0.000000 0.000000 0.000000 0.056231 0.000000
# 6 0.000000 0.000000 0.000000 0.000000 0.000000 0.039920
#
#
# Mechanical properties :
#
#
# Convention : Reuss Voigt Hill
#
# Bulk Modulus (GPa) = 50.08468 54.35053 52.21761
# Shear Modulus (GPa) = 23.36235 26.81054 25.08645
#
# Velocity S-wave (km/s) = 3.53791 3.79001 3.66613
# Velocity P-wave (km/s) = 6.59718 6.94777 6.77474
#
# Compressibility (1/GPa) = 0.01996618
#
# Stress axis : x y z
#
# Youngs Moduli (GPa) = 114.94336 95.75737 54.53284
#
# Poissons Ratio (x) = 0.15350 0.13375
# Poissons Ratio (y) = 0.18425 0.25639
# Poissons Ratio (z) = 0.28191 0.45021
#
# Static dielectric constant tensor:
#      x y z
#    x 1.651810 0.000000 0.000000 
#    y 0.000000 1.682090 0.000000 
#    z 0.000000 0.000000 1.644930 
# 
# From -- ./inp_files/43329.got.cif
#   From: 2010.05.17/outbox.cif.g08.bks.cpg/sg68_22_cif.got.tgz:43329.got - 2010.06.03 18:57:09.
