data_PCOD9508639
_publ_section_title
;
Structure prediction by ZEFSAII (Michael W. Deem and Ramdas Pophale) SiO2 
 PCOD9508639
Probable space group: C C C A
;
_chemical_formula_sum "Si O2"
_cell_formula_units_Z 56
_cell_length_a 7.434226
_cell_length_b 17.473448
_cell_length_c 21.109198
_cell_angle_alpha 90.000000
_cell_angle_beta 90.000000
_cell_angle_gamma 90.000000
_cell_volume 2742.117781
_symmetry_space_group_name_H-M "C C C A"
_symmetry_group_IT_number 68
_space_group.IT_coordinate_system_code '2'
_symmetry_cell_setting 'orthorhombic'
loop_
_space_group_symop_operation_xyz
x,y,z
-x,1/2-y,z
x,1/2-y,1/2-z
-x,y,1/2-z
-x,-y,-z
x,1/2+y,-z
-x,1/2+y,1/2+z
x,-y,1/2+z
1/2+x,1/2+y,z
1/2-x,-y,z
1/2+x,-y,1/2-z
1/2-x,1/2+y,1/2-z
1/2-x,1/2-y,-z
1/2+x,y,-z
1/2-x,y,1/2+z
1/2+x,1/2-y,1/2+z
loop_
_atom_site_type_symbol
_atom_site_label
_atom_site_fract_x
_atom_site_fract_y
_atom_site_fract_z
Si Si1 0.750000 0.000000 0.103664
Si Si2 0.228470 0.186466 0.588077
Si Si3 0.637676 0.157338 0.554553
Si Si4 0.083662 0.059321 0.682363
O O1 0.778517 0.074847 0.062341
O O2 0.574093 0.014922 0.145451
O O3 0.434672 0.159124 0.579512
O O4 0.250077 0.278433 0.593422
O O5 0.134919 0.175976 0.519873
O O6 0.141908 0.134110 0.642027
O O7 0.000000 0.081220 0.750000
O O8 0.250000 0.000000 0.689477
#
# Coordination Sequence:
#
# PCOD9508639 Si02
#       4
#     8  16  16  16
#     4  12  24  40  70 100 134 174 232 284 344 398
#     4  10  22  42  66 100 144 177 223 284 347 410
#     4  10  22  40  68 105 139 175 222 288 351 410
#     4  12  25  44  69  96 134 184 235 283 332 408
#
# _framework density 20.422173999999998
#
# number of rings (size 3 to 8) (size 9 to 14) (size 15 to 20)
#    0.000    1.143    4.286    1.714    2.000    5.714 
#    0.000    2.857    0.000    5.143    0.000    0.000 
#    0.000    0.000    0.000    0.000    0.000    0.000 
#
# Total GULP energy -156553.143780 kJ/mol
# GULP energy per Si atom -5591.183706 kJ/mol
# Density = 2.037569 g / cm^3
# Si number density = 20.422174 Si / 1000 Ang^3
#
#
#
# Elastic Constant Matrix: (Units=GPa)
#
#
# Indices 1 2 3 4 5 6 
#
# 1 119.1737 63.3352 49.2424 0.0000 0.0000 0.0000
# 2 63.3352 164.6428 60.2996 0.0000 0.0000 0.0000
# 3 49.2424 60.2996 95.0826 0.0000 0.0000 0.0000
# 4 0.0000 0.0000 0.0000 9.9409 0.0000 0.0000
# 5 0.0000 0.0000 0.0000 0.0000 36.9748 0.0000
# 6 0.0000 0.0000 0.0000 0.0000 0.0000 37.0503
#
#
#
# Elastic Compliance Matrix: (Units=1/GPa)
#
#
# Indices 1 2 3 4 5 6 
#
# 1 0.011694 -0.002970 -0.004172 0.000000 0.000000 0.000000
# 2 -0.002970 0.008666 -0.003957 0.000000 0.000000 0.000000
# 3 -0.004172 -0.003957 0.015188 0.000000 0.000000 0.000000
# 4 0.000000 0.000000 0.000000 0.100594 0.000000 0.000000
# 5 0.000000 0.000000 0.000000 0.000000 0.027045 0.000000
# 6 0.000000 0.000000 0.000000 0.000000 0.000000 0.026990
#
#
# Mechanical properties :
#
#
# Convention : Reuss Voigt Hill
#
# Bulk Modulus (GPa) = 74.92257 80.51704 77.71980
# Shear Modulus (GPa) = 23.05997 30.52800 26.79399
#
# Velocity S-wave (km/s) = 3.36395 3.87052 3.62609
# Velocity P-wave (km/s) = 7.20102 7.71274 7.46127
#
# Compressibility (1/GPa) = 0.01334711
#
# Stress axis : x y z
#
# Youngs Moduli (GPa) = 85.51633 115.39722 65.84272
#
# Poissons Ratio (x) = 0.34276 0.27472
# Poissons Ratio (y) = 0.25400 0.26056
# Poissons Ratio (z) = 0.35681 0.45667
#
# Static dielectric constant tensor:
#      x y z
#    x 1.772800 0.000000 0.000000 
#    y 0.000000 1.736740 0.000000 
#    z 0.000000 0.000000 1.688170 
# 
# From -- ./inp_files/27657.got.cif
#   From: 2010.05.17/outbox.cif.g08.bks.cpg/sg68_14_cif.got.tgz:27657.got - 2010.06.03 18:57:09.
