data_PCOD9508083
_publ_section_title
;
Structure prediction by ZEFSAII (Michael W. Deem and Ramdas Pophale) SiO2 
 PCOD9508083
Probable space group: C C C A
;
_chemical_formula_sum "Si O2"
_cell_formula_units_Z 112
_cell_length_a 12.394532
_cell_length_b 21.747971
_cell_length_c 18.414783
_cell_angle_alpha 90.000000
_cell_angle_beta 90.000000
_cell_angle_gamma 90.000000
_cell_volume 4963.813819
_symmetry_space_group_name_H-M "C C C A"
_symmetry_group_IT_number 68
_space_group.IT_coordinate_system_code '2'
_symmetry_cell_setting 'orthorhombic'
loop_
_space_group_symop_operation_xyz
x,y,z
-x,1/2-y,z
x,1/2-y,1/2-z
-x,y,1/2-z
-x,-y,-z
x,1/2+y,-z
-x,1/2+y,1/2+z
x,-y,1/2+z
1/2+x,1/2+y,z
1/2-x,-y,z
1/2+x,-y,1/2-z
1/2-x,1/2+y,1/2-z
1/2-x,1/2-y,-z
1/2+x,y,-z
1/2-x,y,1/2+z
1/2+x,1/2-y,1/2+z
loop_
_atom_site_type_symbol
_atom_site_label
_atom_site_fract_x
_atom_site_fract_y
_atom_site_fract_z
Si Si1 0.162734 0.094993 0.590460
Si Si2 0.245385 0.807134 0.808804
Si Si3 0.071054 0.449521 0.044882
Si Si4 0.517948 0.178243 0.163433
Si Si5 0.529172 0.999597 0.325101
Si Si6 0.464917 0.187975 0.902778
Si Si7 0.639327 0.870634 0.318322
O O1 0.167703 0.069750 0.508334
O O2 0.272736 0.124380 0.617776
O O3 0.063407 0.140820 0.611773
O O4 0.124445 0.036487 0.636469
O O5 0.262671 0.750000 0.750000
O O6 0.354620 0.829382 0.846447
O O7 0.153382 0.800524 0.869641
O O8 0.202646 0.858429 0.754678
O O9 0.025818 0.379785 0.060256
O O10 0.071927 0.484380 0.122047
O O11 0.000000 0.500000 0.000000
O O12 0.500000 0.250000 0.151001
O O13 0.500000 0.166982 0.250000
O O14 0.500000 0.030938 0.250000
O O15 0.578536 0.933815 0.309247
O O16 0.500000 0.250000 0.944852
O O17 0.550900 0.180681 0.837013
#
# Coordination Sequence:
#
# PCOD9508083 Si02
#       7
#    16  16  16  16  16  16  16
#     4  11  22  41  66  90 133 183 223 271 341 423
#     4  12  21  37  64 101 137 172 219 285 346 398
#     4   9  22  45  67  92 137 185 226 277 344 414
#     4  11  21  38  61  95 137 179 221 267 337 408
#     4  10  21  40  69  96 129 168 230 293 339 407
#     4  11  23  39  65 101 129 174 228 287 341 410
#     4  11  21  36  63  94 133 173 216 278 348 396
#
# _framework density 22.563295
#
# number of rings (size 3 to 8) (size 9 to 14) (size 15 to 20)
#    0.000    1.286    4.286    3.000    0.000    0.571 
#    5.143    0.714    6.286    0.000    0.000    0.000 
#    0.000    0.000    0.000    0.000    0.000    0.000 
#
# Total GULP energy -312050.401639 kJ/mol
# GULP energy per Si atom -5572.328601 kJ/mol
# Density = 2.251194 g / cm^3
# Si number density = 22.563295 Si / 1000 Ang^3
#
#
#
# Elastic Constant Matrix: (Units=GPa)
#
#
# Indices 1 2 3 4 5 6 
#
# 1 116.0062 -3.1194 11.3090 0.0000 0.0000 0.0000
# 2 -3.1194 104.1736 -4.8683 0.0000 0.0000 0.0000
# 3 11.3090 -4.8683 70.7897 0.0000 0.0000 0.0000
# 4 0.0000 0.0000 0.0000 11.0503 0.0000 0.0000
# 5 0.0000 0.0000 0.0000 0.0000 -16.5535 0.0000
# 6 0.0000 0.0000 0.0000 0.0000 0.0000 57.4810
#
#
#
# Elastic Compliance Matrix: (Units=1/GPa)
#
#
# Indices 1 2 3 4 5 6 
#
# 1 0.008761 0.000198 -0.001386 0.000000 0.000000 0.000000
# 2 0.000198 0.009635 0.000631 0.000000 0.000000 0.000000
# 3 -0.001386 0.000631 0.014391 0.000000 0.000000 0.000000
# 4 0.000000 0.000000 0.000000 0.090496 0.000000 0.000000
# 5 0.000000 0.000000 0.000000 0.000000 -0.060410 0.000000
# 6 0.000000 0.000000 0.000000 0.000000 0.000000 0.017397
#
#
# Mechanical properties :
#
#
# Convention : Reuss Voigt Hill
#
# Bulk Modulus (GPa) = 31.57379 33.06801 32.32090
# Shear Modulus (GPa) = 54.38261 29.57208 41.97735
#
# Velocity S-wave (km/s) = 4.91473 3.62419 4.31795
# Velocity P-wave (km/s) = 6.79926 5.67454 6.26220
#
# Compressibility (1/GPa) = 0.03167184
#
# Stress axis : x y z
#
# Youngs Moduli (GPa) = 114.14673 103.79078 69.48709
#
# Poissons Ratio (x) = -0.02050 0.09631
# Poissons Ratio (y) = -0.02255 -0.04385
# Poissons Ratio (z) = 0.15820 -0.06550
#
# Static dielectric constant tensor:
#      x y z
#    x 1.885340 0.000000 0.000000 
#    y 0.000000 1.793890 0.000000 
#    z 0.000000 0.000000 1.902580 
# 
# From -- ./inp_files/37839.got.cif
#   From: 2010.05.17/outbox.cif.g08.bks.cpg/sg68_19_cif.got.tgz:37839.got - 2010.06.03 18:57:09.
