data_PCOD9508683
_publ_section_title
;
Structure prediction by ZEFSAII (Michael W. Deem and Ramdas Pophale) SiO2 
 PCOD9508683
Probable space group: C C C A
;
_chemical_formula_sum "Si O2"
_cell_formula_units_Z 64
_cell_length_a 20.490371
_cell_length_b 27.166778
_cell_length_c 4.608343
_cell_angle_alpha 90.000000
_cell_angle_beta 90.000000
_cell_angle_gamma 90.000000
_cell_volume 2565.268049
_symmetry_space_group_name_H-M "C C C A"
_symmetry_group_IT_number 68
_space_group.IT_coordinate_system_code '2'
_symmetry_cell_setting 'orthorhombic'
loop_
_space_group_symop_operation_xyz
x,y,z
-x,1/2-y,z
x,1/2-y,1/2-z
-x,y,1/2-z
-x,-y,-z
x,1/2+y,-z
-x,1/2+y,1/2+z
x,-y,1/2+z
1/2+x,1/2+y,z
1/2-x,-y,z
1/2+x,-y,1/2-z
1/2-x,1/2+y,1/2-z
1/2-x,1/2-y,-z
1/2+x,y,-z
1/2-x,y,1/2+z
1/2+x,1/2-y,1/2+z
loop_
_atom_site_type_symbol
_atom_site_label
_atom_site_fract_x
_atom_site_fract_y
_atom_site_fract_z
Si Si1 0.000000 0.598882 0.750000
Si Si2 0.705150 0.108620 0.612777
Si Si3 0.087922 0.250000 0.750000
Si Si4 0.901114 0.818846 0.736706
Si Si5 0.098492 0.466486 0.910707
O O1 0.056043 0.636238 0.859898
O O2 0.037679 0.565358 0.519788
O O3 0.773499 0.107970 0.445775
O O4 0.660834 0.156999 0.578508
O O5 0.662560 0.062784 0.507016
O O6 0.058364 0.210869 0.514526
O O7 0.120130 0.284696 0.505139
O O8 0.097276 0.481113 0.576591
#
# Coordination Sequence:
#
# PCOD9508683 Si02
#       5
#     8  16   8  16  16
#     4  10  24  41  64  90 124 160 198 247 304 358
#     4  11  23  41  63  88 123 161 200 247 300 355
#     4  10  22  41  62  92 122 154 204 247 298 360
#     4  10  23  41  62  90 122 159 199 247 302 355
#     4  11  24  41  63  91 122 159 202 248 297 355
#
# _framework density 24.948657999999998
#
# number of rings (size 3 to 8) (size 9 to 14) (size 15 to 20)
#    0.000    1.500    0.000    3.750    0.000   15.000 
#    0.000   12.500    0.000    0.000    0.000    0.000 
#    0.000    0.000    0.000    0.000    0.000    0.000 
#
# Total GULP energy -178752.369525 kJ/mol
# GULP energy per Si atom -5586.011548 kJ/mol
# Density = 2.489187 g / cm^3
# Si number density = 24.948658 Si / 1000 Ang^3
#
#
#
# Elastic Constant Matrix: (Units=GPa)
#
#
# Indices 1 2 3 4 5 6 
#
# 1 87.2834 35.7659 15.9316 0.0000 0.0000 0.0000
# 2 35.7659 112.7158 39.0278 0.0000 0.0000 0.0000
# 3 15.9316 39.0278 115.4040 0.0000 0.0000 0.0000
# 4 0.0000 0.0000 0.0000 20.4445 0.0000 0.0000
# 5 0.0000 0.0000 0.0000 0.0000 40.4486 0.0000
# 6 0.0000 0.0000 0.0000 0.0000 0.0000 24.0336
#
#
#
# Elastic Compliance Matrix: (Units=1/GPa)
#
#
# Indices 1 2 3 4 5 6 
#
# 1 0.013191 -0.004027 -0.000459 0.000000 0.000000 0.000000
# 2 -0.004027 0.011278 -0.003258 0.000000 0.000000 0.000000
# 3 -0.000459 -0.003258 0.009830 0.000000 0.000000 0.000000
# 4 0.000000 0.000000 0.000000 0.048913 0.000000 0.000000
# 5 0.000000 0.000000 0.000000 0.000000 0.024723 0.000000
# 6 0.000000 0.000000 0.000000 0.000000 0.000000 0.041608
#
#
# Mechanical properties :
#
#
# Convention : Reuss Voigt Hill
#
# Bulk Modulus (GPa) = 53.16019 55.20596 54.18307
# Shear Modulus (GPa) = 29.18838 31.96386 30.57612
#
# Velocity S-wave (km/s) = 3.42415 3.58325 3.50460
# Velocity P-wave (km/s) = 6.08170 6.26861 6.17586
#
# Compressibility (1/GPa) = 0.01881107
#
# Stress axis : x y z
#
# Youngs Moduli (GPa) = 75.81097 88.67120 101.72494
#
# Poissons Ratio (x) = 0.35704 0.04672
# Poissons Ratio (y) = 0.30525 0.33142
# Poissons Ratio (z) = 0.03482 0.28889
#
# Static dielectric constant tensor:
#      x y z
#    x 1.951360 0.000000 0.000000 
#    y 0.000000 2.026380 0.000000 
#    z 0.000000 0.000000 1.905100 
# 
# From -- ./inp_files/1511.got.cif
#   From: 2010.05.17/outbox.cif.g08.bks.cpg/sg68_1_cif.got.tgz:1511.got - 2010.06.03 18:57:09.
