data_PCOD9508482
_publ_section_title
;
Structure prediction by ZEFSAII (Michael W. Deem and Ramdas Pophale) SiO2 
 PCOD9508482
Probable space group: C C C A
;
_chemical_formula_sum "Si O2"
_cell_formula_units_Z 112
_cell_length_a 26.516037
_cell_length_b 14.775846
_cell_length_c 13.231679
_cell_angle_alpha 90.000000
_cell_angle_beta 90.000000
_cell_angle_gamma 90.000000
_cell_volume 5184.130539
_symmetry_space_group_name_H-M "C C C A"
_symmetry_group_IT_number 68
_space_group.IT_coordinate_system_code '2'
_symmetry_cell_setting 'orthorhombic'
loop_
_space_group_symop_operation_xyz
x,y,z
-x,1/2-y,z
x,1/2-y,1/2-z
-x,y,1/2-z
-x,-y,-z
x,1/2+y,-z
-x,1/2+y,1/2+z
x,-y,1/2+z
1/2+x,1/2+y,z
1/2-x,-y,z
1/2+x,-y,1/2-z
1/2-x,1/2+y,1/2-z
1/2-x,1/2-y,-z
1/2+x,y,-z
1/2-x,y,1/2+z
1/2+x,1/2-y,1/2+z
loop_
_atom_site_type_symbol
_atom_site_label
_atom_site_fract_x
_atom_site_fract_y
_atom_site_fract_z
Si Si1 0.946017 0.915257 0.772124
Si Si2 0.681074 0.828744 0.819141
Si Si3 0.000000 0.250000 0.901168
Si Si4 0.673486 0.802154 0.042543
Si Si5 0.773465 0.750000 0.750000
Si Si6 0.587712 0.655921 0.015637
Si Si7 0.391173 0.537327 0.068298
Si Si8 0.073662 0.600567 0.359816
O O1 0.918811 0.870567 0.867311
O O2 0.913500 0.925608 0.672039
O O3 0.000000 0.871705 0.750000
O O4 0.953254 0.018526 0.805961
O O5 0.657080 0.750000 0.750000
O O6 0.734882 0.836254 0.762237
O O7 0.633447 0.895559 0.830297
O O8 0.698912 0.799381 0.931827
O O9 0.034086 0.182813 0.968672
O O10 0.041475 0.309784 0.843640
O O11 0.695935 0.763923 0.146629
O O12 0.623858 0.742650 0.016460
O O13 0.660910 0.908207 0.057807
O O14 0.609640 0.570439 0.951646
O O15 0.425848 0.575434 0.978021
#
# Coordination Sequence:
#
# PCOD9508482 Si02
#       8
#    16  16   8  16   8  16  16  16
#     4  11  23  37  58  90 133 177 216 276 327 383
#     4   9  21  37  64  97 123 170 215 282 331 396
#     4  12  20  40  64  94 128 186 220 261 317 410
#     4  11  21  44  66  98 126 177 220 275 343 402
#     4  10  22  38  74  96 130 166 224 280 352 410
#     4  11  24  39  66  94 134 178 224 266 331 396
#     4  10  22  42  60  89 132 167 213 280 321 386
#     4  10  22  39  59  91 128 169 226 260 328 392
#
# _framework density 21.604395
#
# number of rings (size 3 to 8) (size 9 to 14) (size 15 to 20)
#    0.429    1.143    2.857    3.000    2.000    3.429 
#    0.000    0.714    0.000   30.000    0.000    0.000 
#    0.000    0.000    0.000    0.000    0.000    0.000 
#
# Total GULP energy -311846.341082 kJ/mol
# GULP energy per Si atom -5568.684662 kJ/mol
# Density = 2.155522 g / cm^3
# Si number density = 21.604395 Si / 1000 Ang^3
#
#
#
# Elastic Constant Matrix: (Units=GPa)
#
#
# Indices 1 2 3 4 5 6 
#
# 1 65.2179 16.3619 9.0316 0.0000 0.0000 0.0000
# 2 16.3619 66.8988 0.6109 0.0000 0.0000 0.0000
# 3 9.0316 0.6109 61.2831 0.0000 0.0000 0.0000
# 4 0.0000 0.0000 0.0000 7.0546 0.0000 0.0000
# 5 0.0000 0.0000 0.0000 0.0000 28.9256 0.0000
# 6 0.0000 0.0000 0.0000 0.0000 0.0000 -175.3951
#
#
#
# Elastic Compliance Matrix: (Units=1/GPa)
#
#
# Indices 1 2 3 4 5 6 
#
# 1 0.016686 -0.004059 -0.002419 0.000000 0.000000 0.000000
# 2 -0.004059 0.015937 0.000439 0.000000 0.000000 0.000000
# 3 -0.002419 0.000439 0.016670 0.000000 0.000000 0.000000
# 4 0.000000 0.000000 0.000000 0.141752 0.000000 0.000000
# 5 0.000000 0.000000 0.000000 0.000000 0.034571 0.000000
# 6 0.000000 0.000000 0.000000 0.000000 0.000000 -0.005701
#
#
# Mechanical properties :
#
#
# Convention : Reuss Voigt Hill
#
# Bulk Modulus (GPa) = 26.87007 27.26763 27.06885
# Shear Modulus (GPa) = 20.45851 -16.72329 1.86761
#
# Velocity S-wave (km/s) = 3.08061 -2.78523 0.93077
# Velocity P-wave (km/s) = 5.01177 1.51836 3.70292
#
# Compressibility (1/GPa) = 0.03721613
#
# Stress axis : x y z
#
# Youngs Moduli (GPa) = 59.92869 62.74836 59.98874
#
# Poissons Ratio (x) = 0.25470 0.14510
# Poissons Ratio (y) = 0.24325 -0.02635
# Poissons Ratio (z) = 0.14495 -0.02757
#
# Static dielectric constant tensor:
#      x y z
#    x 1.792450 0.000000 0.000000 
#    y 0.000000 1.816040 0.000000 
#    z 0.000000 0.000000 1.882550 
# 
# From -- ./inp_files/26104.got.cif
#   From: 2010.05.17/outbox.cif.g08.bks.cpg/sg68_14_cif.got.tgz:26104.got - 2010.06.03 18:57:09.
