data_PCOD9508689
_publ_section_title
;
Structure prediction by ZEFSAII (Michael W. Deem and Ramdas Pophale) SiO2 
 PCOD9508689
Probable space group: C C C A
;
_chemical_formula_sum "Si O2"
_cell_formula_units_Z 80
_cell_length_a 13.885990
_cell_length_b 29.096980
_cell_length_c 8.092452
_cell_angle_alpha 90.000000
_cell_angle_beta 90.000000
_cell_angle_gamma 90.000000
_cell_volume 3269.677327
_symmetry_space_group_name_H-M "C C C A"
_symmetry_group_IT_number 68
_space_group.IT_coordinate_system_code '2'
_symmetry_cell_setting 'orthorhombic'
loop_
_space_group_symop_operation_xyz
x,y,z
-x,1/2-y,z
x,1/2-y,1/2-z
-x,y,1/2-z
-x,-y,-z
x,1/2+y,-z
-x,1/2+y,1/2+z
x,-y,1/2+z
1/2+x,1/2+y,z
1/2-x,-y,z
1/2+x,-y,1/2-z
1/2-x,1/2+y,1/2-z
1/2-x,1/2-y,-z
1/2+x,y,-z
1/2-x,y,1/2+z
1/2+x,1/2-y,1/2+z
loop_
_atom_site_type_symbol
_atom_site_label
_atom_site_fract_x
_atom_site_fract_y
_atom_site_fract_z
Si Si1 0.369505 0.899765 0.944362
Si Si2 0.612085 0.299781 0.049704
Si Si3 0.120912 0.201177 0.935396
Si Si4 0.278045 0.947385 0.249340
Si Si5 0.566082 0.892441 0.085163
O O1 0.345509 0.847666 0.002871
O O2 0.314041 0.914454 0.779864
O O3 0.327999 0.935157 0.077113
O O4 0.485358 0.901584 0.946137
O O5 0.495359 0.298861 0.055659
O O6 0.646665 0.250164 0.984486
O O7 0.645069 0.301095 0.240199
O O8 0.626996 0.346241 0.949157
O O9 0.359825 0.933145 0.381839
O O10 0.250000 0.000000 0.259813
O O11 0.500000 0.885901 0.250000
#
# Coordination Sequence:
#
# PCOD9508689 Si02
#       5
#    16  16  16  16  16
#     4  10  22  41  63  91 124 164 207 257 314 377
#     4   8  14  30  59  92 122 161 205 245 304 371
#     4   8  15  30  58  91 123 160 204 250 301 369
#     4  11  24  42  62  86 123 161 208 270 320 368
#     4   9  20  39  63  92 126 162 209 257 311 378
#
# _framework density 24.467248000000001
#
# number of rings (size 3 to 8) (size 9 to 14) (size 15 to 20)
#    0.000    2.800    0.000    1.800    2.800    0.800 
#    0.000   20.000    0.000    0.000    0.000    0.000 
#    0.000    0.000    0.000    0.000    0.000    0.000 
#
# Total GULP energy -223409.337284 kJ/mol
# GULP energy per Si atom -5585.233432 kJ/mol
# Density = 2.441156 g / cm^3
# Si number density = 24.467248 Si / 1000 Ang^3
#
#
#
# Elastic Constant Matrix: (Units=GPa)
#
#
# Indices 1 2 3 4 5 6 
#
# 1 115.6618 51.1338 14.1621 0.0000 0.0000 0.0000
# 2 51.1338 247.2466 29.7352 0.0000 0.0000 0.0000
# 3 14.1621 29.7352 40.7547 0.0000 0.0000 0.0000
# 4 0.0000 0.0000 0.0000 34.0790 0.0000 0.0000
# 5 0.0000 0.0000 0.0000 0.0000 23.8541 0.0000
# 6 0.0000 0.0000 0.0000 0.0000 0.0000 102.7962
#
#
#
# Elastic Compliance Matrix: (Units=1/GPa)
#
#
# Indices 1 2 3 4 5 6 
#
# 1 0.009675 -0.001750 -0.002085 0.000000 0.000000 0.000000
# 2 -0.001750 0.004750 -0.002858 0.000000 0.000000 0.000000
# 3 -0.002085 -0.002858 0.027347 0.000000 0.000000 0.000000
# 4 0.000000 0.000000 0.000000 0.029344 0.000000 0.000000
# 5 0.000000 0.000000 0.000000 0.000000 0.041921 0.000000
# 6 0.000000 0.000000 0.000000 0.000000 0.000000 0.009728
#
#
# Mechanical properties :
#
#
# Convention : Reuss Voigt Hill
#
# Bulk Modulus (GPa) = 35.22869 65.96949 50.59909
# Shear Modulus (GPa) = 34.33775 52.72134 43.52955
#
# Velocity S-wave (km/s) = 3.75028 4.64699 4.22251
# Velocity P-wave (km/s) = 5.76042 7.47085 6.67068
#
# Compressibility (1/GPa) = 0.02838595
#
# Stress axis : x y z
#
# Youngs Moduli (GPa) = 103.35989 210.51882 36.56770
#
# Poissons Ratio (x) = 0.36844 0.07625
# Poissons Ratio (y) = 0.18089 0.10450
# Poissons Ratio (z) = 0.21551 0.60158
#
# Static dielectric constant tensor:
#      x y z
#    x 1.998500 0.000000 0.000000 
#    y 0.000000 1.946580 0.000000 
#    z 0.000000 0.000000 2.023210 
# 
# From -- ./inp_files/6370.got.cif
#   From: 2010.05.17/outbox.cif.g08.bks.cpg/sg68_4_cif.got.tgz:6370.got - 2010.06.03 18:57:09.
