data_PCOD9508282
_publ_section_title
;
Structure prediction by ZEFSAII (Michael W. Deem and Ramdas Pophale) SiO2 
 PCOD9508282
Probable space group: C C C A
;
_chemical_formula_sum "Si O2"
_cell_formula_units_Z 80
_cell_length_a 15.222996
_cell_length_b 22.509584
_cell_length_c 11.000015
_cell_angle_alpha 90.000000
_cell_angle_beta 90.000000
_cell_angle_gamma 90.000000
_cell_volume 3769.301519
_symmetry_space_group_name_H-M "C C C A"
_symmetry_group_IT_number 68
_space_group.IT_coordinate_system_code '2'
_symmetry_cell_setting 'orthorhombic'
loop_
_space_group_symop_operation_xyz
x,y,z
-x,1/2-y,z
x,1/2-y,1/2-z
-x,y,1/2-z
-x,-y,-z
x,1/2+y,-z
-x,1/2+y,1/2+z
x,-y,1/2+z
1/2+x,1/2+y,z
1/2-x,-y,z
1/2+x,-y,1/2-z
1/2-x,1/2+y,1/2-z
1/2-x,1/2-y,-z
1/2+x,y,-z
1/2-x,y,1/2+z
1/2+x,1/2-y,1/2+z
loop_
_atom_site_type_symbol
_atom_site_label
_atom_site_fract_x
_atom_site_fract_y
_atom_site_fract_z
Si Si1 0.333721 0.659738 0.766629
Si Si2 0.934198 0.445480 0.631941
Si Si3 0.459210 0.576876 0.384718
Si Si4 0.144706 0.804424 0.677011
Si Si5 0.399299 0.235326 0.437391
O O1 0.355425 0.596417 0.823987
O O2 0.230530 0.672573 0.752867
O O3 0.387677 0.676445 0.645481
O O4 0.368761 0.709078 0.859245
O O5 0.908515 0.513846 0.603800
O O6 0.000000 0.443646 0.750000
O O7 0.978601 0.422352 0.505202
O O8 0.500000 0.570729 0.250000
O O9 0.409599 0.638837 0.367591
O O10 0.101452 0.750000 0.750000
O O11 0.163807 0.772710 0.550443
O O12 0.500000 0.250000 0.471937
#
# Coordination Sequence:
#
# PCOD9508282 Si02
#       5
#    16  16  16  16  16
#     4  11  22  39  65  90 125 166 215 272 318 389
#     4  10  21  44  68  89 122 170 229 269 311 402
#     4  10  24  41  63  95 126 168 218 273 331 389
#     4  12  26  38  59  95 137 163 204 273 345 391
#     4  11  23  40  62  90 122 173 223 254 321 397
#
# _framework density 21.224091000000001
#
# number of rings (size 3 to 8) (size 9 to 14) (size 15 to 20)
#    0.000    1.200    2.000    5.400    5.600    0.800 
#    0.000    0.000    0.000    9.600    0.000    0.000 
#    0.000    0.000    0.000    0.000    0.000    0.000 
#
# Total GULP energy -222824.507700 kJ/mol
# GULP energy per Si atom -5570.612693 kJ/mol
# Density = 2.117578 g / cm^3
# Si number density = 21.224091 Si / 1000 Ang^3
#
#
#
# Elastic Constant Matrix: (Units=GPa)
#
#
# Indices 1 2 3 4 5 6 
#
# 1 63.8725 44.0506 22.9953 0.0000 0.0000 0.0000
# 2 44.0506 132.7215 47.0097 0.0000 0.0000 0.0000
# 3 22.9953 47.0097 116.9588 0.0000 0.0000 0.0000
# 4 0.0000 0.0000 0.0000 31.2965 0.0000 0.0000
# 5 0.0000 0.0000 0.0000 0.0000 33.5802 0.0000
# 6 0.0000 0.0000 0.0000 0.0000 0.0000 8.2762
#
#
#
# Elastic Compliance Matrix: (Units=1/GPa)
#
#
# Indices 1 2 3 4 5 6 
#
# 1 0.020531 -0.006278 -0.001513 0.000000 0.000000 0.000000
# 2 -0.006278 0.010705 -0.003068 0.000000 0.000000 0.000000
# 3 -0.001513 -0.003068 0.010081 0.000000 0.000000 0.000000
# 4 0.000000 0.000000 0.000000 0.031952 0.000000 0.000000
# 5 0.000000 0.000000 0.000000 0.000000 0.029779 0.000000
# 6 0.000000 0.000000 0.000000 0.000000 0.000000 0.120829
#
#
# Mechanical properties :
#
#
# Convention : Reuss Voigt Hill
#
# Bulk Modulus (GPa) = 51.02765 60.18488 55.60627
# Shear Modulus (GPa) = 19.83109 27.93039 23.88074
#
# Velocity S-wave (km/s) = 3.06006 3.63157 3.35800
# Velocity P-wave (km/s) = 6.04812 6.78254 6.42583
#
# Compressibility (1/GPa) = 0.01959722
#
# Stress axis : x y z
#
# Youngs Moduli (GPa) = 48.70716 93.41279 99.19840
#
# Poissons Ratio (x) = 0.58647 0.15010
# Poissons Ratio (y) = 0.30580 0.30438
# Poissons Ratio (z) = 0.07370 0.28663
#
# Static dielectric constant tensor:
#      x y z
#    x 1.777500 0.000000 0.000000 
#    y 0.000000 1.834620 0.000000 
#    z 0.000000 0.000000 1.857750 
# 
# From -- ./inp_files/13164.got.cif
#   From: 2010.05.17/outbox.cif.g08.bks.cpg/sg68_7_cif.got.tgz:13164.got - 2010.06.03 18:57:09.
