data_PCOD9508453
_publ_section_title
;
Structure prediction by ZEFSAII (Michael W. Deem and Ramdas Pophale) SiO2 
 PCOD9508453
Probable space group: C C C A
;
_chemical_formula_sum "Si O2"
_cell_formula_units_Z 88
_cell_length_a 24.828751
_cell_length_b 5.078891
_cell_length_c 34.922830
_cell_angle_alpha 90.000000
_cell_angle_beta 90.000000
_cell_angle_gamma 90.000000
_cell_volume 4403.856868
_symmetry_space_group_name_H-M "C C C A"
_symmetry_group_IT_number 68
_space_group.IT_coordinate_system_code '2'
_symmetry_cell_setting 'orthorhombic'
loop_
_space_group_symop_operation_xyz
x,y,z
-x,1/2-y,z
x,1/2-y,1/2-z
-x,y,1/2-z
-x,-y,-z
x,1/2+y,-z
-x,1/2+y,1/2+z
x,-y,1/2+z
1/2+x,1/2+y,z
1/2-x,-y,z
1/2+x,-y,1/2-z
1/2-x,1/2+y,1/2-z
1/2-x,1/2-y,-z
1/2+x,y,-z
1/2-x,y,1/2+z
1/2+x,1/2-y,1/2+z
loop_
_atom_site_type_symbol
_atom_site_label
_atom_site_fract_x
_atom_site_fract_y
_atom_site_fract_z
Si Si1 0.500000 0.750000 0.122141
Si Si2 0.385714 0.266672 0.475889
Si Si3 0.112931 0.086425 0.143756
Si Si4 0.655763 0.894558 0.603073
Si Si5 0.250000 0.000000 0.850589
Si Si6 0.692599 0.847287 0.291959
Si Si7 0.500000 0.250000 0.433829
O O1 0.552989 0.697948 0.147274
O O2 0.495394 0.502963 0.093545
O O3 0.377504 0.565556 0.489090
O O4 0.348289 0.162123 0.441571
O O5 0.446889 0.252124 0.460176
O O6 0.142014 0.306737 0.116246
O O7 0.144025 0.029273 0.183704
O O8 0.114045 0.809591 0.121876
O O9 0.713920 0.822904 0.621478
O O10 0.207586 0.885329 0.820785
O O11 0.677449 0.750000 0.250000
O O12 0.750000 0.000000 0.288646
#
# Coordination Sequence:
#
# PCOD9508453 Si02
#       7
#     8  16  16  16   8  16   8
#     4  12  20  39  61  88 122 163 214 247 294 376
#     4  12  23  38  56  86 122 154 202 264 315 362
#     4  11  22  38  61  89 124 166 202 250 301 372
#     4  11  22  40  60  88 118 161 210 248 309 368
#     4  10  22  38  64  88 120 158 206 254 302 368
#     4  11  21  37  63  97 125 155 196 260 313 357
#     4  12  22  37  60  86 117 155 208 263 307 358
#
# _framework density 19.982482000000001
#
# number of rings (size 3 to 8) (size 9 to 14) (size 15 to 20)
#    0.000    0.727    6.364    2.727    0.000    0.000 
#    0.000    1.364    0.000    0.000    0.000    3.818 
#    0.000    0.000    0.000    0.000    0.000    0.000 
#
# Total GULP energy -245346.292070 kJ/mol
# GULP energy per Si atom -5576.052092 kJ/mol
# Density = 1.993700 g / cm^3
# Si number density = 19.982482 Si / 1000 Ang^3
#
#
#
# Elastic Constant Matrix: (Units=GPa)
#
#
# Indices 1 2 3 4 5 6 
#
# 1 51.9993 -2.4250 31.9017 0.0000 0.0000 0.0000
# 2 -2.4250 80.9744 8.6863 0.0000 0.0000 0.0000
# 3 31.9017 8.6863 102.5022 0.0000 0.0000 0.0000
# 4 0.0000 0.0000 0.0000 196.7300 0.0000 0.0000
# 5 0.0000 0.0000 0.0000 0.0000 35.7984 0.0000
# 6 0.0000 0.0000 0.0000 0.0000 0.0000 26.2318
#
#
#
# Elastic Compliance Matrix: (Units=1/GPa)
#
#
# Indices 1 2 3 4 5 6 
#
# 1 0.023956 0.001531 -0.007586 0.000000 0.000000 0.000000
# 2 0.001531 0.012561 -0.001541 0.000000 0.000000 0.000000
# 3 -0.007586 -0.001541 0.012247 0.000000 0.000000 0.000000
# 4 0.000000 0.000000 0.000000 0.005083 0.000000 0.000000
# 5 0.000000 0.000000 0.000000 0.000000 0.027934 0.000000
# 6 0.000000 0.000000 0.000000 0.000000 0.000000 0.038122
#
#
# Mechanical properties :
#
#
# Convention : Reuss Voigt Hill
#
# Bulk Modulus (GPa) = 29.78547 34.64467 32.21507
# Shear Modulus (GPa) = 34.17976 64.90623 49.54300
#
# Velocity S-wave (km/s) = 4.14029 5.70544 4.98468
# Velocity P-wave (km/s) = 6.14769 7.79602 7.02040
#
# Compressibility (1/GPa) = 0.03357342
#
# Stress axis : x y z
#
# Youngs Moduli (GPa) = 41.74270 79.61314 81.65022
#
# Poissons Ratio (x) = -0.12190 0.61937
# Poissons Ratio (y) = -0.06391 0.12582
# Poissons Ratio (z) = 0.31665 0.12268
#
# Static dielectric constant tensor:
#      x y z
#    x 1.803340 0.000000 0.000000 
#    y 0.000000 1.769270 0.000000 
#    z 0.000000 0.000000 1.678870 
# 
# From -- ./inp_files/56170.got.cif
#   From: 2010.05.17/outbox.cif.g08.bks.cpg/sg68_29_cif.got.tgz:56170.got - 2010.06.03 18:57:09.
