data_PCOD9508504
_publ_section_title
;
Structure prediction by ZEFSAII (Michael W. Deem and Ramdas Pophale) SiO2 
 PCOD9508504
Probable space group: C C C A
;
_chemical_formula_sum "Si O2"
_cell_formula_units_Z 112
_cell_length_a 13.767543
_cell_length_b 28.892724
_cell_length_c 11.873372
_cell_angle_alpha 90.000000
_cell_angle_beta 90.000000
_cell_angle_gamma 90.000000
_cell_volume 4723.011524
_symmetry_space_group_name_H-M "C C C A"
_symmetry_group_IT_number 68
_space_group.IT_coordinate_system_code '2'
_symmetry_cell_setting 'orthorhombic'
loop_
_space_group_symop_operation_xyz
x,y,z
-x,1/2-y,z
x,1/2-y,1/2-z
-x,y,1/2-z
-x,-y,-z
x,1/2+y,-z
-x,1/2+y,1/2+z
x,-y,1/2+z
1/2+x,1/2+y,z
1/2-x,-y,z
1/2+x,-y,1/2-z
1/2-x,1/2+y,1/2-z
1/2-x,1/2-y,-z
1/2+x,y,-z
1/2-x,y,1/2+z
1/2+x,1/2-y,1/2+z
loop_
_atom_site_type_symbol
_atom_site_label
_atom_site_fract_x
_atom_site_fract_y
_atom_site_fract_z
Si Si1 0.145081 0.636007 0.442023
Si Si2 0.424793 0.117127 0.450063
Si Si3 0.863394 0.987464 0.036146
Si Si4 0.860627 0.520055 0.719645
Si Si5 0.672432 0.375614 0.675216
Si Si6 0.768805 0.172788 0.639709
Si Si7 0.891076 0.742197 0.116726
O O1 0.220036 0.608914 0.364971
O O2 0.204015 0.641254 0.557452
O O3 0.133363 0.689300 0.405684
O O4 0.039554 0.614789 0.445139
O O5 0.378784 0.067012 0.450673
O O6 0.392315 0.139494 0.569283
O O7 0.373415 0.146938 0.352528
O O8 0.750000 0.000000 0.033740
O O9 0.901763 0.006993 0.156355
O O10 0.897134 0.996923 0.905739
O O11 0.750000 0.500000 0.723067
O O12 0.868974 0.576306 0.721039
O O13 0.700799 0.331418 0.751279
O O14 0.803546 0.221856 0.590741
O O15 0.899072 0.750000 0.250000
O O16 0.000000 0.750000 0.067248
#
# Coordination Sequence:
#
# PCOD9508504 Si02
#       7
#    16  16  16  16  16  16  16
#     4  11  23  40  64  95 129 175 229 284 350 417
#     4  10  22  39  62  94 132 174 230 290 351 421
#     4   9  17  33  60  91 127 180 227 289 353 425
#     4   9  17  33  60  88 125 172 229 281 350 420
#     4  10  22  39  64  94 127 176 228 284 353 427
#     4  11  21  38  65  89 129 177 221 279 348 420
#     4  11  21  38  62  94 136 171 214 284 347 409
#
# _framework density 23.713684000000001
#
# number of rings (size 3 to 8) (size 9 to 14) (size 15 to 20)
#    0.000    1.857    2.857    2.143    0.000    2.286 
#    0.000    0.000    0.000   44.571    0.000    0.000 
#    0.000    0.000    0.000    0.000    0.000    0.000 
#
# Total GULP energy -312000.845084 kJ/mol
# GULP energy per Si atom -5571.443662 kJ/mol
# Density = 2.365971 g / cm^3
# Si number density = 23.713684 Si / 1000 Ang^3
#
#
#
# Elastic Constant Matrix: (Units=GPa)
#
#
# Indices 1 2 3 4 5 6 
#
# 1 -743.7756 116.9031 217.8908 0.0000 0.0000 0.0000
# 2 116.9031 69.1789 -10.6598 0.0000 0.0000 0.0000
# 3 217.8908 -10.6598 74.9582 0.0000 0.0000 0.0000
# 4 0.0000 0.0000 0.0000 30.6909 0.0000 0.0000
# 5 0.0000 0.0000 0.0000 0.0000 -13.5017 0.0000
# 6 0.0000 0.0000 0.0000 0.0000 0.0000 16.0387
#
#
#
# Elastic Compliance Matrix: (Units=1/GPa)
#
#
# Indices 1 2 3 4 5 6 
#
# 1 -0.000588 0.001285 0.001892 0.000000 0.000000 0.000000
# 2 0.001285 0.011970 -0.002034 0.000000 0.000000 0.000000
# 3 0.001892 -0.002034 0.007551 0.000000 0.000000 0.000000
# 4 0.000000 0.000000 0.000000 0.032583 0.000000 0.000000
# 5 0.000000 0.000000 0.000000 0.000000 -0.074065 0.000000
# 6 0.000000 0.000000 0.000000 0.000000 0.000000 0.062349
#
#
# Mechanical properties :
#
#
# Convention : Reuss Voigt Hill
#
# Bulk Modulus (GPa) = 47.12677 5.40330 26.26503
# Shear Modulus (GPa) = 112.14246 -54.93927 28.60159
#
# Velocity S-wave (km/s) = 6.88425 -4.81851 3.47669
# Velocity P-wave (km/s) = 9.11630 5.35480 5.21694
#
# Compressibility (1/GPa) = 0.02121936
#
# Stress axis : x y z
#
# Youngs Moduli (GPa) = -1700.38559 83.54456 132.43526
#
# Poissons Ratio (x) = -0.10739 -0.25061
# Poissons Ratio (y) = 2.18567 0.26940
# Poissons Ratio (z) = 3.21766 0.16995
#
# Static dielectric constant tensor:
#      x y z
#    x 1.890110 0.000000 0.000000 
#    y 0.000000 1.906210 0.000000 
#    z 0.000000 0.000000 2.196710 
# 
# From -- ./inp_files/13580.got.cif
#   From: 2010.05.17/outbox.cif.g08.bks.cpg/sg68_7_cif.got.tgz:13580.got - 2010.06.03 18:57:09.
