data_PCOD9508375
_publ_section_title
;
Structure prediction by ZEFSAII (Michael W. Deem and Ramdas Pophale) SiO2 
 PCOD9508375
Probable space group: C C C A
;
_chemical_formula_sum "Si O2"
_cell_formula_units_Z 72
_cell_length_a 18.597993
_cell_length_b 21.642193
_cell_length_c 8.541663
_cell_angle_alpha 90.000000
_cell_angle_beta 90.000000
_cell_angle_gamma 90.000000
_cell_volume 3438.030922
_symmetry_space_group_name_H-M "C C C A"
_symmetry_group_IT_number 68
_space_group.IT_coordinate_system_code '2'
_symmetry_cell_setting 'orthorhombic'
loop_
_space_group_symop_operation_xyz
x,y,z
-x,1/2-y,z
x,1/2-y,1/2-z
-x,y,1/2-z
-x,-y,-z
x,1/2+y,-z
-x,1/2+y,1/2+z
x,-y,1/2+z
1/2+x,1/2+y,z
1/2-x,-y,z
1/2+x,-y,1/2-z
1/2-x,1/2+y,1/2-z
1/2-x,1/2-y,-z
1/2+x,y,-z
1/2-x,y,1/2+z
1/2+x,1/2-y,1/2+z
loop_
_atom_site_type_symbol
_atom_site_label
_atom_site_fract_x
_atom_site_fract_y
_atom_site_fract_z
Si Si1 0.500000 0.106115 0.250000
Si Si2 0.715590 0.937548 0.095609
Si Si3 0.922517 0.510222 0.083845
Si Si4 0.525852 0.679982 0.072840
Si Si5 0.340469 0.885758 0.121506
O O1 0.434058 0.058405 0.226125
O O2 0.497823 0.143556 0.413804
O O3 0.694418 0.882582 0.209894
O O4 0.750000 0.000000 0.173307
O O5 0.642677 0.960454 0.013788
O O6 0.777186 0.910163 0.987073
O O7 0.896701 0.442796 0.133179
O O8 0.000000 0.500000 0.000000
O O9 0.500000 0.750000 0.057002
O O10 0.500000 0.659634 0.250000
O O11 0.612101 0.671940 0.072963
#
# Coordination Sequence:
#
# PCOD9508375 Si02
#       5
#     8  16  16  16  16
#     4  12  23  40  76 104 139 184 240 296 362 442
#     4  10  22  37  58 101 155 183 218 280 373 453
#     4  11  21  35  64 108 146 175 227 291 355 438
#     4  11  26  47  70 100 137 191 255 315 357 419
#     4  11  23  39  64 100 142 188 224 295 365 442
#
# _framework density 20.942221
#
# number of rings (size 3 to 8) (size 9 to 14) (size 15 to 20)
#    0.000    1.111    2.222    5.000    7.778    0.000 
#    0.000    0.000    0.000   12.000    0.000    0.000 
#    0.000    0.000    0.000    0.000    0.000    0.000 
#
# Total GULP energy -200750.819064 kJ/mol
# GULP energy per Si atom -5576.411641 kJ/mol
# Density = 2.089456 g / cm^3
# Si number density = 20.942221 Si / 1000 Ang^3
#
#
#
# Elastic Constant Matrix: (Units=GPa)
#
#
# Indices 1 2 3 4 5 6 
#
# 1 134.5738 52.6473 47.5069 0.0000 0.0000 0.0000
# 2 52.6473 90.0659 49.4313 0.0000 0.0000 0.0000
# 3 47.5069 49.4313 114.6557 0.0000 0.0000 0.0000
# 4 0.0000 0.0000 0.0000 31.3831 0.0000 0.0000
# 5 0.0000 0.0000 0.0000 0.0000 21.8378 0.0000
# 6 0.0000 0.0000 0.0000 0.0000 0.0000 29.5309
#
#
#
# Elastic Compliance Matrix: (Units=1/GPa)
#
#
# Indices 1 2 3 4 5 6 
#
# 1 0.010016 -0.004686 -0.002130 0.000000 0.000000 0.000000
# 2 -0.004686 0.016737 -0.005274 0.000000 0.000000 0.000000
# 3 -0.002130 -0.005274 0.011878 0.000000 0.000000 0.000000
# 4 0.000000 0.000000 0.000000 0.031864 0.000000 0.000000
# 5 0.000000 0.000000 0.000000 0.000000 0.045792 0.000000
# 6 0.000000 0.000000 0.000000 0.000000 0.000000 0.033863
#
#
# Mechanical properties :
#
#
# Convention : Reuss Voigt Hill
#
# Bulk Modulus (GPa) = 69.19880 70.94072 70.06976
# Shear Modulus (GPa) = 27.91015 29.19769 28.55392
#
# Velocity S-wave (km/s) = 3.65461 3.73795 3.69651
# Velocity P-wave (km/s) = 7.13601 7.25105 7.19376
#
# Compressibility (1/GPa) = 0.01445112
#
# Stress axis : x y z
#
# Youngs Moduli (GPa) = 99.84134 59.74926 84.18871
#
# Poissons Ratio (x) = 0.27997 0.17931
# Poissons Ratio (y) = 0.46783 0.44402
# Poissons Ratio (z) = 0.21265 0.31512
#
# Static dielectric constant tensor:
#      x y z
#    x 1.783630 0.000000 0.000000 
#    y 0.000000 1.746380 0.000000 
#    z 0.000000 0.000000 1.895640 
# 
# From -- ./inp_files/6080.got.cif
#   From: 2010.05.17/outbox.cif.g08.bks.cpg/sg68_4_cif.got.tgz:6080.got - 2010.06.03 18:57:09.
