data_PCOD9508105
_publ_section_title
;
Structure prediction by ZEFSAII (Michael W. Deem and Ramdas Pophale) SiO2 
 PCOD9508105
Probable space group: C C C A
;
_chemical_formula_sum "Si O2"
_cell_formula_units_Z 60
_cell_length_a 4.999135
_cell_length_b 21.203347
_cell_length_c 23.488681
_cell_angle_alpha 90.000000
_cell_angle_beta 90.000000
_cell_angle_gamma 90.000000
_cell_volume 2489.762466
_symmetry_space_group_name_H-M "C C C A"
_symmetry_group_IT_number 68
_space_group.IT_coordinate_system_code '2'
_symmetry_cell_setting 'orthorhombic'
loop_
_space_group_symop_operation_xyz
x,y,z
-x,1/2-y,z
x,1/2-y,1/2-z
-x,y,1/2-z
-x,-y,-z
x,1/2+y,-z
-x,1/2+y,1/2+z
x,-y,1/2+z
1/2+x,1/2+y,z
1/2-x,-y,z
1/2+x,-y,1/2-z
1/2-x,1/2+y,1/2-z
1/2-x,1/2-y,-z
1/2+x,y,-z
1/2-x,y,1/2+z
1/2+x,1/2-y,1/2+z
loop_
_atom_site_type_symbol
_atom_site_label
_atom_site_fract_x
_atom_site_fract_y
_atom_site_fract_z
Si Si1 0.194156 0.152673 0.836551
Si Si2 0.679407 0.430446 0.692155
Si Si3 0.000000 0.250000 0.750000
Si Si4 0.309297 0.359969 0.041714
Si Si5 0.250000 0.500000 0.041144
O O1 0.478451 0.117608 0.838106
O O2 0.184649 0.207986 0.790697
O O3 0.145472 0.177792 0.900435
O O4 0.962948 0.105442 0.812816
O O5 0.500000 0.442754 0.750000
O O6 0.750000 0.500000 0.668471
O O7 0.286054 0.431672 0.068165
O O8 0.547027 0.351684 0.996585
O O9 0.500000 0.500000 0.000000
#
# Coordination Sequence:
#
# PCOD9508105 Si02
#       5
#    16  16   4  16   8
#     4  12  26  45  75 103 151 198 244 317 359 461
#     4  12  24  44  70 109 147 189 242 308 390 453
#     4  12  28  54  72 110 140 206 276 302 384 422
#     4  10  21  41  63 102 145 188 241 293 375 447
#     4   8  16  30  56  86 132 174 212 270 338 438
#
# _framework density 24.098683999999999
#
# number of rings (size 3 to 8) (size 9 to 14) (size 15 to 20)
#    0.000    1.067    2.667    4.000    3.733    2.133 
#    4.800    1.333    0.000    0.000    0.000    0.000 
#    0.000    0.000    0.000    0.000    0.000    0.000 
#
# Total GULP energy -167322.378964 kJ/mol
# GULP energy per Si atom -5577.412632 kJ/mol
# Density = 2.404383 g / cm^3
# Si number density = 24.098684 Si / 1000 Ang^3
#
#
#
# Elastic Constant Matrix: (Units=GPa)
#
#
# Indices 1 2 3 4 5 6 
#
# 1 158.0608 34.0714 15.0283 0.0000 0.0000 0.0000
# 2 34.0714 89.6535 47.1368 0.0000 0.0000 0.0000
# 3 15.0283 47.1368 141.9645 0.0000 0.0000 0.0000
# 4 0.0000 0.0000 0.0000 62.3727 0.0000 0.0000
# 5 0.0000 0.0000 0.0000 0.0000 10.9927 0.0000
# 6 0.0000 0.0000 0.0000 0.0000 0.0000 11.9896
#
#
#
# Elastic Compliance Matrix: (Units=1/GPa)
#
#
# Indices 1 2 3 4 5 6 
#
# 1 0.006895 -0.002709 0.000170 0.000000 0.000000 0.000000
# 2 -0.002709 0.014578 -0.004553 0.000000 0.000000 0.000000
# 3 0.000170 -0.004553 0.008538 0.000000 0.000000 0.000000
# 4 0.000000 0.000000 0.000000 0.016033 0.000000 0.000000
# 5 0.000000 0.000000 0.000000 0.000000 0.090970 0.000000
# 6 0.000000 0.000000 0.000000 0.000000 0.000000 0.083406
#
#
# Mechanical properties :
#
#
# Convention : Reuss Voigt Hill
#
# Bulk Modulus (GPa) = 63.19505 64.68353 63.93929
# Shear Modulus (GPa) = 20.84380 36.63382 28.73881
#
# Velocity S-wave (km/s) = 2.94417 3.90315 3.45707
# Velocity P-wave (km/s) = 6.15125 6.87111 6.52112
#
# Compressibility (1/GPa) = 0.01582403
#
# Stress axis : x y z
#
# Youngs Moduli (GPa) = 145.04149 68.59756 117.12426
#
# Poissons Ratio (x) = 0.18586 -0.01988
# Poissons Ratio (y) = 0.39298 0.53332
# Poissons Ratio (z) = -0.02462 0.31236
#
# Static dielectric constant tensor:
#      x y z
#    x 1.855420 0.000000 0.000000 
#    y 0.000000 2.052880 0.000000 
#    z 0.000000 0.000000 1.990990 
# 
# From -- ./inp_files/34955.got.cif
#   From: 2010.05.17/outbox.cif.g08.bks.cpg/sg68_18_cif.got.tgz:34955.got - 2010.06.03 18:57:09.
