data_PCOD9508192
_publ_section_title
;
Structure prediction by ZEFSAII (Michael W. Deem and Ramdas Pophale) SiO2 
 PCOD9508192
Probable space group: C C C A
;
_chemical_formula_sum "Si O2"
_cell_formula_units_Z 48
_cell_length_a 18.285047
_cell_length_b 8.140163
_cell_length_c 13.198454
_cell_angle_alpha 90.000000
_cell_angle_beta 90.000000
_cell_angle_gamma 90.000000
_cell_volume 1964.500960
_symmetry_space_group_name_H-M "C C C A"
_symmetry_group_IT_number 68
_space_group.IT_coordinate_system_code '2'
_symmetry_cell_setting 'orthorhombic'
loop_
_space_group_symop_operation_xyz
x,y,z
-x,1/2-y,z
x,1/2-y,1/2-z
-x,y,1/2-z
-x,-y,-z
x,1/2+y,-z
-x,1/2+y,1/2+z
x,-y,1/2+z
1/2+x,1/2+y,z
1/2-x,-y,z
1/2+x,-y,1/2-z
1/2-x,1/2+y,1/2-z
1/2-x,1/2-y,-z
1/2+x,y,-z
1/2-x,y,1/2+z
1/2+x,1/2-y,1/2+z
loop_
_atom_site_type_symbol
_atom_site_label
_atom_site_fract_x
_atom_site_fract_y
_atom_site_fract_z
Si Si1 0.877942 0.837873 0.381952
Si Si2 0.374052 0.556802 0.114081
Si Si3 0.000000 0.522540 0.750000
Si Si4 0.750000 0.500000 0.748313
O O1 0.878279 0.641411 0.380314
O O2 0.947871 0.914726 0.324419
O O3 0.875315 0.890041 0.498670
O O4 0.807358 0.907078 0.323237
O O5 0.444281 0.616013 0.176016
O O6 0.300874 0.604404 0.174426
#
# Coordination Sequence:
#
# PCOD9508192 Si02
#       4
#    16  16   8   8
#     4  11  23  40  64  91 122 160 203 253 305 361
#     4  11  23  40  64  91 122 160 203 253 305 361
#     4  10  21  42  65  88 121 162 205 248 301 364
#     4  10  22  38  60  86 118 160 202 244 294 356
#
# _framework density 24.433685000000001
#
# number of rings (size 3 to 8) (size 9 to 14) (size 15 to 20)
#    0.000    1.333    0.000    8.000    0.000    8.000 
#    0.000    6.667    0.000    0.000    0.000    0.000 
#    0.000    0.000    0.000    0.000    0.000    0.000 
#
# Total GULP energy -134575.629974 kJ/mol
# GULP energy per Si atom -5607.317916 kJ/mol
# Density = 2.437807 g / cm^3
# Si number density = 24.433685 Si / 1000 Ang^3
#
#
#
# Elastic Constant Matrix: (Units=GPa)
#
#
# Indices 1 2 3 4 5 6 
#
# 1 224.3192 39.2214 116.7464 0.0000 0.0000 0.0000
# 2 39.2214 52.8178 49.8033 0.0000 0.0000 0.0000
# 3 116.7464 49.8033 286.1316 0.0000 0.0000 0.0000
# 4 0.0000 0.0000 0.0000 46.8359 0.0000 0.0000
# 5 0.0000 0.0000 0.0000 0.0000 27.9204 0.0000
# 6 0.0000 0.0000 0.0000 0.0000 0.0000 40.8879
#
#
#
# Elastic Compliance Matrix: (Units=1/GPa)
#
#
# Indices 1 2 3 4 5 6 
#
# 1 0.005931 -0.002539 -0.001978 0.000000 0.000000 0.000000
# 2 -0.002539 0.023738 -0.003096 0.000000 0.000000 0.000000
# 3 -0.001978 -0.003096 0.004841 0.000000 0.000000 0.000000
# 4 0.000000 0.000000 0.000000 0.021351 0.000000 0.000000
# 5 0.000000 0.000000 0.000000 0.000000 0.035816 0.000000
# 6 0.000000 0.000000 0.000000 0.000000 0.000000 0.024457
#
#
# Mechanical properties :
#
#
# Convention : Reuss Voigt Hill
#
# Bulk Modulus (GPa) = 51.85722 108.31229 80.08475
# Shear Modulus (GPa) = 36.28754 46.96201 41.62478
#
# Velocity S-wave (km/s) = 3.85794 4.38884 4.13192
# Velocity P-wave (km/s) = 6.41207 8.37304 7.45730
#
# Compressibility (1/GPa) = 0.01928372
#
# Stress axis : x y z
#
# Youngs Moduli (GPa) = 168.59312 42.12723 206.57645
#
# Poissons Ratio (x) = 0.10697 0.40864
# Poissons Ratio (y) = 0.42811 0.63948
# Poissons Ratio (z) = 0.33350 0.13041
#
# Static dielectric constant tensor:
#      x y z
#    x 1.940640 0.000000 0.000000 
#    y 0.000000 1.959660 0.000000 
#    z 0.000000 0.000000 1.878340 
# 
# From -- ./inp_files/13813.got.cif
#   From: 2010.05.17/outbox.cif.g08.bks.cpg/sg68_7_cif.got.tgz:13813.got - 2010.06.03 18:57:09.
