data_PCOD9508171
_publ_section_title
;
Structure prediction by ZEFSAII (Michael W. Deem and Ramdas Pophale) SiO2 
 PCOD9508171
Probable space group: C C C A
;
_chemical_formula_sum "Si O2"
_cell_formula_units_Z 64
_cell_length_a 11.889571
_cell_length_b 16.004468
_cell_length_c 15.227591
_cell_angle_alpha 90.000000
_cell_angle_beta 90.000000
_cell_angle_gamma 90.000000
_cell_volume 2897.601319
_symmetry_space_group_name_H-M "C C C A"
_symmetry_group_IT_number 68
_space_group.IT_coordinate_system_code '2'
_symmetry_cell_setting 'orthorhombic'
loop_
_space_group_symop_operation_xyz
x,y,z
-x,1/2-y,z
x,1/2-y,1/2-z
-x,y,1/2-z
-x,-y,-z
x,1/2+y,-z
-x,1/2+y,1/2+z
x,-y,1/2+z
1/2+x,1/2+y,z
1/2-x,-y,z
1/2+x,-y,1/2-z
1/2-x,1/2+y,1/2-z
1/2-x,1/2-y,-z
1/2+x,y,-z
1/2-x,y,1/2+z
1/2+x,1/2-y,1/2+z
loop_
_atom_site_type_symbol
_atom_site_label
_atom_site_fract_x
_atom_site_fract_y
_atom_site_fract_z
Si Si1 0.878255 0.009671 0.947534
Si Si2 0.690337 0.202610 0.631675
Si Si3 0.117029 0.126660 0.204065
Si Si4 0.392982 0.191457 0.056964
O O1 0.893103 0.100146 0.901077
O O2 0.750000 0.000000 0.991178
O O3 0.867289 0.938874 0.873002
O O4 0.000000 0.000000 0.000000
O O5 0.700829 0.139361 0.712837
O O6 0.615899 0.281714 0.660974
O O7 0.638557 0.166452 0.543139
O O8 0.802754 0.248918 0.602161
O O9 0.000000 0.107481 0.250000
O O10 0.500000 0.250000 0.054493
#
# Coordination Sequence:
#
# PCOD9508171 Si02
#       4
#    16  16  16  16
#     4  12  26  47  74 111 154 197 259 327 397 480
#     4  10  21  41  76  98 137 192 254 306 386 474
#     4  11  22  45  70 102 141 194 246 316 392 471
#     4  11  23  43  71 107 144 196 257 316 390 477
#
# _framework density 22.087236000000001
#
# number of rings (size 3 to 8) (size 9 to 14) (size 15 to 20)
#    0.000    1.000    2.500    6.000    3.500    0.000 
#    4.500    3.750    0.000    0.000    0.000    0.000 
#    0.000    0.000    0.000    0.000    0.000    0.000 
#
# Total GULP energy -178251.091729 kJ/mol
# GULP energy per Si atom -5570.346617 kJ/mol
# Density = 2.203696 g / cm^3
# Si number density = 22.087236 Si / 1000 Ang^3
#
#
#
# Elastic Constant Matrix: (Units=GPa)
#
#
# Indices 1 2 3 4 5 6 
#
# 1 150.7058 41.1249 41.8968 0.0000 0.0000 0.0000
# 2 41.1249 96.7097 33.7203 0.0000 0.0000 0.0000
# 3 41.8968 33.7203 108.9681 0.0000 0.0000 0.0000
# 4 0.0000 0.0000 0.0000 42.3557 0.0000 0.0000
# 5 0.0000 0.0000 0.0000 0.0000 24.8449 0.0000
# 6 0.0000 0.0000 0.0000 0.0000 0.0000 -0.3232
#
#
#
# Elastic Compliance Matrix: (Units=1/GPa)
#
#
# Indices 1 2 3 4 5 6 
#
# 1 0.007974 -0.002603 -0.002261 0.000000 0.000000 0.000000
# 2 -0.002603 0.012440 -0.002849 0.000000 0.000000 0.000000
# 3 -0.002261 -0.002849 0.010928 0.000000 0.000000 0.000000
# 4 0.000000 0.000000 0.000000 0.023610 0.000000 0.000000
# 5 0.000000 0.000000 0.000000 0.000000 0.040250 0.000000
# 6 0.000000 0.000000 0.000000 0.000000 0.000000 -3.093644
#
#
# Mechanical properties :
#
#
# Convention : Reuss Voigt Hill
#
# Bulk Modulus (GPa) = 62.82278 65.54086 64.18182
# Shear Modulus (GPa) = -1.67914 29.35157 13.83622
#
# Velocity S-wave (km/s) = -0.87286 3.64935 2.50558
# Velocity P-wave (km/s) = 5.24299 6.89167 6.12307
#
# Compressibility (1/GPa) = 0.01591779
#
# Stress axis : x y z
#
# Youngs Moduli (GPa) = 125.40566 80.38337 91.51002
#
# Poissons Ratio (x) = 0.20922 0.20686
# Poissons Ratio (y) = 0.32640 0.26071
# Poissons Ratio (z) = 0.28348 0.22901
#
# Static dielectric constant tensor:
#      x y z
#    x 1.683960 0.000000 0.000000 
#    y 0.000000 1.923060 0.000000 
#    z 0.000000 0.000000 1.882230 
# 
# From -- ./inp_files/20463.got.cif
#   From: 2010.05.17/outbox.cif.g08.bks.cpg/sg68_11_cif.got.tgz:20463.got - 2010.06.03 18:57:09.
