data_PCOD9508597
_publ_section_title
;
Structure prediction by ZEFSAII (Michael W. Deem and Ramdas Pophale) SiO2 
 PCOD9508597
Probable space group: C C C A
;
_chemical_formula_sum "Si O2"
_cell_formula_units_Z 88
_cell_length_a 26.570209
_cell_length_b 17.786463
_cell_length_c 8.888662
_cell_angle_alpha 90.000000
_cell_angle_beta 90.000000
_cell_angle_gamma 90.000000
_cell_volume 4200.693124
_symmetry_space_group_name_H-M "C C C A"
_symmetry_group_IT_number 68
_space_group.IT_coordinate_system_code '2'
_symmetry_cell_setting 'orthorhombic'
loop_
_space_group_symop_operation_xyz
x,y,z
-x,1/2-y,z
x,1/2-y,1/2-z
-x,y,1/2-z
-x,-y,-z
x,1/2+y,-z
-x,1/2+y,1/2+z
x,-y,1/2+z
1/2+x,1/2+y,z
1/2-x,-y,z
1/2+x,-y,1/2-z
1/2-x,1/2+y,1/2-z
1/2-x,1/2-y,-z
1/2+x,y,-z
1/2-x,y,1/2+z
1/2+x,1/2-y,1/2+z
loop_
_atom_site_type_symbol
_atom_site_label
_atom_site_fract_x
_atom_site_fract_y
_atom_site_fract_z
Si Si1 0.236403 0.392736 0.115442
Si Si2 0.585518 0.250000 0.250000
Si Si3 0.500000 0.025152 0.250000
Si Si4 0.650820 0.151025 0.027873
Si Si5 0.049399 0.905056 0.535055
Si Si6 0.250000 0.500000 0.370224
Si Si7 0.000000 0.250000 0.985502
Si Si8 0.185030 0.250000 0.250000
O O1 0.222315 0.444025 0.257398
O O2 0.216763 0.311086 0.155952
O O3 0.296095 0.382368 0.082537
O O4 0.218675 0.442498 0.973949
O O5 0.622616 0.307511 0.334108
O O6 0.546551 0.277750 0.120508
O O7 0.469586 0.075303 0.367565
O O8 0.532440 0.968830 0.351301
O O9 0.609378 0.093503 0.970118
O O10 0.657277 0.206531 0.884700
O O11 0.024469 0.822617 0.568624
#
# Coordination Sequence:
#
# PCOD9508597 Si02
#       8
#    16   8   8  16  16   8   8   8
#     4  11  23  44  62  92 123 174 207 270 314 383
#     4   9  19  34  61  92 116 158 201 266 303 363
#     4  10  22  42  64  92 132 166 194 250 334 378
#     4  11  23  38  64  94 121 158 222 260 304 373
#     4  10  22  40  64  94 124 165 206 255 311 381
#     4  10  24  42  66  84 124 172 206 250 342 368
#     4   9  18  39  64  87 122 159 210 253 312 373
#     4  12  25  42  65  93 130 167 221 266 317 372
#
# _framework density 20.948923000000001
#
# number of rings (size 3 to 8) (size 9 to 14) (size 15 to 20)
#    0.000    1.636    1.818    3.273    2.545    4.727 
#    0.000    0.000    0.000    0.000    0.000    0.000 
#    0.000    0.000    0.000    0.000    0.000    0.000 
#
# Total GULP energy -245146.152135 kJ/mol
# GULP energy per Si atom -5571.503458 kJ/mol
# Density = 2.090124 g / cm^3
# Si number density = 20.948923 Si / 1000 Ang^3
#
#
#
# Elastic Constant Matrix: (Units=GPa)
#
#
# Indices 1 2 3 4 5 6 
#
# 1 106.0175 36.8309 24.6036 0.0000 0.0000 0.0000
# 2 36.8309 87.6192 30.3951 0.0000 0.0000 0.0000
# 3 24.6036 30.3951 90.9718 0.0000 0.0000 0.0000
# 4 0.0000 0.0000 0.0000 -241.5741 0.0000 0.0000
# 5 0.0000 0.0000 0.0000 0.0000 -7.9477 0.0000
# 6 0.0000 0.0000 0.0000 0.0000 0.0000 18.5833
#
#
#
# Elastic Compliance Matrix: (Units=1/GPa)
#
#
# Indices 1 2 3 4 5 6 
#
# 1 0.011262 -0.004159 -0.001656 0.000000 0.000000 0.000000
# 2 -0.004159 0.014445 -0.003702 0.000000 0.000000 0.000000
# 3 -0.001656 -0.003702 0.012677 0.000000 0.000000 0.000000
# 4 0.000000 0.000000 0.000000 -0.004140 0.000000 0.000000
# 5 0.000000 0.000000 0.000000 0.000000 -0.125823 0.000000
# 6 0.000000 0.000000 0.000000 0.000000 0.000000 0.053812
#
#
# Mechanical properties :
#
#
# Convention : Reuss Voigt Hill
#
# Bulk Modulus (GPa) = 51.67886 52.02976 51.85431
# Shear Modulus (GPa) = -407.09298 -33.33576 -220.21437
#
# Velocity S-wave (km/s) = -13.95523 -3.99342 -10.26391
# Velocity P-wave (km/s) = 15.32781 1.90451 10.75441
#
# Compressibility (1/GPa) = 0.01935027
#
# Stress axis : x y z
#
# Youngs Moduli (GPa) = 88.79636 69.22573 78.88281
#
# Poissons Ratio (x) = 0.28794 0.13063
# Poissons Ratio (y) = 0.36934 0.29199
# Poissons Ratio (z) = 0.14705 0.25624
#
# Static dielectric constant tensor:
#      x y z
#    x 1.735360 0.000000 0.000000 
#    y 0.000000 1.918640 0.000000 
#    z 0.000000 0.000000 1.825150 
# 
# From -- ./inp_files/9543.got.cif
#   From: 2010.05.17/outbox.cif.g08.bks.cpg/sg68_5_cif.got.tgz:9543.got - 2010.06.03 18:57:09.
