data_PCOD9508277
_publ_section_title
;
Structure prediction by ZEFSAII (Michael W. Deem and Ramdas Pophale) SiO2 
 PCOD9508277
Probable space group: C C C A
;
_chemical_formula_sum "Si O2"
_cell_formula_units_Z 80
_cell_length_a 23.736854
_cell_length_b 16.581158
_cell_length_c 8.923418
_cell_angle_alpha 90.000000
_cell_angle_beta 90.000000
_cell_angle_gamma 90.000000
_cell_volume 3512.119249
_symmetry_space_group_name_H-M "C C C A"
_symmetry_group_IT_number 68
_space_group.IT_coordinate_system_code '2'
_symmetry_cell_setting 'orthorhombic'
loop_
_space_group_symop_operation_xyz
x,y,z
-x,1/2-y,z
x,1/2-y,1/2-z
-x,y,1/2-z
-x,-y,-z
x,1/2+y,-z
-x,1/2+y,1/2+z
x,-y,1/2+z
1/2+x,1/2+y,z
1/2-x,-y,z
1/2+x,-y,1/2-z
1/2-x,1/2+y,1/2-z
1/2-x,1/2-y,-z
1/2+x,y,-z
1/2-x,y,1/2+z
1/2+x,1/2-y,1/2+z
loop_
_atom_site_type_symbol
_atom_site_label
_atom_site_fract_x
_atom_site_fract_y
_atom_site_fract_z
Si Si1 0.517854 0.840428 0.424398
Si Si2 0.415178 0.085719 0.067333
Si Si3 0.281502 0.677260 0.632094
Si Si4 0.613498 0.423263 0.405683
Si Si5 0.338190 0.711306 0.100946
O O1 0.500000 0.750000 0.469557
O O2 0.500000 0.848105 0.250000
O O3 0.478025 0.902920 0.509049
O O4 0.580481 0.861943 0.481766
O O5 0.416886 0.076777 0.245111
O O6 0.380329 0.163524 0.005999
O O7 0.388125 0.008119 0.988915
O O8 0.291567 0.750000 0.750000
O O9 0.324118 0.603775 0.644391
O O10 0.303600 0.717090 0.478403
O O11 0.215845 0.654887 0.640016
O O12 0.365119 0.750000 0.250000
#
# Coordination Sequence:
#
# PCOD9508277 Si02
#       5
#    16  16  16  16  16
#     4  11  26  45  71 100 129 174 225 279 336 406
#     4  12  26  44  66  98 135 179 219 278 341 401
#     4  10  21  44  67 100 130 177 226 276 332 400
#     4  12  26  44  67  96 139 175 223 276 340 406
#     4  10  23  40  71  98 135 173 226 278 330 401
#
# _framework density 22.778269000000002
#
# number of rings (size 3 to 8) (size 9 to 14) (size 15 to 20)
#    0.000    1.000    2.000    3.600    8.400    1.600 
#    0.000    2.000    0.000    0.000    0.000    0.000 
#    0.000    0.000    0.000    0.000    0.000    0.000 
#
# Total GULP energy -223448.576584 kJ/mol
# GULP energy per Si atom -5586.214415 kJ/mol
# Density = 2.272642 g / cm^3
# Si number density = 22.778269 Si / 1000 Ang^3
#
#
#
# Elastic Constant Matrix: (Units=GPa)
#
#
# Indices 1 2 3 4 5 6 
#
# 1 93.5526 5.4208 6.0942 0.0000 0.0000 0.0000
# 2 5.4208 61.6120 21.7263 0.0000 0.0000 0.0000
# 3 6.0942 21.7263 129.3763 0.0000 0.0000 0.0000
# 4 0.0000 0.0000 0.0000 27.5506 0.0000 0.0000
# 5 0.0000 0.0000 0.0000 0.0000 33.8298 0.0000
# 6 0.0000 0.0000 0.0000 0.0000 0.0000 -13.1731
#
#
#
# Elastic Compliance Matrix: (Units=1/GPa)
#
#
# Indices 1 2 3 4 5 6 
#
# 1 0.010761 -0.000816 -0.000370 0.000000 0.000000 0.000000
# 2 -0.000816 0.017314 -0.002869 0.000000 0.000000 0.000000
# 3 -0.000370 -0.002869 0.008229 0.000000 0.000000 0.000000
# 4 0.000000 0.000000 0.000000 0.036297 0.000000 0.000000
# 5 0.000000 0.000000 0.000000 0.000000 0.029560 0.000000
# 6 0.000000 0.000000 0.000000 0.000000 0.000000 -0.075913
#
#
# Mechanical properties :
#
#
# Convention : Reuss Voigt Hill
#
# Bulk Modulus (GPa) = 35.47000 39.00260 37.23630
# Shear Modulus (GPa) = 114.27136 26.39479 70.33308
#
# Velocity S-wave (km/s) = 7.09054 3.40776 5.56276
# Velocity P-wave (km/s) = 9.09065 5.71347 7.59222
#
# Compressibility (1/GPa) = 0.02819284
#
# Stress axis : x y z
#
# Youngs Moduli (GPa) = 92.93191 57.75615 121.52701
#
# Poissons Ratio (x) = 0.04715 0.04494
# Poissons Ratio (y) = 0.07587 0.34868
# Poissons Ratio (z) = 0.03436 0.16571
#
# Static dielectric constant tensor:
#      x y z
#    x 1.960090 0.000000 0.000000 
#    y 0.000000 1.866650 0.000000 
#    z 0.000000 0.000000 1.876660 
# 
# From -- ./inp_files/8795.got.cif
#   From: 2010.05.17/outbox.cif.g08.bks.cpg/sg68_5_cif.got.tgz:8795.got - 2010.06.03 18:57:09.
