data_PCOD9508174
_publ_section_title
;
Structure prediction by ZEFSAII (Michael W. Deem and Ramdas Pophale) SiO2 
 PCOD9508174
Probable space group: C C C A
;
_chemical_formula_sum "Si O2"
_cell_formula_units_Z 108
_cell_length_a 22.337532
_cell_length_b 21.713371
_cell_length_c 11.637414
_cell_angle_alpha 90.000000
_cell_angle_beta 90.000000
_cell_angle_gamma 90.000000
_cell_volume 5644.414842
_symmetry_space_group_name_H-M "C C C A"
_symmetry_group_IT_number 68
_space_group.IT_coordinate_system_code '2'
_symmetry_cell_setting 'orthorhombic'
loop_
_space_group_symop_operation_xyz
x,y,z
-x,1/2-y,z
x,1/2-y,1/2-z
-x,y,1/2-z
-x,-y,-z
x,1/2+y,-z
-x,1/2+y,1/2+z
x,-y,1/2+z
1/2+x,1/2+y,z
1/2-x,-y,z
1/2+x,-y,1/2-z
1/2-x,1/2+y,1/2-z
1/2-x,1/2-y,-z
1/2+x,y,-z
1/2-x,y,1/2+z
1/2+x,1/2-y,1/2+z
loop_
_atom_site_type_symbol
_atom_site_label
_atom_site_fract_x
_atom_site_fract_y
_atom_site_fract_z
Si Si1 0.839645 0.944746 0.605882
Si Si2 0.857242 0.425073 0.010739
Si Si3 0.785438 0.750000 0.250000
Si Si4 0.065735 0.522101 0.799798
Si Si5 0.262335 0.884968 0.203769
Si Si6 0.631561 0.598750 0.630539
Si Si7 0.889790 0.318646 0.833854
Si Si8 0.500000 0.250000 0.250000
O O1 0.890530 0.955316 0.699855
O O2 0.785703 0.914860 0.677612
O O3 0.862126 0.899380 0.505705
O O4 0.832153 0.011359 0.544507
O O5 0.877006 0.376432 0.915042
O O6 0.916296 0.440983 0.085708
O O7 0.808245 0.399322 0.100502
O O8 0.748483 0.688770 0.216401
O O9 0.832000 0.774435 0.152617
O O10 0.084826 0.453029 0.832282
O O11 0.000000 0.526357 0.750000
O O12 0.198789 0.916150 0.174153
O O13 0.614283 0.658183 0.701797
O O14 0.954894 0.288121 0.833156
#
# Coordination Sequence:
#
# PCOD9508174 Si02
#       8
#    16  16   8  16  16  16  16   4
#     4  10  22  39  59  95 124 161 200 254 323 382
#     4  10  22  39  65  92 126 159 205 268 320 376
#     4   9  22  43  58  86 123 166 209 254 310 374
#     4  10  22  38  58  89 126 162 201 251 314 387
#     4  10  23  41  62  91 127 166 205 256 316 387
#     4  10  22  35  59  91 121 163 196 252 317 368
#     4  10  21  42  59  93 118 160 216 260 307 370
#     4  10  24  40  64  80 126 164 218 258 302 374
#
# _framework density 19.133959000000001
#
# number of rings (size 3 to 8) (size 9 to 14) (size 15 to 20)
#    0.000    2.074    1.481    0.000    5.185   10.667 
#    5.333    0.000    0.000    0.000    0.000    0.000 
#    0.000    0.000    0.000    0.000    0.000    0.000 
#
# Total GULP energy -301069.100949 kJ/mol
# GULP energy per Si atom -5575.353721 kJ/mol
# Density = 1.909041 g / cm^3
# Si number density = 19.133959 Si / 1000 Ang^3
#
#
#
# Elastic Constant Matrix: (Units=GPa)
#
#
# Indices 1 2 3 4 5 6 
#
# 1 57.8844 35.9514 -1.7643 0.0000 0.0000 0.0000
# 2 35.9514 111.6360 48.2990 0.0000 0.0000 0.0000
# 3 -1.7643 48.2990 87.7960 0.0000 0.0000 0.0000
# 4 0.0000 0.0000 0.0000 20.4106 0.0000 0.0000
# 5 0.0000 0.0000 0.0000 0.0000 8.0419 0.0000
# 6 0.0000 0.0000 0.0000 0.0000 0.0000 -60.9099
#
#
#
# Elastic Compliance Matrix: (Units=1/GPa)
#
#
# Indices 1 2 3 4 5 6 
#
# 1 0.023910 -0.010378 0.006190 0.000000 0.000000 0.000000
# 2 -0.010378 0.016260 -0.009154 0.000000 0.000000 0.000000
# 3 0.006190 -0.009154 0.016550 0.000000 0.000000 0.000000
# 4 0.000000 0.000000 0.000000 0.048994 0.000000 0.000000
# 5 0.000000 0.000000 0.000000 0.000000 0.124349 0.000000
# 6 0.000000 0.000000 0.000000 0.000000 0.000000 -0.016418
#
#
# Mechanical properties :
#
#
# Convention : Reuss Voigt Hill
#
# Bulk Modulus (GPa) = 33.29289 46.92096 40.10692
# Shear Modulus (GPa) = 19.97266 5.16387 12.56827
#
# Velocity S-wave (km/s) = 3.23435 1.64458 2.56570
# Velocity P-wave (km/s) = 5.60229 5.30865 5.45745
#
# Compressibility (1/GPa) = 0.03003644
#
# Stress axis : x y z
#
# Youngs Moduli (GPa) = 41.82321 61.49995 60.42241
#
# Poissons Ratio (x) = 0.63825 -0.37400
# Poissons Ratio (y) = 0.43404 0.55309
# Poissons Ratio (z) = -0.25887 0.56295
#
# Static dielectric constant tensor:
#      x y z
#    x 1.692760 0.000000 0.000000 
#    y 0.000000 1.707790 0.000000 
#    z 0.000000 0.000000 1.676080 
# 
# From -- ./inp_files/15773.got.cif
#   From: 2010.05.17/outbox.cif.g08.bks.cpg/sg68_8_cif.got.tgz:15773.got - 2010.06.03 18:57:09.
