data_PCOD9508369
_publ_section_title
;
Structure prediction by ZEFSAII (Michael W. Deem and Ramdas Pophale) SiO2 
 PCOD9508369
Probable space group: C C C A
;
_chemical_formula_sum "Si O2"
_cell_formula_units_Z 88
_cell_length_a 9.028994
_cell_length_b 28.300214
_cell_length_c 18.352011
_cell_angle_alpha 90.000000
_cell_angle_beta 90.000000
_cell_angle_gamma 90.000000
_cell_volume 4689.351041
_symmetry_space_group_name_H-M "C C C A"
_symmetry_group_IT_number 68
_space_group.IT_coordinate_system_code '2'
_symmetry_cell_setting 'orthorhombic'
loop_
_space_group_symop_operation_xyz
x,y,z
-x,1/2-y,z
x,1/2-y,1/2-z
-x,y,1/2-z
-x,-y,-z
x,1/2+y,-z
-x,1/2+y,1/2+z
x,-y,1/2+z
1/2+x,1/2+y,z
1/2-x,-y,z
1/2+x,-y,1/2-z
1/2-x,1/2+y,1/2-z
1/2-x,1/2-y,-z
1/2+x,y,-z
1/2-x,y,1/2+z
1/2+x,1/2-y,1/2+z
loop_
_atom_site_type_symbol
_atom_site_label
_atom_site_fract_x
_atom_site_fract_y
_atom_site_fract_z
Si Si1 0.460028 0.875611 0.335936
Si Si2 0.451485 0.456804 0.448463
Si Si3 0.085207 0.517188 0.675462
Si Si4 0.000000 0.750000 0.024723
Si Si5 0.171534 0.605196 0.963841
Si Si6 0.770223 0.188018 0.066055
O O1 0.500000 0.871423 0.250000
O O2 0.406434 0.929263 0.354608
O O3 0.601902 0.873707 0.389832
O O4 0.339484 0.837234 0.362565
O O5 0.500000 0.500000 0.500000
O O6 0.500061 0.478075 0.371663
O O7 0.283618 0.438269 0.448439
O O8 0.547331 0.414011 0.480716
O O9 0.250000 0.500000 0.685725
O O10 0.000000 0.521937 0.750000
O O11 0.885958 0.783449 0.070291
O O12 0.893442 0.721018 0.970737
O O13 0.249976 0.646493 0.007456
#
# Coordination Sequence:
#
# PCOD9508369 Si02
#       6
#    16  16  16   8  16  16
#     4  11  24  40  64  91 134 171 214 261 330 383
#     4  12  22  35  60  88 124 164 227 260 300 357
#     4  11  25  39  57  86 128 175 216 267 314 367
#     4  10  22  36  75  97 122 146 212 264 322 388
#     4  12  22  39  64  91 124 171 211 269 311 381
#     4  11  20  42  65 101 120 161 206 263 325 391
#
# _framework density 18.765923000000001
#
# number of rings (size 3 to 8) (size 9 to 14) (size 15 to 20)
#    0.000    0.727    5.455    2.727    5.091    0.000 
#    0.000    0.455    0.000    1.091    0.000    0.000 
#    0.000    0.000    0.000    0.000    0.000    0.000 
#
# Total GULP energy -245437.322225 kJ/mol
# GULP energy per Si atom -5578.120960 kJ/mol
# Density = 1.872321 g / cm^3
# Si number density = 18.765923 Si / 1000 Ang^3
#
#
#
# Elastic Constant Matrix: (Units=GPa)
#
#
# Indices 1 2 3 4 5 6 
#
# 1 111.3769 44.8053 33.5433 0.0000 0.0000 0.0000
# 2 44.8053 82.0191 39.4921 0.0000 0.0000 0.0000
# 3 33.5433 39.4921 82.6717 0.0000 0.0000 0.0000
# 4 0.0000 0.0000 0.0000 22.7763 0.0000 0.0000
# 5 0.0000 0.0000 0.0000 0.0000 25.7395 0.0000
# 6 0.0000 0.0000 0.0000 0.0000 0.0000 55.3252
#
#
#
# Elastic Compliance Matrix: (Units=1/GPa)
#
#
# Indices 1 2 3 4 5 6 
#
# 1 0.011813 -0.005384 -0.002221 0.000000 0.000000 0.000000
# 2 -0.005384 0.018288 -0.006552 0.000000 0.000000 0.000000
# 3 -0.002221 -0.006552 0.016127 0.000000 0.000000 0.000000
# 4 0.000000 0.000000 0.000000 0.043905 0.000000 0.000000
# 5 0.000000 0.000000 0.000000 0.000000 0.038851 0.000000
# 6 0.000000 0.000000 0.000000 0.000000 0.000000 0.018075
#
#
# Mechanical properties :
#
#
# Convention : Reuss Voigt Hill
#
# Bulk Modulus (GPa) = 55.82004 56.86100 56.34052
# Shear Modulus (GPa) = 27.57182 31.31667 29.44424
#
# Velocity S-wave (km/s) = 3.83724 4.08953 3.96539
# Velocity P-wave (km/s) = 7.03154 7.25706 7.14519
#
# Compressibility (1/GPa) = 0.01791471
#
# Stress axis : x y z
#
# Youngs Moduli (GPa) = 84.64997 54.68073 62.00767
#
# Poissons Ratio (x) = 0.29439 0.13774
# Poissons Ratio (y) = 0.45574 0.40625
# Poissons Ratio (z) = 0.18803 0.35825
#
# Static dielectric constant tensor:
#      x y z
#    x 1.793370 0.000000 0.000000 
#    y 0.000000 1.748520 0.000000 
#    z 0.000000 0.000000 1.790060 
# 
# From -- ./inp_files/28507.got.cif
#   From: 2010.05.17/outbox.cif.g08.bks.cpg/sg68_15_cif.got.tgz:28507.got - 2010.06.03 18:57:09.
