data_PCOD9508094
_publ_section_title
;
Structure prediction by ZEFSAII (Michael W. Deem and Ramdas Pophale) SiO2 
 PCOD9508094
Probable space group: C C C A
;
_chemical_formula_sum "Si O2"
_cell_formula_units_Z 88
_cell_length_a 10.324981
_cell_length_b 24.946019
_cell_length_c 14.508135
_cell_angle_alpha 90.000000
_cell_angle_beta 90.000000
_cell_angle_gamma 90.000000
_cell_volume 3736.819306
_symmetry_space_group_name_H-M "C C C A"
_symmetry_group_IT_number 68
_space_group.IT_coordinate_system_code '2'
_symmetry_cell_setting 'orthorhombic'
loop_
_space_group_symop_operation_xyz
x,y,z
-x,1/2-y,z
x,1/2-y,1/2-z
-x,y,1/2-z
-x,-y,-z
x,1/2+y,-z
-x,1/2+y,1/2+z
x,-y,1/2+z
1/2+x,1/2+y,z
1/2-x,-y,z
1/2+x,-y,1/2-z
1/2-x,1/2+y,1/2-z
1/2-x,1/2-y,-z
1/2+x,y,-z
1/2-x,y,1/2+z
1/2+x,1/2-y,1/2+z
loop_
_atom_site_type_symbol
_atom_site_label
_atom_site_fract_x
_atom_site_fract_y
_atom_site_fract_z
Si Si1 0.697220 0.837756 0.972257
Si Si2 0.000000 0.250000 0.592474
Si Si3 0.324603 0.659023 0.666196
Si Si4 0.378625 0.648643 0.314925
Si Si5 0.881183 0.534473 0.605567
Si Si6 0.994161 0.428291 0.910198
O O1 0.603683 0.786829 0.961037
O O2 0.834876 0.831156 0.917247
O O3 0.618481 0.890249 0.935002
O O4 0.727686 0.844376 0.079412
O O5 0.082206 0.291504 0.651021
O O6 0.247314 0.664805 0.758523
O O7 0.407590 0.605412 0.659024
O O8 0.500000 0.665660 0.250000
O O9 0.382523 0.584264 0.325688
O O10 0.750000 0.500000 0.598045
O O11 0.979717 0.487031 0.628585
O O12 0.920963 0.559979 0.506904
#
# Coordination Sequence:
#
# PCOD9508094 Si02
#       6
#    16   8  16  16  16  16
#     4  11  23  49  70 104 143 182 238 300 365 436
#     4  10  26  45  80  99 136 186 246 289 386 437
#     4  11  24  45  73 104 140 188 231 305 360 429
#     4  12  27  43  69 101 146 185 236 294 354 432
#     4  11  21  41  67 108 141 189 234 285 352 434
#     4  10  21  40  75  97 145 186 232 292 356 420
#
# _framework density 23.549440000000001
#
# number of rings (size 3 to 8) (size 9 to 14) (size 15 to 20)
#    0.000    1.091    3.636    1.636    2.545    7.273 
#    0.000    0.909    0.000    0.000    0.000    0.000 
#    0.000    0.000    0.000    0.000    0.000    0.000 
#
# Total GULP energy -246089.016166 kJ/mol
# GULP energy per Si atom -5592.932186 kJ/mol
# Density = 2.349584 g / cm^3
# Si number density = 23.549440 Si / 1000 Ang^3
#
#
#
# Elastic Constant Matrix: (Units=GPa)
#
#
# Indices 1 2 3 4 5 6 
#
# 1 52.4404 3.6986 -7.3720 0.0000 0.0000 0.0000
# 2 3.6986 74.3146 -13.7655 0.0000 0.0000 0.0000
# 3 -7.3720 -13.7655 37.9219 0.0000 0.0000 0.0000
# 4 0.0000 0.0000 0.0000-2057.4845 0.0000 0.0000
# 5 0.0000 0.0000 0.0000 0.0000 28.6972 0.0000
# 6 0.0000 0.0000 0.0000 0.0000 0.0000 30.9951
#
#
#
# Elastic Compliance Matrix: (Units=1/GPa)
#
#
# Indices 1 2 3 4 5 6 
#
# 1 0.019611 -0.000289 0.003707 0.000000 0.000000 0.000000
# 2 -0.000289 0.014431 0.005182 0.000000 0.000000 0.000000
# 3 0.003707 0.005182 0.028972 0.000000 0.000000 0.000000
# 4 0.000000 0.000000 0.000000 -0.000486 0.000000 0.000000
# 5 0.000000 0.000000 0.000000 0.000000 0.034847 0.000000
# 6 0.000000 0.000000 0.000000 0.000000 0.000000 0.032263
#
#
# Mechanical properties :
#
#
# Convention : Reuss Voigt Hill
#
# Bulk Modulus (GPa) = 12.46681 14.42215 13.44448
# Shear Modulus (GPa) = 35.92610 -387.41739 -175.74564
#
# Velocity S-wave (km/s) = 3.91008 -12.84015 -8.64814
# Velocity P-wave (km/s) = 5.06856 14.61809 9.69531
#
# Compressibility (1/GPa) = 0.08021299
#
# Stress axis : x y z
#
# Youngs Moduli (GPa) = 50.99223 69.29731 34.51647
#
# Poissons Ratio (x) = 0.02005 -0.12796
# Poissons Ratio (y) = 0.01475 -0.17886
# Poissons Ratio (z) = -0.18904 -0.35910
#
# Static dielectric constant tensor:
#      x y z
#    x 1.968420 0.000000 0.000000 
#    y 0.000000 1.849560 0.000000 
#    z 0.000000 0.000000 1.864550 
# 
# From -- ./inp_files/20970.got.cif
#   From: 2010.05.17/outbox.cif.g08.bks.cpg/sg68_11_cif.got.tgz:20970.got - 2010.06.03 18:57:09.
