data_PCOD9508772
_publ_section_title
;
Structure prediction by ZEFSAII (Michael W. Deem and Ramdas Pophale) SiO2 
 PCOD9508772
Probable space group: C C C A
;
_chemical_formula_sum "Si O2"
_cell_formula_units_Z 84
_cell_length_a 28.903888
_cell_length_b 6.060146
_cell_length_c 23.193986
_cell_angle_alpha 90.000000
_cell_angle_beta 90.000000
_cell_angle_gamma 90.000000
_cell_volume 4062.699902
_symmetry_space_group_name_H-M "C C C A"
_symmetry_group_IT_number 68
_space_group.IT_coordinate_system_code '2'
_symmetry_cell_setting 'orthorhombic'
loop_
_space_group_symop_operation_xyz
x,y,z
-x,1/2-y,z
x,1/2-y,1/2-z
-x,y,1/2-z
-x,-y,-z
x,1/2+y,-z
-x,1/2+y,1/2+z
x,-y,1/2+z
1/2+x,1/2+y,z
1/2-x,-y,z
1/2+x,-y,1/2-z
1/2-x,1/2+y,1/2-z
1/2-x,1/2-y,-z
1/2+x,y,-z
1/2-x,y,1/2+z
1/2+x,1/2-y,1/2+z
loop_
_atom_site_type_symbol
_atom_site_label
_atom_site_fract_x
_atom_site_fract_y
_atom_site_fract_z
Si Si1 0.360010 0.841348 0.491534
Si Si2 0.000000 0.250000 0.750000
Si Si3 0.643170 0.256349 0.862486
Si Si4 0.047209 0.138604 0.311528
Si Si5 0.702428 0.368205 0.100434
Si Si6 0.701407 0.929928 0.707999
O O1 0.382474 0.588514 0.496262
O O2 0.344300 0.852451 0.425339
O O3 0.318409 0.821845 0.537524
O O4 0.032573 0.394287 0.708061
O O5 0.589525 0.311521 0.852966
O O6 0.669219 0.369511 0.809521
O O7 0.661503 0.008718 0.868262
O O8 0.058533 0.250000 0.250000
O O9 0.000000 0.250000 0.333609
O O10 0.750000 0.500000 0.094216
O O11 0.712716 0.178742 0.146224
O O12 0.679158 0.750000 0.750000
O O13 0.750000 0.000000 0.736022
#
# Coordination Sequence:
#
# PCOD9508772 Si02
#       6
#    16   4  16  16  16  16
#     4  10  22  42  63  95 127 172 229 280 320 388
#     4   8  18  40  64  94 128 160 214 280 336 416
#     4  11  24  39  65  93 128 172 219 275 335 392
#     4   9  21  40  64  96 129 165 217 273 338 409
#     4  11  23  41  63  88 132 179 224 274 323 389
#     4  12  26  39  57  92 134 175 220 270 334 405
#
# _framework density 20.675905
#
# number of rings (size 3 to 8) (size 9 to 14) (size 15 to 20)
#    0.000    1.714    3.810    0.571    4.000    5.333 
#    0.000    0.000    0.000    4.571    0.000    0.000 
#    0.000    0.000    0.000    0.000    0.000    0.000 
#
# Total GULP energy -233895.990343 kJ/mol
# GULP energy per Si atom -5568.952151 kJ/mol
# Density = 2.062885 g / cm^3
# Si number density = 20.675905 Si / 1000 Ang^3
#
#
#
# Elastic Constant Matrix: (Units=GPa)
#
#
# Indices 1 2 3 4 5 6 
#
# 1 73.3847 22.3579 19.0292 0.0000 0.0000 0.0000
# 2 22.3579 98.4882 20.0718 0.0000 0.0000 0.0000
# 3 19.0292 20.0718 98.5504 0.0000 0.0000 0.0000
# 4 0.0000 0.0000 0.0000 29.4859 0.0000 0.0000
# 5 0.0000 0.0000 0.0000 0.0000 32.2569 0.0000
# 6 0.0000 0.0000 0.0000 0.0000 0.0000 -13.0244
#
#
#
# Elastic Compliance Matrix: (Units=1/GPa)
#
#
# Indices 1 2 3 4 5 6 
#
# 1 0.015130 -0.002962 -0.002318 0.000000 0.000000 0.000000
# 2 -0.002962 0.011173 -0.001704 0.000000 0.000000 0.000000
# 3 -0.002318 -0.001704 0.010942 0.000000 0.000000 0.000000
# 4 0.000000 0.000000 0.000000 0.033915 0.000000 0.000000
# 5 0.000000 0.000000 0.000000 0.000000 0.031001 0.000000
# 6 0.000000 0.000000 0.000000 0.000000 0.000000 -0.076779
#
#
# Mechanical properties :
#
#
# Convention : Reuss Voigt Hill
#
# Bulk Modulus (GPa) = 42.96091 43.70455 43.33273
# Shear Modulus (GPa) = 106.13610 23.67464 64.90537
#
# Velocity S-wave (km/s) = 7.17249 3.38751 5.60892
# Velocity P-wave (km/s) = 9.45602 6.04021 7.93411
#
# Compressibility (1/GPa) = 0.02327697
#
# Stress axis : x y z
#
# Youngs Moduli (GPa) = 66.09174 89.49998 91.39345
#
# Poissons Ratio (x) = 0.26513 0.21187
# Poissons Ratio (y) = 0.19579 0.15570
# Poissons Ratio (z) = 0.15322 0.15248
#
# Static dielectric constant tensor:
#      x y z
#    x 1.771070 0.000000 0.000000 
#    y 0.000000 2.191330 0.000000 
#    z 0.000000 0.000000 1.733920 
# 
# From -- ./inp_files/47474.got.cif
#   From: 2010.05.17/outbox.cif.g08.bks.cpg/sg68_24_cif.got.tgz:47474.got - 2010.06.03 18:57:09.
