data_PCOD9508176
_publ_section_title
;
Structure prediction by ZEFSAII (Michael W. Deem and Ramdas Pophale) SiO2 
 PCOD9508176
Probable space group: C C C A
;
_chemical_formula_sum "Si O2"
_cell_formula_units_Z 112
_cell_length_a 28.767997
_cell_length_b 14.439960
_cell_length_c 11.337599
_cell_angle_alpha 90.000000
_cell_angle_beta 90.000000
_cell_angle_gamma 90.000000
_cell_volume 4709.737556
_symmetry_space_group_name_H-M "C C C A"
_symmetry_group_IT_number 68
_space_group.IT_coordinate_system_code '2'
_symmetry_cell_setting 'orthorhombic'
loop_
_space_group_symop_operation_xyz
x,y,z
-x,1/2-y,z
x,1/2-y,1/2-z
-x,y,1/2-z
-x,-y,-z
x,1/2+y,-z
-x,1/2+y,1/2+z
x,-y,1/2+z
1/2+x,1/2+y,z
1/2-x,-y,z
1/2+x,-y,1/2-z
1/2-x,1/2+y,1/2-z
1/2-x,1/2-y,-z
1/2+x,y,-z
1/2-x,y,1/2+z
1/2+x,1/2-y,1/2+z
loop_
_atom_site_type_symbol
_atom_site_label
_atom_site_fract_x
_atom_site_fract_y
_atom_site_fract_z
Si Si1 0.556364 0.441385 0.948762
Si Si2 0.947522 0.260588 0.570307
Si Si3 0.779689 0.362065 0.240756
Si Si4 0.644853 0.830906 0.670215
Si Si5 0.041211 0.108588 0.101514
Si Si6 0.374842 0.965747 0.258574
Si Si7 0.768265 0.353975 0.982227
O O1 0.513262 0.404243 0.870004
O O2 0.605804 0.443904 0.888205
O O3 0.559527 0.369744 0.056023
O O4 0.544139 0.545833 0.982690
O O5 0.905179 0.210511 0.634237
O O6 0.948444 0.212414 0.440146
O O7 0.000000 0.250000 0.617306
O O8 0.781019 0.250000 0.250000
O O9 0.831037 0.402871 0.235109
O O10 0.755952 0.393432 0.363750
O O11 0.758947 0.392862 0.113544
O O12 0.667915 0.750000 0.750000
O O13 0.677438 0.849984 0.556811
O O14 0.638279 0.926080 0.741283
O O15 0.081530 0.064238 0.178824
O O16 0.750000 0.250000 0.000000
#
# Coordination Sequence:
#
# PCOD9508176 Si02
#       7
#    16  16  16  16  16  16  16
#     4  10  22  39  65  93 140 186 235 300 363 425
#     4  10  22  41  65  96 136 188 239 300 364 436
#     4  10  24  46  75 107 141 187 239 305 374 446
#     4  12  25  44  66 101 141 188 242 302 366 448
#     4  10  21  42  60  95 141 185 236 298 363 432
#     4  12  25  40  68 105 134 188 241 300 367 444
#     4  10  23  49  75 104 142 189 239 303 378 441
#
# _framework density 23.780519999999999
#
# number of rings (size 3 to 8) (size 9 to 14) (size 15 to 20)
#    0.000    1.429    1.429    3.429    6.000    0.857 
#    5.143    5.000    0.000    0.000    0.000    0.000 
#    0.000    0.000    0.000    0.000    0.000    0.000 
#
# Total GULP energy -312616.784816 kJ/mol
# GULP energy per Si atom -5582.442586 kJ/mol
# Density = 2.372639 g / cm^3
# Si number density = 23.780520 Si / 1000 Ang^3
#
#
#
# Elastic Constant Matrix: (Units=GPa)
#
#
# Indices 1 2 3 4 5 6 
#
# 1 106.0596 30.3830 33.7662 0.0000 0.0000 0.0000
# 2 30.3830 114.0825 27.3254 0.0000 0.0000 0.0000
# 3 33.7662 27.3254 115.6628 0.0000 0.0000 0.0000
# 4 0.0000 0.0000 0.0000 11.9740 0.0000 0.0000
# 5 0.0000 0.0000 0.0000 0.0000 44.8026 0.0000
# 6 0.0000 0.0000 0.0000 0.0000 0.0000 20.5204
#
#
#
# Elastic Compliance Matrix: (Units=1/GPa)
#
#
# Indices 1 2 3 4 5 6 
#
# 1 0.010924 -0.002274 -0.002652 0.000000 0.000000 0.000000
# 2 -0.002274 0.009765 -0.001643 0.000000 0.000000 0.000000
# 3 -0.002652 -0.001643 0.009808 0.000000 0.000000 0.000000
# 4 0.000000 0.000000 0.000000 0.083515 0.000000 0.000000
# 5 0.000000 0.000000 0.000000 0.000000 0.022320 0.000000
# 6 0.000000 0.000000 0.000000 0.000000 0.000000 0.048732
#
#
# Mechanical properties :
#
#
# Convention : Reuss Voigt Hill
#
# Bulk Modulus (GPa) = 57.60688 57.63935 57.62311
# Shear Modulus (GPa) = 24.51111 31.74807 28.12959
#
# Velocity S-wave (km/s) = 3.21397 3.65779 3.44304
# Velocity P-wave (km/s) = 6.16845 6.49076 6.33165
#
# Compressibility (1/GPa) = 0.01735904
#
# Stress axis : x y z
#
# Youngs Moduli (GPa) = 91.53762 102.40847 101.95567
#
# Poissons Ratio (x) = 0.23290 0.27038
# Poissons Ratio (y) = 0.20818 0.16751
# Poissons Ratio (z) = 0.24275 0.16826
#
# Static dielectric constant tensor:
#      x y z
#    x 1.898550 0.000000 0.000000 
#    y 0.000000 1.831150 0.000000 
#    z 0.000000 0.000000 2.014080 
# 
# From -- ./inp_files/17780.got.cif
#   From: 2010.05.17/outbox.cif.g08.bks.cpg/sg68_9_cif.got.tgz:17780.got - 2010.06.03 18:57:09.
