data_PCOD9508720
_publ_section_title
;
Structure prediction by ZEFSAII (Michael W. Deem and Ramdas Pophale) SiO2 
 PCOD9508720
Probable space group: C C C A
;
_chemical_formula_sum "Si O2"
_cell_formula_units_Z 32
_cell_length_a 8.340104
_cell_length_b 12.777837
_cell_length_c 13.403965
_cell_angle_alpha 90.000000
_cell_angle_beta 90.000000
_cell_angle_gamma 90.000000
_cell_volume 1428.440303
_symmetry_space_group_name_H-M "C C C A"
_symmetry_group_IT_number 68
_space_group.IT_coordinate_system_code '2'
_symmetry_cell_setting 'orthorhombic'
loop_
_space_group_symop_operation_xyz
x,y,z
-x,1/2-y,z
x,1/2-y,1/2-z
-x,y,1/2-z
-x,-y,-z
x,1/2+y,-z
-x,1/2+y,1/2+z
x,-y,1/2+z
1/2+x,1/2+y,z
1/2-x,-y,z
1/2+x,-y,1/2-z
1/2-x,1/2+y,1/2-z
1/2-x,1/2-y,-z
1/2+x,y,-z
1/2-x,y,1/2+z
1/2+x,1/2-y,1/2+z
loop_
_atom_site_type_symbol
_atom_site_label
_atom_site_fract_x
_atom_site_fract_y
_atom_site_fract_z
Si Si1 0.803032 0.366567 0.974612
Si Si2 0.504664 0.479204 0.868034
O O1 0.655286 0.414493 0.912425
O O2 0.956471 0.402297 0.906219
O O3 0.750000 0.250000 0.000000
O O4 0.856253 0.421755 0.078402
O O5 0.500000 0.474951 0.750000
#
# Coordination Sequence:
#
# PCOD9508720 Si02
#       2
#    16  16
#     4  10  22  41  66  95 132 178 231 283 340 412
#     4  10  23  43  66  97 139 179 224 288 346 403
#
# _framework density 22.402058
#
# number of rings (size 3 to 8) (size 9 to 14) (size 15 to 20)
#    0.000    2.000    0.000    1.500    0.000   20.000 
#    0.000    5.000    0.000    3.000    0.000    0.000 
#    0.000    0.000    0.000    0.000    0.000    0.000 
#
# Total GULP energy -89083.097513 kJ/mol
# GULP energy per Si atom -5567.693595 kJ/mol
# Density = 2.235107 g / cm^3
# Si number density = 22.402058 Si / 1000 Ang^3
#
#
#
# Elastic Constant Matrix: (Units=GPa)
#
#
# Indices 1 2 3 4 5 6 
#
# 1 109.7455 91.5469 69.6503 0.0000 0.0000 0.0000
# 2 91.5469 206.8965 93.2651 0.0000 0.0000 0.0000
# 3 69.6503 93.2651 277.2515 0.0000 0.0000 0.0000
# 4 0.0000 0.0000 0.0000 10.5171 0.0000 0.0000
# 5 0.0000 0.0000 0.0000 0.0000 36.3517 0.0000
# 6 0.0000 0.0000 0.0000 0.0000 0.0000 47.4987
#
#
#
# Elastic Compliance Matrix: (Units=1/GPa)
#
#
# Indices 1 2 3 4 5 6 
#
# 1 0.015195 -0.005897 -0.001834 0.000000 0.000000 0.000000
# 2 -0.005897 0.007986 -0.001205 0.000000 0.000000 0.000000
# 3 -0.001834 -0.001205 0.004473 0.000000 0.000000 0.000000
# 4 0.000000 0.000000 0.000000 0.095084 0.000000 0.000000
# 5 0.000000 0.000000 0.000000 0.000000 0.027509 0.000000
# 6 0.000000 0.000000 0.000000 0.000000 0.000000 0.021053
#
#
# Mechanical properties :
#
#
# Convention : Reuss Voigt Hill
#
# Bulk Modulus (GPa) = 102.22232 122.53535 112.37884
# Shear Modulus (GPa) = 25.98347 41.50225 33.74286
#
# Velocity S-wave (km/s) = 3.40938 4.30886 3.88524
# Velocity P-wave (km/s) = 7.82485 8.92032 8.39048
#
# Compressibility (1/GPa) = 0.00978260
#
# Stress axis : x y z
#
# Youngs Moduli (GPa) = 65.81321 125.22436 223.57452
#
# Poissons Ratio (x) = 0.73841 0.40993
# Poissons Ratio (y) = 0.38808 0.26940
# Poissons Ratio (z) = 0.12067 0.15089
#
# Static dielectric constant tensor:
#      x y z
#    x 2.047880 0.000000 0.000000 
#    y 0.000000 1.944630 0.000000 
#    z 0.000000 0.000000 1.790290 
# 
# From -- ./inp_files/10110.got.cif
#   From: 2010.05.17/outbox.cif.g08.bks.cpg/sg68_6_cif.got.tgz:10110.got - 2010.06.03 18:57:09.
