data_PCOD9508310
_publ_section_title
;
Structure prediction by ZEFSAII (Michael W. Deem and Ramdas Pophale) SiO2 
 PCOD9508310
Probable space group: C C C A
;
_chemical_formula_sum "Si O2"
_cell_formula_units_Z 88
_cell_length_a 12.990279
_cell_length_b 14.010462
_cell_length_c 20.701010
_cell_angle_alpha 90.000000
_cell_angle_beta 90.000000
_cell_angle_gamma 90.000000
_cell_volume 3767.579893
_symmetry_space_group_name_H-M "C C C A"
_symmetry_group_IT_number 68
_space_group.IT_coordinate_system_code '2'
_symmetry_cell_setting 'orthorhombic'
loop_
_space_group_symop_operation_xyz
x,y,z
-x,1/2-y,z
x,1/2-y,1/2-z
-x,y,1/2-z
-x,-y,-z
x,1/2+y,-z
-x,1/2+y,1/2+z
x,-y,1/2+z
1/2+x,1/2+y,z
1/2-x,-y,z
1/2+x,-y,1/2-z
1/2-x,1/2+y,1/2-z
1/2-x,1/2-y,-z
1/2+x,y,-z
1/2-x,y,1/2+z
1/2+x,1/2-y,1/2+z
loop_
_atom_site_type_symbol
_atom_site_label
_atom_site_fract_x
_atom_site_fract_y
_atom_site_fract_z
Si Si1 0.477192 0.033805 0.396458
Si Si2 0.500000 0.980104 0.250000
Si Si3 0.726578 0.229919 0.349593
Si Si4 0.500000 0.250000 0.403887
Si Si5 0.750000 0.500000 0.940731
Si Si6 0.823225 0.580932 0.564898
Si Si7 0.711448 0.894849 0.232886
O O1 0.492738 0.037826 0.317889
O O2 0.494337 0.138721 0.429101
O O3 0.360861 0.995678 0.406609
O O4 0.562577 0.961467 0.426101
O O5 0.596198 0.909688 0.255644
O O6 0.609639 0.245978 0.368805
O O7 0.798330 0.179830 0.402033
O O8 0.727082 0.158914 0.288651
O O9 0.775473 0.329332 0.328865
O O10 0.775994 0.416124 0.992790
O O11 0.750000 0.500000 0.598151
O O12 0.750000 0.000000 0.222009
#
# Coordination Sequence:
#
# PCOD9508310 Si02
#       7
#    16   8  16   8   8  16  16
#     4  12  25  47  75 112 153 205 252 325 397 457
#     4  12  26  42  72 102 158 198 246 321 399 468
#     4  11  23  41  71 105 145 203 254 306 395 460
#     4  12  24  41  68 106 148 190 254 317 370 468
#     4  10  26  46  82 114 146 204 274 320 370 470
#     4  10  21  49  77 101 151 201 253 318 383 449
#     4  11  24  42  66 106 156 194 253 317 387 477
#
# _framework density 23.357168000000001
#
# number of rings (size 3 to 8) (size 9 to 14) (size 15 to 20)
#    0.545    0.364    3.636    3.273    3.818    4.727 
#    0.000    3.636    4.000    0.000    0.000    0.000 
#    0.000    0.000    0.000    0.000    0.000    0.000 
#
# Total GULP energy -245578.225337 kJ/mol
# GULP energy per Si atom -5581.323303 kJ/mol
# Density = 2.330401 g / cm^3
# Si number density = 23.357168 Si / 1000 Ang^3
#
#
#
# Elastic Constant Matrix: (Units=GPa)
#
#
# Indices 1 2 3 4 5 6 
#
# 1 187.0377 72.6479 48.9515 0.0000 0.0000 0.0000
# 2 72.6479 146.6951 41.5311 0.0000 0.0000 0.0000
# 3 48.9515 41.5311 71.7104 0.0000 0.0000 0.0000
# 4 0.0000 0.0000 0.0000 27.4799 0.0000 0.0000
# 5 0.0000 0.0000 0.0000 0.0000 36.7769 0.0000
# 6 0.0000 0.0000 0.0000 0.0000 0.0000 35.8611
#
#
#
# Elastic Compliance Matrix: (Units=1/GPa)
#
#
# Indices 1 2 3 4 5 6 
#
# 1 0.007266 -0.002625 -0.003440 0.000000 0.000000 0.000000
# 2 -0.002625 0.009102 -0.003480 0.000000 0.000000 0.000000
# 3 -0.003440 -0.003480 0.018309 0.000000 0.000000 0.000000
# 4 0.000000 0.000000 0.000000 0.036390 0.000000 0.000000
# 5 0.000000 0.000000 0.000000 0.000000 0.027191 0.000000
# 6 0.000000 0.000000 0.000000 0.000000 0.000000 0.027885
#
#
# Mechanical properties :
#
#
# Convention : Reuss Voigt Hill
#
# Bulk Modulus (GPa) = 64.15260 81.30045 72.72653
# Shear Modulus (GPa) = 33.23850 36.17776 34.70813
#
# Velocity S-wave (km/s) = 3.77643 3.93987 3.85901
# Velocity P-wave (km/s) = 6.82208 7.45519 7.14565
#
# Compressibility (1/GPa) = 0.01558783
#
# Stress axis : x y z
#
# Youngs Moduli (GPa) = 137.62209 109.86891 54.61916
#
# Poissons Ratio (x) = 0.28835 0.18790
# Poissons Ratio (y) = 0.36119 0.19006
# Poissons Ratio (z) = 0.47344 0.38231
#
# Static dielectric constant tensor:
#      x y z
#    x 4.025060 0.000000 0.000000 
#    y 0.000000 1.903550 0.000000 
#    z 0.000000 0.000000 2.018670 
# 
# From -- ./inp_files/44274.got.cif
#   From: 2010.05.17/outbox.cif.g08.bks.cpg/sg68_23_cif.got.tgz:44274.got - 2010.06.03 18:57:09.
