data_PCOD9508246
_publ_section_title
;
Structure prediction by ZEFSAII (Michael W. Deem and Ramdas Pophale) SiO2 
 PCOD9508246
Probable space group: C C C A
;
_chemical_formula_sum "Si O2"
_cell_formula_units_Z 112
_cell_length_a 14.455012
_cell_length_b 21.750919
_cell_length_c 14.481457
_cell_angle_alpha 90.000000
_cell_angle_beta 90.000000
_cell_angle_gamma 90.000000
_cell_volume 4553.111929
_symmetry_space_group_name_H-M "C C C A"
_symmetry_group_IT_number 68
_space_group.IT_coordinate_system_code '2'
_symmetry_cell_setting 'orthorhombic'
loop_
_space_group_symop_operation_xyz
x,y,z
-x,1/2-y,z
x,1/2-y,1/2-z
-x,y,1/2-z
-x,-y,-z
x,1/2+y,-z
-x,1/2+y,1/2+z
x,-y,1/2+z
1/2+x,1/2+y,z
1/2-x,-y,z
1/2+x,-y,1/2-z
1/2-x,1/2+y,1/2-z
1/2-x,1/2-y,-z
1/2+x,y,-z
1/2-x,y,1/2+z
1/2+x,1/2-y,1/2+z
loop_
_atom_site_type_symbol
_atom_site_label
_atom_site_fract_x
_atom_site_fract_y
_atom_site_fract_z
Si Si1 0.357222 0.496109 0.119024
Si Si2 0.113169 0.354002 0.656600
Si Si3 0.394704 0.276749 0.544475
Si Si4 0.686280 0.048184 0.417639
Si Si5 0.339169 0.151113 0.547417
Si Si6 0.099184 0.160642 0.645399
Si Si7 0.526466 0.885221 0.147923
O O1 0.250000 0.500000 0.149400
O O2 0.388187 0.428137 0.146744
O O3 0.426328 0.548247 0.155005
O O4 0.349584 0.512709 0.008782
O O5 0.161232 0.335820 0.561978
O O6 0.149357 0.332399 0.756166
O O7 0.009796 0.327655 0.652718
O O8 0.500000 0.250000 0.541527
O O9 0.338183 0.220131 0.586806
O O10 0.369686 0.299585 0.441885
O O11 0.399715 0.338288 0.604578
O O12 0.758004 0.103675 0.435677
O O13 0.604914 0.086882 0.373494
O O14 0.750000 0.000000 0.363201
O O15 0.435055 0.119487 0.583037
O O16 0.500000 0.864330 0.250000
#
# Coordination Sequence:
#
# PCOD9508246 Si02
#       7
#    16  16  16  16  16  16  16
#     4  11  23  43  67  98 140 176 217 286 340 406
#     4  11  23  40  66  99 134 170 226 274 345 403
#     4  10  21  43  67  95 132 176 228 283 327 414
#     4  11  23  42  67  96 138 181 217 284 341 402
#     4  11  23  43  67  99 130 186 226 274 344 404
#     4  11  24  41  65  99 131 176 227 279 339 404
#     4  11  25  43  71 101 133 180 226 281 344 409
#
# _framework density 24.598559999999999
#
# number of rings (size 3 to 8) (size 9 to 14) (size 15 to 20)
#    0.000    1.143    7.143    0.000    4.000    6.571 
#    0.000    0.000    0.000    1.714    0.000    0.000 
#    0.000    0.000    0.000    0.000    0.000    0.000 
#
# Total GULP energy -312833.251906 kJ/mol
# GULP energy per Si atom -5586.308070 kJ/mol
# Density = 2.454257 g / cm^3
# Si number density = 24.598560 Si / 1000 Ang^3
#
#
#
# Elastic Constant Matrix: (Units=GPa)
#
#
# Indices 1 2 3 4 5 6 
#
# 1 58.8423 14.0436 -0.9884 0.0000 0.0000 0.0000
# 2 14.0436 139.2346 13.3269 0.0000 0.0000 0.0000
# 3 -0.9884 13.3269 101.4044 0.0000 0.0000 0.0000
# 4 0.0000 0.0000 0.0000 -17.1680 0.0000 0.0000
# 5 0.0000 0.0000 0.0000 0.0000 -0.1930 0.0000
# 6 0.0000 0.0000 0.0000 0.0000 0.0000 20.9771
#
#
#
# Elastic Compliance Matrix: (Units=1/GPa)
#
#
# Indices 1 2 3 4 5 6 
#
# 1 0.017430 -0.001797 0.000406 0.000000 0.000000 0.000000
# 2 -0.001797 0.007459 -0.000998 0.000000 0.000000 0.000000
# 3 0.000406 -0.000998 0.009997 0.000000 0.000000 0.000000
# 4 0.000000 0.000000 0.000000 -0.058248 0.000000 0.000000
# 5 0.000000 0.000000 0.000000 0.000000 -5.181766 0.000000
# 6 0.000000 0.000000 0.000000 0.000000 0.000000 0.047671
#
#
# Mechanical properties :
#
#
# Convention : Reuss Voigt Hill
#
# Bulk Modulus (GPa) = 33.21332 39.13840 36.17586
# Shear Modulus (GPa) = -0.97226 18.92983 8.97878
#
# Velocity S-wave (km/s) = -0.62937 2.77709 1.91260
# Velocity P-wave (km/s) = 3.60601 5.12136 4.42898
#
# Compressibility (1/GPa) = 0.03010840
#
# Stress axis : x y z
#
# Youngs Moduli (GPa) = 57.37144 134.06856 100.03409
#
# Poissons Ratio (x) = 0.24091 -0.04062
# Poissons Ratio (y) = 0.10309 0.09981
# Poissons Ratio (z) = -0.02330 0.13377
#
# Static dielectric constant tensor:
#      x y z
#    x 2.028190 0.000000 0.000000 
#    y 0.000000 1.984140 0.000000 
#    z 0.000000 0.000000 2.010500 
# 
# From -- ./inp_files/22603.got.cif
#   From: 2010.05.17/outbox.cif.g08.bks.cpg/sg68_12_cif.got.tgz:22603.got - 2010.06.03 18:57:09.
