data_PCOD9508490
_publ_section_title
;
Structure prediction by ZEFSAII (Michael W. Deem and Ramdas Pophale) SiO2 
 PCOD9508490
Probable space group: C C C A
;
_chemical_formula_sum "Si O2"
_cell_formula_units_Z 96
_cell_length_a 18.804863
_cell_length_b 16.239251
_cell_length_c 14.601246
_cell_angle_alpha 90.000000
_cell_angle_beta 90.000000
_cell_angle_gamma 90.000000
_cell_volume 4458.883098
_symmetry_space_group_name_H-M "C C C A"
_symmetry_group_IT_number 68
_space_group.IT_coordinate_system_code '2'
_symmetry_cell_setting 'orthorhombic'
loop_
_space_group_symop_operation_xyz
x,y,z
-x,1/2-y,z
x,1/2-y,1/2-z
-x,y,1/2-z
-x,-y,-z
x,1/2+y,-z
-x,1/2+y,1/2+z
x,-y,1/2+z
1/2+x,1/2+y,z
1/2-x,-y,z
1/2+x,-y,1/2-z
1/2-x,1/2+y,1/2-z
1/2-x,1/2-y,-z
1/2+x,y,-z
1/2-x,y,1/2+z
1/2+x,1/2-y,1/2+z
loop_
_atom_site_type_symbol
_atom_site_label
_atom_site_fract_x
_atom_site_fract_y
_atom_site_fract_z
Si Si1 0.429392 0.425895 0.088192
Si Si2 0.080384 0.969130 0.092936
Si Si3 0.205507 0.623862 0.478919
Si Si4 0.922137 0.136203 0.290681
Si Si5 0.819423 0.038387 0.172037
Si Si6 0.855428 0.798480 0.960331
O O1 0.511014 0.415908 0.116468
O O2 0.376342 0.463952 0.162473
O O3 0.427291 0.498902 0.011798
O O4 0.400140 0.345517 0.038102
O O5 0.155356 0.923014 0.093062
O O6 0.074844 0.050972 0.152233
O O7 0.207224 0.572014 0.573183
O O8 0.168314 0.710010 0.504759
O O9 0.284737 0.645374 0.446294
O O10 0.860619 0.114257 0.218488
O O11 0.898346 0.203141 0.365347
O O12 0.000000 0.151215 0.250000
O O13 0.750000 0.000000 0.219434
#
# Coordination Sequence:
#
# PCOD9508490 Si02
#       6
#    16  16  16  16  16  16
#     4   9  17  35  57  81 111 151 200 246 287 357
#     4   9  19  34  58  84 114 149 202 247 292 354
#     4  10  22  39  59  86 118 161 206 247 295 364
#     4  11  23  38  61  92 124 154 199 260 317 361
#     4  11  21  36  60  87 114 155 199 255 306 363
#     4  10  22  39  59  86 122 160 203 249 300 369
#
# _framework density 21.530055999999998
#
# number of rings (size 3 to 8) (size 9 to 14) (size 15 to 20)
#    0.000    2.000    3.333    0.000    4.667    1.333 
#    0.000    0.833    0.000    1.000    0.000    0.000 
#    0.000    0.000    0.000    0.000    0.000    0.000 
#
# Total GULP energy -268064.735318 kJ/mol
# GULP energy per Si atom -5584.681986 kJ/mol
# Density = 2.148105 g / cm^3
# Si number density = 21.530056 Si / 1000 Ang^3
#
#
#
# Elastic Constant Matrix: (Units=GPa)
#
#
# Indices 1 2 3 4 5 6 
#
# 1 95.0104 24.4708 15.4117 0.0000 0.0000 0.0000
# 2 24.4708 63.1566 -1.3530 0.0000 0.0000 0.0000
# 3 15.4117 -1.3530 37.4646 0.0000 0.0000 0.0000
# 4 0.0000 0.0000 0.0000 5.6782 0.0000 0.0000
# 5 0.0000 0.0000 0.0000 0.0000 30.1709 0.0000
# 6 0.0000 0.0000 0.0000 0.0000 0.0000 31.8536
#
#
#
# Elastic Compliance Matrix: (Units=1/GPa)
#
#
# Indices 1 2 3 4 5 6 
#
# 1 0.012699 -0.005036 -0.005406 0.000000 0.000000 0.000000
# 2 -0.005036 0.017843 0.002716 0.000000 0.000000 0.000000
# 3 -0.005406 0.002716 0.029014 0.000000 0.000000 0.000000
# 4 0.000000 0.000000 0.000000 0.176113 0.000000 0.000000
# 5 0.000000 0.000000 0.000000 0.000000 0.033145 0.000000
# 6 0.000000 0.000000 0.000000 0.000000 0.000000 0.031394
#
#
# Mechanical properties :
#
#
# Convention : Reuss Voigt Hill
#
# Bulk Modulus (GPa) = 22.67365 30.29897 26.48631
# Shear Modulus (GPa) = 15.13496 24.01402 19.57449
#
# Velocity S-wave (km/s) = 2.65423 3.34334 3.01852
# Velocity P-wave (km/s) = 4.46624 5.38585 4.94745
#
# Compressibility (1/GPa) = 0.04410406
#
# Stress axis : x y z
#
# Youngs Moduli (GPa) = 78.74520 56.04378 34.46644
#
# Poissons Ratio (x) = 0.28225 0.18632
# Poissons Ratio (y) = 0.39658 -0.09362
# Poissons Ratio (z) = 0.42569 -0.15222
#
# Static dielectric constant tensor:
#      x y z
#    x 1.822250 0.000000 0.000000 
#    y 0.000000 1.779060 0.000000 
#    z 0.000000 0.000000 1.834570 
# 
# From -- ./inp_files/24452.got.cif
#   From: 2010.05.17/outbox.cif.g08.bks.cpg/sg68_13_cif.got.tgz:24452.got - 2010.06.03 18:57:09.
