data_PCOD9508706
_publ_section_title
;
Structure prediction by ZEFSAII (Michael W. Deem and Ramdas Pophale) SiO2 
 PCOD9508706
Probable space group: C C C A
;
_chemical_formula_sum "Si O2"
_cell_formula_units_Z 56
_cell_length_a 20.240781
_cell_length_b 5.072810
_cell_length_c 21.500915
_cell_angle_alpha 90.000000
_cell_angle_beta 90.000000
_cell_angle_gamma 90.000000
_cell_volume 2207.663130
_symmetry_space_group_name_H-M "C C C A"
_symmetry_group_IT_number 68
_space_group.IT_coordinate_system_code '2'
_symmetry_cell_setting 'orthorhombic'
loop_
_space_group_symop_operation_xyz
x,y,z
-x,1/2-y,z
x,1/2-y,1/2-z
-x,y,1/2-z
-x,-y,-z
x,1/2+y,-z
-x,1/2+y,1/2+z
x,-y,1/2+z
1/2+x,1/2+y,z
1/2-x,-y,z
1/2+x,-y,1/2-z
1/2-x,1/2+y,1/2-z
1/2-x,1/2-y,-z
1/2+x,y,-z
1/2-x,y,1/2+z
1/2+x,1/2-y,1/2+z
loop_
_atom_site_type_symbol
_atom_site_label
_atom_site_fract_x
_atom_site_fract_y
_atom_site_fract_z
Si Si1 0.750000 0.000000 0.045162
Si Si2 0.000000 0.750000 0.879176
Si Si3 0.750000 0.000000 0.795385
Si Si4 0.891975 0.543479 0.457927
Si Si5 0.107698 0.000343 0.705044
O O1 0.678446 0.001135 0.077071
O O2 0.750000 0.750000 0.000000
O O3 0.047384 0.942681 0.917880
O O4 0.047342 0.560733 0.839461
O O5 0.749603 0.750000 0.750000
O O6 0.679338 0.986611 0.829050
O O7 0.893955 0.841286 0.483130
O O8 0.098585 0.250000 0.750000
O O9 0.111011 0.750000 0.750000
#
# Coordination Sequence:
#
# PCOD9508706 Si02
#       5
#     8   8   8  16  16
#     4   8  16  36  62  86 124 170 208 256 310 368
#     4  12  25  40  68 100 132 172 211 268 336 388
#     4   8  16  38  64  84 114 160 208 260 310 364
#     4  10  22  41  64  94 131 169 214 265 319 386
#     4  10  23  42  64  91 127 168 216 267 319 382
#
# _framework density 25.366188000000001
#
# number of rings (size 3 to 8) (size 9 to 14) (size 15 to 20)
#    0.000    2.286    0.000    1.286    0.000    6.857 
#    0.000   17.143    0.000    3.429    0.000    0.000 
#    0.000    0.000    0.000    0.000    0.000    0.000 
#
# Total GULP energy -156763.291085 kJ/mol
# GULP energy per Si atom -5598.688967 kJ/mol
# Density = 2.530845 g / cm^3
# Si number density = 25.366188 Si / 1000 Ang^3
#
#
#
# Elastic Constant Matrix: (Units=GPa)
#
#
# Indices 1 2 3 4 5 6 
#
# 1 265.8155 0.4950 64.0322 0.0000 0.0000 0.0000
# 2 0.4950 164.2650 20.3459 0.0000 0.0000 0.0000
# 3 64.0322 20.3459 50.3562 0.0000 0.0000 0.0000
# 4 0.0000 0.0000 0.0000 63.3086 0.0000 0.0000
# 5 0.0000 0.0000 0.0000 0.0000 347.1991 0.0000
# 6 0.0000 0.0000 0.0000 0.0000 0.0000 33.3940
#
#
#
# Elastic Compliance Matrix: (Units=1/GPa)
#
#
# Indices 1 2 3 4 5 6 
#
# 1 0.005547 0.000902 -0.007418 0.000000 0.000000 0.000000
# 2 0.000902 0.006555 -0.003796 0.000000 0.000000 0.000000
# 3 -0.007418 -0.003796 0.030825 0.000000 0.000000 0.000000
# 4 0.000000 0.000000 0.000000 0.015796 0.000000 0.000000
# 5 0.000000 0.000000 0.000000 0.000000 0.002880 0.000000
# 6 0.000000 0.000000 0.000000 0.000000 0.000000 0.029945
#
#
# Mechanical properties :
#
#
# Convention : Reuss Voigt Hill
#
# Bulk Modulus (GPa) = 44.83534 72.24254 58.53894
# Shear Modulus (GPa) = 41.80338 115.15125 78.47731
#
# Velocity S-wave (km/s) = 4.06396 6.74493 5.56821
# Velocity P-wave (km/s) = 6.30354 9.44460 8.02917
#
# Compressibility (1/GPa) = 0.02230383
#
# Stress axis : x y z
#
# Youngs Moduli (GPa) = 180.26635 152.55210 32.44093
#
# Poissons Ratio (x) = -0.13762 0.24066
# Poissons Ratio (y) = -0.16262 0.12314
# Poissons Ratio (z) = 1.33729 0.57904
#
# Static dielectric constant tensor:
#      x y z
#    x 2.091890 0.000000 0.000000 
#    y 0.000000 1.916480 0.000000 
#    z 0.000000 0.000000 1.965760 
# 
# From -- ./inp_files/40547.got.cif
#   From: 2010.05.17/outbox.cif.g08.bks.cpg/sg68_21_cif.got.tgz:40547.got - 2010.06.03 18:57:09.
