data_PCOD9508795
_publ_section_title
;
Structure prediction by ZEFSAII (Michael W. Deem and Ramdas Pophale) SiO2 
 PCOD9508795
Probable space group: C C C A
;
_chemical_formula_sum "Si O2"
_cell_formula_units_Z 108
_cell_length_a 10.668380
_cell_length_b 29.102973
_cell_length_c 15.105689
_cell_angle_alpha 90.000000
_cell_angle_beta 90.000000
_cell_angle_gamma 90.000000
_cell_volume 4690.038114
_symmetry_space_group_name_H-M "C C C A"
_symmetry_group_IT_number 68
_space_group.IT_coordinate_system_code '2'
_symmetry_cell_setting 'orthorhombic'
loop_
_space_group_symop_operation_xyz
x,y,z
-x,1/2-y,z
x,1/2-y,1/2-z
-x,y,1/2-z
-x,-y,-z
x,1/2+y,-z
-x,1/2+y,1/2+z
x,-y,1/2+z
1/2+x,1/2+y,z
1/2-x,-y,z
1/2+x,-y,1/2-z
1/2-x,1/2+y,1/2-z
1/2-x,1/2-y,-z
1/2+x,y,-z
1/2-x,y,1/2+z
1/2+x,1/2-y,1/2+z
loop_
_atom_site_type_symbol
_atom_site_label
_atom_site_fract_x
_atom_site_fract_y
_atom_site_fract_z
Si Si1 0.786778 0.153688 0.161149
Si Si2 0.628688 0.072260 0.544731
Si Si3 0.750000 0.500000 0.554248
Si Si4 0.871473 0.780633 0.515225
Si Si5 0.965432 0.894606 0.118239
Si Si6 0.000000 0.750000 0.250000
Si Si7 0.163346 0.671228 0.336046
Si Si8 0.008453 0.994009 0.346466
O O1 0.850217 0.107652 0.124171
O O2 0.855014 0.195271 0.110402
O O3 0.643621 0.143938 0.124758
O O4 0.775735 0.163703 0.266191
O O5 0.751065 0.050468 0.495188
O O6 0.526569 0.093461 0.477360
O O7 0.580680 0.025204 0.585579
O O8 0.869960 0.492029 0.614860
O O9 0.750000 0.750000 0.500000
O O10 0.841926 0.820092 0.441474
O O11 0.000000 0.750000 0.506648
O O12 0.081011 0.874196 0.173473
O O13 0.929016 0.943847 0.157818
O O14 0.910163 0.783442 0.304211
O O15 0.000000 0.014916 0.250000
#
# Coordination Sequence:
#
# PCOD9508795 Si02
#       8
#    16  16   8  16  16   4  16  16
#     4  12  24  42  73 105 141 188 243 305 372 441
#     4  11  23  41  65 100 146 191 245 296 375 433
#     4  10  22  42  66  92 136 206 240 292 370 432
#     4  12  27  50  76 106 146 191 242 308 386 452
#     4  11  22  43  68  99 142 195 252 299 361 450
#     4  12  20  40  72 100 134 166 248 296 346 408
#     4  12  23  43  72 109 137 188 244 303 353 453
#     4  11  24  41  65 101 143 189 250 308 361 435
#
# _framework density 23.027529999999999
#
# number of rings (size 3 to 8) (size 9 to 14) (size 15 to 20)
#    0.000    0.593    3.704    6.222    0.000    4.148 
#    2.667    1.481    0.000    0.000    0.000    0.000 
#    0.000    0.000    0.000    0.000    0.000    0.000 
#
# Total GULP energy -301106.259282 kJ/mol
# GULP energy per Si atom -5576.041839 kJ/mol
# Density = 2.297512 g / cm^3
# Si number density = 23.027530 Si / 1000 Ang^3
#
#
#
# Elastic Constant Matrix: (Units=GPa)
#
#
# Indices 1 2 3 4 5 6 
#
# 1 70.6758 17.5112 14.9123 0.0000 0.0000 0.0000
# 2 17.5112 84.8739 6.7607 0.0000 0.0000 0.0000
# 3 14.9123 6.7607 91.8276 0.0000 0.0000 0.0000
# 4 0.0000 0.0000 0.0000 26.1795 0.0000 0.0000
# 5 0.0000 0.0000 0.0000 0.0000 31.2250 0.0000
# 6 0.0000 0.0000 0.0000 0.0000 0.0000 5.5131
#
#
#
# Elastic Compliance Matrix: (Units=1/GPa)
#
#
# Indices 1 2 3 4 5 6 
#
# 1 0.015370 -0.002990 -0.002276 0.000000 0.000000 0.000000
# 2 -0.002990 0.012433 -0.000430 0.000000 0.000000 0.000000
# 3 -0.002276 -0.000430 0.011291 0.000000 0.000000 0.000000
# 4 0.000000 0.000000 0.000000 0.038198 0.000000 0.000000
# 5 0.000000 0.000000 0.000000 0.000000 0.032026 0.000000
# 6 0.000000 0.000000 0.000000 0.000000 0.000000 0.181385
#
#
# Mechanical properties :
#
#
# Convention : Reuss Voigt Hill
#
# Bulk Modulus (GPa) = 36.09666 36.19395 36.14530
# Shear Modulus (GPa) = 16.06022 26.46307 21.26164
#
# Velocity S-wave (km/s) = 2.64377 3.39365 3.04190
# Velocity P-wave (km/s) = 5.00288 5.57742 5.29794
#
# Compressibility (1/GPa) = 0.02770340
#
# Stress axis : x y z
#
# Youngs Moduli (GPa) = 65.06134 80.42917 88.56444
#
# Poissons Ratio (x) = 0.24047 0.20156
# Poissons Ratio (y) = 0.19453 0.03807
# Poissons Ratio (z) = 0.14807 0.03457
#
# Static dielectric constant tensor:
#      x y z
#    x 1.890460 0.000000 0.000000 
#    y 0.000000 2.111530 0.000000 
#    z 0.000000 0.000000 2.007860 
# 
# From -- ./inp_files/21290.got.cif
#   From: 2010.05.17/outbox.cif.g08.bks.cpg/sg68_11_cif.got.tgz:21290.got - 2010.06.03 18:57:09.
