data_PCOD9508708
_publ_section_title
;
Structure prediction by ZEFSAII (Michael W. Deem and Ramdas Pophale) SiO2 
 PCOD9508708
Probable space group: C C C A
;
_chemical_formula_sum "Si O2"
_cell_formula_units_Z 84
_cell_length_a 10.007725
_cell_length_b 19.469197
_cell_length_c 18.364251
_cell_angle_alpha 90.000000
_cell_angle_beta 90.000000
_cell_angle_gamma 90.000000
_cell_volume 3578.134180
_symmetry_space_group_name_H-M "C C C A"
_symmetry_group_IT_number 68
_space_group.IT_coordinate_system_code '2'
_symmetry_cell_setting 'orthorhombic'
loop_
_space_group_symop_operation_xyz
x,y,z
-x,1/2-y,z
x,1/2-y,1/2-z
-x,y,1/2-z
-x,-y,-z
x,1/2+y,-z
-x,1/2+y,1/2+z
x,-y,1/2+z
1/2+x,1/2+y,z
1/2-x,-y,z
1/2+x,-y,1/2-z
1/2-x,1/2+y,1/2-z
1/2-x,1/2-y,-z
1/2+x,y,-z
1/2-x,y,1/2+z
1/2+x,1/2-y,1/2+z
loop_
_atom_site_type_symbol
_atom_site_label
_atom_site_fract_x
_atom_site_fract_y
_atom_site_fract_z
Si Si1 0.441099 0.918522 0.868849
Si Si2 0.804739 0.073467 0.768616
Si Si3 0.250000 0.000000 0.963105
Si Si4 0.000000 0.750000 0.250000
Si Si5 0.500000 0.750000 0.105710
Si Si6 0.612445 0.644404 0.512477
Si Si7 0.259435 0.804441 0.649568
O O1 0.567300 0.939691 0.820349
O O2 0.341659 0.889806 0.807525
O O3 0.490403 0.869382 0.931968
O O4 0.372259 0.979233 0.911785
O O5 0.716251 0.121515 0.818735
O O6 0.750000 0.000000 0.748800
O O7 0.307819 0.071025 0.000219
O O8 0.894074 0.786937 0.304895
O O9 0.369722 0.758893 0.155254
O O10 0.547185 0.814453 0.054433
O O11 0.707830 0.690293 0.563810
#
# Coordination Sequence:
#
# PCOD9508708 Si02
#       7
#    16  16   8   4   8  16  16
#     4  10  22  41  65 103 135 188 239 290 366 434
#     4  10  22  42  70 100 137 186 235 301 362 429
#     4  12  24  40  68 106 146 188 238 310 366 440
#     4  12  26  54  76 100 142 206 240 304 372 462
#     4  12  27  47  72 115 149 200 250 320 360 462
#     4  11  25  43  71 102 153 192 248 296 380 450
#     4  11  26  46  77 101 148 193 252 298 376 443
#
# _framework density 23.475923000000002
#
# number of rings (size 3 to 8) (size 9 to 14) (size 15 to 20)
#    0.000    1.143    0.952    5.143    8.000    4.952 
#    0.000    0.000    0.000    0.000    0.000    0.000 
#    0.000    0.000    0.000    0.000    0.000    0.000 
#
# Total GULP energy -234090.416423 kJ/mol
# GULP energy per Si atom -5573.581343 kJ/mol
# Density = 2.342249 g / cm^3
# Si number density = 23.475923 Si / 1000 Ang^3
#
#
#
# Elastic Constant Matrix: (Units=GPa)
#
#
# Indices 1 2 3 4 5 6 
#
# 1 84.5838 44.1839 36.4798 0.0000 0.0000 0.0000
# 2 44.1839 76.9510 42.7111 0.0000 0.0000 0.0000
# 3 36.4798 42.7111 101.8182 0.0000 0.0000 0.0000
# 4 0.0000 0.0000 0.0000 23.0565 0.0000 0.0000
# 5 0.0000 0.0000 0.0000 0.0000 2.5853 0.0000
# 6 0.0000 0.0000 0.0000 0.0000 0.0000 35.9185
#
#
#
# Elastic Compliance Matrix: (Units=1/GPa)
#
#
# Indices 1 2 3 4 5 6 
#
# 1 0.017426 -0.008525 -0.002667 0.000000 0.000000 0.000000
# 2 -0.008525 0.021110 -0.005801 0.000000 0.000000 0.000000
# 3 -0.002667 -0.005801 0.013210 0.000000 0.000000 0.000000
# 4 0.000000 0.000000 0.000000 0.043372 0.000000 0.000000
# 5 0.000000 0.000000 0.000000 0.000000 0.386800 0.000000
# 6 0.000000 0.000000 0.000000 0.000000 0.000000 0.027841
#
#
# Mechanical properties :
#
#
# Convention : Reuss Voigt Hill
#
# Bulk Modulus (GPa) = 56.30695 56.67805 56.49250
# Shear Modulus (GPa) = 9.09642 21.64394 15.37018
#
# Velocity S-wave (km/s) = 1.97058 3.03968 2.56153
# Velocity P-wave (km/s) = 5.40506 6.04276 5.73278
#
# Compressibility (1/GPa) = 0.01775980
#
# Stress axis : x y z
#
# Youngs Moduli (GPa) = 57.38421 47.37048 75.69766
#
# Poissons Ratio (x) = 0.40386 0.20191
# Poissons Ratio (y) = 0.48923 0.43911
# Poissons Ratio (z) = 0.15306 0.27479
#
# Static dielectric constant tensor:
#      x y z
#    x 1.944220 0.000000 0.000000 
#    y 0.000000 2.053550 0.000000 
#    z 0.000000 0.000000 1.914020 
# 
# From -- ./inp_files/29615.got.cif
#   From: 2010.05.17/outbox.cif.g08.bks.cpg/sg68_15_cif.got.tgz:29615.got - 2010.06.03 18:57:09.
