data_PCOD9508661
_publ_section_title
;
Structure prediction by ZEFSAII (Michael W. Deem and Ramdas Pophale) SiO2 
 PCOD9508661
Probable space group: C C C A
;
_chemical_formula_sum "Si O2"
_cell_formula_units_Z 116
_cell_length_a 16.148551
_cell_length_b 23.054329
_cell_length_c 14.439010
_cell_angle_alpha 90.000000
_cell_angle_beta 90.000000
_cell_angle_gamma 90.000000
_cell_volume 5375.556899
_symmetry_space_group_name_H-M "C C C A"
_symmetry_group_IT_number 68
_space_group.IT_coordinate_system_code '2'
_symmetry_cell_setting 'orthorhombic'
loop_
_space_group_symop_operation_xyz
x,y,z
-x,1/2-y,z
x,1/2-y,1/2-z
-x,y,1/2-z
-x,-y,-z
x,1/2+y,-z
-x,1/2+y,1/2+z
x,-y,1/2+z
1/2+x,1/2+y,z
1/2-x,-y,z
1/2+x,-y,1/2-z
1/2-x,1/2+y,1/2-z
1/2-x,1/2-y,-z
1/2+x,y,-z
1/2-x,y,1/2+z
1/2+x,1/2-y,1/2+z
loop_
_atom_site_type_symbol
_atom_site_label
_atom_site_fract_x
_atom_site_fract_y
_atom_site_fract_z
Si Si1 0.104546 0.661225 0.549001
Si Si2 0.328038 0.723080 0.445714
Si Si3 0.123787 0.060176 0.907189
Si Si4 0.249058 0.932408 0.254703
Si Si5 0.000000 0.250000 0.750000
Si Si6 0.536762 0.827726 0.585898
Si Si7 0.755628 0.394348 0.058859
Si Si8 0.572132 0.436706 0.823694
O O1 0.131563 0.720321 0.601137
O O2 0.183938 0.625636 0.511691
O O3 0.050579 0.616522 0.608546
O O4 0.052372 0.682475 0.460344
O O5 0.250000 0.750000 0.500000
O O6 0.393783 0.695676 0.516530
O O7 0.293898 0.665212 0.398189
O O8 0.182621 0.089556 0.828351
O O9 0.046490 0.103244 0.908197
O O10 0.095472 0.995355 0.880547
O O11 0.177353 0.067699 0.001515
O O12 0.222228 0.926165 0.149014
O O13 0.343713 0.914932 0.273034
O O14 0.250000 0.000000 0.277541
O O15 0.047182 0.293412 0.681199
O O16 0.500000 0.448579 0.750000
#
# Coordination Sequence:
#
# PCOD9508661 Si02
#       8
#    16  16  16  16   4  16  16  16
#     4  11  22  42  66  93 134 173 214 275 339 396
#     4   9  20  41  63  91 123 169 220 265 321 406
#     4  10  24  45  65  97 132 175 226 278 329 409
#     4  10  23  41  65  95 130 168 224 269 330 404
#     4  12  24  40  64  96 134 164 214 280 350 384
#     4  11  24  39  66  96 130 169 219 278 339 394
#     4  10  22  40  71  92 126 176 225 269 337 397
#     4  11  26  43  65  95 139 171 222 283 332 400
#
# _framework density 21.579159000000001
#
# number of rings (size 3 to 8) (size 9 to 14) (size 15 to 20)
#    0.000    1.655    2.759    0.000    8.690    1.655 
#    0.000    0.690    0.000    0.000    0.000    0.000 
#    0.000    0.000    0.000    0.000    0.000    0.000 
#
# Total GULP energy -323310.720838 kJ/mol
# GULP energy per Si atom -5574.322773 kJ/mol
# Density = 2.153004 g / cm^3
# Si number density = 21.579159 Si / 1000 Ang^3
#
#
#
# Elastic Constant Matrix: (Units=GPa)
#
#
# Indices 1 2 3 4 5 6 
#
# 1 41.1828 15.4193 -1.7430 0.0000 0.0000 0.0000
# 2 15.4193 87.0459 7.0112 0.0000 0.0000 0.0000
# 3 -1.7430 7.0112 45.9480 0.0000 0.0000 0.0000
# 4 0.0000 0.0000 0.0000 26.2993 0.0000 0.0000
# 5 0.0000 0.0000 0.0000 0.0000 16.1480 0.0000
# 6 0.0000 0.0000 0.0000 0.0000 0.0000 30.4412
#
#
#
# Elastic Compliance Matrix: (Units=1/GPa)
#
#
# Indices 1 2 3 4 5 6 
#
# 1 0.026140 -0.004769 0.001719 0.000000 0.000000 0.000000
# 2 -0.004769 0.012501 -0.002088 0.000000 0.000000 0.000000
# 3 0.001719 -0.002088 0.022148 0.000000 0.000000 0.000000
# 4 0.000000 0.000000 0.000000 0.038024 0.000000 0.000000
# 5 0.000000 0.000000 0.000000 0.000000 0.061927 0.000000
# 6 0.000000 0.000000 0.000000 0.000000 0.000000 0.032850
#
#
# Mechanical properties :
#
#
# Convention : Reuss Voigt Hill
#
# Bulk Modulus (GPa) = 19.79693 23.95017 21.87355
# Shear Modulus (GPa) = 22.65475 24.81031 23.73253
#
# Velocity S-wave (km/s) = 3.24364 3.39445 3.31991
# Velocity P-wave (km/s) = 4.81895 5.14645 4.98539
#
# Compressibility (1/GPa) = 0.05051288
#
# Stress axis : x y z
#
# Youngs Moduli (GPa) = 38.25507 79.99241 45.15160
#
# Poissons Ratio (x) = 0.38148 -0.07763
# Poissons Ratio (y) = 0.18244 0.09430
# Poissons Ratio (z) = -0.06577 0.16706
#
# Static dielectric constant tensor:
#      x y z
#    x 1.840150 0.000000 0.000000 
#    y 0.000000 1.816680 0.000000 
#    z 0.000000 0.000000 1.751910 
# 
# From -- ./inp_files/23934.got.cif
#   From: 2010.05.17/outbox.cif.g08.bks.cpg/sg68_12_cif.got.tgz:23934.got - 2010.06.03 18:57:09.
