data_PCOD9508056
_publ_section_title
;
Structure prediction by ZEFSAII (Michael W. Deem and Ramdas Pophale) SiO2 
 PCOD9508056
Probable space group: C C C A
;
_chemical_formula_sum "Si O2"
_cell_formula_units_Z 112
_cell_length_a 24.717333
_cell_length_b 15.365842
_cell_length_c 14.676911
_cell_angle_alpha 90.000000
_cell_angle_beta 90.000000
_cell_angle_gamma 90.000000
_cell_volume 5574.329450
_symmetry_space_group_name_H-M "C C C A"
_symmetry_group_IT_number 68
_space_group.IT_coordinate_system_code '2'
_symmetry_cell_setting 'orthorhombic'
loop_
_space_group_symop_operation_xyz
x,y,z
-x,1/2-y,z
x,1/2-y,1/2-z
-x,y,1/2-z
-x,-y,-z
x,1/2+y,-z
-x,1/2+y,1/2+z
x,-y,1/2+z
1/2+x,1/2+y,z
1/2-x,-y,z
1/2+x,-y,1/2-z
1/2-x,1/2+y,1/2-z
1/2-x,1/2-y,-z
1/2+x,y,-z
1/2-x,y,1/2+z
1/2+x,1/2-y,1/2+z
loop_
_atom_site_type_symbol
_atom_site_label
_atom_site_fract_x
_atom_site_fract_y
_atom_site_fract_z
Si Si1 0.503785 0.852211 0.353675
Si Si2 0.111749 0.948923 0.628808
Si Si3 0.939817 0.029272 0.026526
Si Si4 0.789329 0.348682 0.398877
Si Si5 0.862683 0.996487 0.170382
Si Si6 0.708890 0.655180 0.740818
Si Si7 0.781558 0.148866 0.430877
O O1 0.500000 0.750000 0.350893
O O2 0.500000 0.886404 0.250000
O O3 0.562499 0.882252 0.389404
O O4 0.454044 0.886029 0.414552
O O5 0.113208 0.966053 0.736001
O O6 0.169505 0.912333 0.598617
O O7 0.095218 0.031012 0.565573
O O8 0.908271 0.967433 0.098233
O O9 0.000000 0.000000 0.000000
O O10 0.831584 0.426576 0.384739
O O11 0.763461 0.338225 0.299662
O O12 0.803203 0.249320 0.428557
O O13 0.742526 0.373647 0.470678
O O14 0.824721 0.920601 0.210556
O O15 0.681519 0.750000 0.750000
O O16 0.730735 0.639832 0.638914
#
# Coordination Sequence:
#
# PCOD9508056 Si02
#       7
#    16  16  16  16  16  16  16
#     4  10  21  40  66  95 129 163 213 284 343 386
#     4  11  23  38  66  94 127 170 213 265 331 392
#     4  10  24  43  60  93 127 163 218 277 329 396
#     4  10  22  38  61  90 135 168 214 268 317 385
#     4  12  23  39  66  93 124 179 218 265 334 388
#     4  10  22  41  58  90 136 172 217 266 312 389
#     4  10  22  40  60  94 132 173 210 263 324 393
#
# _framework density 20.092103000000002
#
# number of rings (size 3 to 8) (size 9 to 14) (size 15 to 20)
#    0.000    1.571    2.857    1.286    4.000    0.000 
#    0.000    2.857    0.000    0.000    0.000    6.000 
#    0.000    0.000    0.000    0.000    0.000    0.000 
#
# Total GULP energy -312111.590893 kJ/mol
# GULP energy per Si atom -5573.421266 kJ/mol
# Density = 2.004637 g / cm^3
# Si number density = 20.092103 Si / 1000 Ang^3
#
#
#
# Elastic Constant Matrix: (Units=GPa)
#
#
# Indices 1 2 3 4 5 6 
#
# 1 84.3928 47.9581 30.4547 0.0000 0.0000 0.0000
# 2 47.9581 75.9501 25.7737 0.0000 0.0000 0.0000
# 3 30.4547 25.7737 96.3061 0.0000 0.0000 0.0000
# 4 0.0000 0.0000 0.0000 24.2595 0.0000 0.0000
# 5 0.0000 0.0000 0.0000 0.0000 36.0422 0.0000
# 6 0.0000 0.0000 0.0000 0.0000 0.0000 19.8474
#
#
#
# Elastic Compliance Matrix: (Units=1/GPa)
#
#
# Indices 1 2 3 4 5 6 
#
# 1 0.019300 -0.011126 -0.003126 0.000000 0.000000 0.000000
# 2 -0.011126 0.020896 -0.002074 0.000000 0.000000 0.000000
# 3 -0.003126 -0.002074 0.011927 0.000000 0.000000 0.000000
# 4 0.000000 0.000000 0.000000 0.041221 0.000000 0.000000
# 5 0.000000 0.000000 0.000000 0.000000 0.027745 0.000000
# 6 0.000000 0.000000 0.000000 0.000000 0.000000 0.050385
#
#
# Mechanical properties :
#
#
# Convention : Reuss Voigt Hill
#
# Bulk Modulus (GPa) = 51.35664 51.66910 51.51287
# Shear Modulus (GPa) = 23.73999 26.19399 24.96699
#
# Velocity S-wave (km/s) = 3.44111 3.61459 3.52892
# Velocity P-wave (km/s) = 6.43463 6.57208 6.50372
#
# Compressibility (1/GPa) = 0.01947168
#
# Stress axis : x y z
#
# Youngs Moduli (GPa) = 51.81356 47.85647 83.84379
#
# Poissons Ratio (x) = 0.53246 0.26206
# Poissons Ratio (y) = 0.57649 0.17387
# Poissons Ratio (z) = 0.16195 0.09924
#
# Static dielectric constant tensor:
#      x y z
#    x 1.745930 0.000000 0.000000 
#    y 0.000000 1.775820 0.000000 
#    z 0.000000 0.000000 1.731370 
# 
# From -- ./inp_files/25445.got.cif
#   From: 2010.05.17/outbox.cif.g08.bks.cpg/sg68_13_cif.got.tgz:25445.got - 2010.06.03 18:57:09.
