data_PCOD9508201
_publ_section_title
;
Structure prediction by ZEFSAII (Michael W. Deem and Ramdas Pophale) SiO2 
 PCOD9508201
Probable space group: C C C A
;
_chemical_formula_sum "Si O2"
_cell_formula_units_Z 40
_cell_length_a 9.627045
_cell_length_b 10.326143
_cell_length_c 16.931499
_cell_angle_alpha 90.000000
_cell_angle_beta 90.000000
_cell_angle_gamma 90.000000
_cell_volume 1683.164436
_symmetry_space_group_name_H-M "C C C A"
_symmetry_group_IT_number 68
_space_group.IT_coordinate_system_code '2'
_symmetry_cell_setting 'orthorhombic'
loop_
_space_group_symop_operation_xyz
x,y,z
-x,1/2-y,z
x,1/2-y,1/2-z
-x,y,1/2-z
-x,-y,-z
x,1/2+y,-z
-x,1/2+y,1/2+z
x,-y,1/2+z
1/2+x,1/2+y,z
1/2-x,-y,z
1/2+x,-y,1/2-z
1/2-x,1/2+y,1/2-z
1/2-x,1/2-y,-z
1/2+x,y,-z
1/2-x,y,1/2+z
1/2+x,1/2-y,1/2+z
loop_
_atom_site_type_symbol
_atom_site_label
_atom_site_fract_x
_atom_site_fract_y
_atom_site_fract_z
Si Si1 0.843098 0.623510 0.016931
Si Si2 0.000000 0.250000 0.390982
Si Si3 0.779300 0.145192 0.810952
O O1 0.750000 0.500000 0.001738
O O2 0.872791 0.628633 0.110319
O O3 0.750000 0.750000 0.000000
O O4 0.962555 0.634559 0.952064
O O5 0.131496 0.294552 0.340241
O O6 0.835688 0.250000 0.750000
O O7 0.750000 0.000000 0.779029
#
# Coordination Sequence:
#
# PCOD9508201 Si02
#       3
#    16   8  16
#     4   9  20  37  61  90 117 151 201 249 292 350
#     4  10  21  42  67  86 118 162 200 250 305 348
#     4  10  22  40  62  90 124 160 198 246 302 358
#
# _framework density 23.764761
#
# number of rings (size 3 to 8) (size 9 to 14) (size 15 to 20)
#    0.000    2.400    0.000    0.600    0.000   20.800 
#    0.000    9.000    0.000    0.000    0.000    0.000 
#    0.000    0.000    0.000    0.000    0.000    0.000 
#
# Total GULP energy -111814.207418 kJ/mol
# GULP energy per Si atom -5590.710371 kJ/mol
# Density = 2.371067 g / cm^3
# Si number density = 23.764761 Si / 1000 Ang^3
#
#
#
# Elastic Constant Matrix: (Units=GPa)
#
#
# Indices 1 2 3 4 5 6 
#
# 1 83.5388 14.1099 29.5628 0.0000 0.0000 0.0000
# 2 14.1099 175.6149 64.1265 0.0000 0.0000 0.0000
# 3 29.5628 64.1265 101.3385 0.0000 0.0000 0.0000
# 4 0.0000 0.0000 0.0000 43.8912 0.0000 0.0000
# 5 0.0000 0.0000 0.0000 0.0000 32.6749 0.0000
# 6 0.0000 0.0000 0.0000 0.0000 0.0000 33.3080
#
#
#
# Elastic Compliance Matrix: (Units=1/GPa)
#
#
# Indices 1 2 3 4 5 6 
#
# 1 0.013376 0.000455 -0.004190 0.000000 0.000000 0.000000
# 2 0.000455 0.007421 -0.004829 0.000000 0.000000 0.000000
# 3 -0.004190 -0.004829 0.014146 0.000000 0.000000 0.000000
# 4 0.000000 0.000000 0.000000 0.022784 0.000000 0.000000
# 5 0.000000 0.000000 0.000000 0.000000 0.030605 0.000000
# 6 0.000000 0.000000 0.000000 0.000000 0.000000 0.030023
#
#
# Mechanical properties :
#
#
# Convention : Reuss Voigt Hill
#
# Bulk Modulus (GPa) = 56.12990 64.01008 60.06999
# Shear Modulus (GPa) = 35.35554 38.82103 37.08829
#
# Velocity S-wave (km/s) = 3.86129 4.04611 3.95478
# Velocity P-wave (km/s) = 6.59922 6.98723 6.79599
#
# Compressibility (1/GPa) = 0.01781582
#
# Stress axis : x y z
#
# Youngs Moduli (GPa) = 74.75811 134.75380 70.69134
#
# Poissons Ratio (x) = -0.06137 0.29623
# Poissons Ratio (y) = -0.03405 0.34135
# Poissons Ratio (z) = 0.31327 0.65070
#
# Static dielectric constant tensor:
#      x y z
#    x 2.016900 0.000000 0.000000 
#    y 0.000000 1.905070 0.000000 
#    z 0.000000 0.000000 1.943580 
# 
# From -- ./inp_files/19784.got.cif
#   From: 2010.05.17/outbox.cif.g08.bks.cpg/sg68_10_cif.got.tgz:19784.got - 2010.06.03 18:57:09.
