data_PCOD9508840
_publ_section_title
;
Structure prediction by ZEFSAII (Michael W. Deem and Ramdas Pophale) SiO2 
 PCOD9508840
Probable space group: C C C A
;
_chemical_formula_sum "Si O2"
_cell_formula_units_Z 52
_cell_length_a 22.225073
_cell_length_b 9.849496
_cell_length_c 9.695552
_cell_angle_alpha 90.000000
_cell_angle_beta 90.000000
_cell_angle_gamma 90.000000
_cell_volume 2122.412253
_symmetry_space_group_name_H-M "C C C A"
_symmetry_group_IT_number 68
_space_group.IT_coordinate_system_code '2'
_symmetry_cell_setting 'orthorhombic'
loop_
_space_group_symop_operation_xyz
x,y,z
-x,1/2-y,z
x,1/2-y,1/2-z
-x,y,1/2-z
-x,-y,-z
x,1/2+y,-z
-x,1/2+y,1/2+z
x,-y,1/2+z
1/2+x,1/2+y,z
1/2-x,-y,z
1/2+x,-y,1/2-z
1/2-x,1/2+y,1/2-z
1/2-x,1/2-y,-z
1/2+x,y,-z
1/2-x,y,1/2+z
1/2+x,1/2-y,1/2+z
loop_
_atom_site_type_symbol
_atom_site_label
_atom_site_fract_x
_atom_site_fract_y
_atom_site_fract_z
Si Si1 0.500000 0.250000 0.250000
Si Si2 0.082246 0.913852 0.039913
Si Si3 0.700403 0.889703 0.822796
Si Si4 0.889050 0.100841 0.245830
O O1 0.541785 0.335482 0.148173
O O2 0.151228 0.859452 0.058034
O O3 0.085247 0.064965 0.103680
O O4 0.065208 0.906550 0.881348
O O5 0.719685 0.750000 0.750000
O O6 0.750000 0.000000 0.868443
O O7 0.658919 0.980761 0.720151
O O8 0.862719 0.250000 0.250000
#
# Coordination Sequence:
#
# PCOD9508840 Si02
#       4
#     4  16  16  16
#     4  12  24  48  76  96 156 188 240 294 352 428
#     4  10  25  44  72 103 144 190 239 292 358 421
#     4  10  22  42  71 105 146 188 238 298 357 424
#     4  10  24  45  72 106 146 181 247 290 361 427
#
# _framework density 24.500425
#
# number of rings (size 3 to 8) (size 9 to 14) (size 15 to 20)
#    1.846    0.000    1.538    0.923    8.615    2.462 
#    0.000    4.615    0.000    0.000    0.000    0.000 
#    0.000    0.000    0.000    0.000    0.000    0.000 
#
# Total GULP energy -144942.777514 kJ/mol
# GULP energy per Si atom -5574.722212 kJ/mol
# Density = 2.444466 g / cm^3
# Si number density = 24.500425 Si / 1000 Ang^3
#
#
#
# Elastic Constant Matrix: (Units=GPa)
#
#
# Indices 1 2 3 4 5 6 
#
# 1 82.9653 17.9013 -1.8481 0.0000 0.0000 0.0000
# 2 17.9013 148.1745 15.4075 0.0000 0.0000 0.0000
# 3 -1.8481 15.4075 108.6240 0.0000 0.0000 0.0000
# 4 0.0000 0.0000 0.0000 13.6094 0.0000 0.0000
# 5 0.0000 0.0000 0.0000 0.0000 6.9732 0.0000
# 6 0.0000 0.0000 0.0000 0.0000 0.0000 16.7843
#
#
#
# Elastic Compliance Matrix: (Units=1/GPa)
#
#
# Indices 1 2 3 4 5 6 
#
# 1 0.012396 -0.001542 0.000430 0.000000 0.000000 0.000000
# 2 -0.001542 0.007042 -0.001025 0.000000 0.000000 0.000000
# 3 0.000430 -0.001025 0.009359 0.000000 0.000000 0.000000
# 4 0.000000 0.000000 0.000000 0.073479 0.000000 0.000000
# 5 0.000000 0.000000 0.000000 0.000000 0.143405 0.000000
# 6 0.000000 0.000000 0.000000 0.000000 0.000000 0.059580
#
#
# Mechanical properties :
#
#
# Convention : Reuss Voigt Hill
#
# Bulk Modulus (GPa) = 40.78170 44.74280 42.76225
# Shear Modulus (GPa) = 15.73769 28.02691 21.88230
#
# Velocity S-wave (km/s) = 2.53720 3.38588 2.99179
# Velocity P-wave (km/s) = 5.02639 5.79545 5.42457
#
# Compressibility (1/GPa) = 0.02452080
#
# Stress axis : x y z
#
# Youngs Moduli (GPa) = 80.67401 142.01104 106.85157
#
# Poissons Ratio (x) = 0.21901 -0.04591
# Poissons Ratio (y) = 0.12442 0.10953
# Poissons Ratio (z) = -0.03466 0.14557
#
# Static dielectric constant tensor:
#      x y z
#    x 2.065470 0.000000 0.000000 
#    y 0.000000 1.952690 0.000000 
#    z 0.000000 0.000000 1.983110 
# 
# From -- ./inp_files/8487.got.cif
#   From: 2010.05.17/outbox.cif.g08.bks.cpg/sg68_5_cif.got.tgz:8487.got - 2010.06.03 18:57:09.
