data_PCOD9508696
_publ_section_title
;
Structure prediction by ZEFSAII (Michael W. Deem and Ramdas Pophale) SiO2 
 PCOD9508696
Probable space group: C C C A
;
_chemical_formula_sum "Si O2"
_cell_formula_units_Z 64
_cell_length_a 25.429918
_cell_length_b 5.028437
_cell_length_c 22.194254
_cell_angle_alpha 90.000000
_cell_angle_beta 90.000000
_cell_angle_gamma 90.000000
_cell_volume 2838.040084
_symmetry_space_group_name_H-M "C C C A"
_symmetry_group_IT_number 68
_space_group.IT_coordinate_system_code '2'
_symmetry_cell_setting 'orthorhombic'
loop_
_space_group_symop_operation_xyz
x,y,z
-x,1/2-y,z
x,1/2-y,1/2-z
-x,y,1/2-z
-x,-y,-z
x,1/2+y,-z
-x,1/2+y,1/2+z
x,-y,1/2+z
1/2+x,1/2+y,z
1/2-x,-y,z
1/2+x,-y,1/2-z
1/2-x,1/2+y,1/2-z
1/2-x,1/2-y,-z
1/2+x,y,-z
1/2-x,y,1/2+z
1/2+x,1/2-y,1/2+z
loop_
_atom_site_type_symbol
_atom_site_label
_atom_site_fract_x
_atom_site_fract_y
_atom_site_fract_z
Si Si1 0.142945 0.951248 0.149833
Si Si2 0.750000 0.500000 0.709882
Si Si3 0.103003 0.741162 0.955824
Si Si4 0.548018 0.053176 0.135741
Si Si5 0.924613 0.250000 0.250000
O O1 0.145982 0.159514 0.094530
O O2 0.112280 0.077162 0.206450
O O3 0.201280 0.888456 0.171302
O O4 0.103530 0.713549 0.131175
O O5 0.731408 0.250000 0.750000
O O6 0.054698 0.811708 0.911157
O O7 0.103588 0.492717 0.000475
O O8 0.500000 0.250000 0.123236
O O9 0.544701 0.937492 0.203159
#
# Coordination Sequence:
#
# PCOD9508696 Si02
#       5
#    16   8  16  16   8
#     4  11  24  45  71 105 143 183 240 293 363 427
#     4  12  26  44  76 108 142 186 234 298 362 436
#     4  11  24  47  74 103 144 190 246 301 350 420
#     4  11  25  43  71 105 145 193 235 293 363 431
#     4  10  22  41  64 102 144 180 227 292 356 434
#
# _framework density 22.550775000000002
#
# number of rings (size 3 to 8) (size 9 to 14) (size 15 to 20)
#    0.000    1.000    3.750    2.250    3.500    8.000 
#    0.000    1.250    0.000    0.000    0.000    0.000 
#    0.000    0.000    0.000    0.000    0.000    0.000 
#
# Total GULP energy -178744.540656 kJ/mol
# GULP energy per Si atom -5585.766895 kJ/mol
# Density = 2.249945 g / cm^3
# Si number density = 22.550775 Si / 1000 Ang^3
#
#
#
# Elastic Constant Matrix: (Units=GPa)
#
#
# Indices 1 2 3 4 5 6 
#
# 1 110.3669 22.2359 8.2575 0.0000 0.0000 0.0000
# 2 22.2359 121.8857 37.3969 0.0000 0.0000 0.0000
# 3 8.2575 37.3969 142.7986 0.0000 0.0000 0.0000
# 4 0.0000 0.0000 0.0000 72.3158 0.0000 0.0000
# 5 0.0000 0.0000 0.0000 0.0000 -1.4141 0.0000
# 6 0.0000 0.0000 0.0000 0.0000 0.0000 26.8490
#
#
#
# Elastic Compliance Matrix: (Units=1/GPa)
#
#
# Indices 1 2 3 4 5 6 
#
# 1 0.009408 -0.001685 -0.000103 0.000000 0.000000 0.000000
# 2 -0.001685 0.009223 -0.002318 0.000000 0.000000 0.000000
# 3 -0.000103 -0.002318 0.007616 0.000000 0.000000 0.000000
# 4 0.000000 0.000000 0.000000 0.013828 0.000000 0.000000
# 5 0.000000 0.000000 0.000000 0.000000 -0.707149 0.000000
# 6 0.000000 0.000000 0.000000 0.000000 0.000000 0.037245
#
#
# Mechanical properties :
#
#
# Convention : Reuss Voigt Hill
#
# Bulk Modulus (GPa) = 55.44581 56.75909 56.10245
# Shear Modulus (GPa) = -8.12208 40.02752 15.95272
#
# Velocity S-wave (km/s) = -1.89987 4.21764 2.66261
# Velocity P-wave (km/s) = 4.45284 6.99586 5.86387
#
# Compressibility (1/GPa) = 0.01803563
#
# Stress axis : x y z
#
# Youngs Moduli (GPa) = 106.29470 108.42519 131.30510
#
# Poissons Ratio (x) = 0.18267 0.01350
# Poissons Ratio (y) = 0.17908 0.30436
# Poissons Ratio (z) = 0.01093 0.25132
#
# Static dielectric constant tensor:
#      x y z
#    x 1.828240 0.000000 0.000000 
#    y 0.000000 1.931340 0.000000 
#    z 0.000000 0.000000 1.857690 
# 
# From -- ./inp_files/47115.got.cif
#   From: 2010.05.17/outbox.cif.g08.bks.cpg/sg68_24_cif.got.tgz:47115.got - 2010.06.03 18:57:09.
