data_PCOD9508483
_publ_section_title
;
Structure prediction by ZEFSAII (Michael W. Deem and Ramdas Pophale) SiO2 
 PCOD9508483
Probable space group: C C C A
;
_chemical_formula_sum "Si O2"
_cell_formula_units_Z 64
_cell_length_a 5.072324
_cell_length_b 14.136442
_cell_length_c 37.468539
_cell_angle_alpha 90.000000
_cell_angle_beta 90.000000
_cell_angle_gamma 90.000000
_cell_volume 2686.667127
_symmetry_space_group_name_H-M "C C C A"
_symmetry_group_IT_number 68
_space_group.IT_coordinate_system_code '2'
_symmetry_cell_setting 'orthorhombic'
loop_
_space_group_symop_operation_xyz
x,y,z
-x,1/2-y,z
x,1/2-y,1/2-z
-x,y,1/2-z
-x,-y,-z
x,1/2+y,-z
-x,1/2+y,1/2+z
x,-y,1/2+z
1/2+x,1/2+y,z
1/2-x,-y,z
1/2+x,-y,1/2-z
1/2-x,1/2+y,1/2-z
1/2-x,1/2-y,-z
1/2+x,y,-z
1/2-x,y,1/2+z
1/2+x,1/2-y,1/2+z
loop_
_atom_site_type_symbol
_atom_site_label
_atom_site_fract_x
_atom_site_fract_y
_atom_site_fract_z
Si Si1 0.237576 0.886616 0.021206
Si Si2 0.008825 0.634757 0.665623
Si Si3 0.247237 0.313904 0.901702
Si Si4 0.017437 0.134500 0.709288
O O1 0.158695 0.857372 0.060975
O O2 0.250000 0.000000 0.021172
O O3 0.522758 0.855075 0.007647
O O4 0.873472 0.613814 0.627339
O O5 0.801012 0.605952 0.695179
O O6 0.000000 0.750000 0.664750
O O7 0.294744 0.606193 0.680218
O O8 0.500000 0.250000 0.910694
O O9 0.000000 0.250000 0.887518
O O10 0.000000 0.250000 0.710399
O O11 0.000000 0.101393 0.750000
#
# Coordination Sequence:
#
# PCOD9508483 Si02
#       4
#    16  16  16  16
#     4  10  22  39  56  75 102 136 174 218 264 311
#     4   9  16  26  38  60  93 125 157 198 245 289
#     4  11  21  33  52  77 105 137 171 214 265 314
#     4   9  15  23  37  57  87 129 164 191 233 293
#
# _framework density 23.821338000000001
#
# number of rings (size 3 to 8) (size 9 to 14) (size 15 to 20)
#    0.000    2.250    0.000    6.000    0.000    6.000 
#    0.000    0.000    0.000    0.000    0.000    0.000 
#    0.000    4.000    0.000   19.500    0.000    2.750 
#
# Total GULP energy -178647.390614 kJ/mol
# GULP energy per Si atom -5582.730957 kJ/mol
# Density = 2.376712 g / cm^3
# Si number density = 23.821338 Si / 1000 Ang^3
#
#
#
# Elastic Constant Matrix: (Units=GPa)
#
#
# Indices 1 2 3 4 5 6 
#
# 1 119.9655 -15.4120 10.4763 0.0000 0.0000 0.0000
# 2 -15.4120 67.2504 -7.4280 0.0000 0.0000 0.0000
# 3 10.4763 -7.4280 151.8235 0.0000 0.0000 0.0000
# 4 0.0000 0.0000 0.0000 -20.6968 0.0000 0.0000
# 5 0.0000 0.0000 0.0000 0.0000 41.9898 0.0000
# 6 0.0000 0.0000 0.0000 0.0000 0.0000 -4.0303
#
#
#
# Elastic Compliance Matrix: (Units=1/GPa)
#
#
# Indices 1 2 3 4 5 6 
#
# 1 0.008626 0.001922 -0.000501 0.000000 0.000000 0.000000
# 2 0.001922 0.015379 0.000620 0.000000 0.000000 0.000000
# 3 -0.000501 0.000620 0.006652 0.000000 0.000000 0.000000
# 4 0.000000 0.000000 0.000000 -0.048317 0.000000 0.000000
# 5 0.000000 0.000000 0.000000 0.000000 0.023815 0.000000
# 6 0.000000 0.000000 0.000000 0.000000 0.000000 -0.248121
#
#
# Mechanical properties :
#
#
# Convention : Reuss Voigt Hill
#
# Bulk Modulus (GPa) = 28.78789 34.92353 31.85571
# Shear Modulus (GPa) = -21.32490 26.87942 2.77726
#
# Velocity S-wave (km/s) = -2.99524 3.36277 1.08093
# Velocity P-wave (km/s) = 0.38629 5.45620 3.86777
#
# Compressibility (1/GPa) = 0.03473683
#
# Stress axis : x y z
#
# Youngs Moduli (GPa) = 115.92365 65.02525 150.34183
#
# Poissons Ratio (x) = -0.12495 0.07536
# Poissons Ratio (y) = -0.22276 -0.09318
# Poissons Ratio (z) = 0.05810 -0.04030
#
# Static dielectric constant tensor:
#      x y z
#    x 1.975080 0.000000 0.000000 
#    y 0.000000 1.987520 0.000000 
#    z 0.000000 0.000000 1.913770 
# 
# From -- ./inp_files/53006.got.cif
#   From: 2010.05.17/outbox.cif.g08.bks.cpg/sg68_27_cif.got.tgz:53006.got - 2010.06.03 18:57:09.
