data_PCOD9508590
_publ_section_title
;
Structure prediction by ZEFSAII (Michael W. Deem and Ramdas Pophale) SiO2 
 PCOD9508590
Probable space group: C C C A
;
_chemical_formula_sum "Si O2"
_cell_formula_units_Z 104
_cell_length_a 23.411361
_cell_length_b 25.699275
_cell_length_c 9.219315
_cell_angle_alpha 90.000000
_cell_angle_beta 90.000000
_cell_angle_gamma 90.000000
_cell_volume 5546.847007
_symmetry_space_group_name_H-M "C C C A"
_symmetry_group_IT_number 68
_space_group.IT_coordinate_system_code '2'
_symmetry_cell_setting 'orthorhombic'
loop_
_space_group_symop_operation_xyz
x,y,z
-x,1/2-y,z
x,1/2-y,1/2-z
-x,y,1/2-z
-x,-y,-z
x,1/2+y,-z
-x,1/2+y,1/2+z
x,-y,1/2+z
1/2+x,1/2+y,z
1/2-x,-y,z
1/2+x,-y,1/2-z
1/2-x,1/2+y,1/2-z
1/2-x,1/2-y,-z
1/2+x,y,-z
1/2-x,y,1/2+z
1/2+x,1/2-y,1/2+z
loop_
_atom_site_type_symbol
_atom_site_label
_atom_site_fract_x
_atom_site_fract_y
_atom_site_fract_z
Si Si1 0.358124 0.355819 0.419216
Si Si2 0.256603 0.288952 0.363220
Si Si3 0.500000 0.994623 0.750000
Si Si4 0.061073 0.808155 0.306401
Si Si5 0.964222 0.839956 0.881904
Si Si6 0.632857 0.307399 0.777736
Si Si7 0.949312 0.568306 0.979694
O O1 0.292119 0.341314 0.392973
O O2 0.391062 0.342683 0.270635
O O3 0.370670 0.315994 0.551056
O O4 0.387157 0.407812 0.483116
O O5 0.287712 0.250000 0.250000
O O6 0.250000 0.250000 0.500000
O O7 0.196379 0.304721 0.290006
O O8 0.544509 0.030225 0.658563
O O9 0.529912 0.960705 0.874724
O O10 0.068404 0.750000 0.250000
O O11 0.055192 0.808113 0.478394
O O12 0.000000 0.827990 0.250000
O O13 0.904289 0.851414 0.802171
O O14 0.000000 0.815310 0.750000
O O15 0.004493 0.886224 0.940927
O O16 0.608690 0.250000 0.750000
#
# Coordination Sequence:
#
# PCOD9508590 Si02
#       7
#    16  16   8  16  16  16  16
#     4  12  21  39  58  86 122 162 217 255 293 381
#     4  11  23  40  57  83 126 176 219 252 295 349
#     4  10  22  40  64  86 128 150 194 260 350 396
#     4  11  22  33  50  81 124 168 198 246 298 346
#     4  12  22  38  58  89 124 159 212 256 311 379
#     4  11  22  36  55  82 124 175 212 250 296 354
#     4  11  21  40  61  94 117 158 195 262 326 397
#
# _framework density 18.749390999999999
#
# number of rings (size 3 to 8) (size 9 to 14) (size 15 to 20)
#    0.000    0.769    6.923    2.308    2.154    1.538 
#    0.000    0.000    0.000    0.000    0.000   18.308 
#    0.000    0.000    0.000    0.000    0.000    0.000 
#
# Total GULP energy -289573.146250 kJ/mol
# GULP energy per Si atom -5568.714351 kJ/mol
# Density = 1.870672 g / cm^3
# Si number density = 18.749391 Si / 1000 Ang^3
#
#
#
# Elastic Constant Matrix: (Units=GPa)
#
#
# Indices 1 2 3 4 5 6 
#
# 1 93.7783 32.0756 24.3904 0.0000 0.0000 0.0000
# 2 32.0756 62.2222 31.0076 0.0000 0.0000 0.0000
# 3 24.3904 31.0076 152.6214 0.0000 0.0000 0.0000
# 4 0.0000 0.0000 0.0000 31.4615 0.0000 0.0000
# 5 0.0000 0.0000 0.0000 0.0000 25.7294 0.0000
# 6 0.0000 0.0000 0.0000 0.0000 0.0000 26.6560
#
#
#
# Elastic Compliance Matrix: (Units=1/GPa)
#
#
# Indices 1 2 3 4 5 6 
#
# 1 0.013033 -0.006321 -0.000799 0.000000 0.000000 0.000000
# 2 -0.006321 0.020947 -0.003246 0.000000 0.000000 0.000000
# 3 -0.000799 -0.003246 0.007339 0.000000 0.000000 0.000000
# 4 0.000000 0.000000 0.000000 0.031785 0.000000 0.000000
# 5 0.000000 0.000000 0.000000 0.000000 0.038866 0.000000
# 6 0.000000 0.000000 0.000000 0.000000 0.000000 0.037515
#
#
# Mechanical properties :
#
#
# Convention : Reuss Voigt Hill
#
# Bulk Modulus (GPa) = 48.56825 53.72990 51.14907
# Shear Modulus (GPa) = 28.23609 31.51259 29.87434
#
# Velocity S-wave (km/s) = 3.88490 4.10411 3.99601
# Velocity P-wave (km/s) = 6.78847 7.15384 6.97355
#
# Compressibility (1/GPa) = 0.02058958
#
# Stress axis : x y z
#
# Youngs Moduli (GPa) = 76.72820 47.73923 136.25440
#
# Poissons Ratio (x) = 0.30174 0.10882
# Poissons Ratio (y) = 0.48496 0.44224
# Poissons Ratio (z) = 0.06128 0.15495
#
# Static dielectric constant tensor:
#      x y z
#    x 1.700870 0.000000 0.000000 
#    y 0.000000 1.699170 0.000000 
#    z 0.000000 0.000000 1.744000 
# 
# From -- ./inp_files/8296.got.cif
#   From: 2010.05.17/outbox.cif.g08.bks.cpg/sg68_5_cif.got.tgz:8296.got - 2010.06.03 18:57:09.
