data_PCOD9508263
_publ_section_title
;
Structure prediction by ZEFSAII (Michael W. Deem and Ramdas Pophale) SiO2 
 PCOD9508263
Probable space group: C C C A
;
_chemical_formula_sum "Si O2"
_cell_formula_units_Z 112
_cell_length_a 14.530302
_cell_length_b 26.137967
_cell_length_c 13.700308
_cell_angle_alpha 90.000000
_cell_angle_beta 90.000000
_cell_angle_gamma 90.000000
_cell_volume 5203.274968
_symmetry_space_group_name_H-M "C C C A"
_symmetry_group_IT_number 68
_space_group.IT_coordinate_system_code '2'
_symmetry_cell_setting 'orthorhombic'
loop_
_space_group_symop_operation_xyz
x,y,z
-x,1/2-y,z
x,1/2-y,1/2-z
-x,y,1/2-z
-x,-y,-z
x,1/2+y,-z
-x,1/2+y,1/2+z
x,-y,1/2+z
1/2+x,1/2+y,z
1/2-x,-y,z
1/2+x,-y,1/2-z
1/2-x,1/2+y,1/2-z
1/2-x,1/2-y,-z
1/2+x,y,-z
1/2-x,y,1/2+z
1/2+x,1/2-y,1/2+z
loop_
_atom_site_type_symbol
_atom_site_label
_atom_site_fract_x
_atom_site_fract_y
_atom_site_fract_z
Si Si1 0.671448 0.543482 0.398089
Si Si2 0.127737 0.391977 0.921887
Si Si3 0.033783 0.308793 0.383289
Si Si4 0.359250 0.141675 0.792642
Si Si5 0.458713 0.540764 0.641900
Si Si6 0.336156 0.630088 0.706581
Si Si7 0.016597 0.808228 0.400025
O O1 0.750000 0.500000 0.393071
O O2 0.682704 0.582977 0.488754
O O3 0.655945 0.580344 0.303957
O O4 0.578027 0.510592 0.405329
O O5 0.178000 0.388696 0.817742
O O6 0.039280 0.428888 0.910899
O O7 0.079706 0.336448 0.923194
O O8 0.108086 0.331897 0.307911
O O9 0.066952 0.312125 0.494478
O O10 0.000000 0.250000 0.364906
O O11 0.942549 0.342855 0.363864
O O12 0.257009 0.158976 0.822289
O O13 0.500000 0.531218 0.750000
O O14 0.371800 0.579527 0.651012
O O15 0.422203 0.666401 0.683809
O O16 0.000000 0.750000 0.377132
#
# Coordination Sequence:
#
# PCOD9508263 Si02
#       7
#    16  16  16  16  16  16  16
#     4  12  23  39  61  96 130 172 229 278 325 400
#     4  10  22  42  61  90 132 174 213 269 346 403
#     4  10  23  46  69  98 136 178 223 278 347 420
#     4  11  22  41  65  94 134 174 220 275 334 405
#     4   9  20  39  61  86 124 168 216 272 328 395
#     4  10  22  42  64  94 134 167 218 283 332 404
#     4  10  21  43  71  98 130 170 225 284 343 414
#
# _framework density 21.524906000000001
#
# number of rings (size 3 to 8) (size 9 to 14) (size 15 to 20)
#    0.000    1.714    2.857    2.571    2.000    2.286 
#   10.286    1.429    0.000    0.000    0.000    0.000 
#    0.000    0.000    0.000    0.000    0.000    0.000 
#
# Total GULP energy -311814.628171 kJ/mol
# GULP energy per Si atom -5568.118360 kJ/mol
# Density = 2.147591 g / cm^3
# Si number density = 21.524906 Si / 1000 Ang^3
#
#
#
# Elastic Constant Matrix: (Units=GPa)
#
#
# Indices 1 2 3 4 5 6 
#
# 1 97.1442 31.0145 28.0010 0.0000 0.0000 0.0000
# 2 31.0145 128.2807 38.4907 0.0000 0.0000 0.0000
# 3 28.0010 38.4907 75.0403 0.0000 0.0000 0.0000
# 4 0.0000 0.0000 0.0000 -18.2468 0.0000 0.0000
# 5 0.0000 0.0000 0.0000 0.0000 12.6192 0.0000
# 6 0.0000 0.0000 0.0000 0.0000 0.0000 6.7001
#
#
#
# Elastic Compliance Matrix: (Units=1/GPa)
#
#
# Indices 1 2 3 4 5 6 
#
# 1 0.011885 -0.001823 -0.003500 0.000000 0.000000 0.000000
# 2 -0.001823 0.009493 -0.004189 0.000000 0.000000 0.000000
# 3 -0.003500 -0.004189 0.016781 0.000000 0.000000 0.000000
# 4 0.000000 0.000000 0.000000 -0.054804 0.000000 0.000000
# 5 0.000000 0.000000 0.000000 0.000000 0.079244 0.000000
# 6 0.000000 0.000000 0.000000 0.000000 0.000000 0.149252
#
#
# Mechanical properties :
#
#
# Convention : Reuss Voigt Hill
#
# Bulk Modulus (GPa) = 52.26045 55.05306 53.65676
# Shear Modulus (GPa) = 21.07461 13.74511 17.40986
#
# Velocity S-wave (km/s) = 3.13242 2.52973 2.84707
# Velocity P-wave (km/s) = 6.11674 5.84506 5.98244
#
# Compressibility (1/GPa) = 0.01913493
#
# Stress axis : x y z
#
# Youngs Moduli (GPa) = 84.14104 105.33919 59.59239
#
# Poissons Ratio (x) = 0.19207 0.20854
# Poissons Ratio (y) = 0.15342 0.24963
# Poissons Ratio (z) = 0.29445 0.44126
#
# Static dielectric constant tensor:
#      x y z
#    x 1.866950 0.000000 0.000000 
#    y 0.000000 1.788880 0.000000 
#    z 0.000000 0.000000 1.868430 
# 
# From -- ./inp_files/22587.got.cif
#   From: 2010.05.17/outbox.cif.g08.bks.cpg/sg68_12_cif.got.tgz:22587.got - 2010.06.03 18:57:09.
