data_PCOD9508243
_publ_section_title
;
Structure prediction by ZEFSAII (Michael W. Deem and Ramdas Pophale) SiO2 
 PCOD9508243
Probable space group: C C C A
;
_chemical_formula_sum "Si O2"
_cell_formula_units_Z 64
_cell_length_a 8.688930
_cell_length_b 26.716958
_cell_length_c 12.378126
_cell_angle_alpha 90.000000
_cell_angle_beta 90.000000
_cell_angle_gamma 90.000000
_cell_volume 2873.480176
_symmetry_space_group_name_H-M "C C C A"
_symmetry_group_IT_number 68
_space_group.IT_coordinate_system_code '2'
_symmetry_cell_setting 'orthorhombic'
loop_
_space_group_symop_operation_xyz
x,y,z
-x,1/2-y,z
x,1/2-y,1/2-z
-x,y,1/2-z
-x,-y,-z
x,1/2+y,-z
-x,1/2+y,1/2+z
x,-y,1/2+z
1/2+x,1/2+y,z
1/2-x,-y,z
1/2+x,-y,1/2-z
1/2-x,1/2+y,1/2-z
1/2-x,1/2-y,-z
1/2+x,y,-z
1/2-x,y,1/2+z
1/2+x,1/2-y,1/2+z
loop_
_atom_site_type_symbol
_atom_site_label
_atom_site_fract_x
_atom_site_fract_y
_atom_site_fract_z
Si Si1 0.000000 0.750000 0.750000
Si Si2 0.440190 0.536501 0.907518
Si Si3 0.500000 0.250000 0.250000
Si Si4 0.256296 0.092052 0.919208
Si Si5 0.500000 0.454511 0.750000
Si Si6 0.749912 0.208122 0.094343
O O1 0.104600 0.782749 0.828601
O O2 0.588709 0.571726 0.882478
O O3 0.404938 0.495697 0.817329
O O4 0.500000 0.500000 0.000000
O O5 0.307093 0.567452 0.966792
O O6 0.604605 0.217204 0.171485
O O7 0.385909 0.077081 0.828633
O O8 0.250450 0.151036 0.941484
O O9 0.750000 0.250000 0.000000
#
# Coordination Sequence:
#
# PCOD9508243 Si02
#       6
#     4  16   4  16   8  16
#     4  10  24  46  72 100 138 190 238 288 360 416
#     4  10  23  42  64  98 137 174 228 282 342 412
#     4  10  26  48  68 104 142 182 244 290 356 416
#     4  11  25  42  71 102 133 190 228 280 367 414
#     4  10  21  43  66  99 141 172 231 289 336 422
#     4  11  25  47  74 102 150 181 242 301 352 425
#
# _framework density 22.272642000000001
#
# number of rings (size 3 to 8) (size 9 to 14) (size 15 to 20)
#    0.000    1.500    0.000    4.500    7.000    9.000 
#    9.000    0.000    0.000    0.000    0.000    0.000 
#    0.000    0.000    0.000    0.000    0.000    0.000 
#
# Total GULP energy -178679.523614 kJ/mol
# GULP energy per Si atom -5583.735113 kJ/mol
# Density = 2.222195 g / cm^3
# Si number density = 22.272642 Si / 1000 Ang^3
#
#
#
# Elastic Constant Matrix: (Units=GPa)
#
#
# Indices 1 2 3 4 5 6 
#
# 1 119.7046 39.9980 30.4440 0.0000 0.0000 0.0000
# 2 39.9980 191.5821 57.0690 0.0000 0.0000 0.0000
# 3 30.4440 57.0690 104.2560 0.0000 0.0000 0.0000
# 4 0.0000 0.0000 0.0000 35.8730 0.0000 0.0000
# 5 0.0000 0.0000 0.0000 0.0000 84.2201 0.0000
# 6 0.0000 0.0000 0.0000 0.0000 0.0000 5636.4562
#
#
#
# Elastic Compliance Matrix: (Units=1/GPa)
#
#
# Indices 1 2 3 4 5 6 
#
# 1 0.009309 -0.001355 -0.001977 0.000000 0.000000 0.000000
# 2 -0.001355 0.006434 -0.003126 0.000000 0.000000 0.000000
# 3 -0.001977 -0.003126 0.011880 0.000000 0.000000 0.000000
# 4 0.000000 0.000000 0.000000 0.027876 0.000000 0.000000
# 5 0.000000 0.000000 0.000000 0.000000 0.011874 0.000000
# 6 0.000000 0.000000 0.000000 0.000000 0.000000 0.000177
#
#
# Mechanical properties :
#
#
# Convention : Reuss Voigt Hill
#
# Bulk Modulus (GPa) = 67.99102 74.50718 71.24910
# Shear Modulus (GPa) = 58.56943 1170.51199 614.54071
#
# Velocity S-wave (km/s) = 5.13358 22.94949 16.62878
# Velocity P-wave (km/s) = 8.10748 27.12496 20.01867
#
# Compressibility (1/GPa) = 0.01470782
#
# Stress axis : x y z
#
# Youngs Moduli (GPa) = 107.41910 155.42994 84.17292
#
# Poissons Ratio (x) = 0.21056 0.16640
# Poissons Ratio (y) = 0.14552 0.26314
# Poissons Ratio (z) = 0.21236 0.48591
#
# Static dielectric constant tensor:
#      x y z
#    x 1.993560 0.000000 0.000000 
#    y 0.000000 1.867530 0.000000 
#    z 0.000000 0.000000 2.029800 
# 
# From -- ./inp_files/10825.got.cif
#   From: 2010.05.17/outbox.cif.g08.bks.cpg/sg68_6_cif.got.tgz:10825.got - 2010.06.03 18:57:09.
