data_PCOD9508579
_publ_section_title
;
Structure prediction by ZEFSAII (Michael W. Deem and Ramdas Pophale) SiO2 
 PCOD9508579
Probable space group: C C C A
;
_chemical_formula_sum "Si O2"
_cell_formula_units_Z 72
_cell_length_a 28.232421
_cell_length_b 13.351884
_cell_length_c 8.277461
_cell_angle_alpha 90.000000
_cell_angle_beta 90.000000
_cell_angle_gamma 90.000000
_cell_volume 3120.238673
_symmetry_space_group_name_H-M "C C C A"
_symmetry_group_IT_number 68
_space_group.IT_coordinate_system_code '2'
_symmetry_cell_setting 'orthorhombic'
loop_
_space_group_symop_operation_xyz
x,y,z
-x,1/2-y,z
x,1/2-y,1/2-z
-x,y,1/2-z
-x,-y,-z
x,1/2+y,-z
-x,1/2+y,1/2+z
x,-y,1/2+z
1/2+x,1/2+y,z
1/2-x,-y,z
1/2+x,-y,1/2-z
1/2-x,1/2+y,1/2-z
1/2-x,1/2-y,-z
1/2+x,y,-z
1/2-x,y,1/2+z
1/2+x,1/2-y,1/2+z
loop_
_atom_site_type_symbol
_atom_site_label
_atom_site_fract_x
_atom_site_fract_y
_atom_site_fract_z
Si Si1 0.713476 0.656541 0.464207
Si Si2 0.875245 0.763099 0.068732
Si Si3 0.250000 0.000000 0.707090
Si Si4 0.543904 0.875221 0.025145
Si Si5 0.437762 0.406418 0.900854
O O1 0.750000 0.750000 0.500000
O O2 0.662905 0.708936 0.457043
O O3 0.715354 0.568927 0.599966
O O4 0.725522 0.587836 0.310637
O O5 0.855893 0.750000 0.250000
O O6 0.924690 0.705389 0.063582
O O7 0.891385 0.869112 0.996261
O O8 0.487615 0.861504 0.034053
O O9 0.562192 0.881861 0.210774
O O10 0.554858 0.977072 0.931178
#
# Coordination Sequence:
#
# PCOD9508579 Si02
#       5
#    16  16   8  16  16
#     4  11  25  46  69  98 132 171 220 277 336 404
#     4  12  25  39  62  94 128 166 213 265 324 390
#     4  10  24  46  72  94 130 176 218 274 342 402
#     4  10  22  40  63  90 126 168 216 265 323 392
#     4  10  22  41  62  90 126 169 215 267 323 386
#
# _framework density 23.075157999999998
#
# number of rings (size 3 to 8) (size 9 to 14) (size 15 to 20)
#    0.000    1.333    0.000    4.667    0.000   16.000 
#    0.000    0.000    0.000    0.000    0.000    0.000 
#    0.000    0.000    0.000    0.000    0.000    0.000 
#
# Total GULP energy -201066.136060 kJ/mol
# GULP energy per Si atom -5585.170446 kJ/mol
# Density = 2.302264 g / cm^3
# Si number density = 23.075158 Si / 1000 Ang^3
#
#
#
# Elastic Constant Matrix: (Units=GPa)
#
#
# Indices 1 2 3 4 5 6 
#
# 1 57.0323 26.4970 12.5639 0.0000 0.0000 0.0000
# 2 26.4970 100.3193 6.6333 0.0000 0.0000 0.0000
# 3 12.5639 6.6333 54.7186 0.0000 0.0000 0.0000
# 4 0.0000 0.0000 0.0000 35.4784 0.0000 0.0000
# 5 0.0000 0.0000 0.0000 0.0000 -18.3639 0.0000
# 6 0.0000 0.0000 0.0000 0.0000 0.0000 42.7138
#
#
#
# Elastic Compliance Matrix: (Units=1/GPa)
#
#
# Indices 1 2 3 4 5 6 
#
# 1 0.020885 -0.005241 -0.004160 0.000000 0.000000 0.000000
# 2 -0.005241 0.011364 -0.000174 0.000000 0.000000 0.000000
# 3 -0.004160 -0.000174 0.019252 0.000000 0.000000 0.000000
# 4 0.000000 0.000000 0.000000 0.028186 0.000000 0.000000
# 5 0.000000 0.000000 0.000000 0.000000 -0.054455 0.000000
# 6 0.000000 0.000000 0.000000 0.000000 0.000000 0.023412
#
#
# Mechanical properties :
#
#
# Convention : Reuss Voigt Hill
#
# Bulk Modulus (GPa) = 30.91194 33.71762 32.31478
# Shear Modulus (GPa) = 63.63040 23.05741 43.34390
#
# Velocity S-wave (km/s) = 5.25691 3.16449 4.33873
# Velocity P-wave (km/s) = 7.09029 5.29111 6.25572
#
# Compressibility (1/GPa) = 0.03234996
#
# Stress axis : x y z
#
# Youngs Moduli (GPa) = 47.88020 87.99675 51.94368
#
# Poissons Ratio (x) = 0.46122 0.21609
# Poissons Ratio (y) = 0.25096 0.00905
# Poissons Ratio (z) = 0.19919 0.01533
#
# Static dielectric constant tensor:
#      x y z
#    x 1.806690 0.000000 0.000000 
#    y 0.000000 1.850260 0.000000 
#    z 0.000000 0.000000 1.963880 
# 
# From -- ./inp_files/8654.got.cif
#   From: 2010.05.17/outbox.cif.g08.bks.cpg/sg68_5_cif.got.tgz:8654.got - 2010.06.03 18:57:09.
