data_PCOD9508563
_publ_section_title
;
Structure prediction by ZEFSAII (Michael W. Deem and Ramdas Pophale) SiO2 
 PCOD9508563
Probable space group: C C C A
;
_chemical_formula_sum "Si O2"
_cell_formula_units_Z 68
_cell_length_a 7.162287
_cell_length_b 22.864186
_cell_length_c 16.605631
_cell_angle_alpha 90.000000
_cell_angle_beta 90.000000
_cell_angle_gamma 90.000000
_cell_volume 2719.335844
_symmetry_space_group_name_H-M "C C C A"
_symmetry_group_IT_number 68
_space_group.IT_coordinate_system_code '2'
_symmetry_cell_setting 'orthorhombic'
loop_
_space_group_symop_operation_xyz
x,y,z
-x,1/2-y,z
x,1/2-y,1/2-z
-x,y,1/2-z
-x,-y,-z
x,1/2+y,-z
-x,1/2+y,1/2+z
x,-y,1/2+z
1/2+x,1/2+y,z
1/2-x,-y,z
1/2+x,-y,1/2-z
1/2-x,1/2+y,1/2-z
1/2-x,1/2-y,-z
1/2+x,y,-z
1/2-x,y,1/2+z
1/2+x,1/2-y,1/2+z
loop_
_atom_site_type_symbol
_atom_site_label
_atom_site_fract_x
_atom_site_fract_y
_atom_site_fract_z
Si Si1 0.785473 0.628998 0.889430
Si Si2 0.781535 0.238575 0.871405
Si Si3 0.218400 0.931066 0.228946
Si Si4 0.500000 0.750000 0.250000
Si Si5 0.645293 0.121524 0.436894
O O1 0.814712 0.699099 0.886669
O O2 0.825119 0.598890 0.804234
O O3 0.565192 0.624179 0.906524
O O4 0.865719 0.600701 0.971089
O O5 0.653703 0.213319 0.799982
O O6 0.779354 0.188527 0.938329
O O7 0.000000 0.250000 0.850640
O O8 0.250465 0.910854 0.136273
O O9 0.000000 0.919208 0.250000
O O10 0.250000 0.000000 0.233200
#
# Coordination Sequence:
#
# PCOD9508563 Si02
#       5
#    16  16  16   4  16
#     4  10  22  41  66  92 130 168 207 261 327 380
#     4  10  22  40  61  97 139 166 205 268 317 388
#     4  10  23  43  62  88 123 167 215 270 319 375
#     4  12  22  32  64  94 128 174 226 236 324 376
#     4  10  22  41  66  92 130 168 207 261 327 380
#
# _framework density 25.006105000000002
#
# number of rings (size 3 to 8) (size 9 to 14) (size 15 to 20)
#    0.000    1.882    0.000    2.471    3.294    6.588 
#    4.235    4.706    0.000    0.000    0.000    0.000 
#    0.000    0.000    0.000    0.000    0.000    0.000 
#
# Total GULP energy -189756.329600 kJ/mol
# GULP energy per Si atom -5581.068518 kJ/mol
# Density = 2.494919 g / cm^3
# Si number density = 25.006105 Si / 1000 Ang^3
#
#
#
# Elastic Constant Matrix: (Units=GPa)
#
#
# Indices 1 2 3 4 5 6 
#
# 1 77.1884 -8.9024 27.8072 0.0000 0.0000 0.0000
# 2 -8.9024 106.9959 91.6199 0.0000 0.0000 0.0000
# 3 27.8072 91.6199 230.9861 0.0000 0.0000 0.0000
# 4 0.0000 0.0000 0.0000 16.2476 0.0000 0.0000
# 5 0.0000 0.0000 0.0000 0.0000 46.4063 0.0000
# 6 0.0000 0.0000 0.0000 0.0000 0.0000 21.5454
#
#
#
# Elastic Compliance Matrix: (Units=1/GPa)
#
#
# Indices 1 2 3 4 5 6 
#
# 1 0.014659 0.004135 -0.003405 0.000000 0.000000 0.000000
# 2 0.004135 0.015320 -0.006574 0.000000 0.000000 0.000000
# 3 -0.003405 -0.006574 0.007347 0.000000 0.000000 0.000000
# 4 0.000000 0.000000 0.000000 0.061548 0.000000 0.000000
# 5 0.000000 0.000000 0.000000 0.000000 0.021549 0.000000
# 6 0.000000 0.000000 0.000000 0.000000 0.000000 0.046414
#
#
# Mechanical properties :
#
#
# Convention : Reuss Voigt Hill
#
# Bulk Modulus (GPa) = 39.00531 70.69108 54.84820
# Shear Modulus (GPa) = 26.72803 37.14957 31.93880
#
# Velocity S-wave (km/s) = 3.27289 3.85856 3.57773
# Velocity P-wave (km/s) = 5.46942 6.94134 6.24887
#
# Compressibility (1/GPa) = 0.02563753
#
# Stress axis : x y z
#
# Youngs Moduli (GPa) = 68.21795 65.27486 136.11214
#
# Poissons Ratio (x) = -0.26993 0.46346
# Poissons Ratio (y) = -0.28210 0.89485
# Poissons Ratio (z) = 0.23228 0.42914
#
# Static dielectric constant tensor:
#      x y z
#    x 2.022210 0.000000 0.000000 
#    y 0.000000 1.968040 0.000000 
#    z 0.000000 0.000000 2.109490 
# 
# From -- ./inp_files/27995.got.cif
#   From: 2010.05.17/outbox.cif.g08.bks.cpg/sg68_14_cif.got.tgz:27995.got - 2010.06.03 18:57:09.
