data_PCOD9508646
_publ_section_title
;
Structure prediction by ZEFSAII (Michael W. Deem and Ramdas Pophale) SiO2 
 PCOD9508646
Probable space group: C C C A
;
_chemical_formula_sum "Si O2"
_cell_formula_units_Z 96
_cell_length_a 20.853779
_cell_length_b 14.837633
_cell_length_c 12.804967
_cell_angle_alpha 90.000000
_cell_angle_beta 90.000000
_cell_angle_gamma 90.000000
_cell_volume 3962.122102
_symmetry_space_group_name_H-M "C C C A"
_symmetry_group_IT_number 68
_space_group.IT_coordinate_system_code '2'
_symmetry_cell_setting 'orthorhombic'
loop_
_space_group_symop_operation_xyz
x,y,z
-x,1/2-y,z
x,1/2-y,1/2-z
-x,y,1/2-z
-x,-y,-z
x,1/2+y,-z
-x,1/2+y,1/2+z
x,-y,1/2+z
1/2+x,1/2+y,z
1/2-x,-y,z
1/2+x,-y,1/2-z
1/2-x,1/2+y,1/2-z
1/2-x,1/2-y,-z
1/2+x,y,-z
1/2-x,y,1/2+z
1/2+x,1/2-y,1/2+z
loop_
_atom_site_type_symbol
_atom_site_label
_atom_site_fract_x
_atom_site_fract_y
_atom_site_fract_z
Si Si1 0.500000 0.250000 0.047168
Si Si2 0.320118 0.340958 0.795853
Si Si3 0.679130 0.362564 0.178051
Si Si4 0.852487 0.458185 0.378169
Si Si5 0.555467 0.585184 0.819954
Si Si6 0.250000 0.000000 0.020373
Si Si7 0.140399 0.734381 0.519397
O O1 0.521691 0.167429 0.120749
O O2 0.563504 0.265304 0.979642
O O3 0.351582 0.250000 0.750000
O O4 0.245588 0.342962 0.763727
O O5 0.347930 0.430895 0.744393
O O6 0.328967 0.318809 0.918814
O O7 0.617196 0.383825 0.249515
O O8 0.706996 0.440526 0.099951
O O9 0.661228 0.279880 0.100571
O O10 0.919251 0.507203 0.395790
O O11 0.803012 0.526033 0.432654
O O12 0.840411 0.360032 0.426799
O O13 0.500000 0.544292 0.750000
#
# Coordination Sequence:
#
# PCOD9508646 Si02
#       7
#     8  16  16  16  16   8  16
#     4  12  27  46  65  98 138 184 243 296 350 439
#     4  10  22  40  68  99 134 176 228 288 361 426
#     4  11  22  39  66 100 136 180 226 292 359 418
#     4  10  23  44  66  98 136 178 229 290 364 426
#     4  12  26  43  68  96 137 184 235 289 360 435
#     4  10  22  42  66 106 136 172 234 294 352 436
#     4  10  24  42  64 100 134 178 236 287 351 433
#
# _framework density 24.229441000000001
#
# number of rings (size 3 to 8) (size 9 to 14) (size 15 to 20)
#    0.000    1.333    1.667    2.750    4.667    2.000 
#    0.000    2.917    0.000    0.000    0.000    0.000 
#    0.000    0.000    0.000    0.000    0.000    0.000 
#
# Total GULP energy -267345.865176 kJ/mol
# GULP energy per Si atom -5569.705525 kJ/mol
# Density = 2.417429 g / cm^3
# Si number density = 24.229441 Si / 1000 Ang^3
#
#
#
# Elastic Constant Matrix: (Units=GPa)
#
#
# Indices 1 2 3 4 5 6 
#
# 1 121.4071 12.1148 8.3026 0.0000 0.0000 0.0000
# 2 12.1148 65.3672 41.1228 0.0000 0.0000 0.0000
# 3 8.3026 41.1228 45.3493 0.0000 0.0000 0.0000
# 4 0.0000 0.0000 0.0000 23.6896 0.0000 0.0000
# 5 0.0000 0.0000 0.0000 0.0000 40.5294 0.0000
# 6 0.0000 0.0000 0.0000 0.0000 0.0000 33.5436
#
#
#
# Elastic Compliance Matrix: (Units=1/GPa)
#
#
# Indices 1 2 3 4 5 6 
#
# 1 0.008394 -0.001371 -0.000293 0.000000 0.000000 0.000000
# 2 -0.001371 0.035840 -0.032249 0.000000 0.000000 0.000000
# 3 -0.000293 -0.032249 0.051348 0.000000 0.000000 0.000000
# 4 0.000000 0.000000 0.000000 0.042213 0.000000 0.000000
# 5 0.000000 0.000000 0.000000 0.000000 0.024673 0.000000
# 6 0.000000 0.000000 0.000000 0.000000 0.000000 0.029812
#
#
# Mechanical properties :
#
#
# Convention : Reuss Voigt Hill
#
# Bulk Modulus (GPa) = 36.02934 39.46711 37.74822
# Shear Modulus (GPa) = 18.56255 30.92476 24.74365
#
# Velocity S-wave (km/s) = 2.77088 3.57645 3.19912
# Velocity P-wave (km/s) = 5.01392 5.77745 5.40917
#
# Compressibility (1/GPa) = 0.02775516
#
# Stress axis : x y z
#
# Youngs Moduli (GPa) = 119.13799 27.90146 19.47478
#
# Poissons Ratio (x) = 0.03825 0.00572
# Poissons Ratio (y) = 0.16334 0.62805
# Poissons Ratio (z) = 0.03497 0.89980
#
# Static dielectric constant tensor:
#      x y z
#    x 1.916310 0.000000 0.000000 
#    y 0.000000 2.074730 0.000000 
#    z 0.000000 0.000000 2.123710 
# 
# From -- ./inp_files/24488.got.cif
#   From: 2010.05.17/outbox.cif.g08.bks.cpg/sg68_13_cif.got.tgz:24488.got - 2010.06.03 18:57:09.
