data_PCOD9508642
_publ_section_title
;
Structure prediction by ZEFSAII (Michael W. Deem and Ramdas Pophale) SiO2 
 PCOD9508642
Probable space group: C C C A
;
_chemical_formula_sum "Si O2"
_cell_formula_units_Z 108
_cell_length_a 12.148377
_cell_length_b 30.250014
_cell_length_c 13.271347
_cell_angle_alpha 90.000000
_cell_angle_beta 90.000000
_cell_angle_gamma 90.000000
_cell_volume 4877.068388
_symmetry_space_group_name_H-M "C C C A"
_symmetry_group_IT_number 68
_space_group.IT_coordinate_system_code '2'
_symmetry_cell_setting 'orthorhombic'
loop_
_space_group_symop_operation_xyz
x,y,z
-x,1/2-y,z
x,1/2-y,1/2-z
-x,y,1/2-z
-x,-y,-z
x,1/2+y,-z
-x,1/2+y,1/2+z
x,-y,1/2+z
1/2+x,1/2+y,z
1/2-x,-y,z
1/2+x,-y,1/2-z
1/2-x,1/2+y,1/2-z
1/2-x,1/2-y,-z
1/2+x,y,-z
1/2-x,y,1/2+z
1/2+x,1/2-y,1/2+z
loop_
_atom_site_type_symbol
_atom_site_label
_atom_site_fract_x
_atom_site_fract_y
_atom_site_fract_z
Si Si1 0.203123 0.453339 0.172838
Si Si2 0.436982 0.545916 0.995226
Si Si3 0.879117 0.310336 0.775353
Si Si4 0.124547 0.888308 0.427333
Si Si5 0.176652 0.228119 0.392327
Si Si6 0.000000 0.250000 0.250000
Si Si7 0.750000 0.000000 0.366721
Si Si8 0.248774 0.176026 0.071468
O O1 0.250000 0.500000 0.130596
O O2 0.293281 0.417767 0.140830
O O3 0.186918 0.466645 0.289189
O O4 0.097836 0.441390 0.107965
O O5 0.518061 0.582787 0.952638
O O6 0.330020 0.532367 0.928989
O O7 0.500000 0.500000 0.000000
O O8 0.905223 0.348468 0.854878
O O9 0.793549 0.279180 0.836356
O O10 0.812642 0.328055 0.677018
O O11 0.000000 0.293167 0.750000
O O12 0.186726 0.866362 0.524320
O O13 0.170884 0.280091 0.420164
O O14 0.169693 0.194643 0.484872
O O15 0.079345 0.219860 0.315848
#
# Coordination Sequence:
#
# PCOD9508642 Si02
#       8
#    16  16  16  16  16   4   8  16
#     4  10  23  42  63  97 131 183 234 290 354 442
#     4  12  22  44  69  95 132 185 241 297 358 440
#     4  11  25  44  71 107 144 188 245 304 356 433
#     4  11  26  41  67 106 139 184 234 300 378 415
#     4  10  23  44  74 103 140 198 242 283 367 439
#     4  12  20  44  78  92 142 192 244 294 332 456
#     4  10  22  40  68  90 132 174 240 296 344 440
#     4  10  23  47  67 105 147 181 236 301 362 435
#
# _framework density 22.144451
#
# number of rings (size 3 to 8) (size 9 to 14) (size 15 to 20)
#    0.444    0.889    3.704    0.000    4.148    7.704 
#    2.667    0.000    0.000    0.000    0.000    0.000 
#    0.000    0.000    0.000    0.000    0.000    0.000 
#
# Total GULP energy -301273.526382 kJ/mol
# GULP energy per Si atom -5579.139377 kJ/mol
# Density = 2.209405 g / cm^3
# Si number density = 22.144451 Si / 1000 Ang^3
#
#
#
# Elastic Constant Matrix: (Units=GPa)
#
#
# Indices 1 2 3 4 5 6 
#
# 1 84.7201 30.4504 34.2403 0.0000 0.0000 0.0000
# 2 30.4504 105.2512 22.2482 0.0000 0.0000 0.0000
# 3 34.2403 22.2482 119.1208 0.0000 0.0000 0.0000
# 4 0.0000 0.0000 0.0000 9.4168 0.0000 0.0000
# 5 0.0000 0.0000 0.0000 0.0000 39.3798 0.0000
# 6 0.0000 0.0000 0.0000 0.0000 0.0000 20.9378
#
#
#
# Elastic Compliance Matrix: (Units=1/GPa)
#
#
# Indices 1 2 3 4 5 6 
#
# 1 0.014460 -0.003441 -0.003514 0.000000 0.000000 0.000000
# 2 -0.003441 0.010710 -0.001011 0.000000 0.000000 0.000000
# 3 -0.003514 -0.001011 0.009594 0.000000 0.000000 0.000000
# 4 0.000000 0.000000 0.000000 0.106193 0.000000 0.000000
# 5 0.000000 0.000000 0.000000 0.000000 0.025394 0.000000
# 6 0.000000 0.000000 0.000000 0.000000 0.000000 0.047761
#
#
# Mechanical properties :
#
#
# Convention : Reuss Voigt Hill
#
# Bulk Modulus (GPa) = 53.09980 53.66332 53.38156
# Shear Modulus (GPa) = 21.15766 28.75711 24.95738
#
# Velocity S-wave (km/s) = 3.09437 3.60754 3.36076
# Velocity P-wave (km/s) = 6.06611 6.45278 6.26243
#
# Compressibility (1/GPa) = 0.01883246
#
# Stress axis : x y z
#
# Youngs Moduli (GPa) = 69.15414 93.36791 104.23435
#
# Poissons Ratio (x) = 0.32126 0.36627
# Poissons Ratio (y) = 0.23795 0.10542
# Poissons Ratio (z) = 0.24300 0.09443
#
# Static dielectric constant tensor:
#      x y z
#    x 1.827460 0.000000 0.000000 
#    y 0.000000 1.893320 0.000000 
#    z 0.000000 0.000000 1.879150 
# 
# From -- ./inp_files/21300.got.cif
#   From: 2010.05.17/outbox.cif.g08.bks.cpg/sg68_11_cif.got.tgz:21300.got - 2010.06.03 18:57:09.
