data_PCOD9508521
_publ_section_title
;
Structure prediction by ZEFSAII (Michael W. Deem and Ramdas Pophale) SiO2 
 PCOD9508521
Probable space group: C C C A
;
_chemical_formula_sum "Si O2"
_cell_formula_units_Z 88
_cell_length_a 10.632532
_cell_length_b 23.691133
_cell_length_c 15.996640
_cell_angle_alpha 90.000000
_cell_angle_beta 90.000000
_cell_angle_gamma 90.000000
_cell_volume 4029.501303
_symmetry_space_group_name_H-M "C C C A"
_symmetry_group_IT_number 68
_space_group.IT_coordinate_system_code '2'
_symmetry_cell_setting 'orthorhombic'
loop_
_space_group_symop_operation_xyz
x,y,z
-x,1/2-y,z
x,1/2-y,1/2-z
-x,y,1/2-z
-x,-y,-z
x,1/2+y,-z
-x,1/2+y,1/2+z
x,-y,1/2+z
1/2+x,1/2+y,z
1/2-x,-y,z
1/2+x,-y,1/2-z
1/2-x,1/2+y,1/2-z
1/2-x,1/2-y,-z
1/2+x,y,-z
1/2-x,y,1/2+z
1/2+x,1/2-y,1/2+z
loop_
_atom_site_type_symbol
_atom_site_label
_atom_site_fract_x
_atom_site_fract_y
_atom_site_fract_z
Si Si1 0.958164 0.374440 0.997330
Si Si2 0.250000 0.000000 0.223960
Si Si3 0.204245 0.308103 0.959403
Si Si4 0.564468 0.084655 0.834365
Si Si5 0.887340 0.600917 0.313062
Si Si6 0.716827 0.687703 0.223316
O O1 0.940734 0.401240 0.906307
O O2 0.068335 0.327918 0.991391
O O3 0.818623 0.350933 0.019032
O O4 0.998840 0.413333 0.075733
O O5 0.317264 0.956099 0.162486
O O6 0.171242 0.958294 0.283589
O O7 0.196228 0.304490 0.858712
O O8 0.250000 0.250000 0.000000
O O9 0.500000 0.062896 0.750000
O O10 0.605357 0.148118 0.810209
O O11 0.785604 0.650963 0.295483
O O12 0.000000 0.613551 0.250000
O O13 0.677866 0.750000 0.250000
#
# Coordination Sequence:
#
# PCOD9508521 Si02
#       6
#    16   8  16  16  16  16
#     4  11  25  42  69  98 139 181 226 286 340 409
#     4  10  24  44  70  94 128 184 228 300 342 412
#     4  11  23  41  63 102 140 182 232 272 333 415
#     4  10  24  44  65  97 136 174 234 284 349 412
#     4  11  22  44  67  96 135 175 236 282 348 410
#     4  10  22  39  65  97 137 180 223 278 339 410
#
# _framework density 21.838932
#
# number of rings (size 3 to 8) (size 9 to 14) (size 15 to 20)
#    0.000    1.455    1.818    2.182    7.636    1.455 
#    0.000    3.636    0.000    0.000    0.000    0.000 
#    0.000    0.000    0.000    0.000    0.000    0.000 
#
# Total GULP energy -245509.469349 kJ/mol
# GULP energy per Si atom -5579.760667 kJ/mol
# Density = 2.178923 g / cm^3
# Si number density = 21.838932 Si / 1000 Ang^3
#
#
#
# Elastic Constant Matrix: (Units=GPa)
#
#
# Indices 1 2 3 4 5 6 
#
# 1 34.3141 6.8448 18.4285 0.0000 0.0000 0.0000
# 2 6.8448 101.6657 24.7305 0.0000 0.0000 0.0000
# 3 18.4285 24.7305 153.3573 0.0000 0.0000 0.0000
# 4 0.0000 0.0000 0.0000 -11.2192 0.0000 0.0000
# 5 0.0000 0.0000 0.0000 0.0000 29.0268 0.0000
# 6 0.0000 0.0000 0.0000 0.0000 0.0000 9.2526
#
#
#
# Elastic Compliance Matrix: (Units=1/GPa)
#
#
# Indices 1 2 3 4 5 6 
#
# 1 0.031303 -0.001241 -0.003561 0.000000 0.000000 0.000000
# 2 -0.001241 0.010287 -0.001510 0.000000 0.000000 0.000000
# 3 -0.003561 -0.001510 0.007192 0.000000 0.000000 0.000000
# 4 0.000000 0.000000 0.000000 -0.089133 0.000000 0.000000
# 5 0.000000 0.000000 0.000000 0.000000 0.034451 0.000000
# 6 0.000000 0.000000 0.000000 0.000000 0.000000 0.108077
#
#
# Mechanical properties :
#
#
# Convention : Reuss Voigt Hill
#
# Bulk Modulus (GPa) = 27.65696 43.26053 35.45875
# Shear Modulus (GPa) = 39.41514 21.36757 30.39136
#
# Velocity S-wave (km/s) = 4.25292 3.13136 3.73448
# Velocity P-wave (km/s) = 6.06695 5.73810 5.90482
#
# Compressibility (1/GPa) = 0.03615726
#
# Stress axis : x y z
#
# Youngs Moduli (GPa) = 31.94598 97.21029 139.04052
#
# Poissons Ratio (x) = 0.12066 0.49518
# Poissons Ratio (y) = 0.03965 0.20991
# Poissons Ratio (z) = 0.11377 0.14676
#
# Static dielectric constant tensor:
#      x y z
#    x 1.897090 0.000000 0.000000 
#    y 0.000000 1.766450 0.000000 
#    z 0.000000 0.000000 1.864550 
# 
# From -- ./inp_files/20945.got.cif
#   From: 2010.05.17/outbox.cif.g08.bks.cpg/sg68_11_cif.got.tgz:20945.got - 2010.06.03 18:57:09.
