data_PCOD9508738
_publ_section_title
;
Structure prediction by ZEFSAII (Michael W. Deem and Ramdas Pophale) SiO2 
 PCOD9508738
Probable space group: C C C A
;
_chemical_formula_sum "Si O2"
_cell_formula_units_Z 100
_cell_length_a 14.616041
_cell_length_b 15.140725
_cell_length_c 20.635021
_cell_angle_alpha 90.000000
_cell_angle_beta 90.000000
_cell_angle_gamma 90.000000
_cell_volume 4566.477680
_symmetry_space_group_name_H-M "C C C A"
_symmetry_group_IT_number 68
_space_group.IT_coordinate_system_code '2'
_symmetry_cell_setting 'orthorhombic'
loop_
_space_group_symop_operation_xyz
x,y,z
-x,1/2-y,z
x,1/2-y,1/2-z
-x,y,1/2-z
-x,-y,-z
x,1/2+y,-z
-x,1/2+y,1/2+z
x,-y,1/2+z
1/2+x,1/2+y,z
1/2-x,-y,z
1/2+x,-y,1/2-z
1/2-x,1/2+y,1/2-z
1/2-x,1/2-y,-z
1/2+x,y,-z
1/2-x,y,1/2+z
1/2+x,1/2-y,1/2+z
loop_
_atom_site_type_symbol
_atom_site_label
_atom_site_fract_x
_atom_site_fract_y
_atom_site_fract_z
Si Si1 0.203829 0.097713 0.385376
Si Si2 0.587143 0.871396 0.512468
Si Si3 0.877889 0.665287 0.010070
Si Si4 0.500000 0.250000 0.250000
Si Si5 0.026023 0.054740 0.316894
Si Si6 0.146404 0.992556 0.097797
Si Si7 0.883671 0.378670 0.835695
O O1 0.195403 0.132171 0.457993
O O2 0.101466 0.105408 0.358699
O O3 0.277225 0.145829 0.340310
O O4 0.250000 0.000000 0.386508
O O5 0.624219 0.771010 0.511043
O O6 0.481144 0.863841 0.491530
O O7 0.633809 0.944324 0.466281
O O8 0.588663 0.895141 0.588808
O O9 0.863385 0.609635 0.075692
O O10 0.561910 0.194933 0.201257
O O11 0.000000 0.100591 0.250000
O O12 0.935088 0.024413 0.355127
O O13 0.086261 0.967737 0.299476
O O14 0.250000 0.000000 0.123331
#
# Coordination Sequence:
#
# PCOD9508738 Si02
#       7
#    16  16  16   4  16  16  16
#     4  10  22  41  68  91 123 176 216 262 332 399
#     4  11  23  40  67  99 133 173 211 277 339 393
#     4  11  21  40  67  96 134 166 214 270 336 400
#     4  12  24  44  64 100 142 168 216 280 324 400
#     4  11  23  44  63  89 130 171 227 274 321 399
#     4  12  24  40  67  99 133 171 219 282 341 394
#     4  11  23  41  66  95 132 175 212 266 334 395
#
# _framework density 21.898717000000001
#
# number of rings (size 3 to 8) (size 9 to 14) (size 15 to 20)
#    0.000    0.960    4.000    4.800    0.000    4.480 
#    0.000    0.000    0.000    0.960    0.000    0.000 
#    0.000    0.000    0.000    0.000    0.000    0.000 
#
# Total GULP energy -279116.366737 kJ/mol
# GULP energy per Si atom -5582.327335 kJ/mol
# Density = 2.184887 g / cm^3
# Si number density = 21.898717 Si / 1000 Ang^3
#
#
#
# Elastic Constant Matrix: (Units=GPa)
#
#
# Indices 1 2 3 4 5 6 
#
# 1 165.4690 8.2509 41.5554 0.0000 0.0000 0.0000
# 2 8.2509 32.8981 1.2307 0.0000 0.0000 0.0000
# 3 41.5554 1.2307 84.0656 0.0000 0.0000 0.0000
# 4 0.0000 0.0000 0.0000 -2.8404 0.0000 0.0000
# 5 0.0000 0.0000 0.0000 0.0000 18.3924 0.0000
# 6 0.0000 0.0000 0.0000 0.0000 0.0000 15.4425
#
#
#
# Elastic Compliance Matrix: (Units=1/GPa)
#
#
# Indices 1 2 3 4 5 6 
#
# 1 0.006986 -0.001624 -0.003429 0.000000 0.000000 0.000000
# 2 -0.001624 0.030791 0.000352 0.000000 0.000000 0.000000
# 3 -0.003429 0.000352 0.013586 0.000000 0.000000 0.000000
# 4 0.000000 0.000000 0.000000 -0.352066 0.000000 0.000000
# 5 0.000000 0.000000 0.000000 0.000000 0.054370 0.000000
# 6 0.000000 0.000000 0.000000 0.000000 0.000000 0.064756
#
#
# Mechanical properties :
#
#
# Convention : Reuss Voigt Hill
#
# Bulk Modulus (GPa) = 23.83239 42.72296 33.27768
# Shear Modulus (GPa) = -31.60790 21.62529 -4.99131
#
# Velocity S-wave (km/s) = -3.80329 3.14588 -1.51136
# Velocity P-wave (km/s) = 2.89483 5.72251 3.49049
#
# Compressibility (1/GPa) = 0.04195970
#
# Stress axis : x y z
#
# Youngs Moduli (GPa) = 143.15082 32.47703 73.60772
#
# Poissons Ratio (x) = 0.05273 0.25243
# Poissons Ratio (y) = 0.23244 -0.02590
# Poissons Ratio (z) = 0.49092 -0.01143
#
# Static dielectric constant tensor:
#      x y z
#    x 1.887760 0.000000 0.000000 
#    y 0.000000 1.826940 0.000000 
#    z 0.000000 0.000000 1.802040 
# 
# From -- ./inp_files/45460.got.cif
#   From: 2010.05.17/outbox.cif.g08.bks.cpg/sg68_23_cif.got.tgz:45460.got - 2010.06.03 18:57:09.
