data_PCOD9508320
_publ_section_title
;
Structure prediction by ZEFSAII (Michael W. Deem and Ramdas Pophale) SiO2 
 PCOD9508320
Probable space group: C C C A
;
_chemical_formula_sum "Si O2"
_cell_formula_units_Z 116
_cell_length_a 23.769501
_cell_length_b 26.563929
_cell_length_c 9.462176
_cell_angle_alpha 90.000000
_cell_angle_beta 90.000000
_cell_angle_gamma 90.000000
_cell_volume 5974.525198
_symmetry_space_group_name_H-M "C C C A"
_symmetry_group_IT_number 68
_space_group.IT_coordinate_system_code '2'
_symmetry_cell_setting 'orthorhombic'
loop_
_space_group_symop_operation_xyz
x,y,z
-x,1/2-y,z
x,1/2-y,1/2-z
-x,y,1/2-z
-x,-y,-z
x,1/2+y,-z
-x,1/2+y,1/2+z
x,-y,1/2+z
1/2+x,1/2+y,z
1/2-x,-y,z
1/2+x,-y,1/2-z
1/2-x,1/2+y,1/2-z
1/2-x,1/2-y,-z
1/2+x,y,-z
1/2-x,y,1/2+z
1/2+x,1/2-y,1/2+z
loop_
_atom_site_type_symbol
_atom_site_label
_atom_site_fract_x
_atom_site_fract_y
_atom_site_fract_z
Si Si1 0.267478 0.057936 0.889517
Si Si2 0.319826 0.102190 0.176321
Si Si3 0.417423 0.200651 0.965554
Si Si4 0.563560 0.358919 0.238971
Si Si5 0.129666 0.811537 0.498162
Si Si6 0.344671 0.365933 0.720082
Si Si7 0.729065 0.307170 0.291367
Si Si8 0.500000 0.250000 0.750000
O O1 0.212609 0.083898 0.818401
O O2 0.319809 0.077692 0.792107
O O3 0.250000 0.000000 0.891977
O O4 0.289250 0.075589 0.044226
O O5 0.387079 0.101179 0.196180
O O6 0.304877 0.161556 0.172392
O O7 0.385375 0.152097 0.903596
O O8 0.465163 0.214322 0.853466
O O9 0.437949 0.184539 0.119441
O O10 0.383197 0.253189 0.969616
O O11 0.500000 0.379151 0.250000
O O12 0.586300 0.332986 0.382306
O O13 0.129119 0.847708 0.633328
O O14 0.191781 0.812446 0.431251
O O15 0.289553 0.331639 0.698224
O O16 0.733449 0.250000 0.250000
#
# Coordination Sequence:
#
# PCOD9508320 Si02
#       8
#    16  16  16  16  16  16  16   4
#     4  11  24  44  70  99 127 168 219 294 368 423
#     4  10  23  42  64  98 130 167 224 278 342 422
#     4  12  22  40  57  91 133 183 235 278 321 395
#     4  11  24  40  63  92 133 185 230 276 330 402
#     4  11  22  38  58  87 136 184 225 270 318 398
#     4  11  24  37  58  93 130 166 221 276 340 406
#     4  10  22  33  58  90 133 175 211 253 329 408
#     4  12  24  36  62  88 136 188 246 280 318 392
#
# _framework density 19.415768
#
# number of rings (size 3 to 8) (size 9 to 14) (size 15 to 20)
#    0.000    1.103    2.759    4.138   11.586    1.655 
#    0.000    0.000    0.000    0.828    1.793    0.000 
#    0.000    0.000    0.000    0.000    0.000    0.000 
#
# Total GULP energy -323654.513387 kJ/mol
# GULP energy per Si atom -5580.250231 kJ/mol
# Density = 1.937158 g / cm^3
# Si number density = 19.415768 Si / 1000 Ang^3
#
#
#
# Elastic Constant Matrix: (Units=GPa)
#
#
# Indices 1 2 3 4 5 6 
#
# 1 119.0711 27.9008 46.7146 0.0000 0.0000 0.0000
# 2 27.9008 103.4821 35.4741 0.0000 0.0000 0.0000
# 3 46.7146 35.4741 109.2123 0.0000 0.0000 0.0000
# 4 0.0000 0.0000 0.0000 17.1443 0.0000 0.0000
# 5 0.0000 0.0000 0.0000 0.0000 24.5027 0.0000
# 6 0.0000 0.0000 0.0000 0.0000 0.0000 20.8193
#
#
#
# Elastic Compliance Matrix: (Units=1/GPa)
#
#
# Indices 1 2 3 4 5 6 
#
# 1 0.010275 -0.001422 -0.003933 0.000000 0.000000 0.000000
# 2 -0.001422 0.011071 -0.002988 0.000000 0.000000 0.000000
# 3 -0.003933 -0.002988 0.011809 0.000000 0.000000 0.000000
# 4 0.000000 0.000000 0.000000 0.058329 0.000000 0.000000
# 5 0.000000 0.000000 0.000000 0.000000 0.040812 0.000000
# 6 0.000000 0.000000 0.000000 0.000000 0.000000 0.048032
#
#
# Mechanical properties :
#
#
# Convention : Reuss Voigt Hill
#
# Bulk Modulus (GPa) = 60.71882 61.32716 61.02299
# Shear Modulus (GPa) = 24.69099 27.27167 25.98133
#
# Velocity S-wave (km/s) = 3.56996 3.75188 3.66205
# Velocity P-wave (km/s) = 6.95224 7.10096 7.02699
#
# Compressibility (1/GPa) = 0.01646936
#
# Stress axis : x y z
#
# Youngs Moduli (GPa) = 97.32799 90.32484 84.67920
#
# Poissons Ratio (x) = 0.12844 0.33304
# Poissons Ratio (y) = 0.13840 0.25301
# Poissons Ratio (z) = 0.38279 0.26988
#
# Static dielectric constant tensor:
#      x y z
#    x 1.731190 0.000000 0.000000 
#    y 0.000000 1.694460 0.000000 
#    z 0.000000 0.000000 1.758480 
# 
# From -- ./inp_files/8375.got.cif
#   From: 2010.05.17/outbox.cif.g08.bks.cpg/sg68_5_cif.got.tgz:8375.got - 2010.06.03 18:57:09.
