data_PCOD9508030
_publ_section_title
;
Structure prediction by ZEFSAII (Michael W. Deem and Ramdas Pophale) SiO2 
 PCOD9508030
Probable space group: C C C A
;
_chemical_formula_sum "Si O2"
_cell_formula_units_Z 104
_cell_length_a 10.556672
_cell_length_b 16.985342
_cell_length_c 28.918031
_cell_angle_alpha 90.000000
_cell_angle_beta 90.000000
_cell_angle_gamma 90.000000
_cell_volume 5185.254091
_symmetry_space_group_name_H-M "C C C A"
_symmetry_group_IT_number 68
_space_group.IT_coordinate_system_code '2'
_symmetry_cell_setting 'orthorhombic'
loop_
_space_group_symop_operation_xyz
x,y,z
-x,1/2-y,z
x,1/2-y,1/2-z
-x,y,1/2-z
-x,-y,-z
x,1/2+y,-z
-x,1/2+y,1/2+z
x,-y,1/2+z
1/2+x,1/2+y,z
1/2-x,-y,z
1/2+x,-y,1/2-z
1/2-x,1/2+y,1/2-z
1/2-x,1/2-y,-z
1/2+x,y,-z
1/2-x,y,1/2+z
1/2+x,1/2-y,1/2+z
loop_
_atom_site_type_symbol
_atom_site_label
_atom_site_fract_x
_atom_site_fract_y
_atom_site_fract_z
Si Si1 0.128900 0.442931 0.825942
Si Si2 0.816964 0.747006 0.930657
Si Si3 0.000000 0.454196 0.250000
Si Si4 0.101397 0.130081 0.580400
Si Si5 0.250000 0.000000 0.021810
Si Si6 0.315782 0.829554 0.222076
Si Si7 0.628587 0.145467 0.014162
Si Si8 0.500000 0.250000 0.649058
O O1 0.250000 0.500000 0.837484
O O2 0.035014 0.491571 0.793377
O O3 0.063776 0.409372 0.871482
O O4 0.192811 0.369763 0.799323
O O5 0.700434 0.799393 0.911494
O O6 0.755947 0.680319 0.962694
O O7 0.898175 0.715946 0.887665
O O8 0.888235 0.807545 0.965816
O O9 0.880800 0.395471 0.254478
O O10 0.175976 0.062939 0.552473
O O11 0.986934 0.157702 0.548585
O O12 0.348046 0.946728 0.993512
O O13 0.292223 0.750000 0.250000
O O14 0.419355 0.807926 0.182107
#
# Coordination Sequence:
#
# PCOD9508030 Si02
#       8
#    16  16   8  16   8  16  16   8
#     4  10  22  41  63  95 124 160 206 255 325 382
#     4  10  24  38  62  92 120 167 212 259 310 371
#     4  10  21  40  65  90 124 164 194 260 323 376
#     4  11  20  41  64  88 122 167 207 260 311 383
#     4  10  22  38  58  92 118 174 208 254 314 376
#     4  11  21  43  67  92 124 161 212 264 313 381
#     4  10  23  41  58  88 131 164 208 261 315 366
#     4  12  21  38  66  96 114 164 216 265 294 386
#
# _framework density 20.056877
#
# number of rings (size 3 to 8) (size 9 to 14) (size 15 to 20)
#    0.000    1.538    3.846    0.923    6.462    0.000 
#    8.308    0.385    0.000    0.000    0.000    0.000 
#    0.000    0.000    0.000    0.000    0.000    0.000 
#
# Total GULP energy -290285.215605 kJ/mol
# GULP energy per Si atom -5582.407992 kJ/mol
# Density = 2.001123 g / cm^3
# Si number density = 20.056877 Si / 1000 Ang^3
#
#
#
# Elastic Constant Matrix: (Units=GPa)
#
#
# Indices 1 2 3 4 5 6 
#
# 1 53.5739 17.4100 29.0486 0.0000 0.0000 0.0000
# 2 17.4100 93.6040 33.6447 0.0000 0.0000 0.0000
# 3 29.0486 33.6447 88.9566 0.0000 0.0000 0.0000
# 4 0.0000 0.0000 0.0000 7.6226 0.0000 0.0000
# 5 0.0000 0.0000 0.0000 0.0000 22.5138 0.0000
# 6 0.0000 0.0000 0.0000 0.0000 0.0000 28.0300
#
#
#
# Elastic Compliance Matrix: (Units=1/GPa)
#
#
# Indices 1 2 3 4 5 6 
#
# 1 0.022947 -0.001822 -0.006804 0.000000 0.000000 0.000000
# 2 -0.001822 0.012509 -0.004136 0.000000 0.000000 0.000000
# 3 -0.006804 -0.004136 0.015028 0.000000 0.000000 0.000000
# 4 0.000000 0.000000 0.000000 0.131189 0.000000 0.000000
# 5 0.000000 0.000000 0.000000 0.000000 0.044417 0.000000
# 6 0.000000 0.000000 0.000000 0.000000 0.000000 0.035676
#
#
# Mechanical properties :
#
#
# Convention : Reuss Voigt Hill
#
# Bulk Modulus (GPa) = 40.06606 44.03790 42.05198
# Shear Modulus (GPa) = 16.91414 22.03536 19.47475
#
# Velocity S-wave (km/s) = 2.90713 3.31817 3.11943
# Velocity P-wave (km/s) = 5.59358 6.05678 5.82978
#
# Compressibility (1/GPa) = 0.02495878
#
# Stress axis : x y z
#
# Youngs Moduli (GPa) = 43.57800 79.94320 66.54430
#
# Poissons Ratio (x) = 0.14569 0.45278
# Poissons Ratio (y) = 0.07942 0.27522
# Poissons Ratio (z) = 0.29651 0.33064
#
# Static dielectric constant tensor:
#      x y z
#    x 1.745270 0.000000 0.000000 
#    y 0.000000 1.715240 0.000000 
#    z 0.000000 0.000000 1.722920 
# 
# From -- ./inp_files/50330.got.cif
#   From: 2010.05.17/outbox.cif.g08.bks.cpg/sg68_26_cif.got.tgz:50330.got - 2010.06.03 18:57:09.
