data_PCOD9508261
_publ_section_title
;
Structure prediction by ZEFSAII (Michael W. Deem and Ramdas Pophale) SiO2 
 PCOD9508261
Probable space group: C C C A
;
_chemical_formula_sum "Si O2"
_cell_formula_units_Z 64
_cell_length_a 15.980282
_cell_length_b 9.175263
_cell_length_c 17.656457
_cell_angle_alpha 90.000000
_cell_angle_beta 90.000000
_cell_angle_gamma 90.000000
_cell_volume 2588.847818
_symmetry_space_group_name_H-M "C C C A"
_symmetry_group_IT_number 68
_space_group.IT_coordinate_system_code '2'
_symmetry_cell_setting 'orthorhombic'
loop_
_space_group_symop_operation_xyz
x,y,z
-x,1/2-y,z
x,1/2-y,1/2-z
-x,y,1/2-z
-x,-y,-z
x,1/2+y,-z
-x,1/2+y,1/2+z
x,-y,1/2+z
1/2+x,1/2+y,z
1/2-x,-y,z
1/2+x,-y,1/2-z
1/2-x,1/2+y,1/2-z
1/2-x,1/2-y,-z
1/2+x,y,-z
1/2-x,y,1/2+z
1/2+x,1/2-y,1/2+z
loop_
_atom_site_type_symbol
_atom_site_label
_atom_site_fract_x
_atom_site_fract_y
_atom_site_fract_z
Si Si1 0.592557 0.680517 0.326970
Si Si2 0.342830 0.562530 0.918355
Si Si3 0.095881 0.205483 0.012485
Si Si4 0.841144 0.924844 0.248058
O O1 0.500000 0.750000 0.330170
O O2 0.631219 0.750000 0.250000
O O3 0.629544 0.726730 0.407629
O O4 0.599251 0.507945 0.311540
O O5 0.250000 0.500000 0.923033
O O6 0.396569 0.465997 0.975919
O O7 0.372404 0.539649 0.832953
O O8 0.350411 0.727982 0.944776
O O9 0.000000 0.250000 0.001076
O O10 0.836262 0.750000 0.250000
O O11 0.750000 0.000000 0.236930
#
# Coordination Sequence:
#
# PCOD9508261 Si02
#       4
#    16  16  16  16
#     4  10  21  43  70  92 132 184 222 276 344 401
#     4  11  25  43  66 103 135 176 230 280 343 412
#     4  11  24  44  70  95 138 182 223 279 347 408
#     4  11  25  43  70 103 138 180 236 286 344 411
#
# _framework density 24.721422
#
# number of rings (size 3 to 8) (size 9 to 14) (size 15 to 20)
#    0.000    1.250    2.500    2.250    7.000    1.000 
#    0.000    2.500    0.000    0.000    0.000    0.000 
#    0.000    0.000    0.000    0.000    0.000    0.000 
#
# Total GULP energy -178976.005339 kJ/mol
# GULP energy per Si atom -5593.000167 kJ/mol
# Density = 2.466516 g / cm^3
# Si number density = 24.721422 Si / 1000 Ang^3
#
#
#
# Elastic Constant Matrix: (Units=GPa)
#
#
# Indices 1 2 3 4 5 6 
#
# 1 76.0516 36.2927 4.4406 0.0000 0.0000 0.0000
# 2 36.2927 160.4345 5.1542 0.0000 0.0000 0.0000
# 3 4.4406 5.1542 69.4791 0.0000 0.0000 0.0000
# 4 0.0000 0.0000 0.0000 41.8622 0.0000 0.0000
# 5 0.0000 0.0000 0.0000 0.0000 13.7700 0.0000
# 6 0.0000 0.0000 0.0000 0.0000 0.0000 35.7196
#
#
#
# Elastic Compliance Matrix: (Units=1/GPa)
#
#
# Indices 1 2 3 4 5 6 
#
# 1 0.014774 -0.003320 -0.000698 0.000000 0.000000 0.000000
# 2 -0.003320 0.006994 -0.000307 0.000000 0.000000 0.000000
# 3 -0.000698 -0.000307 0.014460 0.000000 0.000000 0.000000
# 4 0.000000 0.000000 0.000000 0.023888 0.000000 0.000000
# 5 0.000000 0.000000 0.000000 0.000000 0.072622 0.000000
# 6 0.000000 0.000000 0.000000 0.000000 0.000000 0.027996
#
#
# Mechanical properties :
#
#
# Convention : Reuss Voigt Hill
#
# Bulk Modulus (GPa) = 36.25896 44.19335 40.22616
# Shear Modulus (GPa) = 27.99940 35.60887 31.80413
#
# Velocity S-wave (km/s) = 3.36906 3.79938 3.59067
# Velocity P-wave (km/s) = 5.46195 6.09610 5.78772
#
# Compressibility (1/GPa) = 0.02757939
#
# Stress axis : x y z
#
# Youngs Moduli (GPa) = 67.68691 142.98214 69.15542
#
# Poissons Ratio (x) = 0.47465 0.04827
# Poissons Ratio (y) = 0.22470 0.02121
# Poissons Ratio (z) = 0.04724 0.04385
#
# Static dielectric constant tensor:
#      x y z
#    x 1.954830 0.000000 0.000000 
#    y 0.000000 2.050440 0.000000 
#    z 0.000000 0.000000 1.934960 
# 
# From -- ./inp_files/32498.got.cif
#   From: 2010.05.17/outbox.cif.g08.bks.cpg/sg68_17_cif.got.tgz:32498.got - 2010.06.03 18:57:09.
