data_PCOD9508614
_publ_section_title
;
Structure prediction by ZEFSAII (Michael W. Deem and Ramdas Pophale) SiO2 
 PCOD9508614
Probable space group: C C C A
;
_chemical_formula_sum "Si O2"
_cell_formula_units_Z 88
_cell_length_a 25.495156
_cell_length_b 5.490701
_cell_length_c 27.487853
_cell_angle_alpha 90.000000
_cell_angle_beta 90.000000
_cell_angle_gamma 90.000000
_cell_volume 3847.922247
_symmetry_space_group_name_H-M "C C C A"
_symmetry_group_IT_number 68
_space_group.IT_coordinate_system_code '2'
_symmetry_cell_setting 'orthorhombic'
loop_
_space_group_symop_operation_xyz
x,y,z
-x,1/2-y,z
x,1/2-y,1/2-z
-x,y,1/2-z
-x,-y,-z
x,1/2+y,-z
-x,1/2+y,1/2+z
x,-y,1/2+z
1/2+x,1/2+y,z
1/2-x,-y,z
1/2+x,-y,1/2-z
1/2-x,1/2+y,1/2-z
1/2-x,1/2-y,-z
1/2+x,y,-z
1/2-x,y,1/2+z
1/2+x,1/2-y,1/2+z
loop_
_atom_site_type_symbol
_atom_site_label
_atom_site_fract_x
_atom_site_fract_y
_atom_site_fract_z
Si Si1 0.000000 0.250000 0.385713
Si Si2 0.179784 0.868546 0.496200
Si Si3 0.346166 0.656164 0.615635
Si Si4 0.750000 0.500000 0.825094
Si Si5 0.112086 0.339440 0.405613
Si Si6 0.597307 0.750000 0.750000
Si Si7 0.170373 0.750000 0.750000
Si Si8 0.000000 0.750000 0.324315
O O1 0.948073 0.210667 0.416402
O O2 0.997339 0.497645 0.354190
O O3 0.207983 0.618639 0.500255
O O4 0.155398 0.863382 0.442706
O O5 0.140882 0.861097 0.542525
O O6 0.289192 0.656297 0.640622
O O7 0.370589 0.391919 0.627280
O O8 0.375683 0.910668 0.623257
O O9 0.788024 0.672318 0.792682
O O10 0.633758 0.500544 0.746448
O O11 0.554478 0.752004 0.706300
#
# Coordination Sequence:
#
# PCOD9508614 Si02
#       8
#     8  16  16   8  16   8   8   8
#     4  12  24  39  70 113 143 190 235 295 349 470
#     4   8  16  37  61  93 134 183 228 281 350 402
#     4  10  23  43  70  95 140 191 238 299 344 429
#     4  12  30  50  72 110 138 190 260 292 374 432
#     4  10  22  40  66 104 147 187 231 297 359 415
#     4  11  27  52  77 102 147 184 229 319 366 444
#     4  12  29  49  75 104 147 189 229 316 376 422
#     4  11  26  46  74 115 137 186 251 276 379 449
#
# _framework density 22.869485999999998
#
# number of rings (size 3 to 8) (size 9 to 14) (size 15 to 20)
#    0.000    1.636    0.000    2.727    7.636    5.091 
#    0.000   16.364    0.000    0.000    0.000    0.000 
#    0.000    0.000    0.000    0.000    0.000    0.000 
#
# Total GULP energy -244994.362865 kJ/mol
# GULP energy per Si atom -5568.053701 kJ/mol
# Density = 2.281743 g / cm^3
# Si number density = 22.869486 Si / 1000 Ang^3
#
#
#
# Elastic Constant Matrix: (Units=GPa)
#
#
# Indices 1 2 3 4 5 6 
#
# 1 183.5965 93.1515 52.8938 0.0000 0.0000 0.0000
# 2 93.1515 255.1951 40.6716 0.0000 0.0000 0.0000
# 3 52.8938 40.6716 75.9556 0.0000 0.0000 0.0000
# 4 0.0000 0.0000 0.0000 13.4902 0.0000 0.0000
# 5 0.0000 0.0000 0.0000 0.0000 -2.0654 0.0000
# 6 0.0000 0.0000 0.0000 0.0000 0.0000 45.8479
#
#
#
# Elastic Compliance Matrix: (Units=1/GPa)
#
#
# Indices 1 2 3 4 5 6 
#
# 1 0.007767 -0.002157 -0.004253 0.000000 0.000000 0.000000
# 2 -0.002157 0.004883 -0.001113 0.000000 0.000000 0.000000
# 3 -0.004253 -0.001113 0.016723 0.000000 0.000000 0.000000
# 4 0.000000 0.000000 0.000000 0.074128 0.000000 0.000000
# 5 0.000000 0.000000 0.000000 0.000000 -0.484168 0.000000
# 6 0.000000 0.000000 0.000000 0.000000 0.000000 0.021811
#
#
# Mechanical properties :
#
#
# Convention : Reuss Voigt Hill
#
# Bulk Modulus (GPa) = 69.79904 98.68681 84.24292
# Shear Modulus (GPa) = -14.74780 33.32323 9.28772
#
# Velocity S-wave (km/s) = -2.54218 3.82135 2.01742
# Velocity P-wave (km/s) = 4.68721 7.91935 6.50715
#
# Compressibility (1/GPa) = 0.01432685
#
# Stress axis : x y z
#
# Youngs Moduli (GPa) = 128.75707 204.78031 59.79652
#
# Poissons Ratio (x) = 0.44173 0.25434
# Poissons Ratio (y) = 0.27774 0.06654
# Poissons Ratio (z) = 0.54766 0.22786
#
# Static dielectric constant tensor:
#      x y z
#    x 1.837700 0.000000 0.000000 
#    y 0.000000 1.921310 0.000000 
#    z 0.000000 0.000000 1.620480 
# 
# From -- ./inp_files/56023.got.cif
#   From: 2010.05.17/outbox.cif.g08.bks.cpg/sg68_29_cif.got.tgz:56023.got - 2010.06.03 18:57:09.
