data_PCOD9508723
_publ_section_title
;
Structure prediction by ZEFSAII (Michael W. Deem and Ramdas Pophale) SiO2 
 PCOD9508723
Probable space group: C C C A
;
_chemical_formula_sum "Si O2"
_cell_formula_units_Z 120
_cell_length_a 21.408312
_cell_length_b 12.163878
_cell_length_c 21.882507
_cell_angle_alpha 90.000000
_cell_angle_beta 90.000000
_cell_angle_gamma 90.000000
_cell_volume 5698.381969
_symmetry_space_group_name_H-M "C C C A"
_symmetry_group_IT_number 68
_space_group.IT_coordinate_system_code '2'
_symmetry_cell_setting 'orthorhombic'
loop_
_space_group_symop_operation_xyz
x,y,z
-x,1/2-y,z
x,1/2-y,1/2-z
-x,y,1/2-z
-x,-y,-z
x,1/2+y,-z
-x,1/2+y,1/2+z
x,-y,1/2+z
1/2+x,1/2+y,z
1/2-x,-y,z
1/2+x,-y,1/2-z
1/2-x,1/2+y,1/2-z
1/2-x,1/2-y,-z
1/2+x,y,-z
1/2-x,y,1/2+z
1/2+x,1/2-y,1/2+z
loop_
_atom_site_type_symbol
_atom_site_label
_atom_site_fract_x
_atom_site_fract_y
_atom_site_fract_z
Si Si1 0.666580 0.188341 0.604702
Si Si2 0.881373 0.478453 0.567974
Si Si3 0.698015 0.902196 0.331763
Si Si4 0.638076 0.455127 0.429606
Si Si5 0.898161 0.862533 0.726537
Si Si6 0.505434 0.877313 0.616807
Si Si7 0.818884 0.762745 0.473253
Si Si8 0.500000 0.045818 0.250000
O O1 0.710889 0.281476 0.636701
O O2 0.615130 0.165862 0.656381
O O3 0.643715 0.231775 0.538292
O O4 0.680397 0.059192 0.589916
O O5 0.854955 0.552629 0.622131
O O6 0.877010 0.529606 0.501161
O O7 0.951275 0.442586 0.582288
O O8 0.836456 0.372140 0.562515
O O9 0.665815 0.881368 0.265826
O O10 0.750000 0.000000 0.328832
O O11 0.572379 0.433149 0.395950
O O12 0.671901 0.338896 0.428795
O O13 0.927759 0.750000 0.750000
O O14 0.941250 0.966238 0.738456
O O15 0.500000 0.750000 0.597208
O O16 0.491178 0.884876 0.688834
O O17 0.750000 0.750000 0.500000
#
# Coordination Sequence:
#
# PCOD9508723 Si02
#       8
#    16  16  16  16  16  16  16   8
#     4  10  22  42  67  95 135 172 225 284 338 415
#     4  11  23  39  66  96 131 177 220 278 343 413
#     4  11  22  42  69  97 135 178 230 284 347 414
#     4  11  23  42  65  99 134 171 223 282 345 407
#     4  10  22  41  66  97 130 176 227 283 340 405
#     4  12  24  43  64  95 133 176 223 282 340 413
#     4  11  23  41  67  97 130 180 227 278 350 412
#     4  12  22  42  68  94 130 180 228 272 344 410
#
# _framework density 21.058610000000002
#
# number of rings (size 3 to 8) (size 9 to 14) (size 15 to 20)
#    0.000    1.067    5.333    1.600    0.000    1.600 
#    2.400    0.667    8.800    0.000    0.000    0.000 
#    0.000    0.000    0.000    0.000    0.000    0.000 
#
# Total GULP energy -334355.103942 kJ/mol
# GULP energy per Si atom -5572.585066 kJ/mol
# Density = 2.101068 g / cm^3
# Si number density = 21.058610 Si / 1000 Ang^3
#
#
#
# Elastic Constant Matrix: (Units=GPa)
#
#
# Indices 1 2 3 4 5 6 
#
# 1 76.5496 28.2609 4.9926 0.0000 0.0000 0.0000
# 2 28.2609 121.8072 16.2848 0.0000 0.0000 0.0000
# 3 4.9926 16.2848 51.5201 0.0000 0.0000 0.0000
# 4 0.0000 0.0000 0.0000 26.9579 0.0000 0.0000
# 5 0.0000 0.0000 0.0000 0.0000 17.4954 0.0000
# 6 0.0000 0.0000 0.0000 0.0000 0.0000 30.1831
#
#
#
# Elastic Compliance Matrix: (Units=1/GPa)
#
#
# Indices 1 2 3 4 5 6 
#
# 1 0.014293 -0.003269 -0.000352 0.000000 0.000000 0.000000
# 2 -0.003269 0.009320 -0.002629 0.000000 0.000000 0.000000
# 3 -0.000352 -0.002629 0.020275 0.000000 0.000000 0.000000
# 4 0.000000 0.000000 0.000000 0.037095 0.000000 0.000000
# 5 0.000000 0.000000 0.000000 0.000000 0.057158 0.000000
# 6 0.000000 0.000000 0.000000 0.000000 0.000000 0.033131
#
#
# Mechanical properties :
#
#
# Convention : Reuss Voigt Hill
#
# Bulk Modulus (GPa) = 31.85931 38.77263 35.31597
# Shear Modulus (GPa) = 25.74210 28.28320 27.01265
#
# Velocity S-wave (km/s) = 3.50008 3.66877 3.58542
# Velocity P-wave (km/s) = 5.61211 6.03309 5.82641
#
# Compressibility (1/GPa) = 0.03138800
#
# Stress axis : x y z
#
# Youngs Moduli (GPa) = 69.96285 107.29984 49.32183
#
# Poissons Ratio (x) = 0.35079 0.01735
# Poissons Ratio (y) = 0.22872 0.12967
# Poissons Ratio (z) = 0.02461 0.28209
#
# Static dielectric constant tensor:
#      x y z
#    x 1.757510 0.000000 0.000000 
#    y 0.000000 1.892510 0.000000 
#    z 0.000000 0.000000 1.754040 
# 
# From -- ./inp_files/46701.got.cif
#   From: 2010.05.17/outbox.cif.g08.bks.cpg/sg68_24_cif.got.tgz:46701.got - 2010.06.03 18:57:09.
