data_PCOD9508006
_publ_section_title
;
Structure prediction by ZEFSAII (Michael W. Deem and Ramdas Pophale) SiO2 
 PCOD9508006
Probable space group: C C C A
;
_chemical_formula_sum "Si O2"
_cell_formula_units_Z 116
_cell_length_a 24.609378
_cell_length_b 9.088367
_cell_length_c 25.967076
_cell_angle_alpha 90.000000
_cell_angle_beta 90.000000
_cell_angle_gamma 90.000000
_cell_volume 5807.771781
_symmetry_space_group_name_H-M "C C C A"
_symmetry_group_IT_number 68
_space_group.IT_coordinate_system_code '2'
_symmetry_cell_setting 'orthorhombic'
loop_
_space_group_symop_operation_xyz
x,y,z
-x,1/2-y,z
x,1/2-y,1/2-z
-x,y,1/2-z
-x,-y,-z
x,1/2+y,-z
-x,1/2+y,1/2+z
x,-y,1/2+z
1/2+x,1/2+y,z
1/2-x,-y,z
1/2+x,-y,1/2-z
1/2-x,1/2+y,1/2-z
1/2-x,1/2-y,-z
1/2+x,y,-z
1/2-x,y,1/2+z
1/2+x,1/2-y,1/2+z
loop_
_atom_site_type_symbol
_atom_site_label
_atom_site_fract_x
_atom_site_fract_y
_atom_site_fract_z
Si Si1 0.849139 0.250512 0.337312
Si Si2 0.937968 0.705315 0.386041
Si Si3 0.377891 0.913402 0.686729
Si Si4 0.566435 0.258710 0.571227
Si Si5 0.500000 0.750000 0.250000
Si Si6 0.917158 0.015444 0.208286
Si Si7 0.936079 0.023919 0.510807
Si Si8 0.741020 0.174625 0.303956
O O1 0.893423 0.270683 0.382066
O O2 0.862766 0.388088 0.300469
O O3 0.784008 0.241751 0.344741
O O4 0.863702 0.086121 0.318364
O O5 0.909155 0.849187 0.362394
O O6 0.930095 0.583718 0.341071
O O7 0.923687 0.632687 0.441100
O O8 0.000000 0.750000 0.391359
O O9 0.323456 0.814341 0.688334
O O10 0.411041 0.916558 0.740425
O O11 0.500000 0.250000 0.581813
O O12 0.582412 0.409731 0.543114
O O13 0.581134 0.134891 0.529438
O O14 0.462776 0.640326 0.216997
O O15 0.000000 0.000000 0.500000
O O16 0.754872 0.250000 0.250000
O O17 0.750000 0.000000 0.301286
#
# Coordination Sequence:
#
# PCOD9508006 Si02
#       8
#    16  16  16  16   4  16  16  16
#     4  11  22  38  64  90 120 167 213 258 308 376
#     4  12  25  38  59  91 128 164 207 254 321 378
#     4  11  24  40  61  90 128 169 206 261 308 373
#     4  10  22  37  63  91 123 155 207 256 313 372
#     4  12  24  32  58  80 124 172 198 244 302 384
#     4  12  23  39  57  90 128 169 210 249 312 382
#     4  10  22  40  61  89 121 162 206 260 308 371
#     4  10  21  40  63  88 120 165 218 263 304 364
#
# _framework density 19.973236
#
# number of rings (size 3 to 8) (size 9 to 14) (size 15 to 20)
#    0.000    1.103    2.759    4.966    6.759    0.552 
#    0.000    0.000    0.000    0.828    0.000    0.000 
#    0.000    0.000    0.000    0.000    0.000    0.000 
#
# Total GULP energy -323309.026411 kJ/mol
# GULP energy per Si atom -5574.293559 kJ/mol
# Density = 1.992778 g / cm^3
# Si number density = 19.973236 Si / 1000 Ang^3
#
#
#
# Elastic Constant Matrix: (Units=GPa)
#
#
# Indices 1 2 3 4 5 6 
#
# 1 54.2945 2.8569 9.1917 0.0000 0.0000 0.0000
# 2 2.8569 64.8266 15.3490 0.0000 0.0000 0.0000
# 3 9.1917 15.3490 72.7652 0.0000 0.0000 0.0000
# 4 0.0000 0.0000 0.0000 41.1027 0.0000 0.0000
# 5 0.0000 0.0000 0.0000 0.0000 5.5517 0.0000
# 6 0.0000 0.0000 0.0000 0.0000 0.0000 12.7377
#
#
#
# Elastic Compliance Matrix: (Units=1/GPa)
#
#
# Indices 1 2 3 4 5 6 
#
# 1 0.018825 -0.000281 -0.002319 0.000000 0.000000 0.000000
# 2 -0.000281 0.016241 -0.003390 0.000000 0.000000 0.000000
# 3 -0.002319 -0.003390 0.014751 0.000000 0.000000 0.000000
# 4 0.000000 0.000000 0.000000 0.024329 0.000000 0.000000
# 5 0.000000 0.000000 0.000000 0.000000 0.180125 0.000000
# 6 0.000000 0.000000 0.000000 0.000000 0.000000 0.078507
#
#
# Mechanical properties :
#
#
# Convention : Reuss Voigt Hill
#
# Bulk Modulus (GPa) = 26.42877 27.40905 26.91891
# Shear Modulus (GPa) = 13.99108 22.84432 18.41770
#
# Velocity S-wave (km/s) = 2.64955 3.38560 3.03994
# Velocity P-wave (km/s) = 4.75615 5.38848 5.08216
#
# Compressibility (1/GPa) = 0.03783755
#
# Stress axis : x y z
#
# Youngs Moduli (GPa) = 53.11976 61.57300 67.79236
#
# Poissons Ratio (x) = 0.01728 0.15720
# Poissons Ratio (y) = 0.01490 0.22984
# Poissons Ratio (z) = 0.12318 0.20876
#
# Static dielectric constant tensor:
#      x y z
#    x 1.745400 0.000000 0.000000 
#    y 0.000000 1.776470 0.000000 
#    z 0.000000 0.000000 1.766670 
# 
# From -- ./inp_files/52198.got.cif
#   From: 2010.05.17/outbox.cif.g08.bks.cpg/sg68_27_cif.got.tgz:52198.got - 2010.06.03 18:57:09.
