data_PCOD9508892
_publ_section_title
;
Structure prediction by ZEFSAII (Michael W. Deem and Ramdas Pophale) SiO2 
 PCOD9508892
Probable space group: C C C A
;
_chemical_formula_sum "Si O2"
_cell_formula_units_Z 112
_cell_length_a 12.289146
_cell_length_b 27.615273
_cell_length_c 13.033393
_cell_angle_alpha 90.000000
_cell_angle_beta 90.000000
_cell_angle_gamma 90.000000
_cell_volume 4423.118102
_symmetry_space_group_name_H-M "C C C A"
_symmetry_group_IT_number 68
_space_group.IT_coordinate_system_code '2'
_symmetry_cell_setting 'orthorhombic'
loop_
_space_group_symop_operation_xyz
x,y,z
-x,1/2-y,z
x,1/2-y,1/2-z
-x,y,1/2-z
-x,-y,-z
x,1/2+y,-z
-x,1/2+y,1/2+z
x,-y,1/2+z
1/2+x,1/2+y,z
1/2-x,-y,z
1/2+x,-y,1/2-z
1/2-x,1/2+y,1/2-z
1/2-x,1/2-y,-z
1/2+x,y,-z
1/2-x,y,1/2+z
1/2+x,1/2-y,1/2+z
loop_
_atom_site_type_symbol
_atom_site_label
_atom_site_fract_x
_atom_site_fract_y
_atom_site_fract_z
Si Si1 0.403449 0.070139 0.174591
Si Si2 0.070909 0.296648 0.057930
Si Si3 0.347225 0.823653 0.662186
Si Si4 0.979517 0.052259 0.047987
Si Si5 0.223453 0.946398 0.827947
Si Si6 0.384405 0.639660 0.420982
Si Si7 0.205261 0.332885 0.629706
O O1 0.500000 0.049738 0.250000
O O2 0.409215 0.127038 0.186472
O O3 0.290598 0.050440 0.221126
O O4 0.411532 0.070373 0.051002
O O5 0.101527 0.300093 0.937215
O O6 0.000000 0.250000 0.079413
O O7 0.187989 0.302044 0.107293
O O8 0.001201 0.339797 0.109648
O O9 0.222091 0.842645 0.638994
O O10 0.345695 0.803848 0.776080
O O11 0.905068 0.054668 0.149104
O O12 0.089983 0.082778 0.064935
O O13 0.000000 0.000000 0.000000
O O14 0.263121 0.891328 0.860593
O O15 0.250000 0.000000 0.878080
O O16 0.370263 0.664879 0.531357
#
# Coordination Sequence:
#
# PCOD9508892 Si02
#       7
#    16  16  16  16  16  16  16
#     4  11  23  42  66  96 137 185 233 296 349 424
#     4  11  24  45  71 101 136 184 232 300 359 433
#     4  10  23  41  72  98 133 188 229 293 366 432
#     4  12  23  41  68 101 141 196 236 295 373 429
#     4  11  23  40  64 103 141 185 246 290 354 433
#     4  11  22  44  65  95 140 175 235 296 356 424
#     4  10  22  43  67  98 142 186 230 300 365 426
#
# _framework density 25.321504000000001
#
# number of rings (size 3 to 8) (size 9 to 14) (size 15 to 20)
#    0.000    1.143    2.857    4.286    0.000    5.714 
#    0.000    7.143    0.000    0.000    0.000    0.000 
#    0.000    0.000    0.000    0.000    0.000    0.000 
#
# Total GULP energy -311780.814725 kJ/mol
# GULP energy per Si atom -5567.514549 kJ/mol
# Density = 2.526387 g / cm^3
# Si number density = 25.321504 Si / 1000 Ang^3
#
#
#
# Elastic Constant Matrix: (Units=GPa)
#
#
# Indices 1 2 3 4 5 6 
#
# 1 53.9266 -1.6702 14.3708 0.0000 0.0000 0.0000
# 2 -1.6702 77.1994 -12.6040 0.0000 0.0000 0.0000
# 3 14.3708 -12.6040 50.1988 0.0000 0.0000 0.0000
# 4 0.0000 0.0000 0.0000 9.5849 0.0000 0.0000
# 5 0.0000 0.0000 0.0000 0.0000 14.5335 0.0000
# 6 0.0000 0.0000 0.0000 0.0000 0.0000 43.0034
#
#
#
# Elastic Compliance Matrix: (Units=1/GPa)
#
#
# Indices 1 2 3 4 5 6 
#
# 1 0.020096 -0.000526 -0.005885 0.000000 0.000000 0.000000
# 2 -0.000526 0.013521 0.003545 0.000000 0.000000 0.000000
# 3 -0.005885 0.003545 0.022496 0.000000 0.000000 0.000000
# 4 0.000000 0.000000 0.000000 0.104330 0.000000 0.000000
# 5 0.000000 0.000000 0.000000 0.000000 0.068807 0.000000
# 6 0.000000 0.000000 0.000000 0.000000 0.000000 0.023254
#
#
# Mechanical properties :
#
#
# Convention : Reuss Voigt Hill
#
# Bulk Modulus (GPa) = 19.84870 20.16867 20.00868
# Shear Modulus (GPa) = 18.17995 25.50626 21.84311
#
# Velocity S-wave (km/s) = 2.68239 3.17724 2.94024
# Velocity P-wave (km/s) = 4.17724 4.63056 4.40973
#
# Compressibility (1/GPa) = 0.05038114
#
# Stress axis : x y z
#
# Youngs Moduli (GPa) = 49.76185 73.95939 44.45285
#
# Poissons Ratio (x) = 0.03891 0.26161
# Poissons Ratio (y) = 0.02618 -0.15761
# Poissons Ratio (z) = 0.29285 -0.26222
#
# Static dielectric constant tensor:
#      x y z
#    x 1.981810 0.000000 0.000000 
#    y 0.000000 2.017210 0.000000 
#    z 0.000000 0.000000 2.176420 
# 
# From -- ./inp_files/21242.got.cif
#   From: 2010.05.17/outbox.cif.g08.bks.cpg/sg68_11_cif.got.tgz:21242.got - 2010.06.03 18:57:09.
