data_PCOD9508125
_publ_section_title
;
Structure prediction by ZEFSAII (Michael W. Deem and Ramdas Pophale) SiO2 
 PCOD9508125
Probable space group: C C C A
;
_chemical_formula_sum "Si O2"
_cell_formula_units_Z 88
_cell_length_a 25.631830
_cell_length_b 11.782173
_cell_length_c 11.823531
_cell_angle_alpha 90.000000
_cell_angle_beta 90.000000
_cell_angle_gamma 90.000000
_cell_volume 3570.690464
_symmetry_space_group_name_H-M "C C C A"
_symmetry_group_IT_number 68
_space_group.IT_coordinate_system_code '2'
_symmetry_cell_setting 'orthorhombic'
loop_
_space_group_symop_operation_xyz
x,y,z
-x,1/2-y,z
x,1/2-y,1/2-z
-x,y,1/2-z
-x,-y,-z
x,1/2+y,-z
-x,1/2+y,1/2+z
x,-y,1/2+z
1/2+x,1/2+y,z
1/2-x,-y,z
1/2+x,-y,1/2-z
1/2-x,1/2+y,1/2-z
1/2-x,1/2-y,-z
1/2+x,y,-z
1/2-x,y,1/2+z
1/2+x,1/2-y,1/2+z
loop_
_atom_site_type_symbol
_atom_site_label
_atom_site_fract_x
_atom_site_fract_y
_atom_site_fract_z
Si Si1 0.944813 0.362549 0.686841
Si Si2 0.750000 0.500000 0.015941
Si Si3 0.056953 0.720587 0.571512
Si Si4 0.377732 0.525339 0.185705
Si Si5 0.150502 0.885691 0.537174
Si Si6 0.214738 0.185928 0.353135
O O1 0.925501 0.250000 0.750000
O O2 0.949526 0.327913 0.556682
O O3 0.903024 0.459888 0.709998
O O4 0.000000 0.390074 0.750000
O O5 0.806090 0.483116 0.075171
O O6 0.752176 0.606892 0.932600
O O7 0.081259 0.616580 0.639415
O O8 0.094282 0.831570 0.575009
O O9 0.000000 0.750000 0.613732
O O10 0.363712 0.435530 0.086988
O O11 0.327653 0.604036 0.206007
O O12 0.183773 0.772159 0.566371
O O13 0.242629 0.250000 0.250000
#
# Coordination Sequence:
#
# PCOD9508125 Si02
#       6
#    16   8  16  16  16  16
#     4  11  20  38  60  92 125 165 218 263 308 395
#     4  10  22  44  64  90 122 170 214 262 348 384
#     4  11  22  40  66  95 132 173 219 268 327 393
#     4  10  23  40  62  93 127 173 208 266 331 378
#     4  10  21  41  65  89 128 166 209 271 324 396
#     4  10  23  42  60  94 126 156 215 271 319 394
#
# _framework density 24.645094
#
# number of rings (size 3 to 8) (size 9 to 14) (size 15 to 20)
#    0.000    1.636    3.636    0.545    2.545    3.636 
#    9.818    0.000    0.000    0.000    0.000    0.000 
#    0.000    0.000    0.000    0.000    0.000    0.000 
#
# Total GULP energy -245565.420923 kJ/mol
# GULP energy per Si atom -5581.032294 kJ/mol
# Density = 2.458900 g / cm^3
# Si number density = 24.645094 Si / 1000 Ang^3
#
#
#
# Elastic Constant Matrix: (Units=GPa)
#
#
# Indices 1 2 3 4 5 6 
#
# 1 149.4789 48.8145 44.3064 0.0000 0.0000 0.0000
# 2 48.8145 106.7575 53.3786 0.0000 0.0000 0.0000
# 3 44.3064 53.3786 101.5053 0.0000 0.0000 0.0000
# 4 0.0000 0.0000 0.0000 77.6177 0.0000 0.0000
# 5 0.0000 0.0000 0.0000 0.0000 6.0467 0.0000
# 6 0.0000 0.0000 0.0000 0.0000 0.0000 38.6552
#
#
#
# Elastic Compliance Matrix: (Units=1/GPa)
#
#
# Indices 1 2 3 4 5 6 
#
# 1 0.008206 -0.002661 -0.002183 0.000000 0.000000 0.000000
# 2 -0.002661 0.013571 -0.005975 0.000000 0.000000 0.000000
# 3 -0.002183 -0.005975 0.013947 0.000000 0.000000 0.000000
# 4 0.000000 0.000000 0.000000 0.012884 0.000000 0.000000
# 5 0.000000 0.000000 0.000000 0.000000 0.165379 0.000000
# 6 0.000000 0.000000 0.000000 0.000000 0.000000 0.025870
#
#
# Mechanical properties :
#
#
# Convention : Reuss Voigt Hill
#
# Bulk Modulus (GPa) = 70.99059 72.30454 71.64756
# Shear Modulus (GPa) = 18.78365 38.54671 28.66518
#
# Velocity S-wave (km/s) = 2.76373 3.95913 3.41415
# Velocity P-wave (km/s) = 6.24916 7.09236 6.68407
#
# Compressibility (1/GPa) = 0.01408637
#
# Stress axis : x y z
#
# Youngs Moduli (GPa) = 121.86592 73.68480 71.70198
#
# Poissons Ratio (x) = 0.19606 0.15649
# Poissons Ratio (y) = 0.32426 0.42844
# Poissons Ratio (z) = 0.26598 0.44029
#
# Static dielectric constant tensor:
#      x y z
#    x 2.032760 0.000000 0.000000 
#    y 0.000000 1.951650 0.000000 
#    z 0.000000 0.000000 2.022540 
# 
# From -- ./inp_files/20978.got.cif
#   From: 2010.05.17/outbox.cif.g08.bks.cpg/sg68_11_cif.got.tgz:20978.got - 2010.06.03 18:57:09.
