data_PCOD9508119
_publ_section_title
;
Structure prediction by ZEFSAII (Michael W. Deem and Ramdas Pophale) SiO2 
 PCOD9508119
Probable space group: C C C A
;
_chemical_formula_sum "Si O2"
_cell_formula_units_Z 116
_cell_length_a 18.147434
_cell_length_b 23.189251
_cell_length_c 12.788899
_cell_angle_alpha 90.000000
_cell_angle_beta 90.000000
_cell_angle_gamma 90.000000
_cell_volume 5381.893563
_symmetry_space_group_name_H-M "C C C A"
_symmetry_group_IT_number 68
_space_group.IT_coordinate_system_code '2'
_symmetry_cell_setting 'orthorhombic'
loop_
_space_group_symop_operation_xyz
x,y,z
-x,1/2-y,z
x,1/2-y,1/2-z
-x,y,1/2-z
-x,-y,-z
x,1/2+y,-z
-x,1/2+y,1/2+z
x,-y,1/2+z
1/2+x,1/2+y,z
1/2-x,-y,z
1/2+x,-y,1/2-z
1/2-x,1/2+y,1/2-z
1/2-x,1/2-y,-z
1/2+x,y,-z
1/2-x,y,1/2+z
1/2+x,1/2-y,1/2+z
loop_
_atom_site_type_symbol
_atom_site_label
_atom_site_fract_x
_atom_site_fract_y
_atom_site_fract_z
Si Si1 0.593275 0.905203 0.011541
Si Si2 0.828466 0.703597 0.095066
Si Si3 0.459428 0.860068 0.142945
Si Si4 0.079276 0.530648 0.300465
Si Si5 0.181373 0.630690 0.214495
Si Si6 0.830833 0.679024 0.510883
Si Si7 0.690983 0.550035 0.297267
Si Si8 0.500000 0.750000 0.250000
O O1 0.518345 0.879872 0.058106
O O2 0.643805 0.931353 0.102715
O O3 0.636311 0.851557 0.961781
O O4 0.576215 0.951162 0.921050
O O5 0.835743 0.687305 0.217371
O O6 0.861638 0.761575 0.043514
O O7 0.741231 0.700820 0.071662
O O8 0.500000 0.883904 0.250000
O O9 0.455482 0.792578 0.176367
O O10 0.381510 0.861326 0.083622
O O11 0.118424 0.583866 0.239836
O O12 0.132808 0.476431 0.283906
O O13 0.000000 0.520700 0.250000
O O14 0.188848 0.642762 0.092416
O O15 0.259192 0.601804 0.246372
O O16 0.750000 0.500000 0.324034
#
# Coordination Sequence:
#
# PCOD9508119 Si02
#       8
#    16  16  16  16  16  16  16   4
#     4  11  22  43  66  95 129 173 226 271 351 410
#     4  10  23  36  64  96 132 178 224 265 328 407
#     4  10  23  38  64  99 135 178 218 273 332 410
#     4  10  23  43  64  93 128 169 223 292 341 410
#     4  10  21  41  64  94 130 177 224 278 333 407
#     4  11  21  40  62  98 138 179 218 276 333 397
#     4  10  23  42  64  92 127 170 226 284 347 402
#     4   8  20  40  56  96 138 172 208 258 328 400
#
# _framework density 21.553750999999998
#
# number of rings (size 3 to 8) (size 9 to 14) (size 15 to 20)
#    0.414    1.379    1.379    2.069    1.931    3.862 
#    2.483    0.000    0.000    2.483    0.000    0.000 
#    0.000    0.000    0.000    0.000    0.000    0.000 
#
# Total GULP energy -323281.473823 kJ/mol
# GULP energy per Si atom -5573.818514 kJ/mol
# Density = 2.150469 g / cm^3
# Si number density = 21.553751 Si / 1000 Ang^3
#
#
#
# Elastic Constant Matrix: (Units=GPa)
#
#
# Indices 1 2 3 4 5 6 
#
# 1 109.7060 34.8756 26.8337 0.0000 0.0000 0.0000
# 2 34.8756 91.0239 34.0801 0.0000 0.0000 0.0000
# 3 26.8337 34.0801 51.2754 0.0000 0.0000 0.0000
# 4 0.0000 0.0000 0.0000 27.6512 0.0000 0.0000
# 5 0.0000 0.0000 0.0000 0.0000 36.1817 0.0000
# 6 0.0000 0.0000 0.0000 0.0000 0.0000 -12.6501
#
#
#
# Elastic Compliance Matrix: (Units=1/GPa)
#
#
# Indices 1 2 3 4 5 6 
#
# 1 0.010939 -0.002726 -0.003913 0.000000 0.000000 0.000000
# 2 -0.002726 0.015305 -0.008746 0.000000 0.000000 0.000000
# 3 -0.003913 -0.008746 0.027363 0.000000 0.000000 0.000000
# 4 0.000000 0.000000 0.000000 0.036165 0.000000 0.000000
# 5 0.000000 0.000000 0.000000 0.000000 0.027638 0.000000
# 6 0.000000 0.000000 0.000000 0.000000 0.000000 -0.079050
#
#
# Mechanical properties :
#
#
# Convention : Reuss Voigt Hill
#
# Bulk Modulus (GPa) = 43.78727 49.28711 46.53719
# Shear Modulus (GPa) = 65.15340 20.65094 42.90217
#
# Velocity S-wave (km/s) = 5.50399 3.09870 4.46631
# Velocity P-wave (km/s) = 7.79432 5.97656 6.94517
#
# Compressibility (1/GPa) = 0.02283769
#
# Stress axis : x y z
#
# Youngs Moduli (GPa) = 91.41622 65.33713 36.54570
#
# Poissons Ratio (x) = 0.17813 0.14299
# Poissons Ratio (y) = 0.24923 0.31962
# Poissons Ratio (z) = 0.35767 0.57143
#
# Static dielectric constant tensor:
#      x y z
#    x 1.756170 0.000000 0.000000 
#    y 0.000000 1.828210 0.000000 
#    z 0.000000 0.000000 1.775170 
# 
# From -- ./inp_files/14826.got.cif
#   From: 2010.05.17/outbox.cif.g08.bks.cpg/sg68_8_cif.got.tgz:14826.got - 2010.06.03 18:57:09.
