data_PCOD9508286
_publ_section_title
;
Structure prediction by ZEFSAII (Michael W. Deem and Ramdas Pophale) SiO2 
 PCOD9508286
Probable space group: C C C A
;
_chemical_formula_sum "Si O2"
_cell_formula_units_Z 116
_cell_length_a 24.906334
_cell_length_b 17.424815
_cell_length_c 11.006783
_cell_angle_alpha 90.000000
_cell_angle_beta 90.000000
_cell_angle_gamma 90.000000
_cell_volume 4776.814627
_symmetry_space_group_name_H-M "C C C A"
_symmetry_group_IT_number 68
_space_group.IT_coordinate_system_code '2'
_symmetry_cell_setting 'orthorhombic'
loop_
_space_group_symop_operation_xyz
x,y,z
-x,1/2-y,z
x,1/2-y,1/2-z
-x,y,1/2-z
-x,-y,-z
x,1/2+y,-z
-x,1/2+y,1/2+z
x,-y,1/2+z
1/2+x,1/2+y,z
1/2-x,-y,z
1/2+x,-y,1/2-z
1/2-x,1/2+y,1/2-z
1/2-x,1/2-y,-z
1/2+x,y,-z
1/2-x,y,1/2+z
1/2+x,1/2-y,1/2+z
loop_
_atom_site_type_symbol
_atom_site_label
_atom_site_fract_x
_atom_site_fract_y
_atom_site_fract_z
Si Si1 0.363559 0.786290 0.639879
Si Si2 0.595535 0.424681 0.756129
Si Si3 0.237830 0.340256 0.982660
Si Si4 0.793914 0.343243 0.261816
Si Si5 0.000000 0.750000 0.750000
Si Si6 0.928592 0.321679 0.042250
Si Si7 0.436485 0.590267 0.783042
Si Si8 0.023526 0.916337 0.977176
O O1 0.328100 0.750000 0.750000
O O2 0.322719 0.841166 0.568468
O O3 0.388892 0.728669 0.538719
O O4 0.407386 0.828783 0.727414
O O5 0.648675 0.380482 0.792263
O O6 0.589691 0.398418 0.615304
O O7 0.593650 0.516672 0.771025
O O8 0.544851 0.401193 0.842171
O O9 0.274244 0.370161 0.871684
O O10 0.250000 0.250000 0.000000
O O11 0.241747 0.368592 0.121635
O O12 0.799694 0.250000 0.250000
O O13 0.955004 0.775436 0.849012
O O14 0.981156 0.353610 0.974613
O O15 0.500000 0.583143 0.750000
O O16 0.428923 0.585071 0.928647
O O17 0.000000 0.000000 0.000000
#
# Coordination Sequence:
#
# PCOD9508286 Si02
#       8
#    16  16  16  16   4  16  16  16
#     4  12  27  43  70 105 143 192 248 306 379 451
#     4  12  24  42  68 101 137 196 246 300 378 454
#     4  10  21  44  71 104 143 179 239 318 389 445
#     4  10  22  41  74 107 139 184 244 317 389 456
#     4  12  24  36  62 100 140 180 238 322 332 404
#     4  12  24  41  66  99 139 190 252 298 355 443
#     4  12  25  44  64  95 147 195 238 291 367 454
#     4  12  22  41  63  94 144 194 238 292 361 436
#
# _framework density 24.283964000000001
#
# number of rings (size 3 to 8) (size 9 to 14) (size 15 to 20)
#    0.000    0.552    4.138    5.379    2.897    1.379 
#    0.000    0.690    0.000    3.310    0.000    0.000 
#    0.000    0.000    0.000    0.000    0.000    0.000 
#
# Total GULP energy -322987.300333 kJ/mol
# GULP energy per Si atom -5568.746557 kJ/mol
# Density = 2.422869 g / cm^3
# Si number density = 24.283964 Si / 1000 Ang^3
#
#
#
# Elastic Constant Matrix: (Units=GPa)
#
#
# Indices 1 2 3 4 5 6 
#
# 1 97.2561 25.1850 31.3434 0.0000 0.0000 0.0000
# 2 25.1850 68.6903 7.4025 0.0000 0.0000 0.0000
# 3 31.3434 7.4025 141.5155 0.0000 0.0000 0.0000
# 4 0.0000 0.0000 0.0000 30.4707 0.0000 0.0000
# 5 0.0000 0.0000 0.0000 0.0000 39.3786 0.0000
# 6 0.0000 0.0000 0.0000 0.0000 0.0000 21.0787
#
#
#
# Elastic Compliance Matrix: (Units=1/GPa)
#
#
# Indices 1 2 3 4 5 6 
#
# 1 0.012166 -0.004194 -0.002475 0.000000 0.000000 0.000000
# 2 -0.004194 0.016086 0.000087 0.000000 0.000000 0.000000
# 3 -0.002475 0.000087 0.007610 0.000000 0.000000 0.000000
# 4 0.000000 0.000000 0.000000 0.032818 0.000000 0.000000
# 5 0.000000 0.000000 0.000000 0.000000 0.025395 0.000000
# 6 0.000000 0.000000 0.000000 0.000000 0.000000 0.047441
#
#
# Mechanical properties :
#
#
# Convention : Reuss Voigt Hill
#
# Bulk Modulus (GPa) = 44.05476 48.36928 46.21202
# Shear Modulus (GPa) = 30.81743 34.42098 32.61921
#
# Velocity S-wave (km/s) = 3.56623 3.76897 3.66900
# Velocity P-wave (km/s) = 5.92775 6.23712 6.08440
#
# Compressibility (1/GPa) = 0.02269902
#
# Stress axis : x y z
#
# Youngs Moduli (GPa) = 82.19743 62.16462 131.40604
#
# Poissons Ratio (x) = 0.26071 0.32525
# Poissons Ratio (y) = 0.34472 -0.01149
# Poissons Ratio (z) = 0.20345 -0.00543
#
# Static dielectric constant tensor:
#      x y z
#    x 2.445290 0.000000 0.000000 
#    y 0.000000 1.383480 0.000000 
#    z 0.000000 0.000000 2.352060 
# 
# From -- ./inp_files/17254.got.cif
#   From: 2010.05.17/outbox.cif.g08.bks.cpg/sg68_9_cif.got.tgz:17254.got - 2010.06.03 18:57:09.
