data_PCOD9508577
_publ_section_title
;
Structure prediction by ZEFSAII (Michael W. Deem and Ramdas Pophale) SiO2 
 PCOD9508577
Probable space group: C C C A
;
_chemical_formula_sum "Si O2"
_cell_formula_units_Z 80
_cell_length_a 12.528278
_cell_length_b 9.668430
_cell_length_c 28.477336
_cell_angle_alpha 90.000000
_cell_angle_beta 90.000000
_cell_angle_gamma 90.000000
_cell_volume 3449.424935
_symmetry_space_group_name_H-M "C C C A"
_symmetry_group_IT_number 68
_space_group.IT_coordinate_system_code '2'
_symmetry_cell_setting 'orthorhombic'
loop_
_space_group_symop_operation_xyz
x,y,z
-x,1/2-y,z
x,1/2-y,1/2-z
-x,y,1/2-z
-x,-y,-z
x,1/2+y,-z
-x,1/2+y,1/2+z
x,-y,1/2+z
1/2+x,1/2+y,z
1/2-x,-y,z
1/2+x,-y,1/2-z
1/2-x,1/2+y,1/2-z
1/2-x,1/2-y,-z
1/2+x,y,-z
1/2-x,y,1/2+z
1/2+x,1/2-y,1/2+z
loop_
_atom_site_type_symbol
_atom_site_label
_atom_site_fract_x
_atom_site_fract_y
_atom_site_fract_z
Si Si1 0.646437 0.906711 0.960423
Si Si2 0.782706 0.851866 0.365535
Si Si3 0.348756 0.587554 0.148591
Si Si4 0.050575 0.113681 0.443309
Si Si5 0.474552 0.905458 0.695067
O O1 0.661847 0.805221 0.915105
O O2 0.750000 0.000000 0.973385
O O3 0.546184 0.007567 0.949751
O O4 0.608272 0.837440 0.009100
O O5 0.692760 0.745222 0.349444
O O6 0.853232 0.902968 0.321578
O O7 0.750000 0.000000 0.384973
O O8 0.250000 0.500000 0.168535
O O9 0.366962 0.555098 0.094011
O O10 0.455463 0.528151 0.172694
O O11 0.000000 0.250000 0.420116
O O12 0.500000 0.750000 0.676899
O O13 0.500000 0.908153 0.750000
#
# Coordination Sequence:
#
# PCOD9508577 Si02
#       5
#    16  16  16  16  16
#     4  10  22  40  62  98 140 188 230 290 347 412
#     4  11  24  45  73 101 148 183 232 299 356 421
#     4  12  25  43  73 104 136 191 236 281 367 439
#     4  11  23  38  65  98 141 184 239 284 342 420
#     4  11  25  49  73 104 142 180 240 308 365 435
#
# _framework density 23.192271999999999
#
# number of rings (size 3 to 8) (size 9 to 14) (size 15 to 20)
#    0.000    1.000    4.000    3.000    0.000    8.000 
#    0.000    1.000    0.000    0.000    0.000    0.000 
#    0.000    0.000    0.000    0.000    0.000    0.000 
#
# Total GULP energy -222838.454830 kJ/mol
# GULP energy per Si atom -5570.961371 kJ/mol
# Density = 2.313949 g / cm^3
# Si number density = 23.192272 Si / 1000 Ang^3
#
#
#
# Elastic Constant Matrix: (Units=GPa)
#
#
# Indices 1 2 3 4 5 6 
#
# 1 116.2006 40.2699 37.4554 0.0000 0.0000 0.0000
# 2 40.2699 104.9038 19.7249 0.0000 0.0000 0.0000
# 3 37.4554 19.7249 104.8769 0.0000 0.0000 0.0000
# 4 0.0000 0.0000 0.0000 16.5996 0.0000 0.0000
# 5 0.0000 0.0000 0.0000 0.0000 27.9256 0.0000
# 6 0.0000 0.0000 0.0000 0.0000 0.0000 42.2594
#
#
#
# Elastic Compliance Matrix: (Units=1/GPa)
#
#
# Indices 1 2 3 4 5 6 
#
# 1 0.010880 -0.003572 -0.003214 0.000000 0.000000 0.000000
# 2 -0.003572 0.011055 -0.000803 0.000000 0.000000 0.000000
# 3 -0.003214 -0.000803 0.010834 0.000000 0.000000 0.000000
# 4 0.000000 0.000000 0.000000 0.060242 0.000000 0.000000
# 5 0.000000 0.000000 0.000000 0.000000 0.035809 0.000000
# 6 0.000000 0.000000 0.000000 0.000000 0.000000 0.023663
#
#
# Mechanical properties :
#
#
# Convention : Reuss Voigt Hill
#
# Bulk Modulus (GPa) = 56.85108 57.87576 57.36342
# Shear Modulus (GPa) = 28.81424 32.59231 30.70327
#
# Velocity S-wave (km/s) = 3.52860 3.75281 3.64243
# Velocity P-wave (km/s) = 6.41619 6.61718 6.51746
#
# Compressibility (1/GPa) = 0.01758982
#
# Stress axis : x y z
#
# Youngs Moduli (GPa) = 91.91481 90.45793 92.30351
#
# Poissons Ratio (x) = 0.32313 0.29663
# Poissons Ratio (y) = 0.32833 0.07416
# Poissons Ratio (z) = 0.29539 0.07268
#
# Static dielectric constant tensor:
#      x y z
#    x 1.843320 0.000000 0.000000 
#    y 0.000000 1.725920 0.000000 
#    z 0.000000 0.000000 1.869090 
# 
# From -- ./inp_files/54505.got.cif
#   From: 2010.05.17/outbox.cif.g08.bks.cpg/sg68_28_cif.got.tgz:54505.got - 2010.06.03 18:57:09.
