data_PCOD9508213
_publ_section_title
;
Structure prediction by ZEFSAII (Michael W. Deem and Ramdas Pophale) SiO2 
 PCOD9508213
Probable space group: C C C A
;
_chemical_formula_sum "Si O2"
_cell_formula_units_Z 80
_cell_length_a 15.037603
_cell_length_b 11.671415
_cell_length_c 22.656716
_cell_angle_alpha 90.000000
_cell_angle_beta 90.000000
_cell_angle_gamma 90.000000
_cell_volume 3976.482609
_symmetry_space_group_name_H-M "C C C A"
_symmetry_group_IT_number 68
_space_group.IT_coordinate_system_code '2'
_symmetry_cell_setting 'orthorhombic'
loop_
_space_group_symop_operation_xyz
x,y,z
-x,1/2-y,z
x,1/2-y,1/2-z
-x,y,1/2-z
-x,-y,-z
x,1/2+y,-z
-x,1/2+y,1/2+z
x,-y,1/2+z
1/2+x,1/2+y,z
1/2-x,-y,z
1/2+x,-y,1/2-z
1/2-x,1/2+y,1/2-z
1/2-x,1/2-y,-z
1/2+x,y,-z
1/2-x,y,1/2+z
1/2+x,1/2-y,1/2+z
loop_
_atom_site_type_symbol
_atom_site_label
_atom_site_fract_x
_atom_site_fract_y
_atom_site_fract_z
Si Si1 0.198685 0.124255 0.490817
Si Si2 0.550919 0.629872 0.388601
Si Si3 0.619285 0.518763 0.606990
Si Si4 0.248101 0.148892 0.168149
Si Si5 0.698596 0.388591 0.802761
O O1 0.250000 0.250000 0.500000
O O2 0.127612 0.133035 0.437950
O O3 0.250000 0.000000 0.481070
O O4 0.144601 0.093612 0.550403
O O5 0.500000 0.750000 0.390052
O O6 0.479166 0.529206 0.396737
O O7 0.598770 0.614338 0.325743
O O8 0.653809 0.597130 0.661073
O O9 0.684656 0.408813 0.618695
O O10 0.247355 0.283481 0.165561
O O11 0.207401 0.122400 0.232360
O O12 0.750000 0.500000 0.821770
#
# Coordination Sequence:
#
# PCOD9508213 Si02
#       5
#    16  16  16  16  16
#     4  12  25  46  76 101 143 191 234 288 363 437
#     4  12  25  41  67 111 140 176 242 298 348 415
#     4  11  21  44  67  97 141 180 224 294 343 415
#     4  10  21  42  69  94 137 190 224 279 367 411
#     4  11  22  42  68 102 137 181 239 280 346 442
#
# _framework density 20.118282000000001
#
# number of rings (size 3 to 8) (size 9 to 14) (size 15 to 20)
#    0.000    0.800    6.000    3.600    0.000    0.800 
#    0.000    3.000    0.000    2.400    0.000    0.000 
#    0.000    0.000    0.000    0.000    0.000    0.000 
#
# Total GULP energy -222885.821189 kJ/mol
# GULP energy per Si atom -5572.145530 kJ/mol
# Density = 2.007249 g / cm^3
# Si number density = 20.118282 Si / 1000 Ang^3
#
#
#
# Elastic Constant Matrix: (Units=GPa)
#
#
# Indices 1 2 3 4 5 6 
#
# 1 129.6345 72.9362 59.9116 0.0000 0.0000 0.0000
# 2 72.9362 180.7983 42.3916 0.0000 0.0000 0.0000
# 3 59.9116 42.3916 114.4714 0.0000 0.0000 0.0000
# 4 0.0000 0.0000 0.0000 -59.0366 0.0000 0.0000
# 5 0.0000 0.0000 0.0000 0.0000 73.5109 0.0000
# 6 0.0000 0.0000 0.0000 0.0000 0.0000 45.6651
#
#
#
# Elastic Compliance Matrix: (Units=1/GPa)
#
#
# Indices 1 2 3 4 5 6 
#
# 1 0.012095 -0.003718 -0.004953 0.000000 0.000000 0.000000
# 2 -0.003718 0.007200 -0.000720 0.000000 0.000000 0.000000
# 3 -0.004953 -0.000720 0.011595 0.000000 0.000000 0.000000
# 4 0.000000 0.000000 0.000000 -0.016939 0.000000 0.000000
# 5 0.000000 0.000000 0.000000 0.000000 0.013603 0.000000
# 6 0.000000 0.000000 0.000000 0.000000 0.000000 0.021899
#
#
# Mechanical properties :
#
#
# Convention : Reuss Voigt Hill
#
# Bulk Modulus (GPa) = 82.60031 86.15366 84.37699
# Shear Modulus (GPa) = 69.18291 28.67220 48.92756
#
# Velocity S-wave (km/s) = 5.87050 3.77925 4.93688
# Velocity P-wave (km/s) = 9.33257 7.87148 8.63299
#
# Compressibility (1/GPa) = 0.01210649
#
# Stress axis : x y z
#
# Youngs Moduli (GPa) = 82.67852 138.89336 86.24323
#
# Poissons Ratio (x) = 0.51639 0.42720
# Poissons Ratio (y) = 0.30739 0.06213
# Poissons Ratio (z) = 0.40954 0.10006
#
# Static dielectric constant tensor:
#      x y z
#    x 1.717570 0.000000 0.000000 
#    y 0.000000 1.790360 0.000000 
#    z 0.000000 0.000000 1.782570 
# 
# From -- ./inp_files/45154.got.cif
#   From: 2010.05.17/outbox.cif.g08.bks.cpg/sg68_23_cif.got.tgz:45154.got - 2010.06.03 18:57:09.
