data_PCOD9508824
_publ_section_title
;
Structure prediction by ZEFSAII (Michael W. Deem and Ramdas Pophale) SiO2 
 PCOD9508824
Probable space group: C C C A
;
_chemical_formula_sum "Si O2"
_cell_formula_units_Z 88
_cell_length_a 22.995234
_cell_length_b 12.097843
_cell_length_c 13.844485
_cell_angle_alpha 90.000000
_cell_angle_beta 90.000000
_cell_angle_gamma 90.000000
_cell_volume 3851.435087
_symmetry_space_group_name_H-M "C C C A"
_symmetry_group_IT_number 68
_space_group.IT_coordinate_system_code '2'
_symmetry_cell_setting 'orthorhombic'
loop_
_space_group_symop_operation_xyz
x,y,z
-x,1/2-y,z
x,1/2-y,1/2-z
-x,y,1/2-z
-x,-y,-z
x,1/2+y,-z
-x,1/2+y,1/2+z
x,-y,1/2+z
1/2+x,1/2+y,z
1/2-x,-y,z
1/2+x,-y,1/2-z
1/2-x,1/2+y,1/2-z
1/2-x,1/2-y,-z
1/2+x,y,-z
1/2-x,y,1/2+z
1/2+x,1/2-y,1/2+z
loop_
_atom_site_type_symbol
_atom_site_label
_atom_site_fract_x
_atom_site_fract_y
_atom_site_fract_z
Si Si1 0.592763 0.750000 0.250000
Si Si2 0.570282 0.420641 0.399921
Si Si3 0.124628 0.250000 0.750000
Si Si4 0.163181 0.537003 0.340956
Si Si5 0.750000 0.000000 0.007284
Si Si6 0.957418 0.565297 0.618925
Si Si7 0.671618 0.411236 0.852658
O O1 0.554646 0.838693 0.305548
O O2 0.634792 0.802677 0.168705
O O3 0.585678 0.320986 0.326439
O O4 0.551701 0.390009 0.509333
O O5 0.517443 0.500535 0.368101
O O6 0.627370 0.498364 0.397966
O O7 0.165303 0.164349 0.690991
O O8 0.197329 0.493806 0.432933
O O9 0.095049 0.518950 0.360698
O O10 0.183947 0.461832 0.252272
O O11 0.728485 0.904663 0.080972
#
# Coordination Sequence:
#
# PCOD9508824 Si02
#       7
#     8  16   8  16   8  16  16
#     4  10  24  43  71 104 140 178 237 277 342 424
#     4  10  22  42  69 102 139 180 225 282 346 411
#     4  10  24  43  71 104 140 178 237 277 342 424
#     4  10  23  43  66  99 136 180 226 283 345 398
#     4  12  22  44  72  88 142 184 220 292 344 390
#     4  10  22  42  69 102 139 180 225 282 346 411
#     4  10  23  43  66  99 136 180 226 283 345 398
#
# _framework density 22.848625999999999
#
# number of rings (size 3 to 8) (size 9 to 14) (size 15 to 20)
#    0.000    1.818    1.818    0.545    2.545    9.455 
#    0.000   25.455    0.000    1.091    0.000    0.000 
#    0.000    0.000    0.000    0.000    0.000    0.000 
#
# Total GULP energy -245721.746682 kJ/mol
# GULP energy per Si atom -5584.585152 kJ/mol
# Density = 2.279662 g / cm^3
# Si number density = 22.848626 Si / 1000 Ang^3
#
#
#
# Elastic Constant Matrix: (Units=GPa)
#
#
# Indices 1 2 3 4 5 6 
#
# 1 84.6016 39.0057 55.0546 0.0000 0.0000 0.0000
# 2 39.0057 76.2986 22.2015 0.0000 0.0000 0.0000
# 3 55.0546 22.2015 124.6928 0.0000 0.0000 0.0000
# 4 0.0000 0.0000 0.0000 8.0982 0.0000 0.0000
# 5 0.0000 0.0000 0.0000 0.0000 21.4229 0.0000
# 6 0.0000 0.0000 0.0000 0.0000 0.0000 18.6408
#
#
#
# Elastic Compliance Matrix: (Units=1/GPa)
#
#
# Indices 1 2 3 4 5 6 
#
# 1 0.020616 -0.008322 -0.007621 0.000000 0.000000 0.000000
# 2 -0.008322 0.017182 0.000615 0.000000 0.000000 0.000000
# 3 -0.007621 0.000615 0.011275 0.000000 0.000000 0.000000
# 4 0.000000 0.000000 0.000000 0.123484 0.000000 0.000000
# 5 0.000000 0.000000 0.000000 0.000000 0.046679 0.000000
# 6 0.000000 0.000000 0.000000 0.000000 0.000000 0.053646
#
#
# Mechanical properties :
#
#
# Convention : Reuss Voigt Hill
#
# Bulk Modulus (GPa) = 54.29572 57.56851 55.93211
# Shear Modulus (GPa) = 16.14587 20.92112 18.53350
#
# Velocity S-wave (km/s) = 2.66116 3.02924 2.85115
# Velocity P-wave (km/s) = 5.76691 6.12253 5.94738
#
# Compressibility (1/GPa) = 0.01841766
#
# Stress axis : x y z
#
# Youngs Moduli (GPa) = 48.50551 58.20102 88.69235
#
# Poissons Ratio (x) = 0.48435 0.67591
# Poissons Ratio (y) = 0.40366 -0.05456
# Poissons Ratio (z) = 0.36965 -0.03580
#
# Static dielectric constant tensor:
#      x y z
#    x 1.875450 0.000000 0.000000 
#    y 0.000000 1.852760 0.000000 
#    z 0.000000 0.000000 1.926480 
# 
# From -- ./inp_files/25991.got.cif
#   From: 2010.05.17/outbox.cif.g08.bks.cpg/sg68_13_cif.got.tgz:25991.got - 2010.06.03 18:57:09.
