data_PCOD9508276
_publ_section_title
;
Structure prediction by ZEFSAII (Michael W. Deem and Ramdas Pophale) SiO2 
 PCOD9508276
Probable space group: C C C A
;
_chemical_formula_sum "Si O2"
_cell_formula_units_Z 116
_cell_length_a 9.780030
_cell_length_b 28.273261
_cell_length_c 15.233588
_cell_angle_alpha 90.000000
_cell_angle_beta 90.000000
_cell_angle_gamma 90.000000
_cell_volume 4212.290310
_symmetry_space_group_name_H-M "C C C A"
_symmetry_group_IT_number 68
_space_group.IT_coordinate_system_code '2'
_symmetry_cell_setting 'orthorhombic'
loop_
_space_group_symop_operation_xyz
x,y,z
-x,1/2-y,z
x,1/2-y,1/2-z
-x,y,1/2-z
-x,-y,-z
x,1/2+y,-z
-x,1/2+y,1/2+z
x,-y,1/2+z
1/2+x,1/2+y,z
1/2-x,-y,z
1/2+x,-y,1/2-z
1/2-x,1/2+y,1/2-z
1/2-x,1/2-y,-z
1/2+x,y,-z
1/2-x,y,1/2+z
1/2+x,1/2-y,1/2+z
loop_
_atom_site_type_symbol
_atom_site_label
_atom_site_fract_x
_atom_site_fract_y
_atom_site_fract_z
Si Si1 0.510712 0.435768 0.355553
Si Si2 0.182575 0.624578 0.783906
Si Si3 0.500000 0.250000 0.250000
Si Si4 0.558351 0.965852 0.351559
Si Si5 0.004448 0.803130 0.890684
Si Si6 0.701966 0.079530 0.593091
Si Si7 0.060719 0.168859 0.637982
Si Si8 0.260169 0.825590 0.989974
O O1 0.500000 0.431099 0.250000
O O2 0.413248 0.480115 0.377972
O O3 0.663751 0.450605 0.384743
O O4 0.499692 0.381880 0.390826
O O5 0.073110 0.660516 0.826509
O O6 0.172282 0.607230 0.684676
O O7 0.327659 0.649456 0.792209
O O8 0.166944 0.576215 0.840276
O O9 0.536152 0.290810 0.322933
O O10 0.500000 0.969583 0.250000
O O11 0.440614 0.947181 0.417360
O O12 0.834025 0.690890 0.909382
O O13 0.000000 0.750000 0.857978
O O14 0.911837 0.810237 0.980648
O O15 0.739993 0.117729 0.519183
O O16 0.165500 0.191733 0.569654
#
# Coordination Sequence:
#
# PCOD9508276 Si02
#       8
#    16  16   4  16  16  16  16  16
#     4  11  20  39  68 105 130 177 245 294 344 417
#     4  10  21  44  66  96 138 179 233 285 360 418
#     4  12  24  48  72 104 150 186 244 308 356 416
#     4   9  20  35  67  99 135 178 232 292 351 420
#     4  11  24  45  67  99 132 189 235 297 353 436
#     4  11  20  41  69  96 138 184 219 292 358 433
#     4  11  24  43  68 102 135 182 231 295 350 422
#     4  11  25  44  72  95 143 181 235 290 373 435
#
# _framework density 27.538461000000002
#
# number of rings (size 3 to 8) (size 9 to 14) (size 15 to 20)
#    0.000    1.379    3.448    1.655    0.966    0.552 
#    9.931    1.379    6.069    0.000    0.000    0.000 
#    0.000    0.000    0.000    0.000    0.000    0.000 
#
# Total GULP energy -323267.599372 kJ/mol
# GULP energy per Si atom -5573.579300 kJ/mol
# Density = 2.747578 g / cm^3
# Si number density = 27.538461 Si / 1000 Ang^3
#
#
#
# Elastic Constant Matrix: (Units=GPa)
#
#
# Indices 1 2 3 4 5 6 
#
# 1 124.9550 54.6908 19.8225 0.0000 0.0000 0.0000
# 2 54.6908 194.9492 22.6143 0.0000 0.0000 0.0000
# 3 19.8225 22.6143 53.4151 0.0000 0.0000 0.0000
# 4 0.0000 0.0000 0.0000 16.3374 0.0000 0.0000
# 5 0.0000 0.0000 0.0000 0.0000 33.2036 0.0000
# 6 0.0000 0.0000 0.0000 0.0000 0.0000 23.1809
#
#
#
# Elastic Compliance Matrix: (Units=1/GPa)
#
#
# Indices 1 2 3 4 5 6 
#
# 1 0.009431 -0.002355 -0.002503 0.000000 0.000000 0.000000
# 2 -0.002355 0.005983 -0.001659 0.000000 0.000000 0.000000
# 3 -0.002503 -0.001659 0.020352 0.000000 0.000000 0.000000
# 4 0.000000 0.000000 0.000000 0.061209 0.000000 0.000000
# 5 0.000000 0.000000 0.000000 0.000000 0.030117 0.000000
# 6 0.000000 0.000000 0.000000 0.000000 0.000000 0.043139
#
#
# Mechanical properties :
#
#
# Convention : Reuss Voigt Hill
#
# Bulk Modulus (GPa) = 43.99039 63.06385 53.52712
# Shear Modulus (GPa) = 26.19964 32.95716 29.57840
#
# Velocity S-wave (km/s) = 3.08780 3.46319 3.28087
# Velocity P-wave (km/s) = 5.35924 6.24032 5.81649
#
# Compressibility (1/GPa) = 0.02273224
#
# Stress axis : x y z
#
# Youngs Moduli (GPa) = 106.03546 167.14730 49.13443
#
# Poissons Ratio (x) = 0.39370 0.12296
# Poissons Ratio (y) = 0.24976 0.08151
# Poissons Ratio (z) = 0.26536 0.27727
#
# Static dielectric constant tensor:
#      x y z
#    x 2.274820 0.000000 0.000000 
#    y 0.000000 2.152030 0.000000 
#    z 0.000000 0.000000 2.222120 
# 
# From -- ./inp_files/30035.got.cif
#   From: 2010.05.17/outbox.cif.g08.bks.cpg/sg68_16_cif.got.tgz:30035.got - 2010.06.03 18:57:09.
