data_PCOD9508682
_publ_section_title
;
Structure prediction by ZEFSAII (Michael W. Deem and Ramdas Pophale) SiO2 
 PCOD9508682
Probable space group: C C C A
;
_chemical_formula_sum "Si O2"
_cell_formula_units_Z 72
_cell_length_a 17.717445
_cell_length_b 9.250897
_cell_length_c 18.592190
_cell_angle_alpha 90.000000
_cell_angle_beta 90.000000
_cell_angle_gamma 90.000000
_cell_volume 3047.301937
_symmetry_space_group_name_H-M "C C C A"
_symmetry_group_IT_number 68
_space_group.IT_coordinate_system_code '2'
_symmetry_cell_setting 'orthorhombic'
loop_
_space_group_symop_operation_xyz
x,y,z
-x,1/2-y,z
x,1/2-y,1/2-z
-x,y,1/2-z
-x,-y,-z
x,1/2+y,-z
-x,1/2+y,1/2+z
x,-y,1/2+z
1/2+x,1/2+y,z
1/2-x,-y,z
1/2+x,-y,1/2-z
1/2-x,1/2+y,1/2-z
1/2-x,1/2-y,-z
1/2+x,y,-z
1/2-x,y,1/2+z
1/2+x,1/2-y,1/2+z
loop_
_atom_site_type_symbol
_atom_site_label
_atom_site_fract_x
_atom_site_fract_y
_atom_site_fract_z
Si Si1 0.914561 0.208732 0.863479
Si Si2 0.322931 0.250000 0.750000
Si Si3 0.840944 0.503853 0.856886
Si Si4 0.821443 0.564542 0.622839
Si Si5 0.084849 0.795505 0.963734
O O1 0.865697 0.343523 0.836674
O O2 0.000000 0.250000 0.843188
O O3 0.879858 0.052602 0.845610
O O4 0.910425 0.202424 0.950665
O O5 0.363021 0.127133 0.798489
O O6 0.284476 0.153757 0.688973
O O7 0.750000 0.500000 0.865678
O O8 0.886468 0.555259 0.928002
O O9 0.750000 0.500000 0.582261
O O10 0.862597 0.674261 0.570782
O O11 0.000000 0.750000 0.943686
#
# Coordination Sequence:
#
# PCOD9508682 Si02
#       5
#    16   8  16  16  16
#     4  11  23  40  63  93 126 159 200 250 304 361
#     4  10  24  44  61  84 125 166 200 252 318 350
#     4  11  23  40  65  91 119 161 208 251 297 360
#     4  11  23  40  65  91 119 161 208 251 297 360
#     4  10  22  41  62  90 132 165 187 239 318 372
#
# _framework density 23.627457
#
# number of rings (size 3 to 8) (size 9 to 14) (size 15 to 20)
#    0.000    1.333    0.000    6.000    0.000    9.778 
#    0.000   21.111    0.000    0.000    0.000    0.000 
#    0.000    0.000    0.000    0.000    0.000    0.000 
#
# Total GULP energy -201166.826604 kJ/mol
# GULP energy per Si atom -5587.967406 kJ/mol
# Density = 2.357368 g / cm^3
# Si number density = 23.627457 Si / 1000 Ang^3
#
#
#
# Elastic Constant Matrix: (Units=GPa)
#
#
# Indices 1 2 3 4 5 6 
#
# 1 113.8225 15.0298 13.9752 0.0000 0.0000 0.0000
# 2 15.0298 113.3857 9.9129 0.0000 0.0000 0.0000
# 3 13.9752 9.9129 68.0250 0.0000 0.0000 0.0000
# 4 0.0000 0.0000 0.0000 35.5913 0.0000 0.0000
# 5 0.0000 0.0000 0.0000 0.0000 -0.5487 0.0000
# 6 0.0000 0.0000 0.0000 0.0000 0.0000 27.9926
#
#
#
# Elastic Compliance Matrix: (Units=1/GPa)
#
#
# Indices 1 2 3 4 5 6 
#
# 1 0.009137 -0.001061 -0.001723 0.000000 0.000000 0.000000
# 2 -0.001061 0.009056 -0.001102 0.000000 0.000000 0.000000
# 3 -0.001723 -0.001102 0.015215 0.000000 0.000000 0.000000
# 4 0.000000 0.000000 0.000000 0.028097 0.000000 0.000000
# 5 0.000000 0.000000 0.000000 0.000000 -1.822529 0.000000
# 6 0.000000 0.000000 0.000000 0.000000 0.000000 0.035724
#
#
# Mechanical properties :
#
#
# Convention : Reuss Voigt Hill
#
# Bulk Modulus (GPa) = 39.00395 41.45210 40.22803
# Shear Modulus (GPa) = -2.92572 29.69472 13.38450
#
# Velocity S-wave (km/s) = -1.11398 3.54897 2.38267
# Velocity P-wave (km/s) = 3.85864 5.86308 4.96310
#
# Compressibility (1/GPa) = 0.02563843
#
# Stress axis : x y z
#
# Youngs Moduli (GPa) = 109.44326 110.41949 65.72484
#
# Poissons Ratio (x) = 0.11711 0.11322
# Poissons Ratio (y) = 0.11607 0.07242
# Poissons Ratio (z) = 0.18853 0.12167
#
# Static dielectric constant tensor:
#      x y z
#    x 1.867480 0.000000 0.000000 
#    y 0.000000 -1.223710 0.000000 
#    z 0.000000 0.000000 1.930990 
# 
# From -- ./inp_files/40078.got.cif
#   From: 2010.05.17/outbox.cif.g08.bks.cpg/sg68_21_cif.got.tgz:40078.got - 2010.06.03 18:57:09.
