data_PCOD9508085
_publ_section_title
;
Structure prediction by ZEFSAII (Michael W. Deem and Ramdas Pophale) SiO2 
 PCOD9508085
Probable space group: C C C A
;
_chemical_formula_sum "Si O2"
_cell_formula_units_Z 56
_cell_length_a 5.599558
_cell_length_b 14.188468
_cell_length_c 28.496349
_cell_angle_alpha 90.000000
_cell_angle_beta 90.000000
_cell_angle_gamma 90.000000
_cell_volume 2264.010692
_symmetry_space_group_name_H-M "C C C A"
_symmetry_group_IT_number 68
_space_group.IT_coordinate_system_code '2'
_symmetry_cell_setting 'orthorhombic'
loop_
_space_group_symop_operation_xyz
x,y,z
-x,1/2-y,z
x,1/2-y,1/2-z
-x,y,1/2-z
-x,-y,-z
x,1/2+y,-z
-x,1/2+y,1/2+z
x,-y,1/2+z
1/2+x,1/2+y,z
1/2-x,-y,z
1/2+x,-y,1/2-z
1/2-x,1/2+y,1/2-z
1/2-x,1/2-y,-z
1/2+x,y,-z
1/2-x,y,1/2+z
1/2+x,1/2-y,1/2+z
loop_
_atom_site_type_symbol
_atom_site_label
_atom_site_fract_x
_atom_site_fract_y
_atom_site_fract_z
Si Si1 0.300096 0.642592 0.517793
Si Si2 0.390117 0.402608 0.202787
Si Si3 0.250000 0.000000 0.634887
Si Si4 0.625503 0.152111 0.614111
O O1 0.250000 0.750000 0.500000
O O2 0.539952 0.601806 0.495354
O O3 0.325147 0.640243 0.574146
O O4 0.500000 0.360976 0.250000
O O5 0.250000 0.500000 0.215439
O O6 0.606110 0.430593 0.168984
O O7 0.219093 0.346084 0.167578
O O8 0.443474 0.064796 0.609394
O O9 0.500000 0.250000 0.603303
#
# Coordination Sequence:
#
# PCOD9508085 Si02
#       4
#    16  16   8  16
#     4  10  21  40  70 101 143 196 242 302 388 435
#     4  10  21  42  73  96 139 188 231 294 367 437
#     4  10  24  42  68  98 138 184 242 292 378 428
#     4  11  24  42  71 105 141 187 248 305 368 458
#
# _framework density 24.734864000000002
#
# number of rings (size 3 to 8) (size 9 to 14) (size 15 to 20)
#    0.000    1.714    4.286    0.000    4.000    1.143 
#    0.000    5.714    0.000    0.000    0.000    0.000 
#    0.000    0.000    0.000    0.000    0.000    0.000 
#
# Total GULP energy -156550.906912 kJ/mol
# GULP energy per Si atom -5591.103818 kJ/mol
# Density = 2.467857 g / cm^3
# Si number density = 24.734864 Si / 1000 Ang^3
#
#
#
# Elastic Constant Matrix: (Units=GPa)
#
#
# Indices 1 2 3 4 5 6 
#
# 1 104.3939 -3.3559 35.3039 0.0000 0.0000 0.0000
# 2 -3.3559 74.1505 30.6501 0.0000 0.0000 0.0000
# 3 35.3039 30.6501 167.4222 0.0000 0.0000 0.0000
# 4 0.0000 0.0000 0.0000 49.2232 0.0000 0.0000
# 5 0.0000 0.0000 0.0000 0.0000 -8.2876 0.0000
# 6 0.0000 0.0000 0.0000 0.0000 0.0000 11.4738
#
#
#
# Elastic Compliance Matrix: (Units=1/GPa)
#
#
# Indices 1 2 3 4 5 6 
#
# 1 0.010467 0.001499 -0.002482 0.000000 0.000000 0.000000
# 2 0.001499 0.014805 -0.003027 0.000000 0.000000 0.000000
# 3 -0.002482 -0.003027 0.007050 0.000000 0.000000 0.000000
# 4 0.000000 0.000000 0.000000 0.020316 0.000000 0.000000
# 5 0.000000 0.000000 0.000000 0.000000 -0.120662 0.000000
# 6 0.000000 0.000000 0.000000 0.000000 0.000000 0.087155
#
#
# Mechanical properties :
#
#
# Convention : Reuss Voigt Hill
#
# Bulk Modulus (GPa) = 41.14472 52.35144 46.74808
# Shear Modulus (GPa) = 141.84467 29.37311 85.60889
#
# Velocity S-wave (km/s) = 7.58093 3.44978 5.88946
# Velocity P-wave (km/s) = 9.65908 6.08925 8.07393
#
# Compressibility (1/GPa) = 0.02430445
#
# Stress axis : x y z
#
# Youngs Moduli (GPa) = 95.54278 67.54491 141.83843
#
# Poissons Ratio (x) = -0.10128 0.35198
# Poissons Ratio (y) = -0.14326 0.42928
# Poissons Ratio (z) = 0.23709 0.20443
#
# Static dielectric constant tensor:
#      x y z
#    x 1.849570 0.000000 0.000000 
#    y 0.000000 1.984230 0.000000 
#    z 0.000000 0.000000 1.919760 
# 
# From -- ./inp_files/47930.got.cif
#   From: 2010.05.17/outbox.cif.g08.bks.cpg/sg68_24_cif.got.tgz:47930.got - 2010.06.03 18:57:09.
