data_PCOD9508836
_publ_section_title
;
Structure prediction by ZEFSAII (Michael W. Deem and Ramdas Pophale) SiO2 
 PCOD9508836
Probable space group: C C C A
;
_chemical_formula_sum "Si O2"
_cell_formula_units_Z 112
_cell_length_a 10.046809
_cell_length_b 14.872017
_cell_length_c 32.180582
_cell_angle_alpha 90.000000
_cell_angle_beta 90.000000
_cell_angle_gamma 90.000000
_cell_volume 4808.303953
_symmetry_space_group_name_H-M "C C C A"
_symmetry_group_IT_number 68
_space_group.IT_coordinate_system_code '2'
_symmetry_cell_setting 'orthorhombic'
loop_
_space_group_symop_operation_xyz
x,y,z
-x,1/2-y,z
x,1/2-y,1/2-z
-x,y,1/2-z
-x,-y,-z
x,1/2+y,-z
-x,1/2+y,1/2+z
x,-y,1/2+z
1/2+x,1/2+y,z
1/2-x,-y,z
1/2+x,-y,1/2-z
1/2-x,1/2+y,1/2-z
1/2-x,1/2-y,-z
1/2+x,y,-z
1/2-x,y,1/2+z
1/2+x,1/2-y,1/2+z
loop_
_atom_site_type_symbol
_atom_site_label
_atom_site_fract_x
_atom_site_fract_y
_atom_site_fract_z
Si Si1 0.706214 0.740147 0.379416
Si Si2 0.814918 0.323524 0.029499
Si Si3 0.381218 0.446935 0.608185
Si Si4 0.230130 0.896587 0.177006
Si Si5 0.564893 0.881815 0.648886
Si Si6 0.647143 0.356792 0.260803
Si Si7 0.584911 0.415219 0.987888
O O1 0.687372 0.788613 0.423612
O O2 0.610467 0.653395 0.374347
O O3 0.688343 0.818202 0.345664
O O4 0.852783 0.689873 0.378960
O O5 0.965066 0.343461 0.015691
O O6 0.750000 0.250000 0.000000
O O7 0.706131 0.400730 0.019564
O O8 0.250000 0.500000 0.623053
O O9 0.475212 0.526962 0.623339
O O10 0.366898 0.430830 0.559177
O O11 0.247668 0.895697 0.226836
O O12 0.080537 0.859272 0.166971
O O13 0.250000 0.000000 0.163341
O O14 0.657972 0.880844 0.690719
O O15 0.647985 0.250000 0.250000
O O16 0.500000 0.392826 0.250000
O O17 0.500000 0.500000 0.000000
#
# Coordination Sequence:
#
# PCOD9508836 Si02
#       7
#    16  16  16  16  16  16  16
#     4  11  24  42  66  96 136 177 232 287 348 420
#     4  12  27  46  70 101 137 188 239 291 364 417
#     4  10  23  43  65  97 133 182 237 281 352 423
#     4  11  24  38  64 105 136 168 229 286 351 414
#     4  10  22  42  70  94 134 183 226 284 347 422
#     4   9  17  38  65  94 129 176 223 278 343 416
#     4  12  27  47  71  98 139 185 240 305 352 428
#
# _framework density 23.293037000000002
#
# number of rings (size 3 to 8) (size 9 to 14) (size 15 to 20)
#    0.000    1.286    2.857    2.143    6.000    2.857 
#    0.000    0.000    0.000    0.000    0.000    0.000 
#    0.000    0.000    0.000    0.000    0.000    0.000 
#
# Total GULP energy -311872.004569 kJ/mol
# GULP energy per Si atom -5569.142939 kJ/mol
# Density = 2.324002 g / cm^3
# Si number density = 23.293037 Si / 1000 Ang^3
#
#
#
# Elastic Constant Matrix: (Units=GPa)
#
#
# Indices 1 2 3 4 5 6 
#
# 1 71.7858 13.7634 11.3982 0.0000 0.0000 0.0000
# 2 13.7634 167.3814 41.9445 0.0000 0.0000 0.0000
# 3 11.3982 41.9445 90.4114 0.0000 0.0000 0.0000
# 4 0.0000 0.0000 0.0000 43.2937 0.0000 0.0000
# 5 0.0000 0.0000 0.0000 0.0000 26.3349 0.0000
# 6 0.0000 0.0000 0.0000 0.0000 0.0000 30.8177
#
#
#
# Elastic Compliance Matrix: (Units=1/GPa)
#
#
# Indices 1 2 3 4 5 6 
#
# 1 0.014314 -0.000820 -0.001424 0.000000 0.000000 0.000000
# 2 -0.000820 0.006807 -0.003055 0.000000 0.000000 0.000000
# 3 -0.001424 -0.003055 0.012657 0.000000 0.000000 0.000000
# 4 0.000000 0.000000 0.000000 0.023098 0.000000 0.000000
# 5 0.000000 0.000000 0.000000 0.000000 0.037972 0.000000
# 6 0.000000 0.000000 0.000000 0.000000 0.000000 0.032449
#
#
# Mechanical properties :
#
#
# Convention : Reuss Voigt Hill
#
# Bulk Modulus (GPa) = 43.13979 51.53232 47.33605
# Shear Modulus (GPa) = 34.33540 37.58741 35.96141
#
# Velocity S-wave (km/s) = 3.84352 4.02142 3.93347
# Velocity P-wave (km/s) = 6.18527 6.61316 6.40279
#
# Compressibility (1/GPa) = 0.02318046
#
# Stress axis : x y z
#
# Youngs Moduli (GPa) = 69.86323 146.90100 79.00602
#
# Poissons Ratio (x) = 0.12048 0.11251
# Poissons Ratio (y) = 0.05730 0.24134
# Poissons Ratio (z) = 0.09949 0.44874
#
# Static dielectric constant tensor:
#      x y z
#    x 0.769860 0.000000 0.000000 
#    y 0.000000 2.137520 0.000000 
#    z 0.000000 0.000000 1.799280 
# 
# From -- ./inp_files/54824.got.cif
#   From: 2010.05.17/outbox.cif.g08.bks.cpg/sg68_28_cif.got.tgz:54824.got - 2010.06.03 18:57:09.
