data_PCOD9508680
_publ_section_title
;
Structure prediction by ZEFSAII (Michael W. Deem and Ramdas Pophale) SiO2 
 PCOD9508680
Probable space group: C C C A
;
_chemical_formula_sum "Si O2"
_cell_formula_units_Z 60
_cell_length_a 4.922011
_cell_length_b 25.189568
_cell_length_c 24.064132
_cell_angle_alpha 90.000000
_cell_angle_beta 90.000000
_cell_angle_gamma 90.000000
_cell_volume 2983.551238
_symmetry_space_group_name_H-M "C C C A"
_symmetry_group_IT_number 68
_space_group.IT_coordinate_system_code '2'
_symmetry_cell_setting 'orthorhombic'
loop_
_space_group_symop_operation_xyz
x,y,z
-x,1/2-y,z
x,1/2-y,1/2-z
-x,y,1/2-z
-x,-y,-z
x,1/2+y,-z
-x,1/2+y,1/2+z
x,-y,1/2+z
1/2+x,1/2+y,z
1/2-x,-y,z
1/2+x,-y,1/2-z
1/2-x,1/2+y,1/2-z
1/2-x,1/2-y,-z
1/2+x,y,-z
1/2-x,y,1/2+z
1/2+x,1/2-y,1/2+z
loop_
_atom_site_type_symbol
_atom_site_label
_atom_site_fract_x
_atom_site_fract_y
_atom_site_fract_z
Si Si1 0.586755 0.831786 0.308619
Si Si2 0.720900 0.937125 0.036392
Si Si3 0.500000 0.250000 0.250000
Si Si4 0.000000 0.962607 0.250000
Si Si5 0.906521 0.382558 0.851305
O O1 0.500000 0.858192 0.250000
O O2 0.294033 0.832602 0.338039
O O3 0.784298 0.784555 0.286597
O O4 0.783116 0.864134 0.348678
O O5 0.813150 0.907069 0.091178
O O6 0.750000 0.000000 0.047358
O O7 0.419807 0.925161 0.015295
O O8 0.902955 0.926086 0.198405
O O9 0.750000 0.000000 0.267634
#
# Coordination Sequence:
#
# PCOD9508680 Si02
#       5
#    16  16   4   8  16
#     4  12  22  39  60  90 131 156 197 251 314 395
#     4  10  22  41  62  87 121 170 226 266 296 347
#     4  12  24  40  66  92 134 160 198 248 328 422
#     4  12  23  34  54  83 128 171 200 238 313 380
#     4  12  23  39  59  91 127 165 206 264 306 367
#
# _framework density 20.110261999999999
#
# number of rings (size 3 to 8) (size 9 to 14) (size 15 to 20)
#    0.000    0.533    5.333    4.400    0.000    3.200 
#    0.000    0.000    0.000    0.000    0.000   18.667 
#    0.000    0.000    0.000    0.000    0.000    0.000 
#
# Total GULP energy -167170.416619 kJ/mol
# GULP energy per Si atom -5572.347221 kJ/mol
# Density = 2.006449 g / cm^3
# Si number density = 20.110262 Si / 1000 Ang^3
#
#
#
# Elastic Constant Matrix: (Units=GPa)
#
#
# Indices 1 2 3 4 5 6 
#
# 1 128.6114 31.8261 6.8722 0.0000 0.0000 0.0000
# 2 31.8261 61.3241 31.9533 0.0000 0.0000 0.0000
# 3 6.8722 31.9533 86.2326 0.0000 0.0000 0.0000
# 4 0.0000 0.0000 0.0000 7.7550 0.0000 0.0000
# 5 0.0000 0.0000 0.0000 0.0000 11.2534 0.0000
# 6 0.0000 0.0000 0.0000 0.0000 0.0000 6.2100
#
#
#
# Elastic Compliance Matrix: (Units=1/GPa)
#
#
# Indices 1 2 3 4 5 6 
#
# 1 0.009030 -0.005343 0.001260 0.000000 0.000000 0.000000
# 2 -0.005343 0.023370 -0.008234 0.000000 0.000000 0.000000
# 3 0.001260 -0.008234 0.014547 0.000000 0.000000 0.000000
# 4 0.000000 0.000000 0.000000 0.128950 0.000000 0.000000
# 5 0.000000 0.000000 0.000000 0.000000 0.088862 0.000000
# 6 0.000000 0.000000 0.000000 0.000000 0.000000 0.161030
#
#
# Mechanical properties :
#
#
# Convention : Reuss Voigt Hill
#
# Bulk Modulus (GPa) = 44.81527 46.38569 45.60048
# Shear Modulus (GPa) = 10.92036 18.74479 14.83258
#
# Velocity S-wave (km/s) = 2.33282 3.05634 2.71876
# Velocity P-wave (km/s) = 5.43960 5.96412 5.70789
#
# Compressibility (1/GPa) = 0.02231383
#
# Stress axis : x y z
#
# Youngs Moduli (GPa) = 110.73900 42.78965 68.74188
#
# Poissons Ratio (x) = 0.22863 -0.08663
# Poissons Ratio (y) = 0.59170 0.56602
# Poissons Ratio (z) = -0.13956 0.35233
#
# Static dielectric constant tensor:
#      x y z
#    x 1.740090 0.000000 0.000000 
#    y 0.000000 1.782030 0.000000 
#    z 0.000000 0.000000 1.681700 
# 
# From -- ./inp_files/34968.got.cif
#   From: 2010.05.17/outbox.cif.g08.bks.cpg/sg68_18_cif.got.tgz:34968.got - 2010.06.03 18:57:09.
