data_PCOD9508542
_publ_section_title
;
Structure prediction by ZEFSAII (Michael W. Deem and Ramdas Pophale) SiO2 
 PCOD9508542
Probable space group: C C C A
;
_chemical_formula_sum "Si O2"
_cell_formula_units_Z 104
_cell_length_a 27.318472
_cell_length_b 20.241681
_cell_length_c 9.184457
_cell_angle_alpha 90.000000
_cell_angle_beta 90.000000
_cell_angle_gamma 90.000000
_cell_volume 5078.745679
_symmetry_space_group_name_H-M "C C C A"
_symmetry_group_IT_number 68
_space_group.IT_coordinate_system_code '2'
_symmetry_cell_setting 'orthorhombic'
loop_
_space_group_symop_operation_xyz
x,y,z
-x,1/2-y,z
x,1/2-y,1/2-z
-x,y,1/2-z
-x,-y,-z
x,1/2+y,-z
-x,1/2+y,1/2+z
x,-y,1/2+z
1/2+x,1/2+y,z
1/2-x,-y,z
1/2+x,-y,1/2-z
1/2-x,1/2+y,1/2-z
1/2-x,1/2-y,-z
1/2+x,y,-z
1/2-x,y,1/2+z
1/2+x,1/2-y,1/2+z
loop_
_atom_site_type_symbol
_atom_site_label
_atom_site_fract_x
_atom_site_fract_y
_atom_site_fract_z
Si Si1 0.321249 0.022681 0.956631
Si Si2 0.591898 0.729451 0.911834
Si Si3 0.816811 0.631384 0.449107
Si Si4 0.268895 0.674392 0.245895
Si Si5 0.750000 0.500000 0.200073
Si Si6 0.870827 0.352019 0.398700
Si Si7 0.048924 0.176400 0.182970
O O1 0.333461 0.944951 0.965402
O O2 0.290723 0.030977 0.806566
O O3 0.364827 0.074659 0.961843
O O4 0.283423 0.039308 0.084987
O O5 0.577072 0.750000 0.750000
O O6 0.639441 0.681726 0.913248
O O7 0.605771 0.797304 0.996373
O O8 0.552814 0.689337 0.011170
O O9 0.776599 0.635417 0.321715
O O10 0.789327 0.653317 0.596860
O O11 0.252059 0.750000 0.250000
O O12 0.316237 0.671639 0.140667
O O13 0.902671 0.355980 0.250820
O O14 0.050347 0.250000 0.250000
O O15 0.000000 0.144916 0.250000
#
# Coordination Sequence:
#
# PCOD9508542 Si02
#       7
#    16  16  16  16   8  16  16
#     4  11  23  38  58  82 126 171 223 264 305 373
#     4  11  24  40  61  99 130 156 209 267 321 381
#     4  12  24  37  57  88 131 177 217 260 315 366
#     4  12  22  38  57  85 128 173 221 266 309 376
#     4  10  22  40  50  84 118 176 224 254 302 364
#     4  11  22  40  60  90 124 166 219 259 319 392
#     4   9  19  43  72  93 118 159 208 263 328 391
#
# _framework density 20.477498000000001
#
# number of rings (size 3 to 8) (size 9 to 14) (size 15 to 20)
#    0.000    1.077    3.077    5.077    4.308    0.000 
#    0.000    6.154    0.000    0.923    0.000    0.000 
#    0.000    0.000    0.000    0.000    0.000    0.000 
#
# Total GULP energy -290429.956895 kJ/mol
# GULP energy per Si atom -5585.191479 kJ/mol
# Density = 2.043089 g / cm^3
# Si number density = 20.477498 Si / 1000 Ang^3
#
#
#
# Elastic Constant Matrix: (Units=GPa)
#
#
# Indices 1 2 3 4 5 6 
#
# 1 63.7242 14.0198 29.7334 0.0000 0.0000 0.0000
# 2 14.0198 117.0951 20.2809 0.0000 0.0000 0.0000
# 3 29.7334 20.2809 142.3166 0.0000 0.0000 0.0000
# 4 0.0000 0.0000 0.0000 23.4023 0.0000 0.0000
# 5 0.0000 0.0000 0.0000 0.0000 16.2783 0.0000
# 6 0.0000 0.0000 0.0000 0.0000 0.0000 11.0929
#
#
#
# Elastic Compliance Matrix: (Units=1/GPa)
#
#
# Indices 1 2 3 4 5 6 
#
# 1 0.017645 -0.001511 -0.003471 0.000000 0.000000 0.000000
# 2 -0.001511 0.008886 -0.000950 0.000000 0.000000 0.000000
# 3 -0.003471 -0.000950 0.007887 0.000000 0.000000 0.000000
# 4 0.000000 0.000000 0.000000 0.042731 0.000000 0.000000
# 5 0.000000 0.000000 0.000000 0.000000 0.061431 0.000000
# 6 0.000000 0.000000 0.000000 0.000000 0.000000 0.090147
#
#
# Mechanical properties :
#
#
# Convention : Reuss Voigt Hill
#
# Bulk Modulus (GPa) = 44.34249 50.13378 47.23813
# Shear Modulus (GPa) = 20.15230 27.42815 23.79022
#
# Velocity S-wave (km/s) = 3.14047 3.66379 3.41218
# Velocity P-wave (km/s) = 5.90350 6.51409 6.21630
#
# Compressibility (1/GPa) = 0.02255174
#
# Stress axis : x y z
#
# Youngs Moduli (GPa) = 56.67416 112.54094 126.78745
#
# Poissons Ratio (x) = 0.17010 0.44008
# Poissons Ratio (y) = 0.08566 0.12051
# Poissons Ratio (z) = 0.19672 0.10697
#
# Static dielectric constant tensor:
#      x y z
#    x 1.766630 0.000000 0.000000 
#    y 0.000000 1.845810 0.000000 
#    z 0.000000 0.000000 1.765930 
# 
# From -- ./inp_files/9002.got.cif
#   From: 2010.05.17/outbox.cif.g08.bks.cpg/sg68_5_cif.got.tgz:9002.got - 2010.06.03 18:57:09.
