data_PCOD9508378
_publ_section_title
;
Structure prediction by ZEFSAII (Michael W. Deem and Ramdas Pophale) SiO2 
 PCOD9508378
Probable space group: C C C A
;
_chemical_formula_sum "Si O2"
_cell_formula_units_Z 96
_cell_length_a 7.532725
_cell_length_b 28.080906
_cell_length_c 20.071100
_cell_angle_alpha 90.000000
_cell_angle_beta 90.000000
_cell_angle_gamma 90.000000
_cell_volume 4245.554333
_symmetry_space_group_name_H-M "C C C A"
_symmetry_group_IT_number 68
_space_group.IT_coordinate_system_code '2'
_symmetry_cell_setting 'orthorhombic'
loop_
_space_group_symop_operation_xyz
x,y,z
-x,1/2-y,z
x,1/2-y,1/2-z
-x,y,1/2-z
-x,-y,-z
x,1/2+y,-z
-x,1/2+y,1/2+z
x,-y,1/2+z
1/2+x,1/2+y,z
1/2-x,-y,z
1/2+x,-y,1/2-z
1/2-x,1/2+y,1/2-z
1/2-x,1/2-y,-z
1/2+x,y,-z
1/2-x,y,1/2+z
1/2+x,1/2-y,1/2+z
loop_
_atom_site_type_symbol
_atom_site_label
_atom_site_fract_x
_atom_site_fract_y
_atom_site_fract_z
Si Si1 0.212997 0.299236 0.674565
Si Si2 0.363855 0.039073 0.473309
Si Si3 0.784625 0.191936 0.828207
Si Si4 0.739032 0.604642 0.374454
Si Si5 0.824364 0.906844 0.893683
Si Si6 0.210255 0.445831 0.255277
O O1 0.273119 0.312011 0.750255
O O2 0.269359 0.246138 0.654681
O O3 0.277762 0.339008 0.624474
O O4 0.999101 0.304875 0.673542
O O5 0.384977 0.082654 0.423314
O O6 0.277944 0.066325 0.537382
O O7 0.500000 0.000000 0.500000
O O8 0.250000 0.000000 0.431986
O O9 0.722182 0.148398 0.875109
O O10 0.539808 0.587679 0.392003
O O11 0.791989 0.588064 0.300423
O O12 0.741434 0.934700 0.831013
O O13 0.250000 0.500000 0.239103
O O14 0.000000 0.437362 0.250000
#
# Coordination Sequence:
#
# PCOD9508378 Si02
#       6
#    16  16  16  16  16  16
#     4   9  19  37  62  94 129 162 204 260 322 378
#     4  12  26  45  63  88 128 178 213 256 315 384
#     4   9  19  37  62  94 128 164 204 258 322 383
#     4  11  23  40  62  91 125 164 211 262 316 378
#     4  11  23  40  61  93 122 164 214 258 318 380
#     4  10  22  37  58  88 124 156 205 264 309 364
#
# _framework density 22.611889000000001
#
# number of rings (size 3 to 8) (size 9 to 14) (size 15 to 20)
#    0.000    1.667    3.333    2.000    4.667    2.000 
#    0.000    2.500    0.000    0.000    0.000    0.000 
#    0.000    0.000    0.000    0.000    0.000    0.000 
#
# Total GULP energy -267508.505926 kJ/mol
# GULP energy per Si atom -5573.093873 kJ/mol
# Density = 2.256042 g / cm^3
# Si number density = 22.611889 Si / 1000 Ang^3
#
#
#
# Elastic Constant Matrix: (Units=GPa)
#
#
# Indices 1 2 3 4 5 6 
#
# 1 48.5423 9.8733 9.0399 0.0000 0.0000 0.0000
# 2 9.8733 200.1415 64.5362 0.0000 0.0000 0.0000
# 3 9.0399 64.5362 109.6593 0.0000 0.0000 0.0000
# 4 0.0000 0.0000 0.0000 40.6300 0.0000 0.0000
# 5 0.0000 0.0000 0.0000 0.0000 15.4887 0.0000
# 6 0.0000 0.0000 0.0000 0.0000 0.0000 36.0347
#
#
#
# Elastic Compliance Matrix: (Units=1/GPa)
#
#
# Indices 1 2 3 4 5 6 
#
# 1 0.020978 -0.000589 -0.001383 0.000000 0.000000 0.000000
# 2 -0.000589 0.006183 -0.003590 0.000000 0.000000 0.000000
# 3 -0.001383 -0.003590 0.011346 0.000000 0.000000 0.000000
# 4 0.000000 0.000000 0.000000 0.024612 0.000000 0.000000
# 5 0.000000 0.000000 0.000000 0.000000 0.064563 0.000000
# 6 0.000000 0.000000 0.000000 0.000000 0.000000 0.027751
#
#
# Mechanical properties :
#
#
# Convention : Reuss Voigt Hill
#
# Bulk Modulus (GPa) = 36.51890 58.36019 47.43955
# Shear Modulus (GPa) = 28.45993 36.75693 32.60843
#
# Velocity S-wave (km/s) = 3.55156 4.03619 3.80161
# Velocity P-wave (km/s) = 5.74487 6.89831 6.34784
#
# Compressibility (1/GPa) = 0.02738308
#
# Stress axis : x y z
#
# Youngs Moduli (GPa) = 47.66924 161.72721 88.13572
#
# Poissons Ratio (x) = 0.09526 0.12187
# Poissons Ratio (y) = 0.02808 0.31644
# Poissons Ratio (z) = 0.06591 0.58066
#
# Static dielectric constant tensor:
#      x y z
#    x 2.087770 0.000000 0.000000 
#    y 0.000000 1.823450 0.000000 
#    z 0.000000 0.000000 2.027370 
# 
# From -- ./inp_files/36503.got.cif
#   From: 2010.05.17/outbox.cif.g08.bks.cpg/sg68_19_cif.got.tgz:36503.got - 2010.06.03 18:57:09.
