data_PCOD9508249
_publ_section_title
;
Structure prediction by ZEFSAII (Michael W. Deem and Ramdas Pophale) SiO2 
 PCOD9508249
Probable space group: C C C A
;
_chemical_formula_sum "Si O2"
_cell_formula_units_Z 112
_cell_length_a 31.976703
_cell_length_b 10.935250
_cell_length_c 14.067645
_cell_angle_alpha 90.000000
_cell_angle_beta 90.000000
_cell_angle_gamma 90.000000
_cell_volume 4919.079027
_symmetry_space_group_name_H-M "C C C A"
_symmetry_group_IT_number 68
_space_group.IT_coordinate_system_code '2'
_symmetry_cell_setting 'orthorhombic'
loop_
_space_group_symop_operation_xyz
x,y,z
-x,1/2-y,z
x,1/2-y,1/2-z
-x,y,1/2-z
-x,-y,-z
x,1/2+y,-z
-x,1/2+y,1/2+z
x,-y,1/2+z
1/2+x,1/2+y,z
1/2-x,-y,z
1/2+x,-y,1/2-z
1/2-x,1/2+y,1/2-z
1/2-x,1/2-y,-z
1/2+x,y,-z
1/2-x,y,1/2+z
1/2+x,1/2-y,1/2+z
loop_
_atom_site_type_symbol
_atom_site_label
_atom_site_fract_x
_atom_site_fract_y
_atom_site_fract_z
Si Si1 0.936325 0.218194 0.887925
Si Si2 0.511668 0.549512 0.854314
Si Si3 0.293146 0.067216 0.754032
Si Si4 0.289438 0.755947 0.426191
Si Si5 0.432132 0.854410 0.317022
Si Si6 0.378155 0.972700 0.685583
Si Si7 0.378998 0.307422 0.949585
O O1 0.959838 0.330825 0.839637
O O2 0.970158 0.107970 0.901060
O O3 0.896867 0.158063 0.836758
O O4 0.916652 0.284144 0.979007
O O5 0.500000 0.504710 0.750000
O O6 0.537538 0.430278 0.888059
O O7 0.291028 0.159425 0.662716
O O8 0.293796 0.123020 0.860843
O O9 0.333238 0.982963 0.734294
O O10 0.250000 0.000000 0.747692
O O11 0.250000 0.750000 0.500000
O O12 0.332845 0.732165 0.482053
O O13 0.452164 0.750000 0.250000
O O14 0.410593 0.957042 0.252835
O O15 0.393399 0.782395 0.364672
O O16 0.377166 0.054707 0.589410
#
# Coordination Sequence:
#
# PCOD9508249 Si02
#       7
#    16  16  16  16  16  16  16
#     4  11  24  41  65  94 137 177 217 291 352 397
#     4  11  24  45  62  93 137 174 223 283 346 408
#     4  10  22  43  68  99 136 178 226 290 344 416
#     4  10  22  44  67  98 141 176 225 287 350 417
#     4  10  21  43  73  92 123 181 226 276 333 418
#     4  10  21  43  68  92 128 184 231 269 343 421
#     4  10  23  43  65  96 132 172 232 279 341 409
#
# _framework density 22.768491000000001
#
# number of rings (size 3 to 8) (size 9 to 14) (size 15 to 20)
#    0.000    1.714    2.857    0.857    4.000    1.429 
#    7.714    0.000    0.000    0.000    0.000    0.000 
#    0.000    0.000    0.000    0.000    0.000    0.000 
#
# Total GULP energy -312192.271036 kJ/mol
# GULP energy per Si atom -5574.861983 kJ/mol
# Density = 2.271667 g / cm^3
# Si number density = 22.768491 Si / 1000 Ang^3
#
#
#
# Elastic Constant Matrix: (Units=GPa)
#
#
# Indices 1 2 3 4 5 6 
#
# 1 165.2394 47.2077 23.4907 0.0000 0.0000 0.0000
# 2 47.2077 66.1826 8.1660 0.0000 0.0000 0.0000
# 3 23.4907 8.1660 54.4765 0.0000 0.0000 0.0000
# 4 0.0000 0.0000 0.0000 61.3785 0.0000 0.0000
# 5 0.0000 0.0000 0.0000 0.0000 106.8005 0.0000
# 6 0.0000 0.0000 0.0000 0.0000 0.0000 36.8256
#
#
#
# Elastic Compliance Matrix: (Units=1/GPa)
#
#
# Indices 1 2 3 4 5 6 
#
# 1 0.007954 -0.005349 -0.002628 0.000000 0.000000 0.000000
# 2 -0.005349 0.018992 -0.000540 0.000000 0.000000 0.000000
# 3 -0.002628 -0.000540 0.019571 0.000000 0.000000 0.000000
# 4 0.000000 0.000000 0.000000 0.016292 0.000000 0.000000
# 5 0.000000 0.000000 0.000000 0.000000 0.009363 0.000000
# 6 0.000000 0.000000 0.000000 0.000000 0.000000 0.027155
#
#
# Mechanical properties :
#
#
# Convention : Reuss Voigt Hill
#
# Bulk Modulus (GPa) = 33.91931 49.29191 41.60561
# Shear Modulus (GPa) = 39.62334 54.80319 47.21326
#
# Velocity S-wave (km/s) = 4.17618 4.91142 4.55865
# Velocity P-wave (km/s) = 6.17930 7.33886 6.78390
#
# Compressibility (1/GPa) = 0.02948173
#
# Stress axis : x y z
#
# Youngs Moduli (GPa) = 125.72962 52.65433 51.09683
#
# Poissons Ratio (x) = 0.28165 0.13427
# Poissons Ratio (y) = 0.67253 0.02761
# Poissons Ratio (z) = 0.33040 0.02845
#
# Static dielectric constant tensor:
#      x y z
#    x -0.049020 0.000000 0.000000 
#    y 0.000000 2.091320 0.000000 
#    z 0.000000 0.000000 2.148360 
# 
# From -- ./inp_files/26432.got.cif
#   From: 2010.05.17/outbox.cif.g08.bks.cpg/sg68_14_cif.got.tgz:26432.got - 2010.06.03 18:57:09.
