data_PCOD9508050
_publ_section_title
;
Structure prediction by ZEFSAII (Michael W. Deem and Ramdas Pophale) SiO2 
 PCOD9508050
Probable space group: C C C A
;
_chemical_formula_sum "Si O2"
_cell_formula_units_Z 80
_cell_length_a 12.629132
_cell_length_b 12.079008
_cell_length_c 23.949159
_cell_angle_alpha 90.000000
_cell_angle_beta 90.000000
_cell_angle_gamma 90.000000
_cell_volume 3653.381613
_symmetry_space_group_name_H-M "C C C A"
_symmetry_group_IT_number 68
_space_group.IT_coordinate_system_code '2'
_symmetry_cell_setting 'orthorhombic'
loop_
_space_group_symop_operation_xyz
x,y,z
-x,1/2-y,z
x,1/2-y,1/2-z
-x,y,1/2-z
-x,-y,-z
x,1/2+y,-z
-x,1/2+y,1/2+z
x,-y,1/2+z
1/2+x,1/2+y,z
1/2-x,-y,z
1/2+x,-y,1/2-z
1/2-x,1/2+y,1/2-z
1/2-x,1/2-y,-z
1/2+x,y,-z
1/2-x,y,1/2+z
1/2+x,1/2-y,1/2+z
loop_
_atom_site_type_symbol
_atom_site_label
_atom_site_fract_x
_atom_site_fract_y
_atom_site_fract_z
Si Si1 0.870315 0.458084 0.903309
Si Si2 0.460075 0.971744 0.688013
Si Si3 0.376888 0.009099 0.027611
Si Si4 0.153401 0.297663 0.888862
Si Si5 0.601186 0.832200 0.375326
O O1 0.750000 0.500000 0.898200
O O2 0.882428 0.326413 0.898455
O O3 0.939513 0.498557 0.851626
O O4 0.914179 0.493809 0.964109
O O5 0.500000 0.953142 0.750000
O O6 0.396251 0.866988 0.662798
O O7 0.394017 0.084096 0.677680
O O8 0.383086 0.127019 0.058687
O O9 0.250000 0.000000 0.020992
O O10 0.405419 0.910510 0.070022
O O11 0.280366 0.284476 0.881410
O O12 0.500000 0.750000 0.372809
#
# Coordination Sequence:
#
# PCOD9508050 Si02
#       5
#    16  16  16  16  16
#     4  11  23  38  63  96 124 160 215 264 314 387
#     4  11  25  43  61  87 123 167 217 264 319 381
#     4   8  19  37  60  91 128 162 198 251 319 387
#     4  10  22  42  64  90 128 168 203 258 325 382
#     4  10  21  40  66  93 125 163 206 257 317 380
#
# _framework density 21.897521999999999
#
# number of rings (size 3 to 8) (size 9 to 14) (size 15 to 20)
#    0.000    2.000    0.000    3.600    0.000   17.200 
#    0.000    4.000    0.000    0.000    0.000    0.000 
#    0.000    0.000    0.000    0.000    0.000    0.000 
#
# Total GULP energy -223295.694381 kJ/mol
# GULP energy per Si atom -5582.392360 kJ/mol
# Density = 2.184768 g / cm^3
# Si number density = 21.897522 Si / 1000 Ang^3
#
#
#
# Elastic Constant Matrix: (Units=GPa)
#
#
# Indices 1 2 3 4 5 6 
#
# 1 98.5129 23.5235 37.3520 0.0000 0.0000 0.0000
# 2 23.5235 99.4234 19.2420 0.0000 0.0000 0.0000
# 3 37.3520 19.2420 117.5076 0.0000 0.0000 0.0000
# 4 0.0000 0.0000 0.0000 2.6700 0.0000 0.0000
# 5 0.0000 0.0000 0.0000 0.0000 30.5701 0.0000
# 6 0.0000 0.0000 0.0000 0.0000 0.0000 48.4200
#
#
#
# Elastic Compliance Matrix: (Units=1/GPa)
#
#
# Indices 1 2 3 4 5 6 
#
# 1 0.011977 -0.002166 -0.003453 0.000000 0.000000 0.000000
# 2 -0.002166 0.010779 -0.001077 0.000000 0.000000 0.000000
# 3 -0.003453 -0.001077 0.009784 0.000000 0.000000 0.000000
# 4 0.000000 0.000000 0.000000 0.374526 0.000000 0.000000
# 5 0.000000 0.000000 0.000000 0.000000 0.032712 0.000000
# 6 0.000000 0.000000 0.000000 0.000000 0.000000 0.020653
#
#
# Mechanical properties :
#
#
# Convention : Reuss Voigt Hill
#
# Bulk Modulus (GPa) = 52.21891 52.85321 52.53606
# Shear Modulus (GPa) = 10.41226 32.02047 21.21636
#
# Velocity S-wave (km/s) = 2.18296 3.82813 3.11608
# Velocity P-wave (km/s) = 5.50023 6.61275 6.08198
#
# Compressibility (1/GPa) = 0.01915015
#
# Stress axis : x y z
#
# Youngs Moduli (GPa) = 83.49252 92.77518 102.20932
#
# Poissons Ratio (x) = 0.20091 0.35288
# Poissons Ratio (y) = 0.18081 0.11004
# Poissons Ratio (z) = 0.28826 0.09989
#
# Static dielectric constant tensor:
#      x y z
#    x 1.968830 0.000000 0.000000 
#    y 0.000000 1.824770 0.000000 
#    z 0.000000 0.000000 1.775330 
# 
# From -- ./inp_files/45207.got.cif
#   From: 2010.05.17/outbox.cif.g08.bks.cpg/sg68_23_cif.got.tgz:45207.got - 2010.06.03 18:57:09.
