data_PCOD9508654
_publ_section_title
;
Structure prediction by ZEFSAII (Michael W. Deem and Ramdas Pophale) SiO2 
 PCOD9508654
Probable space group: C C C A
;
_chemical_formula_sum "Si O2"
_cell_formula_units_Z 64
_cell_length_a 28.321048
_cell_length_b 5.128774
_cell_length_c 19.095329
_cell_angle_alpha 90.000000
_cell_angle_beta 90.000000
_cell_angle_gamma 90.000000
_cell_volume 2773.639590
_symmetry_space_group_name_H-M "C C C A"
_symmetry_group_IT_number 68
_space_group.IT_coordinate_system_code '2'
_symmetry_cell_setting 'orthorhombic'
loop_
_space_group_symop_operation_xyz
x,y,z
-x,1/2-y,z
x,1/2-y,1/2-z
-x,y,1/2-z
-x,-y,-z
x,1/2+y,-z
-x,1/2+y,1/2+z
x,-y,1/2+z
1/2+x,1/2+y,z
1/2-x,-y,z
1/2+x,-y,1/2-z
1/2-x,1/2+y,1/2-z
1/2-x,1/2-y,-z
1/2+x,y,-z
1/2-x,y,1/2+z
1/2+x,1/2-y,1/2+z
loop_
_atom_site_type_symbol
_atom_site_label
_atom_site_fract_x
_atom_site_fract_y
_atom_site_fract_z
Si Si1 0.500000 0.750000 0.659743
Si Si2 0.396251 0.107553 0.959100
Si Si3 0.418369 0.250000 0.250000
Si Si4 0.250000 0.500000 0.300251
Si Si5 0.648806 0.120308 0.826983
Si Si6 0.500000 0.750000 0.077953
O O1 0.541995 0.894786 0.703106
O O2 0.520323 0.504588 0.618246
O O3 0.373979 0.198397 0.885777
O O4 0.453462 0.127520 0.957167
O O5 0.381615 0.321334 0.016964
O O6 0.385659 0.385011 0.306897
O O7 0.242166 0.750000 0.250000
O O8 0.297759 0.539718 0.344061
O O9 0.652278 0.250000 0.750000
#
# Coordination Sequence:
#
# PCOD9508654 Si02
#       6
#     8  16   8   8  16   8
#     4  11  24  35  65 100 131 169 221 270 331 383
#     4  12  27  44  66  97 138 180 223 273 336 398
#     4  11  22  38  64  98 136 166 214 281 332 386
#     4  10  22  40  70 104 128 164 224 282 336 390
#     4  11  24  44  72  98 133 174 227 279 336 395
#     4  12  22  44  61  90 132 181 224 262 314 403
#
# _framework density 23.074376999999998
#
# number of rings (size 3 to 8) (size 9 to 14) (size 15 to 20)
#    0.000    0.750    3.750    3.750    3.500    1.000 
#    0.000    1.250    0.000    0.000    0.000    0.000 
#    0.000    0.000    0.000    0.000    0.000    0.000 
#
# Total GULP energy -178646.840536 kJ/mol
# GULP energy per Si atom -5582.713767 kJ/mol
# Density = 2.302186 g / cm^3
# Si number density = 23.074377 Si / 1000 Ang^3
#
#
#
# Elastic Constant Matrix: (Units=GPa)
#
#
# Indices 1 2 3 4 5 6 
#
# 1 156.0812 5.3548 33.2771 0.0000 0.0000 0.0000
# 2 5.3548 69.6777 2.4894 0.0000 0.0000 0.0000
# 3 33.2771 2.4894 77.9517 0.0000 0.0000 0.0000
# 4 0.0000 0.0000 0.0000 27.4032 0.0000 0.0000
# 5 0.0000 0.0000 0.0000 0.0000 20.8913 0.0000
# 6 0.0000 0.0000 0.0000 0.0000 0.0000 25.7446
#
#
#
# Elastic Compliance Matrix: (Units=1/GPa)
#
#
# Indices 1 2 3 4 5 6 
#
# 1 0.007062 -0.000435 -0.003001 0.000000 0.000000 0.000000
# 2 -0.000435 0.014395 -0.000274 0.000000 0.000000 0.000000
# 3 -0.003001 -0.000274 0.014118 0.000000 0.000000 0.000000
# 4 0.000000 0.000000 0.000000 0.036492 0.000000 0.000000
# 5 0.000000 0.000000 0.000000 0.000000 0.047867 0.000000
# 6 0.000000 0.000000 0.000000 0.000000 0.000000 0.038843
#
#
# Mechanical properties :
#
#
# Convention : Reuss Voigt Hill
#
# Bulk Modulus (GPa) = 35.51774 42.88368 39.20071
# Shear Modulus (GPa) = 28.47678 32.31378 30.39528
#
# Velocity S-wave (km/s) = 3.51683 3.74628 3.63336
# Velocity P-wave (km/s) = 5.64951 6.11049 5.88451
#
# Compressibility (1/GPa) = 0.02815494
#
# Stress axis : x y z
#
# Youngs Moduli (GPa) = 141.61078 69.46831 70.83077
#
# Poissons Ratio (x) = 0.03025 0.21254
# Poissons Ratio (y) = 0.06167 0.01939
# Poissons Ratio (z) = 0.42492 0.01902
#
# Static dielectric constant tensor:
#      x y z
#    x 1.879790 0.000000 0.000000 
#    y 0.000000 -4.461270 0.000000 
#    z 0.000000 0.000000 2.067550 
# 
# From -- ./inp_files/27171.got.cif
#   From: 2010.05.17/outbox.cif.g08.bks.cpg/sg68_14_cif.got.tgz:27171.got - 2010.06.03 18:57:09.
