data_PCOD9508029
_publ_section_title
;
Structure prediction by ZEFSAII (Michael W. Deem and Ramdas Pophale) SiO2 
 PCOD9508029
Probable space group: C C C A
;
_chemical_formula_sum "Si O2"
_cell_formula_units_Z 48
_cell_length_a 13.971946
_cell_length_b 4.887860
_cell_length_c 31.562116
_cell_angle_alpha 90.000000
_cell_angle_beta 90.000000
_cell_angle_gamma 90.000000
_cell_volume 2155.468936
_symmetry_space_group_name_H-M "C C C A"
_symmetry_group_IT_number 68
_space_group.IT_coordinate_system_code '2'
_symmetry_cell_setting 'orthorhombic'
loop_
_space_group_symop_operation_xyz
x,y,z
-x,1/2-y,z
x,1/2-y,1/2-z
-x,y,1/2-z
-x,-y,-z
x,1/2+y,-z
-x,1/2+y,1/2+z
x,-y,1/2+z
1/2+x,1/2+y,z
1/2-x,-y,z
1/2+x,-y,1/2-z
1/2-x,1/2+y,1/2-z
1/2-x,1/2-y,-z
1/2+x,y,-z
1/2-x,y,1/2+z
1/2+x,1/2-y,1/2+z
loop_
_atom_site_type_symbol
_atom_site_label
_atom_site_fract_x
_atom_site_fract_y
_atom_site_fract_z
Si Si1 0.500000 0.750000 0.595301
Si Si2 0.000000 0.250000 0.350193
Si Si3 0.861040 0.497770 0.218411
Si Si4 0.636558 0.022927 0.972398
O O1 0.455119 0.497093 0.622129
O O2 0.577769 0.596758 0.566363
O O3 0.072517 0.424218 0.320999
O O4 0.873084 0.250000 0.250000
O O5 0.750000 0.500000 0.204650
O O6 0.881820 0.750000 0.250000
O O7 0.750000 0.000000 0.964259
O O8 0.614690 0.830539 0.013175
#
# Coordination Sequence:
#
# PCOD9508029 Si02
#       4
#     8   8  16  16
#     4  12  24  39  61  96 135 166 201 264 333 381
#     4  12  25  39  64  98 133 168 203 264 336 383
#     4  10  22  43  68  91 121 168 220 263 308 377
#     4  10  21  40  65  89 120 169 220 260 304 373
#
# _framework density 22.268934000000002
#
# number of rings (size 3 to 8) (size 9 to 14) (size 15 to 20)
#    0.000    1.333    0.000    5.500    0.000    2.667 
#    0.000    3.333    0.000    0.000    0.000    0.000 
#    0.000    0.000    0.000    0.000    0.000    0.000 
#
# Total GULP energy -134157.018207 kJ/mol
# GULP energy per Si atom -5589.875759 kJ/mol
# Density = 2.221825 g / cm^3
# Si number density = 22.268934 Si / 1000 Ang^3
#
#
#
# Elastic Constant Matrix: (Units=GPa)
#
#
# Indices 1 2 3 4 5 6 
#
# 1 96.6867 34.5779 58.3073 0.0000 0.0000 0.0000
# 2 34.5779 167.2616 43.6869 0.0000 0.0000 0.0000
# 3 58.3073 43.6869 96.0621 0.0000 0.0000 0.0000
# 4 0.0000 0.0000 0.0000 42.3034 0.0000 0.0000
# 5 0.0000 0.0000 0.0000 0.0000 -7.5770 0.0000
# 6 0.0000 0.0000 0.0000 0.0000 0.0000 33.2533
#
#
#
# Elastic Compliance Matrix: (Units=1/GPa)
#
#
# Indices 1 2 3 4 5 6 
#
# 1 0.016433 -0.000899 -0.009565 0.000000 0.000000 0.000000
# 2 -0.000899 0.006834 -0.002562 0.000000 0.000000 0.000000
# 3 -0.009565 -0.002562 0.017381 0.000000 0.000000 0.000000
# 4 0.000000 0.000000 0.000000 0.023639 0.000000 0.000000
# 5 0.000000 0.000000 0.000000 0.000000 -0.131979 0.000000
# 6 0.000000 0.000000 0.000000 0.000000 0.000000 0.030072
#
#
# Mechanical properties :
#
#
# Convention : Reuss Voigt Hill
#
# Bulk Modulus (GPa) = 68.51885 70.35051 69.43468
# Shear Modulus (GPa) = -746.01358 28.49183 -358.76087
#
# Velocity S-wave (km/s) = -18.32291 3.58081 -12.70643
# Velocity P-wave (km/s) = 20.41576 6.98256 13.56553
#
# Compressibility (1/GPa) = 0.01459452
#
# Stress axis : x y z
#
# Youngs Moduli (GPa) = 60.85468 146.33365 57.53333
#
# Poissons Ratio (x) = 0.13151 0.55033
# Poissons Ratio (y) = 0.05469 0.14742
# Poissons Ratio (z) = 0.58210 0.37495
#
# Static dielectric constant tensor:
#      x y z
#    x 1.805120 0.000000 0.000000 
#    y 0.000000 1.781950 0.000000 
#    z 0.000000 0.000000 1.818480 
# 
# From -- ./inp_files/50575.got.cif
#   From: 2010.05.17/outbox.cif.g08.bks.cpg/sg68_26_cif.got.tgz:50575.got - 2010.06.03 18:57:09.
