data_PCOD9508068
_publ_section_title
;
Structure prediction by ZEFSAII (Michael W. Deem and Ramdas Pophale) SiO2 
 PCOD9508068
Probable space group: C C C A
;
_chemical_formula_sum "Si O2"
_cell_formula_units_Z 64
_cell_length_a 5.147854
_cell_length_b 15.226981
_cell_length_c 34.006120
_cell_angle_alpha 90.000000
_cell_angle_beta 90.000000
_cell_angle_gamma 90.000000
_cell_volume 2665.613076
_symmetry_space_group_name_H-M "C C C A"
_symmetry_group_IT_number 68
_space_group.IT_coordinate_system_code '2'
_symmetry_cell_setting 'orthorhombic'
loop_
_space_group_symop_operation_xyz
x,y,z
-x,1/2-y,z
x,1/2-y,1/2-z
-x,y,1/2-z
-x,-y,-z
x,1/2+y,-z
-x,1/2+y,1/2+z
x,-y,1/2+z
1/2+x,1/2+y,z
1/2-x,-y,z
1/2+x,-y,1/2-z
1/2-x,1/2+y,1/2-z
1/2-x,1/2-y,-z
1/2+x,y,-z
1/2-x,y,1/2+z
1/2+x,1/2-y,1/2+z
loop_
_atom_site_type_symbol
_atom_site_label
_atom_site_fract_x
_atom_site_fract_y
_atom_site_fract_z
Si Si1 0.620531 0.655226 0.109725
Si Si2 0.221497 0.604815 0.474739
Si Si3 0.652674 0.407647 0.350146
Si Si4 0.751366 0.651999 0.267976
O O1 0.500000 0.750000 0.120030
O O2 0.725072 0.654995 0.065540
O O3 0.359008 0.598117 0.114143
O O4 0.859680 0.615285 0.135777
O O5 0.250000 0.500000 0.466111
O O6 0.442214 0.624256 0.506924
O O7 0.750000 0.500000 0.332120
O O8 0.725167 0.342570 0.314625
O O9 0.750406 0.750000 0.250000
O O10 0.500000 0.608344 0.250000
O O11 0.000000 0.606025 0.250000
#
# Coordination Sequence:
#
# PCOD9508068 Si02
#       4
#    16  16  16  16
#     4  12  27  43  70 104 142 188 234 294 358 429
#     4  10  21  40  67  97 136 183 231 288 354 422
#     4  12  26  45  70 101 142 185 239 294 355 433
#     4  10  23  40  67  96 133 176 220 293 347 430
#
# _framework density 24.009485999999999
#
# number of rings (size 3 to 8) (size 9 to 14) (size 15 to 20)
#    0.000    1.000    0.000    6.000   10.500    4.000 
#    0.000    0.000    0.000    0.000    0.000    0.000 
#    0.000    0.000    0.000    0.000    0.000    0.000 
#
# Total GULP energy -178638.870976 kJ/mol
# GULP energy per Si atom -5582.464718 kJ/mol
# Density = 2.395484 g / cm^3
# Si number density = 24.009486 Si / 1000 Ang^3
#
#
#
# Elastic Constant Matrix: (Units=GPa)
#
#
# Indices 1 2 3 4 5 6 
#
# 1 192.3344 32.1660 18.6788 0.0000 0.0000 0.0000
# 2 32.1660 91.2266 26.3648 0.0000 0.0000 0.0000
# 3 18.6788 26.3648 90.3587 0.0000 0.0000 0.0000
# 4 0.0000 0.0000 0.0000 35.2516 0.0000 0.0000
# 5 0.0000 0.0000 0.0000 0.0000 35.9465 0.0000
# 6 0.0000 0.0000 0.0000 0.0000 0.0000 34.8914
#
#
#
# Elastic Compliance Matrix: (Units=1/GPa)
#
#
# Indices 1 2 3 4 5 6 
#
# 1 0.005558 -0.001777 -0.000630 0.000000 0.000000 0.000000
# 2 -0.001777 0.012540 -0.003291 0.000000 0.000000 0.000000
# 3 -0.000630 -0.003291 0.012158 0.000000 0.000000 0.000000
# 4 0.000000 0.000000 0.000000 0.028367 0.000000 0.000000
# 5 0.000000 0.000000 0.000000 0.000000 0.027819 0.000000
# 6 0.000000 0.000000 0.000000 0.000000 0.000000 0.028660
#
#
# Mechanical properties :
#
#
# Convention : Reuss Voigt Hill
#
# Bulk Modulus (GPa) = 53.03120 58.70432 55.86776
# Shear Modulus (GPa) = 37.65461 40.99858 39.32659
#
# Velocity S-wave (km/s) = 3.96450 4.13679 4.05156
# Velocity P-wave (km/s) = 6.56444 6.87902 6.72357
#
# Compressibility (1/GPa) = 0.01885682
#
# Stress axis : x y z
#
# Youngs Moduli (GPa) = 179.92881 79.74692 82.25272
#
# Poissons Ratio (x) = 0.14175 0.05184
# Poissons Ratio (y) = 0.31982 0.27073
# Poissons Ratio (z) = 0.11340 0.26248
#
# Static dielectric constant tensor:
#      x y z
#    x 1.916000 0.000000 0.000000 
#    y 0.000000 2.120570 0.000000 
#    z 0.000000 0.000000 1.925590 
# 
# From -- ./inp_files/52923.got.cif
#   From: 2010.05.17/outbox.cif.g08.bks.cpg/sg68_27_cif.got.tgz:52923.got - 2010.06.03 18:57:09.
