data_PCOD9508921
_publ_section_title
;
Structure prediction by ZEFSAII (Michael W. Deem and Ramdas Pophale) SiO2 
 PCOD9508921
Probable space group: C C C A
;
_chemical_formula_sum "Si O2"
_cell_formula_units_Z 116
_cell_length_a 26.668109
_cell_length_b 11.724242
_cell_length_c 18.177925
_cell_angle_alpha 90.000000
_cell_angle_beta 90.000000
_cell_angle_gamma 90.000000
_cell_volume 5683.571174
_symmetry_space_group_name_H-M "C C C A"
_symmetry_group_IT_number 68
_space_group.IT_coordinate_system_code '2'
_symmetry_cell_setting 'orthorhombic'
loop_
_space_group_symop_operation_xyz
x,y,z
-x,1/2-y,z
x,1/2-y,1/2-z
-x,y,1/2-z
-x,-y,-z
x,1/2+y,-z
-x,1/2+y,1/2+z
x,-y,1/2+z
1/2+x,1/2+y,z
1/2-x,-y,z
1/2+x,-y,1/2-z
1/2-x,1/2+y,1/2-z
1/2-x,1/2-y,-z
1/2+x,y,-z
1/2-x,y,1/2+z
1/2+x,1/2-y,1/2+z
loop_
_atom_site_type_symbol
_atom_site_label
_atom_site_fract_x
_atom_site_fract_y
_atom_site_fract_z
Si Si1 0.500000 0.750000 0.250000
Si Si2 0.401359 0.631763 0.993873
Si Si3 0.807934 0.536896 0.502208
Si Si4 0.612615 0.589006 0.772665
Si Si5 0.305500 0.529612 0.846103
Si Si6 0.969605 0.628914 0.148661
Si Si7 0.450579 0.424625 0.641247
Si Si8 0.838508 0.273287 0.900900
O O1 0.533035 0.671439 0.302355
O O2 0.431387 0.605654 0.918755
O O3 0.377428 0.750922 0.967981
O O4 0.353930 0.550644 0.012998
O O5 0.439070 0.626266 0.061467
O O6 0.750000 0.500000 0.506758
O O7 0.818700 0.560798 0.589316
O O8 0.806493 0.627871 0.436757
O O9 0.654716 0.541481 0.718279
O O10 0.563910 0.621344 0.723009
O O11 0.597714 0.488388 0.827484
O O12 0.633649 0.687996 0.826326
O O13 0.250000 0.500000 0.819278
O O14 0.309410 0.655823 0.884171
O O15 0.000000 0.750000 0.143005
O O16 0.008094 0.524556 0.142390
#
# Coordination Sequence:
#
# PCOD9508921 Si02
#       8
#     4  16  16  16  16  16  16  16
#     4  12  28  48  62  92 148 202 224 286 372 436
#     4  11  25  43  67 104 136 179 235 295 347 427
#     4  10  22  43  70  99 136 182 232 285 354 418
#     4  12  23  45  73 103 138 185 242 302 359 424
#     4  10  24  42  69 103 140 179 228 298 362 425
#     4  12  26  44  74 109 136 186 240 305 355 419
#     4  12  27  45  67  98 145 188 234 289 363 441
#     4  11  23  41  75 101 140 180 238 296 352 426
#
# _framework density 20.409703
#
# number of rings (size 3 to 8) (size 9 to 14) (size 15 to 20)
#    0.000    0.828    5.517    1.655    2.897    9.379 
#    0.000    0.000    6.069    0.000    0.000    0.000 
#    0.000    0.000    0.000    0.000    0.000    0.000 
#
# Total GULP energy -323393.589125 kJ/mol
# GULP energy per Si atom -5575.751537 kJ/mol
# Density = 2.036325 g / cm^3
# Si number density = 20.409703 Si / 1000 Ang^3
#
#
#
# Elastic Constant Matrix: (Units=GPa)
#
#
# Indices 1 2 3 4 5 6 
#
# 1 89.8858 27.1177 40.3914 0.0000 0.0000 0.0000
# 2 27.1177 54.6753 34.0762 0.0000 0.0000 0.0000
# 3 40.3914 34.0762 122.9974 0.0000 0.0000 0.0000
# 4 0.0000 0.0000 0.0000 34.4987 0.0000 0.0000
# 5 0.0000 0.0000 0.0000 0.0000 1834.6270 0.0000
# 6 0.0000 0.0000 0.0000 0.0000 0.0000 25.2515
#
#
#
# Elastic Compliance Matrix: (Units=1/GPa)
#
#
# Indices 1 2 3 4 5 6 
#
# 1 0.014082 -0.004958 -0.003251 0.000000 0.000000 0.000000
# 2 -0.004958 0.023853 -0.004980 0.000000 0.000000 0.000000
# 3 -0.003251 -0.004980 0.010577 0.000000 0.000000 0.000000
# 4 0.000000 0.000000 0.000000 0.028987 0.000000 0.000000
# 5 0.000000 0.000000 0.000000 0.000000 0.000545 0.000000
# 6 0.000000 0.000000 0.000000 0.000000 0.000000 0.039602
#
#
# Mechanical properties :
#
#
# Convention : Reuss Voigt Hill
#
# Bulk Modulus (GPa) = 45.17940 52.30321 48.74131
# Shear Modulus (GPa) = 33.02478 389.94033 211.48255
#
# Velocity S-wave (km/s) = 4.02692 13.83731 10.19037
# Velocity P-wave (km/s) = 6.61859 16.76237 12.74329
#
# Compressibility (1/GPa) = 0.02213398
#
# Stress axis : x y z
#
# Youngs Moduli (GPa) = 71.01346 41.92379 94.54045
#
# Poissons Ratio (x) = 0.20787 0.30732
# Poissons Ratio (y) = 0.35210 0.47082
# Poissons Ratio (z) = 0.23084 0.20878
#
# Static dielectric constant tensor:
#      x y z
#    x 1.790120 0.000000 0.000000 
#    y 0.000000 2.085850 0.000000 
#    z 0.000000 0.000000 1.748110 
# 
# From -- ./inp_files/34160.got.cif
#   From: 2010.05.17/outbox.cif.g08.bks.cpg/sg68_18_cif.got.tgz:34160.got - 2010.06.03 18:57:09.
