data_PCOD9508134
_publ_section_title
;
Structure prediction by ZEFSAII (Michael W. Deem and Ramdas Pophale) SiO2 
 PCOD9508134
Probable space group: C C C A
;
_chemical_formula_sum "Si O2"
_cell_formula_units_Z 56
_cell_length_a 11.501221
_cell_length_b 21.219603
_cell_length_c 12.196940
_cell_angle_alpha 90.000000
_cell_angle_beta 90.000000
_cell_angle_gamma 90.000000
_cell_volume 2976.679595
_symmetry_space_group_name_H-M "C C C A"
_symmetry_group_IT_number 68
_space_group.IT_coordinate_system_code '2'
_symmetry_cell_setting 'orthorhombic'
loop_
_space_group_symop_operation_xyz
x,y,z
-x,1/2-y,z
x,1/2-y,1/2-z
-x,y,1/2-z
-x,-y,-z
x,1/2+y,-z
-x,1/2+y,1/2+z
x,-y,1/2+z
1/2+x,1/2+y,z
1/2-x,-y,z
1/2+x,-y,1/2-z
1/2-x,1/2+y,1/2-z
1/2-x,1/2-y,-z
1/2+x,y,-z
1/2-x,y,1/2+z
1/2+x,1/2-y,1/2+z
loop_
_atom_site_type_symbol
_atom_site_label
_atom_site_fract_x
_atom_site_fract_y
_atom_site_fract_z
Si Si1 0.662549 0.386198 0.228881
Si Si2 0.031432 0.676845 0.083951
Si Si3 0.500000 0.500177 0.250000
Si Si4 0.073424 0.379740 0.347984
O O1 0.579187 0.361181 0.131717
O O2 0.635151 0.341021 0.332221
O O3 0.610803 0.454665 0.260136
O O4 0.794346 0.385933 0.191582
O O5 0.000000 0.750000 0.088383
O O6 0.061392 0.654595 0.962530
O O7 0.480288 0.549259 0.349414
O O8 0.000000 0.347520 0.250000
#
# Coordination Sequence:
#
# PCOD9508134 Si02
#       4
#    16  16   8  16
#     4  10  21  41  66  88 124 163 202 254 308 364
#     4  10  23  43  62  88 124 165 207 249 307 358
#     4   8  20  40  60  92 122 156 202 248 310 360
#     4  10  23  38  62  97 120 157 207 250 305 364
#
# _framework density 18.812908
#
# number of rings (size 3 to 8) (size 9 to 14) (size 15 to 20)
#    0.857    1.714    0.000    2.571    4.000    6.286 
#    5.143    5.714    0.000    0.000    0.000    0.000 
#    0.000    0.000    0.000    0.000    0.000    0.000 
#
# Total GULP energy -156019.825290 kJ/mol
# GULP energy per Si atom -5572.136617 kJ/mol
# Density = 1.877009 g / cm^3
# Si number density = 18.812908 Si / 1000 Ang^3
#
#
#
# Elastic Constant Matrix: (Units=GPa)
#
#
# Indices 1 2 3 4 5 6 
#
# 1 104.9577 8.9843 50.0882 0.0000 0.0000 0.0000
# 2 8.9843 98.5724 37.9268 0.0000 0.0000 0.0000
# 3 50.0882 37.9268 132.3903 0.0000 0.0000 0.0000
# 4 0.0000 0.0000 0.0000 44.5705 0.0000 0.0000
# 5 0.0000 0.0000 0.0000 0.0000 8.8005 0.0000
# 6 0.0000 0.0000 0.0000 0.0000 0.0000 0.5118
#
#
#
# Elastic Compliance Matrix: (Units=1/GPa)
#
#
# Indices 1 2 3 4 5 6 
#
# 1 0.011671 0.000714 -0.004620 0.000000 0.000000 0.000000
# 2 0.000714 0.011445 -0.003549 0.000000 0.000000 0.000000
# 3 -0.004620 -0.003549 0.010318 0.000000 0.000000 0.000000
# 4 0.000000 0.000000 0.000000 0.022436 0.000000 0.000000
# 5 0.000000 0.000000 0.000000 0.000000 0.113630 0.000000
# 6 0.000000 0.000000 0.000000 0.000000 0.000000 1.953872
#
#
# Mechanical properties :
#
#
# Convention : Reuss Voigt Hill
#
# Bulk Modulus (GPa) = 53.98314 58.87988 56.43151
# Shear Modulus (GPa) = 2.33159 26.70463 14.51811
#
# Velocity S-wave (km/s) = 1.11447 3.77169 2.78098
# Velocity P-wave (km/s) = 5.51481 7.09458 6.35398
#
# Compressibility (1/GPa) = 0.01852430
#
# Stress axis : x y z
#
# Youngs Moduli (GPa) = 85.67927 87.37260 96.91689
#
# Poissons Ratio (x) = -0.06238 0.44778
# Poissons Ratio (y) = -0.06117 0.34395
# Poissons Ratio (z) = 0.39586 0.31008
#
# Static dielectric constant tensor:
#      x y z
#    x 1.642050 0.000000 0.000000 
#    y 0.000000 1.672470 0.000000 
#    z 0.000000 0.000000 1.637300 
# 
# From -- ./inp_files/11623.got.cif
#   From: 2010.05.17/outbox.cif.g08.bks.cpg/sg68_6_cif.got.tgz:11623.got - 2010.06.03 18:57:09.
