data_PCOD9508828
_publ_section_title
;
Structure prediction by ZEFSAII (Michael W. Deem and Ramdas Pophale) SiO2 
 PCOD9508828
Probable space group: C C C A
;
_chemical_formula_sum "Si O2"
_cell_formula_units_Z 80
_cell_length_a 15.474549
_cell_length_b 19.045624
_cell_length_c 10.818487
_cell_angle_alpha 90.000000
_cell_angle_beta 90.000000
_cell_angle_gamma 90.000000
_cell_volume 3188.450905
_symmetry_space_group_name_H-M "C C C A"
_symmetry_group_IT_number 68
_space_group.IT_coordinate_system_code '2'
_symmetry_cell_setting 'orthorhombic'
loop_
_space_group_symop_operation_xyz
x,y,z
-x,1/2-y,z
x,1/2-y,1/2-z
-x,y,1/2-z
-x,-y,-z
x,1/2+y,-z
-x,1/2+y,1/2+z
x,-y,1/2+z
1/2+x,1/2+y,z
1/2-x,-y,z
1/2+x,-y,1/2-z
1/2-x,1/2+y,1/2-z
1/2-x,1/2-y,-z
1/2+x,y,-z
1/2-x,y,1/2+z
1/2+x,1/2-y,1/2+z
loop_
_atom_site_type_symbol
_atom_site_label
_atom_site_fract_x
_atom_site_fract_y
_atom_site_fract_z
Si Si1 0.340577 0.973962 0.820590
Si Si2 0.646065 0.833324 0.547665
Si Si3 0.413873 0.025270 0.071115
Si Si4 0.017771 0.832184 0.880528
Si Si5 0.664533 0.328361 0.043496
O O1 0.250000 0.000000 0.769582
O O2 0.349100 0.004754 0.959693
O O3 0.342917 0.890428 0.845513
O O4 0.404133 0.999789 0.711883
O O5 0.557455 0.853787 0.477112
O O6 0.643922 0.751095 0.587623
O O7 0.732806 0.838539 0.462940
O O8 0.392349 0.107741 0.095474
O O9 0.500000 0.000000 0.000000
O O10 0.000000 0.750000 0.874521
O O11 0.000000 0.865429 0.750000
O O12 0.120125 0.833473 0.907667
#
# Coordination Sequence:
#
# PCOD9508828 Si02
#       5
#    16  16  16  16  16
#     4  12  26  48  74 107 153 207 261 330 404 489
#     4  10  22  43  72 107 157 198 262 335 400 470
#     4  12  27  47  74 109 156 209 265 325 403 487
#     4   9  19  37  65 104 149 194 245 310 388 472
#     4  10  22  42  69 111 151 204 262 332 401 470
#
# _framework density 25.090554999999998
#
# number of rings (size 3 to 8) (size 9 to 14) (size 15 to 20)
#    0.000    1.400    2.000    2.400    0.000    5.600 
#    0.000    4.000    0.000    6.000    0.000    0.000 
#    0.000    0.000    0.000    0.000    0.000    0.000 
#
# Total GULP energy -222690.055159 kJ/mol
# GULP energy per Si atom -5567.251379 kJ/mol
# Density = 2.503345 g / cm^3
# Si number density = 25.090555 Si / 1000 Ang^3
#
#
#
# Elastic Constant Matrix: (Units=GPa)
#
#
# Indices 1 2 3 4 5 6 
#
# 1 149.1761 46.8913 36.3612 0.0000 0.0000 0.0000
# 2 46.8913 187.2812 48.0303 0.0000 0.0000 0.0000
# 3 36.3612 48.0303 113.1939 0.0000 0.0000 0.0000
# 4 0.0000 0.0000 0.0000 -4.0415 0.0000 0.0000
# 5 0.0000 0.0000 0.0000 0.0000 11.0134 0.0000
# 6 0.0000 0.0000 0.0000 0.0000 0.0000 31.4143
#
#
#
# Elastic Compliance Matrix: (Units=1/GPa)
#
#
# Indices 1 2 3 4 5 6 
#
# 1 0.007601 -0.001433 -0.001834 0.000000 0.000000 0.000000
# 2 -0.001433 0.006262 -0.002197 0.000000 0.000000 0.000000
# 3 -0.001834 -0.002197 0.010356 0.000000 0.000000 0.000000
# 4 0.000000 0.000000 0.000000 -0.247430 0.000000 0.000000
# 5 0.000000 0.000000 0.000000 0.000000 0.090798 0.000000
# 6 0.000000 0.000000 0.000000 0.000000 0.000000 0.031833
#
#
# Mechanical properties :
#
#
# Convention : Reuss Voigt Hill
#
# Bulk Modulus (GPa) = 75.23478 79.13519 77.18499
# Shear Modulus (GPa) = -58.66847 28.90181 -14.88333
#
# Velocity S-wave (km/s) = -4.84081 3.39765 -2.43818
# Velocity P-wave (km/s) = 1.09280 6.85568 4.78571
#
# Compressibility (1/GPa) = 0.01329172
#
# Stress axis : x y z
#
# Youngs Moduli (GPa) = 131.56482 159.70159 96.56702
#
# Poissons Ratio (x) = 0.22883 0.17707
# Poissons Ratio (y) = 0.18851 0.21213
# Poissons Ratio (z) = 0.24124 0.35081
#
# Static dielectric constant tensor:
#      x y z
#    x 1.977220 0.000000 0.000000 
#    y 0.000000 2.091330 0.000000 
#    z 0.000000 0.000000 2.097690 
# 
# From -- ./inp_files/31157.got.cif
#   From: 2010.05.17/outbox.cif.g08.bks.cpg/sg68_16_cif.got.tgz:31157.got - 2010.06.03 18:57:09.
