data_PCOD9508705
_publ_section_title
;
Structure prediction by ZEFSAII (Michael W. Deem and Ramdas Pophale) SiO2 
 PCOD9508705
Probable space group: C C C A
;
_chemical_formula_sum "Si O2"
_cell_formula_units_Z 72
_cell_length_a 26.568823
_cell_length_b 9.878029
_cell_length_c 13.148226
_cell_angle_alpha 90.000000
_cell_angle_beta 90.000000
_cell_angle_gamma 90.000000
_cell_volume 3450.720412
_symmetry_space_group_name_H-M "C C C A"
_symmetry_group_IT_number 68
_space_group.IT_coordinate_system_code '2'
_symmetry_cell_setting 'orthorhombic'
loop_
_space_group_symop_operation_xyz
x,y,z
-x,1/2-y,z
x,1/2-y,1/2-z
-x,y,1/2-z
-x,-y,-z
x,1/2+y,-z
-x,1/2+y,1/2+z
x,-y,1/2+z
1/2+x,1/2+y,z
1/2-x,-y,z
1/2+x,-y,1/2-z
1/2-x,1/2+y,1/2-z
1/2-x,1/2-y,-z
1/2+x,y,-z
1/2-x,y,1/2+z
1/2+x,1/2-y,1/2+z
loop_
_atom_site_type_symbol
_atom_site_label
_atom_site_fract_x
_atom_site_fract_y
_atom_site_fract_z
Si Si1 0.075565 0.863660 0.389095
Si Si2 0.160861 0.750000 0.250000
Si Si3 0.500000 0.507773 0.250000
Si Si4 0.782335 0.636120 0.057001
Si Si5 0.109061 0.637932 0.537055
Si Si6 0.575913 0.250000 0.750000
O O1 0.121947 0.849830 0.308653
O O2 0.025408 0.908115 0.331171
O O3 0.079248 0.729386 0.455947
O O4 0.086153 0.989615 0.461474
O O5 0.196654 0.819129 0.166998
O O6 0.457156 0.617409 0.281165
O O7 0.750000 0.500000 0.062932
O O8 0.750000 0.750000 0.000000
O O9 0.833270 0.621497 0.992920
O O10 0.104673 0.703185 0.649084
#
# Coordination Sequence:
#
# PCOD9508705 Si02
#       6
#    16   8   8  16  16   8
#     4  10  22  42  66  93 130 164 210 257 318 376
#     4  10  24  42  64  95 130 169 206 266 326 370
#     4   9  20  39  64  94 124 172 218 258 304 386
#     4  11  24  42  65  93 123 163 217 262 315 384
#     4  10  22  41  64  94 129 166 203 265 321 370
#     4   9  20  39  64  95 132 167 214 259 318 375
#
# _framework density 20.865207999999999
#
# number of rings (size 3 to 8) (size 9 to 14) (size 15 to 20)
#    0.000    2.000    0.000    2.667    0.000   15.556 
#    0.000   13.333    0.000    1.333    0.000    0.000 
#    0.000    0.000    0.000    0.000    0.000    0.000 
#
# Total GULP energy -201066.818140 kJ/mol
# GULP energy per Si atom -5585.189393 kJ/mol
# Density = 2.081772 g / cm^3
# Si number density = 20.865208 Si / 1000 Ang^3
#
#
#
# Elastic Constant Matrix: (Units=GPa)
#
#
# Indices 1 2 3 4 5 6 
#
# 1 125.7441 78.9329 85.5261 0.0000 0.0000 0.0000
# 2 78.9329 155.6706 76.1728 0.0000 0.0000 0.0000
# 3 85.5261 76.1728 110.7454 0.0000 0.0000 0.0000
# 4 0.0000 0.0000 0.0000 28.2982 0.0000 0.0000
# 5 0.0000 0.0000 0.0000 0.0000 -25.8790 0.0000
# 6 0.0000 0.0000 0.0000 0.0000 0.0000 -132.4962
#
#
#
# Elastic Compliance Matrix: (Units=1/GPa)
#
#
# Indices 1 2 3 4 5 6 
#
# 1 0.017928 -0.003490 -0.011444 0.000000 0.000000 0.000000
# 2 -0.003490 0.010362 -0.004432 0.000000 0.000000 0.000000
# 3 -0.011444 -0.004432 0.020916 0.000000 0.000000 0.000000
# 4 0.000000 0.000000 0.000000 0.035338 0.000000 0.000000
# 5 0.000000 0.000000 0.000000 0.000000 -0.038641 0.000000
# 6 0.000000 0.000000 0.000000 0.000000 0.000000 -0.007547
#
#
# Mechanical properties :
#
#
# Convention : Reuss Voigt Hill
#
# Bulk Modulus (GPa) = 95.48341 97.04710 96.26525
# Shear Modulus (GPa) = 62.05062 -15.91353 23.06855
#
# Velocity S-wave (km/s) = 5.45925 -2.76467 3.32866
# Velocity P-wave (km/s) = 9.25198 6.03500 7.81090
#
# Compressibility (1/GPa) = 0.01047302
#
# Stress axis : x y z
#
# Youngs Moduli (GPa) = 55.77981 96.50513 47.80954
#
# Poissons Ratio (x) = 0.33682 0.54715
# Poissons Ratio (y) = 0.19468 0.21189
# Poissons Ratio (z) = 0.63837 0.42770
#
# Static dielectric constant tensor:
#      x y z
#    x 1.679810 0.000000 0.000000 
#    y 0.000000 1.733820 0.000000 
#    z 0.000000 0.000000 1.755280 
# 
# From -- ./inp_files/11864.got.cif
#   From: 2010.05.17/outbox.cif.g08.bks.cpg/sg68_6_cif.got.tgz:11864.got - 2010.06.03 18:57:09.
