data_PCOD9508787
_publ_section_title
;
Structure prediction by ZEFSAII (Michael W. Deem and Ramdas Pophale) SiO2 
 PCOD9508787
Probable space group: C C C A
;
_chemical_formula_sum "Si O2"
_cell_formula_units_Z 80
_cell_length_a 19.009357
_cell_length_b 14.794789
_cell_length_c 13.064007
_cell_angle_alpha 90.000000
_cell_angle_beta 90.000000
_cell_angle_gamma 90.000000
_cell_volume 3674.113828
_symmetry_space_group_name_H-M "C C C A"
_symmetry_group_IT_number 68
_space_group.IT_coordinate_system_code '2'
_symmetry_cell_setting 'orthorhombic'
loop_
_space_group_symop_operation_xyz
x,y,z
-x,1/2-y,z
x,1/2-y,1/2-z
-x,y,1/2-z
-x,-y,-z
x,1/2+y,-z
-x,1/2+y,1/2+z
x,-y,1/2+z
1/2+x,1/2+y,z
1/2-x,-y,z
1/2+x,-y,1/2-z
1/2-x,1/2+y,1/2-z
1/2-x,1/2-y,-z
1/2+x,y,-z
1/2-x,y,1/2+z
1/2+x,1/2-y,1/2+z
loop_
_atom_site_type_symbol
_atom_site_label
_atom_site_fract_x
_atom_site_fract_y
_atom_site_fract_z
Si Si1 0.848799 0.112687 0.977440
Si Si2 0.875237 0.165472 0.190404
Si Si3 0.781845 0.350164 0.725677
Si Si4 0.877441 0.024458 0.633497
Si Si5 0.004852 0.645197 0.373230
O O1 0.790738 0.134366 0.894441
O O2 0.922073 0.107835 0.915845
O O3 0.859967 0.184251 0.070016
O O4 0.836266 0.020637 0.039288
O O5 0.907957 0.250000 0.250000
O O6 0.798867 0.148607 0.240884
O O7 0.910143 0.065959 0.187490
O O8 0.811080 0.250000 0.750000
O O9 0.826769 0.421761 0.790487
O O10 0.938201 0.088199 0.591136
O O11 0.000000 0.750000 0.402652
O O12 0.000000 0.640096 0.250000
#
# Coordination Sequence:
#
# PCOD9508787 Si02
#       5
#    16  16  16  16  16
#     4  10  23  41  65  99 135 176 231 275 355 385
#     4   9  23  43  63  99 142 177 227 273 344 409
#     4  11  21  43  67  97 137 181 235 277 329 414
#     4  10  22  42  64  99 135 173 226 284 342 403
#     4  11  21  41  70  97 129 173 231 288 337 415
#
# _framework density 21.773956999999999
#
# number of rings (size 3 to 8) (size 9 to 14) (size 15 to 20)
#    1.200    0.600    2.000    2.400    0.000    3.200 
#   14.400    0.000    0.000    0.000    0.000    0.000 
#    0.000    0.000    0.000    0.000    0.000    0.000 
#
# Total GULP energy -223154.997461 kJ/mol
# GULP energy per Si atom -5578.874937 kJ/mol
# Density = 2.172440 g / cm^3
# Si number density = 21.773957 Si / 1000 Ang^3
#
#
#
# Elastic Constant Matrix: (Units=GPa)
#
#
# Indices 1 2 3 4 5 6 
#
# 1 36.1760 10.6149 13.6529 0.0000 0.0000 0.0000
# 2 10.6149 139.1282 39.2932 0.0000 0.0000 0.0000
# 3 13.6529 39.2932 123.3062 0.0000 0.0000 0.0000
# 4 0.0000 0.0000 0.0000 35.0951 0.0000 0.0000
# 5 0.0000 0.0000 0.0000 0.0000 16.1513 0.0000
# 6 0.0000 0.0000 0.0000 0.0000 0.0000 5.1997
#
#
#
# Elastic Compliance Matrix: (Units=1/GPa)
#
#
# Indices 1 2 3 4 5 6 
#
# 1 0.029108 -0.001440 -0.002764 0.000000 0.000000 0.000000
# 2 -0.001440 0.007970 -0.002380 0.000000 0.000000 0.000000
# 3 -0.002764 -0.002380 0.009174 0.000000 0.000000 0.000000
# 4 0.000000 0.000000 0.000000 0.028494 0.000000 0.000000
# 5 0.000000 0.000000 0.000000 0.000000 0.061914 0.000000
# 6 0.000000 0.000000 0.000000 0.000000 0.000000 0.192317
#
#
# Mechanical properties :
#
#
# Convention : Reuss Voigt Hill
#
# Bulk Modulus (GPa) = 30.22645 47.30360 38.76503
# Shear Modulus (GPa) = 14.15728 26.95921 20.55824
#
# Velocity S-wave (km/s) = 2.55266 3.52254 3.07606
# Velocity P-wave (km/s) = 4.75396 6.19002 5.51890
#
# Compressibility (1/GPa) = 0.03308361
#
# Stress axis : x y z
#
# Youngs Moduli (GPa) = 34.35438 125.47491 108.99877
#
# Poissons Ratio (x) = 0.18071 0.30128
# Poissons Ratio (y) = 0.04948 0.25944
# Poissons Ratio (z) = 0.09496 0.29865
#
# Static dielectric constant tensor:
#      x y z
#    x 1.792990 0.000000 0.000000 
#    y 0.000000 1.837620 0.000000 
#    z 0.000000 0.000000 1.800510 
# 
# From -- ./inp_files/24309.got.cif
#   From: 2010.05.17/outbox.cif.g08.bks.cpg/sg68_13_cif.got.tgz:24309.got - 2010.06.03 18:57:09.
