data_PCOD9508012
_publ_section_title
;
Structure prediction by ZEFSAII (Michael W. Deem and Ramdas Pophale) SiO2 
 PCOD9508012
Probable space group: C C C A
;
_chemical_formula_sum "Si O2"
_cell_formula_units_Z 112
_cell_length_a 11.305077
_cell_length_b 19.446564
_cell_length_c 25.766790
_cell_angle_alpha 90.000000
_cell_angle_beta 90.000000
_cell_angle_gamma 90.000000
_cell_volume 5664.697459
_symmetry_space_group_name_H-M "C C C A"
_symmetry_group_IT_number 68
_space_group.IT_coordinate_system_code '2'
_symmetry_cell_setting 'orthorhombic'
loop_
_space_group_symop_operation_xyz
x,y,z
-x,1/2-y,z
x,1/2-y,1/2-z
-x,y,1/2-z
-x,-y,-z
x,1/2+y,-z
-x,1/2+y,1/2+z
x,-y,1/2+z
1/2+x,1/2+y,z
1/2-x,-y,z
1/2+x,-y,1/2-z
1/2-x,1/2+y,1/2-z
1/2-x,1/2-y,-z
1/2+x,y,-z
1/2-x,y,1/2+z
1/2+x,1/2-y,1/2+z
loop_
_atom_site_type_symbol
_atom_site_label
_atom_site_fract_x
_atom_site_fract_y
_atom_site_fract_z
Si Si1 0.969153 0.909067 0.807102
Si Si2 0.777421 0.642863 0.840739
Si Si3 0.256437 0.827860 0.730908
Si Si4 0.687354 0.069312 0.555870
Si Si5 0.572230 0.026494 0.912251
Si Si6 0.300747 0.109729 0.053318
Si Si7 0.367985 0.722401 0.865441
O O1 0.856290 0.860528 0.797695
O O2 0.939750 0.966045 0.850029
O O3 0.000000 0.937217 0.750000
O O4 0.082412 0.865191 0.827640
O O5 0.718428 0.630846 0.784153
O O6 0.757330 0.592507 0.889303
O O7 0.726551 0.715873 0.859198
O O8 0.228216 0.750000 0.750000
O O9 0.357995 0.820741 0.688245
O O10 0.551113 0.051560 0.564800
O O11 0.699093 0.121617 0.508343
O O12 0.750000 0.000000 0.537512
O O13 0.675038 0.078616 0.929446
O O14 0.606879 0.951109 0.931938
O O15 0.332630 0.175488 0.086628
O O16 0.500000 0.750000 0.871014
#
# Coordination Sequence:
#
# PCOD9508012 Si02
#       7
#    16  16  16  16  16  16  16
#     4   9  17  36  63  90 118 150 205 266 306 360
#     4   9  22  37  58  91 119 160 201 257 309 365
#     4   9  18  36  60  86 119 161 202 249 309 377
#     4  11  23  40  65  91 123 161 215 263 310 367
#     4  10  21  40  63  92 117 163 215 253 312 373
#     4  11  23  40  66  90 122 172 206 255 312 381
#     4  11  24  39  61  88 129 163 205 252 312 388
#
# _framework density 19.771577000000001
#
# number of rings (size 3 to 8) (size 9 to 14) (size 15 to 20)
#    0.000    2.000    2.857    0.429    2.000    9.714 
#    0.000    4.286    3.143    0.000    0.000    0.000 
#    0.000    0.000    0.000    0.000    0.000    0.000 
#
# Total GULP energy -312337.520167 kJ/mol
# GULP energy per Si atom -5577.455717 kJ/mol
# Density = 1.972658 g / cm^3
# Si number density = 19.771577 Si / 1000 Ang^3
#
#
#
# Elastic Constant Matrix: (Units=GPa)
#
#
# Indices 1 2 3 4 5 6 
#
# 1 31.9532 9.2080 26.2307 0.0000 0.0000 0.0000
# 2 9.2080 23.3888 28.2554 0.0000 0.0000 0.0000
# 3 26.2307 28.2554 119.9209 0.0000 0.0000 0.0000
# 4 0.0000 0.0000 0.0000 32.6452 0.0000 0.0000
# 5 0.0000 0.0000 0.0000 0.0000 16.8565 0.0000
# 6 0.0000 0.0000 0.0000 0.0000 0.0000 12.8214
#
#
#
# Elastic Compliance Matrix: (Units=1/GPa)
#
#
# Indices 1 2 3 4 5 6 
#
# 1 0.038959 -0.007050 -0.006861 0.000000 0.000000 0.000000
# 2 -0.007050 0.061044 -0.012841 0.000000 0.000000 0.000000
# 3 -0.006861 -0.012841 0.012865 0.000000 0.000000 0.000000
# 4 0.000000 0.000000 0.000000 0.030632 0.000000 0.000000
# 5 0.000000 0.000000 0.000000 0.000000 0.059324 0.000000
# 6 0.000000 0.000000 0.000000 0.000000 0.000000 0.077994
#
#
# Mechanical properties :
#
#
# Convention : Reuss Voigt Hill
#
# Bulk Modulus (GPa) = 16.84485 33.62793 25.23639
# Shear Modulus (GPa) = 14.11988 19.90253 17.01121
#
# Velocity S-wave (km/s) = 2.67526 3.17617 2.93642
# Velocity P-wave (km/s) = 4.25216 5.52231 4.92833
#
# Compressibility (1/GPa) = 0.05936531
#
# Stress axis : x y z
#
# Youngs Moduli (GPa) = 25.66782 16.38167 77.73012
#
# Poissons Ratio (x) = 0.11549 0.53328
# Poissons Ratio (y) = 0.18095 0.99813
# Poissons Ratio (z) = 0.17610 0.21036
#
# Static dielectric constant tensor:
#      x y z
#    x 1.676940 0.000000 0.000000 
#    y 0.000000 1.674810 0.000000 
#    z 0.000000 0.000000 1.749000 
# 
# From -- ./inp_files/44591.got.cif
#   From: 2010.05.17/outbox.cif.g08.bks.cpg/sg68_23_cif.got.tgz:44591.got - 2010.06.03 18:57:09.
