data_PCOD9508567
_publ_section_title
;
Structure prediction by ZEFSAII (Michael W. Deem and Ramdas Pophale) SiO2 
 PCOD9508567
Probable space group: C C C A
;
_chemical_formula_sum "Si O2"
_cell_formula_units_Z 56
_cell_length_a 24.571109
_cell_length_b 4.958130
_cell_length_c 22.724408
_cell_angle_alpha 90.000000
_cell_angle_beta 90.000000
_cell_angle_gamma 90.000000
_cell_volume 2768.440833
_symmetry_space_group_name_H-M "C C C A"
_symmetry_group_IT_number 68
_space_group.IT_coordinate_system_code '2'
_symmetry_cell_setting 'orthorhombic'
loop_
_space_group_symop_operation_xyz
x,y,z
-x,1/2-y,z
x,1/2-y,1/2-z
-x,y,1/2-z
-x,-y,-z
x,1/2+y,-z
-x,1/2+y,1/2+z
x,-y,1/2+z
1/2+x,1/2+y,z
1/2-x,-y,z
1/2+x,-y,1/2-z
1/2-x,1/2+y,1/2-z
1/2-x,1/2-y,-z
1/2+x,y,-z
1/2-x,y,1/2+z
1/2+x,1/2-y,1/2+z
loop_
_atom_site_type_symbol
_atom_site_label
_atom_site_fract_x
_atom_site_fract_y
_atom_site_fract_z
Si Si1 0.814955 0.488999 0.037398
Si Si2 0.712161 0.250000 0.750000
Si Si3 0.872284 0.692012 0.854126
Si Si4 0.063296 0.196435 0.680776
O O1 0.750000 0.500000 0.049458
O O2 0.846022 0.343913 0.090339
O O3 0.827151 0.794764 0.018553
O O4 0.750000 0.500000 0.733496
O O5 0.674260 0.326067 0.804677
O O6 0.899508 0.398522 0.857616
O O7 0.919508 0.891740 0.831563
O O8 0.074028 0.250000 0.750000
O O9 0.000000 0.250000 0.669413
#
# Coordination Sequence:
#
# PCOD9508567 Si02
#       4
#    16   8  16  16
#     4  10  22  40  62  88 118 163 211 245 290 360
#     4  12  24  36  55  90 127 154 184 238 312 366
#     4  12  22  40  62  89 124 159 198 252 307 359
#     4  11  22  39  62  90 122 158 205 249 301 370
#
# _framework density 20.227990999999999
#
# number of rings (size 3 to 8) (size 9 to 14) (size 15 to 20)
#    0.000    0.857    2.857    5.143    0.000    5.714 
#    0.000    0.000    0.000   17.143    0.000    0.000 
#    0.000    0.000    0.000    0.000    0.000    0.000 
#
# Total GULP energy -156472.915399 kJ/mol
# GULP energy per Si atom -5588.318407 kJ/mol
# Density = 2.018195 g / cm^3
# Si number density = 20.227991 Si / 1000 Ang^3
#
#
#
# Elastic Constant Matrix: (Units=GPa)
#
#
# Indices 1 2 3 4 5 6 
#
# 1 82.4970 14.6700 25.5881 0.0000 0.0000 0.0000
# 2 14.6700 91.4211 -15.5632 0.0000 0.0000 0.0000
# 3 25.5881 -15.5632 59.1087 0.0000 0.0000 0.0000
# 4 0.0000 0.0000 0.0000 25.0708 0.0000 0.0000
# 5 0.0000 0.0000 0.0000 0.0000 22.2441 0.0000
# 6 0.0000 0.0000 0.0000 0.0000 0.0000 -0.6631
#
#
#
# Elastic Compliance Matrix: (Units=1/GPa)
#
#
# Indices 1 2 3 4 5 6 
#
# 1 0.015112 -0.003705 -0.007517 0.000000 0.000000 0.000000
# 2 -0.003705 0.012360 0.004858 0.000000 0.000000 0.000000
# 3 -0.007517 0.004858 0.021451 0.000000 0.000000 0.000000
# 4 0.000000 0.000000 0.000000 0.039887 0.000000 0.000000
# 5 0.000000 0.000000 0.000000 0.000000 0.044956 0.000000
# 6 0.000000 0.000000 0.000000 0.000000 0.000000 -1.508012
#
#
# Mechanical properties :
#
#
# Convention : Reuss Voigt Hill
#
# Bulk Modulus (GPa) = 27.62790 31.37961 29.50376
# Shear Modulus (GPa) = -3.70521 23.21915 9.75697
#
# Velocity S-wave (km/s) = -1.35488 3.39170 2.19863
# Velocity P-wave (km/s) = 3.35266 5.55741 4.58940
#
# Compressibility (1/GPa) = 0.03619529
#
# Stress axis : x y z
#
# Youngs Moduli (GPa) = 66.17193 80.90675 46.61691
#
# Poissons Ratio (x) = 0.29974 0.35044
# Poissons Ratio (y) = 0.24515 -0.22647
# Poissons Ratio (z) = 0.49745 -0.39306
#
# Static dielectric constant tensor:
#      x y z
#    x 1.684550 0.000000 0.000000 
#    y 0.000000 1.716430 0.000000 
#    z 0.000000 0.000000 1.727700 
# 
# From -- ./inp_files/34913.got.cif
#   From: 2010.05.17/outbox.cif.g08.bks.cpg/sg68_18_cif.got.tgz:34913.got - 2010.06.03 18:57:09.
