data_PCOD9508425
_publ_section_title
;
Structure prediction by ZEFSAII (Michael W. Deem and Ramdas Pophale) SiO2 
 PCOD9508425
Probable space group: C C C A
;
_chemical_formula_sum "Si O2"
_cell_formula_units_Z 64
_cell_length_a 8.339437
_cell_length_b 26.178223
_cell_length_c 12.572448
_cell_angle_alpha 90.000000
_cell_angle_beta 90.000000
_cell_angle_gamma 90.000000
_cell_volume 2744.711760
_symmetry_space_group_name_H-M "C C C A"
_symmetry_group_IT_number 68
_space_group.IT_coordinate_system_code '2'
_symmetry_cell_setting 'orthorhombic'
loop_
_space_group_symop_operation_xyz
x,y,z
-x,1/2-y,z
x,1/2-y,1/2-z
-x,y,1/2-z
-x,-y,-z
x,1/2+y,-z
-x,1/2+y,1/2+z
x,-y,1/2+z
1/2+x,1/2+y,z
1/2-x,-y,z
1/2+x,-y,1/2-z
1/2-x,1/2+y,1/2-z
1/2-x,1/2-y,-z
1/2+x,y,-z
1/2-x,y,1/2+z
1/2+x,1/2-y,1/2+z
loop_
_atom_site_type_symbol
_atom_site_label
_atom_site_fract_x
_atom_site_fract_y
_atom_site_fract_z
Si Si1 0.945057 0.055042 0.634327
Si Si2 0.124715 0.212174 0.556235
Si Si3 0.074559 0.162183 0.139398
Si Si4 0.908674 0.564623 0.912528
O O1 0.772796 0.080223 0.612098
O O2 0.000000 0.070133 0.750000
O O3 0.065261 0.066468 0.538889
O O4 0.927604 0.993346 0.627263
O O5 0.250000 0.250000 0.500000
O O6 0.239510 0.176410 0.625862
O O7 0.000000 0.250000 0.613862
O O8 0.027024 0.183440 0.462124
O O9 0.000000 0.182325 0.250000
O O10 0.040485 0.101805 0.136379
#
# Coordination Sequence:
#
# PCOD9508425 Si02
#       4
#    16  16  16  16
#     4  10  22  39  60  87 132 182 220 272 327 373
#     4   9  21  41  62  91 124 155 206 264 324 405
#     4  11  22  40  66  93 126 168 212 270 331 386
#     4  10  22  38  60  93 127 170 232 273 315 389
#
# _framework density 23.317567
#
# number of rings (size 3 to 8) (size 9 to 14) (size 15 to 20)
#    0.000    2.000    0.000    2.250    0.000   16.500 
#    0.000    8.750    0.000    0.000    0.000    0.000 
#    0.000    0.000    0.000    0.000    0.000    0.000 
#
# Total GULP energy -178936.718047 kJ/mol
# GULP energy per Si atom -5591.772439 kJ/mol
# Density = 2.326450 g / cm^3
# Si number density = 23.317567 Si / 1000 Ang^3
#
#
#
# Elastic Constant Matrix: (Units=GPa)
#
#
# Indices 1 2 3 4 5 6 
#
# 1 170.9987 41.8850 70.4159 0.0000 0.0000 0.0000
# 2 41.8850 78.5045 1.9132 0.0000 0.0000 0.0000
# 3 70.4159 1.9132 146.2736 0.0000 0.0000 0.0000
# 4 0.0000 0.0000 0.0000 -6.2763 0.0000 0.0000
# 5 0.0000 0.0000 0.0000 0.0000 24.0233 0.0000
# 6 0.0000 0.0000 0.0000 0.0000 0.0000 47.1185
#
#
#
# Elastic Compliance Matrix: (Units=1/GPa)
#
#
# Indices 1 2 3 4 5 6 
#
# 1 0.008642 -0.004511 -0.004101 0.000000 0.000000 0.000000
# 2 -0.004511 0.015097 0.001974 0.000000 0.000000 0.000000
# 3 -0.004101 0.001974 0.008785 0.000000 0.000000 0.000000
# 4 0.000000 0.000000 0.000000 -0.159330 0.000000 0.000000
# 5 0.000000 0.000000 0.000000 0.000000 0.041626 0.000000
# 6 0.000000 0.000000 0.000000 0.000000 0.000000 0.021223
#
#
# Mechanical properties :
#
#
# Convention : Reuss Voigt Hill
#
# Bulk Modulus (GPa) = 51.95436 69.35609 60.65523
# Shear Modulus (GPa) = -112.95254 31.74396 -40.60429
#
# Velocity S-wave (km/s) = -6.96750 3.69368 -4.17749
# Velocity P-wave (km/s) = 6.51142 6.92819 1.67350
#
# Compressibility (1/GPa) = 0.01924766
#
# Stress axis : x y z
#
# Youngs Moduli (GPa) = 115.71852 66.23989 113.83110
#
# Poissons Ratio (x) = 0.29879 0.46683
# Poissons Ratio (y) = 0.52197 -0.22470
# Poissons Ratio (z) = 0.47457 -0.13076
#
# Static dielectric constant tensor:
#      x y z
#    x 1.863450 0.000000 0.000000 
#    y 0.000000 1.949490 0.000000 
#    z 0.000000 0.000000 1.733510 
# 
# From -- ./inp_files/10755.got.cif
#   From: 2010.05.17/outbox.cif.g08.bks.cpg/sg68_6_cif.got.tgz:10755.got - 2010.06.03 18:57:09.
