data_PCOD9508970
_publ_section_title
;
Structure prediction by ZEFSAII (Michael W. Deem and Ramdas Pophale) SiO2 
 PCOD9508970
Probable space group: C C C A
;
_chemical_formula_sum "Si O2"
_cell_formula_units_Z 64
_cell_length_a 27.799783
_cell_length_b 11.220428
_cell_length_c 8.827954
_cell_angle_alpha 90.000000
_cell_angle_beta 90.000000
_cell_angle_gamma 90.000000
_cell_volume 2753.663644
_symmetry_space_group_name_H-M "C C C A"
_symmetry_group_IT_number 68
_space_group.IT_coordinate_system_code '2'
_symmetry_cell_setting 'orthorhombic'
loop_
_space_group_symop_operation_xyz
x,y,z
-x,1/2-y,z
x,1/2-y,1/2-z
-x,y,1/2-z
-x,-y,-z
x,1/2+y,-z
-x,1/2+y,1/2+z
x,-y,1/2+z
1/2+x,1/2+y,z
1/2-x,-y,z
1/2+x,-y,1/2-z
1/2-x,1/2+y,1/2-z
1/2-x,1/2-y,-z
1/2+x,y,-z
1/2-x,y,1/2+z
1/2+x,1/2-y,1/2+z
loop_
_atom_site_type_symbol
_atom_site_label
_atom_site_fract_x
_atom_site_fract_y
_atom_site_fract_z
Si Si1 0.383082 0.250000 0.750000
Si Si2 0.390113 0.958513 0.473709
Si Si3 0.734947 0.750000 0.750000
Si Si4 0.053648 0.110150 0.766415
Si Si5 0.308590 0.380972 0.964586
O O1 0.404673 0.356913 0.648994
O O2 0.350803 0.315444 0.874947
O O3 0.409545 0.925290 0.635941
O O4 0.420787 0.071822 0.419696
O O5 0.333261 0.992113 0.489238
O O6 0.705197 0.818548 0.621842
O O7 0.765388 0.850538 0.845615
O O8 0.048983 0.250000 0.750000
O O9 0.000000 0.057240 0.750000
#
# Coordination Sequence:
#
# PCOD9508970 Si02
#       5
#     8  16   8  16  16
#     4  11  24  42  69 109 136 194 241 286 363 440
#     4  12  24  46  75 105 145 193 239 294 368 433
#     4   9  22  44  72 109 140 182 251 296 364 422
#     4  11  26  47  75 108 146 184 239 297 358 432
#     4  10  22  44  70 101 144 187 238 299 357 433
#
# _framework density 23.241762000000001
#
# number of rings (size 3 to 8) (size 9 to 14) (size 15 to 20)
#    0.000    1.250    2.500    2.250    5.250    0.000 
#    0.000   21.250    0.000    0.000    0.000    0.000 
#    0.000    0.000    0.000    0.000    0.000    0.000 
#
# Total GULP energy -178526.144708 kJ/mol
# GULP energy per Si atom -5578.942022 kJ/mol
# Density = 2.318886 g / cm^3
# Si number density = 23.241762 Si / 1000 Ang^3
#
#
#
# Elastic Constant Matrix: (Units=GPa)
#
#
# Indices 1 2 3 4 5 6 
#
# 1 72.0446 11.5768 28.3468 0.0000 0.0000 0.0000
# 2 11.5768 59.1678 5.0531 0.0000 0.0000 0.0000
# 3 28.3468 5.0531 99.1997 0.0000 0.0000 0.0000
# 4 0.0000 0.0000 0.0000 36.6895 0.0000 0.0000
# 5 0.0000 0.0000 0.0000 0.0000 69.2756 0.0000
# 6 0.0000 0.0000 0.0000 0.0000 0.0000 22.2578
#
#
#
# Elastic Compliance Matrix: (Units=1/GPa)
#
#
# Indices 1 2 3 4 5 6 
#
# 1 0.016077 -0.002765 -0.004453 0.000000 0.000000 0.000000
# 2 -0.002765 0.017451 -0.000099 0.000000 0.000000 0.000000
# 3 -0.004453 -0.000099 0.011358 0.000000 0.000000 0.000000
# 4 0.000000 0.000000 0.000000 0.027256 0.000000 0.000000
# 5 0.000000 0.000000 0.000000 0.000000 0.014435 0.000000
# 6 0.000000 0.000000 0.000000 0.000000 0.000000 0.044928
#
#
# Mechanical properties :
#
#
# Convention : Reuss Voigt Hill
#
# Bulk Modulus (GPa) = 33.05648 35.59618 34.32633
# Shear Modulus (GPa) = 32.00562 38.00694 35.00628
#
# Velocity S-wave (km/s) = 3.71492 4.04825 3.88516
# Velocity P-wave (km/s) = 5.71442 6.09918 5.90993
#
# Compressibility (1/GPa) = 0.03025126
#
# Stress axis : x y z
#
# Youngs Moduli (GPa) = 62.20146 57.30470 88.04200
#
# Poissons Ratio (x) = 0.15846 0.39207
# Poissons Ratio (y) = 0.17200 0.00869
# Poissons Ratio (z) = 0.27699 0.00566
#
# Static dielectric constant tensor:
#      x y z
#    x 1.932120 0.000000 0.000000 
#    y 0.000000 2.036220 0.000000 
#    z 0.000000 0.000000 1.725130 
# 
# From -- ./inp_files/4117.got.cif
#   From: 2010.05.17/outbox.cif.g08.bks.cpg/sg68_3_cif.got.tgz:4117.got - 2010.06.03 18:57:09.
