data_PCOD9508688
_publ_section_title
;
Structure prediction by ZEFSAII (Michael W. Deem and Ramdas Pophale) SiO2 
 PCOD9508688
Probable space group: C C C A
;
_chemical_formula_sum "Si O2"
_cell_formula_units_Z 68
_cell_length_a 9.964778
_cell_length_b 20.572898
_cell_length_c 14.733523
_cell_angle_alpha 90.000000
_cell_angle_beta 90.000000
_cell_angle_gamma 90.000000
_cell_volume 3020.436474
_symmetry_space_group_name_H-M "C C C A"
_symmetry_group_IT_number 68
_space_group.IT_coordinate_system_code '2'
_symmetry_cell_setting 'orthorhombic'
loop_
_space_group_symop_operation_xyz
x,y,z
-x,1/2-y,z
x,1/2-y,1/2-z
-x,y,1/2-z
-x,-y,-z
x,1/2+y,-z
-x,1/2+y,1/2+z
x,-y,1/2+z
1/2+x,1/2+y,z
1/2-x,-y,z
1/2+x,-y,1/2-z
1/2-x,1/2+y,1/2-z
1/2-x,1/2-y,-z
1/2+x,y,-z
1/2-x,y,1/2+z
1/2+x,1/2-y,1/2+z
loop_
_atom_site_type_symbol
_atom_site_label
_atom_site_fract_x
_atom_site_fract_y
_atom_site_fract_z
Si Si1 0.500000 0.250000 0.250000
Si Si2 0.776891 0.422781 0.623692
Si Si3 0.806740 0.589419 0.920154
Si Si4 0.548533 0.475275 0.349452
Si Si5 0.767893 0.818227 0.720910
O O1 0.389892 0.202324 0.297152
O O2 0.750000 0.500000 0.641379
O O3 0.743165 0.407889 0.519361
O O4 0.725657 0.371017 0.696953
O O5 0.938358 0.423250 0.622512
O O6 0.690764 0.560227 0.854307
O O7 0.929013 0.538432 0.912133
O O8 0.836949 0.655632 0.869843
O O9 0.500000 0.497053 0.250000
O O10 0.829606 0.750000 0.750000
#
# Coordination Sequence:
#
# PCOD9508688 Si02
#       5
#     4  16  16  16  16
#     4   8  20  44  68  84 122 178 230 260 312 406
#     4  12  23  39  68 100 132 167 214 280 333 390
#     4  11  23  39  64  99 131 168 214 277 330 386
#     4  11  21  39  63  98 132 166 216 267 334 390
#     4  10  22  41  63  90 127 175 218 267 317 398
#
# _framework density 22.513304000000002
#
# number of rings (size 3 to 8) (size 9 to 14) (size 15 to 20)
#    0.706    0.471    4.706    3.529    0.000    0.941 
#    0.000    0.000    0.000    6.353    0.000    0.000 
#    0.000    0.000    0.000    0.000    0.000    0.000 
#
# Total GULP energy -189362.367700 kJ/mol
# GULP energy per Si atom -5569.481403 kJ/mol
# Density = 2.246206 g / cm^3
# Si number density = 22.513304 Si / 1000 Ang^3
#
#
#
# Elastic Constant Matrix: (Units=GPa)
#
#
# Indices 1 2 3 4 5 6 
#
# 1 29.4442 -3.2988 3.3806 0.0000 0.0000 0.0000
# 2 -3.2988 138.3236 62.8953 0.0000 0.0000 0.0000
# 3 3.3806 62.8953 130.2780 0.0000 0.0000 0.0000
# 4 0.0000 0.0000 0.0000 20.4473 0.0000 0.0000
# 5 0.0000 0.0000 0.0000 0.0000 23.5535 0.0000
# 6 0.0000 0.0000 0.0000 0.0000 0.0000 28.7819
#
#
#
# Elastic Compliance Matrix: (Units=1/GPa)
#
#
# Indices 1 2 3 4 5 6 
#
# 1 0.034327 0.001568 -0.001648 0.000000 0.000000 0.000000
# 2 0.001568 0.009334 -0.004547 0.000000 0.000000 0.000000
# 3 -0.001648 -0.004547 0.009914 0.000000 0.000000 0.000000
# 4 0.000000 0.000000 0.000000 0.048906 0.000000 0.000000
# 5 0.000000 0.000000 0.000000 0.000000 0.042457 0.000000
# 6 0.000000 0.000000 0.000000 0.000000 0.000000 0.034744
#
#
# Mechanical properties :
#
#
# Convention : Reuss Voigt Hill
#
# Bulk Modulus (GPa) = 22.56226 47.11108 34.83667
# Shear Modulus (GPa) = 24.54465 30.22777 27.38621
#
# Velocity S-wave (km/s) = 3.30544 3.66821 3.49154
# Velocity P-wave (km/s) = 4.96099 6.23798 5.63577
#
# Compressibility (1/GPa) = 0.04432181
#
# Stress axis : x y z
#
# Youngs Moduli (GPa) = 29.13124 107.13094 100.86859
#
# Poissons Ratio (x) = -0.16797 0.16620
# Poissons Ratio (y) = -0.04567 0.45866
# Poissons Ratio (z) = 0.04800 0.48714
#
# Static dielectric constant tensor:
#      x y z
#    x 1.946700 0.000000 0.000000 
#    y 0.000000 1.940080 0.000000 
#    z 0.000000 0.000000 1.893720 
# 
# From -- ./inp_files/20697.got.cif
#   From: 2010.05.17/outbox.cif.g08.bks.cpg/sg68_11_cif.got.tgz:20697.got - 2010.06.03 18:57:09.
