data_PCOD9508153
_publ_section_title
;
Structure prediction by ZEFSAII (Michael W. Deem and Ramdas Pophale) SiO2 
 PCOD9508153
Probable space group: C C C A
;
_chemical_formula_sum "Si O2"
_cell_formula_units_Z 116
_cell_length_a 9.304148
_cell_length_b 25.506468
_cell_length_c 25.987189
_cell_angle_alpha 90.000000
_cell_angle_beta 90.000000
_cell_angle_gamma 90.000000
_cell_volume 6167.174529
_symmetry_space_group_name_H-M "C C C A"
_symmetry_group_IT_number 68
_space_group.IT_coordinate_system_code '2'
_symmetry_cell_setting 'orthorhombic'
loop_
_space_group_symop_operation_xyz
x,y,z
-x,1/2-y,z
x,1/2-y,1/2-z
-x,y,1/2-z
-x,-y,-z
x,1/2+y,-z
-x,1/2+y,1/2+z
x,-y,1/2+z
1/2+x,1/2+y,z
1/2-x,-y,z
1/2+x,-y,1/2-z
1/2-x,1/2+y,1/2-z
1/2-x,1/2-y,-z
1/2+x,y,-z
1/2-x,y,1/2+z
1/2+x,1/2-y,1/2+z
loop_
_atom_site_type_symbol
_atom_site_label
_atom_site_fract_x
_atom_site_fract_y
_atom_site_fract_z
Si Si1 0.474160 0.311592 0.671055
Si Si2 0.752056 0.872142 0.482457
Si Si3 0.753063 0.166542 0.261765
Si Si4 0.356555 0.548534 0.895359
Si Si5 0.894091 0.468347 0.961417
Si Si6 0.346122 0.448853 0.273824
Si Si7 0.500000 0.750000 0.750000
Si Si8 0.480926 0.812640 0.445396
O O1 0.500000 0.250000 0.668135
O O2 0.623623 0.334110 0.693958
O O3 0.343352 0.318240 0.710772
O O4 0.441892 0.329043 0.613077
O O5 0.821008 0.905966 0.436226
O O6 0.657399 0.912745 0.516333
O O7 0.638453 0.833707 0.457358
O O8 0.867582 0.840183 0.516165
O O9 0.701602 0.107428 0.252461
O O10 0.620003 0.207289 0.272259
O O11 0.250000 0.500000 0.906955
O O12 0.519432 0.534255 0.908680
O O13 0.344610 0.560176 0.835453
O O14 0.750000 0.500000 0.955423
O O15 0.000000 0.500000 0.000000
O O16 0.500000 0.460667 0.250000
O O17 0.250000 0.500000 0.263417
O O18 0.500000 0.750000 0.450226
#
# Coordination Sequence:
#
# PCOD9508153 Si02
#       8
#    16  16  16  16  16  16   4  16
#     4  10  21  41  68  97 127 173 215 263 335 396
#     4  12  21  41  64  90 125 170 216 260 319 379
#     4  11  21  43  70  97 134 166 222 277 328 398
#     4  11  23  42  67  93 127 167 211 264 329 380
#     4  12  20  37  65  95 122 154 210 273 311 373
#     4  11  27  45  63  93 136 176 211 266 335 409
#     4  12  20  38  76 104 124 162 220 298 332 362
#     4  11  25  41  62  91 134 172 218 261 322 389
#
# _framework density 18.809262
#
# number of rings (size 3 to 8) (size 9 to 14) (size 15 to 20)
#    0.000    0.828    6.207    1.655    1.931    1.655 
#    0.000    0.000    4.552    0.000    0.000    0.000 
#    0.000    0.000    0.000    0.000    0.000    0.000 
#
# Total GULP energy -323378.248497 kJ/mol
# GULP energy per Si atom -5575.487043 kJ/mol
# Density = 1.876645 g / cm^3
# Si number density = 18.809262 Si / 1000 Ang^3
#
#
#
# Elastic Constant Matrix: (Units=GPa)
#
#
# Indices 1 2 3 4 5 6 
#
# 1 121.9905 44.7904 43.1952 0.0000 0.0000 0.0000
# 2 44.7904 98.6195 38.1492 0.0000 0.0000 0.0000
# 3 43.1952 38.1492 92.5912 0.0000 0.0000 0.0000
# 4 0.0000 0.0000 0.0000 34.7325 0.0000 0.0000
# 5 0.0000 0.0000 0.0000 0.0000 -16.9832 0.0000
# 6 0.0000 0.0000 0.0000 0.0000 0.0000 34.8096
#
#
#
# Elastic Compliance Matrix: (Units=1/GPa)
#
#
# Indices 1 2 3 4 5 6 
#
# 1 0.010747 -0.003499 -0.003572 0.000000 0.000000 0.000000
# 2 -0.003499 0.013202 -0.003807 0.000000 0.000000 0.000000
# 3 -0.003572 -0.003807 0.014035 0.000000 0.000000 0.000000
# 4 0.000000 0.000000 0.000000 0.028791 0.000000 0.000000
# 5 0.000000 0.000000 0.000000 0.000000 -0.058882 0.000000
# 6 0.000000 0.000000 0.000000 0.000000 0.000000 0.028728
#
#
# Mechanical properties :
#
#
# Convention : Reuss Voigt Hill
#
# Bulk Modulus (GPa) = 61.62299 62.83008 62.22654
# Shear Modulus (GPa) = 78.38655 22.98288 50.68472
#
# Velocity S-wave (km/s) = 6.46258 3.49935 5.19665
# Velocity P-wave (km/s) = 9.40849 7.05717 8.31635
#
# Compressibility (1/GPa) = 0.01622771
#
# Stress axis : x y z
#
# Youngs Moduli (GPa) = 93.05010 75.74660 71.25045
#
# Poissons Ratio (x) = 0.26506 0.25449
# Poissons Ratio (y) = 0.32561 0.27125
# Poissons Ratio (z) = 0.33236 0.28836
#
# Static dielectric constant tensor:
#      x y z
#    x 1.627810 0.000000 0.000000 
#    y 0.000000 1.507300 0.000000 
#    z 0.000000 0.000000 1.688440 
# 
# From -- ./inp_files/43529.got.cif
#   From: 2010.05.17/outbox.cif.g08.bks.cpg/sg68_22_cif.got.tgz:43529.got - 2010.06.03 18:57:09.
