data_PCOD9508365
_publ_section_title
;
Structure prediction by ZEFSAII (Michael W. Deem and Ramdas Pophale) SiO2 
 PCOD9508365
Probable space group: C C C A
;
_chemical_formula_sum "Si O2"
_cell_formula_units_Z 56
_cell_length_a 15.751596
_cell_length_b 10.291774
_cell_length_c 16.700254
_cell_angle_alpha 90.000000
_cell_angle_beta 90.000000
_cell_angle_gamma 90.000000
_cell_volume 2707.309341
_symmetry_space_group_name_H-M "C C C A"
_symmetry_group_IT_number 68
_space_group.IT_coordinate_system_code '2'
_symmetry_cell_setting 'orthorhombic'
loop_
_space_group_symop_operation_xyz
x,y,z
-x,1/2-y,z
x,1/2-y,1/2-z
-x,y,1/2-z
-x,-y,-z
x,1/2+y,-z
-x,1/2+y,1/2+z
x,-y,1/2+z
1/2+x,1/2+y,z
1/2-x,-y,z
1/2+x,-y,1/2-z
1/2-x,1/2+y,1/2-z
1/2-x,1/2-y,-z
1/2+x,y,-z
1/2-x,y,1/2+z
1/2+x,1/2-y,1/2+z
loop_
_atom_site_type_symbol
_atom_site_label
_atom_site_fract_x
_atom_site_fract_y
_atom_site_fract_z
Si Si1 0.750000 0.500000 0.801337
Si Si2 0.207658 0.792827 0.918183
Si Si3 0.473658 0.898465 0.432983
Si Si4 0.892051 0.119182 0.303163
O O1 0.735567 0.627319 0.855916
O O2 0.834225 0.523930 0.748607
O O3 0.127610 0.889687 0.929124
O O4 0.168947 0.667383 0.874899
O O5 0.250000 0.750000 0.000000
O O6 0.500000 0.750000 0.453870
O O7 0.522322 0.925661 0.348491
O O8 0.500000 0.000000 0.500000
O O9 0.905973 0.250000 0.250000
#
# Coordination Sequence:
#
# PCOD9508365 Si02
#       4
#     8  16  16  16
#     4  10  22  36  64  96 124 180 220 286 340 404
#     4  10  23  38  64  95 135 171 229 282 345 414
#     4  10  23  41  67  96 133 178 224 286 353 415
#     4   9  21  42  63  91 130 176 222 277 345 420
#
# _framework density 20.684743000000001
#
# number of rings (size 3 to 8) (size 9 to 14) (size 15 to 20)
#    0.000    2.286    0.000    0.000   12.000   13.143 
#    0.000    0.000    0.000    0.000    0.000    0.000 
#    0.000    0.000    0.000    0.000    0.000    0.000 
#
# Total GULP energy -156265.019604 kJ/mol
# GULP energy per Si atom -5580.893557 kJ/mol
# Density = 2.063766 g / cm^3
# Si number density = 20.684743 Si / 1000 Ang^3
#
#
#
# Elastic Constant Matrix: (Units=GPa)
#
#
# Indices 1 2 3 4 5 6 
#
# 1 135.9740 47.1747 90.8670 0.0000 0.0000 0.0000
# 2 47.1747 49.6089 38.5399 0.0000 0.0000 0.0000
# 3 90.8670 38.5399 161.0773 0.0000 0.0000 0.0000
# 4 0.0000 0.0000 0.0000 44.6835 0.0000 0.0000
# 5 0.0000 0.0000 0.0000 0.0000 41.6388 0.0000
# 6 0.0000 0.0000 0.0000 0.0000 0.0000 28.4538
#
#
#
# Elastic Compliance Matrix: (Units=1/GPa)
#
#
# Indices 1 2 3 4 5 6 
#
# 1 0.014557 -0.009167 -0.006018 0.000000 0.000000 0.000000
# 2 -0.009167 0.030533 -0.002134 0.000000 0.000000 0.000000
# 3 -0.006018 -0.002134 0.010114 0.000000 0.000000 0.000000
# 4 0.000000 0.000000 0.000000 0.022380 0.000000 0.000000
# 5 0.000000 0.000000 0.000000 0.000000 0.024016 0.000000
# 6 0.000000 0.000000 0.000000 0.000000 0.000000 0.035145
#
#
# Mechanical properties :
#
#
# Convention : Reuss Voigt Hill
#
# Bulk Modulus (GPa) = 48.62755 77.75813 63.19284
# Shear Modulus (GPa) = 28.05254 34.29379 31.17316
#
# Velocity S-wave (km/s) = 3.68665 4.07618 3.88630
# Velocity P-wave (km/s) = 6.45614 7.73481 7.12422
#
# Compressibility (1/GPa) = 0.02056448
#
# Stress axis : x y z
#
# Youngs Moduli (GPa) = 68.69767 32.75183 98.87367
#
# Poissons Ratio (x) = 0.30023 0.59506
# Poissons Ratio (y) = 0.62973 0.21101
# Poissons Ratio (z) = 0.41345 0.06990
#
# Static dielectric constant tensor:
#      x y z
#    x 1.852270 0.000000 0.000000 
#    y 0.000000 1.727380 0.000000 
#    z 0.000000 0.000000 1.791300 
# 
# From -- ./inp_files/20119.got.cif
#   From: 2010.05.17/outbox.cif.g08.bks.cpg/sg68_11_cif.got.tgz:20119.got - 2010.06.03 18:57:09.
