data_PCOD9508740
_publ_section_title
;
Structure prediction by ZEFSAII (Michael W. Deem and Ramdas Pophale) SiO2 
 PCOD9508740
Probable space group: C C C A
;
_chemical_formula_sum "Si O2"
_cell_formula_units_Z 52
_cell_length_a 16.590092
_cell_length_b 13.009627
_cell_length_c 10.192000
_cell_angle_alpha 90.000000
_cell_angle_beta 90.000000
_cell_angle_gamma 90.000000
_cell_volume 2199.748623
_symmetry_space_group_name_H-M "C C C A"
_symmetry_group_IT_number 68
_space_group.IT_coordinate_system_code '2'
_symmetry_cell_setting 'orthorhombic'
loop_
_space_group_symop_operation_xyz
x,y,z
-x,1/2-y,z
x,1/2-y,1/2-z
-x,y,1/2-z
-x,-y,-z
x,1/2+y,-z
-x,1/2+y,1/2+z
x,-y,1/2+z
1/2+x,1/2+y,z
1/2-x,-y,z
1/2+x,-y,1/2-z
1/2-x,1/2+y,1/2-z
1/2-x,1/2-y,-z
1/2+x,y,-z
1/2-x,y,1/2+z
1/2+x,1/2-y,1/2+z
loop_
_atom_site_type_symbol
_atom_site_label
_atom_site_fract_x
_atom_site_fract_y
_atom_site_fract_z
Si Si1 0.224441 0.109092 0.126680
Si Si2 0.370306 0.740474 0.935275
Si Si3 0.417566 0.134789 0.809508
Si Si4 0.500000 0.750000 0.750000
O O1 0.305117 0.175413 0.146976
O O2 0.165674 0.090422 0.251028
O O3 0.250000 0.000000 0.071910
O O4 0.175151 0.176138 0.022465
O O5 0.437009 0.799320 0.850131
O O6 0.411484 0.657563 0.035564
O O7 0.417421 0.250000 0.750000
O O8 0.500000 0.086491 0.750000
#
# Coordination Sequence:
#
# PCOD9508740 Si02
#       4
#    16  16  16   4
#     4  10  22  41  68  96 130 175 226 283 336 409
#     4  10  23  40  66  96 135 176 225 271 345 400
#     4   9  18  39  64  89 122 171 219 276 333 397
#     4  12  24  44  66 100 138 186 216 286 324 416
#
# _framework density 23.639064999999999
#
# number of rings (size 3 to 8) (size 9 to 14) (size 15 to 20)
#    0.000    2.154    0.000    3.692   10.769    1.231 
#    2.769    3.077    0.000    0.000    0.000    0.000 
#    0.000    0.000    0.000    0.000    0.000    0.000 
#
# Total GULP energy -144899.442418 kJ/mol
# GULP energy per Si atom -5573.055478 kJ/mol
# Density = 2.358526 g / cm^3
# Si number density = 23.639065 Si / 1000 Ang^3
#
#
#
# Elastic Constant Matrix: (Units=GPa)
#
#
# Indices 1 2 3 4 5 6 
#
# 1 167.9140 29.4225 81.2249 0.0000 0.0000 0.0000
# 2 29.4225 59.4442 14.2417 0.0000 0.0000 0.0000
# 3 81.2249 14.2417 84.9482 0.0000 0.0000 0.0000
# 4 0.0000 0.0000 0.0000 -5.0493 0.0000 0.0000
# 5 0.0000 0.0000 0.0000 0.0000 81.4124 0.0000
# 6 0.0000 0.0000 0.0000 0.0000 0.0000 -23.9134
#
#
#
# Elastic Compliance Matrix: (Units=1/GPa)
#
#
# Indices 1 2 3 4 5 6 
#
# 1 0.011645 -0.003226 -0.010594 0.000000 0.000000 0.000000
# 2 -0.003226 0.018420 -0.000004 0.000000 0.000000 0.000000
# 3 -0.010594 -0.000004 0.021902 0.000000 0.000000 0.000000
# 4 0.000000 0.000000 0.000000 -0.198049 0.000000 0.000000
# 5 0.000000 0.000000 0.000000 0.000000 0.012283 0.000000
# 6 0.000000 0.000000 0.000000 0.000000 0.000000 -0.041817
#
#
# Mechanical properties :
#
#
# Convention : Reuss Voigt Hill
#
# Bulk Modulus (GPa) = 41.11777 62.45384 51.78581
# Shear Modulus (GPa) = -35.74977 22.98442 -6.38267
#
# Velocity S-wave (km/s) = -3.89307 3.12157 -1.64497
# Velocity P-wave (km/s) = 1.66621 6.28246 4.28329
#
# Compressibility (1/GPa) = 0.02432039
#
# Stress axis : x y z
#
# Youngs Moduli (GPa) = 85.87102 54.28864 45.65730
#
# Poissons Ratio (x) = 0.17513 0.48370
# Poissons Ratio (y) = 0.27701 0.00017
# Poissons Ratio (z) = 0.90973 0.00020
#
# Static dielectric constant tensor:
#      x y z
#    x 1.999670 0.000000 0.000000 
#    y 0.000000 1.872020 0.000000 
#    z 0.000000 0.000000 1.999780 
# 
# From -- ./inp_files/13890.got.cif
#   From: 2010.05.17/outbox.cif.g08.bks.cpg/sg68_7_cif.got.tgz:13890.got - 2010.06.03 18:57:09.
