data_PCOD9508355
_publ_section_title
;
Structure prediction by ZEFSAII (Michael W. Deem and Ramdas Pophale) SiO2 
 PCOD9508355
Probable space group: C C C A
;
_chemical_formula_sum "Si O2"
_cell_formula_units_Z 104
_cell_length_a 25.164366
_cell_length_b 9.400238
_cell_length_c 20.075169
_cell_angle_alpha 90.000000
_cell_angle_beta 90.000000
_cell_angle_gamma 90.000000
_cell_volume 4748.801895
_symmetry_space_group_name_H-M "C C C A"
_symmetry_group_IT_number 68
_space_group.IT_coordinate_system_code '2'
_symmetry_cell_setting 'orthorhombic'
loop_
_space_group_symop_operation_xyz
x,y,z
-x,1/2-y,z
x,1/2-y,1/2-z
-x,y,1/2-z
-x,-y,-z
x,1/2+y,-z
-x,1/2+y,1/2+z
x,-y,1/2+z
1/2+x,1/2+y,z
1/2-x,-y,z
1/2+x,-y,1/2-z
1/2-x,1/2+y,1/2-z
1/2-x,1/2-y,-z
1/2+x,y,-z
1/2-x,y,1/2+z
1/2+x,1/2-y,1/2+z
loop_
_atom_site_type_symbol
_atom_site_label
_atom_site_fract_x
_atom_site_fract_y
_atom_site_fract_z
Si Si1 0.061781 0.078988 0.237333
Si Si2 0.363366 0.904476 0.474349
Si Si3 0.250000 0.500000 0.968405
Si Si4 0.178280 0.837758 0.608596
Si Si5 0.610264 0.906584 0.878373
Si Si6 0.250000 0.500000 0.699567
Si Si7 0.807914 0.750000 0.750000
Si Si8 0.633781 0.417882 0.346663
O O1 0.069735 0.250000 0.250000
O O2 0.000000 0.051939 0.250000
O O3 0.072194 0.008952 0.164742
O O4 0.102333 0.994008 0.285893
O O5 0.356851 0.745145 0.445499
O O6 0.397567 0.901308 0.541801
O O7 0.303291 0.960991 0.490888
O O8 0.383381 0.005314 0.415210
O O9 0.235306 0.640448 0.924931
O O10 0.168620 0.752440 0.676242
O O11 0.163269 0.998694 0.625537
O O12 0.618601 0.748756 0.850219
O O13 0.229176 0.616858 0.748899
O O14 0.302145 0.558444 0.660965
#
# Coordination Sequence:
#
# PCOD9508355 Si02
#       8
#    16  16   8  16  16   8   8  16
#     4  11  27  52  80 106 137 181 236 303 373 441
#     4  11  23  42  65  96 141 195 239 294 354 429
#     4  10  22  36  60  88 135 195 248 286 341 415
#     4  11  23  38  60  91 140 190 243 292 349 415
#     4  11  25  42  69 103 139 181 240 295 357 428
#     4  12  28  38  62 100 151 189 240 290 359 419
#     4  12  26  38  56  92 136 196 242 294 342 410
#     4  12  26  44  69 105 148 189 238 293 356 429
#
# _framework density 21.900262000000001
#
# number of rings (size 3 to 8) (size 9 to 14) (size 15 to 20)
#    0.000    0.769    1.538    5.538   10.769    1.231 
#    0.000    0.769    0.000    1.846    0.000    0.000 
#    0.000    0.000    0.000    0.000    0.000    0.000 
#
# Total GULP energy -289852.603573 kJ/mol
# GULP energy per Si atom -5574.088530 kJ/mol
# Density = 2.185042 g / cm^3
# Si number density = 21.900262 Si / 1000 Ang^3
#
#
#
# Elastic Constant Matrix: (Units=GPa)
#
#
# Indices 1 2 3 4 5 6 
#
# 1 71.4642 21.7207 40.7002 0.0000 0.0000 0.0000
# 2 21.7207 133.0770 35.8356 0.0000 0.0000 0.0000
# 3 40.7002 35.8356 152.3614 0.0000 0.0000 0.0000
# 4 0.0000 0.0000 0.0000 40.0519 0.0000 0.0000
# 5 0.0000 0.0000 0.0000 0.0000 18.9361 0.0000
# 6 0.0000 0.0000 0.0000 0.0000 0.0000 20.1565
#
#
#
# Elastic Compliance Matrix: (Units=1/GPa)
#
#
# Indices 1 2 3 4 5 6 
#
# 1 0.016833 -0.001640 -0.004111 0.000000 0.000000 0.000000
# 2 -0.001640 0.008182 -0.001486 0.000000 0.000000 0.000000
# 3 -0.004111 -0.001486 0.008011 0.000000 0.000000 0.000000
# 4 0.000000 0.000000 0.000000 0.024968 0.000000 0.000000
# 5 0.000000 0.000000 0.000000 0.000000 0.052809 0.000000
# 6 0.000000 0.000000 0.000000 0.000000 0.000000 0.049612
#
#
# Mechanical properties :
#
#
# Convention : Reuss Voigt Hill
#
# Bulk Modulus (GPa) = 53.90468 61.49063 57.69766
# Shear Modulus (GPa) = 27.61308 33.07196 30.34252
#
# Velocity S-wave (km/s) = 3.55471 3.89024 3.72625
# Velocity P-wave (km/s) = 6.44322 6.95105 6.70195
#
# Compressibility (1/GPa) = 0.01855126
#
# Stress axis : x y z
#
# Youngs Moduli (GPa) = 59.40810 122.21293 124.82836
#
# Poissons Ratio (x) = 0.20049 0.51313
# Poissons Ratio (y) = 0.09746 0.18553
# Poissons Ratio (z) = 0.24421 0.18165
#
# Static dielectric constant tensor:
#      x y z
#    x 1.811080 0.000000 0.000000 
#    y 0.000000 1.823030 0.000000 
#    z 0.000000 0.000000 1.945200 
# 
# From -- ./inp_files/41375.got.cif
#   From: 2010.05.17/outbox.cif.g08.bks.cpg/sg68_21_cif.got.tgz:41375.got - 2010.06.03 18:57:09.
