data_PCOD9508090
_publ_section_title
;
Structure prediction by ZEFSAII (Michael W. Deem and Ramdas Pophale) SiO2 
 PCOD9508090
Probable space group: C C C A
;
_chemical_formula_sum "Si O2"
_cell_formula_units_Z 116
_cell_length_a 16.412668
_cell_length_b 9.782315
_cell_length_c 30.699847
_cell_angle_alpha 90.000000
_cell_angle_beta 90.000000
_cell_angle_gamma 90.000000
_cell_volume 4928.979808
_symmetry_space_group_name_H-M "C C C A"
_symmetry_group_IT_number 68
_space_group.IT_coordinate_system_code '2'
_symmetry_cell_setting 'orthorhombic'
loop_
_space_group_symop_operation_xyz
x,y,z
-x,1/2-y,z
x,1/2-y,1/2-z
-x,y,1/2-z
-x,-y,-z
x,1/2+y,-z
-x,1/2+y,1/2+z
x,-y,1/2+z
1/2+x,1/2+y,z
1/2-x,-y,z
1/2+x,-y,1/2-z
1/2-x,1/2+y,1/2-z
1/2-x,1/2-y,-z
1/2+x,y,-z
1/2-x,y,1/2+z
1/2+x,1/2-y,1/2+z
loop_
_atom_site_type_symbol
_atom_site_label
_atom_site_fract_x
_atom_site_fract_y
_atom_site_fract_z
Si Si1 0.063015 0.868698 0.358093
Si Si2 0.838039 0.068502 0.561519
Si Si3 0.786764 0.654761 0.625232
Si Si4 0.500000 0.250000 0.750000
Si Si5 0.930228 0.942058 0.822551
Si Si6 0.168885 0.782567 0.201481
Si Si7 0.001033 0.412616 0.456594
Si Si8 0.320800 0.389281 0.963987
O O1 0.132460 0.857156 0.394793
O O2 0.102712 0.830086 0.312071
O O3 0.000000 0.750000 0.370694
O O4 0.009221 0.002086 0.348490
O O5 0.840072 0.149523 0.514555
O O6 0.750000 0.000000 0.566114
O O7 0.913432 0.958253 0.561868
O O8 0.750000 0.500000 0.621912
O O9 0.877185 0.644113 0.643814
O O10 0.738370 0.722582 0.664916
O O11 0.787602 0.706571 0.575142
O O12 0.450209 0.348713 0.781725
O O13 0.877204 0.072332 0.805687
O O14 0.197596 0.750000 0.250000
O O15 0.000000 0.250000 0.461247
O O16 0.000000 0.500000 0.500000
O O17 0.094816 0.445703 0.442988
O O18 0.250000 0.500000 0.970194
#
# Coordination Sequence:
#
# PCOD9508090 Si02
#       8
#    16  16  16   4  16  16  16  16
#     4  10  22  43  69  97 134 185 232 286 344 431
#     4  10  22  42  65 104 146 184 236 298 366 421
#     4   9  19  38  62  93 129 173 222 272 343 418
#     4  12  24  40  66  96 132 172 218 290 356 436
#     4  10  22  41  63  95 130 171 226 274 347 421
#     4  10  21  40  70  96 129 170 225 286 343 417
#     4  10  22  42  66  97 139 189 240 298 361 429
#     4   9  19  40  68  97 137 186 235 291 348 428
#
# _framework density 23.534282000000001
#
# number of rings (size 3 to 8) (size 9 to 14) (size 15 to 20)
#    0.000    2.207    0.000    1.655    0.966    6.345 
#    7.448   24.828    0.000    0.000    0.000    0.000 
#    0.000    0.000    0.000    0.000    0.000    0.000 
#
# Total GULP energy -323207.582664 kJ/mol
# GULP energy per Si atom -5572.544529 kJ/mol
# Density = 2.348072 g / cm^3
# Si number density = 23.534282 Si / 1000 Ang^3
#
#
#
# Elastic Constant Matrix: (Units=GPa)
#
#
# Indices 1 2 3 4 5 6 
#
# 1 141.7672 24.6544 56.8056 0.0000 0.0000 0.0000
# 2 24.6544 34.0103 32.4639 0.0000 0.0000 0.0000
# 3 56.8056 32.4639 199.8499 0.0000 0.0000 0.0000
# 4 0.0000 0.0000 0.0000 8.0948 0.0000 0.0000
# 5 0.0000 0.0000 0.0000 0.0000 23.6952 0.0000
# 6 0.0000 0.0000 0.0000 0.0000 0.0000 17.5253
#
#
#
# Elastic Compliance Matrix: (Units=1/GPa)
#
#
# Indices 1 2 3 4 5 6 
#
# 1 0.008522 -0.004575 -0.001679 0.000000 0.000000 0.000000
# 2 -0.004575 0.037255 -0.004751 0.000000 0.000000 0.000000
# 3 -0.001679 -0.004751 0.006253 0.000000 0.000000 0.000000
# 4 0.000000 0.000000 0.000000 0.123536 0.000000 0.000000
# 5 0.000000 0.000000 0.000000 0.000000 0.042203 0.000000
# 6 0.000000 0.000000 0.000000 0.000000 0.000000 0.057060
#
#
# Mechanical properties :
#
#
# Convention : Reuss Voigt Hill
#
# Bulk Modulus (GPa) = 33.31256 67.05278 50.18267
# Shear Modulus (GPa) = 16.29481 27.30996 21.80239
#
# Velocity S-wave (km/s) = 2.63418 3.41021 3.04700
# Velocity P-wave (km/s) = 4.84123 6.63773 5.80934
#
# Compressibility (1/GPa) = 0.03001871
#
# Stress axis : x y z
#
# Youngs Moduli (GPa) = 117.33908 26.84233 159.92685
#
# Poissons Ratio (x) = 0.12280 0.26855
# Poissons Ratio (y) = 0.53683 0.75986
# Poissons Ratio (z) = 0.19704 0.12754
#
# Static dielectric constant tensor:
#      x y z
#    x 1.960170 0.000000 0.000000 
#    y 0.000000 1.944020 0.000000 
#    z 0.000000 0.000000 1.906330 
# 
# From -- ./inp_files/55662.got.cif
#   From: 2010.05.17/outbox.cif.g08.bks.cpg/sg68_28_cif.got.tgz:55662.got - 2010.06.03 18:57:09.
