data_PCOD9508395
_publ_section_title
;
Structure prediction by ZEFSAII (Michael W. Deem and Ramdas Pophale) SiO2 
 PCOD9508395
Probable space group: C C C A
;
_chemical_formula_sum "Si O2"
_cell_formula_units_Z 92
_cell_length_a 8.910662
_cell_length_b 22.008540
_cell_length_c 22.240213
_cell_angle_alpha 90.000000
_cell_angle_beta 90.000000
_cell_angle_gamma 90.000000
_cell_volume 4361.542873
_symmetry_space_group_name_H-M "C C C A"
_symmetry_group_IT_number 68
_space_group.IT_coordinate_system_code '2'
_symmetry_cell_setting 'orthorhombic'
loop_
_space_group_symop_operation_xyz
x,y,z
-x,1/2-y,z
x,1/2-y,1/2-z
-x,y,1/2-z
-x,-y,-z
x,1/2+y,-z
-x,1/2+y,1/2+z
x,-y,1/2+z
1/2+x,1/2+y,z
1/2-x,-y,z
1/2+x,-y,1/2-z
1/2-x,1/2+y,1/2-z
1/2-x,1/2-y,-z
1/2+x,y,-z
1/2-x,y,1/2+z
1/2+x,1/2-y,1/2+z
loop_
_atom_site_type_symbol
_atom_site_label
_atom_site_fract_x
_atom_site_fract_y
_atom_site_fract_z
Si Si1 0.000000 0.750000 0.750000
Si Si2 0.257865 0.164028 0.551113
Si Si3 0.500000 0.629678 0.750000
Si Si4 0.000000 0.750000 0.013936
Si Si5 0.000000 0.062770 0.250000
Si Si6 0.403989 0.967080 0.846201
Si Si7 0.289042 0.843214 0.189460
Si Si8 0.390980 0.958668 0.541529
O O1 0.106456 0.712504 0.793806
O O2 0.124087 0.213280 0.551179
O O3 0.401649 0.199389 0.523002
O O4 0.294848 0.143746 0.618820
O O5 0.186598 0.104187 0.518400
O O6 0.590446 0.587668 0.798039
O O7 0.379298 0.666325 0.788127
O O8 0.138681 0.103605 0.229696
O O9 0.024996 0.021091 0.307425
O O10 0.504855 0.945412 0.901259
O O11 0.250000 0.000000 0.866979
O O12 0.500000 0.000000 0.500000
O O13 0.250000 0.000000 0.559225
#
# Coordination Sequence:
#
# PCOD9508395 Si02
#       8
#     4  16   8   8   8  16  16  16
#     4  10  26  40  64  96 132 168 230 278 356 402
#     4  11  23  45  68  97 132 182 232 290 344 405
#     4  11  22  38  64  94 130 168 222 265 330 410
#     4  10  25  44  70  96 130 182 249 286 334 408
#     4  10  22  37  64  92 134 171 216 264 340 422
#     4  11  22  38  61  97 130 174 214 267 333 423
#     4  11  22  43  63  96 132 176 223 286 342 408
#     4  12  25  42  67 101 141 179 225 289 356 426
#
# _framework density 21.093453
#
# number of rings (size 3 to 8) (size 9 to 14) (size 15 to 20)
#    0.000    1.043    3.478    3.130    0.000    1.739 
#    0.000    5.217    0.000    0.000    0.000    0.000 
#    0.000    0.000    0.000    0.000    0.000    0.000 
#
# Total GULP energy -256508.918870 kJ/mol
# GULP energy per Si atom -5576.280845 kJ/mol
# Density = 2.104544 g / cm^3
# Si number density = 21.093453 Si / 1000 Ang^3
#
#
#
# Elastic Constant Matrix: (Units=GPa)
#
#
# Indices 1 2 3 4 5 6 
#
# 1 124.1924 37.2429 22.2386 0.0000 0.0000 0.0000
# 2 37.2429 85.4431 10.7809 0.0000 0.0000 0.0000
# 3 22.2386 10.7809 69.7927 0.0000 0.0000 0.0000
# 4 0.0000 0.0000 0.0000 78.0376 0.0000 0.0000
# 5 0.0000 0.0000 0.0000 0.0000 24.5059 0.0000
# 6 0.0000 0.0000 0.0000 0.0000 0.0000 37.5606
#
#
#
# Elastic Compliance Matrix: (Units=1/GPa)
#
#
# Indices 1 2 3 4 5 6 
#
# 1 0.009665 -0.003900 -0.002477 0.000000 0.000000 0.000000
# 2 -0.003900 0.013510 -0.000844 0.000000 0.000000 0.000000
# 3 -0.002477 -0.000844 0.015248 0.000000 0.000000 0.000000
# 4 0.000000 0.000000 0.000000 0.012814 0.000000 0.000000
# 5 0.000000 0.000000 0.000000 0.000000 0.040807 0.000000
# 6 0.000000 0.000000 0.000000 0.000000 0.000000 0.026624
#
#
# Mechanical properties :
#
#
# Convention : Reuss Voigt Hill
#
# Bulk Modulus (GPa) = 41.70140 46.66144 44.18142
# Shear Modulus (GPa) = 35.43471 41.96521 38.69996
#
# Velocity S-wave (km/s) = 4.10309 4.46521 4.28798
# Velocity P-wave (km/s) = 6.50076 6.98237 6.74586
#
# Compressibility (1/GPa) = 0.02398001
#
# Stress axis : x y z
#
# Youngs Moduli (GPa) = 103.46365 74.01780 65.58286
#
# Poissons Ratio (x) = 0.28869 0.16246
# Poissons Ratio (y) = 0.40354 0.05536
# Poissons Ratio (z) = 0.25630 0.06248
#
# Static dielectric constant tensor:
#      x y z
#    x 1.772790 0.000000 0.000000 
#    y 0.000000 1.771820 0.000000 
#    z 0.000000 0.000000 1.784080 
# 
# From -- ./inp_files/43211.got.cif
#   From: 2010.05.17/outbox.cif.g08.bks.cpg/sg68_22_cif.got.tgz:43211.got - 2010.06.03 18:57:09.
