data_PCOD9508338
_publ_section_title
;
Structure prediction by ZEFSAII (Michael W. Deem and Ramdas Pophale) SiO2 
 PCOD9508338
Probable space group: C C C A
;
_chemical_formula_sum "Si O2"
_cell_formula_units_Z 116
_cell_length_a 16.605905
_cell_length_b 23.032929
_cell_length_c 14.906716
_cell_angle_alpha 90.000000
_cell_angle_beta 90.000000
_cell_angle_gamma 90.000000
_cell_volume 5701.559953
_symmetry_space_group_name_H-M "C C C A"
_symmetry_group_IT_number 68
_space_group.IT_coordinate_system_code '2'
_symmetry_cell_setting 'orthorhombic'
loop_
_space_group_symop_operation_xyz
x,y,z
-x,1/2-y,z
x,1/2-y,1/2-z
-x,y,1/2-z
-x,-y,-z
x,1/2+y,-z
-x,1/2+y,1/2+z
x,-y,1/2+z
1/2+x,1/2+y,z
1/2-x,-y,z
1/2+x,-y,1/2-z
1/2-x,1/2+y,1/2-z
1/2-x,1/2-y,-z
1/2+x,y,-z
1/2-x,y,1/2+z
1/2+x,1/2-y,1/2+z
loop_
_atom_site_type_symbol
_atom_site_label
_atom_site_fract_x
_atom_site_fract_y
_atom_site_fract_z
Si Si1 0.072127 0.592085 0.318954
Si Si2 0.523925 0.184508 0.082223
Si Si3 0.647461 0.592906 0.353549
Si Si4 0.513542 0.654819 0.122349
Si Si5 0.832327 0.881951 0.158275
Si Si6 0.159330 0.986966 0.463669
Si Si7 0.111888 0.460318 0.339754
Si Si8 0.500000 0.750000 0.250000
O O1 0.153236 0.605572 0.263493
O O2 0.072457 0.524012 0.339617
O O3 0.000000 0.601402 0.250000
O O4 0.047599 0.639103 0.392345
O O5 0.500000 0.250000 0.104174
O O6 0.609279 0.170163 0.129624
O O7 0.532710 0.174885 0.976864
O O8 0.580854 0.643364 0.357554
O O9 0.737610 0.618684 0.363632
O O10 0.620787 0.547974 0.433432
O O11 0.647043 0.555968 0.259051
O O12 0.552418 0.592911 0.143411
O O13 0.546315 0.705850 0.185540
O O14 0.869928 0.935330 0.100002
O O15 0.161574 0.966310 0.566827
O O16 0.250000 0.000000 0.434856
#
# Coordination Sequence:
#
# PCOD9508338 Si02
#       8
#    16  16  16  16  16  16  16   4
#     4  10  22  37  61  93 125 164 214 262 328 395
#     4  11  24  44  69  92 129 179 227 274 328 401
#     4  11  23  40  63  98 136 169 213 276 338 395
#     4  12  24  42  67  92 128 172 228 276 331 401
#     4  10  22  42  61  95 137 168 210 275 329 394
#     4  10  22  35  58  96 137 168 206 264 335 395
#     4  12  22  37  67  96 129 174 217 269 337 401
#     4  12  24  44  64  92 122 172 224 268 332 384
#
# _framework density 20.345307999999999
#
# number of rings (size 3 to 8) (size 9 to 14) (size 15 to 20)
#    0.000    1.103    4.828    1.655    3.862    3.586 
#    0.000    2.069    0.000    0.000    0.000    0.000 
#    0.000    0.000    0.000    0.000    0.000    0.000 
#
# Total GULP energy -323082.925819 kJ/mol
# GULP energy per Si atom -5570.395273 kJ/mol
# Density = 2.029900 g / cm^3
# Si number density = 20.345308 Si / 1000 Ang^3
#
#
#
# Elastic Constant Matrix: (Units=GPa)
#
#
# Indices 1 2 3 4 5 6 
#
# 1 67.0455 44.9913 -4.5983 0.0000 0.0000 0.0000
# 2 44.9913 130.4395 30.2555 0.0000 0.0000 0.0000
# 3 -4.5983 30.2555 60.7293 0.0000 0.0000 0.0000
# 4 0.0000 0.0000 0.0000 19.7764 0.0000 0.0000
# 5 0.0000 0.0000 0.0000 0.0000 13.3581 0.0000
# 6 0.0000 0.0000 0.0000 0.0000 0.0000 -6.2379
#
#
#
# Elastic Compliance Matrix: (Units=1/GPa)
#
#
# Indices 1 2 3 4 5 6 
#
# 1 0.021133 -0.008661 0.005915 0.000000 0.000000 0.000000
# 2 -0.008661 0.012218 -0.006743 0.000000 0.000000 0.000000
# 3 0.005915 -0.006743 0.020274 0.000000 0.000000 0.000000
# 4 0.000000 0.000000 0.000000 0.050565 0.000000 0.000000
# 5 0.000000 0.000000 0.000000 0.000000 0.074861 0.000000
# 6 0.000000 0.000000 0.000000 0.000000 0.000000 -0.160310
#
#
# Mechanical properties :
#
#
# Convention : Reuss Voigt Hill
#
# Bulk Modulus (GPa) = 28.86249 44.39015 36.62632
# Shear Modulus (GPa) = 101.48605 17.88371 59.68488
#
# Velocity S-wave (km/s) = 7.07037 2.96802 5.42214
# Velocity P-wave (km/s) = 8.99281 5.79753 7.56577
#
# Compressibility (1/GPa) = 0.03464704
#
# Stress axis : x y z
#
# Youngs Moduli (GPa) = 47.31892 81.84731 49.32497
#
# Poissons Ratio (x) = 0.70891 -0.29177
# Poissons Ratio (y) = 0.40985 0.33259
# Poissons Ratio (z) = -0.27990 0.55188
#
# Static dielectric constant tensor:
#      x y z
#    x 1.750810 0.000000 0.000000 
#    y 0.000000 1.757580 0.000000 
#    z 0.000000 0.000000 1.792970 
# 
# From -- ./inp_files/23942.got.cif
#   From: 2010.05.17/outbox.cif.g08.bks.cpg/sg68_12_cif.got.tgz:23942.got - 2010.06.03 18:57:09.
