data_PCOD9508977
_publ_section_title
;
Structure prediction by ZEFSAII (Michael W. Deem and Ramdas Pophale) SiO2 
 PCOD9508977
Probable space group: C C C A
;
_chemical_formula_sum "Si O2"
_cell_formula_units_Z 112
_cell_length_a 14.391182
_cell_length_b 22.945718
_cell_length_c 14.986429
_cell_angle_alpha 90.000000
_cell_angle_beta 90.000000
_cell_angle_gamma 90.000000
_cell_volume 4948.758696
_symmetry_space_group_name_H-M "C C C A"
_symmetry_group_IT_number 68
_space_group.IT_coordinate_system_code '2'
_symmetry_cell_setting 'orthorhombic'
loop_
_space_group_symop_operation_xyz
x,y,z
-x,1/2-y,z
x,1/2-y,1/2-z
-x,y,1/2-z
-x,-y,-z
x,1/2+y,-z
-x,1/2+y,1/2+z
x,-y,1/2+z
1/2+x,1/2+y,z
1/2-x,-y,z
1/2+x,-y,1/2-z
1/2-x,1/2+y,1/2-z
1/2-x,1/2-y,-z
1/2+x,y,-z
1/2-x,y,1/2+z
1/2+x,1/2-y,1/2+z
loop_
_atom_site_type_symbol
_atom_site_label
_atom_site_fract_x
_atom_site_fract_y
_atom_site_fract_z
Si Si1 0.419467 0.708042 0.380643
Si Si2 0.091831 0.375843 0.693121
Si Si3 0.080933 0.010812 0.925268
Si Si4 0.191873 0.448254 0.414555
Si Si5 0.998244 0.093975 0.350691
Si Si6 0.608540 0.235792 0.075559
Si Si7 0.232118 0.662915 0.338736
O O1 0.500000 0.750000 0.347171
O O2 0.476607 0.649987 0.410644
O O3 0.372823 0.734174 0.469750
O O4 0.334314 0.689320 0.317499
O O5 0.068105 0.437565 0.646365
O O6 0.117550 0.327699 0.619143
O O7 0.178506 0.371339 0.760896
O O8 0.000000 0.358725 0.750000
O O9 0.164819 0.032422 0.986214
O O10 0.082092 0.948100 0.877118
O O11 0.000000 0.000000 0.000000
O O12 0.250000 0.500000 0.372742
O O13 0.096412 0.442644 0.360164
O O14 0.244893 0.387057 0.411282
O O15 0.000000 0.115474 0.250000
O O16 0.500000 0.250000 0.085094
O O17 0.668542 0.284609 0.125854
#
# Coordination Sequence:
#
# PCOD9508977 Si02
#       7
#    16  16  16  16  16  16  16
#     4  10  24  47  72 101 143 198 244 293 370 441
#     4  12  24  40  71 106 143 184 238 310 377 422
#     4  10  23  43  71  98 135 187 243 289 366 448
#     4  10  24  44  66  98 140 179 235 293 360 431
#     4  10  22  44  70  97 138 177 241 292 355 433
#     4  11  22  42  71 102 141 188 244 293 370 446
#     4  11  24  42  69 105 149 182 240 308 363 440
#
# _framework density 22.631938000000002
#
# number of rings (size 3 to 8) (size 9 to 14) (size 15 to 20)
#    0.000    1.429    1.429    3.857    6.000    2.571 
#   15.429    0.000    0.000    0.000    0.000    0.000 
#    0.000    0.000    0.000    0.000    0.000    0.000 
#
# Total GULP energy -312520.239855 kJ/mol
# GULP energy per Si atom -5580.718569 kJ/mol
# Density = 2.258043 g / cm^3
# Si number density = 22.631938 Si / 1000 Ang^3
#
#
#
# Elastic Constant Matrix: (Units=GPa)
#
#
# Indices 1 2 3 4 5 6 
#
# 1 103.8024 49.9260 27.4017 0.0000 0.0000 0.0000
# 2 49.9260 118.3163 17.2048 0.0000 0.0000 0.0000
# 3 27.4017 17.2048 75.8680 0.0000 0.0000 0.0000
# 4 0.0000 0.0000 0.0000 29.9307 0.0000 0.0000
# 5 0.0000 0.0000 0.0000 0.0000 26.2138 0.0000
# 6 0.0000 0.0000 0.0000 0.0000 0.0000 40.1433
#
#
#
# Elastic Compliance Matrix: (Units=1/GPa)
#
#
# Indices 1 2 3 4 5 6 
#
# 1 0.012952 -0.004948 -0.003556 0.000000 0.000000 0.000000
# 2 -0.004948 0.010631 -0.000623 0.000000 0.000000 0.000000
# 3 -0.003556 -0.000623 0.014606 0.000000 0.000000 0.000000
# 4 0.000000 0.000000 0.000000 0.033410 0.000000 0.000000
# 5 0.000000 0.000000 0.000000 0.000000 0.038148 0.000000
# 6 0.000000 0.000000 0.000000 0.000000 0.000000 0.024911
#
#
# Mechanical properties :
#
#
# Convention : Reuss Voigt Hill
#
# Bulk Modulus (GPa) = 50.16590 54.11686 52.14138
# Shear Modulus (GPa) = 31.33635 32.82118 32.07877
#
# Velocity S-wave (km/s) = 3.72507 3.81230 3.76894
# Velocity P-wave (km/s) = 6.38088 6.58345 6.48296
#
# Compressibility (1/GPa) = 0.01993386
#
# Stress axis : x y z
#
# Youngs Moduli (GPa) = 77.20545 94.06725 68.46275
#
# Poissons Ratio (x) = 0.46549 0.24345
# Poissons Ratio (y) = 0.38205 0.04269
# Poissons Ratio (z) = 0.27454 0.05865
#
# Static dielectric constant tensor:
#      x y z
#    x 1.840570 0.000000 0.000000 
#    y 0.000000 1.893920 0.000000 
#    z 0.000000 0.000000 1.910870 
# 
# From -- ./inp_files/22629.got.cif
#   From: 2010.05.17/outbox.cif.g08.bks.cpg/sg68_12_cif.got.tgz:22629.got - 2010.06.03 18:57:09.
