data_PCOD9508851
_publ_section_title
;
Structure prediction by ZEFSAII (Michael W. Deem and Ramdas Pophale) SiO2 
 PCOD9508851
Probable space group: C C C A
;
_chemical_formula_sum "Si O2"
_cell_formula_units_Z 96
_cell_length_a 20.734206
_cell_length_b 15.066985
_cell_length_c 14.045049
_cell_angle_alpha 90.000000
_cell_angle_beta 90.000000
_cell_angle_gamma 90.000000
_cell_volume 4387.700987
_symmetry_space_group_name_H-M "C C C A"
_symmetry_group_IT_number 68
_space_group.IT_coordinate_system_code '2'
_symmetry_cell_setting 'orthorhombic'
loop_
_space_group_symop_operation_xyz
x,y,z
-x,1/2-y,z
x,1/2-y,1/2-z
-x,y,1/2-z
-x,-y,-z
x,1/2+y,-z
-x,1/2+y,1/2+z
x,-y,1/2+z
1/2+x,1/2+y,z
1/2-x,-y,z
1/2+x,-y,1/2-z
1/2-x,1/2+y,1/2-z
1/2-x,1/2-y,-z
1/2+x,y,-z
1/2-x,y,1/2+z
1/2+x,1/2-y,1/2+z
loop_
_atom_site_type_symbol
_atom_site_label
_atom_site_fract_x
_atom_site_fract_y
_atom_site_fract_z
Si Si1 0.604690 0.693933 0.155502
Si Si2 0.250000 0.500000 0.104286
Si Si3 0.430096 0.719747 0.546570
Si Si4 0.265471 0.346795 0.953351
Si Si5 0.661220 0.173175 0.315337
Si Si6 0.107680 0.549288 0.157471
Si Si7 0.000000 0.067683 0.250000
O O1 0.620762 0.750000 0.250000
O O2 0.668297 0.654784 0.105533
O O3 0.549826 0.625975 0.188763
O O4 0.575843 0.745128 0.064313
O O5 0.177519 0.498520 0.150897
O O6 0.259306 0.413451 0.040108
O O7 0.500000 0.750000 0.580618
O O8 0.380373 0.776493 0.606896
O O9 0.411625 0.617083 0.571362
O O10 0.214239 0.377340 0.874555
O O11 0.250000 0.250000 0.000000
O O12 0.692814 0.250000 0.250000
O O13 0.618251 0.113315 0.248032
O O14 0.046752 0.488243 0.180823
#
# Coordination Sequence:
#
# PCOD9508851 Si02
#       7
#    16   8  16  16  16  16   8
#     4  12  27  48  71 106 144 196 258 313 390 461
#     4  12  28  46  76 116 150 196 266 312 374 476
#     4  11  22  45  74 105 144 194 261 308 380 472
#     4  12  25  48  76 108 144 200 247 318 387 447
#     4  10  22  42  73 106 140 193 248 311 378 449
#     4  11  26  46  70 112 152 198 252 319 392 460
#     4  12  29  44  69 108 154 206 240 316 405 450
#
# _framework density 21.879339000000002
#
# number of rings (size 3 to 8) (size 9 to 14) (size 15 to 20)
#    0.000    0.667    3.333    3.750    7.000    4.333 
#    0.000    0.000    0.000    0.000    0.000    0.000 
#    0.000    0.000    0.000    0.000    0.000    0.000 
#
# Total GULP energy -267891.670579 kJ/mol
# GULP energy per Si atom -5581.076470 kJ/mol
# Density = 2.182954 g / cm^3
# Si number density = 21.879339 Si / 1000 Ang^3
#
#
#
# Elastic Constant Matrix: (Units=GPa)
#
#
# Indices 1 2 3 4 5 6 
#
# 1 150.3518 35.7156 37.1880 0.0000 0.0000 0.0000
# 2 35.7156 79.4952 36.3771 0.0000 0.0000 0.0000
# 3 37.1880 36.3771 118.4634 0.0000 0.0000 0.0000
# 4 0.0000 0.0000 0.0000 20.5791 0.0000 0.0000
# 5 0.0000 0.0000 0.0000 0.0000 19.9319 0.0000
# 6 0.0000 0.0000 0.0000 0.0000 0.0000 29.2015
#
#
#
# Elastic Compliance Matrix: (Units=1/GPa)
#
#
# Indices 1 2 3 4 5 6 
#
# 1 0.007690 -0.002735 -0.001574 0.000000 0.000000 0.000000
# 2 -0.002735 0.015608 -0.003935 0.000000 0.000000 0.000000
# 3 -0.001574 -0.003935 0.010144 0.000000 0.000000 0.000000
# 4 0.000000 0.000000 0.000000 0.048593 0.000000 0.000000
# 5 0.000000 0.000000 0.000000 0.000000 0.050171 0.000000
# 6 0.000000 0.000000 0.000000 0.000000 0.000000 0.034245
#
#
# Mechanical properties :
#
#
# Convention : Reuss Voigt Hill
#
# Bulk Modulus (GPa) = 58.97811 62.98576 60.98194
# Shear Modulus (GPa) = 26.51262 29.87783 28.19522
#
# Velocity S-wave (km/s) = 3.48482 3.69937 3.59370
# Velocity P-wave (km/s) = 6.57317 6.86276 6.71952
#
# Compressibility (1/GPa) = 0.01695544
#
# Stress axis : x y z
#
# Youngs Moduli (GPa) = 130.03815 64.06814 98.58208
#
# Poissons Ratio (x) = 0.17520 0.15520
# Poissons Ratio (y) = 0.35560 0.38787
# Poissons Ratio (z) = 0.20473 0.25208
#
# Static dielectric constant tensor:
#      x y z
#    x 1.905190 0.000000 0.000000 
#    y 0.000000 1.817530 0.000000 
#    z 0.000000 0.000000 1.817900 
# 
# From -- ./inp_files/24514.got.cif
#   From: 2010.05.17/outbox.cif.g08.bks.cpg/sg68_13_cif.got.tgz:24514.got - 2010.06.03 18:57:09.
