data_PCOD9508025
_publ_section_title
;
Structure prediction by ZEFSAII (Michael W. Deem and Ramdas Pophale) SiO2 
 PCOD9508025
Probable space group: C C C A
;
_chemical_formula_sum "Si O2"
_cell_formula_units_Z 112
_cell_length_a 22.862532
_cell_length_b 11.130226
_cell_length_c 20.383803
_cell_angle_alpha 90.000000
_cell_angle_beta 90.000000
_cell_angle_gamma 90.000000
_cell_volume 5186.967449
_symmetry_space_group_name_H-M "C C C A"
_symmetry_group_IT_number 68
_space_group.IT_coordinate_system_code '2'
_symmetry_cell_setting 'orthorhombic'
loop_
_space_group_symop_operation_xyz
x,y,z
-x,1/2-y,z
x,1/2-y,1/2-z
-x,y,1/2-z
-x,-y,-z
x,1/2+y,-z
-x,1/2+y,1/2+z
x,-y,1/2+z
1/2+x,1/2+y,z
1/2-x,-y,z
1/2+x,-y,1/2-z
1/2-x,1/2+y,1/2-z
1/2-x,1/2-y,-z
1/2+x,y,-z
1/2-x,y,1/2+z
1/2+x,1/2-y,1/2+z
loop_
_atom_site_type_symbol
_atom_site_label
_atom_site_fract_x
_atom_site_fract_y
_atom_site_fract_z
Si Si1 0.051598 0.830229 0.921771
Si Si2 0.353160 0.369618 0.887573
Si Si3 0.589982 0.578526 0.696109
Si Si4 0.738167 0.306992 0.927923
Si Si5 0.139074 0.277725 0.615036
Si Si6 0.039626 0.443783 0.657745
Si Si7 0.142501 0.930310 0.005592
O O1 0.099546 0.734267 0.898836
O O2 0.000000 0.750000 0.949073
O O3 0.033931 0.917298 0.862800
O O4 0.079079 0.920278 0.974043
O O5 0.376502 0.461290 0.832285
O O6 0.292730 0.296096 0.883433
O O7 0.347434 0.450620 0.953103
O O8 0.629448 0.693108 0.678381
O O9 0.527361 0.600868 0.659700
O O10 0.570077 0.564007 0.770853
O O11 0.798152 0.341211 0.892105
O O12 0.750000 0.250000 0.000000
O O13 0.809275 0.592881 0.949220
O O14 0.084307 0.367483 0.613155
O O15 0.141357 0.181229 0.556134
#
# Coordination Sequence:
#
# PCOD9508025 Si02
#       7
#    16  16  16  16  16  16  16
#     4  11  23  38  60  94 127 169 208 268 329 388
#     4  10  21  42  61  95 124 170 217 258 325 386
#     4  10  22  41  67  92 125 173 216 270 321 390
#     4   9  20  38  63  93 123 169 205 258 317 390
#     4  10  21  40  64  96 125 166 212 268 323 387
#     4  11  23  40  65  95 127 171 219 267 324 388
#     4   9  22  37  63  92 129 163 207 261 323 393
#
# _framework density 21.592579000000001
#
# number of rings (size 3 to 8) (size 9 to 14) (size 15 to 20)
#    0.000    2.000    1.429    0.857    6.000    9.714 
#    2.571    0.000   18.857    0.000    0.000    0.000 
#    0.000    0.000    0.000    0.000    0.000    0.000 
#
# Total GULP energy -312440.199299 kJ/mol
# GULP energy per Si atom -5579.289273 kJ/mol
# Density = 2.154343 g / cm^3
# Si number density = 21.592579 Si / 1000 Ang^3
#
#
#
# Elastic Constant Matrix: (Units=GPa)
#
#
# Indices 1 2 3 4 5 6 
#
# 1 101.3795 23.1537 27.0614 0.0000 0.0000 0.0000
# 2 23.1537 90.7695 18.8168 0.0000 0.0000 0.0000
# 3 27.0614 18.8168 50.9217 0.0000 0.0000 0.0000
# 4 0.0000 0.0000 0.0000 14.8724 0.0000 0.0000
# 5 0.0000 0.0000 0.0000 0.0000 33.1734 0.0000
# 6 0.0000 0.0000 0.0000 0.0000 0.0000 20.6779
#
#
#
# Elastic Compliance Matrix: (Units=1/GPa)
#
#
# Indices 1 2 3 4 5 6 
#
# 1 0.011774 -0.001848 -0.005574 0.000000 0.000000 0.000000
# 2 -0.001848 0.012221 -0.003534 0.000000 0.000000 0.000000
# 3 -0.005574 -0.003534 0.023906 0.000000 0.000000 0.000000
# 4 0.000000 0.000000 0.000000 0.067238 0.000000 0.000000
# 5 0.000000 0.000000 0.000000 0.000000 0.030145 0.000000
# 6 0.000000 0.000000 0.000000 0.000000 0.000000 0.048361
#
#
# Mechanical properties :
#
#
# Convention : Reuss Voigt Hill
#
# Bulk Modulus (GPa) = 38.47768 42.34824 40.41296
# Shear Modulus (GPa) = 22.29958 25.34735 23.82347
#
# Velocity S-wave (km/s) = 3.21712 3.42993 3.32523
# Velocity P-wave (km/s) = 5.62657 5.94482 5.78788
#
# Compressibility (1/GPa) = 0.02598910
#
# Stress axis : x y z
#
# Youngs Moduli (GPa) = 84.93393 81.82740 41.83018
#
# Poissons Ratio (x) = 0.15120 0.23317
# Poissons Ratio (y) = 0.15694 0.14783
# Poissons Ratio (z) = 0.47344 0.28917
#
# Static dielectric constant tensor:
#      x y z
#    x 1.844150 0.000000 0.000000 
#    y 0.000000 1.810940 0.000000 
#    z 0.000000 0.000000 1.825930 
# 
# From -- ./inp_files/46653.got.cif
#   From: 2010.05.17/outbox.cif.g08.bks.cpg/sg68_24_cif.got.tgz:46653.got - 2010.06.03 18:57:09.
