data_PCOD9508112
_publ_section_title
;
Structure prediction by ZEFSAII (Michael W. Deem and Ramdas Pophale) SiO2 
 PCOD9508112
Probable space group: C C C A
;
_chemical_formula_sum "Si O2"
_cell_formula_units_Z 88
_cell_length_a 12.091530
_cell_length_b 12.619714
_cell_length_c 28.842094
_cell_angle_alpha 90.000000
_cell_angle_beta 90.000000
_cell_angle_gamma 90.000000
_cell_volume 4401.062725
_symmetry_space_group_name_H-M "C C C A"
_symmetry_group_IT_number 68
_space_group.IT_coordinate_system_code '2'
_symmetry_cell_setting 'orthorhombic'
loop_
_space_group_symop_operation_xyz
x,y,z
-x,1/2-y,z
x,1/2-y,1/2-z
-x,y,1/2-z
-x,-y,-z
x,1/2+y,-z
-x,1/2+y,1/2+z
x,-y,1/2+z
1/2+x,1/2+y,z
1/2-x,-y,z
1/2+x,-y,1/2-z
1/2-x,1/2+y,1/2-z
1/2-x,1/2-y,-z
1/2+x,y,-z
1/2-x,y,1/2+z
1/2+x,1/2-y,1/2+z
loop_
_atom_site_type_symbol
_atom_site_label
_atom_site_fract_x
_atom_site_fract_y
_atom_site_fract_z
Si Si1 0.132539 0.544641 0.640191
Si Si2 0.054607 0.364429 0.867094
Si Si3 0.630269 0.634939 0.257177
Si Si4 0.750000 0.500000 0.680960
Si Si5 0.048315 0.864873 0.951189
Si Si6 0.866928 0.949848 0.458699
O O1 0.250000 0.500000 0.624173
O O2 0.149750 0.592653 0.691182
O O3 0.092729 0.626989 0.601179
O O4 0.041080 0.451697 0.641921
O O5 0.167695 0.415671 0.844804
O O6 0.086848 0.365891 0.921497
O O7 0.000000 0.250000 0.853921
O O8 0.682535 0.750000 0.250000
O O9 0.500000 0.642042 0.250000
O O10 0.672115 0.563537 0.215713
O O11 0.000000 0.750000 0.960511
O O12 0.136057 0.898314 0.990444
O O13 0.952410 0.952485 0.956632
O O14 0.750000 0.000000 0.445537
#
# Coordination Sequence:
#
# PCOD9508112 Si02
#       6
#    16  16  16   8  16  16
#     4  11  24  43  62  95 129 168 222 279 324 415
#     4  11  25  42  68  98 134 175 222 276 346 401
#     4  11  25  42  66  91 128 169 216 273 338 393
#     4  12  24  44  66 100 128 174 226 284 330 424
#     4  10  23  38  63  94 130 172 221 268 335 398
#     4  10  21  41  63  94 134 172 218 277 327 408
#
# _framework density 19.995170999999999
#
# number of rings (size 3 to 8) (size 9 to 14) (size 15 to 20)
#    0.000    1.273    3.636    1.091    5.091    2.182 
#    0.000    0.909    0.000    0.000    0.000    0.000 
#    0.000    0.000    0.000    0.000    0.000    0.000 
#
# Total GULP energy -245372.622582 kJ/mol
# GULP energy per Si atom -5576.650513 kJ/mol
# Density = 1.994966 g / cm^3
# Si number density = 19.995171 Si / 1000 Ang^3
#
#
#
# Elastic Constant Matrix: (Units=GPa)
#
#
# Indices 1 2 3 4 5 6 
#
# 1 87.9457 21.2396 20.7972 0.0000 0.0000 0.0000
# 2 21.2396 96.1167 48.6904 0.0000 0.0000 0.0000
# 3 20.7972 48.6904 103.2255 0.0000 0.0000 0.0000
# 4 0.0000 0.0000 0.0000 8.3868 0.0000 0.0000
# 5 0.0000 0.0000 0.0000 0.0000 18.8033 0.0000
# 6 0.0000 0.0000 0.0000 0.0000 0.0000 23.9924
#
#
#
# Elastic Compliance Matrix: (Units=1/GPa)
#
#
# Indices 1 2 3 4 5 6 
#
# 1 0.012200 -0.001906 -0.001559 0.000000 0.000000 0.000000
# 2 -0.001906 0.013968 -0.006205 0.000000 0.000000 0.000000
# 3 -0.001559 -0.006205 0.012928 0.000000 0.000000 0.000000
# 4 0.000000 0.000000 0.000000 0.119236 0.000000 0.000000
# 5 0.000000 0.000000 0.000000 0.000000 0.053182 0.000000
# 6 0.000000 0.000000 0.000000 0.000000 0.000000 0.041680
#
#
# Mechanical properties :
#
#
# Convention : Reuss Voigt Hill
#
# Bulk Modulus (GPa) = 50.61506 52.08247 51.34877
# Shear Modulus (GPa) = 17.91352 23.34055 20.62704
#
# Velocity S-wave (km/s) = 2.99639 3.42030 3.21534
# Velocity P-wave (km/s) = 6.11063 6.45771 6.28656
#
# Compressibility (1/GPa) = 0.01975696
#
# Stress axis : x y z
#
# Youngs Moduli (GPa) = 81.96967 71.59019 77.34988
#
# Poissons Ratio (x) = 0.13647 0.12057
# Poissons Ratio (y) = 0.15625 0.47993
# Poissons Ratio (z) = 0.12777 0.44420
#
# Static dielectric constant tensor:
#      x y z
#    x 1.755820 0.000000 0.000000 
#    y 0.000000 1.725940 0.000000 
#    z 0.000000 0.000000 1.718230 
# 
# From -- ./inp_files/54652.got.cif
#   From: 2010.05.17/outbox.cif.g08.bks.cpg/sg68_28_cif.got.tgz:54652.got - 2010.06.03 18:57:09.
