data_PCOD9508474
_publ_section_title
;
Structure prediction by ZEFSAII (Michael W. Deem and Ramdas Pophale) SiO2 
 PCOD9508474
Probable space group: C C C A
;
_chemical_formula_sum "Si O2"
_cell_formula_units_Z 88
_cell_length_a 15.614756
_cell_length_b 18.347220
_cell_length_c 16.319379
_cell_angle_alpha 90.000000
_cell_angle_beta 90.000000
_cell_angle_gamma 90.000000
_cell_volume 4675.295865
_symmetry_space_group_name_H-M "C C C A"
_symmetry_group_IT_number 68
_space_group.IT_coordinate_system_code '2'
_symmetry_cell_setting 'orthorhombic'
loop_
_space_group_symop_operation_xyz
x,y,z
-x,1/2-y,z
x,1/2-y,1/2-z
-x,y,1/2-z
-x,-y,-z
x,1/2+y,-z
-x,1/2+y,1/2+z
x,-y,1/2+z
1/2+x,1/2+y,z
1/2-x,-y,z
1/2+x,-y,1/2-z
1/2-x,1/2+y,1/2-z
1/2-x,1/2-y,-z
1/2+x,y,-z
1/2-x,y,1/2+z
1/2+x,1/2-y,1/2+z
loop_
_atom_site_type_symbol
_atom_site_label
_atom_site_fract_x
_atom_site_fract_y
_atom_site_fract_z
Si Si1 0.953096 0.391630 0.950966
Si Si2 0.500000 0.750000 0.444989
Si Si3 0.641912 0.807180 0.182055
Si Si4 0.719177 0.419904 0.355427
Si Si5 0.425442 0.495990 0.896378
Si Si6 0.750000 0.500000 0.194938
Si Si7 0.500000 0.411451 0.750000
O O1 0.872486 0.395558 0.889567
O O2 0.040019 0.422672 0.910443
O O3 0.930587 0.450552 0.020778
O O4 0.970883 0.316458 0.997298
O O5 0.578238 0.728825 0.384409
O O6 0.676000 0.750000 0.250000
O O7 0.711988 0.855575 0.134921
O O8 0.582097 0.861611 0.234800
O O9 0.750000 0.500000 0.389862
O O10 0.721555 0.436459 0.257927
O O11 0.331709 0.486545 0.860164
O O12 0.488766 0.460017 0.830073
#
# Coordination Sequence:
#
# PCOD9508474 Si02
#       7
#    16   8  16  16  16   8   8
#     4  11  25  41  60  96 136 172 206 265 342 391
#     4  12  25  40  62  97 136 182 208 262 340 405
#     4  12  21  39  69  96 126 167 227 278 322 385
#     4  10  24  43  64  95 130 168 217 282 317 385
#     4  11  22  39  70  93 125 168 217 276 320 387
#     4  10  22  38  68  96 118 160 228 274 318 370
#     4  12  17  42  70  95 118 162 234 276 313 372
#
# _framework density 18.822338999999999
#
# number of rings (size 3 to 8) (size 9 to 14) (size 15 to 20)
#    0.545    0.364    5.455    2.182    3.818    0.727 
#    3.273    0.000    0.000    0.000    0.000    0.000 
#    0.000    0.000    0.000    0.000    0.000    0.000 
#
# Total GULP energy -245405.336366 kJ/mol
# GULP energy per Si atom -5577.394008 kJ/mol
# Density = 1.877950 g / cm^3
# Si number density = 18.822339 Si / 1000 Ang^3
#
#
#
# Elastic Constant Matrix: (Units=GPa)
#
#
# Indices 1 2 3 4 5 6 
#
# 1 91.7596 49.3765 45.9766 0.0000 0.0000 0.0000
# 2 49.3765 107.6619 34.1850 0.0000 0.0000 0.0000
# 3 45.9766 34.1850 71.7044 0.0000 0.0000 0.0000
# 4 0.0000 0.0000 0.0000 22.7872 0.0000 0.0000
# 5 0.0000 0.0000 0.0000 0.0000 28.1843 0.0000
# 6 0.0000 0.0000 0.0000 0.0000 0.0000 30.0628
#
#
#
# Elastic Compliance Matrix: (Units=1/GPa)
#
#
# Indices 1 2 3 4 5 6 
#
# 1 0.018509 -0.005562 -0.009216 0.000000 0.000000 0.000000
# 2 -0.005562 0.012617 -0.002448 0.000000 0.000000 0.000000
# 3 -0.009216 -0.002448 0.021023 0.000000 0.000000 0.000000
# 4 0.000000 0.000000 0.000000 0.043884 0.000000 0.000000
# 5 0.000000 0.000000 0.000000 0.000000 0.035481 0.000000
# 6 0.000000 0.000000 0.000000 0.000000 0.000000 0.033264
#
#
# Mechanical properties :
#
#
# Convention : Reuss Voigt Hill
#
# Bulk Modulus (GPa) = 56.51391 58.91135 57.71263
# Shear Modulus (GPa) = 24.37487 25.64604 25.01046
#
# Velocity S-wave (km/s) = 3.60251 3.69525 3.64918
# Velocity P-wave (km/s) = 6.88435 7.04082 6.96302
#
# Compressibility (1/GPa) = 0.01769476
#
# Stress axis : x y z
#
# Youngs Moduli (GPa) = 54.02798 79.25926 47.56753
#
# Poissons Ratio (x) = 0.44087 0.43838
# Poissons Ratio (y) = 0.30052 0.11647
# Poissons Ratio (z) = 0.49792 0.19406
#
# Static dielectric constant tensor:
#      x y z
#    x 1.662870 0.000000 0.000000 
#    y 0.000000 1.683060 0.000000 
#    z 0.000000 0.000000 1.644140 
# 
# From -- ./inp_files/22315.got.cif
#   From: 2010.05.17/outbox.cif.g08.bks.cpg/sg68_12_cif.got.tgz:22315.got - 2010.06.03 18:57:09.
