data_PCOD9508003
_publ_section_title
;
Structure prediction by ZEFSAII (Michael W. Deem and Ramdas Pophale) SiO2 
 PCOD9508003
Probable space group: C C C A
;
_chemical_formula_sum "Si O2"
_cell_formula_units_Z 52
_cell_length_a 17.712324
_cell_length_b 7.398512
_cell_length_c 21.996003
_cell_angle_alpha 90.000000
_cell_angle_beta 90.000000
_cell_angle_gamma 90.000000
_cell_volume 2882.462730
_symmetry_space_group_name_H-M "C C C A"
_symmetry_group_IT_number 68
_space_group.IT_coordinate_system_code '2'
_symmetry_cell_setting 'orthorhombic'
loop_
_space_group_symop_operation_xyz
x,y,z
-x,1/2-y,z
x,1/2-y,1/2-z
-x,y,1/2-z
-x,-y,-z
x,1/2+y,-z
-x,1/2+y,1/2+z
x,-y,1/2+z
1/2+x,1/2+y,z
1/2-x,-y,z
1/2+x,-y,1/2-z
1/2-x,1/2+y,1/2-z
1/2-x,1/2-y,-z
1/2+x,y,-z
1/2-x,y,1/2+z
1/2+x,1/2-y,1/2+z
loop_
_atom_site_type_symbol
_atom_site_label
_atom_site_fract_x
_atom_site_fract_y
_atom_site_fract_z
Si Si1 0.000000 0.250000 0.250000
Si Si2 0.664727 0.569379 0.430573
Si Si3 0.574372 0.854436 0.366728
Si Si4 0.915007 0.793345 0.447815
O O1 0.052783 0.364504 0.295640
O O2 0.750000 0.500000 0.432553
O O3 0.644497 0.724002 0.381921
O O4 0.615571 0.390697 0.418984
O O5 0.637214 0.650373 0.495325
O O6 0.500000 0.750000 0.392303
O O7 0.583724 0.042904 0.400383
O O8 0.000000 0.750000 0.468585
#
# Coordination Sequence:
#
# PCOD9508003 Si02
#       4
#     4  16  16  16
#     4   8  20  44  62  84 108 158 206 254 282 328
#     4  12  24  35  57  95 130 152 189 241 310 359
#     4  10  21  40  63  83 120 150 202 253 281 355
#     4  12  21  36  60  92 117 161 196 237 296 356
#
# _framework density 18.040127999999999
#
# number of rings (size 3 to 8) (size 9 to 14) (size 15 to 20)
#    0.923    0.000    6.154    2.769    0.000    0.000 
#    0.000    6.923    6.769    0.000    0.000    0.000 
#    0.000    0.000    0.000    0.000    0.000    0.000 
#
# Total GULP energy -144995.227720 kJ/mol
# GULP energy per Si atom -5576.739528 kJ/mol
# Density = 1.799907 g / cm^3
# Si number density = 18.040128 Si / 1000 Ang^3
#
#
#
# Elastic Constant Matrix: (Units=GPa)
#
#
# Indices 1 2 3 4 5 6 
#
# 1 105.8899 12.0787 20.0284 0.0000 0.0000 0.0000
# 2 12.0787 105.8480 34.6947 0.0000 0.0000 0.0000
# 3 20.0284 34.6947 115.4871 0.0000 0.0000 0.0000
# 4 0.0000 0.0000 0.0000 8.2511 0.0000 0.0000
# 5 0.0000 0.0000 0.0000 0.0000 -16.5459 0.0000
# 6 0.0000 0.0000 0.0000 0.0000 0.0000 32.5078
#
#
#
# Elastic Compliance Matrix: (Units=1/GPa)
#
#
# Indices 1 2 3 4 5 6 
#
# 1 0.009801 -0.000623 -0.001513 0.000000 0.000000 0.000000
# 2 -0.000623 0.010519 -0.003052 0.000000 0.000000 0.000000
# 3 -0.001513 -0.003052 0.009838 0.000000 0.000000 0.000000
# 4 0.000000 0.000000 0.000000 0.121195 0.000000 0.000000
# 5 0.000000 0.000000 0.000000 0.000000 -0.060438 0.000000
# 6 0.000000 0.000000 0.000000 0.000000 0.000000 0.030762
#
#
# Mechanical properties :
#
#
# Convention : Reuss Voigt Hill
#
# Bulk Modulus (GPa) = 50.54773 51.20318 50.87545
# Shear Modulus (GPa) = 36.06291 22.20416 29.13354
#
# Velocity S-wave (km/s) = 4.47591 3.51211 4.02298
# Velocity P-wave (km/s) = 7.40217 6.70008 7.05986
#
# Compressibility (1/GPa) = 0.01978328
#
# Stress axis : x y z
#
# Youngs Moduli (GPa) = 102.03145 95.06625 101.64422
#
# Poissons Ratio (x) = 0.05919 0.15376
# Poissons Ratio (y) = 0.06352 0.31023
# Poissons Ratio (z) = 0.15434 0.29016
#
# Static dielectric constant tensor:
#      x y z
#    x 1.701110 0.000000 0.000000 
#    y 0.000000 1.616750 0.000000 
#    z 0.000000 0.000000 1.625450 
# 
# From -- ./inp_files/42627.got.cif
#   From: 2010.05.17/outbox.cif.g08.bks.cpg/sg68_22_cif.got.tgz:42627.got - 2010.06.03 18:57:09.
