data_PCOD9508420
_publ_section_title
;
Structure prediction by ZEFSAII (Michael W. Deem and Ramdas Pophale) SiO2 
 PCOD9508420
Probable space group: C C C A
;
_chemical_formula_sum "Si O2"
_cell_formula_units_Z 112
_cell_length_a 30.543432
_cell_length_b 15.954967
_cell_length_c 10.736428
_cell_angle_alpha 90.000000
_cell_angle_beta 90.000000
_cell_angle_gamma 90.000000
_cell_volume 5232.070184
_symmetry_space_group_name_H-M "C C C A"
_symmetry_group_IT_number 68
_space_group.IT_coordinate_system_code '2'
_symmetry_cell_setting 'orthorhombic'
loop_
_space_group_symop_operation_xyz
x,y,z
-x,1/2-y,z
x,1/2-y,1/2-z
-x,y,1/2-z
-x,-y,-z
x,1/2+y,-z
-x,1/2+y,1/2+z
x,-y,1/2+z
1/2+x,1/2+y,z
1/2-x,-y,z
1/2+x,-y,1/2-z
1/2-x,1/2+y,1/2-z
1/2-x,1/2-y,-z
1/2+x,y,-z
1/2-x,y,1/2+z
1/2+x,1/2-y,1/2+z
loop_
_atom_site_type_symbol
_atom_site_label
_atom_site_fract_x
_atom_site_fract_y
_atom_site_fract_z
Si Si1 0.026528 0.494600 0.371541
Si Si2 0.428976 0.346145 0.266384
Si Si3 0.302153 0.648218 0.484518
Si Si4 0.849617 0.592280 0.094191
Si Si5 0.605721 0.432593 0.483342
Si Si6 0.286408 0.327886 0.593178
Si Si7 0.704701 0.967773 0.271901
O O1 0.069864 0.439921 0.405245
O O2 0.000000 0.463218 0.250000
O O3 0.000000 0.500000 0.500000
O O4 0.960303 0.409587 0.660026
O O5 0.443579 0.250000 0.250000
O O6 0.352792 0.370490 0.007211
O O7 0.384921 0.344610 0.350233
O O8 0.418757 0.398574 0.139563
O O9 0.297032 0.730782 0.401046
O O10 0.266312 0.663024 0.591951
O O11 0.286297 0.566793 0.409775
O O12 0.872273 0.526039 0.997605
O O13 0.831989 0.536911 0.210062
O O14 0.808411 0.639094 0.034617
O O15 0.308379 0.387709 0.693296
O O16 0.750000 0.000000 0.217383
#
# Coordination Sequence:
#
# PCOD9508420 Si02
#       7
#    16  16  16  16  16  16  16
#     4  11  23  47  77 105 134 177 222 279 354 434
#     4  11  23  41  70 107 136 173 221 284 336 407
#     4  10  23  39  56  88 126 167 223 273 331 384
#     4  10  22  38  59  92 126 174 224 269 329 393
#     4  10  22  40  67  98 135 168 223 279 336 409
#     4  11  22  37  58  82 127 178 215 275 326 378
#     4  11  22  35  55  80 117 171 228 271 319 387
#
# _framework density 21.40644
#
# number of rings (size 3 to 8) (size 9 to 14) (size 15 to 20)
#    0.000    1.429    2.857    2.143    6.000    0.286 
#    0.000    0.000    0.000    0.857    0.000    0.000 
#    0.000    0.000    0.000    0.000    0.000    0.000 
#
# Total GULP energy -312257.057689 kJ/mol
# GULP energy per Si atom -5576.018887 kJ/mol
# Density = 2.135772 g / cm^3
# Si number density = 21.406440 Si / 1000 Ang^3
#
#
#
# Elastic Constant Matrix: (Units=GPa)
#
#
# Indices 1 2 3 4 5 6 
#
# 1 113.4815 37.3474 45.7968 0.0000 0.0000 0.0000
# 2 37.3474 95.8645 34.7583 0.0000 0.0000 0.0000
# 3 45.7968 34.7583 81.5531 0.0000 0.0000 0.0000
# 4 0.0000 0.0000 0.0000 24.0967 0.0000 0.0000
# 5 0.0000 0.0000 0.0000 0.0000 21.9730 0.0000
# 6 0.0000 0.0000 0.0000 0.0000 0.0000 29.0266
#
#
#
# Elastic Compliance Matrix: (Units=1/GPa)
#
#
# Indices 1 2 3 4 5 6 
#
# 1 0.011927 -0.002624 -0.005580 0.000000 0.000000 0.000000
# 2 -0.002624 0.012915 -0.004031 0.000000 0.000000 0.000000
# 3 -0.005580 -0.004031 0.017113 0.000000 0.000000 0.000000
# 4 0.000000 0.000000 0.000000 0.041499 0.000000 0.000000
# 5 0.000000 0.000000 0.000000 0.000000 0.045510 0.000000
# 6 0.000000 0.000000 0.000000 0.000000 0.000000 0.034451
#
#
# Mechanical properties :
#
#
# Convention : Reuss Voigt Hill
#
# Bulk Modulus (GPa) = 57.18584 58.52267 57.85426
# Shear Modulus (GPa) = 25.81119 26.55236 26.18178
#
# Velocity S-wave (km/s) = 3.47618 3.52574 3.50105
# Velocity P-wave (km/s) = 6.54860 6.63119 6.59002
#
# Compressibility (1/GPa) = 0.01748685
#
# Stress axis : x y z
#
# Youngs Moduli (GPa) = 83.84222 77.42862 58.43398
#
# Poissons Ratio (x) = 0.20314 0.32604
# Poissons Ratio (y) = 0.21997 0.23556
# Poissons Ratio (z) = 0.46781 0.31213
#
# Static dielectric constant tensor:
#      x y z
#    x 1.828020 0.000000 0.000000 
#    y 0.000000 1.744460 0.000000 
#    z 0.000000 0.000000 1.855810 
# 
# From -- ./inp_files/17789.got.cif
#   From: 2010.05.17/outbox.cif.g08.bks.cpg/sg68_9_cif.got.tgz:17789.got - 2010.06.03 18:57:09.
