data_PCOD9508210
_publ_section_title
;
Structure prediction by ZEFSAII (Michael W. Deem and Ramdas Pophale) SiO2 
 PCOD9508210
Probable space group: C C C A
;
_chemical_formula_sum "Si O2"
_cell_formula_units_Z 104
_cell_length_a 26.432938
_cell_length_b 21.247175
_cell_length_c 8.589098
_cell_angle_alpha 90.000000
_cell_angle_beta 90.000000
_cell_angle_gamma 90.000000
_cell_volume 4823.854393
_symmetry_space_group_name_H-M "C C C A"
_symmetry_group_IT_number 68
_space_group.IT_coordinate_system_code '2'
_symmetry_cell_setting 'orthorhombic'
loop_
_space_group_symop_operation_xyz
x,y,z
-x,1/2-y,z
x,1/2-y,1/2-z
-x,y,1/2-z
-x,-y,-z
x,1/2+y,-z
-x,1/2+y,1/2+z
x,-y,1/2+z
1/2+x,1/2+y,z
1/2-x,-y,z
1/2+x,-y,1/2-z
1/2-x,1/2+y,1/2-z
1/2-x,1/2-y,-z
1/2+x,y,-z
1/2-x,y,1/2+z
1/2+x,1/2-y,1/2+z
loop_
_atom_site_type_symbol
_atom_site_label
_atom_site_fract_x
_atom_site_fract_y
_atom_site_fract_z
Si Si1 0.306989 0.314827 0.659459
Si Si2 0.638735 0.935841 0.206867
Si Si3 0.698521 0.654148 0.702074
Si Si4 0.528882 0.808633 0.915823
Si Si5 0.472028 0.057616 0.912169
Si Si6 0.307780 0.481143 0.418576
Si Si7 0.121564 0.250000 0.750000
O O1 0.314058 0.250000 0.750000
O O2 0.352864 0.361491 0.701447
O O3 0.301538 0.314565 0.471610
O O4 0.254024 0.342192 0.725525
O O5 0.585928 0.956292 0.133945
O O6 0.652568 0.965424 0.371290
O O7 0.682788 0.962731 0.096039
O O8 0.681863 0.582534 0.677970
O O9 0.658798 0.694111 0.802546
O O10 0.500000 0.750000 0.997378
O O11 0.500000 0.816660 0.750000
O O12 0.584686 0.782476 0.875656
O O13 0.527992 0.876270 0.995647
O O14 0.500000 0.067808 0.750000
O O15 0.500000 0.000000 0.000000
O O16 0.250000 0.500000 0.397006
#
# Coordination Sequence:
#
# PCOD9508210 Si02
#       7
#    16  16  16  16  16  16   8
#     4  11  23  41  60  93 142 176 234 279 340 417
#     4  11  25  43  65 101 130 182 230 283 352 419
#     4  11  23  37  63  94 137 185 228 281 342 416
#     4   9  21  44  72  99 135 181 237 294 363 428
#     4  12  26  48  74 103 140 181 237 304 365 433
#     4  11  22  40  66  96 141 183 229 282 342 419
#     4  10  21  42  68  98 134 186 233 280 356 432
#
# _framework density 21.559524
#
# number of rings (size 3 to 8) (size 9 to 14) (size 15 to 20)
#    0.000    1.385    2.308    4.154    2.154    2.769 
#    8.308    0.000    0.000    0.000    0.000    0.000 
#    0.000    0.000    0.000    0.000    0.000    0.000 
#
# Total GULP energy -290515.167784 kJ/mol
# GULP energy per Si atom -5586.830150 kJ/mol
# Density = 2.151045 g / cm^3
# Si number density = 21.559524 Si / 1000 Ang^3
#
#
#
# Elastic Constant Matrix: (Units=GPa)
#
#
# Indices 1 2 3 4 5 6 
#
# 1 109.0434 31.8152 13.6815 0.0000 0.0000 0.0000
# 2 31.8152 86.8943 38.2518 0.0000 0.0000 0.0000
# 3 13.6815 38.2518 63.9572 0.0000 0.0000 0.0000
# 4 0.0000 0.0000 0.0000 33.4405 0.0000 0.0000
# 5 0.0000 0.0000 0.0000 0.0000 21.3315 0.0000
# 6 0.0000 0.0000 0.0000 0.0000 0.0000 37.2593
#
#
#
# Elastic Compliance Matrix: (Units=1/GPa)
#
#
# Indices 1 2 3 4 5 6 
#
# 1 0.010268 -0.003790 0.000071 0.000000 0.000000 0.000000
# 2 -0.003790 0.017020 -0.009369 0.000000 0.000000 0.000000
# 3 0.000071 -0.009369 0.021224 0.000000 0.000000 0.000000
# 4 0.000000 0.000000 0.000000 0.029904 0.000000 0.000000
# 5 0.000000 0.000000 0.000000 0.000000 0.046879 0.000000
# 6 0.000000 0.000000 0.000000 0.000000 0.000000 0.026839
#
#
# Mechanical properties :
#
#
# Convention : Reuss Voigt Hill
#
# Bulk Modulus (GPa) = 44.77386 47.48797 46.13092
# Shear Modulus (GPa) = 26.91708 30.14934 28.53321
#
# Velocity S-wave (km/s) = 3.53725 3.74361 3.64189
# Velocity P-wave (km/s) = 6.12335 6.38439 6.25523
#
# Compressibility (1/GPa) = 0.02233446
#
# Stress axis : x y z
#
# Youngs Moduli (GPa) = 97.39244 58.75342 47.11724
#
# Poissons Ratio (x) = 0.22270 -0.00333
# Poissons Ratio (y) = 0.36916 0.44143
# Poissons Ratio (z) = -0.00688 0.55044
#
# Static dielectric constant tensor:
#      x y z
#    x 1.699410 0.000000 0.000000 
#    y 0.000000 1.817340 0.000000 
#    z 0.000000 0.000000 1.816990 
# 
# From -- ./inp_files/9008.got.cif
#   From: 2010.05.17/outbox.cif.g08.bks.cpg/sg68_5_cif.got.tgz:9008.got - 2010.06.03 18:57:09.
