data_PCOD9508565
_publ_section_title
;
Structure prediction by ZEFSAII (Michael W. Deem and Ramdas Pophale) SiO2 
 PCOD9508565
Probable space group: C C C A
;
_chemical_formula_sum "Si O2"
_cell_formula_units_Z 96
_cell_length_a 18.763137
_cell_length_b 20.924765
_cell_length_c 11.268008
_cell_angle_alpha 90.000000
_cell_angle_beta 90.000000
_cell_angle_gamma 90.000000
_cell_volume 4423.980311
_symmetry_space_group_name_H-M "C C C A"
_symmetry_group_IT_number 68
_space_group.IT_coordinate_system_code '2'
_symmetry_cell_setting 'orthorhombic'
loop_
_space_group_symop_operation_xyz
x,y,z
-x,1/2-y,z
x,1/2-y,1/2-z
-x,y,1/2-z
-x,-y,-z
x,1/2+y,-z
-x,1/2+y,1/2+z
x,-y,1/2+z
1/2+x,1/2+y,z
1/2-x,-y,z
1/2+x,-y,1/2-z
1/2-x,1/2+y,1/2-z
1/2-x,1/2-y,-z
1/2+x,y,-z
1/2-x,y,1/2+z
1/2+x,1/2-y,1/2+z
loop_
_atom_site_type_symbol
_atom_site_label
_atom_site_fract_x
_atom_site_fract_y
_atom_site_fract_z
Si Si1 0.603951 0.666236 0.084426
Si Si2 0.750000 0.500000 0.587830
Si Si3 0.142109 0.102300 0.835456
Si Si4 0.500000 0.250000 0.043717
Si Si5 0.720005 0.628463 0.234908
Si Si6 0.361135 0.462941 0.610110
Si Si7 0.500000 0.080788 0.750000
Si Si8 0.500000 0.148202 0.250000
O O1 0.674094 0.678030 0.161346
O O2 0.549817 0.624319 0.164827
O O3 0.625572 0.625125 0.968518
O O4 0.565361 0.729547 0.038289
O O5 0.727020 0.435430 0.654456
O O6 0.677413 0.522921 0.516733
O O7 0.202227 0.146487 0.778624
O O8 0.069557 0.107291 0.765368
O O9 0.165275 0.028919 0.829387
O O10 0.488728 0.191479 0.133652
O O11 0.675713 0.601899 0.346447
O O12 0.443832 0.455368 0.658297
#
# Coordination Sequence:
#
# PCOD9508565 Si02
#       8
#    16   8  16   8  16  16   8   8
#     4  10  22  40  62  87 118 165 214 255 320 362
#     4  12  18  32  56  82 130 172 192 236 302 374
#     4  11  19  35  57  88 123 163 198 247 306 384
#     4   9  20  43  62  82 114 153 206 279 320 356
#     4  11  20  35  57  90 124 165 200 240 302 382
#     4  11  20  35  52  86 128 165 195 241 305 368
#     4  10  25  37  55  90 121 155 219 256 298 394
#     4   9  21  36  63  88 115 154 209 263 328 360
#
# _framework density 21.699916999999999
#
# number of rings (size 3 to 8) (size 9 to 14) (size 15 to 20)
#    0.000    1.500    5.000    0.500    0.000    3.667 
#    0.000    0.833    0.000   12.000    0.000    0.000 
#    0.000    0.000    0.000    0.000    0.000    0.000 
#
# Total GULP energy -267278.226092 kJ/mol
# GULP energy per Si atom -5568.296377 kJ/mol
# Density = 2.165053 g / cm^3
# Si number density = 21.699917 Si / 1000 Ang^3
#
#
#
# Elastic Constant Matrix: (Units=GPa)
#
#
# Indices 1 2 3 4 5 6 
#
# 1 124.5578 4.4269 40.8607 0.0000 0.0000 0.0000
# 2 4.4269 23.5142 5.0736 0.0000 0.0000 0.0000
# 3 40.8607 5.0736 72.0680 0.0000 0.0000 0.0000
# 4 0.0000 0.0000 0.0000 -15.7404 0.0000 0.0000
# 5 0.0000 0.0000 0.0000 0.0000 45.5411 0.0000
# 6 0.0000 0.0000 0.0000 0.0000 0.0000 19.1564
#
#
#
# Elastic Compliance Matrix: (Units=1/GPa)
#
#
# Indices 1 2 3 4 5 6 
#
# 1 0.009873 -0.000661 -0.005551 0.000000 0.000000 0.000000
# 2 -0.000661 0.043228 -0.002669 0.000000 0.000000 0.000000
# 3 -0.005551 -0.002669 0.017211 0.000000 0.000000 0.000000
# 4 0.000000 0.000000 0.000000 -0.063531 0.000000 0.000000
# 5 0.000000 0.000000 0.000000 0.000000 0.021958 0.000000
# 6 0.000000 0.000000 0.000000 0.000000 0.000000 0.052202
#
#
# Mechanical properties :
#
#
# Convention : Reuss Voigt Hill
#
# Bulk Modulus (GPa) = 19.02937 35.65139 27.34038
# Shear Modulus (GPa) = 43.02232 21.11002 32.06617
#
# Velocity S-wave (km/s) = 4.45747 3.12238 3.84827
# Velocity P-wave (km/s) = 5.93974 5.42807 5.68966
#
# Compressibility (1/GPa) = 0.05255034
#
# Stress axis : x y z
#
# Youngs Moduli (GPa) = 101.28706 23.13334 58.10229
#
# Poissons Ratio (x) = 0.01529 0.32254
# Poissons Ratio (y) = 0.06695 0.15505
# Poissons Ratio (z) = 0.56226 0.06173
#
# Static dielectric constant tensor:
#      x y z
#    x 1.841810 0.000000 0.000000 
#    y 0.000000 1.745990 0.000000 
#    z 0.000000 0.000000 1.924190 
# 
# From -- ./inp_files/14692.got.cif
#   From: 2010.05.17/outbox.cif.g08.bks.cpg/sg68_8_cif.got.tgz:14692.got - 2010.06.03 18:57:09.
