data_PCOD9508792
_publ_section_title
;
Structure prediction by ZEFSAII (Michael W. Deem and Ramdas Pophale) SiO2 
 PCOD9508792
Probable space group: C C C A
;
_chemical_formula_sum "Si O2"
_cell_formula_units_Z 60
_cell_length_a 9.882909
_cell_length_b 9.619730
_cell_length_c 29.250599
_cell_angle_alpha 90.000000
_cell_angle_beta 90.000000
_cell_angle_gamma 90.000000
_cell_volume 2780.881246
_symmetry_space_group_name_H-M "C C C A"
_symmetry_group_IT_number 68
_space_group.IT_coordinate_system_code '2'
_symmetry_cell_setting 'orthorhombic'
loop_
_space_group_symop_operation_xyz
x,y,z
-x,1/2-y,z
x,1/2-y,1/2-z
-x,y,1/2-z
-x,-y,-z
x,1/2+y,-z
-x,1/2+y,1/2+z
x,-y,1/2+z
1/2+x,1/2+y,z
1/2-x,-y,z
1/2+x,-y,1/2-z
1/2-x,1/2+y,1/2-z
1/2-x,1/2-y,-z
1/2+x,y,-z
1/2-x,y,1/2+z
1/2+x,1/2-y,1/2+z
loop_
_atom_site_type_symbol
_atom_site_label
_atom_site_fract_x
_atom_site_fract_y
_atom_site_fract_z
Si Si1 0.000000 0.250000 0.750000
Si Si2 0.250000 0.000000 0.857913
Si Si3 0.500000 0.250000 0.005645
Si Si4 0.144786 0.780000 0.165130
Si Si5 0.250000 0.500000 0.402935
Si Si6 0.048421 0.487661 0.060008
O O1 0.905646 0.165524 0.785526
O O2 0.282718 0.866167 0.828302
O O3 0.374251 0.027236 0.892452
O O4 0.579171 0.137668 0.036980
O O5 0.580834 0.356979 0.972792
O O6 0.000000 0.750000 0.140996
O O7 0.231008 0.872036 0.131591
O O8 0.113366 0.485212 0.431741
#
# Coordination Sequence:
#
# PCOD9508792 Si02
#       6
#     4   8   8  16   8  16
#     4   8  20  46  64  96 140 160 192 272 316 370
#     4  12  22  42  68  92 130 170 218 256 320 378
#     4  10  24  39  56  90 130 164 218 270 326 349
#     4  10  22  42  65  97 127 167 201 262 314 378
#     4  12  22  42  68  92 130 170 218 256 320 378
#     4  11  23  38  61  89 124 174 212 271 309 380
#
# _framework density 21.575894999999999
#
# number of rings (size 3 to 8) (size 9 to 14) (size 15 to 20)
#    0.800    0.533    2.667    3.200    0.000    7.467 
#    0.000    0.000    0.000    3.200    0.000    0.000 
#    0.000    0.000    0.000    0.000    0.000    0.000 
#
# Total GULP energy -167250.015198 kJ/mol
# GULP energy per Si atom -5575.000507 kJ/mol
# Density = 2.152679 g / cm^3
# Si number density = 21.575895 Si / 1000 Ang^3
#
#
#
# Elastic Constant Matrix: (Units=GPa)
#
#
# Indices 1 2 3 4 5 6 
#
# 1 102.6185 17.4099 21.3577 0.0000 0.0000 0.0000
# 2 17.4099 137.2841 26.6238 0.0000 0.0000 0.0000
# 3 21.3577 26.6238 93.8035 0.0000 0.0000 0.0000
# 4 0.0000 0.0000 0.0000 -3.5512 0.0000 0.0000
# 5 0.0000 0.0000 0.0000 0.0000 38.7291 0.0000
# 6 0.0000 0.0000 0.0000 0.0000 0.0000 13.4076
#
#
#
# Elastic Compliance Matrix: (Units=1/GPa)
#
#
# Indices 1 2 3 4 5 6 
#
# 1 0.010335 -0.000904 -0.002096 0.000000 0.000000 0.000000
# 2 -0.000904 0.007788 -0.002004 0.000000 0.000000 0.000000
# 3 -0.002096 -0.002004 0.011707 0.000000 0.000000 0.000000
# 4 0.000000 0.000000 0.000000 -0.281595 0.000000 0.000000
# 5 0.000000 0.000000 0.000000 0.000000 0.025820 0.000000
# 6 0.000000 0.000000 0.000000 0.000000 0.000000 0.074585
#
#
# Mechanical properties :
#
#
# Convention : Reuss Voigt Hill
#
# Bulk Modulus (GPa) = 50.45650 51.60986 51.03318
# Shear Modulus (GPa) = -37.10720 27.60474 -4.75123
#
# Velocity S-wave (km/s) = -4.15160 3.58079 -1.48556
# Velocity P-wave (km/s) = 0.67476 6.40844 4.55650
#
# Compressibility (1/GPa) = 0.01981905
#
# Stress axis : x y z
#
# Youngs Moduli (GPa) = 96.76297 128.41030 85.42021
#
# Poissons Ratio (x) = 0.11609 0.17908
# Poissons Ratio (y) = 0.08748 0.17122
# Poissons Ratio (z) = 0.20286 0.25739
#
# Static dielectric constant tensor:
#      x y z
#    x 1.789570 0.000000 0.000000 
#    y 0.000000 1.866450 0.000000 
#    z 0.000000 0.000000 1.793860 
# 
# From -- ./inp_files/54378.got.cif
#   From: 2010.05.17/outbox.cif.g08.bks.cpg/sg68_28_cif.got.tgz:54378.got - 2010.06.03 18:57:09.
