data_PCOD9508123
_publ_section_title
;
Structure prediction by ZEFSAII (Michael W. Deem and Ramdas Pophale) SiO2 
 PCOD9508123
Probable space group: C C C A
;
_chemical_formula_sum "Si O2"
_cell_formula_units_Z 84
_cell_length_a 16.512602
_cell_length_b 18.355335
_cell_length_c 11.821168
_cell_angle_alpha 90.000000
_cell_angle_beta 90.000000
_cell_angle_gamma 90.000000
_cell_volume 3582.929130
_symmetry_space_group_name_H-M "C C C A"
_symmetry_group_IT_number 68
_space_group.IT_coordinate_system_code '2'
_symmetry_cell_setting 'orthorhombic'
loop_
_space_group_symop_operation_xyz
x,y,z
-x,1/2-y,z
x,1/2-y,1/2-z
-x,y,1/2-z
-x,-y,-z
x,1/2+y,-z
-x,1/2+y,1/2+z
x,-y,1/2+z
1/2+x,1/2+y,z
1/2-x,-y,z
1/2+x,-y,1/2-z
1/2-x,1/2+y,1/2-z
1/2-x,1/2-y,-z
1/2+x,y,-z
1/2-x,y,1/2+z
1/2+x,1/2-y,1/2+z
loop_
_atom_site_type_symbol
_atom_site_label
_atom_site_fract_x
_atom_site_fract_y
_atom_site_fract_z
Si Si1 0.442552 0.494243 0.848015
Si Si2 0.436772 0.113040 0.957453
Si Si3 0.500000 0.750000 0.750000
Si Si4 0.799677 0.064145 0.206873
Si Si5 0.782504 0.302677 0.152171
Si Si6 0.116403 0.763620 0.445184
O O1 0.500000 0.524730 0.750000
O O2 0.487020 0.419339 0.887876
O O3 0.357338 0.476181 0.795181
O O4 0.433485 0.554486 0.942682
O O5 0.357005 0.103488 0.882141
O O6 0.432905 0.195252 0.001093
O O7 0.437913 0.709335 0.661951
O O8 0.756387 0.124614 0.281855
O O9 0.750000 0.000000 0.148903
O O10 0.817908 0.250000 0.250000
O O11 0.700273 0.267382 0.105901
O O12 0.847795 0.311392 0.049999
#
# Coordination Sequence:
#
# PCOD9508123 Si02
#       6
#    16  16   4  16  16  16
#     4   9  21  40  61  95 130 172 224 291 350 412
#     4  10  21  41  64  95 133 178 225 290 356 413
#     4  12  28  44  66 116 128 194 240 294 362 440
#     4  11  23  41  67  97 133 177 240 280 350 435
#     4  11  23  47  68  98 141 188 231 297 359 428
#     4  11  25  44  70  99 144 184 240 298 360 427
#
# _framework density 23.444503999999998
#
# number of rings (size 3 to 8) (size 9 to 14) (size 15 to 20)
#    0.000    1.524    2.857    1.143    4.000    2.286 
#    3.429    0.476    0.000    0.000    0.000    0.000 
#    0.000    0.000    0.000    0.000    0.000    0.000 
#
# Total GULP energy -234456.236238 kJ/mol
# GULP energy per Si atom -5582.291339 kJ/mol
# Density = 2.339114 g / cm^3
# Si number density = 23.444504 Si / 1000 Ang^3
#
#
#
# Elastic Constant Matrix: (Units=GPa)
#
#
# Indices 1 2 3 4 5 6 
#
# 1 66.4565 21.7616 29.8030 0.0000 0.0000 0.0000
# 2 21.7616 70.4449 34.6877 0.0000 0.0000 0.0000
# 3 29.8030 34.6877 91.5059 0.0000 0.0000 0.0000
# 4 0.0000 0.0000 0.0000 9.8878 0.0000 0.0000
# 5 0.0000 0.0000 0.0000 0.0000 32.2786 0.0000
# 6 0.0000 0.0000 0.0000 0.0000 0.0000 43.3419
#
#
#
# Elastic Compliance Matrix: (Units=1/GPa)
#
#
# Indices 1 2 3 4 5 6 
#
# 1 0.018235 -0.003330 -0.004677 0.000000 0.000000 0.000000
# 2 -0.003330 0.018062 -0.005762 0.000000 0.000000 0.000000
# 3 -0.004677 -0.005762 0.014636 0.000000 0.000000 0.000000
# 4 0.000000 0.000000 0.000000 0.101135 0.000000 0.000000
# 5 0.000000 0.000000 0.000000 0.000000 0.030980 0.000000
# 6 0.000000 0.000000 0.000000 0.000000 0.000000 0.023072
#
#
# Mechanical properties :
#
#
# Convention : Reuss Voigt Hill
#
# Bulk Modulus (GPa) = 42.74527 44.54578 43.64553
# Shear Modulus (GPa) = 20.70769 26.57865 23.64317
#
# Velocity S-wave (km/s) = 2.97520 3.37067 3.17909
# Velocity P-wave (km/s) = 5.48403 5.84725 5.66855
#
# Compressibility (1/GPa) = 0.02339440
#
# Stress axis : x y z
#
# Youngs Moduli (GPa) = 54.83878 55.36612 68.32613
#
# Poissons Ratio (x) = 0.18439 0.31954
# Poissons Ratio (y) = 0.18263 0.39370
# Poissons Ratio (z) = 0.25646 0.31902
#
# Static dielectric constant tensor:
#      x y z
#    x 1.910440 0.000000 0.000000 
#    y 0.000000 1.946990 0.000000 
#    z 0.000000 0.000000 1.886990 
# 
# From -- ./inp_files/15374.got.cif
#   From: 2010.05.17/outbox.cif.g08.bks.cpg/sg68_8_cif.got.tgz:15374.got - 2010.06.03 18:57:09.
