data_PCOD9508449
_publ_section_title
;
Structure prediction by ZEFSAII (Michael W. Deem and Ramdas Pophale) SiO2 
 PCOD9508449
Probable space group: C C C A
;
_chemical_formula_sum "Si O2"
_cell_formula_units_Z 116
_cell_length_a 24.674846
_cell_length_b 13.022154
_cell_length_c 18.622737
_cell_angle_alpha 90.000000
_cell_angle_beta 90.000000
_cell_angle_gamma 90.000000
_cell_volume 5983.851233
_symmetry_space_group_name_H-M "C C C A"
_symmetry_group_IT_number 68
_space_group.IT_coordinate_system_code '2'
_symmetry_cell_setting 'orthorhombic'
loop_
_space_group_symop_operation_xyz
x,y,z
-x,1/2-y,z
x,1/2-y,1/2-z
-x,y,1/2-z
-x,-y,-z
x,1/2+y,-z
-x,1/2+y,1/2+z
x,-y,1/2+z
1/2+x,1/2+y,z
1/2-x,-y,z
1/2+x,-y,1/2-z
1/2-x,1/2+y,1/2-z
1/2-x,1/2-y,-z
1/2+x,y,-z
1/2-x,y,1/2+z
1/2+x,1/2-y,1/2+z
loop_
_atom_site_type_symbol
_atom_site_label
_atom_site_fract_x
_atom_site_fract_y
_atom_site_fract_z
Si Si1 0.791133 0.185735 0.177466
Si Si2 0.369377 0.000456 0.314458
Si Si3 0.640966 0.235698 0.957819
Si Si4 0.090867 0.883521 0.174635
Si Si5 0.329817 0.706728 0.619218
Si Si6 0.500000 0.750000 0.750000
Si Si7 0.935831 0.448694 0.057042
Si Si8 0.945432 0.593550 0.925563
O O1 0.801417 0.250000 0.250000
O O2 0.821755 0.231003 0.108079
O O3 0.728123 0.193246 0.157027
O O4 0.816509 0.072268 0.188017
O O5 0.386071 0.044799 0.237772
O O6 0.359421 0.099134 0.364772
O O7 0.417676 0.934485 0.350108
O O8 0.614806 0.126304 0.941038
O O9 0.591104 0.316968 0.960367
O O10 0.671378 0.229128 0.034055
O O11 0.136000 0.799704 0.153506
O O12 0.038915 0.821275 0.202694
O O13 0.073428 0.955765 0.109460
O O14 0.990494 0.388087 0.078784
O O15 0.941680 0.494649 0.977493
#
# Coordination Sequence:
#
# PCOD9508449 Si02
#       8
#    16  16  16  16  16   4  16  16
#     4  11  25  44  67  91 129 175 221 274 331 392
#     4  11  22  43  63  95 129 171 212 272 333 387
#     4  11  23  43  65  95 130 171 221 273 324 399
#     4  12  24  39  67  98 134 169 222 275 326 403
#     4  12  23  42  66  96 129 168 222 276 330 393
#     4  12  24  40  64 100 138 172 210 280 334 372
#     4  11  22  39  63  94 129 171 213 263 324 395
#     4  10  22  38  63  91 130 170 211 261 327 390
#
# _framework density 19.385508999999999
#
# number of rings (size 3 to 8) (size 9 to 14) (size 15 to 20)
#    0.000    0.828    4.138    3.724    0.000    0.000 
#    0.000    2.069    0.000    2.483    0.000    0.000 
#    0.000    0.000    0.000    0.000    0.000    0.000 
#
# Total GULP energy -324110.720153 kJ/mol
# GULP energy per Si atom -5588.115865 kJ/mol
# Density = 1.934139 g / cm^3
# Si number density = 19.385509 Si / 1000 Ang^3
#
#
#
# Elastic Constant Matrix: (Units=GPa)
#
#
# Indices 1 2 3 4 5 6 
#
# 1 89.6383 15.8240 35.9644 0.0000 0.0000 0.0000
# 2 15.8240 56.5515 28.3602 0.0000 0.0000 0.0000
# 3 35.9644 28.3602 115.9337 0.0000 0.0000 0.0000
# 4 0.0000 0.0000 0.0000 36.3189 0.0000 0.0000
# 5 0.0000 0.0000 0.0000 0.0000 17.2879 0.0000
# 6 0.0000 0.0000 0.0000 0.0000 0.0000 22.2332
#
#
#
# Elastic Compliance Matrix: (Units=1/GPa)
#
#
# Indices 1 2 3 4 5 6 
#
# 1 0.012905 -0.001828 -0.003556 0.000000 0.000000 0.000000
# 2 -0.001828 0.020414 -0.004427 0.000000 0.000000 0.000000
# 3 -0.003556 -0.004427 0.010812 0.000000 0.000000 0.000000
# 4 0.000000 0.000000 0.000000 0.027534 0.000000 0.000000
# 5 0.000000 0.000000 0.000000 0.000000 0.057844 0.000000
# 6 0.000000 0.000000 0.000000 0.000000 0.000000 0.044978
#
#
# Mechanical properties :
#
#
# Convention : Reuss Voigt Hill
#
# Bulk Modulus (GPa) = 40.79996 46.93565 43.86780
# Shear Modulus (GPa) = 24.71832 27.29966 26.00899
#
# Velocity S-wave (km/s) = 3.57472 3.75674 3.66686
# Velocity P-wave (km/s) = 6.17499 6.56367 6.37229
#
# Compressibility (1/GPa) = 0.02450983
#
# Stress axis : x y z
#
# Youngs Moduli (GPa) = 77.48658 48.98485 92.49151
#
# Poissons Ratio (x) = 0.08953 0.32894
# Poissons Ratio (y) = 0.14162 0.40945
# Poissons Ratio (z) = 0.27557 0.21685
#
# Static dielectric constant tensor:
#      x y z
#    x 1.677660 0.000000 0.000000 
#    y 0.000000 1.655370 0.000000 
#    z 0.000000 0.000000 1.655310 
# 
# From -- ./inp_files/34173.got.cif
#   From: 2010.05.17/outbox.cif.g08.bks.cpg/sg68_18_cif.got.tgz:34173.got - 2010.06.03 18:57:09.
