data_PCOD9508010
_publ_section_title
;
Structure prediction by ZEFSAII (Michael W. Deem and Ramdas Pophale) SiO2 
 PCOD9508010
Probable space group: C C C A
;
_chemical_formula_sum "Si O2"
_cell_formula_units_Z 48
_cell_length_a 12.798529
_cell_length_b 30.409810
_cell_length_c 4.986534
_cell_angle_alpha 90.000000
_cell_angle_beta 90.000000
_cell_angle_gamma 90.000000
_cell_volume 1940.763197
_symmetry_space_group_name_H-M "C C C A"
_symmetry_group_IT_number 68
_space_group.IT_coordinate_system_code '2'
_symmetry_cell_setting 'orthorhombic'
loop_
_space_group_symop_operation_xyz
x,y,z
-x,1/2-y,z
x,1/2-y,1/2-z
-x,y,1/2-z
-x,-y,-z
x,1/2+y,-z
-x,1/2+y,1/2+z
x,-y,1/2+z
1/2+x,1/2+y,z
1/2-x,-y,z
1/2+x,-y,1/2-z
1/2-x,1/2+y,1/2-z
1/2-x,1/2-y,-z
1/2+x,y,-z
1/2-x,y,1/2+z
1/2+x,1/2-y,1/2+z
loop_
_atom_site_type_symbol
_atom_site_label
_atom_site_fract_x
_atom_site_fract_y
_atom_site_fract_z
Si Si1 0.375736 0.473134 0.774966
Si Si2 0.672354 0.750000 0.250000
Si Si3 0.000000 0.676724 0.750000
Si Si4 0.320768 0.877226 0.016514
O O1 0.500000 0.468698 0.750000
O O2 0.348954 0.486013 0.470054
O O3 0.337647 0.428513 0.912202
O O4 0.750000 0.750000 0.500000
O O5 0.593813 0.790069 0.178653
O O6 0.934201 0.645255 0.550984
O O7 0.232158 0.865201 0.236365
#
# Coordination Sequence:
#
# PCOD9508010 Si02
#       4
#    16   8   8  16
#     4  10  21  40  63  90 131 181 230 280 333 384
#     4  11  26  49  78 106 134 177 222 265 338 418
#     4  11  26  48  72 104 144 172 216 286 334 395
#     4  12  26  42  67 101 136 181 230 275 338 398
#
# _framework density 24.732536
#
# number of rings (size 3 to 8) (size 9 to 14) (size 15 to 20)
#    0.000    1.000    1.667    4.000    0.000   10.667 
#    0.000    0.000    0.000    0.000    0.000    0.000 
#    0.000    0.000    0.000    0.000    0.000    0.000 
#
# Total GULP energy -134003.928334 kJ/mol
# GULP energy per Si atom -5583.497014 kJ/mol
# Density = 2.467624 g / cm^3
# Si number density = 24.732536 Si / 1000 Ang^3
#
#
#
# Elastic Constant Matrix: (Units=GPa)
#
#
# Indices 1 2 3 4 5 6 
#
# 1 186.2299 51.0017 20.6599 0.0000 0.0000 0.0000
# 2 51.0017 121.4424 11.0333 0.0000 0.0000 0.0000
# 3 20.6599 11.0333 112.1026 0.0000 0.0000 0.0000
# 4 0.0000 0.0000 0.0000 -3.8851 0.0000 0.0000
# 5 0.0000 0.0000 0.0000 0.0000 10.8896 0.0000
# 6 0.0000 0.0000 0.0000 0.0000 0.0000 67.8208
#
#
#
# Elastic Compliance Matrix: (Units=1/GPa)
#
#
# Indices 1 2 3 4 5 6 
#
# 1 0.006154 -0.002504 -0.000888 0.000000 0.000000 0.000000
# 2 -0.002504 0.009327 -0.000457 0.000000 0.000000 0.000000
# 3 -0.000888 -0.000457 0.009129 0.000000 0.000000 0.000000
# 4 0.000000 0.000000 0.000000 -0.257392 0.000000 0.000000
# 5 0.000000 0.000000 0.000000 0.000000 0.091830 0.000000
# 6 0.000000 0.000000 0.000000 0.000000 0.000000 0.014745
#
#
# Mechanical properties :
#
#
# Convention : Reuss Voigt Hill
#
# Bulk Modulus (GPa) = 59.12245 65.01831 62.07038
# Shear Modulus (GPa) = -44.29757 37.43706 -3.43026
#
# Velocity S-wave (km/s) = -4.23669 3.89482 -1.17896
# Velocity P-wave (km/s) = 0.15464 6.82435 4.82679
#
# Compressibility (1/GPa) = 0.01691405
#
# Stress axis : x y z
#
# Youngs Moduli (GPa) = 162.49912 107.21174 109.54180
#
# Poissons Ratio (x) = 0.26843 0.09724
# Poissons Ratio (y) = 0.40686 0.05001
# Poissons Ratio (z) = 0.14425 0.04895
#
# Static dielectric constant tensor:
#      x y z
#    x 1.931460 0.000000 0.000000 
#    y 0.000000 2.035120 0.000000 
#    z 0.000000 0.000000 1.904700 
# 
# From -- ./inp_files/574.got.cif
#   From: 2010.05.17/outbox.cif.g08.bks.cpg/sg68_1_cif.got.tgz:574.got - 2010.06.03 18:57:09.
