data_PCOD9508299
_publ_section_title
;
Structure prediction by ZEFSAII (Michael W. Deem and Ramdas Pophale) SiO2 
 PCOD9508299
Probable space group: C C C A
;
_chemical_formula_sum "Si O2"
_cell_formula_units_Z 56
_cell_length_a 9.352747
_cell_length_b 13.637216
_cell_length_c 15.992527
_cell_angle_alpha 90.000000
_cell_angle_beta 90.000000
_cell_angle_gamma 90.000000
_cell_volume 2039.773750
_symmetry_space_group_name_H-M "C C C A"
_symmetry_group_IT_number 68
_space_group.IT_coordinate_system_code '2'
_symmetry_cell_setting 'orthorhombic'
loop_
_space_group_symop_operation_xyz
x,y,z
-x,1/2-y,z
x,1/2-y,1/2-z
-x,y,1/2-z
-x,-y,-z
x,1/2+y,-z
-x,1/2+y,1/2+z
x,-y,1/2+z
1/2+x,1/2+y,z
1/2-x,-y,z
1/2+x,-y,1/2-z
1/2-x,1/2+y,1/2-z
1/2-x,1/2-y,-z
1/2+x,y,-z
1/2-x,y,1/2+z
1/2+x,1/2-y,1/2+z
loop_
_atom_site_type_symbol
_atom_site_label
_atom_site_fract_x
_atom_site_fract_y
_atom_site_fract_z
Si Si1 0.500000 0.250000 0.016117
Si Si2 0.276023 0.116608 0.701623
Si Si3 0.910563 0.622573 0.868818
Si Si4 0.983815 0.105734 0.647525
O O1 0.581746 0.175027 0.077501
O O2 0.408083 0.180192 0.954597
O O3 0.290784 0.150083 0.798871
O O4 0.429901 0.144308 0.666642
O O5 0.152225 0.134165 0.635137
O O6 0.250000 0.000000 0.711839
O O7 0.926638 0.503348 0.871458
O O8 0.000000 0.119643 0.750000
#
# Coordination Sequence:
#
# PCOD9508299 Si02
#       4
#     8  16  16  16
#     4  12  27  41  64 112 136 164 226 295 331 382
#     4   9  18  42  74  91 126 186 223 260 331 406
#     4  10  21  45  70  96 132 175 230 272 328 395
#     4  11  22  47  69  93 137 183 218 267 342 407
#
# _framework density 27.454024
#
# number of rings (size 3 to 8) (size 9 to 14) (size 15 to 20)
#    0.000    1.714    5.714    1.286    0.000    3.429 
#   15.429    1.429    0.000    0.000    0.000    0.000 
#    0.000    0.000    0.000    0.000    0.000    0.000 
#
# Total GULP energy -156003.386437 kJ/mol
# GULP energy per Si atom -5571.549516 kJ/mol
# Density = 2.739154 g / cm^3
# Si number density = 27.454024 Si / 1000 Ang^3
#
#
#
# Elastic Constant Matrix: (Units=GPa)
#
#
# Indices 1 2 3 4 5 6 
#
# 1 86.8634 13.4976 54.3385 0.0000 0.0000 0.0000
# 2 13.4976 158.9012 108.1471 0.0000 0.0000 0.0000
# 3 54.3385 108.1471 231.0987 0.0000 0.0000 0.0000
# 4 0.0000 0.0000 0.0000 156.8896 0.0000 0.0000
# 5 0.0000 0.0000 0.0000 0.0000 28.4569 0.0000
# 6 0.0000 0.0000 0.0000 0.0000 0.0000 14.1887
#
#
#
# Elastic Compliance Matrix: (Units=1/GPa)
#
#
# Indices 1 2 3 4 5 6 
#
# 1 0.013742 0.001514 -0.003940 0.000000 0.000000 0.000000
# 2 0.001514 0.009401 -0.004755 0.000000 0.000000 0.000000
# 3 -0.003940 -0.004755 0.007479 0.000000 0.000000 0.000000
# 4 0.000000 0.000000 0.000000 0.006374 0.000000 0.000000
# 5 0.000000 0.000000 0.000000 0.000000 0.035141 0.000000
# 6 0.000000 0.000000 0.000000 0.000000 0.000000 0.070478
#
#
# Mechanical properties :
#
#
# Convention : Reuss Voigt Hill
#
# Bulk Modulus (GPa) = 61.50248 92.09219 76.79733
# Shear Modulus (GPa) = 30.78884 59.96573 45.37728
#
# Velocity S-wave (km/s) = 3.35247 4.67864 4.06993
# Velocity P-wave (km/s) = 6.11850 7.92485 7.07952
#
# Compressibility (1/GPa) = 0.01625951
#
# Stress axis : x y z
#
# Youngs Moduli (GPa) = 72.77218 106.37032 133.71029
#
# Poissons Ratio (x) = -0.16104 0.52676
# Poissons Ratio (y) = -0.11018 0.63585
# Poissons Ratio (z) = 0.28669 0.50584
#
# Static dielectric constant tensor:
#      x y z
#    x 2.485830 0.000000 0.000000 
#    y 0.000000 2.301060 0.000000 
#    z 0.000000 0.000000 2.174730 
# 
# From -- ./inp_files/20152.got.cif
#   From: 2010.05.17/outbox.cif.g08.bks.cpg/sg68_11_cif.got.tgz:20152.got - 2010.06.03 18:57:09.
