data_PCOD9508797
_publ_section_title
;
Structure prediction by ZEFSAII (Michael W. Deem and Ramdas Pophale) SiO2 
 PCOD9508797
Probable space group: C C C A
;
_chemical_formula_sum "Si O2"
_cell_formula_units_Z 64
_cell_length_a 15.577247
_cell_length_b 15.496448
_cell_length_c 11.769016
_cell_angle_alpha 90.000000
_cell_angle_beta 90.000000
_cell_angle_gamma 90.000000
_cell_volume 2840.946288
_symmetry_space_group_name_H-M "C C C A"
_symmetry_group_IT_number 68
_space_group.IT_coordinate_system_code '2'
_symmetry_cell_setting 'orthorhombic'
loop_
_space_group_symop_operation_xyz
x,y,z
-x,1/2-y,z
x,1/2-y,1/2-z
-x,y,1/2-z
-x,-y,-z
x,1/2+y,-z
-x,1/2+y,1/2+z
x,-y,1/2+z
1/2+x,1/2+y,z
1/2-x,-y,z
1/2+x,-y,1/2-z
1/2-x,1/2+y,1/2-z
1/2-x,1/2-y,-z
1/2+x,y,-z
1/2-x,y,1/2+z
1/2+x,1/2-y,1/2+z
loop_
_atom_site_type_symbol
_atom_site_label
_atom_site_fract_x
_atom_site_fract_y
_atom_site_fract_z
Si Si1 0.762691 0.250000 0.750000
Si Si2 0.593819 0.010130 0.230756
Si Si3 0.417221 0.689378 0.603891
Si Si4 0.167221 0.612456 0.896798
Si Si5 0.750000 0.000000 0.063923
O O1 0.828689 0.232243 0.646606
O O2 0.703774 0.172204 0.796713
O O3 0.500000 0.969014 0.250000
O O4 0.638267 0.980198 0.346846
O O5 0.576796 0.107198 0.188273
O O6 0.664791 0.984098 0.137831
O O7 0.500000 0.750000 0.614189
O O8 0.405233 0.657853 0.473935
O O9 0.236908 0.585220 0.989572
#
# Coordination Sequence:
#
# PCOD9508797 Si02
#       5
#     8  16  16  16   8
#     4  12  23  42  67  96 136 180 226 282 340 400
#     4  11  24  43  68  99 133 176 228 283 341 407
#     4  11  25  43  68  99 134 178 226 281 342 406
#     4  11  24  41  67  98 134 179 226 281 341 406
#     4  10  22  42  66  98 134 174 222 278 340 406
#
# _framework density 22.527704
#
# number of rings (size 3 to 8) (size 9 to 14) (size 15 to 20)
#    0.000    1.000    0.000    7.875    0.000    8.000 
#    0.000    0.000    0.000    0.000    0.000    0.000 
#    0.000    0.000    0.000    0.000    0.000    0.000 
#
# Total GULP energy -178327.499362 kJ/mol
# GULP energy per Si atom -5572.734355 kJ/mol
# Density = 2.247643 g / cm^3
# Si number density = 22.527704 Si / 1000 Ang^3
#
#
#
# Elastic Constant Matrix: (Units=GPa)
#
#
# Indices 1 2 3 4 5 6 
#
# 1 128.5162 60.7204 55.7340 0.0000 0.0000 0.0000
# 2 60.7204 95.9570 78.8274 0.0000 0.0000 0.0000
# 3 55.7340 78.8274 89.5791 0.0000 0.0000 0.0000
# 4 0.0000 0.0000 0.0000 -12.1613 0.0000 0.0000
# 5 0.0000 0.0000 0.0000 0.0000 9.8262 0.0000
# 6 0.0000 0.0000 0.0000 0.0000 0.0000 35.9323
#
#
#
# Elastic Compliance Matrix: (Units=1/GPa)
#
#
# Indices 1 2 3 4 5 6 
#
# 1 0.011272 -0.004950 -0.002658 0.000000 0.000000 0.000000
# 2 -0.004950 0.039780 -0.031926 0.000000 0.000000 0.000000
# 3 -0.002658 -0.031926 0.040911 0.000000 0.000000 0.000000
# 4 0.000000 0.000000 0.000000 -0.082228 0.000000 0.000000
# 5 0.000000 0.000000 0.000000 0.000000 0.101769 0.000000
# 6 0.000000 0.000000 0.000000 0.000000 0.000000 0.027830
#
#
# Mechanical properties :
#
#
# Convention : Reuss Voigt Hill
#
# Bulk Modulus (GPa) = 77.53976 78.29065 77.91521
# Shear Modulus (GPa) = 22.45171 14.63748 18.54459
#
# Velocity S-wave (km/s) = 3.16036 2.55179 2.87224
# Velocity P-wave (km/s) = 6.91460 6.59626 6.75731
#
# Compressibility (1/GPa) = 0.01289661
#
# Stress axis : x y z
#
# Youngs Moduli (GPa) = 88.71301 25.13816 24.44326
#
# Poissons Ratio (x) = 0.12442 0.06497
# Poissons Ratio (y) = 0.43909 0.78038
# Poissons Ratio (z) = 0.23579 0.80256
#
# Static dielectric constant tensor:
#      x y z
#    x 1.865510 0.000000 0.000000 
#    y 0.000000 1.955270 0.000000 
#    z 0.000000 0.000000 1.870430 
# 
# From -- ./inp_files/12870.got.cif
#   From: 2010.05.17/outbox.cif.g08.bks.cpg/sg68_7_cif.got.tgz:12870.got - 2010.06.03 18:57:09.
