data_PCOD9508244
_publ_section_title
;
Structure prediction by ZEFSAII (Michael W. Deem and Ramdas Pophale) SiO2 
 PCOD9508244
Probable space group: C C C A
;
_chemical_formula_sum "Si O2"
_cell_formula_units_Z 64
_cell_length_a 11.060198
_cell_length_b 13.427256
_cell_length_c 19.095196
_cell_angle_alpha 90.000000
_cell_angle_beta 90.000000
_cell_angle_gamma 90.000000
_cell_volume 2835.791467
_symmetry_space_group_name_H-M "C C C A"
_symmetry_group_IT_number 68
_space_group.IT_coordinate_system_code '2'
_symmetry_cell_setting 'orthorhombic'
loop_
_space_group_symop_operation_xyz
x,y,z
-x,1/2-y,z
x,1/2-y,1/2-z
-x,y,1/2-z
-x,-y,-z
x,1/2+y,-z
-x,1/2+y,1/2+z
x,-y,1/2+z
1/2+x,1/2+y,z
1/2-x,-y,z
1/2+x,-y,1/2-z
1/2-x,1/2+y,1/2-z
1/2-x,1/2-y,-z
1/2+x,y,-z
1/2-x,y,1/2+z
1/2+x,1/2-y,1/2+z
loop_
_atom_site_type_symbol
_atom_site_label
_atom_site_fract_x
_atom_site_fract_y
_atom_site_fract_z
Si Si1 0.135345 0.114066 0.767368
Si Si2 0.615649 0.389579 0.710325
Si Si3 0.688088 0.609183 0.059814
Si Si4 0.368596 0.203999 0.415870
O O1 0.250133 0.153711 0.723580
O O2 0.162040 0.137490 0.848167
O O3 0.000000 0.150382 0.750000
O O4 0.127463 0.999063 0.744451
O O5 0.500000 0.347421 0.750000
O O6 0.599084 0.392363 0.626825
O O7 0.750000 0.500000 0.058863
O O8 0.780104 0.701553 0.072681
O O9 0.630648 0.635499 0.985194
O O10 0.500000 0.250000 0.405161
#
# Coordination Sequence:
#
# PCOD9508244 Si02
#       4
#    16  16  16  16
#     4  10  21  43  67 104 136 182 236 286 353 420
#     4  10  22  41  69 105 137 185 229 290 362 413
#     4  11  25  48  67 102 147 184 236 300 356 425
#     4  11  27  44  72 103 137 191 242 293 354 428
#
# _framework density 22.568656000000001
#
# number of rings (size 3 to 8) (size 9 to 14) (size 15 to 20)
#    0.000    1.500    2.500    1.500    7.000    8.500 
#    0.000    1.250    0.000    0.000    0.000    0.000 
#    0.000    0.000    0.000    0.000    0.000    0.000 
#
# Total GULP energy -178598.472969 kJ/mol
# GULP energy per Si atom -5581.202280 kJ/mol
# Density = 2.251729 g / cm^3
# Si number density = 22.568656 Si / 1000 Ang^3
#
#
#
# Elastic Constant Matrix: (Units=GPa)
#
#
# Indices 1 2 3 4 5 6 
#
# 1 96.7611 -14.7101 19.0549 0.0000 0.0000 0.0000
# 2 -14.7101 136.2801 42.2498 0.0000 0.0000 0.0000
# 3 19.0549 42.2498 218.3040 0.0000 0.0000 0.0000
# 4 0.0000 0.0000 0.0000 50.9552 0.0000 0.0000
# 5 0.0000 0.0000 0.0000 0.0000 42.5709 0.0000
# 6 0.0000 0.0000 0.0000 0.0000 0.0000 -30.9996
#
#
#
# Elastic Compliance Matrix: (Units=1/GPa)
#
#
# Indices 1 2 3 4 5 6 
#
# 1 0.010816 0.001553 -0.001245 0.000000 0.000000 0.000000
# 2 0.001553 0.008029 -0.001690 0.000000 0.000000 0.000000
# 3 -0.001245 -0.001690 0.005016 0.000000 0.000000 0.000000
# 4 0.000000 0.000000 0.000000 0.019625 0.000000 0.000000
# 5 0.000000 0.000000 0.000000 0.000000 0.023490 0.000000
# 6 0.000000 0.000000 0.000000 0.000000 0.000000 -0.032259
#
#
# Mechanical properties :
#
#
# Convention : Reuss Voigt Hill
#
# Bulk Modulus (GPa) = 47.39355 60.50381 53.94868
# Shear Modulus (GPa) = 112.32520 39.48868 75.90694
#
# Velocity S-wave (km/s) = 7.06247 4.18750 5.80576
# Velocity P-wave (km/s) = 9.35681 7.08852 8.30052
#
# Compressibility (1/GPa) = 0.02109992
#
# Stress axis : x y z
#
# Youngs Moduli (GPa) = 92.45559 124.54383 199.34596
#
# Poissons Ratio (x) = -0.19346 0.24813
# Poissons Ratio (y) = -0.14362 0.33681
# Poissons Ratio (z) = 0.11508 0.21042
#
# Static dielectric constant tensor:
#      x y z
#    x 1.821280 0.000000 0.000000 
#    y 0.000000 1.740590 0.000000 
#    z 0.000000 0.000000 1.825150 
# 
# From -- ./inp_files/29160.got.cif
#   From: 2010.05.17/outbox.cif.g08.bks.cpg/sg68_15_cif.got.tgz:29160.got - 2010.06.03 18:57:09.
