data_PCOD9508652
_publ_section_title
;
Structure prediction by ZEFSAII (Michael W. Deem and Ramdas Pophale) SiO2 
 PCOD9508652
Probable space group: C C C A
;
_chemical_formula_sum "Si O2"
_cell_formula_units_Z 108
_cell_length_a 12.864435
_cell_length_b 15.369302
_cell_length_c 25.171508
_cell_angle_alpha 90.000000
_cell_angle_beta 90.000000
_cell_angle_gamma 90.000000
_cell_volume 4976.844778
_symmetry_space_group_name_H-M "C C C A"
_symmetry_group_IT_number 68
_space_group.IT_coordinate_system_code '2'
_symmetry_cell_setting 'orthorhombic'
loop_
_space_group_symop_operation_xyz
x,y,z
-x,1/2-y,z
x,1/2-y,1/2-z
-x,y,1/2-z
-x,-y,-z
x,1/2+y,-z
-x,1/2+y,1/2+z
x,-y,1/2+z
1/2+x,1/2+y,z
1/2-x,-y,z
1/2+x,-y,1/2-z
1/2-x,1/2+y,1/2-z
1/2-x,1/2-y,-z
1/2+x,y,-z
1/2-x,y,1/2+z
1/2+x,1/2-y,1/2+z
loop_
_atom_site_type_symbol
_atom_site_label
_atom_site_fract_x
_atom_site_fract_y
_atom_site_fract_z
Si Si1 0.667978 0.920749 0.027681
Si Si2 0.429317 0.979072 0.879514
Si Si3 0.884746 0.464730 0.763579
Si Si4 0.135341 0.617286 0.406318
Si Si5 0.000000 0.750000 0.750000
Si Si6 0.750000 0.500000 0.668629
Si Si7 0.207238 0.192166 0.902263
Si Si8 0.206165 0.323338 0.210256
O O1 0.723204 0.832118 0.047020
O O2 0.750000 0.000000 0.025648
O O3 0.588074 0.950741 0.073902
O O4 0.630389 0.909406 0.967943
O O5 0.398664 0.011914 0.820757
O O6 0.540817 0.934304 0.880027
O O7 0.356745 0.896171 0.892600
O O8 0.846041 0.512064 0.709854
O O9 0.788734 0.399917 0.776390
O O10 0.000000 0.427515 0.750000
O O11 0.231608 0.580789 0.371206
O O12 0.138208 0.721552 0.405461
O O13 0.082487 0.814452 0.778571
O O14 0.277865 0.201607 0.850558
O O15 0.249140 0.250000 0.250000
#
# Coordination Sequence:
#
# PCOD9508652 Si02
#       8
#    16  16  16  16   4   8  16  16
#     4  10  22  42  66  97 134 183 228 285 353 419
#     4  10  23  41  70  96 132 181 230 288 352 417
#     4  11  23  42  64 100 133 180 235 283 346 424
#     4  12  22  44  65 100 136 178 233 294 348 412
#     4   8  20  40  58  96 136 180 208 276 348 410
#     4  12  26  40  64 102 138 174 230 290 356 418
#     4  10  22  40  69  97 132 177 234 286 349 412
#     4   9  20  40  64  93 137 178 222 279 348 412
#
# _framework density 21.700496000000001
#
# number of rings (size 3 to 8) (size 9 to 14) (size 15 to 20)
#    0.444    1.185    2.222    2.222    5.185    0.296 
#    4.000    0.000    3.259    0.000    0.000    0.000 
#    0.000    0.000    0.000    0.000    0.000    0.000 
#
# Total GULP energy -300677.903297 kJ/mol
# GULP energy per Si atom -5568.109320 kJ/mol
# Density = 2.165110 g / cm^3
# Si number density = 21.700496 Si / 1000 Ang^3
#
#
#
# Elastic Constant Matrix: (Units=GPa)
#
#
# Indices 1 2 3 4 5 6 
#
# 1 111.7274 24.2794 41.2057 0.0000 0.0000 0.0000
# 2 24.2794 79.3876 40.4273 0.0000 0.0000 0.0000
# 3 41.2057 40.4273 157.9276 0.0000 0.0000 0.0000
# 4 0.0000 0.0000 0.0000 25.5256 0.0000 0.0000
# 5 0.0000 0.0000 0.0000 0.0000 26.6616 0.0000
# 6 0.0000 0.0000 0.0000 0.0000 0.0000 18.6033
#
#
#
# Elastic Compliance Matrix: (Units=1/GPa)
#
#
# Indices 1 2 3 4 5 6 
#
# 1 0.010179 -0.002024 -0.002138 0.000000 0.000000 0.000000
# 2 -0.002024 0.014887 -0.003283 0.000000 0.000000 0.000000
# 3 -0.002138 -0.003283 0.007730 0.000000 0.000000 0.000000
# 4 0.000000 0.000000 0.000000 0.039176 0.000000 0.000000
# 5 0.000000 0.000000 0.000000 0.000000 0.037507 0.000000
# 6 0.000000 0.000000 0.000000 0.000000 0.000000 0.053754
#
#
# Mechanical properties :
#
#
# Convention : Reuss Voigt Hill
#
# Bulk Modulus (GPa) = 55.84551 62.31859 59.08205
# Shear Modulus (GPa) = 27.16037 30.36676 28.76357
#
# Velocity S-wave (km/s) = 3.54164 3.74486 3.64466
# Velocity P-wave (km/s) = 6.52034 6.89047 6.70796
#
# Compressibility (1/GPa) = 0.01790654
#
# Stress axis : x y z
#
# Youngs Moduli (GPa) = 98.24514 67.17147 129.36508
#
# Poissons Ratio (x) = 0.13599 0.27652
# Poissons Ratio (y) = 0.19889 0.42467
# Poissons Ratio (z) = 0.21000 0.22051
#
# Static dielectric constant tensor:
#      x y z
#    x 1.870590 0.000000 0.000000 
#    y 0.000000 1.829820 0.000000 
#    z 0.000000 0.000000 1.831530 
# 
# From -- ./inp_files/45584.got.cif
#   From: 2010.05.17/outbox.cif.g08.bks.cpg/sg68_23_cif.got.tgz:45584.got - 2010.06.03 18:57:09.
