data_PCOD9508860
_publ_section_title
;
Structure prediction by ZEFSAII (Michael W. Deem and Ramdas Pophale) SiO2 
 PCOD9508860
Probable space group: C C C A
;
_chemical_formula_sum "Si O2"
_cell_formula_units_Z 88
_cell_length_a 15.525572
_cell_length_b 10.458772
_cell_length_c 25.384395
_cell_angle_alpha 90.000000
_cell_angle_beta 90.000000
_cell_angle_gamma 90.000000
_cell_volume 4121.877895
_symmetry_space_group_name_H-M "C C C A"
_symmetry_group_IT_number 68
_space_group.IT_coordinate_system_code '2'
_symmetry_cell_setting 'orthorhombic'
loop_
_space_group_symop_operation_xyz
x,y,z
-x,1/2-y,z
x,1/2-y,1/2-z
-x,y,1/2-z
-x,-y,-z
x,1/2+y,-z
-x,1/2+y,1/2+z
x,-y,1/2+z
1/2+x,1/2+y,z
1/2-x,-y,z
1/2+x,-y,1/2-z
1/2-x,1/2+y,1/2-z
1/2-x,1/2-y,-z
1/2+x,y,-z
1/2-x,y,1/2+z
1/2+x,1/2-y,1/2+z
loop_
_atom_site_type_symbol
_atom_site_label
_atom_site_fract_x
_atom_site_fract_y
_atom_site_fract_z
Si Si1 0.906670 0.681086 0.377988
Si Si2 0.083046 0.839185 0.608614
Si Si3 0.250165 0.648912 0.342747
Si Si4 0.150465 0.750000 0.750000
Si Si5 0.940717 0.876567 0.005908
Si Si6 0.966646 0.964705 0.695000
O O1 0.837039 0.782163 0.358047
O O2 0.892747 0.630969 0.437996
O O3 0.909565 0.561763 0.338356
O O4 0.000000 0.750000 0.376731
O O5 0.171830 0.779976 0.627395
O O6 0.107059 0.884635 0.549991
O O7 0.000000 0.750000 0.602516
O O8 0.046571 0.930924 0.655489
O O9 0.250000 0.500000 0.357830
O O10 0.284501 0.662211 0.283375
O O11 0.086988 0.659369 0.715308
O O12 0.000000 0.750000 0.006351
O O13 0.000000 0.000000 0.000000
O O14 0.000000 0.023347 0.750000
#
# Coordination Sequence:
#
# PCOD9508860 Si02
#       6
#    16  16  16   8  16  16
#     4  11  27  47  70 105 146 191 240 301 366 434
#     4  11  21  44  73 102 138 183 237 296 362 433
#     4  12  28  44  69 104 147 190 239 301 362 431
#     4  12  27  44  69 108 144 190 243 300 361 442
#     4  10  22  42  75 106 139 189 243 302 366 433
#     4  12  22  43  75 101 141 184 233 295 367 435
#
# _framework density 21.349492000000001
#
# number of rings (size 3 to 8) (size 9 to 14) (size 15 to 20)
#    0.000    0.727    5.455    1.364    5.091    1.091 
#    0.000    0.000    4.000    0.000    0.000    0.000 
#    0.000    0.000    0.000    0.000    0.000    0.000 
#
# Total GULP energy -245270.938683 kJ/mol
# GULP energy per Si atom -5574.339516 kJ/mol
# Density = 2.130090 g / cm^3
# Si number density = 21.349492 Si / 1000 Ang^3
#
#
#
# Elastic Constant Matrix: (Units=GPa)
#
#
# Indices 1 2 3 4 5 6 
#
# 1 126.2758 35.7969 39.5021 0.0000 0.0000 0.0000
# 2 35.7969 98.3942 42.6041 0.0000 0.0000 0.0000
# 3 39.5021 42.6041 173.8497 0.0000 0.0000 0.0000
# 4 0.0000 0.0000 0.0000 36.1396 0.0000 0.0000
# 5 0.0000 0.0000 0.0000 0.0000 8.9292 0.0000
# 6 0.0000 0.0000 0.0000 0.0000 0.0000 28.8469
#
#
#
# Elastic Compliance Matrix: (Units=1/GPa)
#
#
# Indices 1 2 3 4 5 6 
#
# 1 0.009129 -0.002711 -0.001410 0.000000 0.000000 0.000000
# 2 -0.002711 0.012175 -0.002368 0.000000 0.000000 0.000000
# 3 -0.001410 -0.002368 0.006653 0.000000 0.000000 0.000000
# 4 0.000000 0.000000 0.000000 0.027671 0.000000 0.000000
# 5 0.000000 0.000000 0.000000 0.000000 0.111992 0.000000
# 6 0.000000 0.000000 0.000000 0.000000 0.000000 0.034666
#
#
# Mechanical properties :
#
#
# Convention : Reuss Voigt Hill
#
# Bulk Modulus (GPa) = 66.75789 70.48067 68.61928
# Shear Modulus (GPa) = 22.70112 33.49092 28.09602
#
# Velocity S-wave (km/s) = 3.26438 3.96498 3.63161
# Velocity P-wave (km/s) = 6.74872 7.35159 7.05659
#
# Compressibility (1/GPa) = 0.01497950
#
# Stress axis : x y z
#
# Youngs Moduli (GPa) = 109.54527 82.13883 150.31549
#
# Poissons Ratio (x) = 0.22265 0.21194
# Poissons Ratio (y) = 0.29693 0.35589
# Poissons Ratio (z) = 0.15445 0.19447
#
# Static dielectric constant tensor:
#      x y z
#    x 1.735670 0.000000 0.000000 
#    y 0.000000 1.606050 0.000000 
#    z 0.000000 0.000000 2.015650 
# 
# From -- ./inp_files/45327.got.cif
#   From: 2010.05.17/outbox.cif.g08.bks.cpg/sg68_23_cif.got.tgz:45327.got - 2010.06.03 18:57:09.
