data_PCOD9508117
_publ_section_title
;
Structure prediction by ZEFSAII (Michael W. Deem and Ramdas Pophale) SiO2 
 PCOD9508117
Probable space group: C C C A
;
_chemical_formula_sum "Si O2"
_cell_formula_units_Z 80
_cell_length_a 14.709190
_cell_length_b 12.834338
_cell_length_c 21.488801
_cell_angle_alpha 90.000000
_cell_angle_beta 90.000000
_cell_angle_gamma 90.000000
_cell_volume 4056.714220
_symmetry_space_group_name_H-M "C C C A"
_symmetry_group_IT_number 68
_space_group.IT_coordinate_system_code '2'
_symmetry_cell_setting 'orthorhombic'
loop_
_space_group_symop_operation_xyz
x,y,z
-x,1/2-y,z
x,1/2-y,1/2-z
-x,y,1/2-z
-x,-y,-z
x,1/2+y,-z
-x,1/2+y,1/2+z
x,-y,1/2+z
1/2+x,1/2+y,z
1/2-x,-y,z
1/2+x,-y,1/2-z
1/2-x,1/2+y,1/2-z
1/2-x,1/2-y,-z
1/2+x,y,-z
1/2-x,y,1/2+z
1/2+x,1/2-y,1/2+z
loop_
_atom_site_type_symbol
_atom_site_label
_atom_site_fract_x
_atom_site_fract_y
_atom_site_fract_z
Si Si1 0.070227 0.905209 0.994795
Si Si2 0.000000 0.750000 0.402572
Si Si3 0.000000 0.250000 0.390382
Si Si4 0.250000 0.000000 0.255370
Si Si5 0.250000 0.000000 0.041695
Si Si6 0.658531 0.191135 0.185804
Si Si7 0.681931 0.848432 0.349693
O O1 0.171943 0.948184 0.000194
O O2 0.052353 0.831146 0.053877
O O3 0.046923 0.836449 0.934741
O O4 0.000000 0.000000 0.000000
O O5 0.925730 0.693773 0.360258
O O6 0.081364 0.302553 0.352736
O O7 0.310784 0.075599 0.296790
O O8 0.193705 0.074703 0.208937
O O9 0.295560 0.914536 0.087920
O O10 0.633322 0.250000 0.250000
O O11 0.743035 0.257583 0.158278
#
# Coordination Sequence:
#
# PCOD9508117 Si02
#       7
#    16   8   8   8   8  16  16
#     4  11  24  39  63  97 124 170 217 251 318 384
#     4  11  23  40  65  92 127 160 213 271 302 368
#     4  11  24  40  66  96 130 162 218 267 312 380
#     4   9  22  42  67  90 124 169 212 252 329 386
#     4  11  20  42  65  84 130 169 198 258 317 366
#     4  10  21  41  64  93 121 163 212 259 316 376
#     4  10  21  41  65  90 128 165 203 267 319 364
#
# _framework density 19.720393000000001
#
# number of rings (size 3 to 8) (size 9 to 14) (size 15 to 20)
#    0.000    1.600    4.000    0.300    0.000    4.000 
#    0.000    6.500    0.000    0.000    0.000    0.000 
#    0.000    0.000    0.000    0.000    0.000    0.000 
#
# Total GULP energy -223669.014029 kJ/mol
# GULP energy per Si atom -5591.725351 kJ/mol
# Density = 1.967551 g / cm^3
# Si number density = 19.720393 Si / 1000 Ang^3
#
#
#
# Elastic Constant Matrix: (Units=GPa)
#
#
# Indices 1 2 3 4 5 6 
#
# 1 159.1187 66.1749 50.5782 0.0000 0.0000 0.0000
# 2 66.1749 107.4419 29.5386 0.0000 0.0000 0.0000
# 3 50.5782 29.5386 53.9756 0.0000 0.0000 0.0000
# 4 0.0000 0.0000 0.0000 2.7356 0.0000 0.0000
# 5 0.0000 0.0000 0.0000 0.0000 29.1080 0.0000
# 6 0.0000 0.0000 0.0000 0.0000 0.0000 36.4760
#
#
#
# Elastic Compliance Matrix: (Units=1/GPa)
#
#
# Indices 1 2 3 4 5 6 
#
# 1 0.010472 -0.004417 -0.007396 0.000000 0.000000 0.000000
# 2 -0.004417 0.012818 -0.002876 0.000000 0.000000 0.000000
# 3 -0.007396 -0.002876 0.027032 0.000000 0.000000 0.000000
# 4 0.000000 0.000000 0.000000 0.365554 0.000000 0.000000
# 5 0.000000 0.000000 0.000000 0.000000 0.034355 0.000000
# 6 0.000000 0.000000 0.000000 0.000000 0.000000 0.027415
#
#
# Mechanical properties :
#
#
# Convention : Reuss Voigt Hill
#
# Bulk Modulus (GPa) = 47.74612 68.12440 57.93526
# Shear Modulus (GPa) = 9.72750 25.28021 17.50386
#
# Velocity S-wave (km/s) = 2.22338 3.58429 2.98250
# Velocity P-wave (km/s) = 5.55476 7.19373 6.42670
#
# Compressibility (1/GPa) = 0.02094411
#
# Stress axis : x y z
#
# Youngs Moduli (GPa) = 95.48870 78.01261 36.99372
#
# Poissons Ratio (x) = 0.34456 0.27361
# Poissons Ratio (y) = 0.42175 0.10640
# Poissons Ratio (z) = 0.70625 0.22439
#
# Static dielectric constant tensor:
#      x y z
#    x 1.668930 0.000000 0.000000 
#    y 0.000000 1.688430 0.000000 
#    z 0.000000 0.000000 1.680310 
# 
# From -- ./inp_files/44184.got.cif
#   From: 2010.05.17/outbox.cif.g08.bks.cpg/sg68_23_cif.got.tgz:44184.got - 2010.06.03 18:57:09.
