data_PCOD9508048
_publ_section_title
;
Structure prediction by ZEFSAII (Michael W. Deem and Ramdas Pophale) SiO2 
 PCOD9508048
Probable space group: C C C A
;
_chemical_formula_sum "Si O2"
_cell_formula_units_Z 104
_cell_length_a 9.109268
_cell_length_b 26.234424
_cell_length_c 20.257983
_cell_angle_alpha 90.000000
_cell_angle_beta 90.000000
_cell_angle_gamma 90.000000
_cell_volume 4841.179829
_symmetry_space_group_name_H-M "C C C A"
_symmetry_group_IT_number 68
_space_group.IT_coordinate_system_code '2'
_symmetry_cell_setting 'orthorhombic'
loop_
_space_group_symop_operation_xyz
x,y,z
-x,1/2-y,z
x,1/2-y,1/2-z
-x,y,1/2-z
-x,-y,-z
x,1/2+y,-z
-x,1/2+y,1/2+z
x,-y,1/2+z
1/2+x,1/2+y,z
1/2-x,-y,z
1/2+x,-y,1/2-z
1/2-x,1/2+y,1/2-z
1/2-x,1/2-y,-z
1/2+x,y,-z
1/2-x,y,1/2+z
1/2+x,1/2-y,1/2+z
loop_
_atom_site_type_symbol
_atom_site_label
_atom_site_fract_x
_atom_site_fract_y
_atom_site_fract_z
Si Si1 0.168981 0.733795 0.882975
Si Si2 0.149274 0.597305 0.556941
Si Si3 0.250000 0.000000 0.025635
Si Si4 0.350560 0.336167 0.141187
Si Si5 0.135264 0.925069 0.622525
Si Si6 0.170016 0.354715 0.270502
Si Si7 0.357137 0.842728 0.564575
O O1 0.264561 0.783587 0.869939
O O2 0.184868 0.691823 0.823710
O O3 0.247123 0.704436 0.942974
O O4 0.000000 0.750000 0.890984
O O5 0.184738 0.544059 0.520976
O O6 0.291466 0.621452 0.590088
O O7 0.081594 0.637566 0.504726
O O8 0.029877 0.593548 0.614156
O O9 0.137347 0.023779 0.079182
O O10 0.294553 0.350632 0.214507
O O11 0.520090 0.331318 0.119770
O O12 0.178975 0.911391 0.696894
O O13 0.253389 0.889682 0.585388
O O14 0.000000 0.348354 0.250000
#
# Coordination Sequence:
#
# PCOD9508048 Si02
#       7
#    16  16   8  16  16  16  16
#     4  11  22  38  63  90 127 178 214 260 323 390
#     4  11  22  43  68  94 128 172 218 274 334 402
#     4  10  22  40  70  96 126 162 220 270 338 392
#     4  12  23  38  66  94 129 168 223 274 317 391
#     4  10  21  40  66  91 126 172 208 272 333 394
#     4  11  21  41  67  91 126 169 223 259 323 391
#     4  10  23  39  59  97 131 168 219 269 326 379
#
# _framework density 21.482365999999999
#
# number of rings (size 3 to 8) (size 9 to 14) (size 15 to 20)
#    0.000    1.231    3.077    4.154    0.000    4.308 
#    0.000    6.923    6.769    0.000    0.000    0.000 
#    0.000    0.000    0.000    0.000    0.000    0.000 
#
# Total GULP energy -289721.350029 kJ/mol
# GULP energy per Si atom -5571.564424 kJ/mol
# Density = 2.143347 g / cm^3
# Si number density = 21.482366 Si / 1000 Ang^3
#
#
#
# Elastic Constant Matrix: (Units=GPa)
#
#
# Indices 1 2 3 4 5 6 
#
# 1 113.2230 28.6727 19.9984 0.0000 0.0000 0.0000
# 2 28.6727 82.6402 68.0303 0.0000 0.0000 0.0000
# 3 19.9984 68.0303 40.7538 0.0000 0.0000 0.0000
# 4 0.0000 0.0000 0.0000 40.6326 0.0000 0.0000
# 5 0.0000 0.0000 0.0000 0.0000 13.2981 0.0000
# 6 0.0000 0.0000 0.0000 0.0000 0.0000 16.1721
#
#
#
# Elastic Compliance Matrix: (Units=1/GPa)
#
#
# Indices 1 2 3 4 5 6 
#
# 1 0.009604 -0.001463 -0.002270 0.000000 0.000000 0.000000
# 2 -0.001463 -0.032116 0.054329 0.000000 0.000000 0.000000
# 3 -0.002270 0.054329 -0.065039 0.000000 0.000000 0.000000
# 4 0.000000 0.000000 0.000000 0.024611 0.000000 0.000000
# 5 0.000000 0.000000 0.000000 0.000000 0.075199 0.000000
# 6 0.000000 0.000000 0.000000 0.000000 0.000000 0.061835
#
#
# Mechanical properties :
#
#
# Convention : Reuss Voigt Hill
#
# Bulk Modulus (GPa) = 73.31804 52.22444 62.77124
# Shear Modulus (GPa) = -221.71921 22.01494 -99.85213
#
# Velocity S-wave (km/s) = -10.17025 3.20471 -6.82509
# Velocity P-wave (km/s) = 10.18373 6.16901 5.72938
#
# Compressibility (1/GPa) = 0.01363921
#
# Stress axis : x y z
#
# Youngs Moduli (GPa) = 104.12712 -31.13738 -15.37533
#
# Poissons Ratio (x) = -0.04555 -0.03491
# Poissons Ratio (y) = 0.15234 0.83532
# Poissons Ratio (z) = 0.23642 1.69165
#
# Static dielectric constant tensor:
#      x y z
#    x 1.827850 0.000000 0.000000 
#    y 0.000000 1.836100 0.000000 
#    z 0.000000 0.000000 1.873040 
# 
# From -- ./inp_files/36551.got.cif
#   From: 2010.05.17/outbox.cif.g08.bks.cpg/sg68_19_cif.got.tgz:36551.got - 2010.06.03 18:57:09.
