data_PCOD9508288
_publ_section_title
;
Structure prediction by ZEFSAII (Michael W. Deem and Ramdas Pophale) SiO2 
 PCOD9508288
Probable space group: C C C A
;
_chemical_formula_sum "Si O2"
_cell_formula_units_Z 72
_cell_length_a 18.218498
_cell_length_b 10.523516
_cell_length_c 16.529148
_cell_angle_alpha 90.000000
_cell_angle_beta 90.000000
_cell_angle_gamma 90.000000
_cell_volume 3169.012143
_symmetry_space_group_name_H-M "C C C A"
_symmetry_group_IT_number 68
_space_group.IT_coordinate_system_code '2'
_symmetry_cell_setting 'orthorhombic'
loop_
_space_group_symop_operation_xyz
x,y,z
-x,1/2-y,z
x,1/2-y,1/2-z
-x,y,1/2-z
-x,-y,-z
x,1/2+y,-z
-x,1/2+y,1/2+z
x,-y,1/2+z
1/2+x,1/2+y,z
1/2-x,-y,z
1/2+x,-y,1/2-z
1/2-x,1/2+y,1/2-z
1/2-x,1/2-y,-z
1/2+x,y,-z
1/2-x,y,1/2+z
1/2+x,1/2-y,1/2+z
loop_
_atom_site_type_symbol
_atom_site_label
_atom_site_fract_x
_atom_site_fract_y
_atom_site_fract_z
Si Si1 0.407212 0.146307 0.185093
Si Si2 0.085327 0.887003 0.775960
Si Si3 0.500000 0.250000 0.448253
Si Si4 0.728977 0.632982 0.592880
Si Si5 0.635842 0.188184 0.553170
O O1 0.428269 0.250000 0.250000
O O2 0.469441 0.142256 0.114332
O O3 0.332419 0.199791 0.146266
O O4 0.391325 0.012626 0.227930
O O5 0.118032 0.750000 0.750000
O O6 0.101911 0.889026 0.871769
O O7 0.000000 0.881041 0.750000
O O8 0.569988 0.263005 0.507371
O O9 0.750000 0.500000 0.630502
O O10 0.682244 0.604518 0.510855
O O11 0.801490 0.713363 0.579910
#
# Coordination Sequence:
#
# PCOD9508288 Si02
#       5
#    16  16   8  16  16
#     4  11  24  42  67  98 133 172 216 274 336 395
#     4  11  23  40  64  98 133 168 217 275 334 392
#     4  10  21  44  71  96 132 178 228 280 333 402
#     4  10  23  42  63  91 128 172 219 267 327 397
#     4  10  23  42  65  94 129 174 225 274 328 398
#
# _framework density 22.720013999999999
#
# number of rings (size 3 to 8) (size 9 to 14) (size 15 to 20)
#    0.000    1.556    0.000    4.333    0.000    9.778 
#    0.000    8.889    0.000    0.000    0.000    0.000 
#    0.000    0.000    0.000    0.000    0.000    0.000 
#
# Total GULP energy -200634.245227 kJ/mol
# GULP energy per Si atom -5573.173479 kJ/mol
# Density = 2.266830 g / cm^3
# Si number density = 22.720014 Si / 1000 Ang^3
#
#
#
# Elastic Constant Matrix: (Units=GPa)
#
#
# Indices 1 2 3 4 5 6 
#
# 1 177.7436 35.2601 86.4631 0.0000 0.0000 0.0000
# 2 35.2601 73.6343 28.1854 0.0000 0.0000 0.0000
# 3 86.4631 28.1854 135.9800 0.0000 0.0000 0.0000
# 4 0.0000 0.0000 0.0000 25.4702 0.0000 0.0000
# 5 0.0000 0.0000 0.0000 0.0000 37.6755 0.0000
# 6 0.0000 0.0000 0.0000 0.0000 0.0000 58.6330
#
#
#
# Elastic Compliance Matrix: (Units=1/GPa)
#
#
# Indices 1 2 3 4 5 6 
#
# 1 0.008451 -0.002161 -0.004925 0.000000 0.000000 0.000000
# 2 -0.002161 0.015304 -0.001798 0.000000 0.000000 0.000000
# 3 -0.004925 -0.001798 0.010859 0.000000 0.000000 0.000000
# 4 0.000000 0.000000 0.000000 0.039262 0.000000 0.000000
# 5 0.000000 0.000000 0.000000 0.000000 0.026542 0.000000
# 6 0.000000 0.000000 0.000000 0.000000 0.000000 0.017055
#
#
# Mechanical properties :
#
#
# Convention : Reuss Voigt Hill
#
# Bulk Modulus (GPa) = 59.36884 76.35279 67.86082
# Shear Modulus (GPa) = 35.49718 40.18570 37.84144
#
# Velocity S-wave (km/s) = 3.95698 4.21020 4.08555
# Velocity P-wave (km/s) = 6.86034 7.57055 7.22418
#
# Compressibility (1/GPa) = 0.01684385
#
# Stress axis : x y z
#
# Youngs Moduli (GPa) = 118.33150 65.34337 92.09348
#
# Poissons Ratio (x) = 0.14123 0.45360
# Poissons Ratio (y) = 0.25576 0.16557
# Poissons Ratio (z) = 0.58284 0.11747
#
# Static dielectric constant tensor:
#      x y z
#    x 1.845580 0.000000 0.000000 
#    y 0.000000 1.880200 0.000000 
#    z 0.000000 0.000000 1.669650 
# 
# From -- ./inp_files/29368.got.cif
#   From: 2010.05.17/outbox.cif.g08.bks.cpg/sg68_15_cif.got.tgz:29368.got - 2010.06.03 18:57:09.
