data_PCOD9508855
_publ_section_title
;
Structure prediction by ZEFSAII (Michael W. Deem and Ramdas Pophale) SiO2 
 PCOD9508855
Probable space group: C C C A
;
_chemical_formula_sum "Si O2"
_cell_formula_units_Z 64
_cell_length_a 8.550362
_cell_length_b 29.035991
_cell_length_c 12.436443
_cell_angle_alpha 90.000000
_cell_angle_beta 90.000000
_cell_angle_gamma 90.000000
_cell_volume 3087.573742
_symmetry_space_group_name_H-M "C C C A"
_symmetry_group_IT_number 68
_space_group.IT_coordinate_system_code '2'
_symmetry_cell_setting 'orthorhombic'
loop_
_space_group_symop_operation_xyz
x,y,z
-x,1/2-y,z
x,1/2-y,1/2-z
-x,y,1/2-z
-x,-y,-z
x,1/2+y,-z
-x,1/2+y,1/2+z
x,-y,1/2+z
1/2+x,1/2+y,z
1/2-x,-y,z
1/2+x,-y,1/2-z
1/2-x,1/2+y,1/2-z
1/2-x,1/2-y,-z
1/2+x,y,-z
1/2-x,y,1/2+z
1/2+x,1/2-y,1/2+z
loop_
_atom_site_type_symbol
_atom_site_label
_atom_site_fract_x
_atom_site_fract_y
_atom_site_fract_z
Si Si1 0.000000 0.864143 0.750000
Si Si2 0.033430 0.458844 0.870425
Si Si3 0.000000 0.250000 0.532486
Si Si4 0.893180 0.561066 0.582687
Si Si5 0.218006 0.211984 0.344650
O O1 0.049830 0.896462 0.651804
O O2 0.145873 0.833255 0.789874
O O3 0.015490 0.514293 0.882365
O O4 0.211605 0.447650 0.897791
O O5 0.000000 0.445025 0.750000
O O6 0.924285 0.434330 0.956569
O O7 0.888630 0.277488 0.449723
O O8 0.893317 0.217253 0.608014
O O9 0.201136 0.250000 0.250000
#
# Coordination Sequence:
#
# PCOD9508855 Si02
#       5
#     8  16   8  16  16
#     4  12  23  42  68 104 146 174 238 300 339 406
#     4  10  22  44  66  93 136 189 236 278 358 414
#     4  10  22  42  74  94 128 190 220 262 360 432
#     4  10  24  39  68  97 135 183 235 291 345 411
#     4  11  22  45  68 100 137 181 220 283 354 419
#
# _framework density 20.728248000000001
#
# number of rings (size 3 to 8) (size 9 to 14) (size 15 to 20)
#    0.000    1.500    3.750    0.375    3.500    4.000 
#    0.000    0.000    0.000    0.000    0.000    0.000 
#    0.000    0.000    0.000    0.000    0.000    0.000 
#
# Total GULP energy -178778.161614 kJ/mol
# GULP energy per Si atom -5586.817550 kJ/mol
# Density = 2.068107 g / cm^3
# Si number density = 20.728248 Si / 1000 Ang^3
#
#
#
# Elastic Constant Matrix: (Units=GPa)
#
#
# Indices 1 2 3 4 5 6 
#
# 1 96.7694 41.7738 70.2479 0.0000 0.0000 0.0000
# 2 41.7738 99.1328 68.0520 0.0000 0.0000 0.0000
# 3 70.2479 68.0520 208.3301 0.0000 0.0000 0.0000
# 4 0.0000 0.0000 0.0000 44.4633 0.0000 0.0000
# 5 0.0000 0.0000 0.0000 0.0000 15.9608 0.0000
# 6 0.0000 0.0000 0.0000 0.0000 0.0000 9.2015
#
#
#
# Elastic Compliance Matrix: (Units=1/GPa)
#
#
# Indices 1 2 3 4 5 6 
#
# 1 0.014604 -0.003575 -0.003757 0.000000 0.000000 0.000000
# 2 -0.003575 0.013879 -0.003328 0.000000 0.000000 0.000000
# 3 -0.003757 -0.003328 0.007154 0.000000 0.000000 0.000000
# 4 0.000000 0.000000 0.000000 0.022490 0.000000 0.000000
# 5 0.000000 0.000000 0.000000 0.000000 0.062654 0.000000
# 6 0.000000 0.000000 0.000000 0.000000 0.000000 0.108678
#
#
# Mechanical properties :
#
#
# Convention : Reuss Voigt Hill
#
# Bulk Modulus (GPa) = 69.84675 84.93109 77.38892
# Shear Modulus (GPa) = 19.56555 28.86903 24.21729
#
# Velocity S-wave (km/s) = 3.07564 3.73599 3.42178
# Velocity P-wave (km/s) = 6.81046 7.72481 7.28200
#
# Compressibility (1/GPa) = 0.01431706
#
# Stress axis : x y z
#
# Youngs Moduli (GPa) = 68.47308 72.05329 139.78459
#
# Poissons Ratio (x) = 0.25761 0.52511
# Poissons Ratio (y) = 0.24481 0.46519
# Poissons Ratio (z) = 0.25723 0.23979
#
# Static dielectric constant tensor:
#      x y z
#    x 1.743230 0.000000 0.000000 
#    y 0.000000 1.741120 0.000000 
#    z 0.000000 0.000000 1.727600 
# 
# From -- ./inp_files/10778.got.cif
#   From: 2010.05.17/outbox.cif.g08.bks.cpg/sg68_6_cif.got.tgz:10778.got - 2010.06.03 18:57:09.
