data_PCOD9508412
_publ_section_title
;
Structure prediction by ZEFSAII (Michael W. Deem and Ramdas Pophale) SiO2 
 PCOD9508412
Probable space group: C C C A
;
_chemical_formula_sum "Si O2"
_cell_formula_units_Z 116
_cell_length_a 8.798097
_cell_length_b 17.873260
_cell_length_c 30.371541
_cell_angle_alpha 90.000000
_cell_angle_beta 90.000000
_cell_angle_gamma 90.000000
_cell_volume 4775.945329
_symmetry_space_group_name_H-M "C C C A"
_symmetry_group_IT_number 68
_space_group.IT_coordinate_system_code '2'
_symmetry_cell_setting 'orthorhombic'
loop_
_space_group_symop_operation_xyz
x,y,z
-x,1/2-y,z
x,1/2-y,1/2-z
-x,y,1/2-z
-x,-y,-z
x,1/2+y,-z
-x,1/2+y,1/2+z
x,-y,1/2+z
1/2+x,1/2+y,z
1/2-x,-y,z
1/2+x,-y,1/2-z
1/2-x,1/2+y,1/2-z
1/2-x,1/2-y,-z
1/2+x,y,-z
1/2-x,y,1/2+z
1/2+x,1/2-y,1/2+z
loop_
_atom_site_type_symbol
_atom_site_label
_atom_site_fract_x
_atom_site_fract_y
_atom_site_fract_z
Si Si1 0.259729 0.402171 0.676087
Si Si2 0.273434 0.251286 0.319728
Si Si3 0.887060 0.901514 0.038008
Si Si4 0.164796 0.396062 0.270320
Si Si5 0.061769 0.532327 0.858599
Si Si6 0.961200 0.078844 0.052582
Si Si7 0.546161 0.133581 0.379230
Si Si8 0.500000 0.250000 0.250000
O O1 0.336512 0.318007 0.671198
O O2 0.235784 0.420455 0.728042
O O3 0.382469 0.460231 0.656524
O O4 0.111429 0.383583 0.646970
O O5 0.209675 0.315987 0.289146
O O6 0.356741 0.298488 0.358471
O O7 0.394549 0.211812 0.286202
O O8 0.709486 0.887742 0.048930
O O9 0.995069 0.855250 0.070725
O O10 0.926280 0.989358 0.047789
O O11 0.934848 0.892862 0.987408
O O12 0.144482 0.444155 0.314054
O O13 0.000000 0.392264 0.250000
O O14 0.384247 0.550279 0.873713
O O15 0.052749 0.585075 0.901715
#
# Coordination Sequence:
#
# PCOD9508412 Si02
#       8
#    16  16  16  16  16  16  16   4
#     4  11  20  39  60  84 119 167 210 247 305 384
#     4  12  22  38  63  84 117 160 219 260 297 376
#     4   9  18  32  60  89 123 163 208 262 319 398
#     4  10  23  40  56  86 119 165 206 256 305 375
#     4  10  22  38  58  90 127 161 199 262 330 377
#     4   9  17  34  58  89 123 164 207 256 327 394
#     4  11  21  38  60  92 124 160 205 265 327 374
#     4  12  20  40  54  88 104 156 212 264 292 360
#
# _framework density 24.288384000000001
#
# number of rings (size 3 to 8) (size 9 to 14) (size 15 to 20)
#    0.000    1.655    4.138    0.414    0.000    5.517 
#   16.138    2.759    0.000    0.828    3.586    0.000 
#    0.000    0.000    0.000    0.000    0.000    0.000 
#
# Total GULP energy -323169.647073 kJ/mol
# GULP energy per Si atom -5571.890467 kJ/mol
# Density = 2.423310 g / cm^3
# Si number density = 24.288384 Si / 1000 Ang^3
#
#
#
# Elastic Constant Matrix: (Units=GPa)
#
#
# Indices 1 2 3 4 5 6 
#
# 1 56.8864 13.0764 45.9760 0.0000 0.0000 0.0000
# 2 13.0764 84.2280 21.4742 0.0000 0.0000 0.0000
# 3 45.9760 21.4742 201.1468 0.0000 0.0000 0.0000
# 4 0.0000 0.0000 0.0000 21.1520 0.0000 0.0000
# 5 0.0000 0.0000 0.0000 0.0000 34.1158 0.0000
# 6 0.0000 0.0000 0.0000 0.0000 0.0000 23.9390
#
#
#
# Elastic Compliance Matrix: (Units=1/GPa)
#
#
# Indices 1 2 3 4 5 6 
#
# 1 0.021947 -0.002188 -0.004783 0.000000 0.000000 0.000000
# 2 -0.002188 0.012423 -0.000826 0.000000 0.000000 0.000000
# 3 -0.004783 -0.000826 0.006153 0.000000 0.000000 0.000000
# 4 0.000000 0.000000 0.000000 0.047277 0.000000 0.000000
# 5 0.000000 0.000000 0.000000 0.000000 0.029312 0.000000
# 6 0.000000 0.000000 0.000000 0.000000 0.000000 0.041773
#
#
# Mechanical properties :
#
#
# Convention : Reuss Voigt Hill
#
# Bulk Modulus (GPa) = 40.11365 55.92383 48.01874
# Shear Modulus (GPa) = 27.35403 33.29035 30.32219
#
# Velocity S-wave (km/s) = 3.35956 3.70622 3.53714
# Velocity P-wave (km/s) = 5.62141 6.43348 6.04111
#
# Compressibility (1/GPa) = 0.02492917
#
# Stress axis : x y z
#
# Youngs Moduli (GPa) = 45.56346 80.49690 162.52436
#
# Poissons Ratio (x) = 0.17612 0.77734
# Poissons Ratio (y) = 0.09969 0.13427
# Poissons Ratio (z) = 0.21793 0.06650
#
# Static dielectric constant tensor:
#      x y z
#    x 2.147440 0.000000 0.000000 
#    y 0.000000 2.107060 0.000000 
#    z 0.000000 0.000000 1.971510 
# 
# From -- ./inp_files/54221.got.cif
#   From: 2010.05.17/outbox.cif.g08.bks.cpg/sg68_28_cif.got.tgz:54221.got - 2010.06.03 18:57:09.
