data_PCOD9508266
_publ_section_title
;
Structure prediction by ZEFSAII (Michael W. Deem and Ramdas Pophale) SiO2 
 PCOD9508266
Probable space group: C C C A
;
_chemical_formula_sum "Si O2"
_cell_formula_units_Z 64
_cell_length_a 16.992979
_cell_length_b 22.110157
_cell_length_c 7.460980
_cell_angle_alpha 90.000000
_cell_angle_beta 90.000000
_cell_angle_gamma 90.000000
_cell_volume 2803.220258
_symmetry_space_group_name_H-M "C C C A"
_symmetry_group_IT_number 68
_space_group.IT_coordinate_system_code '2'
_symmetry_cell_setting 'orthorhombic'
loop_
_space_group_symop_operation_xyz
x,y,z
-x,1/2-y,z
x,1/2-y,1/2-z
-x,y,1/2-z
-x,-y,-z
x,1/2+y,-z
-x,1/2+y,1/2+z
x,-y,1/2+z
1/2+x,1/2+y,z
1/2-x,-y,z
1/2+x,-y,1/2-z
1/2-x,1/2+y,1/2-z
1/2-x,1/2-y,-z
1/2+x,y,-z
1/2-x,y,1/2+z
1/2+x,1/2-y,1/2+z
loop_
_atom_site_type_symbol
_atom_site_label
_atom_site_fract_x
_atom_site_fract_y
_atom_site_fract_z
Si Si1 0.187935 0.555340 0.846851
Si Si2 0.567299 0.428468 0.359727
Si Si3 0.830129 0.614300 0.028226
Si Si4 0.523867 0.183761 0.541618
O O1 0.250000 0.500000 0.845033
O O2 0.161442 0.572880 0.648715
O O3 0.115407 0.543358 0.977401
O O4 0.237469 0.612243 0.927958
O O5 0.500000 0.464141 0.250000
O O6 0.630210 0.410555 0.209053
O O7 0.522688 0.369641 0.439928
O O8 0.882825 0.672537 0.983100
O O9 0.500000 0.250000 0.476631
O O10 0.500000 0.179252 0.750000
#
# Coordination Sequence:
#
# PCOD9508266 Si02
#       4
#    16  16  16  16
#     4  12  24  42  67  97 143 186 229 290 349 402
#     4  10  23  42  69 102 140 181 233 287 341 417
#     4  11  23  40  69  99 138 182 231 282 343 417
#     4  10  21  43  75 100 137 181 226 290 356 407
#
# _framework density 22.830886
#
# number of rings (size 3 to 8) (size 9 to 14) (size 15 to 20)
#    0.000    1.250    5.000    0.750    0.000    5.500 
#    0.000    7.500    5.500    0.000    0.000    0.000 
#    0.000    0.000    0.000    0.000    0.000    0.000 
#
# Total GULP energy -178796.328702 kJ/mol
# GULP energy per Si atom -5587.385272 kJ/mol
# Density = 2.277892 g / cm^3
# Si number density = 22.830886 Si / 1000 Ang^3
#
#
#
# Elastic Constant Matrix: (Units=GPa)
#
#
# Indices 1 2 3 4 5 6 
#
# 1 102.5885 54.0096 30.7395 0.0000 0.0000 0.0000
# 2 54.0096 99.0036 23.9643 0.0000 0.0000 0.0000
# 3 30.7395 23.9643 156.6379 0.0000 0.0000 0.0000
# 4 0.0000 0.0000 0.0000 2.6766 0.0000 0.0000
# 5 0.0000 0.0000 0.0000 0.0000 31.2281 0.0000
# 6 0.0000 0.0000 0.0000 0.0000 0.0000 33.9734
#
#
#
# Elastic Compliance Matrix: (Units=1/GPa)
#
#
# Indices 1 2 3 4 5 6 
#
# 1 0.014074 -0.007279 -0.001648 0.000000 0.000000 0.000000
# 2 -0.007279 0.014253 -0.000752 0.000000 0.000000 0.000000
# 3 -0.001648 -0.000752 0.006823 0.000000 0.000000 0.000000
# 4 0.000000 0.000000 0.000000 0.373613 0.000000 0.000000
# 5 0.000000 0.000000 0.000000 0.000000 0.032022 0.000000
# 6 0.000000 0.000000 0.000000 0.000000 0.000000 0.029435
#
#
# Mechanical properties :
#
#
# Convention : Reuss Voigt Hill
#
# Bulk Modulus (GPa) = 63.32573 63.96186 63.64380
# Shear Modulus (GPa) = 10.10423 30.21006 20.15714
#
# Velocity S-wave (km/s) = 2.10601 3.64154 2.97457
# Velocity P-wave (km/s) = 5.80610 6.76442 6.30350
#
# Compressibility (1/GPa) = 0.01579137
#
# Stress axis : x y z
#
# Youngs Moduli (GPa) = 71.05539 70.15855 146.56921
#
# Poissons Ratio (x) = 0.51065 0.24159
# Poissons Ratio (y) = 0.51718 0.11026
# Poissons Ratio (z) = 0.11712 0.05278
#
# Static dielectric constant tensor:
#      x y z
#    x 1.901280 0.000000 0.000000 
#    y 0.000000 1.885740 0.000000 
#    z 0.000000 0.000000 1.836230 
# 
# From -- ./inp_files/5013.got.cif
#   From: 2010.05.17/outbox.cif.g08.bks.cpg/sg68_3_cif.got.tgz:5013.got - 2010.06.03 18:57:09.
