data_PCOD9508982
_publ_section_title
;
Structure prediction by ZEFSAII (Michael W. Deem and Ramdas Pophale) SiO2 
 PCOD9508982
Probable space group: C C C A
;
_chemical_formula_sum "Si O2"
_cell_formula_units_Z 80
_cell_length_a 25.261903
_cell_length_b 14.072603
_cell_length_c 11.724502
_cell_angle_alpha 90.000000
_cell_angle_beta 90.000000
_cell_angle_gamma 90.000000
_cell_volume 4168.069043
_symmetry_space_group_name_H-M "C C C A"
_symmetry_group_IT_number 68
_space_group.IT_coordinate_system_code '2'
_symmetry_cell_setting 'orthorhombic'
loop_
_space_group_symop_operation_xyz
x,y,z
-x,1/2-y,z
x,1/2-y,1/2-z
-x,y,1/2-z
-x,-y,-z
x,1/2+y,-z
-x,1/2+y,1/2+z
x,-y,1/2+z
1/2+x,1/2+y,z
1/2-x,-y,z
1/2+x,-y,1/2-z
1/2-x,1/2+y,1/2-z
1/2-x,1/2-y,-z
1/2+x,y,-z
1/2-x,y,1/2+z
1/2+x,1/2-y,1/2+z
loop_
_atom_site_type_symbol
_atom_site_label
_atom_site_fract_x
_atom_site_fract_y
_atom_site_fract_z
Si Si1 0.438751 0.260437 0.113632
Si Si2 0.814360 0.714923 0.637215
Si Si3 0.218067 0.403177 0.764813
Si Si4 0.141527 0.087846 0.942515
Si Si5 0.649557 0.121596 0.484698
O O1 0.500000 0.250000 0.082374
O O2 0.433691 0.250000 0.250000
O O3 0.413898 0.362645 0.085081
O O4 0.401801 0.183256 0.049708
O O5 0.845494 0.750000 0.750000
O O6 0.760708 0.671158 0.687489
O O7 0.840361 0.632006 0.562799
O O8 0.812357 0.806941 0.555307
O O9 0.250000 0.500000 0.743134
O O10 0.184713 0.379028 0.651839
O O11 0.176916 0.411416 0.868080
O O12 0.139144 0.974318 0.945427
#
# Coordination Sequence:
#
# PCOD9508982 Si02
#       5
#    16  16  16  16  16
#     4  10  22  44  71  94 122 165 223 282 335 382
#     4  11  26  37  60  91 133 173 217 248 318 381
#     4  12  24  38  59  92 133 179 212 251 311 390
#     4  11  25  43  62  95 133 169 220 269 319 394
#     4  11  24  42  63  94 129 173 212 273 319 386
#
# _framework density 19.193539999999999
#
# number of rings (size 3 to 8) (size 9 to 14) (size 15 to 20)
#    0.000    1.000    4.000    1.800   11.200    0.800 
#    0.000    0.000    0.000    9.600    0.000    0.000 
#    0.000    0.000    0.000    0.000    0.000    0.000 
#
# Total GULP energy -223393.643975 kJ/mol
# GULP energy per Si atom -5584.841099 kJ/mol
# Density = 1.914985 g / cm^3
# Si number density = 19.193540 Si / 1000 Ang^3
#
#
#
# Elastic Constant Matrix: (Units=GPa)
#
#
# Indices 1 2 3 4 5 6 
#
# 1 119.0626 53.1553 34.2222 0.0000 0.0000 0.0000
# 2 53.1553 132.0263 22.4216 0.0000 0.0000 0.0000
# 3 34.2222 22.4216 93.1300 0.0000 0.0000 0.0000
# 4 0.0000 0.0000 0.0000 30.0996 0.0000 0.0000
# 5 0.0000 0.0000 0.0000 0.0000 14.6604 0.0000
# 6 0.0000 0.0000 0.0000 0.0000 0.0000 20.1345
#
#
#
# Elastic Compliance Matrix: (Units=1/GPa)
#
#
# Indices 1 2 3 4 5 6 
#
# 1 0.011043 -0.003917 -0.003115 0.000000 0.000000 0.000000
# 2 -0.003917 0.009287 -0.000796 0.000000 0.000000 0.000000
# 3 -0.003115 -0.000796 0.012074 0.000000 0.000000 0.000000
# 4 0.000000 0.000000 0.000000 0.033223 0.000000 0.000000
# 5 0.000000 0.000000 0.000000 0.000000 0.068211 0.000000
# 6 0.000000 0.000000 0.000000 0.000000 0.000000 0.049666
#
#
# Mechanical properties :
#
#
# Convention : Reuss Voigt Hill
#
# Bulk Modulus (GPa) = 59.71253 62.64636 61.17944
# Shear Modulus (GPa) = 24.42091 28.60688 26.51390
#
# Velocity S-wave (km/s) = 3.57087 3.86481 3.72075
# Velocity P-wave (km/s) = 6.94117 7.25437 7.09949
#
# Compressibility (1/GPa) = 0.01674690
#
# Stress axis : x y z
#
# Youngs Moduli (GPa) = 90.55494 107.68257 82.82234
#
# Poissons Ratio (x) = 0.42180 0.25798
# Poissons Ratio (y) = 0.35471 0.06596
# Poissons Ratio (z) = 0.28207 0.08576
#
# Static dielectric constant tensor:
#      x y z
#    x 1.651140 0.000000 0.000000 
#    y 0.000000 1.695620 0.000000 
#    z 0.000000 0.000000 1.700060 
# 
# From -- ./inp_files/16208.got.cif
#   From: 2010.05.17/outbox.cif.g08.bks.cpg/sg68_9_cif.got.tgz:16208.got - 2010.06.03 18:57:09.
