data_PCOD9508507
_publ_section_title
;
Structure prediction by ZEFSAII (Michael W. Deem and Ramdas Pophale) SiO2 
 PCOD9508507
Probable space group: C C C A
;
_chemical_formula_sum "Si O2"
_cell_formula_units_Z 116
_cell_length_a 31.469338
_cell_length_b 9.329420
_cell_length_c 19.652168
_cell_angle_alpha 90.000000
_cell_angle_beta 90.000000
_cell_angle_gamma 90.000000
_cell_volume 5769.693196
_symmetry_space_group_name_H-M "C C C A"
_symmetry_group_IT_number 68
_space_group.IT_coordinate_system_code '2'
_symmetry_cell_setting 'orthorhombic'
loop_
_space_group_symop_operation_xyz
x,y,z
-x,1/2-y,z
x,1/2-y,1/2-z
-x,y,1/2-z
-x,-y,-z
x,1/2+y,-z
-x,1/2+y,1/2+z
x,-y,1/2+z
1/2+x,1/2+y,z
1/2-x,-y,z
1/2+x,-y,1/2-z
1/2-x,1/2+y,1/2-z
1/2-x,1/2-y,-z
1/2+x,y,-z
1/2-x,y,1/2+z
1/2+x,1/2-y,1/2+z
loop_
_atom_site_type_symbol
_atom_site_label
_atom_site_fract_x
_atom_site_fract_y
_atom_site_fract_z
Si Si1 0.277386 0.854304 0.452990
Si Si2 0.065845 0.566630 0.657787
Si Si3 0.506075 0.924447 0.428528
Si Si4 0.720120 0.133432 0.699250
Si Si5 0.628976 0.080694 0.762003
Si Si6 0.500000 0.750000 0.250000
Si Si7 0.624099 0.679493 0.469627
Si Si8 0.602482 0.978062 0.413496
O O1 0.250000 0.750000 0.500000
O O2 0.282730 0.799861 0.375500
O O3 0.326716 0.869591 0.473376
O O4 0.250000 0.000000 0.452822
O O5 0.096101 0.497086 0.713899
O O6 0.032912 0.666616 0.701036
O O7 0.097965 0.626591 0.598225
O O8 0.029553 0.491319 0.614792
O O9 0.500000 0.750000 0.434089
O O10 0.553104 0.945785 0.399964
O O11 0.500000 0.000000 0.500000
O O12 0.738022 0.250000 0.750000
O O13 0.675655 0.079282 0.730091
O O14 0.750000 0.000000 0.694370
O O15 0.617142 0.250000 0.750000
O O16 0.625614 0.033356 0.840228
O O17 0.620845 0.850458 0.461060
O O18 0.604757 0.619396 0.539802
#
# Coordination Sequence:
#
# PCOD9508507 Si02
#       8
#    16  16  16  16  16   4  16  16
#     4  11  24  42  63  92 123 160 205 256 308 369
#     4  12  19  35  60  87 125 155 204 259 304 352
#     4  12  21  36  56  91 124 156 200 249 306 359
#     4  10  22  39  63  87 120 157 199 252 307 362
#     4  11  19  37  63  87 117 157 211 248 303 357
#     4  12  20  32  64 100 122 148 222 272 298 356
#     4  12  22  40  62  92 126 162 204 253 316 366
#     4  12  23  38  62  95 122 162 202 257 304 372
#
# _framework density 20.105055
#
# number of rings (size 3 to 8) (size 9 to 14) (size 15 to 20)
#    0.000    0.552    6.897    2.483    0.000    1.655 
#    0.000    0.000    0.000    0.000    3.586    0.000 
#    0.000    0.000    0.000    0.000    0.000    0.000 
#
# Total GULP energy -323023.516174 kJ/mol
# GULP energy per Si atom -5569.370969 kJ/mol
# Density = 2.005929 g / cm^3
# Si number density = 20.105055 Si / 1000 Ang^3
#
#
#
# Elastic Constant Matrix: (Units=GPa)
#
#
# Indices 1 2 3 4 5 6 
#
# 1 114.2041 10.3034 28.1529 0.0000 0.0000 0.0000
# 2 10.3034 26.1663 34.2343 0.0000 0.0000 0.0000
# 3 28.1529 34.2343 156.6685 0.0000 0.0000 0.0000
# 4 0.0000 0.0000 0.0000 26.4489 0.0000 0.0000
# 5 0.0000 0.0000 0.0000 0.0000 56.3519 0.0000
# 6 0.0000 0.0000 0.0000 0.0000 0.0000 7.2766
#
#
#
# Elastic Compliance Matrix: (Units=1/GPa)
#
#
# Indices 1 2 3 4 5 6 
#
# 1 0.009240 -0.002053 -0.001212 0.000000 0.000000 0.000000
# 2 -0.002053 0.053973 -0.011425 0.000000 0.000000 0.000000
# 3 -0.001212 -0.011425 0.009097 0.000000 0.000000 0.000000
# 4 0.000000 0.000000 0.000000 0.037809 0.000000 0.000000
# 5 0.000000 0.000000 0.000000 0.000000 0.017746 0.000000
# 6 0.000000 0.000000 0.000000 0.000000 0.000000 0.137426
#
#
# Mechanical properties :
#
#
# Convention : Reuss Voigt Hill
#
# Bulk Modulus (GPa) = 23.29321 49.15781 36.22551
# Shear Modulus (GPa) = 16.18222 32.97205 24.57713
#
# Velocity S-wave (km/s) = 2.84012 4.05407 3.50013
# Velocity P-wave (km/s) = 4.72927 6.81304 5.86445
#
# Compressibility (1/GPa) = 0.04293097
#
# Stress axis : x y z
#
# Youngs Moduli (GPa) = 108.22273 18.52770 109.92407
#
# Poissons Ratio (x) = 0.03804 0.13321
# Poissons Ratio (y) = 0.22218 1.25588
# Poissons Ratio (z) = 0.13115 0.21168
#
# Static dielectric constant tensor:
#      x y z
#    x 1.710850 0.000000 0.000000 
#    y 0.000000 2.152330 0.000000 
#    z 0.000000 0.000000 1.826210 
# 
# From -- ./inp_files/34436.got.cif
#   From: 2010.05.17/outbox.cif.g08.bks.cpg/sg68_18_cif.got.tgz:34436.got - 2010.06.03 18:57:09.
