data_PCOD9508315
_publ_section_title
;
Structure prediction by ZEFSAII (Michael W. Deem and Ramdas Pophale) SiO2 
 PCOD9508315
Probable space group: C C C A
;
_chemical_formula_sum "Si O2"
_cell_formula_units_Z 64
_cell_length_a 5.337137
_cell_length_b 19.687736
_cell_length_c 30.505121
_cell_angle_alpha 90.000000
_cell_angle_beta 90.000000
_cell_angle_gamma 90.000000
_cell_volume 3205.360495
_symmetry_space_group_name_H-M "C C C A"
_symmetry_group_IT_number 68
_space_group.IT_coordinate_system_code '2'
_symmetry_cell_setting 'orthorhombic'
loop_
_space_group_symop_operation_xyz
x,y,z
-x,1/2-y,z
x,1/2-y,1/2-z
-x,y,1/2-z
-x,-y,-z
x,1/2+y,-z
-x,1/2+y,1/2+z
x,-y,1/2+z
1/2+x,1/2+y,z
1/2-x,-y,z
1/2+x,-y,1/2-z
1/2-x,1/2+y,1/2-z
1/2-x,1/2-y,-z
1/2+x,y,-z
1/2-x,y,1/2+z
1/2+x,1/2-y,1/2+z
loop_
_atom_site_type_symbol
_atom_site_label
_atom_site_fract_x
_atom_site_fract_y
_atom_site_fract_z
Si Si1 0.500000 0.250000 0.332214
Si Si2 0.492656 0.832925 0.024584
Si Si3 0.500000 0.457614 0.250000
Si Si4 0.166269 0.854553 0.793691
Si Si5 0.383527 0.673305 0.377737
O O1 0.711092 0.281033 0.301323
O O2 0.600041 0.190301 0.363596
O O3 0.500000 0.750000 0.024548
O O4 0.430124 0.854910 0.074162
O O5 0.763775 0.854279 0.006795
O O6 0.250000 0.500000 0.262993
O O7 0.389737 0.408191 0.212801
O O8 0.000000 0.856712 0.750000
O O9 0.007521 0.866764 0.837613
O O10 0.500000 0.750000 0.378570
#
# Coordination Sequence:
#
# PCOD9508315 Si02
#       5
#     8  16   8  16  16
#     4  10  22  33  56  84 122 152 202 226 291 330
#     4   9  18  29  47  70 106 152 191 226 274 327
#     4  12  26  45  62  81 110 150 198 240 290 344
#     4  11  23  39  57  85 116 158 189 242 282 344
#     4   9  20  32  49  79 114 152 195 235 276 339
#
# _framework density 19.966555
#
# number of rings (size 3 to 8) (size 9 to 14) (size 15 to 20)
#    0.000    2.000    1.250    1.500   12.250   12.000 
#    0.000    0.000    0.000    0.000    0.000    0.000 
#    0.000    6.000    0.000    0.000    0.000    0.000 
#
# Total GULP energy -178405.643257 kJ/mol
# GULP energy per Si atom -5575.176352 kJ/mol
# Density = 1.992111 g / cm^3
# Si number density = 19.966555 Si / 1000 Ang^3
#
#
#
# Elastic Constant Matrix: (Units=GPa)
#
#
# Indices 1 2 3 4 5 6 
#
# 1 127.4240 18.4577 69.7739 0.0000 0.0000 0.0000
# 2 18.4577 19.4557 26.1216 0.0000 0.0000 0.0000
# 3 69.7739 26.1216 169.4388 0.0000 0.0000 0.0000
# 4 0.0000 0.0000 0.0000 0.5595 0.0000 0.0000
# 5 0.0000 0.0000 0.0000 0.0000 24.2310 0.0000
# 6 0.0000 0.0000 0.0000 0.0000 0.0000 34.2958
#
#
#
# Elastic Compliance Matrix: (Units=1/GPa)
#
#
# Indices 1 2 3 4 5 6 
#
# 1 0.010543 -0.005262 -0.003530 0.000000 0.000000 0.000000
# 2 -0.005262 0.067441 -0.008230 0.000000 0.000000 0.000000
# 3 -0.003530 -0.008230 0.008624 0.000000 0.000000 0.000000
# 4 0.000000 0.000000 0.000000 1.787165 0.000000 0.000000
# 5 0.000000 0.000000 0.000000 0.000000 0.041269 0.000000
# 6 0.000000 0.000000 0.000000 0.000000 0.000000 0.029158
#
#
# Mechanical properties :
#
#
# Convention : Reuss Voigt Hill
#
# Bulk Modulus (GPa) = 19.02472 60.55831 39.79152
# Shear Modulus (GPa) = 2.50530 25.28162 13.89346
#
# Velocity S-wave (km/s) = 1.12137 3.56223 2.64073
# Velocity P-wave (km/s) = 3.35046 6.87859 5.41020
#
# Compressibility (1/GPa) = 0.05256320
#
# Stress axis : x y z
#
# Youngs Moduli (GPa) = 94.84765 14.82770 115.95009
#
# Poissons Ratio (x) = 0.07803 0.40934
# Poissons Ratio (y) = 0.49913 0.95428
# Poissons Ratio (z) = 0.33485 0.12203
#
# Static dielectric constant tensor:
#      x y z
#    x 1.833590 0.000000 0.000000 
#    y 0.000000 1.744070 0.000000 
#    z 0.000000 0.000000 1.727450 
# 
# From -- ./inp_files/48125.got.cif
#   From: 2010.05.17/outbox.cif.g08.bks.cpg/sg68_25_cif.got.tgz:48125.got - 2010.06.03 18:57:09.
