data_PCOD9508897
_publ_section_title
;
Structure prediction by ZEFSAII (Michael W. Deem and Ramdas Pophale) SiO2 
 PCOD9508897
Probable space group: C C C A
;
_chemical_formula_sum "Si O2"
_cell_formula_units_Z 88
_cell_length_a 23.669339
_cell_length_b 13.994796
_cell_length_c 11.518943
_cell_angle_alpha 90.000000
_cell_angle_beta 90.000000
_cell_angle_gamma 90.000000
_cell_volume 3815.621886
_symmetry_space_group_name_H-M "C C C A"
_symmetry_group_IT_number 68
_space_group.IT_coordinate_system_code '2'
_symmetry_cell_setting 'orthorhombic'
loop_
_space_group_symop_operation_xyz
x,y,z
-x,1/2-y,z
x,1/2-y,1/2-z
-x,y,1/2-z
-x,-y,-z
x,1/2+y,-z
-x,1/2+y,1/2+z
x,-y,1/2+z
1/2+x,1/2+y,z
1/2-x,-y,z
1/2+x,-y,1/2-z
1/2-x,1/2+y,1/2-z
1/2-x,1/2-y,-z
1/2+x,y,-z
1/2-x,y,1/2+z
1/2+x,1/2-y,1/2+z
loop_
_atom_site_type_symbol
_atom_site_label
_atom_site_fract_x
_atom_site_fract_y
_atom_site_fract_z
Si Si1 0.005942 0.863652 0.116987
Si Si2 0.905901 0.616354 0.552530
Si Si3 0.820625 0.115042 0.642419
Si Si4 0.192594 0.885811 0.888541
Si Si5 0.891852 0.750000 0.750000
Si Si6 0.630945 0.590652 0.614441
O O1 0.000000 0.750000 0.121716
O O2 0.000000 0.901436 0.250000
O O3 0.069310 0.877845 0.073536
O O4 0.958543 0.905765 0.031824
O O5 0.856893 0.652972 0.465585
O O6 0.923917 0.690906 0.650927
O O7 0.877726 0.523985 0.612808
O O8 0.755898 0.146631 0.640409
O O9 0.853951 0.132768 0.760936
O O10 0.816201 0.998912 0.635423
O O11 0.148199 0.824571 0.816845
O O12 0.179053 0.879653 0.024851
#
# Coordination Sequence:
#
# PCOD9508897 Si02
#       6
#    16  16  16  16   8  16
#     4  11  23  43  67  99 137 178 233 286 344 420
#     4  11  24  43  70 101 138 180 230 290 353 411
#     4  10  22  43  68  96 134 191 234 283 336 430
#     4  10  24  40  67  99 140 182 232 282 354 408
#     4  12  24  44  63 108 148 169 230 296 350 410
#     4  11  22  45  72  99 134 188 235 282 348 426
#
# _framework density 23.063082000000001
#
# number of rings (size 3 to 8) (size 9 to 14) (size 15 to 20)
#    0.000    1.273    3.636    1.636    2.545    2.182 
#    3.273    4.091    0.000    0.000    0.000    0.000 
#    0.000    0.000    0.000    0.000    0.000    0.000 
#
# Total GULP energy -246145.182870 kJ/mol
# GULP energy per Si atom -5594.208702 kJ/mol
# Density = 2.301059 g / cm^3
# Si number density = 23.063082 Si / 1000 Ang^3
#
#
#
# Elastic Constant Matrix: (Units=GPa)
#
#
# Indices 1 2 3 4 5 6 
#
# 1 85.8663 -4.8412 26.2926 0.0000 0.0000 0.0000
# 2 -4.8412 50.8490 27.6800 0.0000 0.0000 0.0000
# 3 26.2926 27.6800 122.4958 0.0000 0.0000 0.0000
# 4 0.0000 0.0000 0.0000 20.7435 0.0000 0.0000
# 5 0.0000 0.0000 0.0000 0.0000 -6.1325 0.0000
# 6 0.0000 0.0000 0.0000 0.0000 0.0000 22.8000
#
#
#
# Elastic Compliance Matrix: (Units=1/GPa)
#
#
# Indices 1 2 3 4 5 6 
#
# 1 0.012884 0.003115 -0.003469 0.000000 0.000000 0.000000
# 2 0.003115 0.023178 -0.005906 0.000000 0.000000 0.000000
# 3 -0.003469 -0.005906 0.010243 0.000000 0.000000 0.000000
# 4 0.000000 0.000000 0.000000 0.048208 0.000000 0.000000
# 5 0.000000 0.000000 0.000000 0.000000 -0.163065 0.000000
# 6 0.000000 0.000000 0.000000 0.000000 0.000000 0.043860
#
#
# Mechanical properties :
#
#
# Convention : Reuss Voigt Hill
#
# Bulk Modulus (GPa) = 29.59977 39.71934 34.65955
# Shear Modulus (GPa) = -5484.56882 21.48752 -2731.54065
#
# Velocity S-wave (km/s) = -48.81839 3.05566 -34.45213
# Velocity P-wave (km/s) = 56.25642 5.45058 39.59215
#
# Compressibility (1/GPa) = 0.03378405
#
# Stress axis : x y z
#
# Youngs Moduli (GPa) = 77.61578 43.14501 97.62975
#
# Poissons Ratio (x) = -0.13441 0.33871
# Poissons Ratio (y) = -0.24179 0.57660
# Poissons Ratio (z) = 0.26928 0.25482
#
# Static dielectric constant tensor:
#      x y z
#    x 1.823730 0.000000 0.000000 
#    y 0.000000 1.936660 0.000000 
#    z 0.000000 0.000000 1.860120 
# 
# From -- ./inp_files/15441.got.cif
#   From: 2010.05.17/outbox.cif.g08.bks.cpg/sg68_8_cif.got.tgz:15441.got - 2010.06.03 18:57:09.
