data_PCOD9508801
_publ_section_title
;
Structure prediction by ZEFSAII (Michael W. Deem and Ramdas Pophale) SiO2 
 PCOD9508801
Probable space group: C C C A
;
_chemical_formula_sum "Si O2"
_cell_formula_units_Z 116
_cell_length_a 26.563769
_cell_length_b 9.033139
_cell_length_c 22.467683
_cell_angle_alpha 90.000000
_cell_angle_beta 90.000000
_cell_angle_gamma 90.000000
_cell_volume 5391.215299
_symmetry_space_group_name_H-M "C C C A"
_symmetry_group_IT_number 68
_space_group.IT_coordinate_system_code '2'
_symmetry_cell_setting 'orthorhombic'
loop_
_space_group_symop_operation_xyz
x,y,z
-x,1/2-y,z
x,1/2-y,1/2-z
-x,y,1/2-z
-x,-y,-z
x,1/2+y,-z
-x,1/2+y,1/2+z
x,-y,1/2+z
1/2+x,1/2+y,z
1/2-x,-y,z
1/2+x,-y,1/2-z
1/2-x,1/2+y,1/2-z
1/2-x,1/2-y,-z
1/2+x,y,-z
1/2-x,y,1/2+z
1/2+x,1/2-y,1/2+z
loop_
_atom_site_type_symbol
_atom_site_label
_atom_site_fract_x
_atom_site_fract_y
_atom_site_fract_z
Si Si1 0.423600 0.375272 0.157364
Si Si2 0.800155 0.401592 0.392732
Si Si3 0.665438 0.843948 0.803413
Si Si4 0.500000 0.250000 0.250000
Si Si5 0.620849 0.436046 0.998041
Si Si6 0.052175 0.820846 0.476780
Si Si7 0.134217 0.905555 0.782456
Si Si8 0.300274 0.546187 0.408709
O O1 0.373887 0.270377 0.166107
O O2 0.463787 0.341153 0.207647
O O3 0.446882 0.337907 0.094262
O O4 0.407840 0.544869 0.169888
O O5 0.750000 0.500000 0.402754
O O6 0.843719 0.452936 0.439642
O O7 0.816424 0.417977 0.323694
O O8 0.797067 0.222697 0.399943
O O9 0.691900 0.750000 0.750000
O O10 0.634561 0.969897 0.768313
O O11 0.697652 0.938340 0.850420
O O12 0.602709 0.268884 0.005664
O O13 0.652340 0.495484 0.053357
O O14 0.567031 0.517968 0.999241
O O15 0.000000 0.750000 0.497221
O O16 0.129158 0.750000 0.750000
O O17 0.250000 0.500000 0.443228
#
# Coordination Sequence:
#
# PCOD9508801 Si02
#       8
#    16  16  16   4  16  16  16  16
#     4  11  22  39  73  97 135 178 230 286 348 424
#     4  12  28  44  68 104 141 191 241 287 363 430
#     4  10  22  42  67  97 132 180 225 284 350 415
#     4  12  20  40  70 108 120 176 246 280 338 432
#     4  12  26  47  72  99 147 185 235 308 358 415
#     4  12  25  44  73 106 134 185 240 296 360 425
#     4  11  22  43  66  94 140 183 219 287 360 413
#     4  12  27  44  70 104 140 187 242 294 351 433
#
# _framework density 21.516484999999999
#
# number of rings (size 3 to 8) (size 9 to 14) (size 15 to 20)
#    0.000    0.552    8.276    0.828    5.793    1.655 
#    0.000    0.345    0.000    0.000    0.000    0.000 
#    0.000    0.000    0.000    0.000    0.000    0.000 
#
# Total GULP energy -323460.178252 kJ/mol
# GULP energy per Si atom -5576.899625 kJ/mol
# Density = 2.146751 g / cm^3
# Si number density = 21.516485 Si / 1000 Ang^3
#
#
#
# Elastic Constant Matrix: (Units=GPa)
#
#
# Indices 1 2 3 4 5 6 
#
# 1 95.5257 27.7580 21.1446 0.0000 0.0000 0.0000
# 2 27.7580 108.6411 9.6896 0.0000 0.0000 0.0000
# 3 21.1446 9.6896 53.4261 0.0000 0.0000 0.0000
# 4 0.0000 0.0000 0.0000 13.0029 0.0000 0.0000
# 5 0.0000 0.0000 0.0000 0.0000 13.6762 0.0000
# 6 0.0000 0.0000 0.0000 0.0000 0.0000 20.0336
#
#
#
# Elastic Compliance Matrix: (Units=1/GPa)
#
#
# Indices 1 2 3 4 5 6 
#
# 1 0.012225 -0.002736 -0.004342 0.000000 0.000000 0.000000
# 2 -0.002736 0.009968 -0.000725 0.000000 0.000000 0.000000
# 3 -0.004342 -0.000725 0.020567 0.000000 0.000000 0.000000
# 4 0.000000 0.000000 0.000000 0.076906 0.000000 0.000000
# 5 0.000000 0.000000 0.000000 0.000000 0.073119 0.000000
# 6 0.000000 0.000000 0.000000 0.000000 0.000000 0.049916
#
#
# Mechanical properties :
#
#
# Convention : Reuss Voigt Hill
#
# Bulk Modulus (GPa) = 36.82682 41.64193 39.23437
# Shear Modulus (GPa) = 18.70142 22.60926 20.65534
#
# Velocity S-wave (km/s) = 2.95136 3.24510 3.10171
# Velocity P-wave (km/s) = 5.36347 5.78242 5.57688
#
# Compressibility (1/GPa) = 0.02715412
#
# Stress axis : x y z
#
# Youngs Moduli (GPa) = 81.80273 100.31726 48.62075
#
# Poissons Ratio (x) = 0.27448 0.21111
# Poissons Ratio (y) = 0.22382 0.03525
# Poissons Ratio (z) = 0.35518 0.07273
#
# Static dielectric constant tensor:
#      x y z
#    x 1.825230 0.000000 0.000000 
#    y 0.000000 1.797340 0.000000 
#    z 0.000000 0.000000 1.813960 
# 
# From -- ./inp_files/47327.got.cif
#   From: 2010.05.17/outbox.cif.g08.bks.cpg/sg68_24_cif.got.tgz:47327.got - 2010.06.03 18:57:09.
