data_PCOD9508079
_publ_section_title
;
Structure prediction by ZEFSAII (Michael W. Deem and Ramdas Pophale) SiO2 
 PCOD9508079
Probable space group: C C C A
;
_chemical_formula_sum "Si O2"
_cell_formula_units_Z 108
_cell_length_a 26.429660
_cell_length_b 30.992620
_cell_length_c 5.587527
_cell_angle_alpha 90.000000
_cell_angle_beta 90.000000
_cell_angle_gamma 90.000000
_cell_volume 4576.879752
_symmetry_space_group_name_H-M "C C C A"
_symmetry_group_IT_number 68
_space_group.IT_coordinate_system_code '2'
_symmetry_cell_setting 'orthorhombic'
loop_
_space_group_symop_operation_xyz
x,y,z
-x,1/2-y,z
x,1/2-y,1/2-z
-x,y,1/2-z
-x,-y,-z
x,1/2+y,-z
-x,1/2+y,1/2+z
x,-y,1/2+z
1/2+x,1/2+y,z
1/2-x,-y,z
1/2+x,-y,1/2-z
1/2-x,1/2+y,1/2-z
1/2-x,1/2-y,-z
1/2+x,y,-z
1/2-x,y,1/2+z
1/2+x,1/2-y,1/2+z
loop_
_atom_site_type_symbol
_atom_site_label
_atom_site_fract_x
_atom_site_fract_y
_atom_site_fract_z
Si Si1 0.219732 0.386392 0.245942
Si Si2 0.000000 0.750000 0.750000
Si Si3 0.567549 0.014668 0.362796
Si Si4 0.561030 0.883380 0.805527
Si Si5 0.418488 0.694722 0.088410
Si Si6 0.642126 0.172423 0.996757
Si Si7 0.181723 0.018637 0.144830
Si Si8 0.654155 0.750000 0.750000
O O1 0.242428 0.381814 0.977639
O O2 0.175649 0.352640 0.303521
O O3 0.195651 0.433700 0.273321
O O4 0.029551 0.781115 0.926214
O O5 0.571571 0.066148 0.335081
O O6 0.544652 0.003323 0.618737
O O7 0.622235 0.991077 0.371862
O O8 0.500000 0.878634 0.750000
O O9 0.605928 0.861819 0.638814
O O10 0.571382 0.855364 0.041553
O O11 0.398934 0.700469 0.355676
O O12 0.379924 0.718056 0.912303
O O13 0.678999 0.210020 0.106949
O O14 0.199388 0.011271 0.869427
#
# Coordination Sequence:
#
# PCOD9508079 Si02
#       8
#    16   4  16  16  16  16  16   8
#     4  12  29  47  75 111 144 187 252 318 379 451
#     4  12  20  42  64 114 138 188 242 302 352 444
#     4  10  23  43  68  98 141 198 246 298 359 432
#     4  11  26  42  70 110 147 203 254 301 373 449
#     4  11  24  39  71 100 151 188 239 301 369 439
#     4  11  24  47  72 103 148 196 240 310 381 450
#     4  10  21  40  69 100 138 186 232 302 371 434
#     4  10  22  43  68 101 134 196 237 286 373 450
#
# _framework density 23.596862999999999
#
# number of rings (size 3 to 8) (size 9 to 14) (size 15 to 20)
#    0.000    1.185    1.481    3.556   12.444    2.370 
#    0.000    0.741    0.000    0.000    0.000    0.000 
#    0.000    0.000    0.000    0.000    0.000    0.000 
#
# Total GULP energy -300792.541560 kJ/mol
# GULP energy per Si atom -5570.232251 kJ/mol
# Density = 2.354316 g / cm^3
# Si number density = 23.596863 Si / 1000 Ang^3
#
#
#
# Elastic Constant Matrix: (Units=GPa)
#
#
# Indices 1 2 3 4 5 6 
#
# 1 75.6158 0.8644 -0.7760 0.0000 0.0000 0.0000
# 2 0.8644 140.7944 16.4904 0.0000 0.0000 0.0000
# 3 -0.7760 16.4904 91.8491 0.0000 0.0000 0.0000
# 4 0.0000 0.0000 0.0000 39.9737 0.0000 0.0000
# 5 0.0000 0.0000 0.0000 0.0000 102.2047 0.0000
# 6 0.0000 0.0000 0.0000 0.0000 0.0000 39.5678
#
#
#
# Elastic Compliance Matrix: (Units=1/GPa)
#
#
# Indices 1 2 3 4 5 6 
#
# 1 0.013227 -0.000096 0.000129 0.000000 0.000000 0.000000
# 2 -0.000096 0.007256 -0.001304 0.000000 0.000000 0.000000
# 3 0.000129 -0.001304 0.011123 0.000000 0.000000 0.000000
# 4 0.000000 0.000000 0.000000 0.025016 0.000000 0.000000
# 5 0.000000 0.000000 0.000000 0.000000 0.009784 0.000000
# 6 0.000000 0.000000 0.000000 0.000000 0.000000 0.025273
#
#
# Mechanical properties :
#
#
# Convention : Reuss Voigt Hill
#
# Bulk Modulus (GPa) = 34.40688 37.93521 36.17105
# Shear Modulus (GPa) = 48.11907 55.79461 51.95684
#
# Velocity S-wave (km/s) = 4.52067 4.86788 4.69748
# Velocity P-wave (km/s) = 6.47003 6.90697 6.69207
#
# Compressibility (1/GPa) = 0.02906396
#
# Stress axis : x y z
#
# Youngs Moduli (GPa) = 75.60198 137.82040 89.90747
#
# Poissons Ratio (x) = 0.01327 -0.01160
# Poissons Ratio (y) = 0.00728 0.11720
# Poissons Ratio (z) = -0.00976 0.17965
#
# Static dielectric constant tensor:
#      x y z
#    x 1.544630 0.000000 0.000000 
#    y 0.000000 1.839440 0.000000 
#    z 0.000000 0.000000 1.973060 
# 
# From -- ./inp_files/2976.got.cif
#   From: 2010.05.17/outbox.cif.g08.bks.cpg/sg68_2_cif.got.tgz:2976.got - 2010.06.03 18:57:09.
