data_PCOD9508254
_publ_section_title
;
Structure prediction by ZEFSAII (Michael W. Deem and Ramdas Pophale) SiO2 
 PCOD9508254
Probable space group: C C C A
;
_chemical_formula_sum "Si O2"
_cell_formula_units_Z 68
_cell_length_a 28.441460
_cell_length_b 5.160590
_cell_length_c 20.949119
_cell_angle_alpha 90.000000
_cell_angle_beta 90.000000
_cell_angle_gamma 90.000000
_cell_volume 3074.800951
_symmetry_space_group_name_H-M "C C C A"
_symmetry_group_IT_number 68
_space_group.IT_coordinate_system_code '2'
_symmetry_cell_setting 'orthorhombic'
loop_
_space_group_symop_operation_xyz
x,y,z
-x,1/2-y,z
x,1/2-y,1/2-z
-x,y,1/2-z
-x,-y,-z
x,1/2+y,-z
-x,1/2+y,1/2+z
x,-y,1/2+z
1/2+x,1/2+y,z
1/2-x,-y,z
1/2+x,-y,1/2-z
1/2-x,1/2+y,1/2-z
1/2-x,1/2-y,-z
1/2+x,y,-z
1/2-x,y,1/2+z
1/2+x,1/2-y,1/2+z
loop_
_atom_site_type_symbol
_atom_site_label
_atom_site_fract_x
_atom_site_fract_y
_atom_site_fract_z
Si Si1 0.500000 0.750000 0.544067
Si Si2 0.283021 0.250000 0.750000
Si Si3 0.881152 0.254332 0.457041
Si Si4 0.716551 0.250072 0.608838
Si Si5 0.955115 0.938687 0.860825
Si Si6 0.000000 0.750000 0.250000
O O1 0.500000 0.500000 0.500000
O O2 0.541266 0.691061 0.593742
O O3 0.250000 0.500000 0.750107
O O4 0.306336 0.250598 0.680511
O O5 0.891450 0.519822 0.494089
O O6 0.826150 0.248443 0.439816
O O7 0.910920 0.210254 0.391627
O O8 0.750000 0.500000 0.602600
O O9 0.750000 0.000000 0.602311
O O10 0.000000 0.750000 0.870919
O O11 0.965534 0.063428 0.791610
#
# Coordination Sequence:
#
# PCOD9508254 Si02
#       6
#     8   8  16  16  16   4
#     4  11  20  35  66  95 124 175 220 274 344 399
#     4   8  16  34  63  90 117 166 225 271 336 400
#     4  12  28  43  68 107 139 185 242 280 349 426
#     4  10  21  43  68  97 140 184 232 291 349 409
#     4  11  25  46  70  99 141 181 234 294 358 433
#     4  10  26  48  74 102 140 184 236 298 388 428
#
# _framework density 22.115254
#
# number of rings (size 3 to 8) (size 9 to 14) (size 15 to 20)
#    0.000    1.412    1.176    3.176    6.588    2.824 
#    4.235    4.706    0.000    0.000    0.000    0.000 
#    0.000    0.000    0.000    0.000    0.000    0.000 
#
# Total GULP energy -189572.890362 kJ/mol
# GULP energy per Si atom -5575.673246 kJ/mol
# Density = 2.206492 g / cm^3
# Si number density = 22.115254 Si / 1000 Ang^3
#
#
#
# Elastic Constant Matrix: (Units=GPa)
#
#
# Indices 1 2 3 4 5 6 
#
# 1 116.0831 39.8438 46.9337 0.0000 0.0000 0.0000
# 2 39.8438 174.7750 52.2066 0.0000 0.0000 0.0000
# 3 46.9337 52.2066 120.6568 0.0000 0.0000 0.0000
# 4 0.0000 0.0000 0.0000 39.2118 0.0000 0.0000
# 5 0.0000 0.0000 0.0000 0.0000 41.5741 0.0000
# 6 0.0000 0.0000 0.0000 0.0000 0.0000 23.5460
#
#
#
# Elastic Compliance Matrix: (Units=1/GPa)
#
#
# Indices 1 2 3 4 5 6 
#
# 1 0.010491 -0.001347 -0.003498 0.000000 0.000000 0.000000
# 2 -0.001347 0.006744 -0.002394 0.000000 0.000000 0.000000
# 3 -0.003498 -0.002394 0.010685 0.000000 0.000000 0.000000
# 4 0.000000 0.000000 0.000000 0.025503 0.000000 0.000000
# 5 0.000000 0.000000 0.000000 0.000000 0.024053 0.000000
# 6 0.000000 0.000000 0.000000 0.000000 0.000000 0.042470
#
#
# Mechanical properties :
#
#
# Convention : Reuss Voigt Hill
#
# Bulk Modulus (GPa) = 74.39644 76.60921 75.50283
# Shear Modulus (GPa) = 35.99609 39.03511 37.51560
#
# Velocity S-wave (km/s) = 4.03880 4.20584 4.12317
# Velocity P-wave (km/s) = 7.44732 7.63554 7.54202
#
# Compressibility (1/GPa) = 0.01344150
#
# Stress axis : x y z
#
# Youngs Moduli (GPa) = 95.31868 148.28449 93.59269
#
# Poissons Ratio (x) = 0.19970 0.32740
# Poissons Ratio (y) = 0.12837 0.22407
# Poissons Ratio (z) = 0.33344 0.35501
#
# Static dielectric constant tensor:
#      x y z
#    x 1.841650 0.000000 0.000000 
#    y 0.000000 1.833530 0.000000 
#    z 0.000000 0.000000 1.907240 
# 
# From -- ./inp_files/41108.got.cif
#   From: 2010.05.17/outbox.cif.g08.bks.cpg/sg68_21_cif.got.tgz:41108.got - 2010.06.03 18:57:09.
