data_PCOD9508128
_publ_section_title
;
Structure prediction by ZEFSAII (Michael W. Deem and Ramdas Pophale) SiO2 
 PCOD9508128
Probable space group: C C C A
;
_chemical_formula_sum "Si O2"
_cell_formula_units_Z 68
_cell_length_a 5.721209
_cell_length_b 20.134367
_cell_length_c 28.642016
_cell_angle_alpha 90.000000
_cell_angle_beta 90.000000
_cell_angle_gamma 90.000000
_cell_volume 3299.357506
_symmetry_space_group_name_H-M "C C C A"
_symmetry_group_IT_number 68
_space_group.IT_coordinate_system_code '2'
_symmetry_cell_setting 'orthorhombic'
loop_
_space_group_symop_operation_xyz
x,y,z
-x,1/2-y,z
x,1/2-y,1/2-z
-x,y,1/2-z
-x,-y,-z
x,1/2+y,-z
-x,1/2+y,1/2+z
x,-y,1/2+z
1/2+x,1/2+y,z
1/2-x,-y,z
1/2+x,-y,1/2-z
1/2-x,1/2+y,1/2-z
1/2-x,1/2-y,-z
1/2+x,y,-z
1/2-x,y,1/2+z
1/2+x,1/2-y,1/2+z
loop_
_atom_site_type_symbol
_atom_site_label
_atom_site_fract_x
_atom_site_fract_y
_atom_site_fract_z
Si Si1 0.850043 0.816066 0.179413
Si Si2 0.500000 0.250000 0.750000
Si Si3 0.466609 0.629402 0.096704
Si Si4 0.640091 0.935159 0.836688
Si Si5 0.500000 0.250000 0.972805
Si Si6 0.250000 0.000000 0.903428
O O1 0.661507 0.796053 0.217896
O O2 0.719108 0.838231 0.132419
O O3 0.000000 0.750000 0.171072
O O4 0.014455 0.878018 0.192728
O O5 0.675902 0.603335 0.129933
O O6 0.522760 0.685152 0.059655
O O7 0.361163 0.563640 0.071912
O O8 0.449106 0.969132 0.870350
O O9 0.750000 0.000000 0.811710
O O10 0.250000 0.250000 0.000000
#
# Coordination Sequence:
#
# PCOD9508128 Si02
#       6
#    16   4  16  16   8   8
#     4  11  22  37  64  95 126 163 217 274 320 399
#     4  12  24  36  52 106 124 172 202 274 334 390
#     4  10  21  41  65  93 124 167 220 264 332 386
#     4   9  18  36  65  98 116 163 216 267 323 391
#     4  12  29  42  62  97 142 177 214 278 339 402
#     4   8  18  34  68  92 116 158 220 266 308 398
#
# _framework density 20.610074000000001
#
# number of rings (size 3 to 8) (size 9 to 14) (size 15 to 20)
#    0.000    1.882    0.000    3.882    8.235    0.000 
#    0.000    1.176    0.000    0.000  492.471    0.000 
#    0.000    0.000    0.000    0.000    0.000    0.000 
#
# Total GULP energy -189678.113346 kJ/mol
# GULP energy per Si atom -5578.768040 kJ/mol
# Density = 2.056316 g / cm^3
# Si number density = 20.610074 Si / 1000 Ang^3
#
#
#
# Elastic Constant Matrix: (Units=GPa)
#
#
# Indices 1 2 3 4 5 6 
#
# 1 124.6253 84.1174 41.7158 0.0000 0.0000 0.0000
# 2 84.1174 223.6542 66.0761 0.0000 0.0000 0.0000
# 3 41.7158 66.0761 65.1873 0.0000 0.0000 0.0000
# 4 0.0000 0.0000 0.0000 -13.1926 0.0000 0.0000
# 5 0.0000 0.0000 0.0000 0.0000 7.3138 0.0000
# 6 0.0000 0.0000 0.0000 0.0000 0.0000 33.7900
#
#
#
# Elastic Compliance Matrix: (Units=1/GPa)
#
#
# Indices 1 2 3 4 5 6 
#
# 1 0.011526 -0.003077 -0.004257 0.000000 0.000000 0.000000
# 2 -0.003077 0.007204 -0.005333 0.000000 0.000000 0.000000
# 3 -0.004257 -0.005333 0.023470 0.000000 0.000000 0.000000
# 4 0.000000 0.000000 0.000000 -0.075800 0.000000 0.000000
# 5 0.000000 0.000000 0.000000 0.000000 0.136728 0.000000
# 6 0.000000 0.000000 0.000000 0.000000 0.000000 0.029595
#
#
# Mechanical properties :
#
#
# Convention : Reuss Voigt Hill
#
# Bulk Modulus (GPa) = 59.28996 88.58728 73.93862
# Shear Modulus (GPa) = 30.54755 20.35274 25.45014
#
# Velocity S-wave (km/s) = 3.85407 3.14588 3.51784
# Velocity P-wave (km/s) = 6.97388 7.50142 7.24245
#
# Compressibility (1/GPa) = 0.01686626
#
# Stress axis : x y z
#
# Youngs Moduli (GPa) = 86.76036 138.80729 42.60731
#
# Poissons Ratio (x) = 0.42717 0.18136
# Poissons Ratio (y) = 0.26700 0.22723
# Poissons Ratio (z) = 0.36930 0.74027
#
# Static dielectric constant tensor:
#      x y z
#    x 1.803890 0.000000 0.000000 
#    y 0.000000 1.750180 0.000000 
#    z 0.000000 0.000000 1.670330 
# 
# From -- ./inp_files/48212.got.cif
#   From: 2010.05.17/outbox.cif.g08.bks.cpg/sg68_25_cif.got.tgz:48212.got - 2010.06.03 18:57:09.
