data_PCOD9508376
_publ_section_title
;
Structure prediction by ZEFSAII (Michael W. Deem and Ramdas Pophale) SiO2 
 PCOD9508376
Probable space group: C C C A
;
_chemical_formula_sum "Si O2"
_cell_formula_units_Z 96
_cell_length_a 22.503784
_cell_length_b 9.798313
_cell_length_c 23.299030
_cell_angle_alpha 90.000000
_cell_angle_beta 90.000000
_cell_angle_gamma 90.000000
_cell_volume 5137.415596
_symmetry_space_group_name_H-M "C C C A"
_symmetry_group_IT_number 68
_space_group.IT_coordinate_system_code '2'
_symmetry_cell_setting 'orthorhombic'
loop_
_space_group_symop_operation_xyz
x,y,z
-x,1/2-y,z
x,1/2-y,1/2-z
-x,y,1/2-z
-x,-y,-z
x,1/2+y,-z
-x,1/2+y,1/2+z
x,-y,1/2+z
1/2+x,1/2+y,z
1/2-x,-y,z
1/2+x,-y,1/2-z
1/2-x,1/2+y,1/2-z
1/2-x,1/2-y,-z
1/2+x,y,-z
1/2-x,y,1/2+z
1/2+x,1/2-y,1/2+z
loop_
_atom_site_type_symbol
_atom_site_label
_atom_site_fract_x
_atom_site_fract_y
_atom_site_fract_z
Si Si1 0.621289 0.933011 0.588428
Si Si2 0.700483 0.675949 0.617976
Si Si3 0.630152 0.971924 0.451223
Si Si4 0.176883 0.750000 0.750000
Si Si5 0.163951 0.274374 0.124012
Si Si6 0.250000 0.500000 0.282819
Si Si7 0.493727 0.908169 0.556296
O O1 0.653782 0.799788 0.613595
O O2 0.628888 0.943351 0.519086
O O3 0.549877 0.934707 0.597409
O O4 0.649949 0.069501 0.612780
O O5 0.684578 0.569552 0.567318
O O6 0.766227 0.740522 0.615950
O O7 0.704389 0.581445 0.675151
O O8 0.632249 0.826337 0.420300
O O9 0.572865 0.053106 0.426341
O O10 0.145181 0.738501 0.810905
O O11 0.217453 0.885243 0.753779
O O12 0.500000 0.750000 0.540473
O O13 0.500000 0.000000 0.500000
#
# Coordination Sequence:
#
# PCOD9508376 Si02
#       7
#    16  16  16   8  16   8  16
#     4  11  24  35  60  88 121 159 199 242 298 361
#     4  11  20  39  53  88 120 150 193 242 303 347
#     4  11  21  39  59  84 126 158 198 245 295 358
#     4  10  22  40  60  85 118 157 208 240 288 358
#     4  11  24  38  59  93 118 159 199 242 303 356
#     4  10  22  38  60  82 116 154 198 250 288 356
#     4  10  22  37  58  83 116 163 208 241 288 353
#
# _framework density 18.686439
#
# number of rings (size 3 to 8) (size 9 to 14) (size 15 to 20)
#    0.000    1.333    5.000    1.500   11.667    4.000 
#    0.000    0.000    0.000    2.000    0.000    1.167 
#    0.000    0.000    0.000    0.000    0.000    0.000 
#
# Total GULP energy -267615.833455 kJ/mol
# GULP energy per Si atom -5575.329864 kJ/mol
# Density = 1.864391 g / cm^3
# Si number density = 18.686439 Si / 1000 Ang^3
#
#
#
# Elastic Constant Matrix: (Units=GPa)
#
#
# Indices 1 2 3 4 5 6 
#
# 1 81.3331 24.6103 7.0839 0.0000 0.0000 0.0000
# 2 24.6103 127.9118 4.9272 0.0000 0.0000 0.0000
# 3 7.0839 4.9272 59.1184 0.0000 0.0000 0.0000
# 4 0.0000 0.0000 0.0000 -82.7992 0.0000 0.0000
# 5 0.0000 0.0000 0.0000 0.0000 15.0708 0.0000
# 6 0.0000 0.0000 0.0000 0.0000 0.0000 33.4430
#
#
#
# Elastic Compliance Matrix: (Units=1/GPa)
#
#
# Indices 1 2 3 4 5 6 
#
# 1 0.013165 -0.002480 -0.001371 0.000000 0.000000 0.000000
# 2 -0.002480 0.008310 -0.000395 0.000000 0.000000 0.000000
# 3 -0.001371 -0.000395 0.017112 0.000000 0.000000 0.000000
# 4 0.000000 0.000000 0.000000 -0.012077 0.000000 0.000000
# 5 0.000000 0.000000 0.000000 0.000000 0.066353 0.000000
# 6 0.000000 0.000000 0.000000 0.000000 0.000000 0.029902
#
#
# Mechanical properties :
#
#
# Convention : Reuss Voigt Hill
#
# Bulk Modulus (GPa) = 33.22814 37.95621 35.59218
# Shear Modulus (GPa) = 35.38832 8.59239 21.99036
#
# Velocity S-wave (km/s) = 4.35650 2.14667 3.43419
# Velocity P-wave (km/s) = 6.56704 5.14786 5.90028
#
# Compressibility (1/GPa) = 0.03009497
#
# Stress axis : x y z
#
# Youngs Moduli (GPa) = 75.95915 120.33259 58.43705
#
# Poissons Ratio (x) = 0.29844 0.08010
# Poissons Ratio (y) = 0.18839 0.02311
# Poissons Ratio (z) = 0.10412 0.04758
#
# Static dielectric constant tensor:
#      x y z
#    x 1.559530 0.000000 0.000000 
#    y 0.000000 1.619940 0.000000 
#    z 0.000000 0.000000 1.642750 
# 
# From -- ./inp_files/46960.got.cif
#   From: 2010.05.17/outbox.cif.g08.bks.cpg/sg68_24_cif.got.tgz:46960.got - 2010.06.03 18:57:09.
