data_PCOD9508681
_publ_section_title
;
Structure prediction by ZEFSAII (Michael W. Deem and Ramdas Pophale) SiO2 
 PCOD9508681
Probable space group: C C C A
;
_chemical_formula_sum "Si O2"
_cell_formula_units_Z 104
_cell_length_a 8.324754
_cell_length_b 24.591363
_cell_length_c 23.050376
_cell_angle_alpha 90.000000
_cell_angle_beta 90.000000
_cell_angle_gamma 90.000000
_cell_volume 4718.804918
_symmetry_space_group_name_H-M "C C C A"
_symmetry_group_IT_number 68
_space_group.IT_coordinate_system_code '2'
_symmetry_cell_setting 'orthorhombic'
loop_
_space_group_symop_operation_xyz
x,y,z
-x,1/2-y,z
x,1/2-y,1/2-z
-x,y,1/2-z
-x,-y,-z
x,1/2+y,-z
-x,1/2+y,1/2+z
x,-y,1/2+z
1/2+x,1/2+y,z
1/2-x,-y,z
1/2+x,-y,1/2-z
1/2-x,1/2+y,1/2-z
1/2-x,1/2-y,-z
1/2+x,y,-z
1/2-x,y,1/2+z
1/2+x,1/2-y,1/2+z
loop_
_atom_site_type_symbol
_atom_site_label
_atom_site_fract_x
_atom_site_fract_y
_atom_site_fract_z
Si Si1 0.339183 0.165199 0.363715
Si Si2 0.250000 0.000000 0.884926
Si Si3 0.577387 0.906751 0.537975
Si Si4 0.322992 0.616715 0.815144
Si Si5 0.680559 0.264750 0.682261
Si Si6 0.151652 0.915282 0.792311
Si Si7 0.232749 0.063607 0.072127
O O1 0.346398 0.145198 0.430029
O O2 0.499361 0.137819 0.334456
O O3 0.310702 0.228557 0.352444
O O4 0.187614 0.137502 0.331273
O O5 0.349212 0.958737 0.926115
O O6 0.148154 0.963698 0.839324
O O7 0.389852 0.906508 0.548624
O O8 0.596284 0.914400 0.469605
O O9 0.219873 0.671850 0.818922
O O10 0.300851 0.586988 0.753476
O O11 0.240222 0.576543 0.860838
O O12 0.500000 0.250000 0.663076
O O13 0.695628 0.250000 0.750000
O O14 0.000000 0.913614 0.750000
O O15 0.250000 0.000000 0.062327
#
# Coordination Sequence:
#
# PCOD9508681 Si02
#       7
#    16   8  16  16  16  16  16
#     4  10  22  41  62  88 126 159 201 254 301 369
#     4  10  24  38  58  84 126 162 206 252 302 352
#     4  10  23  42  62  89 117 163 206 249 306 356
#     4  11  24  38  62  94 123 163 204 244 313 359
#     4  11  22  39  62  93 123 161 203 250 299 360
#     4  11  23  36  58  87 124 163 204 249 300 364
#     4  11  24  40  65  90 123 159 205 253 298 367
#
# _framework density 22.039477999999999
#
# number of rings (size 3 to 8) (size 9 to 14) (size 15 to 20)
#    0.000    1.385    2.308    2.308    3.231    5.538 
#    0.000    0.769    0.000    0.000    0.000    0.000 
#    0.000    0.000    0.000    0.000    0.000    0.000 
#
# Total GULP energy -290286.947169 kJ/mol
# GULP energy per Si atom -5582.441292 kJ/mol
# Density = 2.198932 g / cm^3
# Si number density = 22.039478 Si / 1000 Ang^3
#
#
#
# Elastic Constant Matrix: (Units=GPa)
#
#
# Indices 1 2 3 4 5 6 
#
# 1 47.6357 1.8886 -9.7529 0.0000 0.0000 0.0000
# 2 1.8886 28.4673 1.6352 0.0000 0.0000 0.0000
# 3 -9.7529 1.6352 62.4203 0.0000 0.0000 0.0000
# 4 0.0000 0.0000 0.0000 59.4078 0.0000 0.0000
# 5 0.0000 0.0000 0.0000 0.0000 -128.8854 0.0000
# 6 0.0000 0.0000 0.0000 0.0000 0.0000 27.4275
#
#
#
# Elastic Compliance Matrix: (Units=1/GPa)
#
#
# Indices 1 2 3 4 5 6 
#
# 1 0.021763 -0.001642 0.003443 0.000000 0.000000 0.000000
# 2 -0.001642 0.035305 -0.001181 0.000000 0.000000 0.000000
# 3 0.003443 -0.001181 0.016589 0.000000 0.000000 0.000000
# 4 0.000000 0.000000 0.000000 0.016833 0.000000 0.000000
# 5 0.000000 0.000000 0.000000 0.000000 -0.007759 0.000000
# 6 0.000000 0.000000 0.000000 0.000000 0.000000 0.036460
#
#
# Mechanical properties :
#
#
# Convention : Reuss Voigt Hill
#
# Bulk Modulus (GPa) = 13.35156 14.00724 13.67940
# Shear Modulus (GPa) = 34.98565 1.24015 18.11290
#
# Velocity S-wave (km/s) = 3.98855 0.75094 2.86988
# Velocity P-wave (km/s) = 5.22327 2.66856 4.14752
#
# Compressibility (1/GPa) = 0.07489759
#
# Stress axis : x y z
#
# Youngs Moduli (GPa) = 45.95016 28.32479 60.27952
#
# Poissons Ratio (x) = 0.04650 -0.20756
# Poissons Ratio (y) = 0.07543 0.07121
# Poissons Ratio (z) = -0.15822 0.03346
#
# Static dielectric constant tensor:
#      x y z
#    x 1.884620 0.000000 0.000000 
#    y 0.000000 1.668890 0.000000 
#    z 0.000000 0.000000 1.676270 
# 
# From -- ./inp_files/36550.got.cif
#   From: 2010.05.17/outbox.cif.g08.bks.cpg/sg68_19_cif.got.tgz:36550.got - 2010.06.03 18:57:09.
