data_PCOD9508967
_publ_section_title
;
Structure prediction by ZEFSAII (Michael W. Deem and Ramdas Pophale) SiO2 
 PCOD9508967
Probable space group: C C C A
;
_chemical_formula_sum "Si O2"
_cell_formula_units_Z 104
_cell_length_a 18.613891
_cell_length_b 26.895154
_cell_length_c 9.486021
_cell_angle_alpha 90.000000
_cell_angle_beta 90.000000
_cell_angle_gamma 90.000000
_cell_volume 4748.924702
_symmetry_space_group_name_H-M "C C C A"
_symmetry_group_IT_number 68
_space_group.IT_coordinate_system_code '2'
_symmetry_cell_setting 'orthorhombic'
loop_
_space_group_symop_operation_xyz
x,y,z
-x,1/2-y,z
x,1/2-y,1/2-z
-x,y,1/2-z
-x,-y,-z
x,1/2+y,-z
-x,1/2+y,1/2+z
x,-y,1/2+z
1/2+x,1/2+y,z
1/2-x,-y,z
1/2+x,-y,1/2-z
1/2-x,1/2+y,1/2-z
1/2-x,1/2-y,-z
1/2+x,y,-z
1/2-x,y,1/2+z
1/2+x,1/2-y,1/2+z
loop_
_atom_site_type_symbol
_atom_site_label
_atom_site_fract_x
_atom_site_fract_y
_atom_site_fract_z
Si Si1 0.201564 0.705459 0.140808
Si Si2 0.250000 0.500000 0.926540
Si Si3 0.644956 0.224278 0.601239
Si Si4 0.481269 0.349708 0.585225
Si Si5 0.158926 0.035131 0.831963
Si Si6 0.041567 0.461752 0.102231
Si Si7 0.074127 0.635319 0.164363
O O1 0.209447 0.750000 0.250000
O O2 0.283850 0.689202 0.114438
O O3 0.144910 0.666551 0.202754
O O4 0.169149 0.731933 0.003086
O O5 0.197706 0.471251 0.817708
O O6 0.211652 0.538743 0.033444
O O7 0.627194 0.250000 0.750000
O O8 0.577261 0.192131 0.551307
O O9 0.500000 0.346701 0.750000
O O10 0.453697 0.405400 0.549482
O O11 0.552454 0.346867 0.491968
O O12 0.100147 0.078499 0.830913
O O13 0.118814 0.983726 0.864724
O O14 0.000000 0.460502 0.250000
O O15 0.000000 0.500000 0.000000
O O16 0.000000 0.642754 0.250000
#
# Coordination Sequence:
#
# PCOD9508967 Si02
#       7
#    16   8  16  16  16  16  16
#     4  10  23  45  65  94 132 181 222 284 339 404
#     4  10  26  44  68  96 136 182 230 280 334 394
#     4  10  22  44  69  94 131 176 228 279 345 403
#     4  11  25  40  67 106 128 181 222 280 345 404
#     4  11  24  46  65 100 134 179 224 281 333 401
#     4  11  22  40  66  92 135 172 217 268 335 405
#     4  12  26  43  67 104 137 176 228 276 349 407
#
# _framework density 21.899694
#
# number of rings (size 3 to 8) (size 9 to 14) (size 15 to 20)
#    0.000    1.231    1.538    3.231    4.308    6.154 
#    8.308    0.000    0.000    0.000    0.000    0.000 
#    0.000    0.000    0.000    0.000    0.000    0.000 
#
# Total GULP energy -290532.173861 kJ/mol
# GULP energy per Si atom -5587.157190 kJ/mol
# Density = 2.184985 g / cm^3
# Si number density = 21.899694 Si / 1000 Ang^3
#
#
#
# Elastic Constant Matrix: (Units=GPa)
#
#
# Indices 1 2 3 4 5 6 
#
# 1 76.6273 30.6151 -12.2050 0.0000 0.0000 0.0000
# 2 30.6151 53.8649 -10.9992 0.0000 0.0000 0.0000
# 3 -12.2050 -10.9992 82.0580 0.0000 0.0000 0.0000
# 4 0.0000 0.0000 0.0000 15.8423 0.0000 0.0000
# 5 0.0000 0.0000 0.0000 0.0000 39.0368 0.0000
# 6 0.0000 0.0000 0.0000 0.0000 0.0000 42.1857
#
#
#
# Elastic Compliance Matrix: (Units=1/GPa)
#
#
# Indices 1 2 3 4 5 6 
#
# 1 0.017012 -0.009410 0.001269 0.000000 0.000000 0.000000
# 2 -0.009410 0.024292 0.001857 0.000000 0.000000 0.000000
# 3 0.001269 0.001857 0.012624 0.000000 0.000000 0.000000
# 4 0.000000 0.000000 0.000000 0.063122 0.000000 0.000000
# 5 0.000000 0.000000 0.000000 0.000000 0.025617 0.000000
# 6 0.000000 0.000000 0.000000 0.000000 0.000000 0.023705
#
#
# Mechanical properties :
#
#
# Convention : Reuss Voigt Hill
#
# Bulk Modulus (GPa) = 24.17813 25.26356 24.72085
# Shear Modulus (GPa) = 25.94340 33.08891 29.51616
#
# Velocity S-wave (km/s) = 3.44560 3.89129 3.67521
# Velocity P-wave (km/s) = 5.18594 5.63476 5.41500
#
# Compressibility (1/GPa) = 0.04135969
#
# Stress axis : x y z
#
# Youngs Moduli (GPa) = 58.78254 41.16521 79.21355
#
# Poissons Ratio (x) = 0.38736 -0.10052
# Poissons Ratio (y) = 0.55314 -0.14707
# Poissons Ratio (z) = -0.07459 -0.07643
#
# Static dielectric constant tensor:
#      x y z
#    x 1.862210 0.000000 0.000000 
#    y 0.000000 1.246140 0.000000 
#    z 0.000000 0.000000 1.820030 
# 
# From -- ./inp_files/7390.got.cif
#   From: 2010.05.17/outbox.cif.g08.bks.cpg/sg68_4_cif.got.tgz:7390.got - 2010.06.03 18:57:09.
