data_PCOD9508245
_publ_section_title
;
Structure prediction by ZEFSAII (Michael W. Deem and Ramdas Pophale) SiO2 
 PCOD9508245
Probable space group: C C C A
;
_chemical_formula_sum "Si O2"
_cell_formula_units_Z 88
_cell_length_a 19.880467
_cell_length_b 10.625842
_cell_length_c 18.186597
_cell_angle_alpha 90.000000
_cell_angle_beta 90.000000
_cell_angle_gamma 90.000000
_cell_volume 3841.858623
_symmetry_space_group_name_H-M "C C C A"
_symmetry_group_IT_number 68
_space_group.IT_coordinate_system_code '2'
_symmetry_cell_setting 'orthorhombic'
loop_
_space_group_symop_operation_xyz
x,y,z
-x,1/2-y,z
x,1/2-y,1/2-z
-x,y,1/2-z
-x,-y,-z
x,1/2+y,-z
-x,1/2+y,1/2+z
x,-y,1/2+z
1/2+x,1/2+y,z
1/2-x,-y,z
1/2+x,-y,1/2-z
1/2-x,1/2+y,1/2-z
1/2-x,1/2-y,-z
1/2+x,y,-z
1/2-x,y,1/2+z
1/2+x,1/2-y,1/2+z
loop_
_atom_site_type_symbol
_atom_site_label
_atom_site_fract_x
_atom_site_fract_y
_atom_site_fract_z
Si Si1 0.250000 0.500000 0.513095
Si Si2 0.948906 0.078568 0.451775
Si Si3 0.376803 0.119394 0.408157
Si Si4 0.750000 0.500000 0.232898
Si Si5 0.663171 0.110206 0.391879
Si Si6 0.546968 0.898972 0.176978
Si Si7 0.836585 0.250000 0.250000
O O1 0.309795 0.549080 0.564124
O O2 0.280162 0.395784 0.456484
O O3 0.913205 0.160561 0.514703
O O4 0.993286 0.128956 0.386348
O O5 0.894507 0.981937 0.420295
O O6 0.000000 0.000000 0.500000
O O7 0.359098 0.250804 0.372740
O O8 0.417323 0.026966 0.353809
O O9 0.691197 0.450312 0.181082
O O10 0.785656 0.370156 0.260747
O O11 0.500000 0.914121 0.250000
O O12 0.606601 0.795884 0.189318
#
# Coordination Sequence:
#
# PCOD9508245 Si02
#       7
#     8  16  16   8  16  16   8
#     4   9  20  39  64 110 146 194 256 312 382 444
#     4   9  21  45  65 105 142 193 246 301 365 450
#     4  10  22  41  75 106 149 203 250 321 384 440
#     4  11  28  47  74 102 152 186 262 308 374 454
#     4  10  21  43  67 109 146 185 250 323 369 443
#     4  11  25  47  70 107 150 199 260 300 381 460
#     4  12  29  52  74 108 145 212 244 312 376 456
#
# _framework density 22.90558
#
# number of rings (size 3 to 8) (size 9 to 14) (size 15 to 20)
#    0.000    1.818    0.000    1.909    5.091    2.909 
#   39.273    2.727    0.000    0.000    0.000    0.000 
#    0.000    0.000    0.000    0.000    0.000    0.000 
#
# Total GULP energy -245058.677385 kJ/mol
# GULP energy per Si atom -5569.515395 kJ/mol
# Density = 2.285345 g / cm^3
# Si number density = 22.905580 Si / 1000 Ang^3
#
#
#
# Elastic Constant Matrix: (Units=GPa)
#
#
# Indices 1 2 3 4 5 6 
#
# 1 118.4614 32.5782 43.8304 0.0000 0.0000 0.0000
# 2 32.5782 116.5646 25.3787 0.0000 0.0000 0.0000
# 3 43.8304 25.3787 76.6609 0.0000 0.0000 0.0000
# 4 0.0000 0.0000 0.0000 34.5371 0.0000 0.0000
# 5 0.0000 0.0000 0.0000 0.0000 96.0544 0.0000
# 6 0.0000 0.0000 0.0000 0.0000 0.0000 37.0949
#
#
#
# Elastic Compliance Matrix: (Units=1/GPa)
#
#
# Indices 1 2 3 4 5 6 
#
# 1 0.011064 -0.001848 -0.005714 0.000000 0.000000 0.000000
# 2 -0.001848 0.009554 -0.002106 0.000000 0.000000 0.000000
# 3 -0.005714 -0.002106 0.017009 0.000000 0.000000 0.000000
# 4 0.000000 0.000000 0.000000 0.028954 0.000000 0.000000
# 5 0.000000 0.000000 0.000000 0.000000 0.010411 0.000000
# 6 0.000000 0.000000 0.000000 0.000000 0.000000 0.026958
#
#
# Mechanical properties :
#
#
# Convention : Reuss Voigt Hill
#
# Bulk Modulus (GPa) = 54.67454 57.25127 55.96291
# Shear Modulus (GPa) = 38.64499 47.53060 43.08779
#
# Velocity S-wave (km/s) = 4.11194 4.56023 4.34188
# Velocity P-wave (km/s) = 6.81656 7.26473 7.04421
#
# Compressibility (1/GPa) = 0.01829005
#
# Stress axis : x y z
#
# Youngs Moduli (GPa) = 90.38348 104.66776 58.79376
#
# Poissons Ratio (x) = 0.19344 0.33594
# Poissons Ratio (y) = 0.16704 0.12383
# Poissons Ratio (z) = 0.51644 0.22045
#
# Static dielectric constant tensor:
#      x y z
#    x 1.664990 0.000000 0.000000 
#    y 0.000000 1.863670 0.000000 
#    z 0.000000 0.000000 1.971670 
# 
# From -- ./inp_files/32840.got.cif
#   From: 2010.05.17/outbox.cif.g08.bks.cpg/sg68_17_cif.got.tgz:32840.got - 2010.06.03 18:57:09.
