data_PCOD9508823
_publ_section_title
;
Structure prediction by ZEFSAII (Michael W. Deem and Ramdas Pophale) SiO2 
 PCOD9508823
Probable space group: C C C A
;
_chemical_formula_sum "Si O2"
_cell_formula_units_Z 80
_cell_length_a 5.398795
_cell_length_b 22.496274
_cell_length_c 31.403384
_cell_angle_alpha 90.000000
_cell_angle_beta 90.000000
_cell_angle_gamma 90.000000
_cell_volume 3814.028024
_symmetry_space_group_name_H-M "C C C A"
_symmetry_group_IT_number 68
_space_group.IT_coordinate_system_code '2'
_symmetry_cell_setting 'orthorhombic'
loop_
_space_group_symop_operation_xyz
x,y,z
-x,1/2-y,z
x,1/2-y,1/2-z
-x,y,1/2-z
-x,-y,-z
x,1/2+y,-z
-x,1/2+y,1/2+z
x,-y,1/2+z
1/2+x,1/2+y,z
1/2-x,-y,z
1/2+x,-y,1/2-z
1/2-x,1/2+y,1/2-z
1/2-x,1/2-y,-z
1/2+x,y,-z
1/2-x,y,1/2+z
1/2+x,1/2-y,1/2+z
loop_
_atom_site_type_symbol
_atom_site_label
_atom_site_fract_x
_atom_site_fract_y
_atom_site_fract_z
Si Si1 0.425779 0.114999 0.879787
Si Si2 0.938533 0.318354 0.607646
Si Si3 0.000709 0.961208 0.703403
Si Si4 0.389413 0.832800 0.988494
Si Si5 0.428614 0.545978 0.461971
O O1 0.155348 0.142475 0.871181
O O2 0.498507 0.078236 0.838456
O O3 0.413788 0.075479 0.923670
O O4 0.655047 0.161291 0.885652
O O5 0.996769 0.329676 0.558065
O O6 0.000000 0.250000 0.617373
O O7 0.000000 0.930020 0.750000
O O8 0.250000 0.000000 0.702296
O O9 0.750000 0.000000 0.701829
O O10 0.616167 0.806109 0.015259
O O11 0.335652 0.897246 0.010503
O O12 0.500000 0.500000 0.500000
O O13 0.250000 0.500000 0.436940
#
# Coordination Sequence:
#
# PCOD9508823 Si02
#       5
#    16  16  16  16  16
#     4  12  24  43  62  95 124 163 215 258 317 377
#     4  12  25  43  63  86 123 167 220 273 314 358
#     4  10  22  42  69 102 134 165 198 244 315 389
#     4  12  22  40  54  84 117 163 216 256 304 368
#     4  12  21  34  56  84 125 161 197 246 304 373
#
# _framework density 20.975199
#
# number of rings (size 3 to 8) (size 9 to 14) (size 15 to 20)
#    0.000    0.400    6.000    2.400    0.000    3.200 
#    0.000    0.000    0.000    3.600    0.000    0.000 
#    0.000    0.000    0.000    0.000    0.000    0.000 
#
# Total GULP energy -222851.594739 kJ/mol
# GULP energy per Si atom -5571.289868 kJ/mol
# Density = 2.092746 g / cm^3
# Si number density = 20.975199 Si / 1000 Ang^3
#
#
#
# Elastic Constant Matrix: (Units=GPa)
#
#
# Indices 1 2 3 4 5 6 
#
# 1 119.8951 15.5301 -9.0728 0.0000 0.0000 0.0000
# 2 15.5301 73.5610 25.6188 0.0000 0.0000 0.0000
# 3 -9.0728 25.6188 113.7744 0.0000 0.0000 0.0000
# 4 0.0000 0.0000 0.0000 -54.1107 0.0000 0.0000
# 5 0.0000 0.0000 0.0000 0.0000 28.9262 0.0000
# 6 0.0000 0.0000 0.0000 0.0000 0.0000 34.4552
#
#
#
# Elastic Compliance Matrix: (Units=1/GPa)
#
#
# Indices 1 2 3 4 5 6 
#
# 1 0.008725 -0.002262 0.001205 0.000000 0.000000 0.000000
# 2 -0.002262 0.015337 -0.003634 0.000000 0.000000 0.000000
# 3 0.001205 -0.003634 0.009704 0.000000 0.000000 0.000000
# 4 0.000000 0.000000 0.000000 -0.018481 0.000000 0.000000
# 5 0.000000 0.000000 0.000000 0.000000 0.034571 0.000000
# 6 0.000000 0.000000 0.000000 0.000000 0.000000 0.029023
#
#
# Mechanical properties :
#
#
# Convention : Reuss Voigt Hill
#
# Bulk Modulus (GPa) = 41.00939 41.26473 41.13706
# Shear Modulus (GPa) = 51.87362 20.19775 36.03569
#
# Velocity S-wave (km/s) = 4.97842 3.10649 4.14939
# Velocity P-wave (km/s) = 7.25534 5.70814 6.52774
#
# Compressibility (1/GPa) = 0.02438466
#
# Stress axis : x y z
#
# Youngs Moduli (GPa) = 114.61639 65.20104 103.05391
#
# Poissons Ratio (x) = 0.14746 -0.12418
# Poissons Ratio (y) = 0.25922 0.37448
# Poissons Ratio (z) = -0.13811 0.23693
#
# Static dielectric constant tensor:
#      x y z
#    x 1.993620 0.000000 0.000000 
#    y 0.000000 1.926510 0.000000 
#    z 0.000000 0.000000 1.739450 
# 
# From -- ./inp_files/53151.got.cif
#   From: 2010.05.17/outbox.cif.g08.bks.cpg/sg68_27_cif.got.tgz:53151.got - 2010.06.03 18:57:09.
