data_PCOD9508983
_publ_section_title
;
Structure prediction by ZEFSAII (Michael W. Deem and Ramdas Pophale) SiO2 
 PCOD9508983
Probable space group: C C C A
;
_chemical_formula_sum "Si O2"
_cell_formula_units_Z 72
_cell_length_a 8.274009
_cell_length_b 13.585147
_cell_length_c 28.953656
_cell_angle_alpha 90.000000
_cell_angle_beta 90.000000
_cell_angle_gamma 90.000000
_cell_volume 3254.495994
_symmetry_space_group_name_H-M "C C C A"
_symmetry_group_IT_number 68
_space_group.IT_coordinate_system_code '2'
_symmetry_cell_setting 'orthorhombic'
loop_
_space_group_symop_operation_xyz
x,y,z
-x,1/2-y,z
x,1/2-y,1/2-z
-x,y,1/2-z
-x,-y,-z
x,1/2+y,-z
-x,1/2+y,1/2+z
x,-y,1/2+z
1/2+x,1/2+y,z
1/2-x,-y,z
1/2+x,-y,1/2-z
1/2-x,1/2+y,1/2-z
1/2-x,1/2-y,-z
1/2+x,y,-z
1/2-x,y,1/2+z
1/2+x,1/2-y,1/2+z
loop_
_atom_site_type_symbol
_atom_site_label
_atom_site_fract_x
_atom_site_fract_y
_atom_site_fract_z
Si Si1 0.685931 0.254379 0.693715
Si Si2 0.377673 0.918997 0.637824
Si Si3 0.500000 0.250000 0.528146
Si Si4 0.618272 0.073051 0.209283
Si Si5 0.297853 0.384790 0.457790
O O1 0.500000 0.250000 0.678817
O O2 0.684788 0.250000 0.750000
O O3 0.787431 0.341472 0.671025
O O4 0.788132 0.158103 0.683068
O O5 0.511243 0.972384 0.668934
O O6 0.414877 0.877502 0.587413
O O7 0.250000 0.000000 0.625185
O O8 0.394147 0.328144 0.498182
O O9 0.364886 0.180171 0.552698
O O10 0.500000 0.106914 0.250000
O O11 0.750000 0.000000 0.230100
O O12 0.250000 0.500000 0.469180
#
# Coordination Sequence:
#
# PCOD9508983 Si02
#       5
#    16  16   8  16  16
#     4  11  24  39  63  89 123 169 218 268 322 380
#     4  11  24  43  64  96 131 170 219 276 326 392
#     4  10  22  44  72 102 134 180 212 284 348 418
#     4  12  25  41  63  91 129 174 220 271 327 388
#     4  10  23  43  71 101 138 172 227 275 346 413
#
# _framework density 22.123242000000001
#
# number of rings (size 3 to 8) (size 9 to 14) (size 15 to 20)
#    0.000    1.111    2.222    3.333    7.778    0.000 
#    0.000    1.111    0.000    0.000    0.000    0.000 
#    0.000    0.000    0.000    0.000    0.000    0.000 
#
# Total GULP energy -200657.798310 kJ/mol
# GULP energy per Si atom -5573.827731 kJ/mol
# Density = 2.207289 g / cm^3
# Si number density = 22.123242 Si / 1000 Ang^3
#
#
#
# Elastic Constant Matrix: (Units=GPa)
#
#
# Indices 1 2 3 4 5 6 
#
# 1 67.1983 6.2935 0.3476 0.0000 0.0000 0.0000
# 2 6.2935 95.9026 3.6355 0.0000 0.0000 0.0000
# 3 0.3476 3.6355 51.7612 0.0000 0.0000 0.0000
# 4 0.0000 0.0000 0.0000 17.7920 0.0000 0.0000
# 5 0.0000 0.0000 0.0000 0.0000 32.0477 0.0000
# 6 0.0000 0.0000 0.0000 0.0000 0.0000 39.1692
#
#
#
# Elastic Compliance Matrix: (Units=1/GPa)
#
#
# Indices 1 2 3 4 5 6 
#
# 1 0.014973 -0.000981 -0.000032 0.000000 0.000000 0.000000
# 2 -0.000981 0.010519 -0.000732 0.000000 0.000000 0.000000
# 3 -0.000032 -0.000732 0.019371 0.000000 0.000000 0.000000
# 4 0.000000 0.000000 0.000000 0.056205 0.000000 0.000000
# 5 0.000000 0.000000 0.000000 0.000000 0.031204 0.000000
# 6 0.000000 0.000000 0.000000 0.000000 0.000000 0.025530
#
#
# Mechanical properties :
#
#
# Convention : Reuss Voigt Hill
#
# Bulk Modulus (GPa) = 24.17013 26.15725 25.16369
# Shear Modulus (GPa) = 28.55766 31.44081 29.99924
#
# Velocity S-wave (km/s) = 3.59673 3.77393 3.68639
# Velocity P-wave (km/s) = 5.31014 5.55330 5.43308
#
# Compressibility (1/GPa) = 0.04137339
#
# Stress axis : x y z
#
# Youngs Moduli (GPa) = 66.78508 95.06236 51.62317
#
# Poissons Ratio (x) = 0.09330 0.00163
# Poissons Ratio (y) = 0.06554 0.03780
# Poissons Ratio (z) = 0.00211 0.06961
#
# Static dielectric constant tensor:
#      x y z
#    x 1.871990 0.000000 0.000000 
#    y 0.000000 1.872500 0.000000 
#    z 0.000000 0.000000 1.838530 
# 
# From -- ./inp_files/48941.got.cif
#   From: 2010.05.17/outbox.cif.g08.bks.cpg/sg68_25_cif.got.tgz:48941.got - 2010.06.03 18:57:09.
