data_PCOD9508543
_publ_section_title
;
Structure prediction by ZEFSAII (Michael W. Deem and Ramdas Pophale) SiO2 
 PCOD9508543
Probable space group: C C C A
;
_chemical_formula_sum "Si O2"
_cell_formula_units_Z 88
_cell_length_a 8.674194
_cell_length_b 19.449755
_cell_length_c 27.656566
_cell_angle_alpha 90.000000
_cell_angle_beta 90.000000
_cell_angle_gamma 90.000000
_cell_volume 4665.965472
_symmetry_space_group_name_H-M "C C C A"
_symmetry_group_IT_number 68
_space_group.IT_coordinate_system_code '2'
_symmetry_cell_setting 'orthorhombic'
loop_
_space_group_symop_operation_xyz
x,y,z
-x,1/2-y,z
x,1/2-y,1/2-z
-x,y,1/2-z
-x,-y,-z
x,1/2+y,-z
-x,1/2+y,1/2+z
x,-y,1/2+z
1/2+x,1/2+y,z
1/2-x,-y,z
1/2+x,-y,1/2-z
1/2-x,1/2+y,1/2-z
1/2-x,1/2-y,-z
1/2+x,y,-z
1/2-x,y,1/2+z
1/2+x,1/2-y,1/2+z
loop_
_atom_site_type_symbol
_atom_site_label
_atom_site_fract_x
_atom_site_fract_y
_atom_site_fract_z
Si Si1 0.997034 0.976187 0.391343
Si Si2 0.899849 0.547982 0.797298
Si Si3 0.815902 0.632293 0.054928
Si Si4 0.538371 0.385557 0.950402
Si Si5 0.000000 0.250000 0.609486
Si Si6 0.760089 0.142725 0.630559
O O1 0.138523 0.922188 0.388394
O O2 0.853136 0.930820 0.408636
O O3 0.996657 0.010379 0.338430
O O4 0.029584 0.037049 0.429032
O O5 0.750000 0.500000 0.787408
O O6 0.833177 0.616065 0.823187
O O7 0.000000 0.559822 0.750000
O O8 0.634936 0.642101 0.048965
O O9 0.901995 0.698161 0.076505
O O10 0.889319 0.614549 0.003281
O O11 0.642982 0.342649 0.913082
O O12 0.879007 0.204073 0.639180
#
# Coordination Sequence:
#
# PCOD9508543 Si02
#       6
#    16  16  16  16   8  16
#     4   9  19  36  53  81 114 144 179 225 282 331
#     4   9  18  33  57  88 114 134 168 225 286 338
#     4  11  22  33  53  78 112 154 190 226 270 327
#     4  11  21  33  52  80 111 147 189 235 276 321
#     4  10  22  40  54  74 111 154 195 228 266 326
#     4   9  20  37  56  80 113 150 185 226 274 327
#
# _framework density 18.859978000000002
#
# number of rings (size 3 to 8) (size 9 to 14) (size 15 to 20)
#    0.000    2.182    0.000    4.909    0.000    8.000 
#    0.000    0.000    0.000    0.000    0.000  143.182 
#    0.000    0.000    0.000    0.000    0.000    0.000 
#
# Total GULP energy -245683.129383 kJ/mol
# GULP energy per Si atom -5583.707486 kJ/mol
# Density = 1.881705 g / cm^3
# Si number density = 18.859978 Si / 1000 Ang^3
#
#
#
# Elastic Constant Matrix: (Units=GPa)
#
#
# Indices 1 2 3 4 5 6 
#
# 1 109.6970 34.7268 64.5671 0.0000 0.0000 0.0000
# 2 34.7268 84.8864 43.2528 0.0000 0.0000 0.0000
# 3 64.5671 43.2528 124.2744 0.0000 0.0000 0.0000
# 4 0.0000 0.0000 0.0000 2.6269 0.0000 0.0000
# 5 0.0000 0.0000 0.0000 0.0000 19.0730 0.0000
# 6 0.0000 0.0000 0.0000 0.0000 0.0000 23.4604
#
#
#
# Elastic Compliance Matrix: (Units=1/GPa)
#
#
# Indices 1 2 3 4 5 6 
#
# 1 0.013513 -0.002371 -0.006196 0.000000 0.000000 0.000000
# 2 -0.002371 0.014736 -0.003897 0.000000 0.000000 0.000000
# 3 -0.006196 -0.003897 0.012622 0.000000 0.000000 0.000000
# 4 0.000000 0.000000 0.000000 0.380678 0.000000 0.000000
# 5 0.000000 0.000000 0.000000 0.000000 0.052430 0.000000
# 6 0.000000 0.000000 0.000000 0.000000 0.000000 0.042625
#
#
# Mechanical properties :
#
#
# Convention : Reuss Voigt Hill
#
# Bulk Modulus (GPa) = 62.71968 67.10569 64.91269
# Shear Modulus (GPa) = 9.14333 20.78613 14.96473
#
# Velocity S-wave (km/s) = 2.20421 3.32343 2.81991
# Velocity P-wave (km/s) = 6.30917 7.09825 6.71531
#
# Compressibility (1/GPa) = 0.01594396
#
# Stress axis : x y z
#
# Youngs Moduli (GPa) = 74.00044 67.86045 79.22760
#
# Poissons Ratio (x) = 0.16093 0.49086
# Poissons Ratio (y) = 0.17549 0.30873
# Poissons Ratio (z) = 0.45848 0.26443
#
# Static dielectric constant tensor:
#      x y z
#    x 1.662430 0.000000 0.000000 
#    y 0.000000 1.673590 0.000000 
#    z 0.000000 0.000000 1.616180 
# 
# From -- ./inp_files/43126.got.cif
#   From: 2010.05.17/outbox.cif.g08.bks.cpg/sg68_22_cif.got.tgz:43126.got - 2010.06.03 18:57:09.
