data_PCOD9508842
_publ_section_title
;
Structure prediction by ZEFSAII (Michael W. Deem and Ramdas Pophale) SiO2 
 PCOD9508842
Probable space group: C C C A
;
_chemical_formula_sum "Si O2"
_cell_formula_units_Z 68
_cell_length_a 22.432449
_cell_length_b 14.773054
_cell_length_c 9.477961
_cell_angle_alpha 90.000000
_cell_angle_beta 90.000000
_cell_angle_gamma 90.000000
_cell_volume 3140.956282
_symmetry_space_group_name_H-M "C C C A"
_symmetry_group_IT_number 68
_space_group.IT_coordinate_system_code '2'
_symmetry_cell_setting 'orthorhombic'
loop_
_space_group_symop_operation_xyz
x,y,z
-x,1/2-y,z
x,1/2-y,1/2-z
-x,y,1/2-z
-x,-y,-z
x,1/2+y,-z
-x,1/2+y,1/2+z
x,-y,1/2+z
1/2+x,1/2+y,z
1/2-x,-y,z
1/2+x,-y,1/2-z
1/2-x,1/2+y,1/2-z
1/2-x,1/2-y,-z
1/2+x,y,-z
1/2-x,y,1/2+z
1/2+x,1/2-y,1/2+z
loop_
_atom_site_type_symbol
_atom_site_label
_atom_site_fract_x
_atom_site_fract_y
_atom_site_fract_z
Si Si1 0.436752 0.087000 0.243230
Si Si2 0.174778 0.314339 0.619335
Si Si3 0.806726 0.679262 0.875776
Si Si4 0.576309 0.905187 0.094764
Si Si5 0.500000 0.250000 0.750000
O O1 0.500000 0.138718 0.250000
O O2 0.382081 0.128730 0.333143
O O3 0.447976 0.993194 0.326053
O O4 0.423133 0.081841 0.075302
O O5 0.185596 0.250000 0.750000
O O6 0.164857 0.243071 0.495641
O O7 0.240344 0.356848 0.588473
O O8 0.803586 0.750000 0.750000
O O9 0.855328 0.603098 0.852262
O O10 0.540088 0.817087 0.151757
#
# Coordination Sequence:
#
# PCOD9508842 Si02
#       5
#    16  16  16  16   4
#     4  12  28  45  70 105 148 185 235 304 364 437
#     4  10  22  44  68 102 138 185 243 288 353 419
#     4  10  22  42  71  99 138 188 239 294 343 426
#     4  12  27  46  71 103 143 185 239 299 366 439
#     4  12  28  48  74 100 134 196 244 288 372 436
#
# _framework density 21.649457000000002
#
# number of rings (size 3 to 8) (size 9 to 14) (size 15 to 20)
#    0.000    0.941    4.706    0.706    6.588    1.412 
#    0.000    2.353    0.000    0.000    0.000    0.000 
#    0.000    0.000    0.000    0.000    0.000    0.000 
#
# Total GULP energy -189415.576881 kJ/mol
# GULP energy per Si atom -5571.046379 kJ/mol
# Density = 2.160018 g / cm^3
# Si number density = 21.649457 Si / 1000 Ang^3
#
#
#
# Elastic Constant Matrix: (Units=GPa)
#
#
# Indices 1 2 3 4 5 6 
#
# 1 165.7650 43.2636 15.9368 0.0000 0.0000 0.0000
# 2 43.2636 59.4577 36.0208 0.0000 0.0000 0.0000
# 3 15.9368 36.0208 107.1219 0.0000 0.0000 0.0000
# 4 0.0000 0.0000 0.0000 27.1920 0.0000 0.0000
# 5 0.0000 0.0000 0.0000 0.0000 34.1022 0.0000
# 6 0.0000 0.0000 0.0000 0.0000 0.0000 28.9833
#
#
#
# Elastic Compliance Matrix: (Units=1/GPa)
#
#
# Indices 1 2 3 4 5 6 
#
# 1 0.007516 -0.006017 0.000905 0.000000 0.000000 0.000000
# 2 -0.006017 0.025939 -0.007827 0.000000 0.000000 0.000000
# 3 0.000905 -0.007827 0.011832 0.000000 0.000000 0.000000
# 4 0.000000 0.000000 0.000000 0.036776 0.000000 0.000000
# 5 0.000000 0.000000 0.000000 0.000000 0.029324 0.000000
# 6 0.000000 0.000000 0.000000 0.000000 0.000000 0.034503
#
#
# Mechanical properties :
#
#
# Convention : Reuss Voigt Hill
#
# Bulk Modulus (GPa) = 51.52228 58.08743 54.80485
# Shear Modulus (GPa) = 28.05250 33.86373 30.95811
#
# Velocity S-wave (km/s) = 3.60357 3.95927 3.78560
# Velocity P-wave (km/s) = 6.41595 6.91305 6.66913
#
# Compressibility (1/GPa) = 0.01940908
#
# Stress axis : x y z
#
# Youngs Moduli (GPa) = 133.04761 38.55212 84.51379
#
# Poissons Ratio (x) = 0.23198 -0.07650
# Poissons Ratio (y) = 0.80060 0.66149
# Poissons Ratio (z) = -0.12044 0.30175
#
# Static dielectric constant tensor:
#      x y z
#    x 1.978990 0.000000 0.000000 
#    y 0.000000 1.817290 0.000000 
#    z 0.000000 0.000000 1.750770 
# 
# From -- ./inp_files/5922.got.cif
#   From: 2010.05.17/outbox.cif.g08.bks.cpg/sg68_3_cif.got.tgz:5922.got - 2010.06.03 18:57:09.
