data_PCOD9508159
_publ_section_title
;
Structure prediction by ZEFSAII (Michael W. Deem and Ramdas Pophale) SiO2 
 PCOD9508159
Probable space group: C C C A
;
_chemical_formula_sum "Si O2"
_cell_formula_units_Z 108
_cell_length_a 5.325353
_cell_length_b 29.985875
_cell_length_c 32.498699
_cell_angle_alpha 90.000000
_cell_angle_beta 90.000000
_cell_angle_gamma 90.000000
_cell_volume 5189.566754
_symmetry_space_group_name_H-M "C C C A"
_symmetry_group_IT_number 68
_space_group.IT_coordinate_system_code '2'
_symmetry_cell_setting 'orthorhombic'
loop_
_space_group_symop_operation_xyz
x,y,z
-x,1/2-y,z
x,1/2-y,1/2-z
-x,y,1/2-z
-x,-y,-z
x,1/2+y,-z
-x,1/2+y,1/2+z
x,-y,1/2+z
1/2+x,1/2+y,z
1/2-x,-y,z
1/2+x,-y,1/2-z
1/2-x,1/2+y,1/2-z
1/2-x,1/2-y,-z
1/2+x,y,-z
1/2-x,y,1/2+z
1/2+x,1/2-y,1/2+z
loop_
_atom_site_type_symbol
_atom_site_label
_atom_site_fract_x
_atom_site_fract_y
_atom_site_fract_z
Si Si1 0.467689 0.883196 0.591805
Si Si2 0.385699 0.541563 0.292822
Si Si3 0.003930 0.802445 0.027600
Si Si4 0.233590 0.446380 0.977828
Si Si5 0.819575 0.176587 0.210970
Si Si6 0.968416 0.885168 0.644989
Si Si7 0.000000 0.250000 0.750000
Si Si8 0.500000 0.106432 0.250000
O O1 0.477563 0.837826 0.564637
O O2 0.385332 0.923377 0.561807
O O3 0.240668 0.883575 0.624304
O O4 0.737196 0.888835 0.613473
O O5 0.500000 0.522694 0.250000
O O6 0.250000 0.500000 0.314256
O O7 0.545474 0.571959 0.323923
O O8 0.195438 0.576672 0.273562
O O9 0.000000 0.750000 0.040574
O O10 0.247795 0.809573 0.998442
O O11 0.250000 0.500000 0.974511
O O12 0.521676 0.433140 0.987970
O O13 0.680091 0.222329 0.219793
O O14 0.610895 0.138906 0.216059
O O15 0.000000 0.170192 0.250000
O O16 0.949528 0.161998 0.169431
#
# Coordination Sequence:
#
# PCOD9508159 Si02
#       8
#    16  16  16  16  16  16   4   8
#     4  12  25  42  66  99 141 182 210 264 350 411
#     4  12  24  40  67  94 122 179 242 290 328 399
#     4  10  21  42  73 101 129 168 223 273 315 390
#     4  10  21  41  69  98 129 174 229 272 309 383
#     4  11  22  43  67  89 125 172 232 286 326 404
#     4  12  26  43  66  96 144 180 211 278 352 401
#     4  10  26  40  72  94 112 168 254 284 326 398
#     4  11  18  39  66  88 120 158 232 293 332 375
#
# _framework density 20.810984000000001
#
# number of rings (size 3 to 8) (size 9 to 14) (size 15 to 20)
#    0.000    0.889    3.704    3.778    2.074    0.593 
#    1.333    2.963    0.000    0.000    0.000    0.000 
#    0.000    0.000    0.000    0.000    0.000    0.000 
#
# Total GULP energy -301350.528198 kJ/mol
# GULP energy per Si atom -5580.565337 kJ/mol
# Density = 2.076362 g / cm^3
# Si number density = 20.810984 Si / 1000 Ang^3
#
#
#
# Elastic Constant Matrix: (Units=GPa)
#
#
# Indices 1 2 3 4 5 6 
#
# 1 96.5191 28.9432 28.6567 0.0000 0.0000 0.0000
# 2 28.9432 84.7096 34.8335 0.0000 0.0000 0.0000
# 3 28.6567 34.8335 79.4223 0.0000 0.0000 0.0000
# 4 0.0000 0.0000 0.0000 136.0405 0.0000 0.0000
# 5 0.0000 0.0000 0.0000 0.0000 47.0928 0.0000
# 6 0.0000 0.0000 0.0000 0.0000 0.0000 35.6779
#
#
#
# Elastic Compliance Matrix: (Units=1/GPa)
#
#
# Indices 1 2 3 4 5 6 
#
# 1 0.012148 -0.002865 -0.003127 0.000000 0.000000 0.000000
# 2 -0.002865 0.015078 -0.005579 0.000000 0.000000 0.000000
# 3 -0.003127 -0.005579 0.016166 0.000000 0.000000 0.000000
# 4 0.000000 0.000000 0.000000 0.007351 0.000000 0.000000
# 5 0.000000 0.000000 0.000000 0.000000 0.021235 0.000000
# 6 0.000000 0.000000 0.000000 0.000000 0.000000 0.028029
#
#
# Mechanical properties :
#
#
# Convention : Reuss Voigt Hill
#
# Bulk Modulus (GPa) = 49.38180 49.50199 49.44189
# Shear Modulus (GPa) = 38.49156 54.97673 46.73415
#
# Velocity S-wave (km/s) = 4.30534 5.14534 4.74397
# Velocity P-wave (km/s) = 6.96382 7.69009 7.33595
#
# Compressibility (1/GPa) = 0.02025037
#
# Stress axis : x y z
#
# Youngs Moduli (GPa) = 82.31747 66.32071 61.85783
#
# Poissons Ratio (x) = 0.19001 0.19341
# Poissons Ratio (y) = 0.23584 0.34513
# Poissons Ratio (z) = 0.25738 0.37003
#
# Static dielectric constant tensor:
#      x y z
#    x 1.803540 0.000000 0.000000 
#    y 0.000000 1.804130 0.000000 
#    z 0.000000 0.000000 1.786850 
# 
# From -- ./inp_files/53536.got.cif
#   From: 2010.05.17/outbox.cif.g08.bks.cpg/sg68_27_cif.got.tgz:53536.got - 2010.06.03 18:57:09.
