data_PCOD9508233
_publ_section_title
;
Structure prediction by ZEFSAII (Michael W. Deem and Ramdas Pophale) SiO2 
 PCOD9508233
Probable space group: C C C A
;
_chemical_formula_sum "Si O2"
_cell_formula_units_Z 116
_cell_length_a 9.920565
_cell_length_b 23.514822
_cell_length_c 27.030880
_cell_angle_alpha 90.000000
_cell_angle_beta 90.000000
_cell_angle_gamma 90.000000
_cell_volume 6305.772339
_symmetry_space_group_name_H-M "C C C A"
_symmetry_group_IT_number 68
_space_group.IT_coordinate_system_code '2'
_symmetry_cell_setting 'orthorhombic'
loop_
_space_group_symop_operation_xyz
x,y,z
-x,1/2-y,z
x,1/2-y,1/2-z
-x,y,1/2-z
-x,-y,-z
x,1/2+y,-z
-x,1/2+y,1/2+z
x,-y,1/2+z
1/2+x,1/2+y,z
1/2-x,-y,z
1/2+x,-y,1/2-z
1/2-x,1/2+y,1/2-z
1/2-x,1/2-y,-z
1/2+x,y,-z
1/2-x,y,1/2+z
1/2+x,1/2-y,1/2+z
loop_
_atom_site_type_symbol
_atom_site_label
_atom_site_fract_x
_atom_site_fract_y
_atom_site_fract_z
Si Si1 0.795671 0.129207 0.488245
Si Si2 0.866026 0.347979 0.187061
Si Si3 0.556655 0.444792 0.971179
Si Si4 0.377908 0.405985 0.634739
Si Si5 0.500000 0.750000 0.250000
Si Si6 0.156334 0.680717 0.093088
Si Si7 0.349859 0.952832 0.259378
Si Si8 0.342434 0.684974 0.893542
O O1 0.692433 0.078985 0.503676
O O2 0.815445 0.170363 0.535058
O O3 0.731280 0.161159 0.442085
O O4 0.940057 0.102480 0.476023
O O5 0.839007 0.394483 0.229228
O O6 0.735883 0.338649 0.153681
O O7 0.988255 0.372064 0.152953
O O8 0.912821 0.290897 0.214707
O O9 0.589015 0.446279 0.912374
O O10 0.500000 0.500000 0.000000
O O11 0.262652 0.360725 0.619804
O O12 0.331303 0.440380 0.682803
O O13 0.172445 0.746761 0.106341
O O14 0.999553 0.667620 0.104432
O O15 0.500000 0.974264 0.250000
O O16 0.250000 0.000000 0.240364
#
# Coordination Sequence:
#
# PCOD9508233 Si02
#       8
#    16  16  16  16   4  16  16  16
#     4  11  21  41  58  87 129 162 207 255 308 384
#     4  11  22  40  69  97 125 165 216 272 323 380
#     4  11  23  39  62  91 121 166 211 258 310 369
#     4  10  21  43  64  91 124 167 213 258 319 380
#     4  12  20  40  76  98 128 152 224 280 324 384
#     4  10  23  38  61  91 131 162 208 252 321 388
#     4  10  23  44  64  93 125 165 222 261 319 384
#     4  11  22  39  60  94 125 166 204 259 322 378
#
# _framework density 18.395841999999998
#
# number of rings (size 3 to 8) (size 9 to 14) (size 15 to 20)
#    0.000    1.379    4.828    1.655    0.000    3.310 
#    4.966    0.000    0.000    0.000    0.000    0.000 
#    0.000    0.000    0.000    0.000    0.000    0.000 
#
# Total GULP energy -323844.985023 kJ/mol
# GULP energy per Si atom -5583.534225 kJ/mol
# Density = 1.835397 g / cm^3
# Si number density = 18.395842 Si / 1000 Ang^3
#
#
#
# Elastic Constant Matrix: (Units=GPa)
#
#
# Indices 1 2 3 4 5 6 
#
# 1 62.9829 34.5644 52.1901 0.0000 0.0000 0.0000
# 2 34.5644 73.4520 35.3652 0.0000 0.0000 0.0000
# 3 52.1901 35.3652 114.9947 0.0000 0.0000 0.0000
# 4 0.0000 0.0000 0.0000 -3.8882 0.0000 0.0000
# 5 0.0000 0.0000 0.0000 0.0000 17.9630 0.0000
# 6 0.0000 0.0000 0.0000 0.0000 0.0000 32.4660
#
#
#
# Elastic Compliance Matrix: (Units=1/GPa)
#
#
# Indices 1 2 3 4 5 6 
#
# 1 0.029569 -0.008748 -0.010729 0.000000 0.000000 0.000000
# 2 -0.008748 0.018569 -0.001740 0.000000 0.000000 0.000000
# 3 -0.010729 -0.001740 0.014101 0.000000 0.000000 0.000000
# 4 0.000000 0.000000 0.000000 -0.257190 0.000000 0.000000
# 5 0.000000 0.000000 0.000000 0.000000 0.055670 0.000000
# 6 0.000000 0.000000 0.000000 0.000000 0.000000 0.030801
#
#
# Mechanical properties :
#
#
# Convention : Reuss Voigt Hill
#
# Bulk Modulus (GPa) = 50.49803 55.07433 52.78618
# Shear Modulus (GPa) = -84.11533 17.92883 -33.09325
#
# Velocity S-wave (km/s) = -6.76938 3.12527 -4.24601
# Velocity P-wave (km/s) = 5.79559 6.55946 2.17228
#
# Compressibility (1/GPa) = 0.01980275
#
# Stress axis : x y z
#
# Youngs Moduli (GPa) = 33.81897 53.85336 70.91826
#
# Poissons Ratio (x) = 0.47113 0.76091
# Poissons Ratio (y) = 0.29586 0.12341
# Poissons Ratio (z) = 0.36286 0.09371
#
# Static dielectric constant tensor:
#      x y z
#    x 1.606430 0.000000 0.000000 
#    y 0.000000 1.621880 0.000000 
#    z 0.000000 0.000000 1.622310 
# 
# From -- ./inp_files/49623.got.cif
#   From: 2010.05.17/outbox.cif.g08.bks.cpg/sg68_25_cif.got.tgz:49623.got - 2010.06.03 18:57:09.
