data_PCOD9508216
_publ_section_title
;
Structure prediction by ZEFSAII (Michael W. Deem and Ramdas Pophale) SiO2 
 PCOD9508216
Probable space group: C C C A
;
_chemical_formula_sum "Si O2"
_cell_formula_units_Z 72
_cell_length_a 26.804392
_cell_length_b 12.193451
_cell_length_c 9.315937
_cell_angle_alpha 90.000000
_cell_angle_beta 90.000000
_cell_angle_gamma 90.000000
_cell_volume 3044.802594
_symmetry_space_group_name_H-M "C C C A"
_symmetry_group_IT_number 68
_space_group.IT_coordinate_system_code '2'
_symmetry_cell_setting 'orthorhombic'
loop_
_space_group_symop_operation_xyz
x,y,z
-x,1/2-y,z
x,1/2-y,1/2-z
-x,y,1/2-z
-x,-y,-z
x,1/2+y,-z
-x,1/2+y,1/2+z
x,-y,1/2+z
1/2+x,1/2+y,z
1/2-x,-y,z
1/2+x,-y,1/2-z
1/2-x,1/2+y,1/2-z
1/2-x,1/2-y,-z
1/2+x,y,-z
1/2-x,y,1/2+z
1/2+x,1/2-y,1/2+z
loop_
_atom_site_type_symbol
_atom_site_label
_atom_site_fract_x
_atom_site_fract_y
_atom_site_fract_z
Si Si1 0.500000 0.035185 0.750000
Si Si2 0.830773 0.118893 0.071660
Si Si3 0.686225 0.084585 0.259821
Si Si4 0.728039 0.750000 0.250000
Si Si5 0.445038 0.375898 0.477411
Si Si6 0.595352 0.250000 0.250000
O O1 0.463767 0.957659 0.650918
O O2 0.524132 0.107973 0.623000
O O3 0.811135 0.238774 0.117931
O O4 0.888591 0.108321 0.032389
O O5 0.819727 0.034781 0.197632
O O6 0.803777 0.081330 0.928518
O O7 0.732564 0.155696 0.205804
O O8 0.634387 0.149858 0.233437
O O9 0.439154 0.262067 0.390071
#
# Coordination Sequence:
#
# PCOD9508216 Si02
#       6
#     8  16  16   8  16   8
#     4  10  22  43  72  99 130 170 230 283 354 427
#     4  11  23  42  67  92 130 174 219 271 332 395
#     4  10  23  41  65  94 130 176 219 268 326 390
#     4  11  24  40  62  98 134 170 222 268 316 401
#     4  10  21  42  69  98 131 175 220 285 346 411
#     4   9  20  39  64  95 134 171 216 269 336 403
#
# _framework density 23.646854000000001
#
# number of rings (size 3 to 8) (size 9 to 14) (size 15 to 20)
#    0.000    1.778    0.000    4.000    0.000    9.333 
#    0.000   11.111    0.000    5.333    0.000    0.000 
#    0.000    0.000    0.000    0.000    0.000    0.000 
#
# Total GULP energy -200615.197316 kJ/mol
# GULP energy per Si atom -5572.644370 kJ/mol
# Density = 2.359303 g / cm^3
# Si number density = 23.646854 Si / 1000 Ang^3
#
#
#
# Elastic Constant Matrix: (Units=GPa)
#
#
# Indices 1 2 3 4 5 6 
#
# 1 130.7219 29.2772 54.4528 0.0000 0.0000 0.0000
# 2 29.2772 52.4966 42.9191 0.0000 0.0000 0.0000
# 3 54.4528 42.9191 179.7541 0.0000 0.0000 0.0000
# 4 0.0000 0.0000 0.0000 51.4356 0.0000 0.0000
# 5 0.0000 0.0000 0.0000 0.0000 -59.9635 0.0000
# 6 0.0000 0.0000 0.0000 0.0000 0.0000 44.4016
#
#
#
# Elastic Compliance Matrix: (Units=1/GPa)
#
#
# Indices 1 2 3 4 5 6 
#
# 1 0.009263 -0.003568 -0.001954 0.000000 0.000000 0.000000
# 2 -0.003568 0.025044 -0.004899 0.000000 0.000000 0.000000
# 3 -0.001954 -0.004899 0.007325 0.000000 0.000000 0.000000
# 4 0.000000 0.000000 0.000000 0.019442 0.000000 0.000000
# 5 0.000000 0.000000 0.000000 0.000000 -0.016677 0.000000
# 6 0.000000 0.000000 0.000000 0.000000 0.000000 0.022522
#
#
# Mechanical properties :
#
#
# Convention : Reuss Voigt Hill
#
# Bulk Modulus (GPa) = 48.10135 68.47453 58.28794
# Shear Modulus (GPa) = 52.80375 22.92964 37.86669
#
# Velocity S-wave (km/s) = 4.73060 3.11733 4.00602
# Velocity P-wave (km/s) = 7.08688 6.47897 6.78973
#
# Compressibility (1/GPa) = 0.02078944
#
# Stress axis : x y z
#
# Youngs Moduli (GPa) = 107.95654 39.92989 136.52424
#
# Poissons Ratio (x) = 0.14249 0.26677
# Poissons Ratio (y) = 0.38524 0.66878
# Poissons Ratio (z) = 0.21095 0.19560
#
# Static dielectric constant tensor:
#      x y z
#    x 1.938980 0.000000 0.000000 
#    y 0.000000 2.021370 0.000000 
#    z 0.000000 0.000000 1.953880 
# 
# From -- ./inp_files/8687.got.cif
#   From: 2010.05.17/outbox.cif.g08.bks.cpg/sg68_5_cif.got.tgz:8687.got - 2010.06.03 18:57:09.
