data_PCOD9508737
_publ_section_title
;
Structure prediction by ZEFSAII (Michael W. Deem and Ramdas Pophale) SiO2 
 PCOD9508737
Probable space group: C C C A
;
_chemical_formula_sum "Si O2"
_cell_formula_units_Z 72
_cell_length_a 21.693752
_cell_length_b 13.751479
_cell_length_c 10.302837
_cell_angle_alpha 90.000000
_cell_angle_beta 90.000000
_cell_angle_gamma 90.000000
_cell_volume 3073.554440
_symmetry_space_group_name_H-M "C C C A"
_symmetry_group_IT_number 68
_space_group.IT_coordinate_system_code '2'
_symmetry_cell_setting 'orthorhombic'
loop_
_space_group_symop_operation_xyz
x,y,z
-x,1/2-y,z
x,1/2-y,1/2-z
-x,y,1/2-z
-x,-y,-z
x,1/2+y,-z
-x,1/2+y,1/2+z
x,-y,1/2+z
1/2+x,1/2+y,z
1/2-x,-y,z
1/2+x,-y,1/2-z
1/2-x,1/2+y,1/2-z
1/2-x,1/2-y,-z
1/2+x,y,-z
1/2-x,y,1/2+z
1/2+x,1/2-y,1/2+z
loop_
_atom_site_type_symbol
_atom_site_label
_atom_site_fract_x
_atom_site_fract_y
_atom_site_fract_z
Si Si1 0.500000 0.750000 0.519928
Si Si2 0.250000 0.000000 0.233348
Si Si3 0.716681 0.307713 0.615118
Si Si4 0.917047 0.094257 0.408832
Si Si5 0.905433 0.250000 0.750000
Si Si6 0.620824 0.965653 0.676887
O O1 0.474946 0.663524 0.431409
O O2 0.446048 0.775315 0.622608
O O3 0.252876 0.092696 0.140954
O O4 0.310553 0.992213 0.320034
O O5 0.719123 0.250000 0.750000
O O6 0.750000 0.250000 0.500000
O O7 0.645457 0.339199 0.592078
O O8 0.910117 0.029342 0.537565
O O9 0.916250 0.026091 0.283989
O O10 0.873346 0.148803 0.713576
#
# Coordination Sequence:
#
# PCOD9508737 Si02
#       6
#     8   8  16  16   8  16
#     4   9  20  42  69  96 132 183 241 298 356 435
#     4  10  24  40  64 106 140 182 236 288 350 438
#     4  11  25  43  71 103 145 192 232 293 359 429
#     4  10  23  44  70 102 140 183 240 294 357 429
#     4   9  20  40  72  96 134 188 244 289 370 431
#     4  10  22  41  68 103 138 188 234 297 354 433
#
# _framework density 23.425644999999999
#
# number of rings (size 3 to 8) (size 9 to 14) (size 15 to 20)
#    0.000    2.000    0.000    1.333    7.778   12.444 
#    2.000    0.556    0.000    1.333    0.000    0.000 
#    0.000    0.000    0.000    0.000    0.000    0.000 
#
# Total GULP energy -201474.512465 kJ/mol
# GULP energy per Si atom -5596.514235 kJ/mol
# Density = 2.337233 g / cm^3
# Si number density = 23.425645 Si / 1000 Ang^3
#
#
#
# Elastic Constant Matrix: (Units=GPa)
#
#
# Indices 1 2 3 4 5 6 
#
# 1 61.5268 36.6572 46.4215 0.0000 0.0000 0.0000
# 2 36.6572 109.3414 89.8442 0.0000 0.0000 0.0000
# 3 46.4215 89.8442 184.5311 0.0000 0.0000 0.0000
# 4 0.0000 0.0000 0.0000 42.5755 0.0000 0.0000
# 5 0.0000 0.0000 0.0000 0.0000 46.9627 0.0000
# 6 0.0000 0.0000 0.0000 0.0000 0.0000 30.3166
#
#
#
# Elastic Compliance Matrix: (Units=1/GPa)
#
#
# Indices 1 2 3 4 5 6 
#
# 1 0.021351 -0.004575 -0.003144 0.000000 0.000000 0.000000
# 2 -0.004575 0.016225 -0.006749 0.000000 0.000000 0.000000
# 3 -0.003144 -0.006749 0.009496 0.000000 0.000000 0.000000
# 4 0.000000 0.000000 0.000000 0.023488 0.000000 0.000000
# 5 0.000000 0.000000 0.000000 0.000000 0.021293 0.000000
# 6 0.000000 0.000000 0.000000 0.000000 0.000000 0.032985
#
#
# Mechanical properties :
#
#
# Convention : Reuss Voigt Hill
#
# Bulk Modulus (GPa) = 55.13636 77.91613 66.52625
# Shear Modulus (GPa) = 31.28583 36.13605 33.71094
#
# Velocity S-wave (km/s) = 3.65847 3.93184 3.79761
# Velocity P-wave (km/s) = 6.43690 7.34477 6.90577
#
# Compressibility (1/GPa) = 0.01813685
#
# Stress axis : x y z
#
# Youngs Moduli (GPa) = 46.83718 61.63505 105.31067
#
# Poissons Ratio (x) = 0.28196 0.33107
# Poissons Ratio (y) = 0.21427 0.71069
# Poissons Ratio (z) = 0.14724 0.41595
#
# Static dielectric constant tensor:
#      x y z
#    x 1.920580 0.000000 0.000000 
#    y 0.000000 1.892340 0.000000 
#    z 0.000000 0.000000 1.952180 
# 
# From -- ./inp_files/16187.got.cif
#   From: 2010.05.17/outbox.cif.g08.bks.cpg/sg68_9_cif.got.tgz:16187.got - 2010.06.03 18:57:09.
