data_PCOD9508040
_publ_section_title
;
Structure prediction by ZEFSAII (Michael W. Deem and Ramdas Pophale) SiO2 
 PCOD9508040
Probable space group: C C C A
;
_chemical_formula_sum "Si O2"
_cell_formula_units_Z 60
_cell_length_a 12.005391
_cell_length_b 17.186223
_cell_length_c 13.518242
_cell_angle_alpha 90.000000
_cell_angle_beta 90.000000
_cell_angle_gamma 90.000000
_cell_volume 2789.182737
_symmetry_space_group_name_H-M "C C C A"
_symmetry_group_IT_number 68
_space_group.IT_coordinate_system_code '2'
_symmetry_cell_setting 'orthorhombic'
loop_
_space_group_symop_operation_xyz
x,y,z
-x,1/2-y,z
x,1/2-y,1/2-z
-x,y,1/2-z
-x,-y,-z
x,1/2+y,-z
-x,1/2+y,1/2+z
x,-y,1/2+z
1/2+x,1/2+y,z
1/2-x,-y,z
1/2+x,-y,1/2-z
1/2-x,1/2+y,1/2-z
1/2-x,1/2-y,-z
1/2+x,y,-z
1/2-x,y,1/2+z
1/2+x,1/2-y,1/2+z
loop_
_atom_site_type_symbol
_atom_site_label
_atom_site_fract_x
_atom_site_fract_y
_atom_site_fract_z
Si Si1 0.305254 0.866061 0.424516
Si Si2 0.316041 0.639527 0.308108
Si Si3 0.500000 0.250000 0.750000
Si Si4 0.750000 0.000000 0.940603
Si Si5 0.376182 0.758598 0.588910
O O1 0.318836 0.878367 0.308609
O O2 0.317811 0.944935 0.485544
O O3 0.379804 0.805289 0.485558
O O4 0.183705 0.823915 0.431109
O O5 0.421662 0.695533 0.316390
O O6 0.315580 0.560796 0.371232
O O7 0.207792 0.690181 0.342034
O O8 0.500000 0.750000 0.629001
#
# Coordination Sequence:
#
# PCOD9508040 Si02
#       5
#    16  16   4   8  16
#     4  10  21  40  65  99 137 186 229 297 357 434
#     4  11  23  44  72 102 142 187 240 300 363 438
#     4  12  24  44  78 104 136 196 248 290 368 444
#     4  10  24  44  62 102 148 176 242 292 368 426
#     4  10  22  41  71 105 137 183 249 302 357 431
#
# _framework density 21.511676999999999
#
# number of rings (size 3 to 8) (size 9 to 14) (size 15 to 20)
#    0.000    1.600    2.667    0.800    1.867    2.133 
#    0.000   17.333    0.000    0.000    0.000    0.000 
#    0.000    0.000    0.000    0.000    0.000    0.000 
#
# Total GULP energy -167427.014921 kJ/mol
# GULP energy per Si atom -5580.900497 kJ/mol
# Density = 2.146272 g / cm^3
# Si number density = 21.511677 Si / 1000 Ang^3
#
#
#
# Elastic Constant Matrix: (Units=GPa)
#
#
# Indices 1 2 3 4 5 6 
#
# 1 124.4472 53.5407 37.2233 0.0000 0.0000 0.0000
# 2 53.5407 149.4624 76.1196 0.0000 0.0000 0.0000
# 3 37.2233 76.1196 194.3978 0.0000 0.0000 0.0000
# 4 0.0000 0.0000 0.0000 48.5731 0.0000 0.0000
# 5 0.0000 0.0000 0.0000 0.0000 17.6561 0.0000
# 6 0.0000 0.0000 0.0000 0.0000 0.0000 5.2443
#
#
#
# Elastic Compliance Matrix: (Units=1/GPa)
#
#
# Indices 1 2 3 4 5 6 
#
# 1 0.009557 -0.003112 -0.000611 0.000000 0.000000 0.000000
# 2 -0.003112 0.009371 -0.003073 0.000000 0.000000 0.000000
# 3 -0.000611 -0.003073 0.006465 0.000000 0.000000 0.000000
# 4 0.000000 0.000000 0.000000 0.020588 0.000000 0.000000
# 5 0.000000 0.000000 0.000000 0.000000 0.056638 0.000000
# 6 0.000000 0.000000 0.000000 0.000000 0.000000 0.190685
#
#
# Mechanical properties :
#
#
# Convention : Reuss Voigt Hill
#
# Bulk Modulus (GPa) = 84.75504 89.11941 86.93722
# Shear Modulus (GPa) = 16.08596 34.38960 25.23778
#
# Velocity S-wave (km/s) = 2.73752 4.00265 3.42894
# Velocity P-wave (km/s) = 7.03400 7.92969 7.49523
#
# Compressibility (1/GPa) = 0.01179871
#
# Stress axis : x y z
#
# Youngs Moduli (GPa) = 104.63091 106.71501 154.68940
#
# Poissons Ratio (x) = 0.33213 0.09457
# Poissons Ratio (y) = 0.32564 0.47541
# Poissons Ratio (z) = 0.06397 0.32797
#
# Static dielectric constant tensor:
#      x y z
#    x 1.785570 0.000000 0.000000 
#    y 0.000000 1.799330 0.000000 
#    z 0.000000 0.000000 1.846290 
# 
# From -- ./inp_files/20362.got.cif
#   From: 2010.05.17/outbox.cif.g08.bks.cpg/sg68_11_cif.got.tgz:20362.got - 2010.06.03 18:57:09.
