data_PCOD9508518
_publ_section_title
;
Structure prediction by ZEFSAII (Michael W. Deem and Ramdas Pophale) SiO2 
 PCOD9508518
Probable space group: C C C A
;
_chemical_formula_sum "Si O2"
_cell_formula_units_Z 80
_cell_length_a 14.063106
_cell_length_b 18.392768
_cell_length_c 12.776146
_cell_angle_alpha 90.000000
_cell_angle_beta 90.000000
_cell_angle_gamma 90.000000
_cell_volume 3304.670847
_symmetry_space_group_name_H-M "C C C A"
_symmetry_group_IT_number 68
_space_group.IT_coordinate_system_code '2'
_symmetry_cell_setting 'orthorhombic'
loop_
_space_group_symop_operation_xyz
x,y,z
-x,1/2-y,z
x,1/2-y,1/2-z
-x,y,1/2-z
-x,-y,-z
x,1/2+y,-z
-x,1/2+y,1/2+z
x,-y,1/2+z
1/2+x,1/2+y,z
1/2-x,-y,z
1/2+x,-y,1/2-z
1/2-x,1/2+y,1/2-z
1/2-x,1/2-y,-z
1/2+x,y,-z
1/2-x,y,1/2+z
1/2+x,1/2-y,1/2+z
loop_
_atom_site_type_symbol
_atom_site_label
_atom_site_fract_x
_atom_site_fract_y
_atom_site_fract_z
Si Si1 0.810159 0.250000 0.750000
Si Si2 0.391898 0.462660 0.226032
Si Si3 0.500000 0.100887 0.750000
Si Si4 0.951420 0.327546 0.035322
Si Si5 0.383567 0.873831 0.592979
Si Si6 0.768179 0.639616 0.416086
O O1 0.869367 0.304267 0.672197
O O2 0.750185 0.197112 0.676296
O O3 0.500000 0.431004 0.250000
O O4 0.416172 0.546602 0.210674
O O5 0.349221 0.442430 0.338781
O O6 0.324252 0.427124 0.139635
O O7 0.538367 0.145015 0.847374
O O8 0.000000 0.250000 0.026585
O O9 0.845087 0.325633 0.995037
O O10 0.010722 0.377332 0.954301
O O11 0.320990 0.871880 0.488811
#
# Coordination Sequence:
#
# PCOD9508518 Si02
#       6
#     8  16   8  16  16  16
#     4  10  22  39  64  99 150 170 224 285 354 397
#     4   9  21  45  73  92 135 188 230 275 339 406
#     4  10  25  46  66  97 142 188 226 296 332 407
#     4  12  24  42  69 101 137 184 231 280 355 406
#     4  11  23  41  71 108 135 180 232 288 340 415
#     4  11  23  41  71 108 135 180 232 288 340 415
#
# _framework density 24.208158000000001
#
# number of rings (size 3 to 8) (size 9 to 14) (size 15 to 20)
#    0.600    0.800    4.000    0.900    0.000    7.200 
#    0.000    6.000    0.000    0.000    0.000    0.000 
#    0.000    0.000    0.000    0.000    0.000    0.000 
#
# Total GULP energy -223539.602466 kJ/mol
# GULP energy per Si atom -5588.490062 kJ/mol
# Density = 2.415306 g / cm^3
# Si number density = 24.208158 Si / 1000 Ang^3
#
#
#
# Elastic Constant Matrix: (Units=GPa)
#
#
# Indices 1 2 3 4 5 6 
#
# 1 64.6197 3.6624 17.7079 0.0000 0.0000 0.0000
# 2 3.6624 27.2588 27.0477 0.0000 0.0000 0.0000
# 3 17.7079 27.0477 150.0950 0.0000 0.0000 0.0000
# 4 0.0000 0.0000 0.0000 -3.4954 0.0000 0.0000
# 5 0.0000 0.0000 0.0000 0.0000 30.4174 0.0000
# 6 0.0000 0.0000 0.0000 0.0000 0.0000 13.2866
#
#
#
# Elastic Compliance Matrix: (Units=1/GPa)
#
#
# Indices 1 2 3 4 5 6 
#
# 1 0.015995 -0.000337 -0.001826 0.000000 0.000000 0.000000
# 2 -0.000337 0.044680 -0.008012 0.000000 0.000000 0.000000
# 3 -0.001826 -0.008012 0.008322 0.000000 0.000000 0.000000
# 4 0.000000 0.000000 0.000000 -0.286093 0.000000 0.000000
# 5 0.000000 0.000000 0.000000 0.000000 0.032876 0.000000
# 6 0.000000 0.000000 0.000000 0.000000 0.000000 0.075264
#
#
# Mechanical properties :
#
#
# Convention : Reuss Voigt Hill
#
# Bulk Modulus (GPa) = 20.55633 37.64552 29.10093
# Shear Modulus (GPa) = -69.06985 20.94542 -24.06222
#
# Velocity S-wave (km/s) = -5.34730 2.94466 -3.15615
# Velocity P-wave (km/s) = 5.44195 5.21017 1.11108
#
# Compressibility (1/GPa) = 0.04864682
#
# Stress axis : x y z
#
# Youngs Moduli (GPa) = 62.52065 22.38117 120.16798
#
# Poissons Ratio (x) = 0.00754 0.21947
# Poissons Ratio (y) = 0.02106 0.96277
# Poissons Ratio (z) = 0.11418 0.17931
#
# Static dielectric constant tensor:
#      x y z
#    x 2.025080 0.000000 0.000000 
#    y 0.000000 1.986130 0.000000 
#    z 0.000000 0.000000 1.908990 
# 
# From -- ./inp_files/13269.got.cif
#   From: 2010.05.17/outbox.cif.g08.bks.cpg/sg68_7_cif.got.tgz:13269.got - 2010.06.03 18:57:09.
