data_PCOD9508583
_publ_section_title
;
Structure prediction by ZEFSAII (Michael W. Deem and Ramdas Pophale) SiO2 
 PCOD9508583
Probable space group: C C C A
;
_chemical_formula_sum "Si O2"
_cell_formula_units_Z 48
_cell_length_a 14.190372
_cell_length_b 17.112664
_cell_length_c 8.110301
_cell_angle_alpha 90.000000
_cell_angle_beta 90.000000
_cell_angle_gamma 90.000000
_cell_volume 1969.465495
_symmetry_space_group_name_H-M "C C C A"
_symmetry_group_IT_number 68
_space_group.IT_coordinate_system_code '2'
_symmetry_cell_setting 'orthorhombic'
loop_
_space_group_symop_operation_xyz
x,y,z
-x,1/2-y,z
x,1/2-y,1/2-z
-x,y,1/2-z
-x,-y,-z
x,1/2+y,-z
-x,1/2+y,1/2+z
x,-y,1/2+z
1/2+x,1/2+y,z
1/2-x,-y,z
1/2+x,-y,1/2-z
1/2-x,1/2+y,1/2-z
1/2-x,1/2-y,-z
1/2+x,y,-z
1/2-x,y,1/2+z
1/2+x,1/2-y,1/2+z
loop_
_atom_site_type_symbol
_atom_site_label
_atom_site_fract_x
_atom_site_fract_y
_atom_site_fract_z
Si Si1 0.229811 0.660460 0.733532
Si Si2 0.565172 0.588800 0.084353
Si Si3 0.881689 0.411146 0.573192
O O1 0.258164 0.750000 0.750000
O O2 0.148328 0.646962 0.870866
O O3 0.177714 0.632539 0.568575
O O4 0.321123 0.607546 0.766257
O O5 0.500000 0.579120 0.250000
O O6 0.610475 0.504325 0.049198
O O7 0.490164 0.614436 0.947006
#
# Coordination Sequence:
#
# PCOD9508583 Si02
#       3
#    16  16  16
#     4  11  23  41  65  96 129 165 210 268 329 377
#     4   9  21  40  64  93 126 168 214 260 313 382
#     4  10  22  40  63  92 126 169 215 259 318 386
#
# _framework density 24.372095000000002
#
# number of rings (size 3 to 8) (size 9 to 14) (size 15 to 20)
#    0.000    2.000    0.000    2.000    0.000   19.333 
#    0.000    3.333    0.000    2.000    0.000    0.000 
#    0.000    0.000    0.000    0.000    0.000    0.000 
#
# Total GULP energy -134304.761345 kJ/mol
# GULP energy per Si atom -5596.031723 kJ/mol
# Density = 2.431662 g / cm^3
# Si number density = 24.372095 Si / 1000 Ang^3
#
#
#
# Elastic Constant Matrix: (Units=GPa)
#
#
# Indices 1 2 3 4 5 6 
#
# 1 140.2514 55.8090 28.4237 0.0000 0.0000 0.0000
# 2 55.8090 66.0839 14.4842 0.0000 0.0000 0.0000
# 3 28.4237 14.4842 55.2576 0.0000 0.0000 0.0000
# 4 0.0000 0.0000 0.0000 27.8406 0.0000 0.0000
# 5 0.0000 0.0000 0.0000 0.0000 29.7833 0.0000
# 6 0.0000 0.0000 0.0000 0.0000 0.0000 -1.8262
#
#
#
# Elastic Compliance Matrix: (Units=1/GPa)
#
#
# Indices 1 2 3 4 5 6 
#
# 1 0.011353 -0.008814 -0.003529 0.000000 0.000000 0.000000
# 2 -0.008814 0.022898 -0.001468 0.000000 0.000000 0.000000
# 3 -0.003529 -0.001468 0.020297 0.000000 0.000000 0.000000
# 4 0.000000 0.000000 0.000000 0.035919 0.000000 0.000000
# 5 0.000000 0.000000 0.000000 0.000000 0.033576 0.000000
# 6 0.000000 0.000000 0.000000 0.000000 0.000000 -0.547595
#
#
# Mechanical properties :
#
#
# Convention : Reuss Voigt Hill
#
# Bulk Modulus (GPa) = 37.14061 51.00295 44.07178
# Shear Modulus (GPa) = -12.92140 22.01795 4.54828
#
# Velocity S-wave (km/s) = -2.30504 3.00894 1.36756
# Velocity P-wave (km/s) = 2.86143 5.74837 4.54046
#
# Compressibility (1/GPa) = 0.02692471
#
# Stress axis : x y z
#
# Youngs Moduli (GPa) = 88.08613 43.67281 49.26758
#
# Poissons Ratio (x) = 0.38493 0.17388
# Poissons Ratio (y) = 0.77638 0.07233
# Poissons Ratio (z) = 0.31088 0.06412
#
# Static dielectric constant tensor:
#      x y z
#    x 1.903010 0.000000 0.000000 
#    y 0.000000 1.824570 0.000000 
#    z 0.000000 0.000000 2.131840 
# 
# From -- ./inp_files/4405.got.cif
#   From: 2010.05.17/outbox.cif.g08.bks.cpg/sg68_3_cif.got.tgz:4405.got - 2010.06.03 18:57:09.
