data_PCOD9508303
_publ_section_title
;
Structure prediction by ZEFSAII (Michael W. Deem and Ramdas Pophale) SiO2 
 PCOD9508303
Probable space group: C C C A
;
_chemical_formula_sum "Si O2"
_cell_formula_units_Z 80
_cell_length_a 23.921267
_cell_length_b 16.253656
_cell_length_c 9.822158
_cell_angle_alpha 90.000000
_cell_angle_beta 90.000000
_cell_angle_gamma 90.000000
_cell_volume 3818.934049
_symmetry_space_group_name_H-M "C C C A"
_symmetry_group_IT_number 68
_space_group.IT_coordinate_system_code '2'
_symmetry_cell_setting 'orthorhombic'
loop_
_space_group_symop_operation_xyz
x,y,z
-x,1/2-y,z
x,1/2-y,1/2-z
-x,y,1/2-z
-x,-y,-z
x,1/2+y,-z
-x,1/2+y,1/2+z
x,-y,1/2+z
1/2+x,1/2+y,z
1/2-x,-y,z
1/2+x,-y,1/2-z
1/2-x,1/2+y,1/2-z
1/2-x,1/2-y,-z
1/2+x,y,-z
1/2-x,y,1/2+z
1/2+x,1/2-y,1/2+z
loop_
_atom_site_type_symbol
_atom_site_label
_atom_site_fract_x
_atom_site_fract_y
_atom_site_fract_z
Si Si1 0.390912 0.744310 0.594111
Si Si2 0.284199 0.665177 0.489002
Si Si3 0.670660 0.914321 0.992081
Si Si4 0.350315 0.439532 0.792411
Si Si5 0.556791 0.821173 0.337148
O O1 0.408689 0.750000 0.750000
O O2 0.339279 0.679167 0.579688
O O3 0.363203 0.830864 0.545325
O O4 0.438830 0.714750 0.489476
O O5 0.250000 0.750000 0.500000
O O6 0.235863 0.601566 0.524276
O O7 0.308193 0.633324 0.343943
O O8 0.665580 0.978535 0.870722
O O9 0.647461 0.949795 0.132100
O O10 0.410492 0.405857 0.837253
O O11 0.588730 0.750000 0.250000
O O12 0.500000 0.831058 0.250000
#
# Coordination Sequence:
#
# PCOD9508303 Si02
#       5
#    16  16  16  16  16
#     4  10  22  40  69  98 131 171 233 290 336 415
#     4   9  22  36  62  93 132 179 228 268 323 400
#     4  11  24  39  60  94 143 178 222 276 344 412
#     4  11  24  40  62  95 135 184 222 280 342 412
#     4  10  21  45  74  91 120 174 232 290 355 405
#
# _framework density 20.948255
#
# number of rings (size 3 to 8) (size 9 to 14) (size 15 to 20)
#    0.000    1.800    2.000    0.600   11.200    1.600 
#    0.000    3.000    0.000    0.000    0.000    0.000 
#    0.000    0.000    0.000    0.000    0.000    0.000 
#
# Total GULP energy -222954.535378 kJ/mol
# GULP energy per Si atom -5573.863384 kJ/mol
# Density = 2.090058 g / cm^3
# Si number density = 20.948255 Si / 1000 Ang^3
#
#
#
# Elastic Constant Matrix: (Units=GPa)
#
#
# Indices 1 2 3 4 5 6 
#
# 1 98.2564 32.2722 36.2741 0.0000 0.0000 0.0000
# 2 32.2722 85.6518 29.9776 0.0000 0.0000 0.0000
# 3 36.2741 29.9776 169.9908 0.0000 0.0000 0.0000
# 4 0.0000 0.0000 0.0000 29.9743 0.0000 0.0000
# 5 0.0000 0.0000 0.0000 0.0000 28.0156 0.0000
# 6 0.0000 0.0000 0.0000 0.0000 0.0000 9.7058
#
#
#
# Elastic Compliance Matrix: (Units=1/GPa)
#
#
# Indices 1 2 3 4 5 6 
#
# 1 0.012168 -0.003918 -0.001906 0.000000 0.000000 0.000000
# 2 -0.003918 0.013705 -0.001581 0.000000 0.000000 0.000000
# 3 -0.001906 -0.001581 0.006568 0.000000 0.000000 0.000000
# 4 0.000000 0.000000 0.000000 0.033362 0.000000 0.000000
# 5 0.000000 0.000000 0.000000 0.000000 0.035694 0.000000
# 6 0.000000 0.000000 0.000000 0.000000 0.000000 0.103031
#
#
# Mechanical properties :
#
#
# Convention : Reuss Voigt Hill
#
# Bulk Modulus (GPa) = 56.71416 61.21631 58.96523
# Shear Modulus (GPa) = 22.20123 30.56417 26.38270
#
# Velocity S-wave (km/s) = 3.25901 3.82387 3.55268
# Velocity P-wave (km/s) = 6.42602 6.98442 6.71103
#
# Compressibility (1/GPa) = 0.01763228
#
# Stress axis : x y z
#
# Youngs Moduli (GPa) = 82.18481 72.96848 152.25176
#
# Poissons Ratio (x) = 0.28587 0.29013
# Poissons Ratio (y) = 0.32197 0.24068
# Poissons Ratio (z) = 0.15661 0.11535
#
# Static dielectric constant tensor:
#      x y z
#    x 1.804750 0.000000 0.000000 
#    y 0.000000 1.799660 0.000000 
#    z 0.000000 0.000000 1.751590 
# 
# From -- ./inp_files/6251.got.cif
#   From: 2010.05.17/outbox.cif.g08.bks.cpg/sg68_4_cif.got.tgz:6251.got - 2010.06.03 18:57:09.
