data_PCOD9508831
_publ_section_title
;
Structure prediction by ZEFSAII (Michael W. Deem and Ramdas Pophale) SiO2 
 PCOD9508831
Probable space group: C C C A
;
_chemical_formula_sum "Si O2"
_cell_formula_units_Z 88
_cell_length_a 20.539546
_cell_length_b 23.974019
_cell_length_c 8.266013
_cell_angle_alpha 90.000000
_cell_angle_beta 90.000000
_cell_angle_gamma 90.000000
_cell_volume 4070.312644
_symmetry_space_group_name_H-M "C C C A"
_symmetry_group_IT_number 68
_space_group.IT_coordinate_system_code '2'
_symmetry_cell_setting 'orthorhombic'
loop_
_space_group_symop_operation_xyz
x,y,z
-x,1/2-y,z
x,1/2-y,1/2-z
-x,y,1/2-z
-x,-y,-z
x,1/2+y,-z
-x,1/2+y,1/2+z
x,-y,1/2+z
1/2+x,1/2+y,z
1/2-x,-y,z
1/2+x,-y,1/2-z
1/2-x,1/2+y,1/2-z
1/2-x,1/2-y,-z
1/2+x,y,-z
1/2-x,y,1/2+z
1/2+x,1/2-y,1/2+z
loop_
_atom_site_type_symbol
_atom_site_label
_atom_site_fract_x
_atom_site_fract_y
_atom_site_fract_z
Si Si1 0.787523 0.750000 0.250000
Si Si2 0.748687 0.436593 0.593374
Si Si3 0.312999 0.321296 0.960891
Si Si4 0.146955 0.049594 0.386142
Si Si5 0.955945 0.955089 0.093863
Si Si6 0.565865 0.865786 0.317121
O O1 0.742526 0.709936 0.140828
O O2 0.825277 0.710699 0.373298
O O3 0.750000 0.500000 0.526616
O O4 0.712425 0.384450 0.511281
O O5 0.825749 0.427548 0.558325
O O6 0.707292 0.443228 0.758662
O O7 0.376931 0.323433 0.853299
O O8 0.092120 0.090294 0.315368
O O9 0.112691 0.988825 0.383651
O O10 0.000000 0.941670 0.250000
O O11 0.944683 0.902158 0.979634
O O12 0.000000 0.000000 0.000000
O O13 0.500000 0.840823 0.250000
#
# Coordination Sequence:
#
# PCOD9508831 Si02
#       6
#     8  16  16  16  16  16
#     4  10  22  46  69  96 131 182 230 288 346 406
#     4  11  23  35  59 100 137 165 208 284 349 416
#     4  10  22  42  69  97 132 176 229 281 352 411
#     4  11  21  37  55  89 136 178 219 263 338 414
#     4  12  22  40  61  87 136 195 223 262 328 426
#     4  11  22  40  64  94 129 174 235 282 339 417
#
# _framework density 21.619959999999999
#
# number of rings (size 3 to 8) (size 9 to 14) (size 15 to 20)
#    0.000    1.091    3.636    4.909    0.000    1.455 
#    0.000    2.273    0.000    0.000    0.000    1.273 
#    0.000    0.000    0.000    0.000    0.000    0.000 
#
# Total GULP energy -245355.511225 kJ/mol
# GULP energy per Si atom -5576.261619 kJ/mol
# Density = 2.157075 g / cm^3
# Si number density = 21.619960 Si / 1000 Ang^3
#
#
#
# Elastic Constant Matrix: (Units=GPa)
#
#
# Indices 1 2 3 4 5 6 
#
# 1 98.7859 17.2169 23.8808 0.0000 0.0000 0.0000
# 2 17.2169 77.2285 17.2122 0.0000 0.0000 0.0000
# 3 23.8808 17.2122 40.6052 0.0000 0.0000 0.0000
# 4 0.0000 0.0000 0.0000 34.0103 0.0000 0.0000
# 5 0.0000 0.0000 0.0000 0.0000 51.1320 0.0000
# 6 0.0000 0.0000 0.0000 0.0000 0.0000 7.1409
#
#
#
# Elastic Compliance Matrix: (Units=1/GPa)
#
#
# Indices 1 2 3 4 5 6 
#
# 1 0.011902 -0.001207 -0.006488 0.000000 0.000000 0.000000
# 2 -0.001207 0.014422 -0.005403 0.000000 0.000000 0.000000
# 3 -0.006488 -0.005403 0.030733 0.000000 0.000000 0.000000
# 4 0.000000 0.000000 0.000000 0.029403 0.000000 0.000000
# 5 0.000000 0.000000 0.000000 0.000000 0.019557 0.000000
# 6 0.000000 0.000000 0.000000 0.000000 0.000000 0.140039
#
#
# Mechanical properties :
#
#
# Convention : Reuss Voigt Hill
#
# Bulk Modulus (GPa) = 32.40424 37.02658 34.71541
# Shear Modulus (GPa) = 17.69661 29.01061 23.35361
#
# Velocity S-wave (km/s) = 2.86410 3.66709 3.29019
# Velocity P-wave (km/s) = 5.09491 5.92397 5.52501
#
# Compressibility (1/GPa) = 0.03086016
#
# Stress axis : x y z
#
# Youngs Moduli (GPa) = 84.02148 69.33853 32.53786
#
# Poissons Ratio (x) = 0.08371 0.21110
# Poissons Ratio (y) = 0.10144 0.17581
# Poissons Ratio (z) = 0.54512 0.37466
#
# Static dielectric constant tensor:
#      x y z
#    x 1.948670 0.000000 0.000000 
#    y 0.000000 1.801850 0.000000 
#    z 0.000000 0.000000 1.834200 
# 
# From -- ./inp_files/7144.got.cif
#   From: 2010.05.17/outbox.cif.g08.bks.cpg/sg68_4_cif.got.tgz:7144.got - 2010.06.03 18:57:09.
