data_PCOD9508206
_publ_section_title
;
Structure prediction by ZEFSAII (Michael W. Deem and Ramdas Pophale) SiO2 
 PCOD9508206
Probable space group: C C C A
;
_chemical_formula_sum "Si O2"
_cell_formula_units_Z 88
_cell_length_a 10.301874
_cell_length_b 12.241658
_cell_length_c 28.222151
_cell_angle_alpha 90.000000
_cell_angle_beta 90.000000
_cell_angle_gamma 90.000000
_cell_volume 3559.152422
_symmetry_space_group_name_H-M "C C C A"
_symmetry_group_IT_number 68
_space_group.IT_coordinate_system_code '2'
_symmetry_cell_setting 'orthorhombic'
loop_
_space_group_symop_operation_xyz
x,y,z
-x,1/2-y,z
x,1/2-y,1/2-z
-x,y,1/2-z
-x,-y,-z
x,1/2+y,-z
-x,1/2+y,1/2+z
x,-y,1/2+z
1/2+x,1/2+y,z
1/2-x,-y,z
1/2+x,-y,1/2-z
1/2-x,1/2+y,1/2-z
1/2-x,1/2-y,-z
1/2+x,y,-z
1/2-x,y,1/2+z
1/2+x,1/2-y,1/2+z
loop_
_atom_site_type_symbol
_atom_site_label
_atom_site_fract_x
_atom_site_fract_y
_atom_site_fract_z
Si Si1 0.250000 0.500000 0.773718
Si Si2 0.131200 0.680029 0.021939
Si Si3 0.869204 0.839119 0.208211
Si Si4 0.066398 0.369269 0.426249
Si Si5 0.354711 0.300528 0.833977
Si Si6 0.883564 0.554419 0.381859
O O1 0.146683 0.445907 0.739059
O O2 0.322878 0.406608 0.803022
O O3 0.156873 0.624076 0.072031
O O4 0.000000 0.750000 0.029500
O O5 0.250000 0.750000 0.000000
O O6 0.105690 0.595263 0.978710
O O7 0.887522 0.750000 0.250000
O O8 0.739472 0.793065 0.183999
O O9 0.948292 0.874884 0.160966
O O10 0.174905 0.338961 0.387689
O O11 0.000000 0.250000 0.433106
O O12 0.977133 0.458604 0.400754
O O13 0.500000 0.250000 0.831258
O O14 0.750000 0.500000 0.363856
#
# Coordination Sequence:
#
# PCOD9508206 Si02
#       6
#     8  16  16  16  16  16
#     4  10  22  38  62 100 132 178 252 300 366 440
#     4  11  24  46  74 109 153 194 240 306 377 459
#     4  10  22  41  65  93 138 187 243 308 368 443
#     4  10  22  41  68 106 136 187 244 293 377 463
#     4  10  21  42  67  97 133 183 241 305 374 452
#     4  12  22  42  72 103 145 191 243 308 377 451
#
# _framework density 24.724986000000001
#
# number of rings (size 3 to 8) (size 9 to 14) (size 15 to 20)
#    0.000    1.455    0.909    6.000    0.000    3.273 
#   11.455    0.000    0.000    0.000    0.000    0.000 
#    0.000    0.000    0.000    0.000    0.000    0.000 
#
# Total GULP energy -245681.425074 kJ/mol
# GULP energy per Si atom -5583.668752 kJ/mol
# Density = 2.466871 g / cm^3
# Si number density = 24.724986 Si / 1000 Ang^3
#
#
#
# Elastic Constant Matrix: (Units=GPa)
#
#
# Indices 1 2 3 4 5 6 
#
# 1 63.4668 23.1469 11.6023 0.0000 0.0000 0.0000
# 2 23.1469 130.5267 72.8009 0.0000 0.0000 0.0000
# 3 11.6023 72.8009 216.6075 0.0000 0.0000 0.0000
# 4 0.0000 0.0000 0.0000 50.8674 0.0000 0.0000
# 5 0.0000 0.0000 0.0000 0.0000 24.9591 0.0000
# 6 0.0000 0.0000 0.0000 0.0000 0.0000 -2.6627
#
#
#
# Elastic Compliance Matrix: (Units=1/GPa)
#
#
# Indices 1 2 3 4 5 6 
#
# 1 0.016849 -0.003058 0.000125 0.000000 0.000000 0.000000
# 2 -0.003058 0.009984 -0.003192 0.000000 0.000000 0.000000
# 3 0.000125 -0.003192 0.005683 0.000000 0.000000 0.000000
# 4 0.000000 0.000000 0.000000 0.019659 0.000000 0.000000
# 5 0.000000 0.000000 0.000000 0.000000 0.040066 0.000000
# 6 0.000000 0.000000 0.000000 0.000000 0.000000 -0.375558
#
#
# Mechanical properties :
#
#
# Convention : Reuss Voigt Hill
#
# Bulk Modulus (GPa) = 49.34240 69.52236 59.43238
# Shear Modulus (GPa) = -18.91682 34.83615 7.95966
#
# Velocity S-wave (km/s) = -2.76903 3.75766 1.79618
# Velocity P-wave (km/s) = 3.12674 6.85609 5.32834
#
# Compressibility (1/GPa) = 0.02026654
#
# Stress axis : x y z
#
# Youngs Moduli (GPa) = 59.35234 100.16371 175.97415
#
# Poissons Ratio (x) = 0.30627 -0.02203
# Poissons Ratio (y) = 0.18148 0.56165
# Poissons Ratio (z) = -0.00743 0.31969
#
# Static dielectric constant tensor:
#      x y z
#    x 2.005770 0.000000 0.000000 
#    y 0.000000 1.912460 0.000000 
#    z 0.000000 0.000000 2.003320 
# 
# From -- ./inp_files/54658.got.cif
#   From: 2010.05.17/outbox.cif.g08.bks.cpg/sg68_28_cif.got.tgz:54658.got - 2010.06.03 18:57:09.
