data_PCOD9508859
_publ_section_title
;
Structure prediction by ZEFSAII (Michael W. Deem and Ramdas Pophale) SiO2 
 PCOD9508859
Probable space group: C C C A
;
_chemical_formula_sum "Si O2"
_cell_formula_units_Z 104
_cell_length_a 30.991263
_cell_length_b 8.403479
_cell_length_c 18.037644
_cell_angle_alpha 90.000000
_cell_angle_beta 90.000000
_cell_angle_gamma 90.000000
_cell_volume 4697.623494
_symmetry_space_group_name_H-M "C C C A"
_symmetry_group_IT_number 68
_space_group.IT_coordinate_system_code '2'
_symmetry_cell_setting 'orthorhombic'
loop_
_space_group_symop_operation_xyz
x,y,z
-x,1/2-y,z
x,1/2-y,1/2-z
-x,y,1/2-z
-x,-y,-z
x,1/2+y,-z
-x,1/2+y,1/2+z
x,-y,1/2+z
1/2+x,1/2+y,z
1/2-x,-y,z
1/2+x,-y,1/2-z
1/2-x,1/2+y,1/2-z
1/2-x,1/2-y,-z
1/2+x,y,-z
1/2-x,y,1/2+z
1/2+x,1/2-y,1/2+z
loop_
_atom_site_type_symbol
_atom_site_label
_atom_site_fract_x
_atom_site_fract_y
_atom_site_fract_z
Si Si1 0.250000 0.000000 0.823122
Si Si2 0.591020 0.563154 0.835358
Si Si3 0.167563 0.428301 0.426917
Si Si4 0.832770 0.157170 0.183439
Si Si5 0.503175 0.558244 0.916047
Si Si6 0.210031 0.766630 0.443681
Si Si7 0.914055 0.060572 0.842844
O O1 0.290741 0.073185 0.781331
O O2 0.226729 0.129455 0.875469
O O3 0.633511 0.462312 0.853429
O O4 0.547761 0.507477 0.877035
O O5 0.594778 0.750301 0.854388
O O6 0.587510 0.545431 0.746142
O O7 0.183543 0.283133 0.376240
O O8 0.194159 0.591638 0.421892
O O9 0.173203 0.360866 0.509875
O O10 0.120839 0.467885 0.392513
O O11 0.855465 0.250000 0.250000
O O12 0.500000 0.750000 0.915586
O O13 0.461146 0.508280 0.870013
O O14 0.500000 0.500000 0.000000
O O15 0.250000 0.750000 0.500000
#
# Coordination Sequence:
#
# PCOD9508859 Si02
#       7
#     8  16  16  16  16  16  16
#     4  12  26  44  66  96 134 174 236 290 360 406
#     4  10  22  47  70 100 144 183 236 282 355 427
#     4  12  24  42  70  97 139 175 241 281 356 423
#     4  12  26  45  66 101 137 186 234 291 348 432
#     4  10  23  42  69 106 143 180 229 285 347 416
#     4  12  23  43  68  97 132 184 231 296 359 422
#     4  10  22  42  75 103 134 189 230 290 351 421
#
# _framework density 22.138853999999998
#
# number of rings (size 3 to 8) (size 9 to 14) (size 15 to 20)
#    0.000    0.923    4.615    1.385    0.000    9.231 
#    2.769    0.000    0.000    0.000    0.000    0.000 
#    0.000    0.000    0.000    0.000    0.000    0.000 
#
# Total GULP energy -290641.141626 kJ/mol
# GULP energy per Si atom -5589.252724 kJ/mol
# Density = 2.208846 g / cm^3
# Si number density = 22.138854 Si / 1000 Ang^3
#
#
#
# Elastic Constant Matrix: (Units=GPa)
#
#
# Indices 1 2 3 4 5 6 
#
# 1 147.6204 53.8273 42.2738 0.0000 0.0000 0.0000
# 2 53.8273 77.4333 29.4496 0.0000 0.0000 0.0000
# 3 42.2738 29.4496 69.6381 0.0000 0.0000 0.0000
# 4 0.0000 0.0000 0.0000 40.1885 0.0000 0.0000
# 5 0.0000 0.0000 0.0000 0.0000 34.4724 0.0000
# 6 0.0000 0.0000 0.0000 0.0000 0.0000 30.1249
#
#
#
# Elastic Compliance Matrix: (Units=1/GPa)
#
#
# Indices 1 2 3 4 5 6 
#
# 1 0.009797 -0.005420 -0.003655 0.000000 0.000000 0.000000
# 2 -0.005420 0.018388 -0.004486 0.000000 0.000000 0.000000
# 3 -0.003655 -0.004486 0.018476 0.000000 0.000000 0.000000
# 4 0.000000 0.000000 0.000000 0.024883 0.000000 0.000000
# 5 0.000000 0.000000 0.000000 0.000000 0.029009 0.000000
# 6 0.000000 0.000000 0.000000 0.000000 0.000000 0.033195
#
#
# Mechanical properties :
#
#
# Convention : Reuss Voigt Hill
#
# Bulk Modulus (GPa) = 51.18069 60.64367 55.91218
# Shear Modulus (GPa) = 29.87143 32.23324 31.05234
#
# Velocity S-wave (km/s) = 3.67723 3.81984 3.74922
# Velocity P-wave (km/s) = 6.41854 6.84885 6.63718
#
# Compressibility (1/GPa) = 0.01953862
#
# Stress axis : x y z
#
# Youngs Moduli (GPa) = 102.06877 54.38217 54.12457
#
# Poissons Ratio (x) = 0.29477 0.19784
# Poissons Ratio (y) = 0.55325 0.24280
# Poissons Ratio (z) = 0.37308 0.24395
#
# Static dielectric constant tensor:
#      x y z
#    x 1.838900 0.000000 0.000000 
#    y 0.000000 1.877530 0.000000 
#    z 0.000000 0.000000 1.794270 
# 
# From -- ./inp_files/41352.got.cif
#   From: 2010.05.17/outbox.cif.g08.bks.cpg/sg68_21_cif.got.tgz:41352.got - 2010.06.03 18:57:09.
