data_PCOD9508368
_publ_section_title
;
Structure prediction by ZEFSAII (Michael W. Deem and Ramdas Pophale) SiO2 
 PCOD9508368
Probable space group: C C C A
;
_chemical_formula_sum "Si O2"
_cell_formula_units_Z 72
_cell_length_a 24.509410
_cell_length_b 8.791129
_cell_length_c 14.265632
_cell_angle_alpha 90.000000
_cell_angle_beta 90.000000
_cell_angle_gamma 90.000000
_cell_volume 3073.749891
_symmetry_space_group_name_H-M "C C C A"
_symmetry_group_IT_number 68
_space_group.IT_coordinate_system_code '2'
_symmetry_cell_setting 'orthorhombic'
loop_
_space_group_symop_operation_xyz
x,y,z
-x,1/2-y,z
x,1/2-y,1/2-z
-x,y,1/2-z
-x,-y,-z
x,1/2+y,-z
-x,1/2+y,1/2+z
x,-y,1/2+z
1/2+x,1/2+y,z
1/2-x,-y,z
1/2+x,-y,1/2-z
1/2-x,1/2+y,1/2-z
1/2-x,1/2-y,-z
1/2+x,y,-z
1/2-x,y,1/2+z
1/2+x,1/2-y,1/2+z
loop_
_atom_site_type_symbol
_atom_site_label
_atom_site_fract_x
_atom_site_fract_y
_atom_site_fract_z
Si Si1 0.000000 0.250000 0.902876
Si Si2 0.500000 0.006302 0.250000
Si Si3 0.922311 0.250000 0.250000
Si Si4 0.349629 0.440913 0.886723
Si Si5 0.702029 0.085578 0.212729
Si Si6 0.121992 0.787702 0.433968
O O1 0.019283 0.384463 0.832795
O O2 0.056437 0.193801 0.950815
O O3 0.456849 0.888973 0.291853
O O4 0.890848 0.330203 0.167012
O O5 0.308502 0.480026 0.802949
O O6 0.368843 0.608751 0.918055
O O7 0.340295 0.349057 0.981908
O O8 0.719667 0.250000 0.250000
O O9 0.645976 0.120623 0.156137
O O10 0.750000 0.000000 0.156784
#
# Coordination Sequence:
#
# PCOD9508368 Si02
#       6
#     8   8   8  16  16  16
#     4  11  22  42  66 101 156 192 236 305 366 451
#     4  10  22  36  68  96 136 204 242 290 360 430
#     4  11  22  42  64  98 138 190 254 293 356 436
#     4  11  26  44  70 104 144 187 241 303 364 449
#     4  10  25  49  75 105 143 193 248 313 374 432
#     4  11  26  45  70 108 149 192 246 300 376 442
#
# _framework density 23.424157999999998
#
# number of rings (size 3 to 8) (size 9 to 14) (size 15 to 20)
#    0.000    1.333    2.222    1.333   14.000    3.556 
#    0.000    4.444    0.000    0.000    0.000    0.000 
#    0.000    0.000    0.000    0.000    0.000    0.000 
#
# Total GULP energy -200693.837148 kJ/mol
# GULP energy per Si atom -5574.828810 kJ/mol
# Density = 2.337084 g / cm^3
# Si number density = 23.424158 Si / 1000 Ang^3
#
#
#
# Elastic Constant Matrix: (Units=GPa)
#
#
# Indices 1 2 3 4 5 6 
#
# 1 71.6582 57.1269 17.5441 0.0000 0.0000 0.0000
# 2 57.1269 120.8997 40.9777 0.0000 0.0000 0.0000
# 3 17.5441 40.9777 82.5095 0.0000 0.0000 0.0000
# 4 0.0000 0.0000 0.0000 29.5630 0.0000 0.0000
# 5 0.0000 0.0000 0.0000 0.0000 11.7462 0.0000
# 6 0.0000 0.0000 0.0000 0.0000 0.0000 26.9413
#
#
#
# Elastic Compliance Matrix: (Units=1/GPa)
#
#
# Indices 1 2 3 4 5 6 
#
# 1 0.022413 -0.010792 0.000594 0.000000 0.000000 0.000000
# 2 -0.010792 0.015142 -0.005225 0.000000 0.000000 0.000000
# 3 0.000594 -0.005225 0.014589 0.000000 0.000000 0.000000
# 4 0.000000 0.000000 0.000000 0.033826 0.000000 0.000000
# 5 0.000000 0.000000 0.000000 0.000000 0.085134 0.000000
# 6 0.000000 0.000000 0.000000 0.000000 0.000000 0.037118
#
#
# Mechanical properties :
#
#
# Convention : Reuss Voigt Hill
#
# Bulk Modulus (GPa) = 46.95490 56.26277 51.60884
# Shear Modulus (GPa) = 20.31148 24.27803 22.29475
#
# Velocity S-wave (km/s) = 2.94788 3.22289 3.08845
# Velocity P-wave (km/s) = 5.62811 6.15797 5.89900
#
# Compressibility (1/GPa) = 0.02129703
#
# Stress axis : x y z
#
# Youngs Moduli (GPa) = 44.61671 66.04285 68.54651
#
# Poissons Ratio (x) = 0.71272 -0.04071
# Poissons Ratio (y) = 0.48150 0.35818
# Poissons Ratio (z) = -0.02650 0.34510
#
# Static dielectric constant tensor:
#      x y z
#    x 1.987560 0.000000 0.000000 
#    y 0.000000 1.666470 0.000000 
#    z 0.000000 0.000000 1.929440 
# 
# From -- ./inp_files/26317.got.cif
#   From: 2010.05.17/outbox.cif.g08.bks.cpg/sg68_14_cif.got.tgz:26317.got - 2010.06.03 18:57:09.
