data_PCOD9508556
_publ_section_title
;
Structure prediction by ZEFSAII (Michael W. Deem and Ramdas Pophale) SiO2 
 PCOD9508556
Probable space group: C C C A
;
_chemical_formula_sum "Si O2"
_cell_formula_units_Z 48
_cell_length_a 13.193005
_cell_length_b 7.992634
_cell_length_c 18.554714
_cell_angle_alpha 90.000000
_cell_angle_beta 90.000000
_cell_angle_gamma 90.000000
_cell_volume 1956.536336
_symmetry_space_group_name_H-M "C C C A"
_symmetry_group_IT_number 68
_space_group.IT_coordinate_system_code '2'
_symmetry_cell_setting 'orthorhombic'
loop_
_space_group_symop_operation_xyz
x,y,z
-x,1/2-y,z
x,1/2-y,1/2-z
-x,y,1/2-z
-x,-y,-z
x,1/2+y,-z
-x,1/2+y,1/2+z
x,-y,1/2+z
1/2+x,1/2+y,z
1/2-x,-y,z
1/2+x,-y,1/2-z
1/2-x,1/2+y,1/2-z
1/2-x,1/2-y,-z
1/2+x,y,-z
1/2-x,y,1/2+z
1/2+x,1/2-y,1/2+z
loop_
_atom_site_type_symbol
_atom_site_label
_atom_site_fract_x
_atom_site_fract_y
_atom_site_fract_z
Si Si1 0.100989 0.974564 0.293753
Si Si2 0.242666 0.750000 0.750000
Si Si3 0.250000 0.500000 0.454172
Si Si4 0.610117 0.699725 0.434817
O O1 0.166103 0.096628 0.242267
O O2 0.088599 0.081818 0.365894
O O3 0.000000 0.935396 0.250000
O O4 0.175313 0.817500 0.308474
O O5 0.320426 0.638911 0.415881
O O6 0.327551 0.400926 0.505772
O O7 0.500000 0.750000 0.463704
#
# Coordination Sequence:
#
# PCOD9508556 Si02
#       4
#    16   8   8  16
#     4  11  23  40  64  95 131 172 217 270 331 392
#     4  10  22  40  60  90 128 170 216 258 326 394
#     4  10  24  44  68  98 128 174 224 268 324 382
#     4  11  23  43  68  96 131 169 220 275 325 389
#
# _framework density 24.533151
#
# number of rings (size 3 to 8) (size 9 to 14) (size 15 to 20)
#    0.000    1.333    0.000    6.000    0.000    5.333 
#    0.000   10.000    0.000    0.000    0.000    0.000 
#    0.000    0.000    0.000    0.000    0.000    0.000 
#
# Total GULP energy -134036.442938 kJ/mol
# GULP energy per Si atom -5584.851789 kJ/mol
# Density = 2.447731 g / cm^3
# Si number density = 24.533151 Si / 1000 Ang^3
#
#
#
# Elastic Constant Matrix: (Units=GPa)
#
#
# Indices 1 2 3 4 5 6 
#
# 1 216.0525 55.3081 30.5886 0.0000 0.0000 0.0000
# 2 55.3081 77.6353 2.3346 0.0000 0.0000 0.0000
# 3 30.5886 2.3346 72.9741 0.0000 0.0000 0.0000
# 4 0.0000 0.0000 0.0000 15.5384 0.0000 0.0000
# 5 0.0000 0.0000 0.0000 0.0000 26.8123 0.0000
# 6 0.0000 0.0000 0.0000 0.0000 0.0000 48.3252
#
#
#
# Elastic Compliance Matrix: (Units=1/GPa)
#
#
# Indices 1 2 3 4 5 6 
#
# 1 0.006054 -0.004241 -0.002402 0.000000 0.000000 0.000000
# 2 -0.004241 0.015864 0.001270 0.000000 0.000000 0.000000
# 3 -0.002402 0.001270 0.014670 0.000000 0.000000 0.000000
# 4 0.000000 0.000000 0.000000 0.064357 0.000000 0.000000
# 5 0.000000 0.000000 0.000000 0.000000 0.037296 0.000000
# 6 0.000000 0.000000 0.000000 0.000000 0.000000 0.020693
#
#
# Mechanical properties :
#
#
# Convention : Reuss Voigt Hill
#
# Bulk Modulus (GPa) = 38.69651 60.34715 49.52183
# Shear Modulus (GPa) = 28.04364 36.69722 32.37043
#
# Velocity S-wave (km/s) = 3.38463 3.87178 3.63637
# Velocity P-wave (km/s) = 5.57510 6.68126 6.15308
#
# Compressibility (1/GPa) = 0.02584212
#
# Stress axis : x y z
#
# Youngs Moduli (GPa) = 165.17405 63.03672 68.16756
#
# Poissons Ratio (x) = 0.26733 0.16374
# Poissons Ratio (y) = 0.70048 -0.08658
# Poissons Ratio (z) = 0.39676 -0.08006
#
# Static dielectric constant tensor:
#      x y z
#    x 2.032890 0.000000 0.000000 
#    y 0.000000 2.001320 0.000000 
#    z 0.000000 0.000000 1.940800 
# 
# From -- ./inp_files/43769.got.cif
#   From: 2010.05.17/outbox.cif.g08.bks.cpg/sg68_22_cif.got.tgz:43769.got - 2010.06.03 18:57:09.
