data_PCOD9508005
_publ_section_title
;
Structure prediction by ZEFSAII (Michael W. Deem and Ramdas Pophale) SiO2 
 PCOD9508005
Probable space group: C C C A
;
_chemical_formula_sum "Si O2"
_cell_formula_units_Z 120
_cell_length_a 25.795195
_cell_length_b 12.330491
_cell_length_c 19.083019
_cell_angle_alpha 90.000000
_cell_angle_beta 90.000000
_cell_angle_gamma 90.000000
_cell_volume 6069.686615
_symmetry_space_group_name_H-M "C C C A"
_symmetry_group_IT_number 68
_space_group.IT_coordinate_system_code '2'
_symmetry_cell_setting 'orthorhombic'
loop_
_space_group_symop_operation_xyz
x,y,z
-x,1/2-y,z
x,1/2-y,1/2-z
-x,y,1/2-z
-x,-y,-z
x,1/2+y,-z
-x,1/2+y,1/2+z
x,-y,1/2+z
1/2+x,1/2+y,z
1/2-x,-y,z
1/2+x,-y,1/2-z
1/2-x,1/2+y,1/2-z
1/2-x,1/2-y,-z
1/2+x,y,-z
1/2-x,y,1/2+z
1/2+x,1/2-y,1/2+z
loop_
_atom_site_type_symbol
_atom_site_label
_atom_site_fract_x
_atom_site_fract_y
_atom_site_fract_z
Si Si1 0.156489 0.355133 0.073574
Si Si2 0.250000 0.500000 0.050662
Si Si3 0.178964 0.805178 0.451494
Si Si4 0.488493 0.622456 0.829518
Si Si5 0.407085 0.947935 0.879794
Si Si6 0.118618 0.549874 0.286960
Si Si7 0.721074 0.680283 0.679532
Si Si8 0.335983 0.328569 0.816229
O O1 0.206366 0.431190 0.091862
O O2 0.109449 0.436755 0.087784
O O3 0.150539 0.249975 0.120745
O O4 0.167312 0.299929 0.998734
O O5 0.214508 0.596232 0.015595
O O6 0.126080 0.859716 0.423257
O O7 0.210600 0.759693 0.385380
O O8 0.500000 0.750000 0.832411
O O9 0.500000 0.583958 0.750000
O O10 0.531077 0.568477 0.879336
O O11 0.427598 0.600351 0.833290
O O12 0.390059 0.936190 0.797229
O O13 0.172139 0.603437 0.310514
O O14 0.123964 0.423532 0.302937
O O15 0.722676 0.750000 0.750000
O O16 0.777610 0.627750 0.672187
O O17 0.334891 0.250000 0.750000
#
# Coordination Sequence:
#
# PCOD9508005 Si02
#       8
#    16   8  16  16  16  16  16  16
#     4  11  23  40  62  87 130 173 213 256 316 382
#     4  10  22  38  60  82 130 182 222 248 314 378
#     4  11  22  38  62  89 127 170 212 260 316 379
#     4   9  19  36  66  95 118 154 210 265 310 371
#     4  10  21  40  63  87 127 164 208 270 322 369
#     4  11  21  37  64  95 127 164 208 264 322 374
#     4  11  22  35  61  93 127 164 207 258 317 375
#     4  11  23  38  58  91 132 166 206 258 317 385
#
# _framework density 19.770378000000001
#
# number of rings (size 3 to 8) (size 9 to 14) (size 15 to 20)
#    0.000    1.467    4.000    1.600    1.867    2.133 
#    0.000    0.667    0.000    8.800    0.000    0.000 
#    0.000    0.000    0.000    0.000    0.000    0.000 
#
# Total GULP energy -334507.205932 kJ/mol
# GULP energy per Si atom -5575.120099 kJ/mol
# Density = 1.972538 g / cm^3
# Si number density = 19.770378 Si / 1000 Ang^3
#
#
#
# Elastic Constant Matrix: (Units=GPa)
#
#
# Indices 1 2 3 4 5 6 
#
# 1 77.2707 41.7313 20.2410 0.0000 0.0000 0.0000
# 2 41.7313 83.9938 22.3542 0.0000 0.0000 0.0000
# 3 20.2410 22.3542 62.0004 0.0000 0.0000 0.0000
# 4 0.0000 0.0000 0.0000 25.5098 0.0000 0.0000
# 5 0.0000 0.0000 0.0000 0.0000 9.9198 0.0000
# 6 0.0000 0.0000 0.0000 0.0000 0.0000 30.0447
#
#
#
# Elastic Compliance Matrix: (Units=1/GPa)
#
#
# Indices 1 2 3 4 5 6 
#
# 1 0.018166 -0.008238 -0.002960 0.000000 0.000000 0.000000
# 2 -0.008238 0.016905 -0.003406 0.000000 0.000000 0.000000
# 3 -0.002960 -0.003406 0.018323 0.000000 0.000000 0.000000
# 4 0.000000 0.000000 0.000000 0.039201 0.000000 0.000000
# 5 0.000000 0.000000 0.000000 0.000000 0.100809 0.000000
# 6 0.000000 0.000000 0.000000 0.000000 0.000000 0.033284
#
#
# Mechanical properties :
#
#
# Convention : Reuss Voigt Hill
#
# Bulk Modulus (GPa) = 41.34546 43.54642 42.44594
# Shear Modulus (GPa) = 18.94248 22.35740 20.64994
#
# Velocity S-wave (km/s) = 3.09872 3.36646 3.23536
# Velocity P-wave (km/s) = 5.81042 6.09792 5.95591
#
# Compressibility (1/GPa) = 0.02418645
#
# Stress axis : x y z
#
# Youngs Moduli (GPa) = 55.04829 59.15483 54.57518
#
# Poissons Ratio (x) = 0.48729 0.16157
# Poissons Ratio (y) = 0.45347 0.18587
# Poissons Ratio (z) = 0.16297 0.20146
#
# Static dielectric constant tensor:
#      x y z
#    x 1.730590 0.000000 0.000000 
#    y 0.000000 1.719910 0.000000 
#    z 0.000000 0.000000 1.618100 
# 
# From -- ./inp_files/40949.got.cif
#   From: 2010.05.17/outbox.cif.g08.bks.cpg/sg68_21_cif.got.tgz:40949.got - 2010.06.03 18:57:09.
