data_PCOD9508719
_publ_section_title
;
Structure prediction by ZEFSAII (Michael W. Deem and Ramdas Pophale) SiO2 
 PCOD9508719
Probable space group: C C C A
;
_chemical_formula_sum "Si O2"
_cell_formula_units_Z 96
_cell_length_a 21.305966
_cell_length_b 14.436849
_cell_length_c 14.062364
_cell_angle_alpha 90.000000
_cell_angle_beta 90.000000
_cell_angle_gamma 90.000000
_cell_volume 4325.456801
_symmetry_space_group_name_H-M "C C C A"
_symmetry_group_IT_number 68
_space_group.IT_coordinate_system_code '2'
_symmetry_cell_setting 'orthorhombic'
loop_
_space_group_symop_operation_xyz
x,y,z
-x,1/2-y,z
x,1/2-y,1/2-z
-x,y,1/2-z
-x,-y,-z
x,1/2+y,-z
-x,1/2+y,1/2+z
x,-y,1/2+z
1/2+x,1/2+y,z
1/2-x,-y,z
1/2+x,-y,1/2-z
1/2-x,1/2+y,1/2-z
1/2-x,1/2-y,-z
1/2+x,y,-z
1/2-x,y,1/2+z
1/2+x,1/2-y,1/2+z
loop_
_atom_site_type_symbol
_atom_site_label
_atom_site_fract_x
_atom_site_fract_y
_atom_site_fract_z
Si Si1 0.144827 0.652625 0.695577
Si Si2 0.760276 0.765067 0.111026
Si Si3 0.196466 0.423659 0.364519
Si Si4 0.550637 0.635097 0.477766
Si Si5 0.919892 0.577544 0.502708
Si Si6 0.907082 0.722256 0.356481
O O1 0.133468 0.750000 0.750000
O O2 0.212282 0.656239 0.643051
O O3 0.150910 0.570126 0.772470
O O4 0.093616 0.648931 0.613692
O O5 0.735036 0.669734 0.155070
O O6 0.831733 0.776499 0.138297
O O7 0.750000 0.750000 0.000000
O O8 0.250000 0.500000 0.379012
O O9 0.148702 0.408273 0.452003
O O10 0.566076 0.530602 0.511179
O O11 0.477222 0.633523 0.448914
O O12 0.567653 0.704772 0.564044
O O13 0.923915 0.620129 0.396309
O O14 0.926706 0.750000 0.250000
#
# Coordination Sequence:
#
# PCOD9508719 Si02
#       6
#    16  16  16  16  16  16
#     4  10  22  41  66  95 129 168 220 273 334 403
#     4  11  20  40  64  91 127 166 212 272 331 393
#     4  11  23  41  65 100 129 164 220 274 335 406
#     4  11  25  45  65  94 136 178 221 278 336 399
#     4  11  26  43  66  98 133 177 226 271 339 409
#     4  12  24  43  71  99 134 183 232 283 338 401
#
# _framework density 22.194186999999999
#
# number of rings (size 3 to 8) (size 9 to 14) (size 15 to 20)
#    0.000    1.000    3.333    4.000    0.000    6.000 
#    0.000    5.833    0.000    0.000    0.000    0.000 
#    0.000    0.000    0.000    0.000    0.000    0.000 
#
# Total GULP energy -267971.180123 kJ/mol
# GULP energy per Si atom -5582.732919 kJ/mol
# Density = 2.214367 g / cm^3
# Si number density = 22.194187 Si / 1000 Ang^3
#
#
#
# Elastic Constant Matrix: (Units=GPa)
#
#
# Indices 1 2 3 4 5 6 
#
# 1 143.9317 24.0635 31.6490 0.0000 0.0000 0.0000
# 2 24.0635 60.5764 15.7220 0.0000 0.0000 0.0000
# 3 31.6490 15.7220 138.9478 0.0000 0.0000 0.0000
# 4 0.0000 0.0000 0.0000 22.6877 0.0000 0.0000
# 5 0.0000 0.0000 0.0000 0.0000 -0.7056 0.0000
# 6 0.0000 0.0000 0.0000 0.0000 0.0000 21.9229
#
#
#
# Elastic Compliance Matrix: (Units=1/GPa)
#
#
# Indices 1 2 3 4 5 6 
#
# 1 0.007717 -0.002688 -0.001454 0.000000 0.000000 0.000000
# 2 -0.002688 0.017944 -0.001418 0.000000 0.000000 0.000000
# 3 -0.001454 -0.001418 0.007688 0.000000 0.000000 0.000000
# 4 0.000000 0.000000 0.000000 0.044077 0.000000 0.000000
# 5 0.000000 0.000000 0.000000 0.000000 -1.417226 0.000000
# 6 0.000000 0.000000 0.000000 0.000000 0.000000 0.045614
#
#
# Mechanical properties :
#
#
# Convention : Reuss Voigt Hill
#
# Bulk Modulus (GPa) = 44.98490 54.03611 49.51051
# Shear Modulus (GPa) = -3.91955 26.91576 11.49810
#
# Velocity S-wave (km/s) = -1.33036 3.48622 2.27858
# Velocity P-wave (km/s) = 4.23709 6.37219 5.41100
#
# Compressibility (1/GPa) = 0.02222968
#
# Stress axis : x y z
#
# Youngs Moduli (GPa) = 129.58768 55.72904 130.06467
#
# Poissons Ratio (x) = 0.14981 0.18905
# Poissons Ratio (y) = 0.34835 0.18444
# Poissons Ratio (z) = 0.18836 0.07903
#
# Static dielectric constant tensor:
#      x y z
#    x 1.869960 0.000000 0.000000 
#    y 0.000000 1.865610 0.000000 
#    z 0.000000 0.000000 1.922080 
# 
# From -- ./inp_files/24431.got.cif
#   From: 2010.05.17/outbox.cif.g08.bks.cpg/sg68_13_cif.got.tgz:24431.got - 2010.06.03 18:57:09.
