data_PCOD9508928
_publ_section_title
;
Structure prediction by ZEFSAII (Michael W. Deem and Ramdas Pophale) SiO2 
 PCOD9508928
Probable space group: C C C A
;
_chemical_formula_sum "Si O2"
_cell_formula_units_Z 56
_cell_length_a 5.599826
_cell_length_b 13.825557
_cell_length_c 29.588381
_cell_angle_alpha 90.000000
_cell_angle_beta 90.000000
_cell_angle_gamma 90.000000
_cell_volume 2290.753570
_symmetry_space_group_name_H-M "C C C A"
_symmetry_group_IT_number 68
_space_group.IT_coordinate_system_code '2'
_symmetry_cell_setting 'orthorhombic'
loop_
_space_group_symop_operation_xyz
x,y,z
-x,1/2-y,z
x,1/2-y,1/2-z
-x,y,1/2-z
-x,-y,-z
x,1/2+y,-z
-x,1/2+y,1/2+z
x,-y,1/2+z
1/2+x,1/2+y,z
1/2-x,-y,z
1/2+x,-y,1/2-z
1/2-x,1/2+y,1/2-z
1/2-x,1/2-y,-z
1/2+x,y,-z
1/2-x,y,1/2+z
1/2+x,1/2-y,1/2+z
loop_
_atom_site_type_symbol
_atom_site_label
_atom_site_fract_x
_atom_site_fract_y
_atom_site_fract_z
Si Si1 0.000000 0.750000 0.339905
Si Si2 0.866111 0.602183 0.884473
Si Si3 0.473096 0.638227 0.481120
Si Si4 0.111148 0.641667 0.795689
O O1 0.180918 0.811408 0.371533
O O2 0.116222 0.669339 0.306421
O O3 0.750000 0.500000 0.895997
O O4 0.024984 0.631502 0.927044
O O5 0.018129 0.586459 0.839242
O O6 0.500000 0.750000 0.495157
O O7 0.226266 0.598987 0.500854
O O8 0.000000 0.750000 0.797301
O O9 0.000000 0.598243 0.750000
#
# Coordination Sequence:
#
# PCOD9508928 Si02
#       4
#     8  16  16  16
#     4  10  22  43  72  90 136 184 220 296 341 422
#     4  11  25  42  64 103 136 177 230 285 350 424
#     4  10  23  42  71 100 137 184 236 292 356 423
#     4   9  20  40  66  98 127 173 228 273 348 408
#
# _framework density 24.446104999999999
#
# number of rings (size 3 to 8) (size 9 to 14) (size 15 to 20)
#    0.000    2.000    0.000    2.571   10.000   11.429 
#    5.143    0.000    0.000    0.000    0.000    0.000 
#    0.000    0.000    0.000    0.000    0.000    0.000 
#
# Total GULP energy -156319.208679 kJ/mol
# GULP energy per Si atom -5582.828881 kJ/mol
# Density = 2.439046 g / cm^3
# Si number density = 24.446105 Si / 1000 Ang^3
#
#
#
# Elastic Constant Matrix: (Units=GPa)
#
#
# Indices 1 2 3 4 5 6 
#
# 1 104.4583 13.3474 66.7897 0.0000 0.0000 0.0000
# 2 13.3474 85.8908 -6.1826 0.0000 0.0000 0.0000
# 3 66.7897 -6.1826 149.9294 0.0000 0.0000 0.0000
# 4 0.0000 0.0000 0.0000 -210.6184 0.0000 0.0000
# 5 0.0000 0.0000 0.0000 0.0000 6.9120 0.0000
# 6 0.0000 0.0000 0.0000 0.0000 0.0000 -11.8368
#
#
#
# Elastic Compliance Matrix: (Units=1/GPa)
#
#
# Indices 1 2 3 4 5 6 
#
# 1 0.013951 -0.002623 -0.006323 0.000000 0.000000 0.000000
# 2 -0.002623 0.012171 0.001670 0.000000 0.000000 0.000000
# 3 -0.006323 0.001670 0.009555 0.000000 0.000000 0.000000
# 4 0.000000 0.000000 0.000000 -0.004748 0.000000 0.000000
# 5 0.000000 0.000000 0.000000 0.000000 0.144677 0.000000
# 6 0.000000 0.000000 0.000000 0.000000 0.000000 -0.084482
#
#
# Mechanical properties :
#
#
# Convention : Reuss Voigt Hill
#
# Bulk Modulus (GPa) = 47.33586 54.24304 50.78945
# Shear Modulus (GPa) = 44.35870 -25.35371 9.50250
#
# Velocity S-wave (km/s) = 4.26438 -3.22394 1.97372
# Velocity P-wave (km/s) = 6.60696 2.89459 5.10052
#
# Compressibility (1/GPa) = 0.02112563
#
# Stress axis : x y z
#
# Youngs Moduli (GPa) = 71.67771 82.16535 104.65200
#
# Poissons Ratio (x) = 0.21554 0.66173
# Poissons Ratio (y) = 0.18802 -0.17481
# Poissons Ratio (z) = 0.45323 -0.13725
#
# Static dielectric constant tensor:
#      x y z
#    x 2.076710 0.000000 0.000000 
#    y 0.000000 1.958700 0.000000 
#    z 0.000000 0.000000 1.926890 
# 
# From -- ./inp_files/51166.got.cif
#   From: 2010.05.17/outbox.cif.g08.bks.cpg/sg68_26_cif.got.tgz:51166.got - 2010.06.03 18:57:09.
