data_PCOD9508965
_publ_section_title
;
Structure prediction by ZEFSAII (Michael W. Deem and Ramdas Pophale) SiO2 
 PCOD9508965
Probable space group: C C C A
;
_chemical_formula_sum "Si O2"
_cell_formula_units_Z 60
_cell_length_a 23.260403
_cell_length_b 10.478097
_cell_length_c 13.446203
_cell_angle_alpha 90.000000
_cell_angle_beta 90.000000
_cell_angle_gamma 90.000000
_cell_volume 3277.172584
_symmetry_space_group_name_H-M "C C C A"
_symmetry_group_IT_number 68
_space_group.IT_coordinate_system_code '2'
_symmetry_cell_setting 'orthorhombic'
loop_
_space_group_symop_operation_xyz
x,y,z
-x,1/2-y,z
x,1/2-y,1/2-z
-x,y,1/2-z
-x,-y,-z
x,1/2+y,-z
-x,1/2+y,1/2+z
x,-y,1/2+z
1/2+x,1/2+y,z
1/2-x,-y,z
1/2+x,-y,1/2-z
1/2-x,1/2+y,1/2-z
1/2-x,1/2-y,-z
1/2+x,y,-z
1/2-x,y,1/2+z
1/2+x,1/2-y,1/2+z
loop_
_atom_site_type_symbol
_atom_site_label
_atom_site_fract_x
_atom_site_fract_y
_atom_site_fract_z
Si Si1 0.342823 0.124301 0.300632
Si Si2 0.688277 0.190990 0.976244
Si Si3 0.750000 0.500000 0.667199
Si Si4 0.000000 0.750000 0.750000
Si Si5 0.887581 0.652655 0.831978
O O1 0.369460 0.250000 0.250000
O O2 0.334066 0.147182 0.417126
O O3 0.284085 0.097180 0.238942
O O4 0.375599 0.990348 0.298664
O O5 0.644901 0.295997 0.929625
O O6 0.703960 0.074031 0.902187
O O7 0.750000 0.250000 0.000000
O O8 0.044020 0.825094 0.821818
O O9 0.862547 0.750000 0.750000
#
# Coordination Sequence:
#
# PCOD9508965 Si02
#       5
#    16  16   8   4  16
#     4  12  25  37  60  94 136 167 223 276 323 401
#     4  12  23  37  62  98 136 176 217 264 342 408
#     4  12  20  38  54  90 134 184 208 258 332 404
#     4   8  20  48  78  84 122 180 234 274 332 392
#     4  10  22  44  69  89 124 176 224 273 329 393
#
# _framework density 18.308465999999999
#
# number of rings (size 3 to 8) (size 9 to 14) (size 15 to 20)
#    0.800    0.000    5.333    4.000    0.000    0.000 
#    0.000    2.000    0.000    0.000    0.000    0.000 
#    0.000    0.000    0.000    0.000    0.000    0.000 
#
# Total GULP energy -167070.929382 kJ/mol
# GULP energy per Si atom -5569.030979 kJ/mol
# Density = 1.826679 g / cm^3
# Si number density = 18.308466 Si / 1000 Ang^3
#
#
#
# Elastic Constant Matrix: (Units=GPa)
#
#
# Indices 1 2 3 4 5 6 
#
# 1 95.3623 53.9224 40.8129 0.0000 0.0000 0.0000
# 2 53.9224 154.7150 55.7227 0.0000 0.0000 0.0000
# 3 40.8129 55.7227 108.0208 0.0000 0.0000 0.0000
# 4 0.0000 0.0000 0.0000 40.3381 0.0000 0.0000
# 5 0.0000 0.0000 0.0000 0.0000 21.7592 0.0000
# 6 0.0000 0.0000 0.0000 0.0000 0.0000 19.8479
#
#
#
# Elastic Compliance Matrix: (Units=1/GPa)
#
#
# Indices 1 2 3 4 5 6 
#
# 1 0.014012 -0.003656 -0.003408 0.000000 0.000000 0.000000
# 2 -0.003656 0.008892 -0.003206 0.000000 0.000000 0.000000
# 3 -0.003408 -0.003206 0.012199 0.000000 0.000000 0.000000
# 4 0.000000 0.000000 0.000000 0.024790 0.000000 0.000000
# 5 0.000000 0.000000 0.000000 0.000000 0.045958 0.000000
# 6 0.000000 0.000000 0.000000 0.000000 0.000000 0.050383
#
#
# Mechanical properties :
#
#
# Convention : Reuss Voigt Hill
#
# Bulk Modulus (GPa) = 68.66544 73.22383 70.94463
# Shear Modulus (GPa) = 27.52857 30.23171 28.88014
#
# Velocity S-wave (km/s) = 3.88183 4.06796 3.97598
# Velocity P-wave (km/s) = 7.59458 7.88325 7.74026
#
# Compressibility (1/GPa) = 0.01456337
#
# Stress axis : x y z
#
# Youngs Moduli (GPa) = 71.36581 112.45597 81.97497
#
# Poissons Ratio (x) = 0.41116 0.27938
# Poissons Ratio (y) = 0.26093 0.26279
# Poissons Ratio (z) = 0.24323 0.36051
#
# Static dielectric constant tensor:
#      x y z
#    x 1.724260 0.000000 0.000000 
#    y 0.000000 1.694430 0.000000 
#    z 0.000000 0.000000 1.644440 
# 
# From -- ./inp_files/10716.got.cif
#   From: 2010.05.17/outbox.cif.g08.bks.cpg/sg68_6_cif.got.tgz:10716.got - 2010.06.03 18:57:09.
