data_PCOD9508405
_publ_section_title
;
Structure prediction by ZEFSAII (Michael W. Deem and Ramdas Pophale) SiO2 
 PCOD9508405
Probable space group: C C C A
;
_chemical_formula_sum "Si O2"
_cell_formula_units_Z 52
_cell_length_a 5.056394
_cell_length_b 19.493476
_cell_length_c 26.754054
_cell_angle_alpha 90.000000
_cell_angle_beta 90.000000
_cell_angle_gamma 90.000000
_cell_volume 2637.058683
_symmetry_space_group_name_H-M "C C C A"
_symmetry_group_IT_number 68
_space_group.IT_coordinate_system_code '2'
_symmetry_cell_setting 'orthorhombic'
loop_
_space_group_symop_operation_xyz
x,y,z
-x,1/2-y,z
x,1/2-y,1/2-z
-x,y,1/2-z
-x,-y,-z
x,1/2+y,-z
-x,1/2+y,1/2+z
x,-y,1/2+z
1/2+x,1/2+y,z
1/2-x,-y,z
1/2+x,-y,1/2-z
1/2-x,1/2+y,1/2-z
1/2-x,1/2-y,-z
1/2+x,y,-z
1/2-x,y,1/2+z
1/2+x,1/2-y,1/2+z
loop_
_atom_site_type_symbol
_atom_site_label
_atom_site_fract_x
_atom_site_fract_y
_atom_site_fract_z
Si Si1 0.000000 0.250000 0.750000
Si Si2 0.710583 0.082664 0.527168
Si Si3 0.363118 0.422646 0.640862
Si Si4 0.379122 0.880087 0.699623
O O1 0.175576 0.197319 0.717906
O O2 0.501041 0.108703 0.486499
O O3 0.601080 0.094637 0.582594
O O4 0.750000 0.000000 0.523220
O O5 0.250000 0.500000 0.643727
O O6 0.627166 0.413807 0.673582
O O7 0.126195 0.377402 0.662507
O O8 0.500000 0.915550 0.750000
#
# Coordination Sequence:
#
# PCOD9508405 Si02
#       4
#     4  16  16  16
#     4   8  24  42  60  78 108 150 220 236 280 330
#     4   9  17  30  49  76 113 149 181 220 269 344
#     4  11  21  34  56  88 117 148 184 229 299 349
#     4  10  22  38  57  79 113 149 197 241 276 334
#
# _framework density 19.718938999999999
#
# number of rings (size 3 to 8) (size 9 to 14) (size 15 to 20)
#    0.923    1.231    0.000    3.692    0.000    9.846 
#    0.000    0.000    0.000    0.000    0.000   21.538 
#    0.000    0.000    0.000    0.000    0.000    0.000 
#
# Total GULP energy -144767.959737 kJ/mol
# GULP energy per Si atom -5567.998451 kJ/mol
# Density = 1.967406 g / cm^3
# Si number density = 19.718939 Si / 1000 Ang^3
#
#
#
# Elastic Constant Matrix: (Units=GPa)
#
#
# Indices 1 2 3 4 5 6 
#
# 1 146.8347 13.7247 69.1966 0.0000 0.0000 0.0000
# 2 13.7247 28.5928 28.8438 0.0000 0.0000 0.0000
# 3 69.1966 28.8438 117.5476 0.0000 0.0000 0.0000
# 4 0.0000 0.0000 0.0000 -8.4119 0.0000 0.0000
# 5 0.0000 0.0000 0.0000 0.0000 36.3536 0.0000
# 6 0.0000 0.0000 0.0000 0.0000 0.0000 11.1913
#
#
#
# Elastic Compliance Matrix: (Units=1/GPa)
#
#
# Indices 1 2 3 4 5 6 
#
# 1 0.009469 0.001432 -0.005926 0.000000 0.000000 0.000000
# 2 0.001432 0.046696 -0.012301 0.000000 0.000000 0.000000
# 3 -0.005926 -0.012301 0.015014 0.000000 0.000000 0.000000
# 4 0.000000 0.000000 0.000000 -0.118880 0.000000 0.000000
# 5 0.000000 0.000000 0.000000 0.000000 0.027508 0.000000
# 6 0.000000 0.000000 0.000000 0.000000 0.000000 0.089355
#
#
# Mechanical properties :
#
#
# Convention : Reuss Voigt Hill
#
# Bulk Modulus (GPa) = 26.60319 57.38946 41.99633
# Shear Modulus (GPa) = 43.37246 19.90727 31.63987
#
# Velocity S-wave (km/s) = 4.69501 3.18079 4.01002
# Velocity P-wave (km/s) = 6.55067 6.53122 6.54095
#
# Compressibility (1/GPa) = 0.03758947
#
# Stress axis : x y z
#
# Youngs Moduli (GPa) = 105.60849 21.41526 66.60504
#
# Poissons Ratio (x) = -0.03068 0.39467
# Poissons Ratio (y) = -0.15128 0.81933
# Poissons Ratio (z) = 0.62579 0.26344
#
# Static dielectric constant tensor:
#      x y z
#    x 1.702160 0.000000 0.000000 
#    y 0.000000 1.711560 0.000000 
#    z 0.000000 0.000000 1.757270 
# 
# From -- ./inp_files/47945.got.cif
#   From: 2010.05.17/outbox.cif.g08.bks.cpg/sg68_24_cif.got.tgz:47945.got - 2010.06.03 18:57:09.
