data_PCOD9508413
_publ_section_title
;
Structure prediction by ZEFSAII (Michael W. Deem and Ramdas Pophale) SiO2 
 PCOD9508413
Probable space group: C C C A
;
_chemical_formula_sum "Si O2"
_cell_formula_units_Z 120
_cell_length_a 20.046473
_cell_length_b 24.574240
_cell_length_c 10.943466
_cell_angle_alpha 90.000000
_cell_angle_beta 90.000000
_cell_angle_gamma 90.000000
_cell_volume 5391.045060
_symmetry_space_group_name_H-M "C C C A"
_symmetry_group_IT_number 68
_space_group.IT_coordinate_system_code '2'
_symmetry_cell_setting 'orthorhombic'
loop_
_space_group_symop_operation_xyz
x,y,z
-x,1/2-y,z
x,1/2-y,1/2-z
-x,y,1/2-z
-x,-y,-z
x,1/2+y,-z
-x,1/2+y,1/2+z
x,-y,1/2+z
1/2+x,1/2+y,z
1/2-x,-y,z
1/2+x,-y,1/2-z
1/2-x,1/2+y,1/2-z
1/2-x,1/2-y,-z
1/2+x,y,-z
1/2-x,y,1/2+z
1/2+x,1/2-y,1/2+z
loop_
_atom_site_type_symbol
_atom_site_label
_atom_site_fract_x
_atom_site_fract_y
_atom_site_fract_z
Si Si1 0.250000 0.000000 0.741964
Si Si2 0.930960 0.654955 0.320437
Si Si3 0.564998 0.449841 0.910478
Si Si4 0.327226 0.767068 0.880893
Si Si5 0.851840 0.418562 0.631275
Si Si6 0.920614 0.937573 0.989030
Si Si7 0.833243 0.097446 0.269801
Si Si8 0.751544 0.335721 0.560218
O O1 0.185990 0.027873 0.676849
O O2 0.282276 0.055064 0.794290
O O3 0.902118 0.713480 0.358674
O O4 0.876557 0.623965 0.233889
O O5 0.937751 0.616587 0.437222
O O6 0.000000 0.658817 0.250000
O O7 0.485129 0.451223 0.905446
O O8 0.602083 0.408933 0.817497
O O9 0.585821 0.432068 0.046983
O O10 0.589035 0.513127 0.913827
O O11 0.298160 0.750000 0.750000
O O12 0.307057 0.712504 0.950081
O O13 0.296395 0.818269 0.951232
O O14 0.795523 0.389082 0.550869
O O15 0.858847 0.925174 0.901238
O O16 0.793152 0.151433 0.316384
#
# Coordination Sequence:
#
# PCOD9508413 Si02
#       8
#     8  16  16  16  16  16  16  16
#     4  10  22  38  58  90 132 168 220 258 328 392
#     4  12  24  43  69  93 134 170 226 283 338 401
#     4  11  24  37  65  93 141 176 226 267 329 404
#     4  11  23  44  65  96 123 171 215 288 346 396
#     4  11  22  40  59  98 126 173 219 270 329 403
#     4  11  23  41  63  97 133 184 222 275 323 402
#     4  11  22  42  62  94 130 184 216 274 334 403
#     4  10  24  41  66  93 134 162 227 272 345 416
#
# _framework density 22.259136000000002
#
# number of rings (size 3 to 8) (size 9 to 14) (size 15 to 20)
#    0.000    1.067    5.333    1.200    1.867    0.800 
#    0.000    0.000    0.000    0.000    0.000    0.000 
#    0.000    0.000    0.000    0.000    0.000    0.000 
#
# Total GULP energy -334103.940560 kJ/mol
# GULP energy per Si atom -5568.399009 kJ/mol
# Density = 2.220847 g / cm^3
# Si number density = 22.259136 Si / 1000 Ang^3
#
#
#
# Elastic Constant Matrix: (Units=GPa)
#
#
# Indices 1 2 3 4 5 6 
#
# 1 87.8964 42.0576 24.2449 0.0000 0.0000 0.0000
# 2 42.0576 60.6283 22.8546 0.0000 0.0000 0.0000
# 3 24.2449 22.8546 47.9936 0.0000 0.0000 0.0000
# 4 0.0000 0.0000 0.0000 19.2964 0.0000 0.0000
# 5 0.0000 0.0000 0.0000 0.0000 20.9811 0.0000
# 6 0.0000 0.0000 0.0000 0.0000 0.0000 40.1051
#
#
#
# Elastic Compliance Matrix: (Units=1/GPa)
#
#
# Indices 1 2 3 4 5 6 
#
# 1 0.017564 -0.010774 -0.003743 0.000000 0.000000 0.000000
# 2 -0.010774 0.026711 -0.007277 0.000000 0.000000 0.000000
# 3 -0.003743 -0.007277 0.026192 0.000000 0.000000 0.000000
# 4 0.000000 0.000000 0.000000 0.051823 0.000000 0.000000
# 5 0.000000 0.000000 0.000000 0.000000 0.047662 0.000000
# 6 0.000000 0.000000 0.000000 0.000000 0.000000 0.024934
#
#
# Mechanical properties :
#
#
# Convention : Reuss Voigt Hill
#
# Bulk Modulus (GPa) = 37.20158 41.64805 39.42481
# Shear Modulus (GPa) = 20.20740 23.23392 21.72066
#
# Velocity S-wave (km/s) = 3.01628 3.23428 3.12718
# Velocity P-wave (km/s) = 5.37400 5.71827 5.54880
#
# Compressibility (1/GPa) = 0.02688058
#
# Stress axis : x y z
#
# Youngs Moduli (GPa) = 56.93331 37.43809 38.17925
#
# Poissons Ratio (x) = 0.40334 0.14289
# Poissons Ratio (y) = 0.61337 0.27784
# Poissons Ratio (z) = 0.21308 0.27245
#
# Static dielectric constant tensor:
#      x y z
#    x 1.846780 0.000000 0.000000 
#    y 0.000000 1.902680 0.000000 
#    z 0.000000 0.000000 1.883280 
# 
# From -- ./inp_files/15791.got.cif
#   From: 2010.05.17/outbox.cif.g08.bks.cpg/sg68_8_cif.got.tgz:15791.got - 2010.06.03 18:57:09.
