data_PCOD9508762
_publ_section_title
;
Structure prediction by ZEFSAII (Michael W. Deem and Ramdas Pophale) SiO2 
 PCOD9508762
Probable space group: C C C A
;
_chemical_formula_sum "Si O2"
_cell_formula_units_Z 108
_cell_length_a 14.874228
_cell_length_b 10.017759
_cell_length_c 31.706190
_cell_angle_alpha 90.000000
_cell_angle_beta 90.000000
_cell_angle_gamma 90.000000
_cell_volume 4724.426226
_symmetry_space_group_name_H-M "C C C A"
_symmetry_group_IT_number 68
_space_group.IT_coordinate_system_code '2'
_symmetry_cell_setting 'orthorhombic'
loop_
_space_group_symop_operation_xyz
x,y,z
-x,1/2-y,z
x,1/2-y,1/2-z
-x,y,1/2-z
-x,-y,-z
x,1/2+y,-z
-x,1/2+y,1/2+z
x,-y,1/2+z
1/2+x,1/2+y,z
1/2-x,-y,z
1/2+x,-y,1/2-z
1/2-x,1/2+y,1/2-z
1/2-x,1/2-y,-z
1/2+x,y,-z
1/2-x,y,1/2+z
1/2+x,1/2-y,1/2+z
loop_
_atom_site_type_symbol
_atom_site_label
_atom_site_fract_x
_atom_site_fract_y
_atom_site_fract_z
Si Si1 0.500000 0.750000 0.250000
Si Si2 0.110136 0.083473 0.184413
Si Si3 0.342228 0.915971 0.564296
Si Si4 0.695842 0.799665 0.798413
Si Si5 0.750000 0.000000 0.563971
Si Si6 0.003729 0.935929 0.898896
Si Si7 0.150231 0.834191 0.378167
Si Si8 0.915982 0.419744 0.480757
O O1 0.561764 0.654742 0.222612
O O2 0.208190 0.153160 0.182204
O O3 0.130949 0.928228 0.195116
O O4 0.043679 0.106469 0.144592
O O5 0.417819 0.023246 0.574098
O O6 0.359467 0.811356 0.601681
O O7 0.370406 0.844225 0.520152
O O8 0.250000 0.000000 0.563707
O O9 0.702932 0.750000 0.750000
O O10 0.661656 0.681226 0.828461
O O11 0.740069 0.880904 0.597277
O O12 0.834657 0.014409 0.533723
O O13 0.070160 0.061566 0.888229
O O14 0.060579 0.856194 0.935037
O O15 0.000000 0.500000 0.500000
#
# Coordination Sequence:
#
# PCOD9508762 Si02
#       8
#     4  16  16  16   8  16  16  16
#     4  12  28  48  74 108 148 186 232 302 372 432
#     4  11  25  47  73 102 145 184 237 297 369 442
#     4  11  20  39  70  97 144 187 236 293 356 430
#     4  11  25  47  74 106 138 187 245 295 373 445
#     4  10  22  42  62 100 140 184 244 296 366 422
#     4  10  22  42  67 102 139 182 239 294 357 426
#     4  11  24  40  72 103 140 186 239 305 359 434
#     4   9  20  39  64  98 141 188 240 297 353 428
#
# _framework density 22.859919999999999
#
# number of rings (size 3 to 8) (size 9 to 14) (size 15 to 20)
#    0.000    1.481    2.963    1.333    2.074    4.148 
#    0.000    0.000   26.074    0.000    0.000    0.000 
#    0.000    0.000    0.000    0.000    0.000    0.000 
#
# Total GULP energy -300605.944892 kJ/mol
# GULP energy per Si atom -5566.776757 kJ/mol
# Density = 2.280789 g / cm^3
# Si number density = 22.859920 Si / 1000 Ang^3
#
#
#
# Elastic Constant Matrix: (Units=GPa)
#
#
# Indices 1 2 3 4 5 6 
#
# 1 126.8618 37.4793 59.7324 0.0000 0.0000 0.0000
# 2 37.4793 49.3051 24.5040 0.0000 0.0000 0.0000
# 3 59.7324 24.5040 183.4384 0.0000 0.0000 0.0000
# 4 0.0000 0.0000 0.0000 73.0735 0.0000 0.0000
# 5 0.0000 0.0000 0.0000 0.0000 30.5093 0.0000
# 6 0.0000 0.0000 0.0000 0.0000 0.0000 26.0901
#
#
#
# Elastic Compliance Matrix: (Units=1/GPa)
#
#
# Indices 1 2 3 4 5 6 
#
# 1 0.011299 -0.007241 -0.002712 0.000000 0.000000 0.000000
# 2 -0.007241 0.026365 -0.001164 0.000000 0.000000 0.000000
# 3 -0.002712 -0.001164 0.006490 0.000000 0.000000 0.000000
# 4 0.000000 0.000000 0.000000 0.013685 0.000000 0.000000
# 5 0.000000 0.000000 0.000000 0.000000 0.032777 0.000000
# 6 0.000000 0.000000 0.000000 0.000000 0.000000 0.038329
#
#
# Mechanical properties :
#
#
# Convention : Reuss Voigt Hill
#
# Bulk Modulus (GPa) = 45.62124 67.00406 56.31265
# Shear Modulus (GPa) = 31.54897 41.79391 36.67144
#
# Velocity S-wave (km/s) = 3.71900 4.28046 4.00957
# Velocity P-wave (km/s) = 6.20012 7.33513 6.79138
#
# Compressibility (1/GPa) = 0.02191962
#
# Stress axis : x y z
#
# Youngs Moduli (GPa) = 88.50577 37.92967 154.08382
#
# Poissons Ratio (x) = 0.27465 0.41786
# Poissons Ratio (y) = 0.64087 0.17935
# Poissons Ratio (z) = 0.24002 0.04415
#
# Static dielectric constant tensor:
#      x y z
#    x 1.977620 0.000000 0.000000 
#    y 0.000000 0.793820 0.000000 
#    z 0.000000 0.000000 1.925030 
# 
# From -- ./inp_files/55328.got.cif
#   From: 2010.05.17/outbox.cif.g08.bks.cpg/sg68_28_cif.got.tgz:55328.got - 2010.06.03 18:57:09.
