data_PCOD9508954
_publ_section_title
;
Structure prediction by ZEFSAII (Michael W. Deem and Ramdas Pophale) SiO2 
 PCOD9508954
Probable space group: C C C A
;
_chemical_formula_sum "Si O2"
_cell_formula_units_Z 92
_cell_length_a 7.917699
_cell_length_b 21.684602
_cell_length_c 26.010876
_cell_angle_alpha 90.000000
_cell_angle_beta 90.000000
_cell_angle_gamma 90.000000
_cell_volume 4465.863265
_symmetry_space_group_name_H-M "C C C A"
_symmetry_group_IT_number 68
_space_group.IT_coordinate_system_code '2'
_symmetry_cell_setting 'orthorhombic'
loop_
_space_group_symop_operation_xyz
x,y,z
-x,1/2-y,z
x,1/2-y,1/2-z
-x,y,1/2-z
-x,-y,-z
x,1/2+y,-z
-x,1/2+y,1/2+z
x,-y,1/2+z
1/2+x,1/2+y,z
1/2-x,-y,z
1/2+x,-y,1/2-z
1/2-x,1/2+y,1/2-z
1/2-x,1/2-y,-z
1/2+x,y,-z
1/2-x,y,1/2+z
1/2+x,1/2-y,1/2+z
loop_
_atom_site_type_symbol
_atom_site_label
_atom_site_fract_x
_atom_site_fract_y
_atom_site_fract_z
Si Si1 0.393825 0.051674 0.198077
Si Si2 0.715141 0.677552 0.166488
Si Si3 0.552218 0.016073 0.090603
Si Si4 0.000000 0.250000 0.250000
Si Si5 0.970134 0.119547 0.429990
Si Si6 0.360122 0.637750 0.540142
Si Si7 0.000000 0.250000 0.893514
O O1 0.500000 0.052241 0.250000
O O2 0.313667 0.118144 0.187502
O O3 0.503868 0.034849 0.148149
O O4 0.250000 0.000000 0.202370
O O5 0.613416 0.708524 0.212548
O O6 0.591908 0.652824 0.121460
O O7 0.847202 0.725266 0.141555
O O8 0.534980 0.075660 0.054363
O O9 0.750000 0.000000 0.088697
O O10 0.450198 0.954665 0.075293
O O11 0.868299 0.144415 0.478971
O O12 0.167649 0.131184 0.441016
O O13 0.440625 0.694232 0.570437
#
# Coordination Sequence:
#
# PCOD9508954 Si02
#       7
#    16  16  16   4  16  16   8
#     4  12  26  44  74 104 139 177 233 294 356 406
#     4  12  28  48  72 100 140 184 239 292 345 417
#     4  10  22  44  68 105 143 177 226 286 347 416
#     4  12  32  48  72  96 140 196 236 294 350 406
#     4  11  24  45  71 104 142 181 231 292 349 414
#     4  11  24  41  73 105 144 188 226 278 352 420
#     4  12  26  46  70 102 140 184 236 286 338 432
#
# _framework density 20.600719999999999
#
# number of rings (size 3 to 8) (size 9 to 14) (size 15 to 20)
#    0.000    0.696    3.478    3.130    3.652    6.261 
#    0.000    0.000    0.000    0.000    0.000    0.000 
#    0.000    0.000    0.000    0.000    0.000    0.000 
#
# Total GULP energy -257610.239695 kJ/mol
# GULP energy per Si atom -5600.222602 kJ/mol
# Density = 2.055383 g / cm^3
# Si number density = 20.600720 Si / 1000 Ang^3
#
#
#
# Elastic Constant Matrix: (Units=GPa)
#
#
# Indices 1 2 3 4 5 6 
#
# 1 39.1642 42.7395 14.6908 0.0000 0.0000 0.0000
# 2 42.7395 136.5084 58.1579 0.0000 0.0000 0.0000
# 3 14.6908 58.1579 119.1468 0.0000 0.0000 0.0000
# 4 0.0000 0.0000 0.0000 15.0051 0.0000 0.0000
# 5 0.0000 0.0000 0.0000 0.0000 52.8311 0.0000
# 6 0.0000 0.0000 0.0000 0.0000 0.0000 23.5760
#
#
#
# Elastic Compliance Matrix: (Units=1/GPa)
#
#
# Indices 1 2 3 4 5 6 
#
# 1 0.038984 -0.012825 0.001453 0.000000 0.000000 0.000000
# 2 -0.012825 0.013468 -0.004993 0.000000 0.000000 0.000000
# 3 0.001453 -0.004993 0.010651 0.000000 0.000000 0.000000
# 4 0.000000 0.000000 0.000000 0.066644 0.000000 0.000000
# 5 0.000000 0.000000 0.000000 0.000000 0.018928 0.000000
# 6 0.000000 0.000000 0.000000 0.000000 0.000000 0.042416
#
#
# Mechanical properties :
#
#
# Convention : Reuss Voigt Hill
#
# Bulk Modulus (GPa) = 32.92240 58.44397 45.68318
# Shear Modulus (GPa) = 21.37268 30.23119 25.80193
#
# Velocity S-wave (km/s) = 3.22448 3.83493 3.54287
# Velocity P-wave (km/s) = 5.46616 6.93112 6.24176
#
# Compressibility (1/GPa) = 0.03037446
#
# Stress axis : x y z
#
# Youngs Moduli (GPa) = 25.65173 74.25073 93.88924
#
# Poissons Ratio (x) = 0.95223 -0.13644
# Poissons Ratio (y) = 0.32897 0.46876
# Poissons Ratio (z) = -0.03728 0.37071
#
# Static dielectric constant tensor:
#      x y z
#    x 1.722900 0.000000 0.000000 
#    y 0.000000 1.732900 0.000000 
#    z 0.000000 0.000000 1.685460 
# 
# From -- ./inp_files/43167.got.cif
#   From: 2010.05.17/outbox.cif.g08.bks.cpg/sg68_22_cif.got.tgz:43167.got - 2010.06.03 18:57:09.
