data_PCOD9508124
_publ_section_title
;
Structure prediction by ZEFSAII (Michael W. Deem and Ramdas Pophale) SiO2 
 PCOD9508124
Probable space group: C C C A
;
_chemical_formula_sum "Si O2"
_cell_formula_units_Z 112
_cell_length_a 14.557292
_cell_length_b 29.593513
_cell_length_c 12.367228
_cell_angle_alpha 90.000000
_cell_angle_beta 90.000000
_cell_angle_gamma 90.000000
_cell_volume 5327.819261
_symmetry_space_group_name_H-M "C C C A"
_symmetry_group_IT_number 68
_space_group.IT_coordinate_system_code '2'
_symmetry_cell_setting 'orthorhombic'
loop_
_space_group_symop_operation_xyz
x,y,z
-x,1/2-y,z
x,1/2-y,1/2-z
-x,y,1/2-z
-x,-y,-z
x,1/2+y,-z
-x,1/2+y,1/2+z
x,-y,1/2+z
1/2+x,1/2+y,z
1/2-x,-y,z
1/2+x,-y,1/2-z
1/2-x,1/2+y,1/2-z
1/2-x,1/2-y,-z
1/2+x,y,-z
1/2-x,y,1/2+z
1/2+x,1/2-y,1/2+z
loop_
_atom_site_type_symbol
_atom_site_label
_atom_site_fract_x
_atom_site_fract_y
_atom_site_fract_z
Si Si1 0.424436 0.817751 0.603317
Si Si2 0.711366 0.238589 0.122002
Si Si3 0.698380 0.455148 0.592129
Si Si4 0.378268 0.651727 0.659638
Si Si5 0.440860 0.442956 0.089956
Si Si6 0.632286 0.904037 0.983280
Si Si7 0.093696 0.539964 0.694839
O O1 0.383174 0.768059 0.614828
O O2 0.533056 0.824893 0.603285
O O3 0.391419 0.841914 0.713383
O O4 0.385262 0.850577 0.511421
O O5 0.744802 0.250000 0.250000
O O6 0.702797 0.184430 0.124184
O O7 0.750000 0.250000 0.000000
O O8 0.750000 0.500000 0.551520
O O9 0.603188 0.450500 0.527745
O O10 0.770063 0.415322 0.569785
O O11 0.672546 0.460750 0.715876
O O12 0.382546 0.599043 0.635559
O O13 0.546650 0.427045 0.082626
O O14 0.427445 0.489330 0.153212
O O15 0.625335 0.928326 0.097969
O O16 0.000000 0.557286 0.750000
#
# Coordination Sequence:
#
# PCOD9508124 Si02
#       7
#    16  16  16  16  16  16  16
#     4   9  20  39  66  93 121 159 214 265 315 398
#     4  10  21  41  64  97 131 164 209 270 338 395
#     4  12  26  40  60  89 122 172 218 265 321 387
#     4   9  20  37  68  92 118 164 209 263 327 384
#     4  11  24  43  61  90 128 165 213 270 324 393
#     4  11  24  44  61  93 127 167 217 270 326 390
#     4  12  25  42  64  86 131 177 216 270 331 392
#
# _framework density 21.021735
#
# number of rings (size 3 to 8) (size 9 to 14) (size 15 to 20)
#    0.000    1.429    2.857    1.714   10.000    1.714 
#    2.571    0.000    0.000    0.857    0.000    0.000 
#    0.000    0.000    0.000    0.000    0.000    0.000 
#
# Total GULP energy -312272.556202 kJ/mol
# GULP energy per Si atom -5576.295646 kJ/mol
# Density = 2.097389 g / cm^3
# Si number density = 21.021735 Si / 1000 Ang^3
#
#
#
# Elastic Constant Matrix: (Units=GPa)
#
#
# Indices 1 2 3 4 5 6 
#
# 1 61.6785 -0.6654 32.2183 0.0000 0.0000 0.0000
# 2 -0.6654 57.2780 25.8288 0.0000 0.0000 0.0000
# 3 32.2183 25.8288 91.6455 0.0000 0.0000 0.0000
# 4 0.0000 0.0000 0.0000 22.0680 0.0000 0.0000
# 5 0.0000 0.0000 0.0000 0.0000 26.2705 0.0000
# 6 0.0000 0.0000 0.0000 0.0000 0.0000 24.2931
#
#
#
# Elastic Compliance Matrix: (Units=1/GPa)
#
#
# Indices 1 2 3 4 5 6 
#
# 1 0.020639 0.004023 -0.008389 0.000000 0.000000 0.000000
# 2 0.004023 0.020785 -0.007272 0.000000 0.000000 0.000000
# 3 -0.008389 -0.007272 0.015910 0.000000 0.000000 0.000000
# 4 0.000000 0.000000 0.000000 0.045314 0.000000 0.000000
# 5 0.000000 0.000000 0.000000 0.000000 0.038065 0.000000
# 6 0.000000 0.000000 0.000000 0.000000 0.000000 0.041164
#
#
# Mechanical properties :
#
#
# Convention : Reuss Voigt Hill
#
# Bulk Modulus (GPa) = 29.36281 36.15171 32.75726
# Shear Modulus (GPa) = 23.09392 24.74103 23.91748
#
# Velocity S-wave (km/s) = 3.31807 3.43436 3.37671
# Velocity P-wave (km/s) = 5.35515 5.74117 5.55152
#
# Compressibility (1/GPa) = 0.03405669
#
# Stress axis : x y z
#
# Youngs Moduli (GPa) = 48.45245 48.11234 62.85180
#
# Poissons Ratio (x) = -0.19355 0.52729
# Poissons Ratio (y) = -0.19492 0.45706
# Poissons Ratio (z) = 0.40649 0.34988
#
# Static dielectric constant tensor:
#      x y z
#    x 1.803530 0.000000 0.000000 
#    y 0.000000 1.748920 0.000000 
#    z 0.000000 0.000000 1.803280 
# 
# From -- ./inp_files/13577.got.cif
#   From: 2010.05.17/outbox.cif.g08.bks.cpg/sg68_7_cif.got.tgz:13577.got - 2010.06.03 18:57:09.
