data_PCOD9508899
_publ_section_title
;
Structure prediction by ZEFSAII (Michael W. Deem and Ramdas Pophale) SiO2 
 PCOD9508899
Probable space group: C C C A
;
_chemical_formula_sum "Si O2"
_cell_formula_units_Z 88
_cell_length_a 19.353831
_cell_length_b 18.810776
_cell_length_c 11.791498
_cell_angle_alpha 90.000000
_cell_angle_beta 90.000000
_cell_angle_gamma 90.000000
_cell_volume 4292.819597
_symmetry_space_group_name_H-M "C C C A"
_symmetry_group_IT_number 68
_space_group.IT_coordinate_system_code '2'
_symmetry_cell_setting 'orthorhombic'
loop_
_space_group_symop_operation_xyz
x,y,z
-x,1/2-y,z
x,1/2-y,1/2-z
-x,y,1/2-z
-x,-y,-z
x,1/2+y,-z
-x,1/2+y,1/2+z
x,-y,1/2+z
1/2+x,1/2+y,z
1/2-x,-y,z
1/2+x,-y,1/2-z
1/2-x,1/2+y,1/2-z
1/2-x,1/2-y,-z
1/2+x,y,-z
1/2-x,y,1/2+z
1/2+x,1/2-y,1/2+z
loop_
_atom_site_type_symbol
_atom_site_label
_atom_site_fract_x
_atom_site_fract_y
_atom_site_fract_z
Si Si1 0.937267 0.707655 0.369501
Si Si2 0.494256 0.084264 0.491288
Si Si3 0.250000 0.500000 0.475484
Si Si4 0.641380 0.605090 0.407182
Si Si5 0.864038 0.905590 0.847002
Si Si6 0.323380 0.263030 0.946764
O O1 0.928325 0.750000 0.250000
O O2 0.963250 0.625651 0.380676
O O3 0.871118 0.716863 0.446128
O O4 0.000000 0.750000 0.428488
O O5 0.573549 0.105103 0.513732
O O6 0.437214 0.101307 0.588100
O O7 0.500000 0.000000 0.500000
O O8 0.293579 0.440217 0.545115
O O9 0.189708 0.460666 0.404122
O O10 0.623976 0.574911 0.283235
O O11 0.656417 0.688180 0.393853
O O12 0.828111 0.828909 0.862154
O O13 0.250000 0.250000 0.000000
#
# Coordination Sequence:
#
# PCOD9508899 Si02
#       6
#    16  16   8  16  16  16
#     4  10  22  43  68  98 133 177 223 285 343 394
#     4  11  23  46  67 100 140 173 231 283 336 413
#     4  12  24  46  64 100 146 164 220 288 330 420
#     4  12  24  45  68  95 135 179 218 280 341 399
#     4  11  25  43  68  99 130 181 223 271 346 400
#     4  11  23  44  65  96 136 170 229 272 323 413
#
# _framework density 20.499347
#
# number of rings (size 3 to 8) (size 9 to 14) (size 15 to 20)
#    0.000    0.909    5.455    1.636    0.000    1.455 
#    9.818    1.818    0.000    0.000    0.000    0.000 
#    0.000    0.000    0.000    0.000    0.000    0.000 
#
# Total GULP energy -245164.351316 kJ/mol
# GULP energy per Si atom -5571.917075 kJ/mol
# Density = 2.045269 g / cm^3
# Si number density = 20.499347 Si / 1000 Ang^3
#
#
#
# Elastic Constant Matrix: (Units=GPa)
#
#
# Indices 1 2 3 4 5 6 
#
# 1 97.7065 -2.3290 14.3588 0.0000 0.0000 0.0000
# 2 -2.3290 119.4129 14.5209 0.0000 0.0000 0.0000
# 3 14.3588 14.5209 85.8158 0.0000 0.0000 0.0000
# 4 0.0000 0.0000 0.0000 10.5010 0.0000 0.0000
# 5 0.0000 0.0000 0.0000 0.0000 16.4911 0.0000
# 6 0.0000 0.0000 0.0000 0.0000 0.0000 37.6084
#
#
#
# Elastic Compliance Matrix: (Units=1/GPa)
#
#
# Indices 1 2 3 4 5 6 
#
# 1 0.010514 0.000428 -0.001832 0.000000 0.000000 0.000000
# 2 0.000428 0.008568 -0.001521 0.000000 0.000000 0.000000
# 3 -0.001832 -0.001521 0.012217 0.000000 0.000000 0.000000
# 4 0.000000 0.000000 0.000000 0.095229 0.000000 0.000000
# 5 0.000000 0.000000 0.000000 0.000000 0.060639 0.000000
# 6 0.000000 0.000000 0.000000 0.000000 0.000000 0.026590
#
#
# Mechanical properties :
#
#
# Convention : Reuss Voigt Hill
#
# Bulk Modulus (GPa) = 39.29546 39.55962 39.42754
# Shear Modulus (GPa) = 21.92130 31.34575 26.63352
#
# Velocity S-wave (km/s) = 3.27366 3.91463 3.60840
# Velocity P-wave (km/s) = 5.78791 6.30653 6.05278
#
# Compressibility (1/GPa) = 0.02544823
#
# Stress axis : x y z
#
# Youngs Moduli (GPa) = 95.11034 116.71823 81.85483
#
# Poissons Ratio (x) = -0.04993 0.14993
# Poissons Ratio (y) = -0.04069 0.12453
# Poissons Ratio (z) = 0.17421 0.17756
#
# Static dielectric constant tensor:
#      x y z
#    x 1.766220 0.000000 0.000000 
#    y 0.000000 1.732610 0.000000 
#    z 0.000000 0.000000 1.768400 
# 
# From -- ./inp_files/15444.got.cif
#   From: 2010.05.17/outbox.cif.g08.bks.cpg/sg68_8_cif.got.tgz:15444.got - 2010.06.03 18:57:09.
