data_PCOD9508038
_publ_section_title
;
Structure prediction by ZEFSAII (Michael W. Deem and Ramdas Pophale) SiO2 
 PCOD9508038
Probable space group: C C C A
;
_chemical_formula_sum "Si O2"
_cell_formula_units_Z 104
_cell_length_a 21.360600
_cell_length_b 24.306775
_cell_length_c 8.155877
_cell_angle_alpha 90.000000
_cell_angle_beta 90.000000
_cell_angle_gamma 90.000000
_cell_volume 4234.590861
_symmetry_space_group_name_H-M "C C C A"
_symmetry_group_IT_number 68
_space_group.IT_coordinate_system_code '2'
_symmetry_cell_setting 'orthorhombic'
loop_
_space_group_symop_operation_xyz
x,y,z
-x,1/2-y,z
x,1/2-y,1/2-z
-x,y,1/2-z
-x,-y,-z
x,1/2+y,-z
-x,1/2+y,1/2+z
x,-y,1/2+z
1/2+x,1/2+y,z
1/2-x,-y,z
1/2+x,-y,1/2-z
1/2-x,1/2+y,1/2-z
1/2-x,1/2-y,-z
1/2+x,y,-z
1/2-x,y,1/2+z
1/2+x,1/2-y,1/2+z
loop_
_atom_site_type_symbol
_atom_site_label
_atom_site_fract_x
_atom_site_fract_y
_atom_site_fract_z
Si Si1 0.156415 0.169211 0.436589
Si Si2 0.137662 0.949468 0.805466
Si Si3 0.500000 0.558510 0.250000
Si Si4 0.398276 0.230130 0.431145
Si Si5 0.170100 0.062509 0.940119
Si Si6 0.037631 0.119374 0.920579
Si Si7 0.280918 0.167166 0.293625
O O1 0.132323 0.108086 0.400716
O O2 0.105649 0.217122 0.453140
O O3 0.209663 0.185503 0.306878
O O4 0.191021 0.168326 0.612697
O O5 0.170287 0.935182 0.634946
O O6 0.066960 0.971064 0.766771
O O7 0.173122 0.999090 0.891558
O O8 0.492961 0.590957 0.421492
O O9 0.417530 0.250000 0.250000
O O10 0.443154 0.180524 0.476498
O O11 0.328563 0.203681 0.403309
O O12 0.103056 0.087946 0.886924
O O13 0.218423 0.104790 0.861857
O O14 0.000000 0.119945 0.750000
#
# Coordination Sequence:
#
# PCOD9508038 Si02
#       7
#    16  16   8  16  16  16  16
#     4  11  22  40  67  93 137 176 223 282 338 419
#     4  11  24  41  64  95 136 172 228 280 339 410
#     4  10  26  42  63 104 128 184 231 280 350 402
#     4   9  21  40  65  96 124 178 223 273 346 411
#     4  10  23  41  64 100 127 174 224 281 341 412
#     4  10  23  42  70  94 137 175 230 286 343 405
#     4  10  21  40  65  95 129 170 222 275 344 402
#
# _framework density 24.559633000000002
#
# number of rings (size 3 to 8) (size 9 to 14) (size 15 to 20)
#    0.000    1.846    0.000    2.308    9.692    2.154 
#    0.000   15.385    0.000    0.000    0.000    0.000 
#    0.000    0.000    0.000    0.000    0.000    0.000 
#
# Total GULP energy -291189.171109 kJ/mol
# GULP energy per Si atom -5599.791752 kJ/mol
# Density = 2.450373 g / cm^3
# Si number density = 24.559633 Si / 1000 Ang^3
#
#
#
# Elastic Constant Matrix: (Units=GPa)
#
#
# Indices 1 2 3 4 5 6 
#
# 1 66.4209 9.1618 19.2115 0.0000 0.0000 0.0000
# 2 9.1618 158.0332 41.9038 0.0000 0.0000 0.0000
# 3 19.2115 41.9038 90.0999 0.0000 0.0000 0.0000
# 4 0.0000 0.0000 0.0000 28.0902 0.0000 0.0000
# 5 0.0000 0.0000 0.0000 0.0000 21.5447 0.0000
# 6 0.0000 0.0000 0.0000 0.0000 0.0000 4.0461
#
#
#
# Elastic Compliance Matrix: (Units=1/GPa)
#
#
# Indices 1 2 3 4 5 6 
#
# 1 0.016045 -0.000026 -0.003409 0.000000 0.000000 0.000000
# 2 -0.000026 0.007218 -0.003351 0.000000 0.000000 0.000000
# 3 -0.003409 -0.003351 0.013384 0.000000 0.000000 0.000000
# 4 0.000000 0.000000 0.000000 0.035600 0.000000 0.000000
# 5 0.000000 0.000000 0.000000 0.000000 0.046415 0.000000
# 6 0.000000 0.000000 0.000000 0.000000 0.000000 0.247152
#
#
# Mechanical properties :
#
#
# Convention : Reuss Voigt Hill
#
# Bulk Modulus (GPa) = 43.33846 50.56759 46.95302
# Shear Modulus (GPa) = 12.91725 27.02131 19.96928
#
# Velocity S-wave (km/s) = 2.29586 3.32057 2.85457
# Velocity P-wave (km/s) = 4.97116 5.94441 5.47944
#
# Compressibility (1/GPa) = 0.02307419
#
# Stress axis : x y z
#
# Youngs Moduli (GPa) = 62.32413 138.54364 74.71427
#
# Poissons Ratio (x) = 0.00364 0.25470
# Poissons Ratio (y) = 0.00164 0.25039
# Poissons Ratio (z) = 0.21246 0.46431
#
# Static dielectric constant tensor:
#      x y z
#    x 2.025990 0.000000 0.000000 
#    y 0.000000 1.976930 0.000000 
#    z 0.000000 0.000000 1.897240 
# 
# From -- ./inp_files/9000.got.cif
#   From: 2010.05.17/outbox.cif.g08.bks.cpg/sg68_5_cif.got.tgz:9000.got - 2010.06.03 18:57:09.
