data_PCOD9508066
_publ_section_title
;
Structure prediction by ZEFSAII (Michael W. Deem and Ramdas Pophale) SiO2 
 PCOD9508066
Probable space group: C C C A
;
_chemical_formula_sum "Si O2"
_cell_formula_units_Z 64
_cell_length_a 11.388952
_cell_length_b 9.200616
_cell_length_c 33.469153
_cell_angle_alpha 90.000000
_cell_angle_beta 90.000000
_cell_angle_gamma 90.000000
_cell_volume 3507.077714
_symmetry_space_group_name_H-M "C C C A"
_symmetry_group_IT_number 68
_space_group.IT_coordinate_system_code '2'
_symmetry_cell_setting 'orthorhombic'
loop_
_space_group_symop_operation_xyz
x,y,z
-x,1/2-y,z
x,1/2-y,1/2-z
-x,y,1/2-z
-x,-y,-z
x,1/2+y,-z
-x,1/2+y,1/2+z
x,-y,1/2+z
1/2+x,1/2+y,z
1/2-x,-y,z
1/2+x,-y,1/2-z
1/2-x,1/2+y,1/2-z
1/2-x,1/2-y,-z
1/2+x,y,-z
1/2-x,y,1/2+z
1/2+x,1/2-y,1/2+z
loop_
_atom_site_type_symbol
_atom_site_label
_atom_site_fract_x
_atom_site_fract_y
_atom_site_fract_z
Si Si1 0.750000 0.500000 0.614201
Si Si2 0.000000 0.957919 0.750000
Si Si3 0.101652 0.649776 0.318626
Si Si4 0.250000 0.000000 0.486321
Si Si5 0.864194 0.789479 0.950279
Si Si6 0.217815 0.250000 0.250000
O O1 0.842952 0.432499 0.644566
O O2 0.805218 0.628136 0.587200
O O3 0.122729 0.875961 0.758138
O O4 0.029874 0.048575 0.711356
O O5 0.200734 0.718601 0.288731
O O6 0.000000 0.750000 0.335466
O O7 0.158387 0.910080 0.514575
O O8 0.305200 0.866059 0.461442
O O9 0.000000 0.750000 0.944455
#
# Coordination Sequence:
#
# PCOD9508066 Si02
#       6
#     8   8  16   8  16   8
#     4  11  26  40  56  93 136 162 214 261 320 384
#     4  11  21  36  62  82 107 147 206 270 314 373
#     4  12  23  39  60  85 117 161 210 268 319 374
#     4   9  20  40  70 101 124 164 216 247 296 396
#     4  10  21  40  67  96 132 168 204 257 312 375
#     4  11  21  36  62  84 103 149 212 258 324 373
#
# _framework density 18.248811
#
# number of rings (size 3 to 8) (size 9 to 14) (size 15 to 20)
#    0.000    1.250    5.000    0.750    0.000    4.000 
#    0.000    2.500    0.000    0.000    0.000    0.000 
#    0.000    0.000    0.000    0.000    0.000    0.000 
#
# Total GULP energy -178180.257084 kJ/mol
# GULP energy per Si atom -5568.133034 kJ/mol
# Density = 1.820728 g / cm^3
# Si number density = 18.248811 Si / 1000 Ang^3
#
#
#
# Elastic Constant Matrix: (Units=GPa)
#
#
# Indices 1 2 3 4 5 6 
#
# 1 107.9990 55.8719 44.6688 0.0000 0.0000 0.0000
# 2 55.8719 123.0267 60.8669 0.0000 0.0000 0.0000
# 3 44.6688 60.8669 114.2324 0.0000 0.0000 0.0000
# 4 0.0000 0.0000 0.0000 34.8527 0.0000 0.0000
# 5 0.0000 0.0000 0.0000 0.0000 21.2946 0.0000
# 6 0.0000 0.0000 0.0000 0.0000 0.0000 44.0811
#
#
#
# Elastic Compliance Matrix: (Units=1/GPa)
#
#
# Indices 1 2 3 4 5 6 
#
# 1 0.012630 -0.004471 -0.002556 0.000000 0.000000 0.000000
# 2 -0.004471 0.012621 -0.004977 0.000000 0.000000 0.000000
# 3 -0.002556 -0.004977 0.012405 0.000000 0.000000 0.000000
# 4 0.000000 0.000000 0.000000 0.028692 0.000000 0.000000
# 5 0.000000 0.000000 0.000000 0.000000 0.046960 0.000000
# 6 0.000000 0.000000 0.000000 0.000000 0.000000 0.022685
#
#
# Mechanical properties :
#
#
# Convention : Reuss Voigt Hill
#
# Bulk Modulus (GPa) = 73.26959 74.23038 73.74998
# Shear Modulus (GPa) = 30.38575 32.30240 31.34407
#
# Velocity S-wave (km/s) = 4.08497 4.21183 4.14888
# Velocity P-wave (km/s) = 7.90486 8.02607 7.96570
#
# Compressibility (1/GPa) = 0.01364823
#
# Stress axis : x y z
#
# Youngs Moduli (GPa) = 79.17879 79.23368 80.61019
#
# Poissons Ratio (x) = 0.35425 0.20607
# Poissons Ratio (y) = 0.35400 0.40116
# Poissons Ratio (z) = 0.20241 0.39431
#
# Static dielectric constant tensor:
#      x y z
#    x 0.628380 0.000000 0.000000 
#    y 0.000000 1.732650 0.000000 
#    z 0.000000 0.000000 1.575070 
# 
# From -- ./inp_files/53839.got.cif
#   From: 2010.05.17/outbox.cif.g08.bks.cpg/sg68_27_cif.got.tgz:53839.got - 2010.06.03 18:57:09.
