data_PCOD9508733
_publ_section_title
;
Structure prediction by ZEFSAII (Michael W. Deem and Ramdas Pophale) SiO2 
 PCOD9508733
Probable space group: C C C A
;
_chemical_formula_sum "Si O2"
_cell_formula_units_Z 56
_cell_length_a 40.165614
_cell_length_b 5.017570
_cell_length_c 13.163730
_cell_angle_alpha 90.000000
_cell_angle_beta 90.000000
_cell_angle_gamma 90.000000
_cell_volume 2652.936264
_symmetry_space_group_name_H-M "C C C A"
_symmetry_group_IT_number 68
_space_group.IT_coordinate_system_code '2'
_symmetry_cell_setting 'orthorhombic'
loop_
_space_group_symop_operation_xyz
x,y,z
-x,1/2-y,z
x,1/2-y,1/2-z
-x,y,1/2-z
-x,-y,-z
x,1/2+y,-z
-x,1/2+y,1/2+z
x,-y,1/2+z
1/2+x,1/2+y,z
1/2-x,-y,z
1/2+x,-y,1/2-z
1/2-x,1/2+y,1/2-z
1/2-x,1/2-y,-z
1/2+x,y,-z
1/2-x,y,1/2+z
1/2+x,1/2-y,1/2+z
loop_
_atom_site_type_symbol
_atom_site_label
_atom_site_fract_x
_atom_site_fract_y
_atom_site_fract_z
Si Si1 0.461525 0.725147 0.932824
Si Si2 0.250000 0.000000 0.320766
Si Si3 0.318455 0.428075 0.567226
Si Si4 0.366032 0.250000 0.750000
Si Si5 0.912325 0.750000 0.250000
O O1 0.500000 0.750000 0.898843
O O2 0.436143 0.803076 0.845418
O O3 0.456779 0.426022 0.972942
O O4 0.239992 0.750000 0.250000
O O5 0.281068 0.910904 0.388995
O O6 0.323328 0.725804 0.526136
O O7 0.343085 0.343322 0.656756
O O8 0.389308 0.499277 0.776070
#
# Coordination Sequence:
#
# PCOD9508733 Si02
#       5
#    16   8  16   8   8
#     4  10  22  41  67  98 130 168 220 277 327 386
#     4  12  24  44  76 100 134 168 218 290 338 394
#     4  12  26  46  70  98 132 176 222 273 338 397
#     4  12  28  44  64  98 136 179 220 275 318 406
#     4  12  25  42  67  94 134 179 220 263 338 388
#
# _framework density 21.108687
#
# number of rings (size 3 to 8) (size 9 to 14) (size 15 to 20)
#    0.000    0.571    1.429    6.429    2.000    6.857 
#    0.000    5.714    0.000    0.000    0.000    0.000 
#    0.000    0.000    0.000    0.000    0.000    0.000 
#
# Total GULP energy -156804.439011 kJ/mol
# GULP energy per Si atom -5600.158536 kJ/mol
# Density = 2.106064 g / cm^3
# Si number density = 21.108687 Si / 1000 Ang^3
#
#
#
# Elastic Constant Matrix: (Units=GPa)
#
#
# Indices 1 2 3 4 5 6 
#
# 1 118.9901 16.5905 52.5146 0.0000 0.0000 0.0000
# 2 16.5905 93.1157 -1.9129 0.0000 0.0000 0.0000
# 3 52.5146 -1.9129 66.7885 0.0000 0.0000 0.0000
# 4 0.0000 0.0000 0.0000 37.4307 0.0000 0.0000
# 5 0.0000 0.0000 0.0000 0.0000 -54.1236 0.0000
# 6 0.0000 0.0000 0.0000 0.0000 0.0000 7.5373
#
#
#
# Elastic Compliance Matrix: (Units=1/GPa)
#
#
# Indices 1 2 3 4 5 6 
#
# 1 0.013481 -0.002621 -0.010675 0.000000 0.000000 0.000000
# 2 -0.002621 0.011255 0.002383 0.000000 0.000000 0.000000
# 3 -0.010675 0.002383 0.023434 0.000000 0.000000 0.000000
# 4 0.000000 0.000000 0.000000 0.026716 0.000000 0.000000
# 5 0.000000 0.000000 0.000000 0.000000 -0.018476 0.000000
# 6 0.000000 0.000000 0.000000 0.000000 0.000000 0.132673
#
#
# Mechanical properties :
#
#
# Convention : Reuss Voigt Hill
#
# Bulk Modulus (GPa) = 37.95764 45.91987 41.93876
# Shear Modulus (GPa) = 22.75938 12.28237 17.52088
#
# Velocity S-wave (km/s) = 3.28716 2.41480 2.88415
# Velocity P-wave (km/s) = 5.69458 5.43841 5.56797
#
# Compressibility (1/GPa) = 0.02634516
#
# Stress axis : x y z
#
# Youngs Moduli (GPa) = 74.18055 88.84706 42.67273
#
# Poissons Ratio (x) = 0.23288 0.45552
# Poissons Ratio (y) = 0.19444 -0.10170
# Poissons Ratio (z) = 0.79185 -0.21175
#
# Static dielectric constant tensor:
#      x y z
#    x 1.732330 0.000000 0.000000 
#    y 0.000000 1.721640 0.000000 
#    z 0.000000 0.000000 1.722750 
# 
# From -- ./inp_files/18364.got.cif
#   From: 2010.05.17/outbox.cif.g08.bks.cpg/sg68_10_cif.got.tgz:18364.got - 2010.06.03 18:57:09.
