data_PCOD9508739
_publ_section_title
;
Structure prediction by ZEFSAII (Michael W. Deem and Ramdas Pophale) SiO2 
 PCOD9508739
Probable space group: C C C A
;
_chemical_formula_sum "Si O2"
_cell_formula_units_Z 68
_cell_length_a 19.294906
_cell_length_b 5.468414
_cell_length_c 31.562779
_cell_angle_alpha 90.000000
_cell_angle_beta 90.000000
_cell_angle_gamma 90.000000
_cell_volume 3330.268795
_symmetry_space_group_name_H-M "C C C A"
_symmetry_group_IT_number 68
_space_group.IT_coordinate_system_code '2'
_symmetry_cell_setting 'orthorhombic'
loop_
_space_group_symop_operation_xyz
x,y,z
-x,1/2-y,z
x,1/2-y,1/2-z
-x,y,1/2-z
-x,-y,-z
x,1/2+y,-z
-x,1/2+y,1/2+z
x,-y,1/2+z
1/2+x,1/2+y,z
1/2-x,-y,z
1/2+x,-y,1/2-z
1/2-x,1/2+y,1/2-z
1/2-x,1/2-y,-z
1/2+x,y,-z
1/2-x,y,1/2+z
1/2+x,1/2-y,1/2+z
loop_
_atom_site_type_symbol
_atom_site_label
_atom_site_fract_x
_atom_site_fract_y
_atom_site_fract_z
Si Si1 0.604566 0.368047 0.313609
Si Si2 0.500000 0.250000 0.250000
Si Si3 0.069119 0.127185 0.602118
Si Si4 0.500000 0.750000 0.166069
Si Si5 0.667880 0.506215 0.025869
Si Si6 0.750000 0.000000 0.225322
O O1 0.560581 0.174336 0.285075
O O2 0.602123 0.312356 0.363612
O O3 0.556093 0.603694 0.306794
O O4 0.682212 0.414142 0.299973
O O5 0.121589 0.032446 0.567289
O O6 0.000000 0.250000 0.582647
O O7 0.042137 0.919249 0.633509
O O8 0.750000 0.500000 0.035917
O O9 0.653868 0.769284 0.004071
O O10 0.729995 0.750000 0.250000
#
# Coordination Sequence:
#
# PCOD9508739 Si02
#       6
#    16   4  16   8  16   8
#     4  11  25  43  67  96 138 181 231 283 350 399
#     4  12  20  46  64  94 134 186 224 288 330 420
#     4  10  23  43  65 103 132 175 232 281 341 413
#     4  10  22  41  68  95 130 178 237 270 344 413
#     4  10  24  45  69  99 137 181 225 275 346 414
#     4  12  30  46  64 102 138 174 238 290 340 410
#
# _framework density 20.418772000000001
#
# number of rings (size 3 to 8) (size 9 to 14) (size 15 to 20)
#    0.000    1.412    4.706    0.000   13.176    2.824 
#    2.118    0.000    0.000    0.000    0.000    0.000 
#    0.000    0.000    0.000    0.000    0.000    0.000 
#
# Total GULP energy -189277.817120 kJ/mol
# GULP energy per Si atom -5566.994621 kJ/mol
# Density = 2.037230 g / cm^3
# Si number density = 20.418772 Si / 1000 Ang^3
#
#
#
# Elastic Constant Matrix: (Units=GPa)
#
#
# Indices 1 2 3 4 5 6 
#
# 1 154.5530 29.6935 71.9088 0.0000 0.0000 0.0000
# 2 29.6935 87.1520 18.9202 0.0000 0.0000 0.0000
# 3 71.9088 18.9202 100.9017 0.0000 0.0000 0.0000
# 4 0.0000 0.0000 0.0000 -16.9568 0.0000 0.0000
# 5 0.0000 0.0000 0.0000 0.0000 28.0393 0.0000
# 6 0.0000 0.0000 0.0000 0.0000 0.0000 23.3682
#
#
#
# Elastic Compliance Matrix: (Units=1/GPa)
#
#
# Indices 1 2 3 4 5 6 
#
# 1 0.009984 -0.001936 -0.006752 0.000000 0.000000 0.000000
# 2 -0.001936 0.012336 -0.000934 0.000000 0.000000 0.000000
# 3 -0.006752 -0.000934 0.014898 0.000000 0.000000 0.000000
# 4 0.000000 0.000000 0.000000 -0.058973 0.000000 0.000000
# 5 0.000000 0.000000 0.000000 0.000000 0.035664 0.000000
# 6 0.000000 0.000000 0.000000 0.000000 0.000000 0.042793
#
#
# Mechanical properties :
#
#
# Convention : Reuss Voigt Hill
#
# Bulk Modulus (GPa) = 55.63328 64.85019 60.24173
# Shear Modulus (GPa) = 61.02312 21.69576 41.35944
#
# Velocity S-wave (km/s) = 5.47272 3.26320 4.50550
# Velocity P-wave (km/s) = 8.19997 6.78432 7.52551
#
# Compressibility (1/GPa) = 0.01797485
#
# Stress axis : x y z
#
# Youngs Moduli (GPa) = 100.16346 81.06073 67.12477
#
# Poissons Ratio (x) = 0.15691 0.45323
# Poissons Ratio (y) = 0.19389 0.06267
# Poissons Ratio (z) = 0.67631 0.07569
#
# Static dielectric constant tensor:
#      x y z
#    x 1.686630 0.000000 0.000000 
#    y 0.000000 1.956210 0.000000 
#    z 0.000000 0.000000 1.716520 
# 
# From -- ./inp_files/48206.got.cif
#   From: 2010.05.17/outbox.cif.g08.bks.cpg/sg68_25_cif.got.tgz:48206.got - 2010.06.03 18:57:09.
