data_PCOD9508812
_publ_section_title
;
Structure prediction by ZEFSAII (Michael W. Deem and Ramdas Pophale) SiO2 
 PCOD9508812
Probable space group: C C C A
;
_chemical_formula_sum "Si O2"
_cell_formula_units_Z 80
_cell_length_a 11.149687
_cell_length_b 21.397768
_cell_length_c 14.466753
_cell_angle_alpha 90.000000
_cell_angle_beta 90.000000
_cell_angle_gamma 90.000000
_cell_volume 3451.455011
_symmetry_space_group_name_H-M "C C C A"
_symmetry_group_IT_number 68
_space_group.IT_coordinate_system_code '2'
_symmetry_cell_setting 'orthorhombic'
loop_
_space_group_symop_operation_xyz
x,y,z
-x,1/2-y,z
x,1/2-y,1/2-z
-x,y,1/2-z
-x,-y,-z
x,1/2+y,-z
-x,1/2+y,1/2+z
x,-y,1/2+z
1/2+x,1/2+y,z
1/2-x,-y,z
1/2+x,-y,1/2-z
1/2-x,1/2+y,1/2-z
1/2-x,1/2-y,-z
1/2+x,y,-z
1/2-x,y,1/2+z
1/2+x,1/2-y,1/2+z
loop_
_atom_site_type_symbol
_atom_site_label
_atom_site_fract_x
_atom_site_fract_y
_atom_site_fract_z
Si Si1 0.354904 0.119230 0.567596
Si Si2 0.500000 0.068471 0.250000
Si Si3 0.710596 0.876023 0.645184
Si Si4 0.135164 0.748861 0.640602
Si Si5 0.250000 0.000000 0.548775
Si Si6 0.075856 0.538684 0.611860
O O1 0.347113 0.116171 0.456702
O O2 0.313484 0.185748 0.604353
O O3 0.271991 0.062928 0.603442
O O4 0.486154 0.096828 0.598353
O O5 0.389625 0.114389 0.276601
O O6 0.488280 0.017729 0.334125
O O7 0.781032 0.811074 0.629897
O O8 0.809316 0.930276 0.661952
O O9 0.120980 0.750000 0.750000
O O10 0.000000 0.750000 0.598787
O O11 0.135363 0.014323 0.483181
#
# Coordination Sequence:
#
# PCOD9508812 Si02
#       6
#    16   8  16  16   8  16
#     4  11  23  44  75 103 147 194 252 313 382 453
#     4  12  24  42  73 109 154 184 240 332 380 448
#     4  11  25  48  70 110 149 198 257 313 384 472
#     4  11  25  47  74 101 142 203 257 311 373 461
#     4  10  22  42  68 112 150 188 254 308 384 466
#     4  11  22  43  69 109 149 193 249 309 386 466
#
# _framework density 23.178629999999998
#
# number of rings (size 3 to 8) (size 9 to 14) (size 15 to 20)
#    0.000    1.000    6.000    1.200    2.800    1.600 
#    3.600    0.500    0.000    0.000    0.000    0.000 
#    0.000    0.000    0.000    0.000    0.000    0.000 
#
# Total GULP energy -223221.544955 kJ/mol
# GULP energy per Si atom -5580.538624 kJ/mol
# Density = 2.312587 g / cm^3
# Si number density = 23.178630 Si / 1000 Ang^3
#
#
#
# Elastic Constant Matrix: (Units=GPa)
#
#
# Indices 1 2 3 4 5 6 
#
# 1 136.8163 76.2832 45.1313 0.0000 0.0000 0.0000
# 2 76.2832 208.1417 27.1066 0.0000 0.0000 0.0000
# 3 45.1313 27.1066 76.5092 0.0000 0.0000 0.0000
# 4 0.0000 0.0000 0.0000 40.6138 0.0000 0.0000
# 5 0.0000 0.0000 0.0000 0.0000 38.9033 0.0000
# 6 0.0000 0.0000 0.0000 0.0000 0.0000 50.5570
#
#
#
# Elastic Compliance Matrix: (Units=1/GPa)
#
#
# Indices 1 2 3 4 5 6 
#
# 1 0.010883 -0.003305 -0.005249 0.000000 0.000000 0.000000
# 2 -0.003305 0.006041 -0.000190 0.000000 0.000000 0.000000
# 3 -0.005249 -0.000190 0.016234 0.000000 0.000000 0.000000
# 4 0.000000 0.000000 0.000000 0.024622 0.000000 0.000000
# 5 0.000000 0.000000 0.000000 0.000000 0.025705 0.000000
# 6 0.000000 0.000000 0.000000 0.000000 0.000000 0.019780
#
#
# Mechanical properties :
#
#
# Convention : Reuss Voigt Hill
#
# Bulk Modulus (GPa) = 63.82069 79.83438 71.82753
# Shear Modulus (GPa) = 39.68997 44.21121 41.95059
#
# Velocity S-wave (km/s) = 4.14255 4.37213 4.25889
# Velocity P-wave (km/s) = 7.10457 7.74631 7.43237
#
# Compressibility (1/GPa) = 0.01566890
#
# Stress axis : x y z
#
# Youngs Moduli (GPa) = 91.88387 165.54798 61.59909
#
# Poissons Ratio (x) = 0.54716 0.32333
# Poissons Ratio (y) = 0.30369 0.01173
# Poissons Ratio (z) = 0.48229 0.03153
#
# Static dielectric constant tensor:
#      x y z
#    x 2.006370 0.000000 0.000000 
#    y 0.000000 1.931520 0.000000 
#    z 0.000000 0.000000 1.879370 
# 
# From -- ./inp_files/29567.got.cif
#   From: 2010.05.17/outbox.cif.g08.bks.cpg/sg68_15_cif.got.tgz:29567.got - 2010.06.03 18:57:09.
