data_PCOD9508847
_publ_section_title
;
Structure prediction by ZEFSAII (Michael W. Deem and Ramdas Pophale) SiO2 
 PCOD9508847
Probable space group: C C C A
;
_chemical_formula_sum "Si O2"
_cell_formula_units_Z 56
_cell_length_a 18.975808
_cell_length_b 10.419153
_cell_length_c 11.594911
_cell_angle_alpha 90.000000
_cell_angle_beta 90.000000
_cell_angle_gamma 90.000000
_cell_volume 2292.451268
_symmetry_space_group_name_H-M "C C C A"
_symmetry_group_IT_number 68
_space_group.IT_coordinate_system_code '2'
_symmetry_cell_setting 'orthorhombic'
loop_
_space_group_symop_operation_xyz
x,y,z
-x,1/2-y,z
x,1/2-y,1/2-z
-x,y,1/2-z
-x,-y,-z
x,1/2+y,-z
-x,1/2+y,1/2+z
x,-y,1/2+z
1/2+x,1/2+y,z
1/2-x,-y,z
1/2+x,-y,1/2-z
1/2-x,1/2+y,1/2-z
1/2-x,1/2-y,-z
1/2+x,y,-z
1/2-x,y,1/2+z
1/2+x,1/2-y,1/2+z
loop_
_atom_site_type_symbol
_atom_site_label
_atom_site_fract_x
_atom_site_fract_y
_atom_site_fract_z
Si Si1 0.695071 0.886076 0.092641
Si Si2 0.834771 0.750649 0.117686
Si Si3 0.590384 0.250000 0.750000
Si Si4 0.043864 0.129839 0.012990
O O1 0.750482 0.770058 0.115220
O O2 0.635151 0.859451 0.184488
O O3 0.750000 0.000000 0.107567
O O4 0.659851 0.872473 0.966307
O O5 0.857301 0.750000 0.250000
O O6 0.880738 0.859139 0.051575
O O7 0.554708 0.169049 0.853296
O O8 0.000000 0.250000 0.961047
O O9 0.000000 0.000000 0.000000
#
# Coordination Sequence:
#
# PCOD9508847 Si02
#       4
#    16  16   8  16
#     4  10  22  42  72 108 142 183 239 315 390 445
#     4  10  23  44  67 106 143 186 246 307 375 448
#     4  10  23  50  76 110 153 200 252 324 392 450
#     4  11  27  50  73 107 154 209 259 306 380 467
#
# _framework density 24.428000000000001
#
# number of rings (size 3 to 8) (size 9 to 14) (size 15 to 20)
#    0.000    1.714    1.429    0.429    8.000    4.000 
#    5.143    0.000    0.000    0.000    0.000    0.000 
#    0.000    0.000    0.000    0.000    0.000    0.000 
#
# Total GULP energy -156226.053902 kJ/mol
# GULP energy per Si atom -5579.501925 kJ/mol
# Density = 2.437240 g / cm^3
# Si number density = 24.428000 Si / 1000 Ang^3
#
#
#
# Elastic Constant Matrix: (Units=GPa)
#
#
# Indices 1 2 3 4 5 6 
#
# 1 114.0849 35.4287 54.7613 0.0000 0.0000 0.0000
# 2 35.4287 117.9519 53.6646 0.0000 0.0000 0.0000
# 3 54.7613 53.6646 214.3872 0.0000 0.0000 0.0000
# 4 0.0000 0.0000 0.0000 15.2861 0.0000 0.0000
# 5 0.0000 0.0000 0.0000 0.0000 40.8375 0.0000
# 6 0.0000 0.0000 0.0000 0.0000 0.0000 50.9814
#
#
#
# Elastic Compliance Matrix: (Units=1/GPa)
#
#
# Indices 1 2 3 4 5 6 
#
# 1 0.010462 -0.002174 -0.002128 0.000000 0.000000 0.000000
# 2 -0.002174 0.010020 -0.001953 0.000000 0.000000 0.000000
# 3 -0.002128 -0.001953 0.005697 0.000000 0.000000 0.000000
# 4 0.000000 0.000000 0.000000 0.065419 0.000000 0.000000
# 5 0.000000 0.000000 0.000000 0.000000 0.024487 0.000000
# 6 0.000000 0.000000 0.000000 0.000000 0.000000 0.019615
#
#
# Mechanical properties :
#
#
# Convention : Reuss Voigt Hill
#
# Bulk Modulus (GPa) = 73.16141 81.57036 77.36589
# Shear Modulus (GPa) = 32.72987 41.59231 37.16109
#
# Velocity S-wave (km/s) = 3.66437 4.13079 3.90455
# Velocity P-wave (km/s) = 6.92230 7.49773 7.21575
#
# Compressibility (1/GPa) = 0.01366841
#
# Stress axis : x y z
#
# Youngs Moduli (GPa) = 95.58305 99.80527 175.53616
#
# Poissons Ratio (x) = 0.21700 0.37356
# Poissons Ratio (y) = 0.20782 0.34277
# Poissons Ratio (z) = 0.20341 0.19489
#
# Static dielectric constant tensor:
#      x y z
#    x 2.039950 0.000000 0.000000 
#    y 0.000000 2.143270 0.000000 
#    z 0.000000 0.000000 1.993750 
# 
# From -- ./inp_files/15077.got.cif
#   From: 2010.05.17/outbox.cif.g08.bks.cpg/sg68_8_cif.got.tgz:15077.got - 2010.06.03 18:57:09.
