data_PCOD9508529
_publ_section_title
;
Structure prediction by ZEFSAII (Michael W. Deem and Ramdas Pophale) SiO2 
 PCOD9508529
Probable space group: C C C A
;
_chemical_formula_sum "Si O2"
_cell_formula_units_Z 112
_cell_length_a 13.824682
_cell_length_b 11.768907
_cell_length_c 29.764381
_cell_angle_alpha 90.000000
_cell_angle_beta 90.000000
_cell_angle_gamma 90.000000
_cell_volume 4842.706362
_symmetry_space_group_name_H-M "C C C A"
_symmetry_group_IT_number 68
_space_group.IT_coordinate_system_code '2'
_symmetry_cell_setting 'orthorhombic'
loop_
_space_group_symop_operation_xyz
x,y,z
-x,1/2-y,z
x,1/2-y,1/2-z
-x,y,1/2-z
-x,-y,-z
x,1/2+y,-z
-x,1/2+y,1/2+z
x,-y,1/2+z
1/2+x,1/2+y,z
1/2-x,-y,z
1/2+x,-y,1/2-z
1/2-x,1/2+y,1/2-z
1/2-x,1/2-y,-z
1/2+x,y,-z
1/2-x,y,1/2+z
1/2+x,1/2-y,1/2+z
loop_
_atom_site_type_symbol
_atom_site_label
_atom_site_fract_x
_atom_site_fract_y
_atom_site_fract_z
Si Si1 0.637468 0.820523 0.316705
Si Si2 0.435949 0.352747 0.983202
Si Si3 0.497206 0.998611 0.348441
Si Si4 0.192408 0.390076 0.880110
Si Si5 0.851899 0.066574 0.219011
Si Si6 0.609249 0.989784 0.061616
Si Si7 0.769171 0.771358 0.552085
O O1 0.549640 0.874542 0.345280
O O2 0.737521 0.853012 0.340085
O O3 0.631641 0.888859 0.269585
O O4 0.642026 0.685745 0.308675
O O5 0.500000 0.250000 0.002639
O O6 0.379256 0.412364 0.024185
O O7 0.511783 0.433210 0.958657
O O8 0.367302 0.304000 0.944492
O O9 0.437140 0.009664 0.302305
O O10 0.419375 0.017967 0.387847
O O11 0.588269 0.077847 0.360732
O O12 0.250000 0.500000 0.900320
O O13 0.192024 0.289014 0.916255
O O14 0.750000 0.000000 0.215824
O O15 0.694115 0.897001 0.062531
O O16 0.750000 0.750000 0.500000
#
# Coordination Sequence:
#
# PCOD9508529 Si02
#       7
#    16  16  16  16  16  16  16
#     4  10  22  43  72  99 133 177 226 276 342 432
#     4   9  20  38  61  87 122 170 230 286 350 402
#     4  11  22  39  68  98 131 174 225 289 336 411
#     4  10  22  39  66  98 131 173 237 289 345 416
#     4  11  23  42  68 103 140 172 218 282 352 416
#     4  10  22  40  62  86 127 169 227 286 337 406
#     4  11  24  37  61  91 125 180 226 288 338 420
#
# _framework density 23.127562999999999
#
# number of rings (size 3 to 8) (size 9 to 14) (size 15 to 20)
#    0.000    1.714    0.000    4.714    8.000    4.571 
#    5.143    0.714    0.000    1.714    0.000    0.000 
#    0.000    0.000    0.000    0.000    0.000    0.000 
#
# Total GULP energy -312821.290798 kJ/mol
# GULP energy per Si atom -5586.094479 kJ/mol
# Density = 2.307492 g / cm^3
# Si number density = 23.127563 Si / 1000 Ang^3
#
#
#
# Elastic Constant Matrix: (Units=GPa)
#
#
# Indices 1 2 3 4 5 6 
#
# 1 103.0203 32.3236 28.9663 0.0000 0.0000 0.0000
# 2 32.3236 87.8467 38.6549 0.0000 0.0000 0.0000
# 3 28.9663 38.6549 94.4424 0.0000 0.0000 0.0000
# 4 0.0000 0.0000 0.0000 46.3646 0.0000 0.0000
# 5 0.0000 0.0000 0.0000 0.0000 105.6545 0.0000
# 6 0.0000 0.0000 0.0000 0.0000 0.0000 42.1752
#
#
#
# Elastic Compliance Matrix: (Units=1/GPa)
#
#
# Indices 1 2 3 4 5 6 
#
# 1 0.011323 -0.003218 -0.002156 0.000000 0.000000 0.000000
# 2 -0.003218 0.014798 -0.005070 0.000000 0.000000 0.000000
# 3 -0.002156 -0.005070 0.013325 0.000000 0.000000 0.000000
# 4 0.000000 0.000000 0.000000 0.021568 0.000000 0.000000
# 5 0.000000 0.000000 0.000000 0.000000 0.009465 0.000000
# 6 0.000000 0.000000 0.000000 0.000000 0.000000 0.023711
#
#
# Mechanical properties :
#
#
# Convention : Reuss Voigt Hill
#
# Bulk Modulus (GPa) = 53.88257 53.91100 53.89678
# Shear Modulus (GPa) = 41.23292 51.19650 46.21471
#
# Velocity S-wave (km/s) = 4.22696 4.71006 4.47503
# Velocity P-wave (km/s) = 6.86815 7.27602 7.07502
#
# Compressibility (1/GPa) = 0.01855888
#
# Stress axis : x y z
#
# Youngs Moduli (GPa) = 88.31964 67.57510 75.04803
#
# Poissons Ratio (x) = 0.21743 0.16179
# Poissons Ratio (y) = 0.28418 0.38050
# Poissons Ratio (z) = 0.19040 0.34261
#
# Static dielectric constant tensor:
#      x y z
#    x 2.884920 0.000000 0.000000 
#    y 0.000000 1.968880 0.000000 
#    z 0.000000 0.000000 1.859610 
# 
# From -- ./inp_files/55294.got.cif
#   From: 2010.05.17/outbox.cif.g08.bks.cpg/sg68_28_cif.got.tgz:55294.got - 2010.06.03 18:57:09.
