data_PCOD9508469
_publ_section_title
;
Structure prediction by ZEFSAII (Michael W. Deem and Ramdas Pophale) SiO2 
 PCOD9508469
Probable space group: C C C A
;
_chemical_formula_sum "Si O2"
_cell_formula_units_Z 56
_cell_length_a 17.045821
_cell_length_b 8.370879
_cell_length_c 15.982995
_cell_angle_alpha 90.000000
_cell_angle_beta 90.000000
_cell_angle_gamma 90.000000
_cell_volume 2280.589663
_symmetry_space_group_name_H-M "C C C A"
_symmetry_group_IT_number 68
_space_group.IT_coordinate_system_code '2'
_symmetry_cell_setting 'orthorhombic'
loop_
_space_group_symop_operation_xyz
x,y,z
-x,1/2-y,z
x,1/2-y,1/2-z
-x,y,1/2-z
-x,-y,-z
x,1/2+y,-z
-x,1/2+y,1/2+z
x,-y,1/2+z
1/2+x,1/2+y,z
1/2-x,-y,z
1/2+x,-y,1/2-z
1/2-x,1/2+y,1/2-z
1/2-x,1/2-y,-z
1/2+x,y,-z
1/2-x,y,1/2+z
1/2+x,1/2-y,1/2+z
loop_
_atom_site_type_symbol
_atom_site_label
_atom_site_fract_x
_atom_site_fract_y
_atom_site_fract_z
Si Si1 0.188224 0.694677 0.931903
Si Si2 0.087575 0.482346 0.031079
Si Si3 0.589057 0.419507 0.284442
Si Si4 0.819001 0.750000 0.750000
O O1 0.221401 0.722718 0.839532
O O2 0.111058 0.806658 0.939037
O O3 0.250000 0.750000 0.000000
O O4 0.151255 0.527846 0.960318
O O5 0.094095 0.588027 0.114874
O O6 0.000000 0.500000 0.000000
O O7 0.618627 0.250000 0.250000
O O8 0.500000 0.435333 0.250000
O O9 0.633111 0.582757 0.258416
#
# Coordination Sequence:
#
# PCOD9508469 Si02
#       4
#    16  16  16   8
#     4  11  25  46  69 101 138 185 231 287 360 423
#     4  11  24  42  70 104 138 180 238 291 348 424
#     4  10  22  38  67 105 140 184 236 288 359 420
#     4  10  23  46  68  94 145 188 232 294 356 432
#
# _framework density 24.555053000000001
#
# number of rings (size 3 to 8) (size 9 to 14) (size 15 to 20)
#    0.000    1.429    0.000    3.857   12.000    4.571 
#    2.571    2.857    0.000    0.000    0.000    0.000 
#    0.000    0.000    0.000    0.000    0.000    0.000 
#
# Total GULP energy -156590.044066 kJ/mol
# GULP energy per Si atom -5592.501574 kJ/mol
# Density = 2.449916 g / cm^3
# Si number density = 24.555053 Si / 1000 Ang^3
#
#
#
# Elastic Constant Matrix: (Units=GPa)
#
#
# Indices 1 2 3 4 5 6 
#
# 1 92.1607 17.8607 50.2573 0.0000 0.0000 0.0000
# 2 17.8607 141.5560 46.2112 0.0000 0.0000 0.0000
# 3 50.2573 46.2112 209.5713 0.0000 0.0000 0.0000
# 4 0.0000 0.0000 0.0000 39.5403 0.0000 0.0000
# 5 0.0000 0.0000 0.0000 0.0000 44.3746 0.0000
# 6 0.0000 0.0000 0.0000 0.0000 0.0000 9.8950
#
#
#
# Elastic Compliance Matrix: (Units=1/GPa)
#
#
# Indices 1 2 3 4 5 6 
#
# 1 0.012538 -0.000647 -0.002864 0.000000 0.000000 0.000000
# 2 -0.000647 0.007646 -0.001531 0.000000 0.000000 0.000000
# 3 -0.002864 -0.001531 0.005796 0.000000 0.000000 0.000000
# 4 0.000000 0.000000 0.000000 0.025291 0.000000 0.000000
# 5 0.000000 0.000000 0.000000 0.000000 0.022535 0.000000
# 6 0.000000 0.000000 0.000000 0.000000 0.000000 0.101061
#
#
# Mechanical properties :
#
#
# Convention : Reuss Voigt Hill
#
# Bulk Modulus (GPa) = 62.90892 74.66069 68.78481
# Shear Modulus (GPa) = 26.28137 40.69256 33.48696
#
# Velocity S-wave (km/s) = 3.27510 4.07528 3.69691
# Velocity P-wave (km/s) = 6.32273 7.25364 6.80412
#
# Compressibility (1/GPa) = 0.01589600
#
# Stress axis : x y z
#
# Youngs Moduli (GPa) = 79.75869 130.79264 172.53262
#
# Poissons Ratio (x) = 0.08462 0.49414
# Poissons Ratio (y) = 0.05160 0.26410
# Poissons Ratio (z) = 0.22843 0.20021
#
# Static dielectric constant tensor:
#      x y z
#    x 1.933780 0.000000 0.000000 
#    y 0.000000 1.902060 0.000000 
#    z 0.000000 0.000000 1.963010 
# 
# From -- ./inp_files/19060.got.cif
#   From: 2010.05.17/outbox.cif.g08.bks.cpg/sg68_10_cif.got.tgz:19060.got - 2010.06.03 18:57:09.
