data_PCOD9508834
_publ_section_title
;
Structure prediction by ZEFSAII (Michael W. Deem and Ramdas Pophale) SiO2 
 PCOD9508834
Probable space group: C C C A
;
_chemical_formula_sum "Si O2"
_cell_formula_units_Z 120
_cell_length_a 24.705057
_cell_length_b 10.582793
_cell_length_c 20.346864
_cell_angle_alpha 90.000000
_cell_angle_beta 90.000000
_cell_angle_gamma 90.000000
_cell_volume 5319.657160
_symmetry_space_group_name_H-M "C C C A"
_symmetry_group_IT_number 68
_space_group.IT_coordinate_system_code '2'
_symmetry_cell_setting 'orthorhombic'
loop_
_space_group_symop_operation_xyz
x,y,z
-x,1/2-y,z
x,1/2-y,1/2-z
-x,y,1/2-z
-x,-y,-z
x,1/2+y,-z
-x,1/2+y,1/2+z
x,-y,1/2+z
1/2+x,1/2+y,z
1/2-x,-y,z
1/2+x,-y,1/2-z
1/2-x,1/2+y,1/2-z
1/2-x,1/2-y,-z
1/2+x,y,-z
1/2-x,y,1/2+z
1/2+x,1/2-y,1/2+z
loop_
_atom_site_type_symbol
_atom_site_label
_atom_site_fract_x
_atom_site_fract_y
_atom_site_fract_z
Si Si1 0.979360 0.602759 0.181728
Si Si2 0.649096 0.436916 0.182785
Si Si3 0.500000 0.250000 0.953836
Si Si4 0.181771 0.724218 0.821870
Si Si5 0.354480 0.767556 0.924242
Si Si6 0.046447 0.426782 0.559725
Si Si7 0.712301 0.121388 0.182674
Si Si8 0.115365 0.668847 0.562957
O O1 0.915573 0.579677 0.184315
O O2 0.000000 0.750000 0.180511
O O3 0.000000 0.547600 0.250000
O O4 0.007645 0.537026 0.119555
O O5 0.670743 0.576698 0.167483
O O6 0.662194 0.351221 0.119764
O O7 0.672826 0.390052 0.253584
O O8 0.557898 0.263520 0.920027
O O9 0.489684 0.370447 0.001308
O O10 0.158164 0.750000 0.750000
O O11 0.244666 0.763335 0.818837
O O12 0.153328 0.813148 0.874998
O O13 0.417084 0.807635 0.916156
O O14 0.319739 0.874015 0.886421
O O15 0.353973 0.733293 0.001155
O O16 0.092614 0.530327 0.544062
O O17 0.750000 0.000000 0.187582
#
# Coordination Sequence:
#
# PCOD9508834 Si02
#       8
#    16  16   8  16  16  16  16  16
#     4  11  22  38  66 110 143 186 244 300 355 440
#     4  12  26  44  77 109 150 190 251 308 375 455
#     4  10  22  42  70 102 148 198 244 300 376 456
#     4  12  28  50  71 108 147 198 252 309 392 455
#     4  11  25  44  77 110 142 193 251 313 367 448
#     4  11  21  44  69 108 149 198 248 296 382 448
#     4  12  26  50  78 105 143 199 248 321 384 446
#     4  11  27  44  73 107 153 199 251 309 380 457
#
# _framework density 22.557845
#
# number of rings (size 3 to 8) (size 9 to 14) (size 15 to 20)
#    0.000    0.667    3.333    4.000    9.333    0.533 
#    0.000    0.333    0.000    0.000    0.000    0.000 
#    0.000    0.000    0.000    0.000    0.000    0.000 
#
# Total GULP energy -334920.433254 kJ/mol
# GULP energy per Si atom -5582.007221 kJ/mol
# Density = 2.250650 g / cm^3
# Si number density = 22.557845 Si / 1000 Ang^3
#
#
#
# Elastic Constant Matrix: (Units=GPa)
#
#
# Indices 1 2 3 4 5 6 
#
# 1 101.9837 19.6696 50.6245 0.0000 0.0000 0.0000
# 2 19.6696 79.7907 -5.9916 0.0000 0.0000 0.0000
# 3 50.6245 -5.9916 125.2109 0.0000 0.0000 0.0000
# 4 0.0000 0.0000 0.0000 26.9212 0.0000 0.0000
# 5 0.0000 0.0000 0.0000 0.0000 46.4343 0.0000
# 6 0.0000 0.0000 0.0000 0.0000 0.0000 36.9940
#
#
#
# Elastic Compliance Matrix: (Units=1/GPa)
#
#
# Indices 1 2 3 4 5 6 
#
# 1 0.013267 -0.003686 -0.005540 0.000000 0.000000 0.000000
# 2 -0.003686 0.013602 0.002141 0.000000 0.000000 0.000000
# 3 -0.005540 0.002141 0.010329 0.000000 0.000000 0.000000
# 4 0.000000 0.000000 0.000000 0.037145 0.000000 0.000000
# 5 0.000000 0.000000 0.000000 0.000000 0.021536 0.000000
# 6 0.000000 0.000000 0.000000 0.000000 0.000000 0.027031
#
#
# Mechanical properties :
#
#
# Convention : Reuss Voigt Hill
#
# Bulk Modulus (GPa) = 43.42674 48.39893 45.91283
# Shear Modulus (GPa) = 34.54059 38.24877 36.39468
#
# Velocity S-wave (km/s) = 3.91730 4.12222 4.02106
# Velocity P-wave (km/s) = 6.30503 6.64522 6.47736
#
# Compressibility (1/GPa) = 0.02302729
#
# Stress axis : x y z
#
# Youngs Moduli (GPa) = 75.37669 73.51670 96.81453
#
# Poissons Ratio (x) = 0.27102 0.53638
# Poissons Ratio (y) = 0.27787 -0.20732
# Poissons Ratio (z) = 0.41761 -0.15743
#
# Static dielectric constant tensor:
#      x y z
#    x 1.809610 0.000000 0.000000 
#    y 0.000000 2.007830 0.000000 
#    z 0.000000 0.000000 1.847650 
# 
# From -- ./inp_files/40951.got.cif
#   From: 2010.05.17/outbox.cif.g08.bks.cpg/sg68_21_cif.got.tgz:40951.got - 2010.06.03 18:57:09.
