data_PCOD9508913
_publ_section_title
;
Structure prediction by ZEFSAII (Michael W. Deem and Ramdas Pophale) SiO2 
 PCOD9508913
Probable space group: C C C A
;
_chemical_formula_sum "Si O2"
_cell_formula_units_Z 68
_cell_length_a 27.302058
_cell_length_b 13.168972
_cell_length_c 9.226804
_cell_angle_alpha 90.000000
_cell_angle_beta 90.000000
_cell_angle_gamma 90.000000
_cell_volume 3317.405455
_symmetry_space_group_name_H-M "C C C A"
_symmetry_group_IT_number 68
_space_group.IT_coordinate_system_code '2'
_symmetry_cell_setting 'orthorhombic'
loop_
_space_group_symop_operation_xyz
x,y,z
-x,1/2-y,z
x,1/2-y,1/2-z
-x,y,1/2-z
-x,-y,-z
x,1/2+y,-z
-x,1/2+y,1/2+z
x,-y,1/2+z
1/2+x,1/2+y,z
1/2-x,-y,z
1/2+x,-y,1/2-z
1/2-x,1/2+y,1/2-z
1/2-x,1/2-y,-z
1/2+x,y,-z
1/2-x,y,1/2+z
1/2+x,1/2-y,1/2+z
loop_
_atom_site_type_symbol
_atom_site_label
_atom_site_fract_x
_atom_site_fract_y
_atom_site_fract_z
Si Si1 0.160437 0.250000 0.250000
Si Si2 0.578620 0.646041 0.450073
Si Si3 0.500000 0.250000 0.750000
Si Si4 0.588024 0.750000 0.750000
Si Si5 0.697696 0.950957 0.375573
Si Si6 0.134142 0.451490 0.641804
O O1 0.125335 0.204827 0.376761
O O2 0.193768 0.338035 0.314565
O O3 0.533604 0.679360 0.350208
O O4 0.566517 0.683469 0.614128
O O5 0.593491 0.528075 0.424676
O O6 0.616191 0.837615 0.662503
O O7 0.681975 0.953880 0.541604
O O8 0.750000 0.000000 0.351915
O O9 0.653425 0.008663 0.294918
#
# Coordination Sequence:
#
# PCOD9508913 Si02
#       6
#     8  16   4   8  16  16
#     4   9  20  40  64  88 137 181 218 277 353 389
#     4  10  22  43  69  98 133 175 225 273 345 412
#     4  10  24  46  76 104 132 178 218 284 340 414
#     4  12  22  42  74  97 131 189 223 270 349 413
#     4  11  22  39  63  98 135 180 236 284 325 396
#     4  11  23  42  64  99 136 185 225 276 343 401
#
# _framework density 20.497947
#
# number of rings (size 3 to 8) (size 9 to 14) (size 15 to 20)
#    0.000    1.412    4.706    0.706    0.000    1.412 
#    0.000    9.412    0.000    0.000    0.000    0.000 
#    0.000    0.000    0.000    0.000    0.000    0.000 
#
# Total GULP energy -189560.102484 kJ/mol
# GULP energy per Si atom -5575.297132 kJ/mol
# Density = 2.045129 g / cm^3
# Si number density = 20.497947 Si / 1000 Ang^3
#
#
#
# Elastic Constant Matrix: (Units=GPa)
#
#
# Indices 1 2 3 4 5 6 
#
# 1 87.9973 43.9715 27.7818 0.0000 0.0000 0.0000
# 2 43.9715 126.0160 12.9572 0.0000 0.0000 0.0000
# 3 27.7818 12.9572 109.3323 0.0000 0.0000 0.0000
# 4 0.0000 0.0000 0.0000 19.9645 0.0000 0.0000
# 5 0.0000 0.0000 0.0000 0.0000 12.0535 0.0000
# 6 0.0000 0.0000 0.0000 0.0000 0.0000 6.9324
#
#
#
# Elastic Compliance Matrix: (Units=1/GPa)
#
#
# Indices 1 2 3 4 5 6 
#
# 1 0.014783 -0.004831 -0.003184 0.000000 0.000000 0.000000
# 2 -0.004831 0.009612 0.000088 0.000000 0.000000 0.000000
# 3 -0.003184 0.000088 0.009945 0.000000 0.000000 0.000000
# 4 0.000000 0.000000 0.000000 0.050089 0.000000 0.000000
# 5 0.000000 0.000000 0.000000 0.000000 0.082964 0.000000
# 6 0.000000 0.000000 0.000000 0.000000 0.000000 0.144250
#
#
# Mechanical properties :
#
#
# Convention : Reuss Voigt Hill
#
# Bulk Modulus (GPa) = 54.09122 54.75182 54.42152
# Shear Modulus (GPa) = 14.98539 23.69908 19.34224
#
# Velocity S-wave (km/s) = 2.70676 3.40394 3.07517
# Velocity P-wave (km/s) = 6.01786 6.49753 6.26229
#
# Compressibility (1/GPa) = 0.01848729
#
# Stress axis : x y z
#
# Youngs Moduli (GPa) = 67.64432 104.03532 100.55300
#
# Poissons Ratio (x) = 0.50260 0.32015
# Poissons Ratio (y) = 0.32679 -0.00889
# Poissons Ratio (z) = 0.21538 -0.00920
#
# Static dielectric constant tensor:
#      x y z
#    x 1.679880 0.000000 0.000000 
#    y 0.000000 1.768480 0.000000 
#    z 0.000000 0.000000 1.762440 
# 
# From -- ./inp_files/5152.got.cif
#   From: 2010.05.17/outbox.cif.g08.bks.cpg/sg68_3_cif.got.tgz:5152.got - 2010.06.03 18:57:09.
