data_PCOD9508351
_publ_section_title
;
Structure prediction by ZEFSAII (Michael W. Deem and Ramdas Pophale) SiO2 
 PCOD9508351
Probable space group: C C C A
;
_chemical_formula_sum "Si O2"
_cell_formula_units_Z 112
_cell_length_a 22.973714
_cell_length_b 21.245885
_cell_length_c 11.183232
_cell_angle_alpha 90.000000
_cell_angle_beta 90.000000
_cell_angle_gamma 90.000000
_cell_volume 5458.500711
_symmetry_space_group_name_H-M "C C C A"
_symmetry_group_IT_number 68
_space_group.IT_coordinate_system_code '2'
_symmetry_cell_setting 'orthorhombic'
loop_
_space_group_symop_operation_xyz
x,y,z
-x,1/2-y,z
x,1/2-y,1/2-z
-x,y,1/2-z
-x,-y,-z
x,1/2+y,-z
-x,1/2+y,1/2+z
x,-y,1/2+z
1/2+x,1/2+y,z
1/2-x,-y,z
1/2+x,-y,1/2-z
1/2-x,1/2+y,1/2-z
1/2-x,1/2-y,-z
1/2+x,y,-z
1/2-x,y,1/2+z
1/2+x,1/2-y,1/2+z
loop_
_atom_site_type_symbol
_atom_site_label
_atom_site_fract_x
_atom_site_fract_y
_atom_site_fract_z
Si Si1 0.882949 0.367347 0.548015
Si Si2 0.013539 0.822903 0.464012
Si Si3 0.681988 0.260193 0.513407
Si Si4 0.096464 0.685183 0.810121
Si Si5 0.612925 0.680895 0.799120
Si Si6 0.427961 0.998395 0.485675
Si Si7 0.430542 0.553793 0.259591
O O1 0.849614 0.308380 0.487733
O O2 0.866153 0.359044 0.687588
O O3 0.884183 0.439226 0.509946
O O4 0.952032 0.355006 0.536647
O O5 0.049324 0.827252 0.585935
O O6 0.056450 0.847920 0.362067
O O7 0.000000 0.750000 0.442975
O O8 0.750000 0.250000 0.500000
O O9 0.657989 0.297627 0.628258
O O10 0.658936 0.301057 0.401002
O O11 0.077059 0.750000 0.750000
O O12 0.096882 0.622455 0.731180
O O13 0.595402 0.750000 0.750000
O O14 0.418886 0.000075 0.340749
O O15 0.500000 0.000000 0.500000
O O16 0.412920 0.039997 0.603049
O O17 0.500000 0.562695 0.250000
#
# Coordination Sequence:
#
# PCOD9508351 Si02
#       7
#    16  16  16  16  16  16  16
#     4  11  20  34  58  84 120 163 201 254 319 386
#     4  11  18  28  48  84 119 151 191 242 314 391
#     4  10  22  38  56  87 124 160 210 267 324 383
#     4  11  23  34  57  86 121 159 198 256 334 404
#     4   9  18  30  50  79 116 156 196 246 306 381
#     4  10  22  39  55  84 121 165 209 255 313 391
#     4  10  22  36  57  83 124 164 209 255 316 395
#
# _framework density 20.518454999999999
#
# number of rings (size 3 to 8) (size 9 to 14) (size 15 to 20)
#    0.000    1.714    4.286    3.000    2.000    7.429 
#    0.000    0.000    0.000    0.857    0.000    2.000 
#    0.000    0.000    0.000    0.000    0.000    0.000 
#
# Total GULP energy -311820.238403 kJ/mol
# GULP energy per Si atom -5568.218543 kJ/mol
# Density = 2.047175 g / cm^3
# Si number density = 20.518455 Si / 1000 Ang^3
#
#
#
# Elastic Constant Matrix: (Units=GPa)
#
#
# Indices 1 2 3 4 5 6 
#
# 1 89.9135 8.2315 12.7861 0.0000 0.0000 0.0000
# 2 8.2315 77.2443 34.3640 0.0000 0.0000 0.0000
# 3 12.7861 34.3640 90.1700 0.0000 0.0000 0.0000
# 4 0.0000 0.0000 0.0000 32.1103 0.0000 0.0000
# 5 0.0000 0.0000 0.0000 0.0000 5.2052 0.0000
# 6 0.0000 0.0000 0.0000 0.0000 0.0000 13.6794
#
#
#
# Elastic Compliance Matrix: (Units=1/GPa)
#
#
# Indices 1 2 3 4 5 6 
#
# 1 0.011373 -0.000595 -0.001386 0.000000 0.000000 0.000000
# 2 -0.000595 0.015620 -0.005868 0.000000 0.000000 0.000000
# 3 -0.001386 -0.005868 0.013523 0.000000 0.000000 0.000000
# 4 0.000000 0.000000 0.000000 0.031143 0.000000 0.000000
# 5 0.000000 0.000000 0.000000 0.000000 0.192116 0.000000
# 6 0.000000 0.000000 0.000000 0.000000 0.000000 0.073103
#
#
# Mechanical properties :
#
#
# Convention : Reuss Voigt Hill
#
# Bulk Modulus (GPa) = 40.29461 40.89899 40.59680
# Shear Modulus (GPa) = 13.85618 23.66206 18.75912
#
# Velocity S-wave (km/s) = 2.60148 3.39958 3.02695
# Velocity P-wave (km/s) = 5.35765 5.94858 5.66083
#
# Compressibility (1/GPa) = 0.02481721
#
# Stress axis : x y z
#
# Youngs Moduli (GPa) = 87.92455 64.02006 73.94739
#
# Poissons Ratio (x) = 0.03812 0.10248
# Poissons Ratio (y) = 0.05236 0.43395
# Poissons Ratio (z) = 0.12185 0.37570
#
# Static dielectric constant tensor:
#      x y z
#    x 1.627100 0.000000 0.000000 
#    y 0.000000 1.648390 0.000000 
#    z 0.000000 0.000000 1.851130 
# 
# From -- ./inp_files/16546.got.cif
#   From: 2010.05.17/outbox.cif.g08.bks.cpg/sg68_9_cif.got.tgz:16546.got - 2010.06.03 18:57:09.
