data_PCOD9508865
_publ_section_title
;
Structure prediction by ZEFSAII (Michael W. Deem and Ramdas Pophale) SiO2 
 PCOD9508865
Probable space group: C C C A
;
_chemical_formula_sum "Si O2"
_cell_formula_units_Z 64
_cell_length_a 29.095436
_cell_length_b 12.381839
_cell_length_c 8.535881
_cell_angle_alpha 90.000000
_cell_angle_beta 90.000000
_cell_angle_gamma 90.000000
_cell_volume 3075.093845
_symmetry_space_group_name_H-M "C C C A"
_symmetry_group_IT_number 68
_space_group.IT_coordinate_system_code '2'
_symmetry_cell_setting 'orthorhombic'
loop_
_space_group_symop_operation_xyz
x,y,z
-x,1/2-y,z
x,1/2-y,1/2-z
-x,y,1/2-z
-x,-y,-z
x,1/2+y,-z
-x,1/2+y,1/2+z
x,-y,1/2+z
1/2+x,1/2+y,z
1/2-x,-y,z
1/2+x,-y,1/2-z
1/2-x,1/2+y,1/2-z
1/2-x,1/2-y,-z
1/2+x,y,-z
1/2-x,y,1/2+z
1/2+x,1/2-y,1/2+z
loop_
_atom_site_type_symbol
_atom_site_label
_atom_site_fract_x
_atom_site_fract_y
_atom_site_fract_z
Si Si1 0.885556 0.250000 0.250000
Si Si2 0.309456 0.584441 0.146980
Si Si3 0.210526 0.630153 0.287045
Si Si4 0.000000 0.533974 0.250000
Si Si5 0.962003 0.155148 0.466703
O O1 0.853069 0.153021 0.195374
O O2 0.916543 0.208542 0.394685
O O3 0.264694 0.620209 0.246797
O O4 0.314915 0.458235 0.181877
O O5 0.297250 0.603462 0.967246
O O6 0.194981 0.750000 0.250000
O O7 0.027446 0.451020 0.361547
O O8 0.967287 0.609485 0.356872
O O9 0.000000 0.250000 0.447946
#
# Coordination Sequence:
#
# PCOD9508865 Si02
#       5
#     8  16  16   8  16
#     4  12  25  42  70 106 152 172 248 304 349 402
#     4  11  25  41  72 100 140 193 241 301 348 426
#     4  11  23  45  69  95 139 196 243 279 367 419
#     4  10  22  42  80  94 130 192 228 258 368 446
#     4  11  22  47  70 103 138 185 219 291 356 430
#
# _framework density 20.812372
#
# number of rings (size 3 to 8) (size 9 to 14) (size 15 to 20)
#    0.000    1.000    3.750    4.125    3.500    2.000 
#    0.000    0.000    0.000    0.000    0.000    0.000 
#    0.000    0.000    0.000    0.000    0.000    0.000 
#
# Total GULP energy -178914.034551 kJ/mol
# GULP energy per Si atom -5591.063580 kJ/mol
# Density = 2.076500 g / cm^3
# Si number density = 20.812372 Si / 1000 Ang^3
#
#
#
# Elastic Constant Matrix: (Units=GPa)
#
#
# Indices 1 2 3 4 5 6 
#
# 1 89.0013 73.7476 64.3923 0.0000 0.0000 0.0000
# 2 73.7476 205.1039 83.4275 0.0000 0.0000 0.0000
# 3 64.3923 83.4275 153.2041 0.0000 0.0000 0.0000
# 4 0.0000 0.0000 0.0000 -16.3563 0.0000 0.0000
# 5 0.0000 0.0000 0.0000 0.0000 1328.8404 0.0000
# 6 0.0000 0.0000 0.0000 0.0000 0.0000 37.7391
#
#
#
# Elastic Compliance Matrix: (Units=1/GPa)
#
#
# Indices 1 2 3 4 5 6 
#
# 1 0.019024 -0.004609 -0.005486 0.000000 0.000000 0.000000
# 2 -0.004609 0.007379 -0.002081 0.000000 0.000000 0.000000
# 3 -0.005486 -0.002081 0.009966 0.000000 0.000000 0.000000
# 4 0.000000 0.000000 0.000000 -0.061138 0.000000 0.000000
# 5 0.000000 0.000000 0.000000 0.000000 0.000753 0.000000
# 6 0.000000 0.000000 0.000000 0.000000 0.000000 0.026498
#
#
# Mechanical properties :
#
#
# Convention : Reuss Voigt Hill
#
# Bulk Modulus (GPa) = 83.21369 98.93822 91.07596
# Shear Modulus (GPa) = 162.12881 285.09407 223.61144
#
# Velocity S-wave (km/s) = 8.83568 11.71667 10.37665
# Velocity P-wave (km/s) = 12.00675 15.18821 13.69021
#
# Compressibility (1/GPa) = 0.01201725
#
# Stress axis : x y z
#
# Youngs Moduli (GPa) = 52.56561 135.51417 100.33640
#
# Poissons Ratio (x) = 0.62455 0.55046
# Poissons Ratio (y) = 0.24226 0.20883
# Poissons Ratio (z) = 0.28838 0.28205
#
# Static dielectric constant tensor:
#      x y z
#    x 1.722680 0.000000 0.000000 
#    y 0.000000 1.755060 0.000000 
#    z 0.000000 0.000000 1.743820 
# 
# From -- ./inp_files/9378.got.cif
#   From: 2010.05.17/outbox.cif.g08.bks.cpg/sg68_5_cif.got.tgz:9378.got - 2010.06.03 18:57:09.
