data_PCOD9508721
_publ_section_title
;
Structure prediction by ZEFSAII (Michael W. Deem and Ramdas Pophale) SiO2 
 PCOD9508721
Probable space group: C C C A
;
_chemical_formula_sum "Si O2"
_cell_formula_units_Z 104
_cell_length_a 25.320681
_cell_length_b 21.148459
_cell_length_c 9.956394
_cell_angle_alpha 90.000000
_cell_angle_beta 90.000000
_cell_angle_gamma 90.000000
_cell_volume 5331.583115
_symmetry_space_group_name_H-M "C C C A"
_symmetry_group_IT_number 68
_space_group.IT_coordinate_system_code '2'
_symmetry_cell_setting 'orthorhombic'
loop_
_space_group_symop_operation_xyz
x,y,z
-x,1/2-y,z
x,1/2-y,1/2-z
-x,y,1/2-z
-x,-y,-z
x,1/2+y,-z
-x,1/2+y,1/2+z
x,-y,1/2+z
1/2+x,1/2+y,z
1/2-x,-y,z
1/2+x,-y,1/2-z
1/2-x,1/2+y,1/2-z
1/2-x,1/2-y,-z
1/2+x,y,-z
1/2-x,y,1/2+z
1/2+x,1/2-y,1/2+z
loop_
_atom_site_type_symbol
_atom_site_label
_atom_site_fract_x
_atom_site_fract_y
_atom_site_fract_z
Si Si1 0.768827 0.642295 0.171631
Si Si2 0.363237 0.829880 0.482222
Si Si3 0.438225 0.456824 0.279625
Si Si4 0.313948 0.750000 0.250000
Si Si5 0.118772 0.472983 0.053677
Si Si6 0.283483 0.939667 0.936462
Si Si7 0.438629 0.182815 0.203567
O O1 0.724377 0.694596 0.198094
O O2 0.784925 0.608505 0.311102
O O3 0.819734 0.673657 0.100843
O O4 0.744274 0.592752 0.064470
O O5 0.348841 0.780235 0.368140
O O6 0.358159 0.902405 0.432725
O O7 0.421191 0.820493 0.547483
O O8 0.500000 0.460086 0.250000
O O9 0.408381 0.506935 0.190176
O O10 0.423135 0.468853 0.433179
O O11 0.419248 0.385325 0.243342
O O12 0.161506 0.527357 0.023009
O O13 0.250000 0.000000 0.888389
O O14 0.416059 0.250000 0.250000
O O15 0.500000 0.183644 0.250000
#
# Coordination Sequence:
#
# PCOD9508721 Si02
#       7
#    16  16  16   8  16  16  16
#     4  12  25  42  61  94 132 181 221 272 329 401
#     4  11  24  41  64  93 137 170 221 279 328 400
#     4  10  22  41  66  96 129 161 212 277 329 396
#     4  12  26  42  60  93 139 180 224 272 340 398
#     4  11  23  40  64  97 125 172 215 265 338 386
#     4  12  24  38  64  92 132 168 220 272 327 400
#     4   9  20  41  69  96 122 167 223 267 319 390
#
# _framework density 19.506401
#
# number of rings (size 3 to 8) (size 9 to 14) (size 15 to 20)
#    0.000    1.077    3.077    3.231    5.385    1.231 
#    0.000    0.000    0.000    0.000    0.000    0.000 
#    0.000    0.000    0.000    0.000    0.000    0.000 
#
# Total GULP energy -290104.562748 kJ/mol
# GULP energy per Si atom -5578.933899 kJ/mol
# Density = 1.946200 g / cm^3
# Si number density = 19.506401 Si / 1000 Ang^3
#
#
#
# Elastic Constant Matrix: (Units=GPa)
#
#
# Indices 1 2 3 4 5 6 
#
# 1 71.7864 21.5030 21.1615 0.0000 0.0000 0.0000
# 2 21.5030 95.0670 48.3285 0.0000 0.0000 0.0000
# 3 21.1615 48.3285 73.4018 0.0000 0.0000 0.0000
# 4 0.0000 0.0000 0.0000 35.8730 0.0000 0.0000
# 5 0.0000 0.0000 0.0000 0.0000 57.4284 0.0000
# 6 0.0000 0.0000 0.0000 0.0000 0.0000 6.6583
#
#
#
# Elastic Compliance Matrix: (Units=1/GPa)
#
#
# Indices 1 2 3 4 5 6 
#
# 1 0.015437 -0.001848 -0.003234 0.000000 0.000000 0.000000
# 2 -0.001848 0.016032 -0.010023 0.000000 0.000000 0.000000
# 3 -0.003234 -0.010023 0.021155 0.000000 0.000000 0.000000
# 4 0.000000 0.000000 0.000000 0.027876 0.000000 0.000000
# 5 0.000000 0.000000 0.000000 0.000000 0.017413 0.000000
# 6 0.000000 0.000000 0.000000 0.000000 0.000000 0.150188
#
#
# Mechanical properties :
#
#
# Convention : Reuss Voigt Hill
#
# Bulk Modulus (GPa) = 44.61273 46.91569 45.76421
# Shear Modulus (GPa) = 17.49582 29.94276 23.71929
#
# Velocity S-wave (km/s) = 2.99812 3.92219 3.49087
# Velocity P-wave (km/s) = 5.90808 6.67945 6.30557
#
# Compressibility (1/GPa) = 0.02241513
#
# Stress axis : x y z
#
# Youngs Moduli (GPa) = 64.77951 62.37461 47.26963
#
# Poissons Ratio (x) = 0.11525 0.15286
# Poissons Ratio (y) = 0.11969 0.47379
# Poissons Ratio (z) = 0.20949 0.62518
#
# Static dielectric constant tensor:
#      x y z
#    x 1.726370 0.000000 0.000000 
#    y 0.000000 1.686450 0.000000 
#    z 0.000000 0.000000 1.656880 
# 
# From -- ./inp_files/9025.got.cif
#   From: 2010.05.17/outbox.cif.g08.bks.cpg/sg68_5_cif.got.tgz:9025.got - 2010.06.03 18:57:09.
