data_PCOD9508980
_publ_section_title
;
Structure prediction by ZEFSAII (Michael W. Deem and Ramdas Pophale) SiO2 
 PCOD9508980
Probable space group: C C C A
;
_chemical_formula_sum "Si O2"
_cell_formula_units_Z 88
_cell_length_a 22.684825
_cell_length_b 17.828489
_cell_length_c 9.958083
_cell_angle_alpha 90.000000
_cell_angle_beta 90.000000
_cell_angle_gamma 90.000000
_cell_volume 4027.408780
_symmetry_space_group_name_H-M "C C C A"
_symmetry_group_IT_number 68
_space_group.IT_coordinate_system_code '2'
_symmetry_cell_setting 'orthorhombic'
loop_
_space_group_symop_operation_xyz
x,y,z
-x,1/2-y,z
x,1/2-y,1/2-z
-x,y,1/2-z
-x,-y,-z
x,1/2+y,-z
-x,1/2+y,1/2+z
x,-y,1/2+z
1/2+x,1/2+y,z
1/2-x,-y,z
1/2+x,-y,1/2-z
1/2-x,1/2+y,1/2-z
1/2-x,1/2-y,-z
1/2+x,y,-z
1/2-x,y,1/2+z
1/2+x,1/2-y,1/2+z
loop_
_atom_site_type_symbol
_atom_site_label
_atom_site_fract_x
_atom_site_fract_y
_atom_site_fract_z
Si Si1 0.170821 0.859103 0.195543
Si Si2 0.500000 0.936164 0.750000
Si Si3 0.383283 0.508243 0.360265
Si Si4 0.696482 0.134323 0.760839
Si Si5 0.846299 0.749566 0.958673
Si Si6 0.421749 0.136466 0.437484
O O1 0.234190 0.872893 0.262103
O O2 0.121482 0.853294 0.310114
O O3 0.150189 0.930945 0.107646
O O4 0.172488 0.787542 0.098451
O O5 0.515035 0.883027 0.623710
O O6 0.443341 0.986275 0.716511
O O7 0.337713 0.556748 0.272757
O O8 0.401471 0.563036 0.480767
O O9 0.691062 0.179977 0.902358
O O10 0.663635 0.185968 0.652303
O O11 0.910381 0.788490 0.976600
#
# Coordination Sequence:
#
# PCOD9508980 Si02
#       6
#    16   8  16  16  16  16
#     4  11  23  37  66  99 135 169 215 270 327 409
#     4  10  22  44  71  89 126 172 228 284 332 381
#     4  10  23  43  65  95 128 174 223 276 325 396
#     4  10  23  40  64  97 135 178 211 258 339 403
#     4  10  23  39  64  93 137 170 212 265 325 402
#     4  10  23  42  66  95 127 175 225 272 339 384
#
# _framework density 21.850277999999999
#
# number of rings (size 3 to 8) (size 9 to 14) (size 15 to 20)
#    0.000    1.818    0.000    2.182   15.273    0.000 
#    0.000    7.273    8.000    1.091    0.000    0.000 
#    0.000    0.000    0.000    0.000    0.000    0.000 
#
# Total GULP energy -245569.823548 kJ/mol
# GULP energy per Si atom -5581.132353 kJ/mol
# Density = 2.180055 g / cm^3
# Si number density = 21.850278 Si / 1000 Ang^3
#
#
#
# Elastic Constant Matrix: (Units=GPa)
#
#
# Indices 1 2 3 4 5 6 
#
# 1 52.2646 56.0432 10.7198 0.0000 0.0000 0.0000
# 2 56.0432 94.1390 21.2361 0.0000 0.0000 0.0000
# 3 10.7198 21.2361 67.8307 0.0000 0.0000 0.0000
# 4 0.0000 0.0000 0.0000 14.1015 0.0000 0.0000
# 5 0.0000 0.0000 0.0000 0.0000 23.2846 0.0000
# 6 0.0000 0.0000 0.0000 0.0000 0.0000 15.7293
#
#
#
# Elastic Compliance Matrix: (Units=1/GPa)
#
#
# Indices 1 2 3 4 5 6 
#
# 1 0.053073 -0.031961 0.001619 0.000000 0.000000 0.000000
# 2 -0.031961 0.030677 -0.004553 0.000000 0.000000 0.000000
# 3 0.001619 -0.004553 0.015912 0.000000 0.000000 0.000000
# 4 0.000000 0.000000 0.000000 0.070914 0.000000 0.000000
# 5 0.000000 0.000000 0.000000 0.000000 0.042947 0.000000
# 6 0.000000 0.000000 0.000000 0.000000 0.000000 0.063576
#
#
# Mechanical properties :
#
#
# Convention : Reuss Voigt Hill
#
# Bulk Modulus (GPa) = 33.47684 43.35917 38.41801
# Shear Modulus (GPa) = 14.01164 19.03876 16.52520
#
# Velocity S-wave (km/s) = 2.53505 2.95503 2.75306
# Velocity P-wave (km/s) = 4.89111 5.61514 5.26558
#
# Compressibility (1/GPa) = 0.02987139
#
# Stress axis : x y z
#
# Youngs Moduli (GPa) = 18.84202 32.59804 62.84457
#
# Poissons Ratio (x) = 1.04186 -0.10172
# Poissons Ratio (y) = 0.60220 0.28614
# Poissons Ratio (z) = -0.03050 0.14842
#
# Static dielectric constant tensor:
#      x y z
#    x 1.790100 0.000000 0.000000 
#    y 0.000000 1.807570 0.000000 
#    z 0.000000 0.000000 1.862710 
# 
# From -- ./inp_files/15434.got.cif
#   From: 2010.05.17/outbox.cif.g08.bks.cpg/sg68_8_cif.got.tgz:15434.got - 2010.06.03 18:57:09.
