data_PCOD9508774
_publ_section_title
;
Structure prediction by ZEFSAII (Michael W. Deem and Ramdas Pophale) SiO2 
 PCOD9508774
Probable space group: C C C A
;
_chemical_formula_sum "Si O2"
_cell_formula_units_Z 112
_cell_length_a 29.445072
_cell_length_b 13.280577
_cell_length_c 12.947455
_cell_angle_alpha 90.000000
_cell_angle_beta 90.000000
_cell_angle_gamma 90.000000
_cell_volume 5063.070504
_symmetry_space_group_name_H-M "C C C A"
_symmetry_group_IT_number 68
_space_group.IT_coordinate_system_code '2'
_symmetry_cell_setting 'orthorhombic'
loop_
_space_group_symop_operation_xyz
x,y,z
-x,1/2-y,z
x,1/2-y,1/2-z
-x,y,1/2-z
-x,-y,-z
x,1/2+y,-z
-x,1/2+y,1/2+z
x,-y,1/2+z
1/2+x,1/2+y,z
1/2-x,-y,z
1/2+x,-y,1/2-z
1/2-x,1/2+y,1/2-z
1/2-x,1/2-y,-z
1/2+x,y,-z
1/2-x,y,1/2+z
1/2+x,1/2-y,1/2+z
loop_
_atom_site_type_symbol
_atom_site_label
_atom_site_fract_x
_atom_site_fract_y
_atom_site_fract_z
Si Si1 0.612901 0.370551 0.246516
Si Si2 0.700217 0.509576 0.968978
Si Si3 0.476197 0.349779 0.933877
Si Si4 0.296728 0.701453 0.960092
Si Si5 0.789739 0.420745 0.740681
Si Si6 0.621564 0.644285 0.978964
Si Si7 0.477023 0.075132 0.142818
O O1 0.621779 0.250000 0.250000
O O2 0.656850 0.437406 0.221338
O O3 0.602459 0.393303 0.367284
O O4 0.574755 0.393447 0.163071
O O5 0.750000 0.500000 0.019163
O O6 0.708974 0.576780 0.866264
O O7 0.657018 0.560908 0.021054
O O8 0.690590 0.391490 0.963618
O O9 0.500000 0.250000 0.889360
O O10 0.422509 0.333296 0.953706
O O11 0.501086 0.371442 0.043966
O O12 0.481243 0.454823 0.872804
O O13 0.284017 0.668698 0.842187
O O14 0.343045 0.765006 0.961376
O O15 0.250000 0.750000 0.000000
O O16 0.750000 0.500000 0.722919
O O17 0.500000 0.106576 0.250000
#
# Coordination Sequence:
#
# PCOD9508774 Si02
#       7
#    16  16  16  16  16  16  16
#     4  11  21  40  69 103 134 183 233 301 357 425
#     4  10  22  42  63  96 141 183 228 295 349 423
#     4  11  26  45  70 105 145 183 236 305 364 441
#     4  12  24  40  70 100 134 184 238 292 358 419
#     4  10  24  39  63  95 139 180 230 287 354 423
#     4  11  23  41  69 100 137 180 239 292 361 425
#     4  11  25  44  73 104 137 184 240 293 368 433
#
# _framework density 22.120964000000001
#
# number of rings (size 3 to 8) (size 9 to 14) (size 15 to 20)
#    0.000    1.143    4.286    1.286    2.000    1.429 
#    0.000    0.000    0.000    0.000    0.000    0.000 
#    0.000    0.000    0.000    0.000    0.000    0.000 
#
# Total GULP energy -311769.372502 kJ/mol
# GULP energy per Si atom -5567.310223 kJ/mol
# Density = 2.207062 g / cm^3
# Si number density = 22.120964 Si / 1000 Ang^3
#
#
#
# Elastic Constant Matrix: (Units=GPa)
#
#
# Indices 1 2 3 4 5 6 
#
# 1 160.0946 28.3953 5.2754 0.0000 0.0000 0.0000
# 2 28.3953 91.5805 2.4845 0.0000 0.0000 0.0000
# 3 5.2754 2.4845 71.3148 0.0000 0.0000 0.0000
# 4 0.0000 0.0000 0.0000 -0.9975 0.0000 0.0000
# 5 0.0000 0.0000 0.0000 0.0000 3.0289 0.0000
# 6 0.0000 0.0000 0.0000 0.0000 0.0000 38.0015
#
#
#
# Elastic Compliance Matrix: (Units=1/GPa)
#
#
# Indices 1 2 3 4 5 6 
#
# 1 0.006622 -0.002042 -0.000419 0.000000 0.000000 0.000000
# 2 -0.002042 0.011559 -0.000252 0.000000 0.000000 0.000000
# 3 -0.000419 -0.000252 0.014062 0.000000 0.000000 0.000000
# 4 0.000000 0.000000 0.000000 -1.002519 0.000000 0.000000
# 5 0.000000 0.000000 0.000000 0.000000 0.330152 0.000000
# 6 0.000000 0.000000 0.000000 0.000000 0.000000 0.026315
#
#
# Mechanical properties :
#
#
# Convention : Reuss Voigt Hill
#
# Bulk Modulus (GPa) = 37.28701 43.92227 40.60464
# Shear Modulus (GPa) = -8.34106 27.12890 9.39392
#
# Velocity S-wave (km/s) = -1.94393 3.50578 2.06297
# Velocity P-wave (km/s) = 3.44298 6.02378 4.90612
#
# Compressibility (1/GPa) = 0.02681899
#
# Stress axis : x y z
#
# Youngs Moduli (GPa) = 151.00557 86.51045 71.11323
#
# Poissons Ratio (x) = 0.17665 0.02978
# Poissons Ratio (y) = 0.30834 0.01790
# Poissons Ratio (z) = 0.06323 0.02177
#
# Static dielectric constant tensor:
#      x y z
#    x 1.856600 0.000000 0.000000 
#    y 0.000000 1.930380 0.000000 
#    z 0.000000 0.000000 1.883440 
# 
# From -- ./inp_files/26411.got.cif
#   From: 2010.05.17/outbox.cif.g08.bks.cpg/sg68_14_cif.got.tgz:26411.got - 2010.06.03 18:57:09.
