data_PCOD9508252
_publ_section_title
;
Structure prediction by ZEFSAII (Michael W. Deem and Ramdas Pophale) SiO2 
 PCOD9508252
Probable space group: C C C A
;
_chemical_formula_sum "Si O2"
_cell_formula_units_Z 64
_cell_length_a 18.509500
_cell_length_b 8.871081
_cell_length_c 15.771049
_cell_angle_alpha 90.000000
_cell_angle_beta 90.000000
_cell_angle_gamma 90.000000
_cell_volume 2589.594792
_symmetry_space_group_name_H-M "C C C A"
_symmetry_group_IT_number 68
_space_group.IT_coordinate_system_code '2'
_symmetry_cell_setting 'orthorhombic'
loop_
_space_group_symop_operation_xyz
x,y,z
-x,1/2-y,z
x,1/2-y,1/2-z
-x,y,1/2-z
-x,-y,-z
x,1/2+y,-z
-x,1/2+y,1/2+z
x,-y,1/2+z
1/2+x,1/2+y,z
1/2-x,-y,z
1/2+x,-y,1/2-z
1/2-x,1/2+y,1/2-z
1/2-x,1/2-y,-z
1/2+x,y,-z
1/2-x,y,1/2+z
1/2+x,1/2-y,1/2+z
loop_
_atom_site_type_symbol
_atom_site_label
_atom_site_fract_x
_atom_site_fract_y
_atom_site_fract_z
Si Si1 0.428338 0.658744 0.964536
Si Si2 0.962391 0.587718 0.670506
Si Si3 0.703562 0.353846 0.671065
Si Si4 0.678277 0.584571 0.970901
O O1 0.500000 0.750000 0.991793
O O2 0.460469 0.534846 0.901974
O O3 0.380534 0.550982 0.025030
O O4 0.367298 0.777179 0.930131
O O5 0.879919 0.621360 0.689630
O O6 0.000000 0.750000 0.658260
O O7 0.000000 0.513345 0.750000
O O8 0.729240 0.250000 0.750000
O O9 0.750000 0.500000 0.682992
O O10 0.700605 0.347508 0.565263
O O11 0.750000 0.500000 0.935654
#
# Coordination Sequence:
#
# PCOD9508252 Si02
#       4
#    16  16  16  16
#     4  11  24  42  69 103 138 185 235 287 353 430
#     4  10  21  45  72  96 138 188 236 296 358 420
#     4  10  21  43  68  96 132 180 235 288 356 418
#     4  10  23  45  68  99 142 185 233 294 358 423
#
# _framework density 24.714292
#
# number of rings (size 3 to 8) (size 9 to 14) (size 15 to 20)
#    0.000    1.750    2.500    1.500    0.000    8.500 
#   13.500    1.250    0.000    0.000    0.000    0.000 
#    0.000    0.000    0.000    0.000    0.000    0.000 
#
# Total GULP energy -178253.136736 kJ/mol
# GULP energy per Si atom -5570.410523 kJ/mol
# Density = 2.465804 g / cm^3
# Si number density = 24.714292 Si / 1000 Ang^3
#
#
#
# Elastic Constant Matrix: (Units=GPa)
#
#
# Indices 1 2 3 4 5 6 
#
# 1 173.1715 74.7624 34.1288 0.0000 0.0000 0.0000
# 2 74.7624 166.3927 37.7576 0.0000 0.0000 0.0000
# 3 34.1288 37.7576 62.2097 0.0000 0.0000 0.0000
# 4 0.0000 0.0000 0.0000 -27.7556 0.0000 0.0000
# 5 0.0000 0.0000 0.0000 0.0000 22.0012 0.0000
# 6 0.0000 0.0000 0.0000 0.0000 0.0000 67.0497
#
#
#
# Elastic Compliance Matrix: (Units=1/GPa)
#
#
# Indices 1 2 3 4 5 6 
#
# 1 0.007458 -0.002809 -0.002386 0.000000 0.000000 0.000000
# 2 -0.002809 0.008028 -0.003331 0.000000 0.000000 0.000000
# 3 -0.002386 -0.003331 0.019406 0.000000 0.000000 0.000000
# 4 0.000000 0.000000 0.000000 -0.036029 0.000000 0.000000
# 5 0.000000 0.000000 0.000000 0.000000 0.045452 0.000000
# 6 0.000000 0.000000 0.000000 0.000000 0.000000 0.014914
#
#
# Mechanical properties :
#
#
# Convention : Reuss Voigt Hill
#
# Bulk Modulus (GPa) = 56.06129 77.23015 66.64572
# Shear Modulus (GPa) = 60.80570 29.26740 45.03655
#
# Velocity S-wave (km/s) = 4.96557 3.44500 4.27346
# Velocity P-wave (km/s) = 7.45713 6.86593 7.16763
#
# Compressibility (1/GPa) = 0.01783762
#
# Stress axis : x y z
#
# Youngs Moduli (GPa) = 134.08783 124.56225 51.53124
#
# Poissons Ratio (x) = 0.34994 0.12297
# Poissons Ratio (y) = 0.37671 0.17167
# Poissons Ratio (z) = 0.31997 0.41496
#
# Static dielectric constant tensor:
#      x y z
#    x 1.913830 0.000000 0.000000 
#    y 0.000000 1.963100 0.000000 
#    z 0.000000 0.000000 2.130420 
# 
# From -- ./inp_files/32506.got.cif
#   From: 2010.05.17/outbox.cif.g08.bks.cpg/sg68_17_cif.got.tgz:32506.got - 2010.06.03 18:57:09.
