data_PCOD9508452
_publ_section_title
;
Structure prediction by ZEFSAII (Michael W. Deem and Ramdas Pophale) SiO2 
 PCOD9508452
Probable space group: C C C A
;
_chemical_formula_sum "Si O2"
_cell_formula_units_Z 64
_cell_length_a 7.483093
_cell_length_b 19.329593
_cell_length_c 21.401149
_cell_angle_alpha 90.000000
_cell_angle_beta 90.000000
_cell_angle_gamma 90.000000
_cell_volume 3095.572238
_symmetry_space_group_name_H-M "C C C A"
_symmetry_group_IT_number 68
_space_group.IT_coordinate_system_code '2'
_symmetry_cell_setting 'orthorhombic'
loop_
_space_group_symop_operation_xyz
x,y,z
-x,1/2-y,z
x,1/2-y,1/2-z
-x,y,1/2-z
-x,-y,-z
x,1/2+y,-z
-x,1/2+y,1/2+z
x,-y,1/2+z
1/2+x,1/2+y,z
1/2-x,-y,z
1/2+x,-y,1/2-z
1/2-x,1/2+y,1/2-z
1/2-x,1/2-y,-z
1/2+x,y,-z
1/2-x,y,1/2+z
1/2+x,1/2-y,1/2+z
loop_
_atom_site_type_symbol
_atom_site_label
_atom_site_fract_x
_atom_site_fract_y
_atom_site_fract_z
Si Si1 0.779156 0.920833 0.050432
Si Si2 0.500000 0.610778 0.750000
Si Si3 0.250000 0.500000 0.810758
Si Si4 0.396845 0.899157 0.090136
Si Si5 0.551475 0.326231 0.120084
O O1 0.600897 0.881707 0.073753
O O2 0.949919 0.884101 0.079837
O O3 0.750000 0.000000 0.070145
O O4 0.812414 0.921519 0.976276
O O5 0.341057 0.558217 0.768313
O O6 0.518911 0.658825 0.810259
O O7 0.383423 0.459928 0.858120
O O8 0.263377 0.839937 0.115017
O O9 0.500000 0.250000 0.098860
#
# Coordination Sequence:
#
# PCOD9508452 Si02
#       5
#    16   8   8  16  16
#     4  12  22  39  70  95 130 166 206 273 330 382
#     4  10  23  42  66  90 129 168 220 272 322 375
#     4  10  22  38  64 100 124 158 222 278 322 378
#     4  11  22  40  64  99 132 163 215 265 329 390
#     4  11  26  44  63  92 134 179 215 262 324 393
#
# _framework density 20.674689999999998
#
# number of rings (size 3 to 8) (size 9 to 14) (size 15 to 20)
#    0.000    1.000    3.750    4.125    5.250    2.000 
#    0.000    0.000    0.000    3.000    0.000    0.000 
#    0.000    0.000    0.000    0.000    0.000    0.000 
#
# Total GULP energy -178658.078222 kJ/mol
# GULP energy per Si atom -5583.064944 kJ/mol
# Density = 2.062763 g / cm^3
# Si number density = 20.674690 Si / 1000 Ang^3
#
#
#
# Elastic Constant Matrix: (Units=GPa)
#
#
# Indices 1 2 3 4 5 6 
#
# 1 82.0520 -12.1222 5.9621 0.0000 0.0000 0.0000
# 2 -12.1222 65.4505 -4.4087 0.0000 0.0000 0.0000
# 3 5.9621 -4.4087 79.0378 0.0000 0.0000 0.0000
# 4 0.0000 0.0000 0.0000 37.1916 0.0000 0.0000
# 5 0.0000 0.0000 0.0000 0.0000 10.3249 0.0000
# 6 0.0000 0.0000 0.0000 0.0000 0.0000 18.7638
#
#
#
# Elastic Compliance Matrix: (Units=1/GPa)
#
#
# Indices 1 2 3 4 5 6 
#
# 1 0.012583 0.002275 -0.000822 0.000000 0.000000 0.000000
# 2 0.002275 0.015748 0.000707 0.000000 0.000000 0.000000
# 3 -0.000822 0.000707 0.012754 0.000000 0.000000 0.000000
# 4 0.000000 0.000000 0.000000 0.026888 0.000000 0.000000
# 5 0.000000 0.000000 0.000000 0.000000 0.096853 0.000000
# 6 0.000000 0.000000 0.000000 0.000000 0.000000 0.053294
#
#
# Mechanical properties :
#
#
# Convention : Reuss Voigt Hill
#
# Bulk Modulus (GPa) = 22.02453 22.82254 22.42354
# Shear Modulus (GPa) = 21.84026 29.06334 25.45180
#
# Velocity S-wave (km/s) = 3.25372 3.75339 3.51245
# Velocity P-wave (km/s) = 4.97912 5.46322 5.22678
#
# Compressibility (1/GPa) = 0.04540392
#
# Stress axis : x y z
#
# Youngs Moduli (GPa) = 79.47060 63.50127 78.40908
#
# Poissons Ratio (x) = -0.14448 0.06448
# Poissons Ratio (y) = -0.18081 -0.05542
# Poissons Ratio (z) = 0.06535 -0.04488
#
# Static dielectric constant tensor:
#      x y z
#    x 1.762360 0.000000 0.000000 
#    y 0.000000 1.736710 0.000000 
#    z 0.000000 0.000000 1.752850 
# 
# From -- ./inp_files/35797.got.cif
#   From: 2010.05.17/outbox.cif.g08.bks.cpg/sg68_18_cif.got.tgz:35797.got - 2010.06.03 18:57:09.
