data_PCOD9508054
_publ_section_title
;
Structure prediction by ZEFSAII (Michael W. Deem and Ramdas Pophale) SiO2 
 PCOD9508054
Probable space group: C C C A
;
_chemical_formula_sum "Si O2"
_cell_formula_units_Z 80
_cell_length_a 9.777793
_cell_length_b 26.577239
_cell_length_c 14.431264
_cell_angle_alpha 90.000000
_cell_angle_beta 90.000000
_cell_angle_gamma 90.000000
_cell_volume 3750.205551
_symmetry_space_group_name_H-M "C C C A"
_symmetry_group_IT_number 68
_space_group.IT_coordinate_system_code '2'
_symmetry_cell_setting 'orthorhombic'
loop_
_space_group_symop_operation_xyz
x,y,z
-x,1/2-y,z
x,1/2-y,1/2-z
-x,y,1/2-z
-x,-y,-z
x,1/2+y,-z
-x,1/2+y,1/2+z
x,-y,1/2+z
1/2+x,1/2+y,z
1/2-x,-y,z
1/2+x,-y,1/2-z
1/2-x,1/2+y,1/2-z
1/2-x,1/2-y,-z
1/2+x,y,-z
1/2-x,y,1/2+z
1/2+x,1/2-y,1/2+z
loop_
_atom_site_type_symbol
_atom_site_label
_atom_site_fract_x
_atom_site_fract_y
_atom_site_fract_z
Si Si1 0.923135 0.351946 0.109436
Si Si2 0.478452 0.059363 0.995768
Si Si3 0.136702 0.281361 0.558131
Si Si4 0.718158 0.441195 0.384156
Si Si5 0.290880 0.658488 0.208325
O O1 0.807555 0.336143 0.182080
O O2 0.063571 0.333346 0.156702
O O3 0.900862 0.326657 0.011215
O O4 0.946548 0.410974 0.087988
O O5 0.562682 0.072210 0.088131
O O6 0.319176 0.068943 0.973293
O O7 0.500000 0.000000 0.000000
O O8 0.250000 0.250000 0.500000
O O9 0.191358 0.304596 0.653752
O O10 0.000000 0.250000 0.572809
O O11 0.750000 0.500000 0.360473
O O12 0.758813 0.400316 0.308789
#
# Coordination Sequence:
#
# PCOD9508054 Si02
#       5
#    16  16  16  16  16
#     4  10  21  40  66  95 128 171 220 269 348 413
#     4   9  17  32  60  91 121 164 208 253 320 399
#     4  12  24  42  68  93 127 176 229 286 346 410
#     4   9  17  32  59  89 125 165 209 257 317 400
#     4  10  21  40  66  94 130 172 218 280 338 417
#
# _framework density 21.332163000000001
#
# number of rings (size 3 to 8) (size 9 to 14) (size 15 to 20)
#    0.000    2.000    4.000    0.000    0.000    0.800 
#    0.000    5.000    0.000    2.400    0.000    0.000 
#    0.000    0.000    0.000    0.000    0.000    0.000 
#
# Total GULP energy -222791.779488 kJ/mol
# GULP energy per Si atom -5569.794487 kJ/mol
# Density = 2.128361 g / cm^3
# Si number density = 21.332163 Si / 1000 Ang^3
#
#
#
# Elastic Constant Matrix: (Units=GPa)
#
#
# Indices 1 2 3 4 5 6 
#
# 1 72.3672 42.8340 21.9957 0.0000 0.0000 0.0000
# 2 42.8340 105.8869 49.0160 0.0000 0.0000 0.0000
# 3 21.9957 49.0160 73.2021 0.0000 0.0000 0.0000
# 4 0.0000 0.0000 0.0000 15.5023 0.0000 0.0000
# 5 0.0000 0.0000 0.0000 0.0000 27.2199 0.0000
# 6 0.0000 0.0000 0.0000 0.0000 0.0000 27.8330
#
#
#
# Elastic Compliance Matrix: (Units=1/GPa)
#
#
# Indices 1 2 3 4 5 6 
#
# 1 0.018199 -0.007001 -0.000781 0.000000 0.000000 0.000000
# 2 -0.007001 0.016379 -0.008864 0.000000 0.000000 0.000000
# 3 -0.000781 -0.008864 0.019831 0.000000 0.000000 0.000000
# 4 0.000000 0.000000 0.000000 0.064507 0.000000 0.000000
# 5 0.000000 0.000000 0.000000 0.000000 0.036738 0.000000
# 6 0.000000 0.000000 0.000000 0.000000 0.000000 0.035929
#
#
# Mechanical properties :
#
#
# Convention : Reuss Voigt Hill
#
# Bulk Modulus (GPa) = 47.35218 53.23862 50.29540
# Shear Modulus (GPa) = 21.55984 23.28508 22.42246
#
# Velocity S-wave (km/s) = 3.18256 3.30744 3.24560
# Velocity P-wave (km/s) = 5.97918 6.29259 6.13789
#
# Compressibility (1/GPa) = 0.02111835
#
# Stress axis : x y z
#
# Youngs Moduli (GPa) = 54.94673 61.05323 50.42686
#
# Poissons Ratio (x) = 0.42741 0.03938
# Poissons Ratio (y) = 0.38466 0.44698
# Poissons Ratio (z) = 0.04291 0.54117
#
# Static dielectric constant tensor:
#      x y z
#    x 1.863490 0.000000 0.000000 
#    y 0.000000 1.830170 0.000000 
#    z 0.000000 0.000000 1.768550 
# 
# From -- ./inp_files/17549.got.cif
#   From: 2010.05.17/outbox.cif.g08.bks.cpg/sg68_9_cif.got.tgz:17549.got - 2010.06.03 18:57:09.
