data_PCOD9508553
_publ_section_title
;
Structure prediction by ZEFSAII (Michael W. Deem and Ramdas Pophale) SiO2 
 PCOD9508553
Probable space group: C C C A
;
_chemical_formula_sum "Si O2"
_cell_formula_units_Z 64
_cell_length_a 18.675488
_cell_length_b 15.078631
_cell_length_c 10.870205
_cell_angle_alpha 90.000000
_cell_angle_beta 90.000000
_cell_angle_gamma 90.000000
_cell_volume 3061.058340
_symmetry_space_group_name_H-M "C C C A"
_symmetry_group_IT_number 68
_space_group.IT_coordinate_system_code '2'
_symmetry_cell_setting 'orthorhombic'
loop_
_space_group_symop_operation_xyz
x,y,z
-x,1/2-y,z
x,1/2-y,1/2-z
-x,y,1/2-z
-x,-y,-z
x,1/2+y,-z
-x,1/2+y,1/2+z
x,-y,1/2+z
1/2+x,1/2+y,z
1/2-x,-y,z
1/2+x,-y,1/2-z
1/2-x,1/2+y,1/2-z
1/2-x,1/2-y,-z
1/2+x,y,-z
1/2-x,y,1/2+z
1/2+x,1/2-y,1/2+z
loop_
_atom_site_type_symbol
_atom_site_label
_atom_site_fract_x
_atom_site_fract_y
_atom_site_fract_z
Si Si1 0.000000 0.891783 0.750000
Si Si2 0.797513 0.628146 0.174511
Si Si3 0.354129 0.302145 0.078040
Si Si4 0.000000 0.250000 0.464502
Si Si5 0.348802 0.560270 0.354146
O O1 0.925292 0.939122 0.785788
O O2 0.986237 0.830954 0.629918
O O3 0.802873 0.715842 0.091200
O O4 0.845463 0.649032 0.292711
O O5 0.717678 0.602950 0.221502
O O6 0.827637 0.539725 0.111624
O O7 0.432014 0.264021 0.049476
O O8 0.345925 0.375087 0.971632
#
# Coordination Sequence:
#
# PCOD9508553 Si02
#       5
#     8  16  16   8  16
#     4   9  20  38  60  87 118 156 200 243 288 349
#     4  10  23  38  61  91 119 154 198 241 293 358
#     4  10  22  40  60  85 121 158 191 246 299 341
#     4   9  20  37  60  88 118 157 202 239 290 356
#     4  10  22  40  61  88 119 156 199 242 291 351
#
# _framework density 20.907803000000001
#
# number of rings (size 3 to 8) (size 9 to 14) (size 15 to 20)
#    0.000    2.250    0.000    0.750    0.000   20.000 
#    0.000    5.000    0.000    0.000    0.000    0.000 
#    0.000    0.000    0.000    0.000    0.000    0.000 
#
# Total GULP energy -178320.002193 kJ/mol
# GULP energy per Si atom -5572.500069 kJ/mol
# Density = 2.086022 g / cm^3
# Si number density = 20.907803 Si / 1000 Ang^3
#
#
#
# Elastic Constant Matrix: (Units=GPa)
#
#
# Indices 1 2 3 4 5 6 
#
# 1 101.9614 48.0191 51.8520 0.0000 0.0000 0.0000
# 2 48.0191 127.7955 22.5493 0.0000 0.0000 0.0000
# 3 51.8520 22.5493 67.1364 0.0000 0.0000 0.0000
# 4 0.0000 0.0000 0.0000 5.5512 0.0000 0.0000
# 5 0.0000 0.0000 0.0000 0.0000 32.3011 0.0000
# 6 0.0000 0.0000 0.0000 0.0000 0.0000 26.7081
#
#
#
# Elastic Compliance Matrix: (Units=1/GPa)
#
#
# Indices 1 2 3 4 5 6 
#
# 1 0.018476 -0.004703 -0.012690 0.000000 0.000000 0.000000
# 2 -0.004703 0.009515 0.000437 0.000000 0.000000 0.000000
# 3 -0.012690 0.000437 0.024549 0.000000 0.000000 0.000000
# 4 0.000000 0.000000 0.000000 0.180141 0.000000 0.000000
# 5 0.000000 0.000000 0.000000 0.000000 0.030959 0.000000
# 6 0.000000 0.000000 0.000000 0.000000 0.000000 0.037442
#
#
# Mechanical properties :
#
#
# Convention : Reuss Voigt Hill
#
# Bulk Modulus (GPa) = 53.68476 60.19267 56.93872
# Shear Modulus (GPa) = 14.65397 24.54362 19.59879
#
# Velocity S-wave (km/s) = 2.65030 3.42994 3.06501
# Velocity P-wave (km/s) = 5.92436 6.67368 6.31015
#
# Compressibility (1/GPa) = 0.01862726
#
# Stress axis : x y z
#
# Youngs Moduli (GPa) = 54.12378 105.09489 40.73404
#
# Poissons Ratio (x) = 0.49429 0.51692
# Poissons Ratio (y) = 0.25456 -0.01778
# Poissons Ratio (z) = 0.68684 -0.04589
#
# Static dielectric constant tensor:
#      x y z
#    x 1.793370 0.000000 0.000000 
#    y 0.000000 1.771120 0.000000 
#    z 0.000000 0.000000 1.726040 
# 
# From -- ./inp_files/14054.got.cif
#   From: 2010.05.17/outbox.cif.g08.bks.cpg/sg68_8_cif.got.tgz:14054.got - 2010.06.03 18:57:09.
