data_PCOD9508564
_publ_section_title
;
Structure prediction by ZEFSAII (Michael W. Deem and Ramdas Pophale) SiO2 
 PCOD9508564
Probable space group: C C C A
;
_chemical_formula_sum "Si O2"
_cell_formula_units_Z 60
_cell_length_a 22.754320
_cell_length_b 8.855775
_cell_length_c 13.947582
_cell_angle_alpha 90.000000
_cell_angle_beta 90.000000
_cell_angle_gamma 90.000000
_cell_volume 2810.537334
_symmetry_space_group_name_H-M "C C C A"
_symmetry_group_IT_number 68
_space_group.IT_coordinate_system_code '2'
_symmetry_cell_setting 'orthorhombic'
loop_
_space_group_symop_operation_xyz
x,y,z
-x,1/2-y,z
x,1/2-y,1/2-z
-x,y,1/2-z
-x,-y,-z
x,1/2+y,-z
-x,1/2+y,1/2+z
x,-y,1/2+z
1/2+x,1/2+y,z
1/2-x,-y,z
1/2+x,-y,1/2-z
1/2-x,1/2+y,1/2-z
1/2-x,1/2-y,-z
1/2+x,y,-z
1/2-x,y,1/2+z
1/2+x,1/2-y,1/2+z
loop_
_atom_site_type_symbol
_atom_site_label
_atom_site_fract_x
_atom_site_fract_y
_atom_site_fract_z
Si Si1 0.000000 0.250000 0.750000
Si Si2 0.065605 0.458839 0.897203
Si Si3 0.228788 0.164967 0.343528
Si Si4 0.306368 0.890612 0.548936
Si Si5 0.000000 0.250000 0.447639
O O1 0.957836 0.140395 0.809893
O O2 0.135287 0.462563 0.909645
O O3 0.039445 0.627223 0.893165
O O4 0.040403 0.359875 0.986728
O O5 0.205838 0.250000 0.250000
O O6 0.286035 0.250153 0.386652
O O7 0.187031 0.153674 0.436824
O O8 0.250000 0.000000 0.313613
O O9 0.250000 0.000000 0.551232
#
# Coordination Sequence:
#
# PCOD9508564 Si02
#       5
#     4  16  16  16   8
#     4  10  24  46  72 102 130 178 230 286 348 394
#     4  10  22  44  70  98 132 178 231 288 341 421
#     4  10  22  40  61  98 143 183 227 269 346 419
#     4  10  23  41  67 100 140 180 222 285 354 407
#     4   9  22  42  68  91 128 184 233 276 344 404
#
# _framework density 21.348230999999998
#
# number of rings (size 3 to 8) (size 9 to 14) (size 15 to 20)
#    0.000    2.133    0.000    0.800   13.067    1.600 
#    0.000    0.000    0.000    0.000    0.000    0.000 
#    0.000    0.000    0.000    0.000    0.000    0.000 
#
# Total GULP energy -167558.530615 kJ/mol
# GULP energy per Si atom -5585.284354 kJ/mol
# Density = 2.129964 g / cm^3
# Si number density = 21.348231 Si / 1000 Ang^3
#
#
#
# Elastic Constant Matrix: (Units=GPa)
#
#
# Indices 1 2 3 4 5 6 
#
# 1 145.1569 59.8193 52.7241 0.0000 0.0000 0.0000
# 2 59.8193 178.8534 58.4939 0.0000 0.0000 0.0000
# 3 52.7241 58.4939 114.0661 0.0000 0.0000 0.0000
# 4 0.0000 0.0000 0.0000 -24.6740 0.0000 0.0000
# 5 0.0000 0.0000 0.0000 0.0000 15.4199 0.0000
# 6 0.0000 0.0000 0.0000 0.0000 0.0000 27.1048
#
#
#
# Elastic Compliance Matrix: (Units=1/GPa)
#
#
# Indices 1 2 3 4 5 6 
#
# 1 0.008805 -0.001939 -0.003076 0.000000 0.000000 0.000000
# 2 -0.001939 0.007145 -0.002768 0.000000 0.000000 0.000000
# 3 -0.003076 -0.002768 0.011608 0.000000 0.000000 0.000000
# 4 0.000000 0.000000 0.000000 -0.040529 0.000000 0.000000
# 5 0.000000 0.000000 0.000000 0.000000 0.064851 0.000000
# 6 0.000000 0.000000 0.000000 0.000000 0.000000 0.036894
#
#
# Mechanical properties :
#
#
# Convention : Reuss Voigt Hill
#
# Bulk Modulus (GPa) = 83.38088 86.68342 85.03215
# Shear Modulus (GPa) = 46.15222 21.37276 33.76249
#
# Velocity S-wave (km/s) = 4.65464 3.16753 3.98114
# Velocity P-wave (km/s) = 8.24802 7.35325 7.81346
#
# Compressibility (1/GPa) = 0.01199316
#
# Stress axis : x y z
#
# Youngs Moduli (GPa) = 113.56722 139.96018 86.14945
#
# Poissons Ratio (x) = 0.27140 0.26496
# Poissons Ratio (y) = 0.22022 0.23843
# Poissons Ratio (z) = 0.34929 0.38736
#
# Static dielectric constant tensor:
#      x y z
#    x 1.739030 0.000000 0.000000 
#    y 0.000000 1.789210 0.000000 
#    z 0.000000 0.000000 1.811080 
# 
# From -- ./inp_files/19158.got.cif
#   From: 2010.05.17/outbox.cif.g08.bks.cpg/sg68_10_cif.got.tgz:19158.got - 2010.06.03 18:57:09.
