data_PCOD9508316
_publ_section_title
;
Structure prediction by ZEFSAII (Michael W. Deem and Ramdas Pophale) SiO2 
 PCOD9508316
Probable space group: C C C A
;
_chemical_formula_sum "Si O2"
_cell_formula_units_Z 64
_cell_length_a 20.088781
_cell_length_b 30.403201
_cell_length_c 5.293410
_cell_angle_alpha 90.000000
_cell_angle_beta 90.000000
_cell_angle_gamma 90.000000
_cell_volume 3233.020277
_symmetry_space_group_name_H-M "C C C A"
_symmetry_group_IT_number 68
_space_group.IT_coordinate_system_code '2'
_symmetry_cell_setting 'orthorhombic'
loop_
_space_group_symop_operation_xyz
x,y,z
-x,1/2-y,z
x,1/2-y,1/2-z
-x,y,1/2-z
-x,-y,-z
x,1/2+y,-z
-x,1/2+y,1/2+z
x,-y,1/2+z
1/2+x,1/2+y,z
1/2-x,-y,z
1/2+x,-y,1/2-z
1/2-x,1/2+y,1/2-z
1/2-x,1/2-y,-z
1/2+x,y,-z
1/2-x,y,1/2+z
1/2+x,1/2-y,1/2+z
loop_
_atom_site_type_symbol
_atom_site_label
_atom_site_fract_x
_atom_site_fract_y
_atom_site_fract_z
Si Si1 0.204134 0.250000 0.750000
Si Si2 0.500000 0.169254 0.250000
Si Si3 0.396072 0.706811 0.424480
Si Si4 0.075421 0.376895 0.135128
Si Si5 0.581231 0.025013 0.743376
O O1 0.250000 0.250000 0.500000
O O2 0.152568 0.287980 0.665071
O O3 0.469736 0.200131 0.463884
O O4 0.558580 0.137720 0.350260
O O5 0.390376 0.750000 0.250000
O O6 0.384246 0.662563 0.264810
O O7 0.102847 0.425348 0.178874
O O8 0.000000 0.377791 0.250000
O O9 0.500000 0.025114 0.750000
O O10 0.602208 0.992840 0.516271
#
# Coordination Sequence:
#
# PCOD9508316 Si02
#       5
#     8   8  16  16  16
#     4  12  26  45  62  81 110 150 198 240 294 352
#     4  10  22  33  56  84 122 152 206 232 299 336
#     4  11  23  39  57  85 116 158 191 247 287 346
#     4   9  20  32  49  79 114 152 194 235 279 345
#     4   9  18  29  47  70 106 152 190 224 273 333
#
# _framework density 19.795731
#
# number of rings (size 3 to 8) (size 9 to 14) (size 15 to 20)
#    0.000    2.000    1.250    1.500   12.250   12.000 
#    0.000    0.000    0.000    0.000    0.000    0.000 
#    0.000    6.000    0.000    0.000    0.000    0.000 
#
# Total GULP energy -178225.227957 kJ/mol
# GULP energy per Si atom -5569.538374 kJ/mol
# Density = 1.975067 g / cm^3
# Si number density = 19.795731 Si / 1000 Ang^3
#
#
#
# Elastic Constant Matrix: (Units=GPa)
#
#
# Indices 1 2 3 4 5 6 
#
# 1 19.3745 25.7434 17.2711 0.0000 0.0000 0.0000
# 2 25.7434 162.9125 62.3090 0.0000 0.0000 0.0000
# 3 17.2711 62.3090 124.4713 0.0000 0.0000 0.0000
# 4 0.0000 0.0000 0.0000 25.5467 0.0000 0.0000
# 5 0.0000 0.0000 0.0000 0.0000 36.8499 0.0000
# 6 0.0000 0.0000 0.0000 0.0000 0.0000 0.8352
#
#
#
# Elastic Compliance Matrix: (Units=1/GPa)
#
#
# Indices 1 2 3 4 5 6 
#
# 1 0.067757 -0.008795 -0.004999 0.000000 0.000000 0.000000
# 2 -0.008795 0.008733 -0.003151 0.000000 0.000000 0.000000
# 3 -0.004999 -0.003151 0.010305 0.000000 0.000000 0.000000
# 4 0.000000 0.000000 0.000000 0.039144 0.000000 0.000000
# 5 0.000000 0.000000 0.000000 0.000000 0.027137 0.000000
# 6 0.000000 0.000000 0.000000 0.000000 0.000000 1.197351
#
#
# Mechanical properties :
#
#
# Convention : Reuss Voigt Hill
#
# Bulk Modulus (GPa) = 18.90204 57.48948 38.19576
# Shear Modulus (GPa) = 3.56645 26.07534 14.82090
#
# Velocity S-wave (km/s) = 1.34370 3.63329 2.73919
# Velocity P-wave (km/s) = 3.46073 6.83414 5.41674
#
# Compressibility (1/GPa) = 0.05290435
#
# Stress axis : x y z
#
# Youngs Moduli (GPa) = 14.75872 114.50307 97.03816
#
# Poissons Ratio (x) = 1.00705 0.48509
# Poissons Ratio (y) = 0.12980 0.30581
# Poissons Ratio (z) = 0.07378 0.36086
#
# Static dielectric constant tensor:
#      x y z
#    x 1.742990 0.000000 0.000000 
#    y 0.000000 1.724650 0.000000 
#    z 0.000000 0.000000 1.830940 
# 
# From -- ./inp_files/1514.got.cif
#   From: 2010.05.17/outbox.cif.g08.bks.cpg/sg68_1_cif.got.tgz:1514.got - 2010.06.03 18:57:09.
