data_PCOD9508336
_publ_section_title
;
Structure prediction by ZEFSAII (Michael W. Deem and Ramdas Pophale) SiO2 
 PCOD9508336
Probable space group: C C C A
;
_chemical_formula_sum "Si O2"
_cell_formula_units_Z 64
_cell_length_a 24.830175
_cell_length_b 5.133043
_cell_length_c 23.331011
_cell_angle_alpha 90.000000
_cell_angle_beta 90.000000
_cell_angle_gamma 90.000000
_cell_volume 2973.638981
_symmetry_space_group_name_H-M "C C C A"
_symmetry_group_IT_number 68
_space_group.IT_coordinate_system_code '2'
_symmetry_cell_setting 'orthorhombic'
loop_
_space_group_symop_operation_xyz
x,y,z
-x,1/2-y,z
x,1/2-y,1/2-z
-x,y,1/2-z
-x,-y,-z
x,1/2+y,-z
-x,1/2+y,1/2+z
x,-y,1/2+z
1/2+x,1/2+y,z
1/2-x,-y,z
1/2+x,-y,1/2-z
1/2-x,1/2+y,1/2-z
1/2-x,1/2-y,-z
1/2+x,y,-z
1/2-x,y,1/2+z
1/2+x,1/2-y,1/2+z
loop_
_atom_site_type_symbol
_atom_site_label
_atom_site_fract_x
_atom_site_fract_y
_atom_site_fract_z
Si Si1 0.935174 0.266457 0.464792
Si Si2 0.975706 0.994175 0.313529
Si Si3 0.693438 0.855780 0.684598
Si Si4 0.366387 0.371354 0.852056
O O1 0.922475 0.558783 0.484905
O O2 0.898411 0.182608 0.410936
O O3 0.000000 0.250000 0.457292
O O4 0.000000 0.750000 0.346121
O O5 0.000000 0.990612 0.250000
O O6 0.912303 0.003892 0.311459
O O7 0.000000 0.250000 0.340198
O O8 0.694556 0.750000 0.750000
O O9 0.678810 0.598010 0.647391
O O10 0.750000 0.000000 0.672381
O O11 0.652211 0.094113 0.673251
#
# Coordination Sequence:
#
# PCOD9508336 Si02
#       4
#    16  16  16  16
#     4  10  22  42  68 100 138 176 223 271 330 414
#     4  10  22  35  53  90 132 165 204 260 315 395
#     4  12  27  46  66  96 132 178 233 279 333 406
#     4  12  24  41  72  95 131 183 223 273 343 389
#
# _framework density 21.522452000000001
#
# number of rings (size 3 to 8) (size 9 to 14) (size 15 to 20)
#    0.000    1.000    0.000    6.750   10.500    3.000 
#    0.000    0.000    0.000   15.000    0.000    0.000 
#    0.000    0.000    0.000    0.000    0.000    0.000 
#
# Total GULP energy -178672.920228 kJ/mol
# GULP energy per Si atom -5583.528757 kJ/mol
# Density = 2.147347 g / cm^3
# Si number density = 21.522452 Si / 1000 Ang^3
#
#
#
# Elastic Constant Matrix: (Units=GPa)
#
#
# Indices 1 2 3 4 5 6 
#
# 1 96.4271 42.2128 38.0526 0.0000 0.0000 0.0000
# 2 42.2128 185.8657 18.9571 0.0000 0.0000 0.0000
# 3 38.0526 18.9571 80.9436 0.0000 0.0000 0.0000
# 4 0.0000 0.0000 0.0000 15.2138 0.0000 0.0000
# 5 0.0000 0.0000 0.0000 0.0000 20.6171 0.0000
# 6 0.0000 0.0000 0.0000 0.0000 0.0000 52.8639
#
#
#
# Elastic Compliance Matrix: (Units=1/GPa)
#
#
# Indices 1 2 3 4 5 6 
#
# 1 0.013807 -0.002534 -0.005897 0.000000 0.000000 0.000000
# 2 -0.002534 0.005977 -0.000208 0.000000 0.000000 0.000000
# 3 -0.005897 -0.000208 0.015176 0.000000 0.000000 0.000000
# 4 0.000000 0.000000 0.000000 0.065730 0.000000 0.000000
# 5 0.000000 0.000000 0.000000 0.000000 0.048503 0.000000
# 6 0.000000 0.000000 0.000000 0.000000 0.000000 0.018917
#
#
# Mechanical properties :
#
#
# Convention : Reuss Voigt Hill
#
# Bulk Modulus (GPa) = 56.56257 62.40904 59.48580
# Shear Modulus (GPa) = 26.13930 35.33989 30.73959
#
# Velocity S-wave (km/s) = 3.48877 4.05656 3.78333
# Velocity P-wave (km/s) = 6.52430 7.14150 6.83986
#
# Compressibility (1/GPa) = 0.01767954
#
# Stress axis : x y z
#
# Youngs Moduli (GPa) = 72.42574 167.30613 65.89547
#
# Poissons Ratio (x) = 0.42401 0.38861
# Poissons Ratio (y) = 0.18355 0.01373
# Poissons Ratio (z) = 0.42712 0.03487
#
# Static dielectric constant tensor:
#      x y z
#    x 1.862710 0.000000 0.000000 
#    y 0.000000 1.869970 0.000000 
#    z 0.000000 0.000000 1.685510 
# 
# From -- ./inp_files/46330.got.cif
#   From: 2010.05.17/outbox.cif.g08.bks.cpg/sg68_24_cif.got.tgz:46330.got - 2010.06.03 18:57:09.
