data_PCOD9508993
_publ_section_title
;
Structure prediction by ZEFSAII (Michael W. Deem and Ramdas Pophale) SiO2 
 PCOD9508993
Probable space group: C C C A
;
_chemical_formula_sum "Si O2"
_cell_formula_units_Z 68
_cell_length_a 8.260245
_cell_length_b 15.335132
_cell_length_c 23.842917
_cell_angle_alpha 90.000000
_cell_angle_beta 90.000000
_cell_angle_gamma 90.000000
_cell_volume 3020.228729
_symmetry_space_group_name_H-M "C C C A"
_symmetry_group_IT_number 68
_space_group.IT_coordinate_system_code '2'
_symmetry_cell_setting 'orthorhombic'
loop_
_space_group_symop_operation_xyz
x,y,z
-x,1/2-y,z
x,1/2-y,1/2-z
-x,y,1/2-z
-x,-y,-z
x,1/2+y,-z
-x,1/2+y,1/2+z
x,-y,1/2+z
1/2+x,1/2+y,z
1/2-x,-y,z
1/2+x,-y,1/2-z
1/2-x,1/2+y,1/2-z
1/2-x,1/2-y,-z
1/2+x,y,-z
1/2-x,y,1/2+z
1/2+x,1/2-y,1/2+z
loop_
_atom_site_type_symbol
_atom_site_label
_atom_site_fract_x
_atom_site_fract_y
_atom_site_fract_z
Si Si1 0.662375 0.810648 0.893352
Si Si2 0.981950 0.087454 0.690497
Si Si3 0.500000 0.750000 0.425980
Si Si4 0.409082 0.091712 0.993548
Si Si5 0.750000 0.000000 0.602542
Si Si6 0.500000 0.250000 0.250000
O O1 0.500000 0.750000 0.897368
O O2 0.640690 0.873576 0.839500
O O3 0.830925 0.758046 0.892699
O O4 0.655226 0.874280 0.947491
O O5 0.902168 0.180030 0.712120
O O6 0.000000 0.039029 0.750000
O O7 0.889756 0.032396 0.644091
O O8 0.487158 0.668817 0.467942
O O9 0.286788 0.076345 0.941697
O O10 0.500000 0.000000 0.000000
#
# Coordination Sequence:
#
# PCOD9508993 Si02
#       6
#    16  16   8  16   8   4
#     4  12  23  47  72 104 154 192 247 309 374 454
#     4  10  22  44  74  97 136 202 244 305 381 442
#     4  12  28  41  70 113 141 195 250 300 376 446
#     4  12  25  42  69 106 148 199 239 305 379 449
#     4  12  24  46  70 104 152 188 250 306 384 456
#     4   8  20  42  72  94 120 200 250 280 386 434
#
# _framework density 22.514852000000001
#
# number of rings (size 3 to 8) (size 9 to 14) (size 15 to 20)
#    0.706    0.000    4.706    3.529    0.000    0.000 
#    4.235    0.000    0.000   12.000    0.000    0.000 
#    0.000    0.000    0.000    0.000    0.000    0.000 
#
# Total GULP energy -189287.526577 kJ/mol
# GULP energy per Si atom -5567.280193 kJ/mol
# Density = 2.246361 g / cm^3
# Si number density = 22.514852 Si / 1000 Ang^3
#
#
#
# Elastic Constant Matrix: (Units=GPa)
#
#
# Indices 1 2 3 4 5 6 
#
# 1 118.5564 32.9374 54.1076 0.0000 0.0000 0.0000
# 2 32.9374 67.2196 19.0193 0.0000 0.0000 0.0000
# 3 54.1076 19.0193 184.4884 0.0000 0.0000 0.0000
# 4 0.0000 0.0000 0.0000 25.7891 0.0000 0.0000
# 5 0.0000 0.0000 0.0000 0.0000 19.0099 0.0000
# 6 0.0000 0.0000 0.0000 0.0000 0.0000 27.1672
#
#
#
# Elastic Compliance Matrix: (Units=1/GPa)
#
#
# Indices 1 2 3 4 5 6 
#
# 1 0.010963 -0.004596 -0.002741 0.000000 0.000000 0.000000
# 2 -0.004596 0.017250 -0.000430 0.000000 0.000000 0.000000
# 3 -0.002741 -0.000430 0.006269 0.000000 0.000000 0.000000
# 4 0.000000 0.000000 0.000000 0.038776 0.000000 0.000000
# 5 0.000000 0.000000 0.000000 0.000000 0.052604 0.000000
# 6 0.000000 0.000000 0.000000 0.000000 0.000000 0.036809
#
#
# Mechanical properties :
#
#
# Convention : Reuss Voigt Hill
#
# Bulk Modulus (GPa) = 52.78094 64.71033 58.74564
# Shear Modulus (GPa) = 27.09695 32.00659 29.55177
#
# Velocity S-wave (km/s) = 3.47293 3.77447 3.62684
# Velocity P-wave (km/s) = 6.29089 6.91369 6.60963
#
# Compressibility (1/GPa) = 0.01894623
#
# Stress axis : x y z
#
# Youngs Moduli (GPa) = 91.21729 57.96950 159.52064
#
# Poissons Ratio (x) = 0.26643 0.43731
# Poissons Ratio (y) = 0.41924 0.06866
# Poissons Ratio (z) = 0.25006 0.02495
#
# Static dielectric constant tensor:
#      x y z
#    x 1.949430 0.000000 0.000000 
#    y 0.000000 1.883820 0.000000 
#    z 0.000000 0.000000 1.902590 
# 
# From -- ./inp_files/48898.got.cif
#   From: 2010.05.17/outbox.cif.g08.bks.cpg/sg68_25_cif.got.tgz:48898.got - 2010.06.03 18:57:09.
