data_PCOD9508072
_publ_section_title
;
Structure prediction by ZEFSAII (Michael W. Deem and Ramdas Pophale) SiO2 
 PCOD9508072
Probable space group: C C C A
;
_chemical_formula_sum "Si O2"
_cell_formula_units_Z 88
_cell_length_a 29.860391
_cell_length_b 4.992783
_cell_length_c 23.106339
_cell_angle_alpha 90.000000
_cell_angle_beta 90.000000
_cell_angle_gamma 90.000000
_cell_volume 3444.842113
_symmetry_space_group_name_H-M "C C C A"
_symmetry_group_IT_number 68
_space_group.IT_coordinate_system_code '2'
_symmetry_cell_setting 'orthorhombic'
loop_
_space_group_symop_operation_xyz
x,y,z
-x,1/2-y,z
x,1/2-y,1/2-z
-x,y,1/2-z
-x,-y,-z
x,1/2+y,-z
-x,1/2+y,1/2+z
x,-y,1/2+z
1/2+x,1/2+y,z
1/2-x,-y,z
1/2+x,-y,1/2-z
1/2-x,1/2+y,1/2-z
1/2-x,1/2-y,-z
1/2+x,y,-z
1/2-x,y,1/2+z
1/2+x,1/2-y,1/2+z
loop_
_atom_site_type_symbol
_atom_site_label
_atom_site_fract_x
_atom_site_fract_y
_atom_site_fract_z
Si Si1 0.074332 0.750000 0.750000
Si Si2 0.777702 0.775136 0.136781
Si Si3 0.927761 0.705201 0.961854
Si Si4 0.543463 0.571496 0.851367
Si Si5 0.372839 0.127847 0.185668
Si Si6 0.179079 0.363176 0.035882
O O1 0.044022 0.547719 0.713636
O O2 0.108329 0.664395 0.801252
O O3 0.750000 0.500000 0.125250
O O4 0.823496 0.664501 0.163587
O O5 0.795568 0.981508 0.086671
O O6 0.750000 0.000000 0.173750
O O7 0.952544 0.640088 0.902746
O O8 0.874141 0.657393 0.952842
O O9 0.938557 0.993649 0.987494
O O10 0.500000 0.750000 0.858586
O O11 0.589443 0.742404 0.854489
O O12 0.375517 0.250000 0.250000
O O13 0.189971 0.058300 0.018633
#
# Coordination Sequence:
#
# PCOD9508072 Si02
#       6
#     8  16  16  16  16  16
#     4  10  26  47  82 102 156 200 260 312 395 444
#     4  12  27  42  71 105 141 188 244 300 369 446
#     4  10  23  43  74 109 147 200 246 300 373 454
#     4  11  25  46  78 112 151 194 250 316 379 455
#     4  10  25  47  70 102 140 191 244 310 373 447
#     4  10  21  40  67  99 142 186 236 297 363 434
#
# _framework density 25.545435999999999
#
# number of rings (size 3 to 8) (size 9 to 14) (size 15 to 20)
#    0.000    1.455    1.818    1.091    7.636    9.818 
#    0.000    0.000    0.000    0.000    0.000    0.000 
#    0.000    0.000    0.000    0.000    0.000    0.000 
#
# Total GULP energy -246081.706119 kJ/mol
# GULP energy per Si atom -5592.766048 kJ/mol
# Density = 2.548729 g / cm^3
# Si number density = 25.545436 Si / 1000 Ang^3
#
#
#
# Elastic Constant Matrix: (Units=GPa)
#
#
# Indices 1 2 3 4 5 6 
#
# 1 143.4913 23.7223 37.2594 0.0000 0.0000 0.0000
# 2 23.7223 81.5565 -10.3757 0.0000 0.0000 0.0000
# 3 37.2594 -10.3757 55.0528 0.0000 0.0000 0.0000
# 4 0.0000 0.0000 0.0000 21.8891 0.0000 0.0000
# 5 0.0000 0.0000 0.0000 0.0000 6.5540 0.0000
# 6 0.0000 0.0000 0.0000 0.0000 0.0000 34.3552
#
#
#
# Elastic Compliance Matrix: (Units=1/GPa)
#
#
# Indices 1 2 3 4 5 6 
#
# 1 0.009399 -0.003630 -0.007045 0.000000 0.000000 0.000000
# 2 -0.003630 0.013965 0.005089 0.000000 0.000000 0.000000
# 3 -0.007045 0.005089 0.023891 0.000000 0.000000 0.000000
# 4 0.000000 0.000000 0.000000 0.045685 0.000000 0.000000
# 5 0.000000 0.000000 0.000000 0.000000 0.152579 0.000000
# 6 0.000000 0.000000 0.000000 0.000000 0.000000 0.029108
#
#
# Mechanical properties :
#
#
# Convention : Reuss Voigt Hill
#
# Bulk Modulus (GPa) = 27.71469 42.36809 35.04139
# Shear Modulus (GPa) = 16.78833 27.85929 22.32381
#
# Velocity S-wave (km/s) = 2.56636 3.30597 2.95936
# Velocity P-wave (km/s) = 4.43332 5.58516 5.04224
#
# Compressibility (1/GPa) = 0.03608194
#
# Stress axis : x y z
#
# Youngs Moduli (GPa) = 106.39975 71.60920 41.85600
#
# Poissons Ratio (x) = 0.25994 0.29488
# Poissons Ratio (y) = 0.38623 -0.21299
# Poissons Ratio (z) = 0.74959 -0.36440
#
# Static dielectric constant tensor:
#      x y z
#    x 2.032320 0.000000 0.000000 
#    y 0.000000 2.157070 0.000000 
#    z 0.000000 0.000000 2.038510 
# 
# From -- ./inp_files/47463.got.cif
#   From: 2010.05.17/outbox.cif.g08.bks.cpg/sg68_24_cif.got.tgz:47463.got - 2010.06.03 18:57:09.
