data_PCOD9508881
_publ_section_title
;
Structure prediction by ZEFSAII (Michael W. Deem and Ramdas Pophale) SiO2 
 PCOD9508881
Probable space group: C C C A
;
_chemical_formula_sum "Si O2"
_cell_formula_units_Z 116
_cell_length_a 24.571923
_cell_length_b 19.126524
_cell_length_c 12.129954
_cell_angle_alpha 90.000000
_cell_angle_beta 90.000000
_cell_angle_gamma 90.000000
_cell_volume 5700.780893
_symmetry_space_group_name_H-M "C C C A"
_symmetry_group_IT_number 68
_space_group.IT_coordinate_system_code '2'
_symmetry_cell_setting 'orthorhombic'
loop_
_space_group_symop_operation_xyz
x,y,z
-x,1/2-y,z
x,1/2-y,1/2-z
-x,y,1/2-z
-x,-y,-z
x,1/2+y,-z
-x,1/2+y,1/2+z
x,-y,1/2+z
1/2+x,1/2+y,z
1/2-x,-y,z
1/2+x,-y,1/2-z
1/2-x,1/2+y,1/2-z
1/2-x,1/2-y,-z
1/2+x,y,-z
1/2-x,y,1/2+z
1/2+x,1/2-y,1/2+z
loop_
_atom_site_type_symbol
_atom_site_label
_atom_site_fract_x
_atom_site_fract_y
_atom_site_fract_z
Si Si1 0.102109 0.023192 0.749397
Si Si2 0.735290 0.801798 0.649606
Si Si3 0.158104 0.755109 0.953888
Si Si4 0.800255 0.949154 0.092320
Si Si5 0.025036 0.933861 0.440353
Si Si6 0.000000 0.250000 0.750000
Si Si7 0.423128 0.653705 0.898748
Si Si8 0.876600 0.394924 0.090046
O O1 0.150688 0.018755 0.837455
O O2 0.048457 0.041727 0.821655
O O3 0.107294 0.090124 0.666400
O O4 0.104291 0.950065 0.683033
O O5 0.724290 0.750000 0.750000
O O6 0.799024 0.797120 0.620205
O O7 0.696757 0.775731 0.550491
O O8 0.719026 0.881900 0.662189
O O9 0.134400 0.687293 0.889472
O O10 0.114388 0.803705 0.016317
O O11 0.750000 0.000000 0.077885
O O12 0.823697 0.925676 0.973367
O O13 0.076055 0.898552 0.499184
O O14 0.974856 0.882303 0.452825
O O15 0.000000 0.000000 0.500000
O O16 0.956363 0.203982 0.816765
#
# Coordination Sequence:
#
# PCOD9508881 Si02
#       8
#    16  16  16  16  16   4  16  16
#     4  11  23  40  65  96 128 173 219 271 331 400
#     4  10  22  43  65  89 132 169 214 267 335 396
#     4  10  24  40  65  96 128 173 211 273 334 393
#     4  10  24  39  62  94 125 166 221 269 318 390
#     4  11  22  41  64  96 130 168 216 274 329 392
#     4  12  24  36  72 100 126 152 230 268 332 390
#     4  12  23  40  67  97 127 165 216 277 331 386
#     4  10  23  42  62  93 133 166 217 268 335 402
#
# _framework density 20.348089999999999
#
# number of rings (size 3 to 8) (size 9 to 14) (size 15 to 20)
#    0.000    1.379    2.759    1.655    8.690    0.552 
#    0.000    0.000    0.000    0.000    0.000    0.000 
#    0.000    0.000    0.000    0.000    0.000    0.000 
#
# Total GULP energy -323416.251750 kJ/mol
# GULP energy per Si atom -5576.142272 kJ/mol
# Density = 2.030178 g / cm^3
# Si number density = 20.348090 Si / 1000 Ang^3
#
#
#
# Elastic Constant Matrix: (Units=GPa)
#
#
# Indices 1 2 3 4 5 6 
#
# 1 107.2062 34.3435 8.2050 0.0000 0.0000 0.0000
# 2 34.3435 85.1657 17.1851 0.0000 0.0000 0.0000
# 3 8.2050 17.1851 31.4538 0.0000 0.0000 0.0000
# 4 0.0000 0.0000 0.0000 38.6953 0.0000 0.0000
# 5 0.0000 0.0000 0.0000 0.0000 32.0029 0.0000
# 6 0.0000 0.0000 0.0000 0.0000 0.0000 29.2736
#
#
#
# Elastic Compliance Matrix: (Units=1/GPa)
#
#
# Indices 1 2 3 4 5 6 
#
# 1 0.010718 -0.004224 -0.000488 0.000000 0.000000 0.000000
# 2 -0.004224 0.014861 -0.007018 0.000000 0.000000 0.000000
# 3 -0.000488 -0.007018 0.035754 0.000000 0.000000 0.000000
# 4 0.000000 0.000000 0.000000 0.025843 0.000000 0.000000
# 5 0.000000 0.000000 0.000000 0.000000 0.031247 0.000000
# 6 0.000000 0.000000 0.000000 0.000000 0.000000 0.034161
#
#
# Mechanical properties :
#
#
# Convention : Reuss Voigt Hill
#
# Bulk Modulus (GPa) = 26.40320 38.14366 32.27343
# Shear Modulus (GPa) = 26.50153 30.93381 28.71767
#
# Velocity S-wave (km/s) = 3.61281 3.90324 3.76083
# Velocity P-wave (km/s) = 5.51426 6.25300 5.89521
#
# Compressibility (1/GPa) = 0.03787419
#
# Stress axis : x y z
#
# Youngs Moduli (GPa) = 93.29886 67.28984 27.96870
#
# Poissons Ratio (x) = 0.28421 0.01366
# Poissons Ratio (y) = 0.39406 0.19628
# Poissons Ratio (z) = 0.04556 0.47222
#
# Static dielectric constant tensor:
#      x y z
#    x 1.703570 0.000000 0.000000 
#    y 0.000000 1.650450 0.000000 
#    z 0.000000 0.000000 1.739760 
# 
# From -- ./inp_files/17246.got.cif
#   From: 2010.05.17/outbox.cif.g08.bks.cpg/sg68_9_cif.got.tgz:17246.got - 2010.06.03 18:57:09.
