data_PCOD9508377
_publ_section_title
;
Structure prediction by ZEFSAII (Michael W. Deem and Ramdas Pophale) SiO2 
 PCOD9508377
Probable space group: C C C A
;
_chemical_formula_sum "Si O2"
_cell_formula_units_Z 120
_cell_length_a 24.003191
_cell_length_b 23.891341
_cell_length_c 10.356776
_cell_angle_alpha 90.000000
_cell_angle_beta 90.000000
_cell_angle_gamma 90.000000
_cell_volume 5939.283982
_symmetry_space_group_name_H-M "C C C A"
_symmetry_group_IT_number 68
_space_group.IT_coordinate_system_code '2'
_symmetry_cell_setting 'orthorhombic'
loop_
_space_group_symop_operation_xyz
x,y,z
-x,1/2-y,z
x,1/2-y,1/2-z
-x,y,1/2-z
-x,-y,-z
x,1/2+y,-z
-x,1/2+y,1/2+z
x,-y,1/2+z
1/2+x,1/2+y,z
1/2-x,-y,z
1/2+x,-y,1/2-z
1/2-x,1/2+y,1/2-z
1/2-x,1/2-y,-z
1/2+x,y,-z
1/2-x,y,1/2+z
1/2+x,1/2-y,1/2+z
loop_
_atom_site_type_symbol
_atom_site_label
_atom_site_fract_x
_atom_site_fract_y
_atom_site_fract_z
Si Si1 0.203538 0.816118 0.893012
Si Si2 0.427513 0.973337 0.628082
Si Si3 0.000000 0.865515 0.750000
Si Si4 0.557134 0.558848 0.911498
Si Si5 0.436101 0.731348 0.887748
Si Si6 0.090630 0.376721 0.039654
Si Si7 0.711408 0.319015 0.611894
Si Si8 0.589637 0.166882 0.955340
O O1 0.143140 0.844929 0.899070
O O2 0.230593 0.831019 0.756425
O O3 0.201929 0.748370 0.897559
O O4 0.242269 0.835235 0.009498
O O5 0.416486 0.968161 0.781238
O O6 0.491416 0.952140 0.607819
O O7 0.392030 0.930502 0.542279
O O8 0.425700 0.031474 0.549627
O O9 0.956834 0.893093 0.646270
O O10 0.956691 0.833869 0.842897
O O11 0.570446 0.624095 0.932179
O O12 0.500000 0.750000 0.886633
O O13 0.411788 0.750000 0.750000
O O14 0.432595 0.667945 0.934684
O O15 0.407800 0.770653 0.992123
O O16 0.651721 0.347596 0.588885
#
# Coordination Sequence:
#
# PCOD9508377 Si02
#       8
#    16  16   8  16  16  16  16  16
#     4  10  22  39  58  83 117 161 209 248 292 352
#     4  10  22  37  58  84 120 159 202 246 301 367
#     4  12  24  33  62  92 126 158 196 249 318 366
#     4  10  22  37  58  84 120 159 202 246 301 367
#     4  11  22  34  51  80 121 156 189 238 301 364
#     4  12  22  37  59  88 121 158 197 247 305 364
#     4  10  22  39  58  83 117 161 209 248 292 352
#     4  12  22  37  59  88 121 158 197 247 305 364
#
# _framework density 20.204454999999999
#
# number of rings (size 3 to 8) (size 9 to 14) (size 15 to 20)
#    0.000    1.200    5.333    0.800    1.867    5.333 
#    0.000    0.000    0.000    0.800    0.000    3.733 
#    0.000    0.000    0.000    0.000    0.000    0.000 
#
# Total GULP energy -334574.040097 kJ/mol
# GULP energy per Si atom -5576.234002 kJ/mol
# Density = 2.015847 g / cm^3
# Si number density = 20.204455 Si / 1000 Ang^3
#
#
#
# Elastic Constant Matrix: (Units=GPa)
#
#
# Indices 1 2 3 4 5 6 
#
# 1 63.5258 -1.4030 40.2952 0.0000 0.0000 0.0000
# 2 -1.4030 44.3094 0.0312 0.0000 0.0000 0.0000
# 3 40.2952 0.0312 134.1489 0.0000 0.0000 0.0000
# 4 0.0000 0.0000 0.0000 10.5451 0.0000 0.0000
# 5 0.0000 0.0000 0.0000 0.0000 10.1800 0.0000
# 6 0.0000 0.0000 0.0000 0.0000 0.0000 10.5726
#
#
#
# Elastic Compliance Matrix: (Units=1/GPa)
#
#
# Indices 1 2 3 4 5 6 
#
# 1 0.019464 0.000620 -0.005847 0.000000 0.000000 0.000000
# 2 0.000620 0.022588 -0.000192 0.000000 0.000000 0.000000
# 3 -0.005847 -0.000192 0.009211 0.000000 0.000000 0.000000
# 4 0.000000 0.000000 0.000000 0.094831 0.000000 0.000000
# 5 0.000000 0.000000 0.000000 0.000000 0.098232 0.000000
# 6 0.000000 0.000000 0.000000 0.000000 0.000000 0.094584
#
#
# Mechanical properties :
#
#
# Convention : Reuss Voigt Hill
#
# Bulk Modulus (GPa) = 24.73579 35.53675 30.13627
# Shear Modulus (GPa) = 13.76573 19.79692 16.78133
#
# Velocity S-wave (km/s) = 2.61305 3.13362 2.88510
# Velocity P-wave (km/s) = 4.62313 5.54252 5.10357
#
# Compressibility (1/GPa) = 0.04042725
#
# Stress axis : x y z
#
# Youngs Moduli (GPa) = 51.37706 44.27058 108.57002
#
# Poissons Ratio (x) = -0.02747 0.63477
# Poissons Ratio (y) = -0.03187 0.02080
# Poissons Ratio (z) = 0.30038 0.00848
#
# Static dielectric constant tensor:
#      x y z
#    x 1.739120 0.000000 0.000000 
#    y 0.000000 1.749580 0.000000 
#    z 0.000000 0.000000 1.783020 
# 
# From -- ./inp_files/9216.got.cif
#   From: 2010.05.17/outbox.cif.g08.bks.cpg/sg68_5_cif.got.tgz:9216.got - 2010.06.03 18:57:09.
