data_PCOD9508055
_publ_section_title
;
Structure prediction by ZEFSAII (Michael W. Deem and Ramdas Pophale) SiO2 
 PCOD9508055
Probable space group: C C C A
;
_chemical_formula_sum "Si O2"
_cell_formula_units_Z 116
_cell_length_a 14.219219
_cell_length_b 23.310419
_cell_length_c 17.762596
_cell_angle_alpha 90.000000
_cell_angle_beta 90.000000
_cell_angle_gamma 90.000000
_cell_volume 5887.518180
_symmetry_space_group_name_H-M "C C C A"
_symmetry_group_IT_number 68
_space_group.IT_coordinate_system_code '2'
_symmetry_cell_setting 'orthorhombic'
loop_
_space_group_symop_operation_xyz
x,y,z
-x,1/2-y,z
x,1/2-y,1/2-z
-x,y,1/2-z
-x,-y,-z
x,1/2+y,-z
-x,1/2+y,1/2+z
x,-y,1/2+z
1/2+x,1/2+y,z
1/2-x,-y,z
1/2+x,-y,1/2-z
1/2-x,1/2+y,1/2-z
1/2-x,1/2-y,-z
1/2+x,y,-z
1/2-x,y,1/2+z
1/2+x,1/2-y,1/2+z
loop_
_atom_site_type_symbol
_atom_site_label
_atom_site_fract_x
_atom_site_fract_y
_atom_site_fract_z
Si Si1 0.857376 0.197506 0.197518
Si Si2 0.650447 0.325819 0.342202
Si Si3 0.400245 0.237130 0.956082
Si Si4 0.276742 0.330485 0.988531
Si Si5 0.613576 0.441410 0.253995
Si Si6 0.389056 0.429994 0.756294
Si Si7 0.500000 0.250000 0.250000
Si Si8 0.249903 0.563882 0.388017
O O1 0.888284 0.250000 0.250000
O O2 0.746618 0.205527 0.181805
O O3 0.914655 0.201865 0.119933
O O4 0.862409 0.131903 0.223973
O O5 0.666282 0.330764 0.432424
O O6 0.645146 0.390266 0.308779
O O7 0.565087 0.289860 0.304599
O O8 0.500000 0.250000 0.993031
O O9 0.321621 0.203693 0.003510
O O10 0.346574 0.295652 0.934191
O O11 0.250424 0.390667 0.953840
O O12 0.500000 0.438873 0.250000
O O13 0.641087 0.507148 0.276067
O O14 0.665499 0.430022 0.173545
O O15 0.500000 0.431648 0.750000
O O16 0.344759 0.429991 0.839179
O O17 0.250000 0.500000 0.419030
#
# Coordination Sequence:
#
# PCOD9508055 Si02
#       8
#    16  16  16  16  16  16   4  16
#     4  11  22  36  58  92 122 162 217 264 316 387
#     4  11  23  40  64  97 126 170 216 277 326 389
#     4  10  24  40  59  86 126 171 204 262 328 379
#     4  10  24  43  61  94 129 167 220 262 320 414
#     4  10  21  40  66  95 123 166 224 274 329 389
#     4  10  22  37  63  94 125 165 219 271 323 389
#     4  12  24  40  68 100 134 172 220 284 340 376
#     4  10  21  42  68  91 130 174 206 272 338 383
#
# _framework density 19.702698999999999
#
# number of rings (size 3 to 8) (size 9 to 14) (size 15 to 20)
#    0.000    1.655    2.759    0.828    4.828    2.207 
#    4.966    0.000    0.000    3.310    0.000    0.000 
#    0.000    0.000    0.000    0.000    0.000    0.000 
#
# Total GULP energy -323164.455942 kJ/mol
# GULP energy per Si atom -5571.800965 kJ/mol
# Density = 1.965786 g / cm^3
# Si number density = 19.702699 Si / 1000 Ang^3
#
#
#
# Elastic Constant Matrix: (Units=GPa)
#
#
# Indices 1 2 3 4 5 6 
#
# 1 131.3336 35.0052 32.2332 0.0000 0.0000 0.0000
# 2 35.0052 154.5718 61.0203 0.0000 0.0000 0.0000
# 3 32.2332 61.0203 58.0180 0.0000 0.0000 0.0000
# 4 0.0000 0.0000 0.0000 35.7291 0.0000 0.0000
# 5 0.0000 0.0000 0.0000 0.0000 9.3264 0.0000
# 6 0.0000 0.0000 0.0000 0.0000 0.0000 28.8915
#
#
#
# Elastic Compliance Matrix: (Units=1/GPa)
#
#
# Indices 1 2 3 4 5 6 
#
# 1 0.008817 -0.000108 -0.004785 0.000000 0.000000 0.000000
# 2 -0.000108 0.011064 -0.011577 0.000000 0.000000 0.000000
# 3 -0.004785 -0.011577 0.032070 0.000000 0.000000 0.000000
# 4 0.000000 0.000000 0.000000 0.027988 0.000000 0.000000
# 5 0.000000 0.000000 0.000000 0.000000 0.107222 0.000000
# 6 0.000000 0.000000 0.000000 0.000000 0.000000 0.034612
#
#
# Mechanical properties :
#
#
# Convention : Reuss Voigt Hill
#
# Bulk Modulus (GPa) = 52.59786 66.71565 59.65676
# Shear Modulus (GPa) = 19.15329 29.16705 24.16017
#
# Velocity S-wave (km/s) = 3.12126 3.85172 3.50556
# Velocity P-wave (km/s) = 6.30424 7.32910 6.83590
#
# Compressibility (1/GPa) = 0.01901218
#
# Stress axis : x y z
#
# Youngs Moduli (GPa) = 113.41220 90.38306 31.18132
#
# Poissons Ratio (x) = 0.00973 0.14922
# Poissons Ratio (y) = 0.01221 0.36098
# Poissons Ratio (z) = 0.54273 1.04634
#
# Static dielectric constant tensor:
#      x y z
#    x 1.818150 0.000000 0.000000 
#    y 0.000000 1.761380 0.000000 
#    z 0.000000 0.000000 1.702250 
# 
# From -- ./inp_files/31246.got.cif
#   From: 2010.05.17/outbox.cif.g08.bks.cpg/sg68_16_cif.got.tgz:31246.got - 2010.06.03 18:57:09.
