data_PCOD9508394
_publ_section_title
;
Structure prediction by ZEFSAII (Michael W. Deem and Ramdas Pophale) SiO2 
 PCOD9508394
Probable space group: C C C A
;
_chemical_formula_sum "Si O2"
_cell_formula_units_Z 96
_cell_length_a 15.582325
_cell_length_b 20.855020
_cell_length_c 11.804453
_cell_angle_alpha 90.000000
_cell_angle_beta 90.000000
_cell_angle_gamma 90.000000
_cell_volume 3836.089544
_symmetry_space_group_name_H-M "C C C A"
_symmetry_group_IT_number 68
_space_group.IT_coordinate_system_code '2'
_symmetry_cell_setting 'orthorhombic'
loop_
_space_group_symop_operation_xyz
x,y,z
-x,1/2-y,z
x,1/2-y,1/2-z
-x,y,1/2-z
-x,-y,-z
x,1/2+y,-z
-x,1/2+y,1/2+z
x,-y,1/2+z
1/2+x,1/2+y,z
1/2-x,-y,z
1/2+x,-y,1/2-z
1/2-x,1/2+y,1/2-z
1/2-x,1/2-y,-z
1/2+x,y,-z
1/2-x,y,1/2+z
1/2+x,1/2-y,1/2+z
loop_
_atom_site_type_symbol
_atom_site_label
_atom_site_fract_x
_atom_site_fract_y
_atom_site_fract_z
Si Si1 0.831450 0.922918 0.415351
Si Si2 0.805615 0.116433 0.154498
Si Si3 0.454812 0.158367 0.488349
Si Si4 0.628711 0.439383 0.628780
Si Si5 0.865527 0.173113 0.738147
Si Si6 0.394163 0.264587 0.617444
O O1 0.834995 0.926596 0.550730
O O2 0.728596 0.926826 0.401754
O O3 0.872802 0.858551 0.363038
O O4 0.876617 0.984392 0.360208
O O5 0.872808 0.099126 0.253434
O O6 0.706730 0.120976 0.192982
O O7 0.813994 0.189647 0.116861
O O8 0.436215 0.088291 0.536242
O O9 0.441155 0.167522 0.355011
O O10 0.378644 0.201245 0.545374
O O11 0.532510 0.192223 0.556261
O O12 0.846753 0.250000 0.750000
O O13 0.410897 0.250000 0.750000
#
# Coordination Sequence:
#
# PCOD9508394 Si02
#       6
#    16  16  16  16  16  16
#     4  10  23  39  61  99 130 175 217 270 343 398
#     4  11  22  39  67  95 130 169 226 281 323 394
#     4  11  22  40  63  92 132 171 212 276 331 396
#     4  10  22  37  64  92 130 174 219 269 329 399
#     4  11  24  40  65  99 134 169 223 281 346 400
#     4  11  23  40  67  99 129 172 229 272 336 389
#
# _framework density 25.025483999999999
#
# number of rings (size 3 to 8) (size 9 to 14) (size 15 to 20)
#    0.000    1.333    3.333    2.500    4.667    2.667 
#    0.000    6.667    3.667    0.000    0.000    0.000 
#    0.000    0.000    0.000    0.000    0.000    0.000 
#
# Total GULP energy -267593.711755 kJ/mol
# GULP energy per Si atom -5574.868995 kJ/mol
# Density = 2.496853 g / cm^3
# Si number density = 25.025484 Si / 1000 Ang^3
#
#
#
# Elastic Constant Matrix: (Units=GPa)
#
#
# Indices 1 2 3 4 5 6 
#
# 1 37.5817 11.8407 16.9587 0.0000 0.0000 0.0000
# 2 11.8407 121.6022 24.4837 0.0000 0.0000 0.0000
# 3 16.9587 24.4837 144.6246 0.0000 0.0000 0.0000
# 4 0.0000 0.0000 0.0000 19.1923 0.0000 0.0000
# 5 0.0000 0.0000 0.0000 0.0000 8.2888 0.0000
# 6 0.0000 0.0000 0.0000 0.0000 0.0000 27.2300
#
#
#
# Elastic Compliance Matrix: (Units=1/GPa)
#
#
# Indices 1 2 3 4 5 6 
#
# 1 0.028647 -0.002188 -0.002989 0.000000 0.000000 0.000000
# 2 -0.002188 0.008681 -0.001213 0.000000 0.000000 0.000000
# 3 -0.002989 -0.001213 0.007470 0.000000 0.000000 0.000000
# 4 0.000000 0.000000 0.000000 0.052104 0.000000 0.000000
# 5 0.000000 0.000000 0.000000 0.000000 0.120645 0.000000
# 6 0.000000 0.000000 0.000000 0.000000 0.000000 0.036724
#
#
# Mechanical properties :
#
#
# Convention : Reuss Voigt Hill
#
# Bulk Modulus (GPa) = 31.23166 45.59718 38.41442
# Shear Modulus (GPa) = 18.00359 27.64393 22.82376
#
# Velocity S-wave (km/s) = 2.68509 3.32720 3.02324
# Velocity P-wave (km/s) = 4.70319 5.74632 5.25073
#
# Compressibility (1/GPa) = 0.03201879
#
# Stress axis : x y z
#
# Youngs Moduli (GPa) = 34.90814 115.19693 133.86385
#
# Poissons Ratio (x) = 0.25201 0.40009
# Poissons Ratio (y) = 0.07637 0.16238
# Poissons Ratio (z) = 0.10433 0.13974
#
# Static dielectric constant tensor:
#      x y z
#    x 2.186480 0.000000 0.000000 
#    y 0.000000 2.002810 0.000000 
#    z 0.000000 0.000000 2.093720 
# 
# From -- ./inp_files/15583.got.cif
#   From: 2010.05.17/outbox.cif.g08.bks.cpg/sg68_8_cif.got.tgz:15583.got - 2010.06.03 18:57:09.
