data_PCOD9508302
_publ_section_title
;
Structure prediction by ZEFSAII (Michael W. Deem and Ramdas Pophale) SiO2 
 PCOD9508302
Probable space group: C C C A
;
_chemical_formula_sum "Si O2"
_cell_formula_units_Z 116
_cell_length_a 15.971419
_cell_length_b 26.702520
_cell_length_c 10.911217
_cell_angle_alpha 90.000000
_cell_angle_beta 90.000000
_cell_angle_gamma 90.000000
_cell_volume 4653.384569
_symmetry_space_group_name_H-M "C C C A"
_symmetry_group_IT_number 68
_space_group.IT_coordinate_system_code '2'
_symmetry_cell_setting 'orthorhombic'
loop_
_space_group_symop_operation_xyz
x,y,z
-x,1/2-y,z
x,1/2-y,1/2-z
-x,y,1/2-z
-x,-y,-z
x,1/2+y,-z
-x,1/2+y,1/2+z
x,-y,1/2+z
1/2+x,1/2+y,z
1/2-x,-y,z
1/2+x,-y,1/2-z
1/2-x,1/2+y,1/2-z
1/2-x,1/2-y,-z
1/2+x,y,-z
1/2-x,y,1/2+z
1/2+x,1/2-y,1/2+z
loop_
_atom_site_type_symbol
_atom_site_label
_atom_site_fract_x
_atom_site_fract_y
_atom_site_fract_z
Si Si1 0.183651 0.537598 0.149461
Si Si2 0.249551 0.207686 0.876348
Si Si3 0.936715 0.449144 0.365055
Si Si4 0.500000 0.250000 0.250000
Si Si5 0.374476 0.635114 0.504226
Si Si6 0.297102 0.890767 0.246869
Si Si7 0.642907 0.197200 0.405927
Si Si8 0.461978 0.895609 0.611080
O O1 0.250000 0.500000 0.087680
O O2 0.103007 0.503320 0.165394
O O3 0.160803 0.586856 0.075932
O O4 0.233039 0.562110 0.264772
O O5 0.175931 0.184180 0.960697
O O6 0.255720 0.161616 0.781680
O O7 0.217904 0.264547 0.860545
O O8 0.337441 0.204276 0.949799
O O9 0.860537 0.409999 0.350369
O O10 0.960039 0.441137 0.509883
O O11 0.000000 0.439921 0.250000
O O12 0.562858 0.219580 0.336543
O O13 0.354878 0.620600 0.367342
O O14 0.469724 0.639493 0.543204
O O15 0.623386 0.137637 0.384703
O O16 0.500000 0.904197 0.750000
#
# Coordination Sequence:
#
# PCOD9508302 Si02
#       8
#    16  16  16   4  16  16  16  16
#     4   9  23  44  67 108 145 196 246 314 375 464
#     4  10  24  44  72 107 143 200 256 320 389 474
#     4  11  22  47  77 107 149 204 259 320 392 470
#     4  12  24  40  72 104 146 194 240 312 394 464
#     4  11  24  44  70 110 148 198 253 319 388 463
#     4  10  21  45  74 105 146 195 253 313 385 463
#     4  11  24  44  70 104 147 195 255 316 392 472
#     4  12  26  46  74 112 155 203 260 330 401 471
#
# _framework density 24.928093000000001
#
# number of rings (size 3 to 8) (size 9 to 14) (size 15 to 20)
#    0.000    1.379    3.448    0.828    1.931    3.862 
#    4.966    0.000    1.517    0.000    0.000    0.000 
#    0.000    0.000    0.000    0.000    0.000    0.000 
#
# Total GULP energy -323012.174604 kJ/mol
# GULP energy per Si atom -5569.175424 kJ/mol
# Density = 2.487136 g / cm^3
# Si number density = 24.928093 Si / 1000 Ang^3
#
#
#
# Elastic Constant Matrix: (Units=GPa)
#
#
# Indices 1 2 3 4 5 6 
#
# 1 103.0798 62.6189 52.1310 0.0000 0.0000 0.0000
# 2 62.6189 164.2391 47.1437 0.0000 0.0000 0.0000
# 3 52.1310 47.1437 112.2520 0.0000 0.0000 0.0000
# 4 0.0000 0.0000 0.0000 24.3406 0.0000 0.0000
# 5 0.0000 0.0000 0.0000 0.0000 55.2397 0.0000
# 6 0.0000 0.0000 0.0000 0.0000 0.0000 46.2085
#
#
#
# Elastic Compliance Matrix: (Units=1/GPa)
#
#
# Indices 1 2 3 4 5 6 
#
# 1 0.014840 -0.004184 -0.005134 0.000000 0.000000 0.000000
# 2 -0.004184 0.008103 -0.001460 0.000000 0.000000 0.000000
# 3 -0.005134 -0.001460 0.011906 0.000000 0.000000 0.000000
# 4 0.000000 0.000000 0.000000 0.041084 0.000000 0.000000
# 5 0.000000 0.000000 0.000000 0.000000 0.018103 0.000000
# 6 0.000000 0.000000 0.000000 0.000000 0.000000 0.021641
#
#
# Mechanical properties :
#
#
# Convention : Reuss Voigt Hill
#
# Bulk Modulus (GPa) = 75.23420 78.15091 76.69255
# Shear Modulus (GPa) = 35.29481 39.66959 37.48220
#
# Velocity S-wave (km/s) = 3.76688 3.99351 3.88185
# Velocity P-wave (km/s) = 7.01179 7.25829 7.13610
#
# Compressibility (1/GPa) = 0.01329183
#
# Stress axis : x y z
#
# Youngs Moduli (GPa) = 67.38728 123.41111 83.98994
#
# Poissons Ratio (x) = 0.51636 0.43124
# Poissons Ratio (y) = 0.28195 0.12263
# Poissons Ratio (z) = 0.34600 0.18018
#
# Static dielectric constant tensor:
#      x y z
#    x 2.059250 0.000000 0.000000 
#    y 0.000000 1.960620 0.000000 
#    z 0.000000 0.000000 2.165400 
# 
# From -- ./inp_files/14856.got.cif
#   From: 2010.05.17/outbox.cif.g08.bks.cpg/sg68_8_cif.got.tgz:14856.got - 2010.06.03 18:57:09.
