data_PCOD9508268
_publ_section_title
;
Structure prediction by ZEFSAII (Michael W. Deem and Ramdas Pophale) SiO2 
 PCOD9508268
Probable space group: C C C A
;
_chemical_formula_sum "Si O2"
_cell_formula_units_Z 84
_cell_length_a 20.190447
_cell_length_b 11.122318
_cell_length_c 18.157785
_cell_angle_alpha 90.000000
_cell_angle_beta 90.000000
_cell_angle_gamma 90.000000
_cell_volume 4077.595219
_symmetry_space_group_name_H-M "C C C A"
_symmetry_group_IT_number 68
_space_group.IT_coordinate_system_code '2'
_symmetry_cell_setting 'orthorhombic'
loop_
_space_group_symop_operation_xyz
x,y,z
-x,1/2-y,z
x,1/2-y,1/2-z
-x,y,1/2-z
-x,-y,-z
x,1/2+y,-z
-x,1/2+y,1/2+z
x,-y,1/2+z
1/2+x,1/2+y,z
1/2-x,-y,z
1/2+x,-y,1/2-z
1/2-x,1/2+y,1/2-z
1/2-x,1/2-y,-z
1/2+x,y,-z
1/2-x,y,1/2+z
1/2+x,1/2-y,1/2+z
loop_
_atom_site_type_symbol
_atom_site_label
_atom_site_fract_x
_atom_site_fract_y
_atom_site_fract_z
Si Si1 0.663056 0.081716 0.424786
Si Si2 0.803622 0.352471 0.145756
Si Si3 0.931614 0.323578 0.686415
Si Si4 0.000000 0.750000 0.750000
Si Si5 0.815694 0.078595 0.097497
Si Si6 0.102999 0.057129 0.273743
O O1 0.727194 0.118965 0.375197
O O2 0.604068 0.158087 0.390559
O O3 0.672275 0.097105 0.511030
O O4 0.656167 0.938900 0.410305
O O5 0.811727 0.212245 0.131205
O O6 0.834981 0.394044 0.223854
O O7 0.892607 0.250000 0.750000
O O8 0.931586 0.455874 0.723434
O O9 0.000000 0.250000 0.677263
O O10 0.949568 0.838167 0.708949
O O11 0.870276 0.012448 0.147930
O O12 0.750000 0.000000 0.105034
#
# Coordination Sequence:
#
# PCOD9508268 Si02
#       6
#    16  16  16   4  16  16
#     4  10  23  39  69  97 141 175 212 296 343 410
#     4  10  21  44  58 100 135 172 227 281 341 402
#     4  10  23  44  67  98 128 177 237 276 329 403
#     4  12  20  48  62  88 132 176 232 282 312 416
#     4  12  24  39  66 107 136 177 219 279 367 409
#     4  11  25  41  71  96 133 182 234 283 343 407
#
# _framework density 20.600377999999999
#
# number of rings (size 3 to 8) (size 9 to 14) (size 15 to 20)
#    0.000    1.333    3.810    1.714    8.000    0.000 
#    1.714    0.000    0.000    9.143    0.000    0.000 
#    0.000    0.000    0.000    0.000    0.000    0.000 
#
# Total GULP energy -233958.256045 kJ/mol
# GULP energy per Si atom -5570.434668 kJ/mol
# Density = 2.055349 g / cm^3
# Si number density = 20.600378 Si / 1000 Ang^3
#
#
#
# Elastic Constant Matrix: (Units=GPa)
#
#
# Indices 1 2 3 4 5 6 
#
# 1 113.9496 33.2877 73.5491 0.0000 0.0000 0.0000
# 2 33.2877 96.0922 37.7521 0.0000 0.0000 0.0000
# 3 73.5491 37.7521 112.0910 0.0000 0.0000 0.0000
# 4 0.0000 0.0000 0.0000 18.0535 0.0000 0.0000
# 5 0.0000 0.0000 0.0000 0.0000 11.6433 0.0000
# 6 0.0000 0.0000 0.0000 0.0000 0.0000 35.8307
#
#
#
# Elastic Compliance Matrix: (Units=1/GPa)
#
#
# Indices 1 2 3 4 5 6 
#
# 1 0.015427 -0.001576 -0.009592 0.000000 0.000000 0.000000
# 2 -0.001576 0.012155 -0.003060 0.000000 0.000000 0.000000
# 3 -0.009592 -0.003060 0.016246 0.000000 0.000000 0.000000
# 4 0.000000 0.000000 0.000000 0.055391 0.000000 0.000000
# 5 0.000000 0.000000 0.000000 0.000000 0.085886 0.000000
# 6 0.000000 0.000000 0.000000 0.000000 0.000000 0.027909
#
#
# Mechanical properties :
#
#
# Convention : Reuss Voigt Hill
#
# Bulk Modulus (GPa) = 65.05064 67.92339 66.48702
# Shear Modulus (GPa) = 20.27633 24.94177 22.60905
#
# Velocity S-wave (km/s) = 3.14071 3.48335 3.31646
# Velocity P-wave (km/s) = 6.69313 7.01582 6.85638
#
# Compressibility (1/GPa) = 0.01537264
#
# Stress axis : x y z
#
# Youngs Moduli (GPa) = 64.82008 82.27328 61.55492
#
# Poissons Ratio (x) = 0.12965 0.59043
# Poissons Ratio (y) = 0.10214 0.18834
# Poissons Ratio (z) = 0.62175 0.25173
#
# Static dielectric constant tensor:
#      x y z
#    x 1.807220 0.000000 0.000000 
#    y 0.000000 1.832920 0.000000 
#    z 0.000000 0.000000 1.715760 
# 
# From -- ./inp_files/40180.got.cif
#   From: 2010.05.17/outbox.cif.g08.bks.cpg/sg68_21_cif.got.tgz:40180.got - 2010.06.03 18:57:09.
