data_PCOD9508383
_publ_section_title
;
Structure prediction by ZEFSAII (Michael W. Deem and Ramdas Pophale) SiO2 
 PCOD9508383
Probable space group: C C C A
;
_chemical_formula_sum "Si O2"
_cell_formula_units_Z 96
_cell_length_a 23.863993
_cell_length_b 9.683887
_cell_length_c 20.702916
_cell_angle_alpha 90.000000
_cell_angle_beta 90.000000
_cell_angle_gamma 90.000000
_cell_volume 4784.365456
_symmetry_space_group_name_H-M "C C C A"
_symmetry_group_IT_number 68
_space_group.IT_coordinate_system_code '2'
_symmetry_cell_setting 'orthorhombic'
loop_
_space_group_symop_operation_xyz
x,y,z
-x,1/2-y,z
x,1/2-y,1/2-z
-x,y,1/2-z
-x,-y,-z
x,1/2+y,-z
-x,1/2+y,1/2+z
x,-y,1/2+z
1/2+x,1/2+y,z
1/2-x,-y,z
1/2+x,-y,1/2-z
1/2-x,1/2+y,1/2-z
1/2-x,1/2-y,-z
1/2+x,y,-z
1/2-x,y,1/2+z
1/2+x,1/2-y,1/2+z
loop_
_atom_site_type_symbol
_atom_site_label
_atom_site_fract_x
_atom_site_fract_y
_atom_site_fract_z
Si Si1 0.607526 0.921981 0.327370
Si Si2 0.337616 0.377168 0.953838
Si Si3 0.805810 0.932059 0.572404
Si Si4 0.962049 0.632087 0.489663
Si Si5 0.004408 0.599285 0.155041
Si Si6 0.396840 0.595965 0.182844
O O1 0.654421 0.939370 0.382412
O O2 0.628612 0.935566 0.253701
O O3 0.590842 0.758743 0.328268
O O4 0.555955 0.023022 0.346398
O O5 0.306311 0.230509 0.946324
O O6 0.313774 0.481275 0.006629
O O7 0.401225 0.356472 0.980222
O O8 0.856526 0.946869 0.623756
O O9 0.750000 0.000000 0.602014
O O10 0.963814 0.638063 0.412326
O O11 0.000000 0.750000 0.519891
O O12 0.000000 0.500000 0.500000
O O13 0.045914 0.489071 0.185812
O O14 0.000000 0.750000 0.185530
#
# Coordination Sequence:
#
# PCOD9508383 Si02
#       6
#    16  16  16  16  16  16
#     4  10  22  37  61  87 120 163 199 241 297 380
#     4  11  22  39  63  90 122 154 203 255 308 364
#     4  11  24  42  65  87 115 157 209 264 310 352
#     4  11  21  32  54  90 126 158 193 238 302 372
#     4  11  22  34  55  89 129 159 193 235 301 374
#     4  10  22  41  59  85 121 163 205 245 299 360
#
# _framework density 20.065356999999999
#
# number of rings (size 3 to 8) (size 9 to 14) (size 15 to 20)
#    0.000    1.333    3.333    2.500    4.667    2.667 
#    0.000    0.833    0.000    8.000    0.000    0.000 
#    0.000    0.000    0.000    0.000    0.000    0.000 
#
# Total GULP energy -267456.538920 kJ/mol
# GULP energy per Si atom -5572.011228 kJ/mol
# Density = 2.001969 g / cm^3
# Si number density = 20.065357 Si / 1000 Ang^3
#
#
#
# Elastic Constant Matrix: (Units=GPa)
#
#
# Indices 1 2 3 4 5 6 
#
# 1 59.0982 38.3514 7.5799 0.0000 0.0000 0.0000
# 2 38.3514 104.3915 13.2458 0.0000 0.0000 0.0000
# 3 7.5799 13.2458 115.2877 0.0000 0.0000 0.0000
# 4 0.0000 0.0000 0.0000 11.7300 0.0000 0.0000
# 5 0.0000 0.0000 0.0000 0.0000 10.2400 0.0000
# 6 0.0000 0.0000 0.0000 0.0000 0.0000 31.1121
#
#
#
# Elastic Compliance Matrix: (Units=1/GPa)
#
#
# Indices 1 2 3 4 5 6 
#
# 1 0.022250 -0.008107 -0.000531 0.000000 0.000000 0.000000
# 2 -0.008107 0.012675 -0.000923 0.000000 0.000000 0.000000
# 3 -0.000531 -0.000923 0.008815 0.000000 0.000000 0.000000
# 4 0.000000 0.000000 0.000000 0.085251 0.000000 0.000000
# 5 0.000000 0.000000 0.000000 0.000000 0.097656 0.000000
# 6 0.000000 0.000000 0.000000 0.000000 0.000000 0.032142
#
#
# Mechanical properties :
#
#
# Convention : Reuss Voigt Hill
#
# Bulk Modulus (GPa) = 40.62279 44.12575 42.37427
# Shear Modulus (GPa) = 17.47535 25.25644 21.36589
#
# Velocity S-wave (km/s) = 2.95434 3.55168 3.26669
# Velocity P-wave (km/s) = 5.65037 6.23362 5.94914
#
# Compressibility (1/GPa) = 0.02461672
#
# Stress axis : x y z
#
# Youngs Moduli (GPa) = 44.94377 78.89697 113.44335
#
# Poissons Ratio (x) = 0.63960 0.06029
# Poissons Ratio (y) = 0.36435 0.10474
# Poissons Ratio (z) = 0.02389 0.07284
#
# Static dielectric constant tensor:
#      x y z
#    x 1.989760 0.000000 0.000000 
#    y 0.000000 1.684000 0.000000 
#    z 0.000000 0.000000 1.700610 
# 
# From -- ./inp_files/41213.got.cif
#   From: 2010.05.17/outbox.cif.g08.bks.cpg/sg68_21_cif.got.tgz:41213.got - 2010.06.03 18:57:09.
