data_PCOD9508874
_publ_section_title
;
Structure prediction by ZEFSAII (Michael W. Deem and Ramdas Pophale) SiO2 
 PCOD9508874
Probable space group: C C C A
;
_chemical_formula_sum "Si O2"
_cell_formula_units_Z 64
_cell_length_a 19.328362
_cell_length_b 11.999244
_cell_length_c 12.778170
_cell_angle_alpha 90.000000
_cell_angle_beta 90.000000
_cell_angle_gamma 90.000000
_cell_volume 2963.586428
_symmetry_space_group_name_H-M "C C C A"
_symmetry_group_IT_number 68
_space_group.IT_coordinate_system_code '2'
_symmetry_cell_setting 'orthorhombic'
loop_
_space_group_symop_operation_xyz
x,y,z
-x,1/2-y,z
x,1/2-y,1/2-z
-x,y,1/2-z
-x,-y,-z
x,1/2+y,-z
-x,1/2+y,1/2+z
x,-y,1/2+z
1/2+x,1/2+y,z
1/2-x,-y,z
1/2+x,-y,1/2-z
1/2-x,1/2+y,1/2-z
1/2-x,1/2-y,-z
1/2+x,y,-z
1/2-x,y,1/2+z
1/2+x,1/2-y,1/2+z
loop_
_atom_site_type_symbol
_atom_site_label
_atom_site_fract_x
_atom_site_fract_y
_atom_site_fract_z
Si Si1 0.376193 0.374051 0.289371
Si Si2 0.758871 0.123052 0.624716
Si Si3 0.644412 0.782920 0.005991
Si Si4 0.500000 0.546882 0.250000
Si Si5 0.000000 0.750000 0.908961
O O1 0.400265 0.250000 0.250000
O O2 0.301162 0.385333 0.232934
O O3 0.364349 0.374108 0.414052
O O4 0.432555 0.467099 0.259196
O O5 0.683486 0.178471 0.611559
O O6 0.808232 0.190678 0.547913
O O7 0.750000 0.000000 0.583672
O O8 0.569194 0.736691 0.026157
O O9 0.491973 0.635222 0.155620
#
# Coordination Sequence:
#
# PCOD9508874 Si02
#       5
#    16  16  16   8   8
#     4  10  23  43  69 101 133 181 229 287 346 417
#     4  10  22  43  64 101 134 176 226 283 344 408
#     4  10  24  43  69 100 136 180 229 282 346 425
#     4  11  25  44  68 100 139 181 226 300 350 405
#     4  11  26  46  67 102 144 182 235 290 353 420
#
# _framework density 21.595455999999999
#
# number of rings (size 3 to 8) (size 9 to 14) (size 15 to 20)
#    0.000    1.750    0.000    1.875   10.500    2.000 
#   36.000    0.000    0.000    0.000    0.000    0.000 
#    0.000    0.000    0.000    0.000    0.000    0.000 
#
# Total GULP energy -178498.927306 kJ/mol
# GULP energy per Si atom -5578.091478 kJ/mol
# Density = 2.154630 g / cm^3
# Si number density = 21.595456 Si / 1000 Ang^3
#
#
#
# Elastic Constant Matrix: (Units=GPa)
#
#
# Indices 1 2 3 4 5 6 
#
# 1 140.7134 36.0716 40.0284 0.0000 0.0000 0.0000
# 2 36.0716 95.1933 11.7626 0.0000 0.0000 0.0000
# 3 40.0284 11.7626 67.8915 0.0000 0.0000 0.0000
# 4 0.0000 0.0000 0.0000 -79.0180 0.0000 0.0000
# 5 0.0000 0.0000 0.0000 0.0000 -6.4005 0.0000
# 6 0.0000 0.0000 0.0000 0.0000 0.0000 -12.6565
#
#
#
# Elastic Compliance Matrix: (Units=1/GPa)
#
#
# Indices 1 2 3 4 5 6 
#
# 1 0.009259 -0.002896 -0.004957 0.000000 0.000000 0.000000
# 2 -0.002896 0.011641 -0.000309 0.000000 0.000000 0.000000
# 3 -0.004957 -0.000309 0.017706 0.000000 0.000000 0.000000
# 4 0.000000 0.000000 0.000000 -0.012655 0.000000 0.000000
# 5 0.000000 0.000000 0.000000 0.000000 -0.156239 0.000000
# 6 0.000000 0.000000 0.000000 0.000000 0.000000 -0.079011
#
#
# Mechanical properties :
#
#
# Convention : Reuss Voigt Hill
#
# Bulk Modulus (GPa) = 44.88313 53.28038 49.08176
# Shear Modulus (GPa) = -26.94742 -5.21930 -16.08336
#
# Velocity S-wave (km/s) = -3.53629 -1.55631 -2.73198
# Velocity P-wave (km/s) = 2.03835 4.63639 3.58127
#
# Compressibility (1/GPa) = 0.02228008
#
# Stress axis : x y z
#
# Youngs Moduli (GPa) = 107.99978 85.90651 56.47846
#
# Poissons Ratio (x) = 0.24879 0.27999
# Poissons Ratio (y) = 0.31277 0.01747
# Poissons Ratio (z) = 0.53540 0.02657
#
# Static dielectric constant tensor:
#      x y z
#    x 1.768970 0.000000 0.000000 
#    y 0.000000 1.761290 0.000000 
#    z 0.000000 0.000000 1.827710 
# 
# From -- ./inp_files/23188.got.cif
#   From: 2010.05.17/outbox.cif.g08.bks.cpg/sg68_12_cif.got.tgz:23188.got - 2010.06.03 18:57:09.
