data_PCOD9508047
_publ_section_title
;
Structure prediction by ZEFSAII (Michael W. Deem and Ramdas Pophale) SiO2 
 PCOD9508047
Probable space group: C C C A
;
_chemical_formula_sum "Si O2"
_cell_formula_units_Z 68
_cell_length_a 13.058533
_cell_length_b 19.998576
_cell_length_c 11.256863
_cell_angle_alpha 90.000000
_cell_angle_beta 90.000000
_cell_angle_gamma 90.000000
_cell_volume 2939.753014
_symmetry_space_group_name_H-M "C C C A"
_symmetry_group_IT_number 68
_space_group.IT_coordinate_system_code '2'
_symmetry_cell_setting 'orthorhombic'
loop_
_space_group_symop_operation_xyz
x,y,z
-x,1/2-y,z
x,1/2-y,1/2-z
-x,y,1/2-z
-x,-y,-z
x,1/2+y,-z
-x,1/2+y,1/2+z
x,-y,1/2+z
1/2+x,1/2+y,z
1/2-x,-y,z
1/2+x,-y,1/2-z
1/2-x,1/2+y,1/2-z
1/2-x,1/2-y,-z
1/2+x,y,-z
1/2-x,y,1/2+z
1/2+x,1/2-y,1/2+z
loop_
_atom_site_type_symbol
_atom_site_label
_atom_site_fract_x
_atom_site_fract_y
_atom_site_fract_z
Si Si1 0.345461 0.850000 0.280479
Si Si2 0.239917 0.574827 0.909476
Si Si3 0.500000 0.750000 0.250000
Si Si4 0.584780 0.337302 0.046300
Si Si5 0.648288 0.313706 0.412630
O O1 0.324995 0.918245 0.211273
O O2 0.415218 0.801105 0.198678
O O3 0.405722 0.854270 0.405213
O O4 0.233905 0.819621 0.309879
O O5 0.250000 0.500000 0.954372
O O6 0.352499 0.604856 0.889600
O O7 0.190307 0.628913 0.998411
O O8 0.640275 0.264809 0.053890
O O9 0.471795 0.331004 0.099550
#
# Coordination Sequence:
#
# PCOD9508047 Si02
#       5
#    16  16   4  16  16
#     4  11  21  36  60  89 121 152 196 250 304 364
#     4  11  24  39  58  90 128 165 205 247 303 376
#     4  12  20  36  68  94 112 154 208 258 308 366
#     4  10  21  40  66  90 117 157 207 261 313 358
#     4  10  22  41  65  92 119 155 206 263 311 360
#
# _framework density 23.131195999999999
#
# number of rings (size 3 to 8) (size 9 to 14) (size 15 to 20)
#    0.000    1.412    0.000    8.471    0.000    5.647 
#    0.000    7.059    0.000    0.000    0.000    0.000 
#    0.000    0.000    0.000    0.000    0.000    0.000 
#
# Total GULP energy -189411.208445 kJ/mol
# GULP energy per Si atom -5570.917895 kJ/mol
# Density = 2.307855 g / cm^3
# Si number density = 23.131196 Si / 1000 Ang^3
#
#
#
# Elastic Constant Matrix: (Units=GPa)
#
#
# Indices 1 2 3 4 5 6 
#
# 1 167.2733 58.8055 21.4807 0.0000 0.0000 0.0000
# 2 58.8055 123.0710 17.7049 0.0000 0.0000 0.0000
# 3 21.4807 17.7049 60.8060 0.0000 0.0000 0.0000
# 4 0.0000 0.0000 0.0000 16.0885 0.0000 0.0000
# 5 0.0000 0.0000 0.0000 0.0000 23.1306 0.0000
# 6 0.0000 0.0000 0.0000 0.0000 0.0000 22.9702
#
#
#
# Elastic Compliance Matrix: (Units=1/GPa)
#
#
# Indices 1 2 3 4 5 6 
#
# 1 0.007339 -0.003271 -0.001640 0.000000 0.000000 0.000000
# 2 -0.003271 0.009938 -0.001738 0.000000 0.000000 0.000000
# 3 -0.001640 -0.001738 0.017531 0.000000 0.000000 0.000000
# 4 0.000000 0.000000 0.000000 0.062156 0.000000 0.000000
# 5 0.000000 0.000000 0.000000 0.000000 0.043233 0.000000
# 6 0.000000 0.000000 0.000000 0.000000 0.000000 0.043535
#
#
# Mechanical properties :
#
#
# Convention : Reuss Voigt Hill
#
# Bulk Modulus (GPa) = 46.49008 60.79249 53.64128
# Shear Modulus (GPa) = 24.48578 29.31514 26.90046
#
# Velocity S-wave (km/s) = 3.25708 3.56384 3.41391
# Velocity P-wave (km/s) = 5.85550 6.57824 6.22736
#
# Compressibility (1/GPa) = 0.02150997
#
# Stress axis : x y z
#
# Youngs Moduli (GPa) = 136.26478 100.62174 57.04079
#
# Poissons Ratio (x) = 0.32909 0.09356
# Poissons Ratio (y) = 0.44567 0.09916
# Poissons Ratio (z) = 0.22350 0.17491
#
# Static dielectric constant tensor:
#      x y z
#    x 1.913920 0.000000 0.000000 
#    y 0.000000 1.792490 0.000000 
#    z 0.000000 0.000000 2.018580 
# 
# From -- ./inp_files/13024.got.cif
#   From: 2010.05.17/outbox.cif.g08.bks.cpg/sg68_7_cif.got.tgz:13024.got - 2010.06.03 18:57:09.
