data_PCOD9508241
_publ_section_title
;
Structure prediction by ZEFSAII (Michael W. Deem and Ramdas Pophale) SiO2 
 PCOD9508241
Probable space group: C C C A
;
_chemical_formula_sum "Si O2"
_cell_formula_units_Z 68
_cell_length_a 17.601686
_cell_length_b 8.392458
_cell_length_c 19.190150
_cell_angle_alpha 90.000000
_cell_angle_beta 90.000000
_cell_angle_gamma 90.000000
_cell_volume 2834.796025
_symmetry_space_group_name_H-M "C C C A"
_symmetry_group_IT_number 68
_space_group.IT_coordinate_system_code '2'
_symmetry_cell_setting 'orthorhombic'
loop_
_space_group_symop_operation_xyz
x,y,z
-x,1/2-y,z
x,1/2-y,1/2-z
-x,y,1/2-z
-x,-y,-z
x,1/2+y,-z
-x,1/2+y,1/2+z
x,-y,1/2+z
1/2+x,1/2+y,z
1/2-x,-y,z
1/2+x,-y,1/2-z
1/2-x,1/2+y,1/2-z
1/2-x,1/2-y,-z
1/2+x,y,-z
1/2-x,y,1/2+z
1/2+x,1/2-y,1/2+z
loop_
_atom_site_type_symbol
_atom_site_label
_atom_site_fract_x
_atom_site_fract_y
_atom_site_fract_z
Si Si1 0.664730 0.006276 0.299474
Si Si2 0.000000 0.750000 0.250000
Si Si3 0.914990 0.677929 0.588452
Si Si4 0.122387 0.368644 0.663686
Si Si5 0.339387 0.978931 0.479102
O O1 0.639791 0.184983 0.319183
O O2 0.750000 0.000000 0.326295
O O3 0.613443 0.873373 0.335279
O O4 0.603088 0.978145 0.458437
O O5 0.038130 0.872905 0.304978
O O6 0.664977 0.990278 0.715468
O O7 0.000000 0.750000 0.586758
O O8 0.859011 0.807198 0.553081
O O9 0.139243 0.405155 0.584961
O O10 0.250000 0.000000 0.496425
#
# Coordination Sequence:
#
# PCOD9508241 Si02
#       5
#    16   4  16  16  16
#     4  10  21  43  66  96 131 174 224 278 337 405
#     4   8  20  36  60  90 124 168 206 280 336 396
#     4  12  27  42  68 100 139 177 225 283 336 402
#     4  10  23  39  72  90 134 172 230 271 348 392
#     4  12  25  44  68  98 134 183 229 279 337 403
#
# _framework density 23.987618999999999
#
# number of rings (size 3 to 8) (size 9 to 14) (size 15 to 20)
#    0.000    1.412    0.000    5.647    8.235    2.824 
#    0.000    1.176    0.000    0.000    0.000    0.000 
#    0.000    0.000    0.000    0.000    0.000    0.000 
#
# Total GULP energy -189817.173096 kJ/mol
# GULP energy per Si atom -5582.858032 kJ/mol
# Density = 2.393302 g / cm^3
# Si number density = 23.987619 Si / 1000 Ang^3
#
#
#
# Elastic Constant Matrix: (Units=GPa)
#
#
# Indices 1 2 3 4 5 6 
#
# 1 143.0984 14.5188 36.0273 0.0000 0.0000 0.0000
# 2 14.5188 72.9449 4.2472 0.0000 0.0000 0.0000
# 3 36.0273 4.2472 95.2924 0.0000 0.0000 0.0000
# 4 0.0000 0.0000 0.0000 50.1353 0.0000 0.0000
# 5 0.0000 0.0000 0.0000 0.0000 -1.8384 0.0000
# 6 0.0000 0.0000 0.0000 0.0000 0.0000 9.7589
#
#
#
# Elastic Compliance Matrix: (Units=1/GPa)
#
#
# Indices 1 2 3 4 5 6 
#
# 1 0.007863 -0.001395 -0.002910 0.000000 0.000000 0.000000
# 2 -0.001395 0.013992 -0.000096 0.000000 0.000000 0.000000
# 3 -0.002910 -0.000096 0.011599 0.000000 0.000000 0.000000
# 4 0.000000 0.000000 0.000000 0.019946 0.000000 0.000000
# 5 0.000000 0.000000 0.000000 0.000000 -0.543943 0.000000
# 6 0.000000 0.000000 0.000000 0.000000 0.000000 0.102471
#
#
# Mechanical properties :
#
#
# Convention : Reuss Voigt Hill
#
# Bulk Modulus (GPa) = 40.56858 46.76916 43.66887
# Shear Modulus (GPa) = -13.47521 28.71397 7.61938
#
# Velocity S-wave (km/s) = -2.37271 3.46357 1.78417
# Velocity P-wave (km/s) = 3.07289 5.96109 4.74222
#
# Compressibility (1/GPa) = 0.02464962
#
# Stress axis : x y z
#
# Youngs Moduli (GPa) = 127.18564 71.46776 86.21701
#
# Poissons Ratio (x) = 0.09973 0.25093
# Poissons Ratio (y) = 0.17749 0.00828
# Poissons Ratio (z) = 0.37016 0.00686
#
# Static dielectric constant tensor:
#      x y z
#    x 0.290400 0.000000 0.000000 
#    y 0.000000 1.934250 0.000000 
#    z 0.000000 0.000000 1.978830 
# 
# From -- ./inp_files/45102.got.cif
#   From: 2010.05.17/outbox.cif.g08.bks.cpg/sg68_23_cif.got.tgz:45102.got - 2010.06.03 18:57:09.
