data_PCOD9508209
_publ_section_title
;
Structure prediction by ZEFSAII (Michael W. Deem and Ramdas Pophale) SiO2 
 PCOD9508209
Probable space group: C C C A
;
_chemical_formula_sum "Si O2"
_cell_formula_units_Z 88
_cell_length_a 11.989196
_cell_length_b 18.258873
_cell_length_c 17.275885
_cell_angle_alpha 90.000000
_cell_angle_beta 90.000000
_cell_angle_gamma 90.000000
_cell_volume 3781.850288
_symmetry_space_group_name_H-M "C C C A"
_symmetry_group_IT_number 68
_space_group.IT_coordinate_system_code '2'
_symmetry_cell_setting 'orthorhombic'
loop_
_space_group_symop_operation_xyz
x,y,z
-x,1/2-y,z
x,1/2-y,1/2-z
-x,y,1/2-z
-x,-y,-z
x,1/2+y,-z
-x,1/2+y,1/2+z
x,-y,1/2+z
1/2+x,1/2+y,z
1/2-x,-y,z
1/2+x,-y,1/2-z
1/2-x,1/2+y,1/2-z
1/2-x,1/2-y,-z
1/2+x,y,-z
1/2-x,y,1/2+z
1/2+x,1/2-y,1/2+z
loop_
_atom_site_type_symbol
_atom_site_label
_atom_site_fract_x
_atom_site_fract_y
_atom_site_fract_z
Si Si1 0.817467 0.575789 0.848636
Si Si2 0.741258 0.077396 0.319820
Si Si3 0.299937 0.312928 0.443106
Si Si4 0.500000 0.393310 0.250000
Si Si5 0.885429 0.828899 0.100497
Si Si6 0.022843 0.083932 0.478929
O O1 0.750000 0.500000 0.868646
O O2 0.818623 0.580047 0.756017
O O3 0.737864 0.640355 0.879504
O O4 0.937962 0.581267 0.889351
O O5 0.765979 0.145348 0.375672
O O6 0.615421 0.073885 0.284365
O O7 0.750000 0.000000 0.363279
O O8 0.250000 0.250000 0.500000
O O9 0.384264 0.258040 0.401247
O O10 0.368314 0.378408 0.482520
O O11 0.455262 0.354837 0.173491
O O12 0.926546 0.866860 0.019909
O O13 0.000000 0.000000 0.500000
#
# Coordination Sequence:
#
# PCOD9508209 Si02
#       6
#    16  16  16   8  16  16
#     4  10  21  42  68 107 143 186 242 300 364 436
#     4  10  24  43  71 104 147 190 243 304 358 446
#     4  12  26  45  66 107 143 186 242 302 372 438
#     4  10  22  43  72 106 138 185 242 288 373 428
#     4  11  23  43  69 100 142 178 242 304 354 440
#     4  12  24  42  69 101 145 195 236 297 370 439
#
# _framework density 23.269034999999999
#
# number of rings (size 3 to 8) (size 9 to 14) (size 15 to 20)
#    0.000    1.091    5.455    0.545    0.000    5.818 
#    0.000    0.000    0.000    0.000    0.000    2.545 
#    0.000    0.000    0.000    0.000    0.000    0.000 
#
# Total GULP energy -245209.814818 kJ/mol
# GULP energy per Si atom -5572.950337 kJ/mol
# Density = 2.321607 g / cm^3
# Si number density = 23.269035 Si / 1000 Ang^3
#
#
#
# Elastic Constant Matrix: (Units=GPa)
#
#
# Indices 1 2 3 4 5 6 
#
# 1 42.9095 30.1973 46.7216 0.0000 0.0000 0.0000
# 2 30.1973 161.4836 77.1735 0.0000 0.0000 0.0000
# 3 46.7216 77.1735 122.0990 0.0000 0.0000 0.0000
# 4 0.0000 0.0000 0.0000 74.6280 0.0000 0.0000
# 5 0.0000 0.0000 0.0000 0.0000 55.0783 0.0000
# 6 0.0000 0.0000 0.0000 0.0000 0.0000 29.2300
#
#
#
# Elastic Compliance Matrix: (Units=1/GPa)
#
#
# Indices 1 2 3 4 5 6 
#
# 1 0.039956 -0.000236 -0.015140 0.000000 0.000000 0.000000
# 2 -0.000236 0.008874 -0.005518 0.000000 0.000000 0.000000
# 3 -0.015140 -0.005518 0.017471 0.000000 0.000000 0.000000
# 4 0.000000 0.000000 0.000000 0.013400 0.000000 0.000000
# 5 0.000000 0.000000 0.000000 0.000000 0.018156 0.000000
# 6 0.000000 0.000000 0.000000 0.000000 0.000000 0.034211
#
#
# Mechanical properties :
#
#
# Convention : Reuss Voigt Hill
#
# Bulk Modulus (GPa) = 40.79621 70.51968 55.65795
# Shear Modulus (GPa) = 27.46809 43.28056 35.37433
#
# Velocity S-wave (km/s) = 3.43950 4.31746 3.90324
# Velocity P-wave (km/s) = 5.77443 7.43142 6.65470
#
# Compressibility (1/GPa) = 0.02451208
#
# Stress axis : x y z
#
# Youngs Moduli (GPa) = 25.02738 112.68779 57.23614
#
# Poissons Ratio (x) = 0.02663 0.86656
# Poissons Ratio (y) = 0.00591 0.31586
# Poissons Ratio (z) = 0.37892 0.62187
#
# Static dielectric constant tensor:
#      x y z
#    x 2.047360 0.000000 0.000000 
#    y 0.000000 1.893540 0.000000 
#    z 0.000000 0.000000 2.587440 
# 
# From -- ./inp_files/30951.got.cif
#   From: 2010.05.17/outbox.cif.g08.bks.cpg/sg68_16_cif.got.tgz:30951.got - 2010.06.03 18:57:09.
