data_PCOD9508099
_publ_section_title
;
Structure prediction by ZEFSAII (Michael W. Deem and Ramdas Pophale) SiO2 
 PCOD9508099
Probable space group: C C C A
;
_chemical_formula_sum "Si O2"
_cell_formula_units_Z 80
_cell_length_a 14.990172
_cell_length_b 11.951897
_cell_length_c 23.082817
_cell_angle_alpha 90.000000
_cell_angle_beta 90.000000
_cell_angle_gamma 90.000000
_cell_volume 4135.540386
_symmetry_space_group_name_H-M "C C C A"
_symmetry_group_IT_number 68
_space_group.IT_coordinate_system_code '2'
_symmetry_cell_setting 'orthorhombic'
loop_
_space_group_symop_operation_xyz
x,y,z
-x,1/2-y,z
x,1/2-y,1/2-z
-x,y,1/2-z
-x,-y,-z
x,1/2+y,-z
-x,1/2+y,1/2+z
x,-y,1/2+z
1/2+x,1/2+y,z
1/2-x,-y,z
1/2+x,-y,1/2-z
1/2-x,1/2+y,1/2-z
1/2-x,1/2-y,-z
1/2+x,y,-z
1/2-x,y,1/2+z
1/2+x,1/2-y,1/2+z
loop_
_atom_site_type_symbol
_atom_site_label
_atom_site_fract_x
_atom_site_fract_y
_atom_site_fract_z
Si Si1 0.501553 0.383958 0.318665
Si Si2 0.318914 0.408768 0.114120
Si Si3 0.807948 0.250817 0.059624
Si Si4 0.599941 0.956979 0.012186
Si Si5 0.651468 0.489727 0.610006
O O1 0.500000 0.250000 0.329858
O O2 0.500000 0.401559 0.250000
O O3 0.595552 0.414332 0.346456
O O4 0.424759 0.457882 0.349568
O O5 0.250000 0.500000 0.135981
O O6 0.263719 0.295280 0.106508
O O7 0.350471 0.449034 0.050190
O O8 0.852688 0.362922 0.084769
O O9 0.750000 0.250000 0.000000
O O10 0.884315 0.157053 0.047693
O O11 0.645870 0.941168 0.950020
O O12 0.500000 0.000000 0.000000
O O13 0.750000 0.500000 0.636490
#
# Coordination Sequence:
#
# PCOD9508099 Si02
#       5
#    16  16  16  16  16
#     4  11  26  45  66  90 120 173 237 282 318 379
#     4  10  21  41  61  89 135 169 202 267 332 392
#     4  11  21  36  62  99 138 165 206 257 333 413
#     4  11  21  36  60 100 134 171 204 254 331 407
#     4  12  22  39  66  99 131 171 214 273 330 402
#
# _framework density 19.344508999999999
#
# number of rings (size 3 to 8) (size 9 to 14) (size 15 to 20)
#    0.000    1.000    6.000    1.800    0.000    1.600 
#    0.000    0.000    0.000    8.400    0.000    0.000 
#    0.000    0.000    0.000    0.000    0.000    0.000 
#
# Total GULP energy -223049.283840 kJ/mol
# GULP energy per Si atom -5576.232096 kJ/mol
# Density = 1.930048 g / cm^3
# Si number density = 19.344509 Si / 1000 Ang^3
#
#
#
# Elastic Constant Matrix: (Units=GPa)
#
#
# Indices 1 2 3 4 5 6 
#
# 1 176.8744 70.3797 67.3067 0.0000 0.0000 0.0000
# 2 70.3797 135.6227 50.3766 0.0000 0.0000 0.0000
# 3 67.3067 50.3766 85.1824 0.0000 0.0000 0.0000
# 4 0.0000 0.0000 0.0000 14.0654 0.0000 0.0000
# 5 0.0000 0.0000 0.0000 0.0000 -5.2224 0.0000
# 6 0.0000 0.0000 0.0000 0.0000 0.0000 27.0187
#
#
#
# Elastic Compliance Matrix: (Units=1/GPa)
#
#
# Indices 1 2 3 4 5 6 
#
# 1 0.008706 -0.002515 -0.005392 0.000000 0.000000 0.000000
# 2 -0.002515 0.010176 -0.004030 0.000000 0.000000 0.000000
# 3 -0.005392 -0.004030 0.018383 0.000000 0.000000 0.000000
# 4 0.000000 0.000000 0.000000 0.071096 0.000000 0.000000
# 5 0.000000 0.000000 0.000000 0.000000 -0.191484 0.000000
# 6 0.000000 0.000000 0.000000 0.000000 0.000000 0.037011
#
#
# Mechanical properties :
#
#
# Convention : Reuss Voigt Hill
#
# Bulk Modulus (GPa) = 74.67992 85.97840 80.32916
# Shear Modulus (GPa) = -281.34086 21.14679 -130.09704
#
# Velocity S-wave (km/s) = -12.07281 3.30990 -8.20967
# Velocity P-wave (km/s) = 12.47590 7.69088 6.94617
#
# Compressibility (1/GPa) = 0.01339048
#
# Stress axis : x y z
#
# Youngs Moduli (GPa) = 114.85904 98.27255 54.39692
#
# Poissons Ratio (x) = 0.24718 0.29329
# Poissons Ratio (y) = 0.28890 0.21925
# Poissons Ratio (z) = 0.61929 0.39608
#
# Static dielectric constant tensor:
#      x y z
#    x 1.813520 0.000000 0.000000 
#    y 0.000000 1.805410 0.000000 
#    z 0.000000 0.000000 1.660750 
# 
# From -- ./inp_files/45191.got.cif
#   From: 2010.05.17/outbox.cif.g08.bks.cpg/sg68_23_cif.got.tgz:45191.got - 2010.06.03 18:57:09.
