data_PCOD9508481
_publ_section_title
;
Structure prediction by ZEFSAII (Michael W. Deem and Ramdas Pophale) SiO2 
 PCOD9508481
Probable space group: C C C A
;
_chemical_formula_sum "Si O2"
_cell_formula_units_Z 80
_cell_length_a 7.784175
_cell_length_b 16.601896
_cell_length_c 27.807620
_cell_angle_alpha 90.000000
_cell_angle_beta 90.000000
_cell_angle_gamma 90.000000
_cell_volume 3593.636122
_symmetry_space_group_name_H-M "C C C A"
_symmetry_group_IT_number 68
_space_group.IT_coordinate_system_code '2'
_symmetry_cell_setting 'orthorhombic'
loop_
_space_group_symop_operation_xyz
x,y,z
-x,1/2-y,z
x,1/2-y,1/2-z
-x,y,1/2-z
-x,-y,-z
x,1/2+y,-z
-x,1/2+y,1/2+z
x,-y,1/2+z
1/2+x,1/2+y,z
1/2-x,-y,z
1/2+x,-y,1/2-z
1/2-x,1/2+y,1/2-z
1/2-x,1/2-y,-z
1/2+x,y,-z
1/2-x,y,1/2+z
1/2+x,1/2-y,1/2+z
loop_
_atom_site_type_symbol
_atom_site_label
_atom_site_fract_x
_atom_site_fract_y
_atom_site_fract_z
Si Si1 0.511965 0.955413 0.843276
Si Si2 0.750000 0.000000 0.017681
Si Si3 0.697804 0.846448 0.181802
Si Si4 0.963382 0.577276 0.567199
Si Si5 0.000000 0.567998 0.750000
Si Si6 0.189790 0.172762 0.143986
O O1 0.327442 0.910492 0.841390
O O2 0.661258 0.889642 0.844494
O O3 0.542606 0.010731 0.890055
O O4 0.523739 0.008498 0.795129
O O5 0.660338 0.931648 0.050545
O O6 0.868986 0.951776 0.980594
O O7 0.665763 0.875867 0.236711
O O8 0.753132 0.758524 0.164055
O O9 0.497063 0.843696 0.166963
O O10 0.869355 0.656227 0.588468
#
# Coordination Sequence:
#
# PCOD9508481 Si02
#       6
#    16   8  16  16   8  16
#     4  12  25  46  72 104 141 187 243 290 349 419
#     4  10  22  38  74 114 138 176 252 298 364 406
#     4  11  27  44  68 100 147 187 230 287 355 424
#     4  11  21  42  72 109 138 184 237 303 345 431
#     4  12  28  45  69 110 134 192 238 288 345 432
#     4  11  24  46  69 101 142 187 231 285 366 410
#
# _framework density 22.261575000000001
#
# number of rings (size 3 to 8) (size 9 to 14) (size 15 to 20)
#    0.000    0.800    4.000    2.400    5.600    1.600 
#    0.000    1.000    0.000   21.600    0.000    0.000 
#    0.000    0.000    0.000    0.000    0.000    0.000 
#
# Total GULP energy -222867.352370 kJ/mol
# GULP energy per Si atom -5571.683809 kJ/mol
# Density = 2.221091 g / cm^3
# Si number density = 22.261575 Si / 1000 Ang^3
#
#
#
# Elastic Constant Matrix: (Units=GPa)
#
#
# Indices 1 2 3 4 5 6 
#
# 1 81.9385 36.6318 41.0876 0.0000 0.0000 0.0000
# 2 36.6318 147.2447 64.7286 0.0000 0.0000 0.0000
# 3 41.0876 64.7286 126.4656 0.0000 0.0000 0.0000
# 4 0.0000 0.0000 0.0000 20.8467 0.0000 0.0000
# 5 0.0000 0.0000 0.0000 0.0000 18.7539 0.0000
# 6 0.0000 0.0000 0.0000 0.0000 0.0000 25.0016
#
#
#
# Elastic Compliance Matrix: (Units=1/GPa)
#
#
# Indices 1 2 3 4 5 6 
#
# 1 0.015047 -0.002057 -0.003836 0.000000 0.000000 0.000000
# 2 -0.002057 0.009044 -0.003961 0.000000 0.000000 0.000000
# 3 -0.003836 -0.003961 0.011181 0.000000 0.000000 0.000000
# 4 0.000000 0.000000 0.000000 0.047969 0.000000 0.000000
# 5 0.000000 0.000000 0.000000 0.000000 0.053322 0.000000
# 6 0.000000 0.000000 0.000000 0.000000 0.000000 0.039997
#
#
# Mechanical properties :
#
#
# Convention : Reuss Voigt Hill
#
# Bulk Modulus (GPa) = 64.24743 71.17164 67.70954
# Shear Modulus (GPa) = 24.81912 27.13382 25.97647
#
# Velocity S-wave (km/s) = 3.34261 3.49501 3.41966
# Velocity P-wave (km/s) = 6.61969 6.95175 6.78775
#
# Compressibility (1/GPa) = 0.01556482
#
# Stress axis : x y z
#
# Youngs Moduli (GPa) = 66.45630 110.56582 89.43956
#
# Poissons Ratio (x) = 0.22747 0.34307
# Poissons Ratio (y) = 0.13672 0.35425
# Poissons Ratio (z) = 0.25491 0.43792
#
# Static dielectric constant tensor:
#      x y z
#    x 1.918240 0.000000 0.000000 
#    y 0.000000 1.900580 0.000000 
#    z 0.000000 0.000000 1.948260 
# 
# From -- ./inp_files/49189.got.cif
#   From: 2010.05.17/outbox.cif.g08.bks.cpg/sg68_25_cif.got.tgz:49189.got - 2010.06.03 18:57:09.
