data_PCOD9508419
_publ_section_title
;
Structure prediction by ZEFSAII (Michael W. Deem and Ramdas Pophale) SiO2 
 PCOD9508419
Probable space group: C C C A
;
_chemical_formula_sum "Si O2"
_cell_formula_units_Z 104
_cell_length_a 27.984596
_cell_length_b 9.115097
_cell_length_c 20.282744
_cell_angle_alpha 90.000000
_cell_angle_beta 90.000000
_cell_angle_gamma 90.000000
_cell_volume 5173.769133
_symmetry_space_group_name_H-M "C C C A"
_symmetry_group_IT_number 68
_space_group.IT_coordinate_system_code '2'
_symmetry_cell_setting 'orthorhombic'
loop_
_space_group_symop_operation_xyz
x,y,z
-x,1/2-y,z
x,1/2-y,1/2-z
-x,y,1/2-z
-x,-y,-z
x,1/2+y,-z
-x,1/2+y,1/2+z
x,-y,1/2+z
1/2+x,1/2+y,z
1/2-x,-y,z
1/2+x,-y,1/2-z
1/2-x,1/2+y,1/2-z
1/2-x,1/2-y,-z
1/2+x,y,-z
1/2-x,y,1/2+z
1/2+x,1/2-y,1/2+z
loop_
_atom_site_type_symbol
_atom_site_label
_atom_site_fract_x
_atom_site_fract_y
_atom_site_fract_z
Si Si1 0.750000 0.000000 0.169994
Si Si2 0.071079 0.474395 0.428582
Si Si3 0.507635 0.926297 0.174241
Si Si4 0.750000 0.000000 0.452714
Si Si5 0.578254 0.624177 0.439328
Si Si6 0.199423 0.250000 0.750000
Si Si7 0.163351 0.352521 0.882820
Si Si8 0.174905 0.039226 0.937208
O O1 0.733099 0.134666 0.213394
O O2 0.706253 0.969813 0.121138
O O3 0.074128 0.299533 0.440019
O O4 0.054762 0.555069 0.495374
O O5 0.122436 0.535774 0.404814
O O6 0.033293 0.497500 0.370487
O O7 0.500000 0.750000 0.176060
O O8 0.500000 0.976538 0.250000
O O9 0.555819 0.937917 0.129273
O O10 0.716375 0.102128 0.408192
O O11 0.789268 0.070004 0.502057
O O12 0.632651 0.573254 0.449163
O O13 0.167640 0.331534 0.804591
O O14 0.153387 0.193471 0.914072
#
# Coordination Sequence:
#
# PCOD9508419 Si02
#       8
#     8  16  16   8  16   8  16  16
#     4   9  21  38  56  82 123 163 208 252 314 363
#     4  11  23  39  66  95 125 167 207 260 321 376
#     4   9  21  42  65  92 126 167 213 259 312 384
#     4  11  21  36  64  88 121 163 210 256 310 373
#     4  11  22  40  65  95 128 161 210 263 318 375
#     4  10  22  40  56  84 127 170 205 260 306 380
#     4  11  23  38  60  89 126 164 210 257 313 373
#     4  10  22  38  59  90 124 158 206 266 306 364
#
# _framework density 20.101399000000001
#
# number of rings (size 3 to 8) (size 9 to 14) (size 15 to 20)
#    0.000    1.692    1.538    2.308    0.000    7.385 
#    0.000    3.846    0.000    3.692    0.000    0.000 
#    0.000    0.000    0.000    0.000    0.000    0.000 
#
# Total GULP energy -290134.432163 kJ/mol
# GULP energy per Si atom -5579.508311 kJ/mol
# Density = 2.005565 g / cm^3
# Si number density = 20.101399 Si / 1000 Ang^3
#
#
#
# Elastic Constant Matrix: (Units=GPa)
#
#
# Indices 1 2 3 4 5 6 
#
# 1 85.6864 25.9675 45.7476 0.0000 0.0000 0.0000
# 2 25.9675 61.6240 38.7553 0.0000 0.0000 0.0000
# 3 45.7476 38.7553 164.4169 0.0000 0.0000 0.0000
# 4 0.0000 0.0000 0.0000 28.6260 0.0000 0.0000
# 5 0.0000 0.0000 0.0000 0.0000 13.5158 0.0000
# 6 0.0000 0.0000 0.0000 0.0000 0.0000 2.4172
#
#
#
# Elastic Compliance Matrix: (Units=1/GPa)
#
#
# Indices 1 2 3 4 5 6 
#
# 1 0.014585 -0.004219 -0.003064 0.000000 0.000000 0.000000
# 2 -0.004219 0.020272 -0.003604 0.000000 0.000000 0.000000
# 3 -0.003064 -0.003604 0.007784 0.000000 0.000000 0.000000
# 4 0.000000 0.000000 0.000000 0.034933 0.000000 0.000000
# 5 0.000000 0.000000 0.000000 0.000000 0.073988 0.000000
# 6 0.000000 0.000000 0.000000 0.000000 0.000000 0.413695
#
#
# Mechanical properties :
#
#
# Convention : Reuss Voigt Hill
#
# Bulk Modulus (GPa) = 47.92331 59.18534 53.55433
# Shear Modulus (GPa) = 8.41770 22.32892 15.37331
#
# Velocity S-wave (km/s) = 2.04859 3.33650 2.76848
# Velocity P-wave (km/s) = 5.43030 6.65960 6.07612
#
# Compressibility (1/GPa) = 0.02086667
#
# Stress axis : x y z
#
# Youngs Moduli (GPa) = 68.56491 49.32863 128.46641
#
# Poissons Ratio (x) = 0.20812 0.39357
# Poissons Ratio (y) = 0.28928 0.46306
# Poissons Ratio (z) = 0.21005 0.17780
#
# Static dielectric constant tensor:
#      x y z
#    x 1.719680 0.000000 0.000000 
#    y 0.000000 1.695550 0.000000 
#    z 0.000000 0.000000 1.769730 
# 
# From -- ./inp_files/41365.got.cif
#   From: 2010.05.17/outbox.cif.g08.bks.cpg/sg68_21_cif.got.tgz:41365.got - 2010.06.03 18:57:09.
