data_PCOD9508660
_publ_section_title
;
Structure prediction by ZEFSAII (Michael W. Deem and Ramdas Pophale) SiO2 
 PCOD9508660
Probable space group: C C C A
;
_chemical_formula_sum "Si O2"
_cell_formula_units_Z 64
_cell_length_a 5.111131
_cell_length_b 18.996230
_cell_length_c 31.095821
_cell_angle_alpha 90.000000
_cell_angle_beta 90.000000
_cell_angle_gamma 90.000000
_cell_volume 3019.162295
_symmetry_space_group_name_H-M "C C C A"
_symmetry_group_IT_number 68
_space_group.IT_coordinate_system_code '2'
_symmetry_cell_setting 'orthorhombic'
loop_
_space_group_symop_operation_xyz
x,y,z
-x,1/2-y,z
x,1/2-y,1/2-z
-x,y,1/2-z
-x,-y,-z
x,1/2+y,-z
-x,1/2+y,1/2+z
x,-y,1/2+z
1/2+x,1/2+y,z
1/2-x,-y,z
1/2+x,-y,1/2-z
1/2-x,1/2+y,1/2-z
1/2-x,1/2-y,-z
1/2+x,y,-z
1/2-x,y,1/2+z
1/2+x,1/2-y,1/2+z
loop_
_atom_site_type_symbol
_atom_site_label
_atom_site_fract_x
_atom_site_fract_y
_atom_site_fract_z
Si Si1 0.250000 0.500000 0.088659
Si Si2 0.475729 0.602857 0.970109
Si Si3 0.000000 0.449937 0.250000
Si Si4 0.914882 0.926559 0.844741
Si Si5 0.765556 0.703687 0.102848
O O1 0.480117 0.466173 0.059803
O O2 0.355257 0.559256 0.120912
O O3 0.383521 0.667083 0.940123
O O4 0.258242 0.603747 0.007147
O O5 0.750000 0.500000 0.251926
O O6 0.995241 0.411308 0.204247
O O7 0.775547 0.859750 0.864320
O O8 0.750000 0.000000 0.844429
O O9 0.500000 0.750000 0.096000
O O10 0.000000 0.750000 0.120442
#
# Coordination Sequence:
#
# PCOD9508660 Si02
#       5
#     8  16   8  16  16
#     4  12  22  42  70 106 138 180 228 298 348 410
#     4  12  26  43  67  99 137 182 236 294 344 404
#     4  10  22  40  71 114 139 168 226 292 338 404
#     4  11  23  44  75 103 142 178 233 282 344 413
#     4  12  27  46  69 101 142 188 230 282 351 417
#
# _framework density 21.197932000000002
#
# number of rings (size 3 to 8) (size 9 to 14) (size 15 to 20)
#    0.000    0.500    3.750    5.250    0.000    3.000 
#    0.000    0.625    0.000    4.500    0.000    0.000 
#    0.000    0.000    0.000    0.000    0.000    0.000 
#
# Total GULP energy -178759.888618 kJ/mol
# GULP energy per Si atom -5586.246519 kJ/mol
# Density = 2.114968 g / cm^3
# Si number density = 21.197932 Si / 1000 Ang^3
#
#
#
# Elastic Constant Matrix: (Units=GPa)
#
#
# Indices 1 2 3 4 5 6 
#
# 1 66.6690 55.3427 -73.9564 0.0000 0.0000 0.0000
# 2 55.3427 123.6947 55.3132 0.0000 0.0000 0.0000
# 3 -73.9564 55.3132 -40.7428 0.0000 0.0000 0.0000
# 4 0.0000 0.0000 0.0000 -2.0237 0.0000 0.0000
# 5 0.0000 0.0000 0.0000 0.0000 46.7228 0.0000
# 6 0.0000 0.0000 0.0000 0.0000 0.0000 48.9930
#
#
#
# Elastic Compliance Matrix: (Units=1/GPa)
#
#
# Indices 1 2 3 4 5 6 
#
# 1 0.005244 0.001189 -0.007905 0.000000 0.000000 0.000000
# 2 0.001189 0.005300 0.005038 0.000000 0.000000 0.000000
# 3 -0.007905 0.005038 -0.003356 0.000000 0.000000 0.000000
# 4 0.000000 0.000000 0.000000 -0.494152 0.000000 0.000000
# 5 0.000000 0.000000 0.000000 0.000000 0.021403 0.000000
# 6 0.000000 0.000000 0.000000 0.000000 0.000000 0.020411
#
#
# Mechanical properties :
#
#
# Convention : Reuss Voigt Hill
#
# Bulk Modulus (GPa) = 261.07496 24.78000 142.92748
# Shear Modulus (GPa) = -11.35030 26.26652 7.45811
#
# Velocity S-wave (km/s) = -2.31648 3.52392 1.87775
# Velocity P-wave (km/s) = 10.78301 5.31719 8.50134
#
# Compressibility (1/GPa) = 0.00383032
#
# Stress axis : x y z
#
# Youngs Moduli (GPa) = 190.69989 188.68238 -297.95165
#
# Poissons Ratio (x) = -0.22428 -2.35526
# Poissons Ratio (y) = -0.22668 1.50095
# Poissons Ratio (z) = 1.50745 -0.95050
#
# Static dielectric constant tensor:
#      x y z
#    x 1.807750 0.000000 0.000000 
#    y 0.000000 1.764720 0.000000 
#    z 0.000000 0.000000 1.806600 
# 
# From -- ./inp_files/52934.got.cif
#   From: 2010.05.17/outbox.cif.g08.bks.cpg/sg68_27_cif.got.tgz:52934.got - 2010.06.03 18:57:09.
