data_PCOD9508267
_publ_section_title
;
Structure prediction by ZEFSAII (Michael W. Deem and Ramdas Pophale) SiO2 
 PCOD9508267
Probable space group: C C C A
;
_chemical_formula_sum "Si O2"
_cell_formula_units_Z 72
_cell_length_a 8.567821
_cell_length_b 17.611803
_cell_length_c 23.991049
_cell_angle_alpha 90.000000
_cell_angle_beta 90.000000
_cell_angle_gamma 90.000000
_cell_volume 3620.123955
_symmetry_space_group_name_H-M "C C C A"
_symmetry_group_IT_number 68
_space_group.IT_coordinate_system_code '2'
_symmetry_cell_setting 'orthorhombic'
loop_
_space_group_symop_operation_xyz
x,y,z
-x,1/2-y,z
x,1/2-y,1/2-z
-x,y,1/2-z
-x,-y,-z
x,1/2+y,-z
-x,1/2+y,1/2+z
x,-y,1/2+z
1/2+x,1/2+y,z
1/2-x,-y,z
1/2+x,-y,1/2-z
1/2-x,1/2+y,1/2-z
1/2-x,1/2-y,-z
1/2+x,y,-z
1/2-x,y,1/2+z
1/2+x,1/2-y,1/2+z
loop_
_atom_site_type_symbol
_atom_site_label
_atom_site_fract_x
_atom_site_fract_y
_atom_site_fract_z
Si Si1 0.254171 0.750767 0.812091
Si Si2 0.000000 0.750000 0.407211
Si Si3 0.486368 0.378572 0.810984
Si Si4 0.019269 0.555599 0.928747
Si Si5 0.138961 0.104555 0.533069
O O1 0.325776 0.750000 0.750000
O O2 0.362896 0.770457 0.863767
O O3 0.117834 0.813287 0.810361
O O4 0.174811 0.668005 0.819133
O O5 0.063093 0.681693 0.445102
O O6 0.500000 0.415811 0.750000
O O7 0.507229 0.431441 0.863849
O O8 0.045076 0.467054 0.941323
O O9 0.181600 0.595464 0.948435
O O10 0.884492 0.591908 0.967008
#
# Coordination Sequence:
#
# PCOD9508267 Si02
#       5
#    16   8  16  16  16
#     4   9  19  34  56  86 121 152 187 242 294 341
#     4  12  21  36  56  94 111 152 194 246 290 352
#     4   9  18  37  63  82 110 159 198 234 285 352
#     4  10  21  44  57  85 118 157 193 243 290 361
#     4  10  24  37  63  81 122 154 189 242 307 334
#
# _framework density 19.888822000000001
#
# number of rings (size 3 to 8) (size 9 to 14) (size 15 to 20)
#    0.000    2.222    2.222    1.667    3.111    2.667 
#    0.000    2.222    0.000    0.000    0.000    0.000 
#    0.000    0.000    0.000    0.000    0.000    0.000 
#
# Total GULP energy -200879.807748 kJ/mol
# GULP energy per Si atom -5579.994660 kJ/mol
# Density = 1.984355 g / cm^3
# Si number density = 19.888822 Si / 1000 Ang^3
#
#
#
# Elastic Constant Matrix: (Units=GPa)
#
#
# Indices 1 2 3 4 5 6 
#
# 1 48.3006 5.2554 10.4173 0.0000 0.0000 0.0000
# 2 5.2554 67.7235 28.0718 0.0000 0.0000 0.0000
# 3 10.4173 28.0718 146.3597 0.0000 0.0000 0.0000
# 4 0.0000 0.0000 0.0000 25.6842 0.0000 0.0000
# 5 0.0000 0.0000 0.0000 0.0000 23.2719 0.0000
# 6 0.0000 0.0000 0.0000 0.0000 0.0000 14.1303
#
#
#
# Elastic Compliance Matrix: (Units=1/GPa)
#
#
# Indices 1 2 3 4 5 6 
#
# 1 0.021102 -0.001103 -0.001290 0.000000 0.000000 0.000000
# 2 -0.001103 0.016099 -0.003009 0.000000 0.000000 0.000000
# 3 -0.001290 -0.003009 0.007502 0.000000 0.000000 0.000000
# 4 0.000000 0.000000 0.000000 0.038934 0.000000 0.000000
# 5 0.000000 0.000000 0.000000 0.000000 0.042970 0.000000
# 6 0.000000 0.000000 0.000000 0.000000 0.000000 0.070770
#
#
# Mechanical properties :
#
#
# Convention : Reuss Voigt Hill
#
# Bulk Modulus (GPa) = 29.50060 38.87475 34.18768
# Shear Modulus (GPa) = 22.78104 27.19324 24.98714
#
# Velocity S-wave (km/s) = 3.38808 3.70166 3.54834
# Velocity P-wave (km/s) = 5.49276 6.15290 5.83218
#
# Compressibility (1/GPa) = 0.03389761
#
# Stress axis : x y z
#
# Youngs Moduli (GPa) = 47.38892 62.11621 133.30647
#
# Poissons Ratio (x) = 0.06849 0.17203
# Poissons Ratio (y) = 0.05225 0.40116
# Poissons Ratio (z) = 0.06115 0.18692
#
# Static dielectric constant tensor:
#      x y z
#    x 1.736580 0.000000 0.000000 
#    y 0.000000 1.667150 0.000000 
#    z 0.000000 0.000000 1.715410 
# 
# From -- ./inp_files/40083.got.cif
#   From: 2010.05.17/outbox.cif.g08.bks.cpg/sg68_21_cif.got.tgz:40083.got - 2010.06.03 18:57:09.
