data_PCOD9508946
_publ_section_title
;
Structure prediction by ZEFSAII (Michael W. Deem and Ramdas Pophale) SiO2 
 PCOD9508946
Probable space group: C C C A
;
_chemical_formula_sum "Si O2"
_cell_formula_units_Z 120
_cell_length_a 20.732405
_cell_length_b 22.576966
_cell_length_c 12.759466
_cell_angle_alpha 90.000000
_cell_angle_beta 90.000000
_cell_angle_gamma 90.000000
_cell_volume 5972.384532
_symmetry_space_group_name_H-M "C C C A"
_symmetry_group_IT_number 68
_space_group.IT_coordinate_system_code '2'
_symmetry_cell_setting 'orthorhombic'
loop_
_space_group_symop_operation_xyz
x,y,z
-x,1/2-y,z
x,1/2-y,1/2-z
-x,y,1/2-z
-x,-y,-z
x,1/2+y,-z
-x,1/2+y,1/2+z
x,-y,1/2+z
1/2+x,1/2+y,z
1/2-x,-y,z
1/2+x,-y,1/2-z
1/2-x,1/2+y,1/2-z
1/2-x,1/2-y,-z
1/2+x,y,-z
1/2-x,y,1/2+z
1/2+x,1/2-y,1/2+z
loop_
_atom_site_type_symbol
_atom_site_label
_atom_site_fract_x
_atom_site_fract_y
_atom_site_fract_z
Si Si1 0.445574 0.648757 0.840008
Si Si2 0.683081 0.886219 0.330975
Si Si3 0.692341 0.321078 0.255280
Si Si4 0.208947 0.089418 0.932803
Si Si5 0.470379 0.562480 0.030732
Si Si6 0.662928 0.034338 0.638838
Si Si7 0.547035 0.837828 0.347096
Si Si8 0.000000 0.750000 0.484072
O O1 0.500000 0.643398 0.750000
O O2 0.375407 0.655740 0.789928
O O3 0.460059 0.707083 0.909038
O O4 0.451510 0.595958 0.923554
O O5 0.747505 0.849405 0.306909
O O6 0.683112 0.905368 0.450852
O O7 0.678550 0.942700 0.254867
O O8 0.619394 0.847771 0.308824
O O9 0.693786 0.250000 0.250000
O O10 0.699937 0.349382 0.370984
O O11 0.283422 0.068326 0.931297
O O12 0.172833 0.035683 0.873653
O O13 0.407316 0.552898 0.101418
O O14 0.519836 0.602859 0.096885
O O15 0.500000 0.500000 0.000000
O O16 0.500000 0.823742 0.250000
O O17 0.543575 0.788685 0.437698
#
# Coordination Sequence:
#
# PCOD9508946 Si02
#       8
#    16  16  16  16  16  16  16   8
#     4  11  25  44  68  96 139 174 223 280 340 401
#     4  11  24  44  68  98 136 175 226 284 335 399
#     4  11  26  44  67 100 134 178 231 280 337 404
#     4  10  24  41  70  97 136 180 224 273 346 403
#     4  11  24  41  66 100 135 176 226 280 338 406
#     4  10  22  44  65  98 139 176 223 274 340 408
#     4  11  23  42  66  96 132 174 228 278 337 398
#     4  10  24  42  68  92 130 184 220 276 334 402
#
# _framework density 20.092476999999999
#
# number of rings (size 3 to 8) (size 9 to 14) (size 15 to 20)
#    0.000    1.333    1.333    2.800    7.467    8.533 
#    2.400    0.000    0.000    0.000    0.000    0.000 
#    0.000    0.000    0.000    0.000    0.000    0.000 
#
# Total GULP energy -335546.939453 kJ/mol
# GULP energy per Si atom -5592.448991 kJ/mol
# Density = 2.004675 g / cm^3
# Si number density = 20.092477 Si / 1000 Ang^3
#
#
#
# Elastic Constant Matrix: (Units=GPa)
#
#
# Indices 1 2 3 4 5 6 
#
# 1 129.0010 41.4068 32.8857 0.0000 0.0000 0.0000
# 2 41.4068 127.7617 47.5400 0.0000 0.0000 0.0000
# 3 32.8857 47.5400 88.9851 0.0000 0.0000 0.0000
# 4 0.0000 0.0000 0.0000 16.6201 0.0000 0.0000
# 5 0.0000 0.0000 0.0000 0.0000 5.1502 0.0000
# 6 0.0000 0.0000 0.0000 0.0000 0.0000 8.4996
#
#
#
# Elastic Compliance Matrix: (Units=1/GPa)
#
#
# Indices 1 2 3 4 5 6 
#
# 1 0.008985 -0.002092 -0.002203 0.000000 0.000000 0.000000
# 2 -0.002092 0.010256 -0.004706 0.000000 0.000000 0.000000
# 3 -0.002203 -0.004706 0.014566 0.000000 0.000000 0.000000
# 4 0.000000 0.000000 0.000000 0.060168 0.000000 0.000000
# 5 0.000000 0.000000 0.000000 0.000000 0.194168 0.000000
# 6 0.000000 0.000000 0.000000 0.000000 0.000000 0.117652
#
#
# Mechanical properties :
#
#
# Convention : Reuss Voigt Hill
#
# Bulk Modulus (GPa) = 63.27097 65.49033 64.38065
# Shear Modulus (GPa) = 11.65321 20.98167 16.31744
#
# Velocity S-wave (km/s) = 2.41089 3.23500 2.85286
# Velocity P-wave (km/s) = 6.26962 6.82780 6.55465
#
# Compressibility (1/GPa) = 0.01580504
#
# Stress axis : x y z
#
# Youngs Moduli (GPa) = 111.29642 97.50055 68.65244
#
# Poissons Ratio (x) = 0.20401 0.15122
# Poissons Ratio (y) = 0.23287 0.32309
# Poissons Ratio (z) = 0.24515 0.45885
#
# Static dielectric constant tensor:
#      x y z
#    x 1.704910 0.000000 0.000000 
#    y 0.000000 1.703450 0.000000 
#    z 0.000000 0.000000 1.691410 
# 
# From -- ./inp_files/15810.got.cif
#   From: 2010.05.17/outbox.cif.g08.bks.cpg/sg68_8_cif.got.tgz:15810.got - 2010.06.03 18:57:09.
