data_PCOD9508599
_publ_section_title
;
Structure prediction by ZEFSAII (Michael W. Deem and Ramdas Pophale) SiO2 
 PCOD9508599
Probable space group: C C C A
;
_chemical_formula_sum "Si O2"
_cell_formula_units_Z 92
_cell_length_a 27.515240
_cell_length_b 9.057306
_cell_length_c 17.596241
_cell_angle_alpha 90.000000
_cell_angle_beta 90.000000
_cell_angle_gamma 90.000000
_cell_volume 4385.228696
_symmetry_space_group_name_H-M "C C C A"
_symmetry_group_IT_number 68
_space_group.IT_coordinate_system_code '2'
_symmetry_cell_setting 'orthorhombic'
loop_
_space_group_symop_operation_xyz
x,y,z
-x,1/2-y,z
x,1/2-y,1/2-z
-x,y,1/2-z
-x,-y,-z
x,1/2+y,-z
-x,1/2+y,1/2+z
x,-y,1/2+z
1/2+x,1/2+y,z
1/2-x,-y,z
1/2+x,-y,1/2-z
1/2-x,1/2+y,1/2-z
1/2-x,1/2-y,-z
1/2+x,y,-z
1/2-x,y,1/2+z
1/2+x,1/2-y,1/2+z
loop_
_atom_site_type_symbol
_atom_site_label
_atom_site_fract_x
_atom_site_fract_y
_atom_site_fract_z
Si Si1 0.934935 0.985239 0.332430
Si Si2 0.443372 0.782349 0.032385
Si Si3 0.286820 0.374053 0.476137
Si Si4 0.612341 0.750000 0.250000
Si Si5 0.500000 0.250000 0.250000
Si Si6 0.627085 0.734907 0.886742
Si Si7 0.864028 0.411834 0.388713
O O1 0.975886 0.870381 0.306784
O O2 0.891214 0.870153 0.337662
O O3 0.940920 0.072697 0.412747
O O4 0.922543 0.114256 0.273120
O O5 0.500000 0.750000 0.018643
O O6 0.414814 0.649696 0.076057
O O7 0.411551 0.793794 0.955876
O O8 0.250000 0.500000 0.448507
O O9 0.250000 0.250000 0.500000
O O10 0.322772 0.295726 0.418411
O O11 0.322825 0.420140 0.545985
O O12 0.644776 0.705693 0.322083
O O13 0.631665 0.573183 0.852464
#
# Coordination Sequence:
#
# PCOD9508599 Si02
#       7
#    16  16  16   8   4  16  16
#     4  11  26  41  64  92 131 178 221 273 310 400
#     4  10  23  38  63  93 133 168 210 272 338 372
#     4  11  22  40  72 102 129 164 210 272 341 399
#     4  10  24  45  64  81 134 178 217 260 327 376
#     4  12  28  42  64  94 128 190 242 246 320 394
#     4  11  23  41  65 102 130 160 222 277 337 384
#     4  10  22  40  64  94 127 172 212 263 318 397
#
# _framework density 20.979521999999999
#
# number of rings (size 3 to 8) (size 9 to 14) (size 15 to 20)
#    0.000    1.391    1.739    3.130   13.391    1.391 
#    0.000    0.000    3.826    0.000    0.000    0.000 
#    0.000    0.000    0.000    0.000    0.000    0.000 
#
# Total GULP energy -256471.235915 kJ/mol
# GULP energy per Si atom -5575.461650 kJ/mol
# Density = 2.093177 g / cm^3
# Si number density = 20.979522 Si / 1000 Ang^3
#
#
#
# Elastic Constant Matrix: (Units=GPa)
#
#
# Indices 1 2 3 4 5 6 
#
# 1 108.9699 39.3639 11.9834 0.0000 0.0000 0.0000
# 2 39.3639 165.2195 17.5767 0.0000 0.0000 0.0000
# 3 11.9834 17.5767 39.5320 0.0000 0.0000 0.0000
# 4 0.0000 0.0000 0.0000 9.4341 0.0000 0.0000
# 5 0.0000 0.0000 0.0000 0.0000 2.5422 0.0000
# 6 0.0000 0.0000 0.0000 0.0000 0.0000 12.0996
#
#
#
# Elastic Compliance Matrix: (Units=1/GPa)
#
#
# Indices 1 2 3 4 5 6 
#
# 1 0.010206 -0.002207 -0.002113 0.000000 0.000000 0.000000
# 2 -0.002207 0.006830 -0.002368 0.000000 0.000000 0.000000
# 3 -0.002113 -0.002368 0.026989 0.000000 0.000000 0.000000
# 4 0.000000 0.000000 0.000000 0.105998 0.000000 0.000000
# 5 0.000000 0.000000 0.000000 0.000000 0.393363 0.000000
# 6 0.000000 0.000000 0.000000 0.000000 0.000000 0.082647
#
#
# Mechanical properties :
#
#
# Convention : Reuss Voigt Hill
#
# Bulk Modulus (GPa) = 32.62545 50.17438 41.39991
# Shear Modulus (GPa) = 7.69673 21.13501 14.41587
#
# Velocity S-wave (km/s) = 1.91746 3.17742 2.62418
# Velocity P-wave (km/s) = 4.52626 6.11793 5.38127
#
# Compressibility (1/GPa) = 0.03065091
#
# Stress axis : x y z
#
# Youngs Moduli (GPa) = 97.97771 146.40716 37.05194
#
# Poissons Ratio (x) = 0.32311 0.07828
# Poissons Ratio (y) = 0.21623 0.08773
# Poissons Ratio (z) = 0.20699 0.34667
#
# Static dielectric constant tensor:
#      x y z
#    x 1.694220 0.000000 0.000000 
#    y 0.000000 1.721550 0.000000 
#    z 0.000000 0.000000 1.765410 
# 
# From -- ./inp_files/41285.got.cif
#   From: 2010.05.17/outbox.cif.g08.bks.cpg/sg68_21_cif.got.tgz:41285.got - 2010.06.03 18:57:09.
