data_PCOD9508204
_publ_section_title
;
Structure prediction by ZEFSAII (Michael W. Deem and Ramdas Pophale) SiO2 
 PCOD9508204
Probable space group: C C C A
;
_chemical_formula_sum "Si O2"
_cell_formula_units_Z 40
_cell_length_a 20.106759
_cell_length_b 15.366198
_cell_length_c 5.049549
_cell_angle_alpha 90.000000
_cell_angle_beta 90.000000
_cell_angle_gamma 90.000000
_cell_volume 1560.131079
_symmetry_space_group_name_H-M "C C C A"
_symmetry_group_IT_number 68
_space_group.IT_coordinate_system_code '2'
_symmetry_cell_setting 'orthorhombic'
loop_
_space_group_symop_operation_xyz
x,y,z
-x,1/2-y,z
x,1/2-y,1/2-z
-x,y,1/2-z
-x,-y,-z
x,1/2+y,-z
-x,1/2+y,1/2+z
x,-y,1/2+z
1/2+x,1/2+y,z
1/2-x,-y,z
1/2+x,-y,1/2-z
1/2-x,1/2+y,1/2-z
1/2-x,1/2-y,-z
1/2+x,y,-z
1/2-x,y,1/2+z
1/2+x,1/2-y,1/2+z
loop_
_atom_site_type_symbol
_atom_site_label
_atom_site_fract_x
_atom_site_fract_y
_atom_site_fract_z
Si Si1 0.500000 0.932963 0.250000
Si Si2 0.887190 0.194050 0.006058
Si Si3 0.323713 0.463673 0.255843
O O1 0.555286 0.864128 0.138545
O O2 0.500000 0.000000 0.500000
O O3 0.859580 0.250000 0.250000
O O4 0.910278 0.250000 0.750000
O O5 0.831699 0.129618 0.883126
O O6 0.355784 0.529253 0.468319
O O7 0.250000 0.500000 0.202231
#
# Coordination Sequence:
#
# PCOD9508204 Si02
#       3
#     8  16  16
#     4  12  25  44  71  98 134 190 238 282 353 438
#     4  12  25  43  68 104 142 179 232 304 360 411
#     4  10  21  42  67  94 134 184 233 280 343 431
#
# _framework density 25.638871999999999
#
# number of rings (size 3 to 8) (size 9 to 14) (size 15 to 20)
#    0.000    0.800    0.000    7.800    0.000    1.600 
#    0.000   24.000    0.000    0.000    0.000    0.000 
#    0.000    0.000    0.000    0.000    0.000    0.000 
#
# Total GULP energy -111611.197467 kJ/mol
# GULP energy per Si atom -5580.559873 kJ/mol
# Density = 2.558052 g / cm^3
# Si number density = 25.638872 Si / 1000 Ang^3
#
#
#
# Elastic Constant Matrix: (Units=GPa)
#
#
# Indices 1 2 3 4 5 6 
#
# 1 107.4274 47.4555 15.0131 0.0000 0.0000 0.0000
# 2 47.4555 139.1595 65.0935 0.0000 0.0000 0.0000
# 3 15.0131 65.0935 246.7055 0.0000 0.0000 0.0000
# 4 0.0000 0.0000 0.0000 83.7943 0.0000 0.0000
# 5 0.0000 0.0000 0.0000 0.0000 10.2156 0.0000
# 6 0.0000 0.0000 0.0000 0.0000 0.0000 24.5824
#
#
#
# Elastic Compliance Matrix: (Units=1/GPa)
#
#
# Indices 1 2 3 4 5 6 
#
# 1 0.010988 -0.003918 0.000365 0.000000 0.000000 0.000000
# 2 -0.003918 0.009595 -0.002293 0.000000 0.000000 0.000000
# 3 0.000365 -0.002293 0.004636 0.000000 0.000000 0.000000
# 4 0.000000 0.000000 0.000000 0.011934 0.000000 0.000000
# 5 0.000000 0.000000 0.000000 0.000000 0.097889 0.000000
# 6 0.000000 0.000000 0.000000 0.000000 0.000000 0.040680
#
#
# Mechanical properties :
#
#
# Convention : Reuss Voigt Hill
#
# Bulk Modulus (GPa) = 73.92493 83.15739 78.54116
# Shear Modulus (GPa) = 26.05211 48.10049 37.07630
#
# Velocity S-wave (km/s) = 3.19112 4.33607 3.80688
# Velocity P-wave (km/s) = 6.51716 7.58770 7.07271
#
# Compressibility (1/GPa) = 0.01352724
#
# Stress axis : x y z
#
# Youngs Moduli (GPa) = 91.00561 104.22389 215.69159
#
# Poissons Ratio (x) = 0.40834 -0.07874
# Poissons Ratio (y) = 0.35656 0.49461
# Poissons Ratio (z) = -0.03322 0.23900
#
# Static dielectric constant tensor:
#      x y z
#    x 2.408770 0.000000 0.000000 
#    y 0.000000 2.046980 0.000000 
#    z 0.000000 0.000000 2.135330 
# 
# From -- ./inp_files/2134.got.cif
#   From: 2010.05.17/outbox.cif.g08.bks.cpg/sg68_2_cif.got.tgz:2134.got - 2010.06.03 18:57:09.
