data_PCOD9508676
_publ_section_title
;
Structure prediction by ZEFSAII (Michael W. Deem and Ramdas Pophale) SiO2 
 PCOD9508676
Probable space group: C C C A
;
_chemical_formula_sum "Si O2"
_cell_formula_units_Z 108
_cell_length_a 30.667577
_cell_length_b 27.858422
_cell_length_c 5.157396
_cell_angle_alpha 90.000000
_cell_angle_beta 90.000000
_cell_angle_gamma 90.000000
_cell_volume 4406.222829
_symmetry_space_group_name_H-M "C C C A"
_symmetry_group_IT_number 68
_space_group.IT_coordinate_system_code '2'
_symmetry_cell_setting 'orthorhombic'
loop_
_space_group_symop_operation_xyz
x,y,z
-x,1/2-y,z
x,1/2-y,1/2-z
-x,y,1/2-z
-x,-y,-z
x,1/2+y,-z
-x,1/2+y,1/2+z
x,-y,1/2+z
1/2+x,1/2+y,z
1/2-x,-y,z
1/2+x,-y,1/2-z
1/2-x,1/2+y,1/2-z
1/2-x,1/2-y,-z
1/2+x,y,-z
1/2-x,y,1/2+z
1/2+x,1/2-y,1/2+z
loop_
_atom_site_type_symbol
_atom_site_label
_atom_site_fract_x
_atom_site_fract_y
_atom_site_fract_z
Si Si1 0.917816 0.750000 0.250000
Si Si2 0.038556 0.565462 0.041596
Si Si3 0.812443 0.529949 0.865697
Si Si4 0.222680 0.635010 0.538005
Si Si5 0.500000 0.750000 0.250000
Si Si6 0.052811 0.326691 0.413227
Si Si7 0.590421 0.064572 0.524809
Si Si8 0.874717 0.670326 0.912768
O O1 0.951259 0.712180 0.370094
O O2 0.886579 0.781598 0.435894
O O3 0.078775 0.552150 0.228868
O O4 0.000000 0.551832 0.250000
O O5 0.033691 0.622450 0.988080
O O6 0.053067 0.551575 0.743464
O O7 0.803257 0.510508 0.579803
O O8 0.786901 0.578131 0.935809
O O9 0.863762 0.543330 0.886850
O O10 0.243443 0.647262 0.263279
O O11 0.175864 0.659369 0.575987
O O12 0.534357 0.794145 0.177889
O O13 0.105249 0.328578 0.376259
O O14 0.597562 0.122481 0.503182
#
# Coordination Sequence:
#
# PCOD9508676 Si02
#       8
#     8  16  16  16   4  16  16  16
#     4  12  20  41  62  87 124 186 227 280 324 391
#     4  11  23  37  60  88 130 175 229 276 325 383
#     4  11  23  42  74 105 134 166 204 261 340 419
#     4  11  26  45  72 103 138 170 214 274 329 403
#     4  12  24  38  52  98 138 168 232 304 358 356
#     4  11  25  36  59  89 136 174 226 288 339 392
#     4  10  22  41  61  92 129 174 220 266 328 405
#     4  10  23  42  62  89 130 183 225 268 341 390
#
# _framework density 24.510791000000001
#
# number of rings (size 3 to 8) (size 9 to 14) (size 15 to 20)
#    0.000    1.185    2.963    2.222    8.296    4.148 
#    0.000    0.741    0.000    8.889    0.000    0.000 
#    0.000    0.000    0.000    0.000    0.000    0.000 
#
# Total GULP energy -300944.367166 kJ/mol
# GULP energy per Si atom -5573.043836 kJ/mol
# Density = 2.445500 g / cm^3
# Si number density = 24.510791 Si / 1000 Ang^3
#
#
#
# Elastic Constant Matrix: (Units=GPa)
#
#
# Indices 1 2 3 4 5 6 
#
# 1 97.6885 16.6936 0.2881 0.0000 0.0000 0.0000
# 2 16.6936 99.9745 0.1518 0.0000 0.0000 0.0000
# 3 0.2881 0.1518 98.2502 0.0000 0.0000 0.0000
# 4 0.0000 0.0000 0.0000 -35.0129 0.0000 0.0000
# 5 0.0000 0.0000 0.0000 0.0000 131.4559 0.0000
# 6 0.0000 0.0000 0.0000 0.0000 0.0000 -135.1350
#
#
#
# Elastic Compliance Matrix: (Units=1/GPa)
#
#
# Indices 1 2 3 4 5 6 
#
# 1 0.010537 -0.001759 -0.000028 0.000000 0.000000 0.000000
# 2 -0.001759 0.010296 -0.000011 0.000000 0.000000 0.000000
# 3 -0.000028 -0.000011 0.010178 0.000000 0.000000 0.000000
# 4 0.000000 0.000000 0.000000 -0.028561 0.000000 0.000000
# 5 0.000000 0.000000 0.000000 0.000000 0.007607 0.000000
# 6 0.000000 0.000000 0.000000 0.000000 0.000000 -0.007400
#
#
# Mechanical properties :
#
#
# Convention : Reuss Voigt Hill
#
# Bulk Modulus (GPa) = 36.47624 36.68671 36.58147
# Shear Modulus (GPa) = 324.81612 10.84690 167.83151
#
# Velocity S-wave (km/s) = 11.52421 2.10594 8.28379
# Velocity P-wave (km/s) = 13.85606 4.57311 10.31755
#
# Compressibility (1/GPa) = 0.02741511
#
# Stress axis : x y z
#
# Youngs Moduli (GPa) = 94.90035 97.12173 98.24923
#
# Poissons Ratio (x) = 0.17088 0.00277
# Poissons Ratio (y) = 0.16697 0.00106
# Poissons Ratio (z) = 0.00267 0.00104
#
# Static dielectric constant tensor:
#      x y z
#    x 2.066120 0.000000 0.000000 
#    y 0.000000 1.855370 0.000000 
#    z 0.000000 0.000000 3.399890 
# 
# From -- ./inp_files/2982.got.cif
#   From: 2010.05.17/outbox.cif.g08.bks.cpg/sg68_2_cif.got.tgz:2982.got - 2010.06.03 18:57:09.
