data_PCOD9508362
_publ_section_title
;
Structure prediction by ZEFSAII (Michael W. Deem and Ramdas Pophale) SiO2 
 PCOD9508362
Probable space group: C C C A
;
_chemical_formula_sum "Si O2"
_cell_formula_units_Z 60
_cell_length_a 7.374272
_cell_length_b 26.304757
_cell_length_c 13.672887
_cell_angle_alpha 90.000000
_cell_angle_beta 90.000000
_cell_angle_gamma 90.000000
_cell_volume 2652.245195
_symmetry_space_group_name_H-M "C C C A"
_symmetry_group_IT_number 68
_space_group.IT_coordinate_system_code '2'
_symmetry_cell_setting 'orthorhombic'
loop_
_space_group_symop_operation_xyz
x,y,z
-x,1/2-y,z
x,1/2-y,1/2-z
-x,y,1/2-z
-x,-y,-z
x,1/2+y,-z
-x,1/2+y,1/2+z
x,-y,1/2+z
1/2+x,1/2+y,z
1/2-x,-y,z
1/2+x,-y,1/2-z
1/2-x,1/2+y,1/2-z
1/2-x,1/2-y,-z
1/2+x,y,-z
1/2-x,y,1/2+z
1/2+x,1/2-y,1/2+z
loop_
_atom_site_type_symbol
_atom_site_label
_atom_site_fract_x
_atom_site_fract_y
_atom_site_fract_z
Si Si1 0.268056 0.913040 0.581161
Si Si2 0.692773 0.174381 0.285941
Si Si3 0.750000 0.000000 0.785528
Si Si4 0.150319 0.410782 0.140633
Si Si5 0.000000 0.250000 0.250000
O O1 0.354718 0.861462 0.621631
O O2 0.351590 0.961973 0.637855
O O3 0.263733 0.918216 0.465650
O O4 0.061726 0.906880 0.617307
O O5 0.500000 0.195454 0.250000
O O6 0.770436 0.137067 0.200256
O O7 0.855563 0.213956 0.306644
O O8 0.826021 0.959221 0.709468
#
# Coordination Sequence:
#
# PCOD9508362 Si02
#       5
#    16  16   8  16   4
#     4  11  23  41  64  95 139 175 223 276 324 400
#     4  11  23  43  72  97 132 176 217 276 346 392
#     4  10  22  36  62  96 134 186 222 264 328 390
#     4  11  23  41  64  95 139 175 223 276 324 400
#     4  12  22  48  72  98 132 166 226 292 328 412
#
# _framework density 22.622343000000001
#
# number of rings (size 3 to 8) (size 9 to 14) (size 15 to 20)
#    0.000    1.067    2.667    5.200    0.000   14.933 
#    0.000    1.333    0.000    0.000    0.000    0.000 
#    0.000    0.000    0.000    0.000    0.000    0.000 
#
# Total GULP energy -167409.857784 kJ/mol
# GULP energy per Si atom -5580.328593 kJ/mol
# Density = 2.257085 g / cm^3
# Si number density = 22.622343 Si / 1000 Ang^3
#
#
#
# Elastic Constant Matrix: (Units=GPa)
#
#
# Indices 1 2 3 4 5 6 
#
# 1 114.3256 33.5405 20.7583 0.0000 0.0000 0.0000
# 2 33.5405 132.1402 49.2758 0.0000 0.0000 0.0000
# 3 20.7583 49.2758 175.7793 0.0000 0.0000 0.0000
# 4 0.0000 0.0000 0.0000 -5.6720 0.0000 0.0000
# 5 0.0000 0.0000 0.0000 0.0000 34.5381 0.0000
# 6 0.0000 0.0000 0.0000 0.0000 0.0000 29.4275
#
#
#
# Elastic Compliance Matrix: (Units=1/GPa)
#
#
# Indices 1 2 3 4 5 6 
#
# 1 0.009489 -0.002223 -0.000497 0.000000 0.000000 0.000000
# 2 -0.002223 0.008972 -0.002253 0.000000 0.000000 0.000000
# 3 -0.000497 -0.002253 0.006379 0.000000 0.000000 0.000000
# 4 0.000000 0.000000 0.000000 -0.176305 0.000000 0.000000
# 5 0.000000 0.000000 0.000000 0.000000 0.028954 0.000000
# 6 0.000000 0.000000 0.000000 0.000000 0.000000 0.033982
#
#
# Mechanical properties :
#
#
# Convention : Reuss Voigt Hill
#
# Bulk Modulus (GPa) = 67.13968 69.93272 68.53620
# Shear Modulus (GPa) = -67.91806 32.90342 -17.50732
#
# Velocity S-wave (km/s) = -5.48523 3.81788 -2.78491
# Velocity P-wave (km/s) = 3.22088 7.10037 4.47444
#
# Compressibility (1/GPa) = 0.01489432
#
# Stress axis : x y z
#
# Youngs Moduli (GPa) = 105.37968 111.45776 156.76074
#
# Poissons Ratio (x) = 0.24779 0.07798
# Poissons Ratio (y) = 0.23428 0.35311
# Poissons Ratio (z) = 0.05242 0.25107
#
# Static dielectric constant tensor:
#      x y z
#    x 1.959680 0.000000 0.000000 
#    y 0.000000 1.872590 0.000000 
#    z 0.000000 0.000000 1.828100 
# 
# From -- ./inp_files/7704.got.cif
#   From: 2010.05.17/outbox.cif.g08.bks.cpg/sg68_4_cif.got.tgz:7704.got - 2010.06.03 18:57:09.
