data_PCOD9508414
_publ_section_title
;
Structure prediction by ZEFSAII (Michael W. Deem and Ramdas Pophale) SiO2 
 PCOD9508414
Probable space group: C C C A
;
_chemical_formula_sum "Si O2"
_cell_formula_units_Z 104
_cell_length_a 21.390229
_cell_length_b 26.682471
_cell_length_c 8.194349
_cell_angle_alpha 90.000000
_cell_angle_beta 90.000000
_cell_angle_gamma 90.000000
_cell_volume 4676.876878
_symmetry_space_group_name_H-M "C C C A"
_symmetry_group_IT_number 68
_space_group.IT_coordinate_system_code '2'
_symmetry_cell_setting 'orthorhombic'
loop_
_space_group_symop_operation_xyz
x,y,z
-x,1/2-y,z
x,1/2-y,1/2-z
-x,y,1/2-z
-x,-y,-z
x,1/2+y,-z
-x,1/2+y,1/2+z
x,-y,1/2+z
1/2+x,1/2+y,z
1/2-x,-y,z
1/2+x,-y,1/2-z
1/2-x,1/2+y,1/2-z
1/2-x,1/2-y,-z
1/2+x,y,-z
1/2-x,y,1/2+z
1/2+x,1/2-y,1/2+z
loop_
_atom_site_type_symbol
_atom_site_label
_atom_site_fract_x
_atom_site_fract_y
_atom_site_fract_z
Si Si1 0.938360 0.139749 0.693321
Si Si2 0.095841 0.456361 0.861522
Si Si3 0.816070 0.192973 0.806508
Si Si4 0.000000 0.962944 0.750000
Si Si5 0.320392 0.308563 0.696067
Si Si6 0.321137 0.480955 0.051034
Si Si7 0.605167 0.101317 0.851408
O O1 0.935711 0.095970 0.828710
O O2 0.873603 0.168293 0.714652
O O3 0.935008 0.115521 0.513712
O O4 0.000000 0.169609 0.750000
O O5 0.139027 0.469602 0.011384
O O6 0.147130 0.461133 0.715641
O O7 0.040251 0.497442 0.858059
O O8 0.814945 0.250000 0.750000
O O9 0.748467 0.173334 0.752364
O O10 0.823767 0.189067 0.000545
O O11 0.057008 0.924276 0.774608
O O12 0.329008 0.250000 0.750000
O O13 0.366960 0.347885 0.778653
O O14 0.250000 0.500000 0.058421
O O15 0.341474 0.438555 0.915868
#
# Coordination Sequence:
#
# PCOD9508414 Si02
#       7
#    16  16  16   8  16  16  16
#     4  11  24  39  64  95 135 178 228 270 325 395
#     4  10  22  38  62  87 126 178 218 272 323 388
#     4  11  24  44  73 101 132 171 213 273 337 402
#     4  10  22  42  65  88 131 174 236 262 332 384
#     4  11  23  46  74 100 135 166 215 273 340 403
#     4  10  22  38  58  91 131 167 222 275 328 384
#     4  10  24  40  63  98 132 176 228 275 327 400
#
# _framework density 22.237061000000001
#
# number of rings (size 3 to 8) (size 9 to 14) (size 15 to 20)
#    0.000    1.538    0.769    4.154    6.462    3.385 
#    2.769    0.385    0.000    0.000    0.000    0.000 
#    0.000    0.000    0.000    0.000    0.000    0.000 
#
# Total GULP energy -290028.863393 kJ/mol
# GULP energy per Si atom -5577.478142 kJ/mol
# Density = 2.218645 g / cm^3
# Si number density = 22.237061 Si / 1000 Ang^3
#
#
#
# Elastic Constant Matrix: (Units=GPa)
#
#
# Indices 1 2 3 4 5 6 
#
# 1 162.6481 46.7034 26.2139 0.0000 0.0000 0.0000
# 2 46.7034 52.9388 -0.0805 0.0000 0.0000 0.0000
# 3 26.2139 -0.0805 67.3714 0.0000 0.0000 0.0000
# 4 0.0000 0.0000 0.0000 23.9287 0.0000 0.0000
# 5 0.0000 0.0000 0.0000 0.0000 44.0699 0.0000
# 6 0.0000 0.0000 0.0000 0.0000 0.0000 29.7061
#
#
#
# Elastic Compliance Matrix: (Units=1/GPa)
#
#
# Indices 1 2 3 4 5 6 
#
# 1 0.008994 -0.007940 -0.003509 0.000000 0.000000 0.000000
# 2 -0.007940 0.025899 0.003120 0.000000 0.000000 0.000000
# 3 -0.003509 0.003120 0.016212 0.000000 0.000000 0.000000
# 4 0.000000 0.000000 0.000000 0.041791 0.000000 0.000000
# 5 0.000000 0.000000 0.000000 0.000000 0.022691 0.000000
# 6 0.000000 0.000000 0.000000 0.000000 0.000000 0.033663
#
#
# Mechanical properties :
#
#
# Convention : Reuss Voigt Hill
#
# Bulk Modulus (GPa) = 29.02917 47.62577 38.32747
# Shear Modulus (GPa) = 28.18667 33.54905 30.86786
#
# Velocity S-wave (km/s) = 3.56413 3.88841 3.72980
# Velocity P-wave (km/s) = 5.47907 6.45162 5.98513
#
# Compressibility (1/GPa) = 0.03444811
#
# Stress axis : x y z
#
# Youngs Moduli (GPa) = 111.19063 38.61168 61.68234
#
# Poissons Ratio (x) = 0.30656 0.21643
# Poissons Ratio (y) = 0.88281 -0.19246
# Poissons Ratio (z) = 0.39015 -0.12048
#
# Static dielectric constant tensor:
#      x y z
#    x 6.561290 0.000000 0.000000 
#    y 0.000000 1.820890 0.000000 
#    z 0.000000 0.000000 1.869960 
# 
# From -- ./inp_files/7375.got.cif
#   From: 2010.05.17/outbox.cif.g08.bks.cpg/sg68_4_cif.got.tgz:7375.got - 2010.06.03 18:57:09.
