data_PCOD9508348
_publ_section_title
;
Structure prediction by ZEFSAII (Michael W. Deem and Ramdas Pophale) SiO2 
 PCOD9508348
Probable space group: C C C A
;
_chemical_formula_sum "Si O2"
_cell_formula_units_Z 96
_cell_length_a 15.358826
_cell_length_b 26.502918
_cell_length_c 11.177383
_cell_angle_alpha 90.000000
_cell_angle_beta 90.000000
_cell_angle_gamma 90.000000
_cell_volume 4549.795174
_symmetry_space_group_name_H-M "C C C A"
_symmetry_group_IT_number 68
_space_group.IT_coordinate_system_code '2'
_symmetry_cell_setting 'orthorhombic'
loop_
_space_group_symop_operation_xyz
x,y,z
-x,1/2-y,z
x,1/2-y,1/2-z
-x,y,1/2-z
-x,-y,-z
x,1/2+y,-z
-x,1/2+y,1/2+z
x,-y,1/2+z
1/2+x,1/2+y,z
1/2-x,-y,z
1/2+x,-y,1/2-z
1/2-x,1/2+y,1/2-z
1/2-x,1/2-y,-z
1/2+x,y,-z
1/2-x,y,1/2+z
1/2+x,1/2-y,1/2+z
loop_
_atom_site_type_symbol
_atom_site_label
_atom_site_fract_x
_atom_site_fract_y
_atom_site_fract_z
Si Si1 0.500000 0.487582 0.750000
Si Si2 0.494625 0.807332 0.546984
Si Si3 0.645488 0.807424 0.746474
Si Si4 0.270003 0.401850 0.717245
Si Si5 0.551317 0.399831 0.912773
Si Si6 0.750000 0.000000 0.053843
Si Si7 0.640627 0.954095 0.877050
O O1 0.504971 0.449302 0.860963
O O2 0.416033 0.522844 0.769868
O O3 0.500000 0.750000 0.501254
O O4 0.572579 0.812265 0.642905
O O5 0.406584 0.813145 0.627628
O O6 0.499067 0.848631 0.442404
O O7 0.680187 0.750000 0.750000
O O8 0.716245 0.849909 0.716489
O O9 0.369913 0.391051 0.682226
O O10 0.249637 0.448024 0.626296
O O11 0.230283 0.427778 0.836197
O O12 0.585645 0.415825 0.043716
O O13 0.833783 0.002763 0.969785
#
# Coordination Sequence:
#
# PCOD9508348 Si02
#       7
#     8  16  16  16  16   8  16
#     4  12  26  38  59  92 125 164 222 250 312 390
#     4   9  19  40  66  93 122 158 212 266 321 373
#     4   9  19  38  68  94 117 160 217 268 306 381
#     4  11  22  39  62  90 128 162 215 257 313 383
#     4  11  24  40  60  94 127 163 204 263 323 371
#     4  10  22  36  56  88 126 170 196 262 326 352
#     4  11  22  39  60  82 127 167 214 251 307 381
#
# _framework density 21.09985
#
# number of rings (size 3 to 8) (size 9 to 14) (size 15 to 20)
#    0.000    1.667    1.667    5.000    4.667    0.000 
#    0.000    5.417    0.000    0.000    0.000    0.000 
#    0.000    0.000    0.000    0.000    0.000    0.000 
#
# Total GULP energy -267414.261224 kJ/mol
# GULP energy per Si atom -5571.130442 kJ/mol
# Density = 2.105183 g / cm^3
# Si number density = 21.099850 Si / 1000 Ang^3
#
#
#
# Elastic Constant Matrix: (Units=GPa)
#
#
# Indices 1 2 3 4 5 6 
#
# 1 45.4109 42.0329 5.4151 0.0000 0.0000 0.0000
# 2 42.0329 131.3658 32.7782 0.0000 0.0000 0.0000
# 3 5.4151 32.7782 56.1647 0.0000 0.0000 0.0000
# 4 0.0000 0.0000 0.0000 30.8585 0.0000 0.0000
# 5 0.0000 0.0000 0.0000 0.0000 24.7536 0.0000
# 6 0.0000 0.0000 0.0000 0.0000 0.0000 33.5753
#
#
#
# Elastic Compliance Matrix: (Units=1/GPa)
#
#
# Indices 1 2 3 4 5 6 
#
# 1 0.031821 -0.011021 0.003364 0.000000 0.000000 0.000000
# 2 -0.011021 0.012727 -0.006365 0.000000 0.000000 0.000000
# 3 0.003364 -0.006365 0.021195 0.000000 0.000000 0.000000
# 4 0.000000 0.000000 0.000000 0.032406 0.000000 0.000000
# 5 0.000000 0.000000 0.000000 0.000000 0.040398 0.000000
# 6 0.000000 0.000000 0.000000 0.000000 0.000000 0.029784
#
#
# Mechanical properties :
#
#
# Convention : Reuss Voigt Hill
#
# Bulk Modulus (GPa) = 26.52583 43.71042 35.11812
# Shear Modulus (GPa) = 23.93008 28.01848 25.97428
#
# Velocity S-wave (km/s) = 3.37135 3.64799 3.51239
# Velocity P-wave (km/s) = 5.26816 6.20522 5.75579
#
# Compressibility (1/GPa) = 0.03769911
#
# Stress axis : x y z
#
# Youngs Moduli (GPa) = 31.42543 78.57357 47.18076
#
# Poissons Ratio (x) = 0.86597 -0.15872
# Poissons Ratio (y) = 0.34635 0.30030
# Poissons Ratio (z) = -0.10572 0.50012
#
# Static dielectric constant tensor:
#      x y z
#    x 1.810560 0.000000 0.000000 
#    y 0.000000 1.828810 0.000000 
#    z 0.000000 0.000000 1.814050 
# 
# From -- ./inp_files/14757.got.cif
#   From: 2010.05.17/outbox.cif.g08.bks.cpg/sg68_8_cif.got.tgz:14757.got - 2010.06.03 18:57:09.
