data_PCOD9508794
_publ_section_title
;
Structure prediction by ZEFSAII (Michael W. Deem and Ramdas Pophale) SiO2 
 PCOD9508794
Probable space group: C C C A
;
_chemical_formula_sum "Si O2"
_cell_formula_units_Z 104
_cell_length_a 14.913944
_cell_length_b 18.254253
_cell_length_c 18.725614
_cell_angle_alpha 90.000000
_cell_angle_beta 90.000000
_cell_angle_gamma 90.000000
_cell_volume 5097.915591
_symmetry_space_group_name_H-M "C C C A"
_symmetry_group_IT_number 68
_space_group.IT_coordinate_system_code '2'
_symmetry_cell_setting 'orthorhombic'
loop_
_space_group_symop_operation_xyz
x,y,z
-x,1/2-y,z
x,1/2-y,1/2-z
-x,y,1/2-z
-x,-y,-z
x,1/2+y,-z
-x,1/2+y,1/2+z
x,-y,1/2+z
1/2+x,1/2+y,z
1/2-x,-y,z
1/2+x,-y,1/2-z
1/2-x,1/2+y,1/2-z
1/2-x,1/2-y,-z
1/2+x,y,-z
1/2-x,y,1/2+z
1/2+x,1/2-y,1/2+z
loop_
_atom_site_type_symbol
_atom_site_label
_atom_site_fract_x
_atom_site_fract_y
_atom_site_fract_z
Si Si1 0.543535 0.669293 0.983991
Si Si2 0.622052 0.578368 0.562699
Si Si3 0.267671 0.586186 0.805805
Si Si4 0.318387 0.179313 0.799841
Si Si5 0.249185 0.327093 0.040712
Si Si6 0.500000 0.398969 0.750000
Si Si7 0.594307 0.419135 0.611912
O O1 0.500000 0.750000 0.975916
O O2 0.473928 0.611932 0.952157
O O3 0.643909 0.658007 0.953290
O O4 0.549856 0.645013 0.066769
O O5 0.648920 0.599451 0.643635
O O6 0.693194 0.613388 0.506411
O O7 0.617686 0.489905 0.564035
O O8 0.250000 0.500000 0.797967
O O9 0.256910 0.623708 0.730527
O O10 0.185046 0.612682 0.854956
O O11 0.307174 0.250000 0.750000
O O12 0.299990 0.185123 0.883653
O O13 0.416824 0.147815 0.780801
O O14 0.250000 0.250000 0.000000
O O15 0.536629 0.442128 0.681130
#
# Coordination Sequence:
#
# PCOD9508794 Si02
#       7
#    16  16  16  16  16   8  16
#     4  12  25  39  67  99 133 176 229 283 342 407
#     4  11  22  44  69  92 137 176 219 279 340 410
#     4   9  20  42  65  89 131 174 207 268 341 390
#     4  11  24  41  67  97 131 172 228 283 334 408
#     4  12  25  44  68 100 136 177 229 287 344 407
#     4  10  23  40  68 106 129 172 232 284 351 410
#     4  10  22  42  66 100 135 173 220 286 347 398
#
# _framework density 20.400493000000001
#
# number of rings (size 3 to 8) (size 9 to 14) (size 15 to 20)
#    0.000    1.231    3.077    2.538    2.154    0.000 
#   11.077    0.000    0.000    0.000    0.000    0.000 
#    0.000    0.000    0.000    0.000    0.000    0.000 
#
# Total GULP energy -290094.921466 kJ/mol
# GULP energy per Si atom -5578.748490 kJ/mol
# Density = 2.035406 g / cm^3
# Si number density = 20.400493 Si / 1000 Ang^3
#
#
#
# Elastic Constant Matrix: (Units=GPa)
#
#
# Indices 1 2 3 4 5 6 
#
# 1 110.9182 21.9942 30.5813 0.0000 0.0000 0.0000
# 2 21.9942 53.0726 49.0515 0.0000 0.0000 0.0000
# 3 30.5813 49.0515 121.9307 0.0000 0.0000 0.0000
# 4 0.0000 0.0000 0.0000 21.8402 0.0000 0.0000
# 5 0.0000 0.0000 0.0000 0.0000 29.5099 0.0000
# 6 0.0000 0.0000 0.0000 0.0000 0.0000 19.8239
#
#
#
# Elastic Compliance Matrix: (Units=1/GPa)
#
#
# Indices 1 2 3 4 5 6 
#
# 1 0.009957 -0.002894 -0.001333 0.000000 0.000000 0.000000
# 2 -0.002894 0.030836 -0.011679 0.000000 0.000000 0.000000
# 3 -0.001333 -0.011679 0.013234 0.000000 0.000000 0.000000
# 4 0.000000 0.000000 0.000000 0.045787 0.000000 0.000000
# 5 0.000000 0.000000 0.000000 0.000000 0.033887 0.000000
# 6 0.000000 0.000000 0.000000 0.000000 0.000000 0.050444
#
#
# Mechanical properties :
#
#
# Convention : Reuss Voigt Hill
#
# Bulk Modulus (GPa) = 45.01634 54.35285 49.68459
# Shear Modulus (GPa) = 22.38517 26.52111 24.45314
#
# Velocity S-wave (km/s) = 3.31612 3.60949 3.46591
# Velocity P-wave (km/s) = 6.06436 6.63868 6.35800
#
# Compressibility (1/GPa) = 0.02221416
#
# Stress axis : x y z
#
# Youngs Moduli (GPa) = 100.43082 32.42997 75.56293
#
# Poissons Ratio (x) = 0.09387 0.10072
# Poissons Ratio (y) = 0.29069 0.88249
# Poissons Ratio (z) = 0.13387 0.37875
#
# Static dielectric constant tensor:
#      x y z
#    x 1.787480 0.000000 0.000000 
#    y 0.000000 1.748430 0.000000 
#    z 0.000000 0.000000 1.743820 
# 
# From -- ./inp_files/31094.got.cif
#   From: 2010.05.17/outbox.cif.g08.bks.cpg/sg68_16_cif.got.tgz:31094.got - 2010.06.03 18:57:09.
