data_PCOD9508869
_publ_section_title
;
Structure prediction by ZEFSAII (Michael W. Deem and Ramdas Pophale) SiO2 
 PCOD9508869
Probable space group: C C C A
;
_chemical_formula_sum "Si O2"
_cell_formula_units_Z 80
_cell_length_a 14.045680
_cell_length_b 25.391290
_cell_length_c 11.373429
_cell_angle_alpha 90.000000
_cell_angle_beta 90.000000
_cell_angle_gamma 90.000000
_cell_volume 4056.196223
_symmetry_space_group_name_H-M "C C C A"
_symmetry_group_IT_number 68
_space_group.IT_coordinate_system_code '2'
_symmetry_cell_setting 'orthorhombic'
loop_
_space_group_symop_operation_xyz
x,y,z
-x,1/2-y,z
x,1/2-y,1/2-z
-x,y,1/2-z
-x,-y,-z
x,1/2+y,-z
-x,1/2+y,1/2+z
x,-y,1/2+z
1/2+x,1/2+y,z
1/2-x,-y,z
1/2+x,-y,1/2-z
1/2-x,1/2+y,1/2-z
1/2-x,1/2-y,-z
1/2+x,y,-z
1/2-x,y,1/2+z
1/2+x,1/2-y,1/2+z
loop_
_atom_site_type_symbol
_atom_site_label
_atom_site_fract_x
_atom_site_fract_y
_atom_site_fract_z
Si Si1 0.122360 0.376649 0.660596
Si Si2 0.000000 0.250000 0.448395
Si Si3 0.340543 0.398356 0.621278
Si Si4 0.500000 0.335017 0.750000
Si Si5 0.444206 0.996937 0.872028
Si Si6 0.568710 0.664164 0.584722
O O1 0.233233 0.378842 0.633175
O O2 0.088693 0.437318 0.650749
O O3 0.105964 0.349279 0.786621
O O4 0.045071 0.346288 0.582189
O O5 0.974138 0.203144 0.358320
O O6 0.921451 0.277207 0.532702
O O7 0.409982 0.370757 0.716125
O O8 0.358645 0.460783 0.623327
O O9 0.380612 0.377086 0.498911
O O10 0.500000 0.010851 0.750000
O O11 0.500000 0.000000 0.000000
#
# Coordination Sequence:
#
# PCOD9508869 Si02
#       6
#    16   8  16   8  16  16
#     4  11  23  40  62  95 129 165 210 254 319 386
#     4   9  20  41  66  86 126 171 203 280 326 364
#     4  11  22  39  67  90 127 170 205 265 313 375
#     4   9  20  40  62  96 122 160 224 259 324 382
#     4  12  22  41  64  95 133 170 211 257 318 384
#     4  10  22  43  61  89 129 161 216 263 316 380
#
# _framework density 19.722912000000001
#
# number of rings (size 3 to 8) (size 9 to 14) (size 15 to 20)
#    0.000    1.400    5.000    0.600    0.000    6.400 
#    0.000   17.000    0.000    0.000    0.000    0.000 
#    0.000    0.000    0.000    0.000    0.000    0.000 
#
# Total GULP energy -222765.094177 kJ/mol
# GULP energy per Si atom -5569.127354 kJ/mol
# Density = 1.967802 g / cm^3
# Si number density = 19.722912 Si / 1000 Ang^3
#
#
#
# Elastic Constant Matrix: (Units=GPa)
#
#
# Indices 1 2 3 4 5 6 
#
# 1 127.8833 5.4072 47.9950 0.0000 0.0000 0.0000
# 2 5.4072 87.6129 35.3707 0.0000 0.0000 0.0000
# 3 47.9950 35.3707 141.0484 0.0000 0.0000 0.0000
# 4 0.0000 0.0000 0.0000 10.4000 0.0000 0.0000
# 5 0.0000 0.0000 0.0000 0.0000 8.6446 0.0000
# 6 0.0000 0.0000 0.0000 0.0000 0.0000 -2.2874
#
#
#
# Elastic Compliance Matrix: (Units=1/GPa)
#
#
# Indices 1 2 3 4 5 6 
#
# 1 0.009009 0.000758 -0.003256 0.000000 0.000000 0.000000
# 2 0.000758 0.012763 -0.003459 0.000000 0.000000 0.000000
# 3 -0.003256 -0.003459 0.009065 0.000000 0.000000 0.000000
# 4 0.000000 0.000000 0.000000 0.096153 0.000000 0.000000
# 5 0.000000 0.000000 0.000000 0.000000 0.115679 0.000000
# 6 0.000000 0.000000 0.000000 0.000000 0.000000 -0.437172
#
#
# Mechanical properties :
#
#
# Convention : Reuss Voigt Hill
#
# Bulk Modulus (GPa) = 52.83883 59.34338 56.09110
# Shear Modulus (GPa) = -28.36393 21.20289 -3.58052
#
# Velocity S-wave (km/s) = -3.79637 3.28233 -1.34883
# Velocity P-wave (km/s) = 2.76264 6.67224 5.10642
#
# Compressibility (1/GPa) = 0.01892548
#
# Stress axis : x y z
#
# Youngs Moduli (GPa) = 110.99395 78.34910 110.31440
#
# Poissons Ratio (x) = -0.05942 0.35917
# Poissons Ratio (y) = -0.08418 0.38155
# Poissons Ratio (z) = 0.36138 0.27099
#
# Static dielectric constant tensor:
#      x y z
#    x 1.679150 0.000000 0.000000 
#    y 0.000000 1.721050 0.000000 
#    z 0.000000 0.000000 1.744760 
# 
# From -- ./inp_files/13424.got.cif
#   From: 2010.05.17/outbox.cif.g08.bks.cpg/sg68_7_cif.got.tgz:13424.got - 2010.06.03 18:57:09.
