data_PCOD9508175
_publ_section_title
;
Structure prediction by ZEFSAII (Michael W. Deem and Ramdas Pophale) SiO2 
 PCOD9508175
Probable space group: C C C A
;
_chemical_formula_sum "Si O2"
_cell_formula_units_Z 80
_cell_length_a 23.989202
_cell_length_b 14.833938
_cell_length_c 10.801867
_cell_angle_alpha 90.000000
_cell_angle_beta 90.000000
_cell_angle_gamma 90.000000
_cell_volume 3843.891200
_symmetry_space_group_name_H-M "C C C A"
_symmetry_group_IT_number 68
_space_group.IT_coordinate_system_code '2'
_symmetry_cell_setting 'orthorhombic'
loop_
_space_group_symop_operation_xyz
x,y,z
-x,1/2-y,z
x,1/2-y,1/2-z
-x,y,1/2-z
-x,-y,-z
x,1/2+y,-z
-x,1/2+y,1/2+z
x,-y,1/2+z
1/2+x,1/2+y,z
1/2-x,-y,z
1/2+x,-y,1/2-z
1/2-x,1/2+y,1/2-z
1/2-x,1/2-y,-z
1/2+x,y,-z
1/2-x,y,1/2+z
1/2+x,1/2-y,1/2+z
loop_
_atom_site_type_symbol
_atom_site_label
_atom_site_fract_x
_atom_site_fract_y
_atom_site_fract_z
Si Si1 0.937443 0.143347 0.274229
Si Si2 0.149956 0.124625 0.022200
Si Si3 0.727145 0.852428 0.257521
Si Si4 0.350998 0.566564 0.077094
Si Si5 0.346073 0.301398 0.362012
O O1 0.937424 0.250000 0.250000
O O2 0.909723 0.130765 0.408774
O O3 0.895850 0.098264 0.177035
O O4 0.000000 0.109927 0.250000
O O5 0.195151 0.102964 0.128372
O O6 0.165205 0.219265 0.957963
O O7 0.149091 0.040147 0.932545
O O8 0.704315 0.750000 0.250000
O O9 0.708734 0.899513 0.130744
O O10 0.791075 0.840754 0.294559
O O11 0.366074 0.616601 0.948151
O O12 0.378618 0.250000 0.250000
#
# Coordination Sequence:
#
# PCOD9508175 Si02
#       5
#    16  16  16  16  16
#     4  10  21  44  75  91 116 171 220 269 338 396
#     4  11  22  40  64  94 125 165 212 274 320 374
#     4  10  21  42  60  81 127 178 215 256 301 373
#     4  11  23  41  62  96 131 163 220 268 315 385
#     4  11  24  39  59  88 133 173 208 261 315 369
#
# _framework density 20.812242999999999
#
# number of rings (size 3 to 8) (size 9 to 14) (size 15 to 20)
#    0.000    1.400    4.000    1.800    8.400    1.600 
#    3.600    0.000    0.000    1.200    0.000    0.000 
#    0.000    0.000    0.000    0.000    0.000    0.000 
#
# Total GULP energy -223298.179241 kJ/mol
# GULP energy per Si atom -5582.454481 kJ/mol
# Density = 2.076487 g / cm^3
# Si number density = 20.812243 Si / 1000 Ang^3
#
#
#
# Elastic Constant Matrix: (Units=GPa)
#
#
# Indices 1 2 3 4 5 6 
#
# 1 82.4416 23.6696 27.5189 0.0000 0.0000 0.0000
# 2 23.6696 84.7008 4.7435 0.0000 0.0000 0.0000
# 3 27.5189 4.7435 76.1779 0.0000 0.0000 0.0000
# 4 0.0000 0.0000 0.0000 39.4656 0.0000 0.0000
# 5 0.0000 0.0000 0.0000 0.0000 1.9802 0.0000
# 6 0.0000 0.0000 0.0000 0.0000 0.0000 16.0209
#
#
#
# Elastic Compliance Matrix: (Units=1/GPa)
#
#
# Indices 1 2 3 4 5 6 
#
# 1 0.014972 -0.003895 -0.005166 0.000000 0.000000 0.000000
# 2 -0.003895 0.012861 0.000606 0.000000 0.000000 0.000000
# 3 -0.005166 0.000606 0.014956 0.000000 0.000000 0.000000
# 4 0.000000 0.000000 0.000000 0.025338 0.000000 0.000000
# 5 0.000000 0.000000 0.000000 0.000000 0.504988 0.000000
# 6 0.000000 0.000000 0.000000 0.000000 0.000000 0.062418
#
#
# Mechanical properties :
#
#
# Convention : Reuss Voigt Hill
#
# Bulk Modulus (GPa) = 38.64098 39.46490 39.05294
# Shear Modulus (GPa) = 7.56349 23.98591 15.77470
#
# Velocity S-wave (km/s) = 1.90841 3.39852 2.75608
# Velocity P-wave (km/s) = 4.84384 5.86544 5.37895
#
# Compressibility (1/GPa) = 0.02587926
#
# Stress axis : x y z
#
# Youngs Moduli (GPa) = 66.78918 77.75626 66.86416
#
# Poissons Ratio (x) = 0.30284 0.34543
# Poissons Ratio (y) = 0.26013 -0.04053
# Poissons Ratio (z) = 0.34505 -0.04713
#
# Static dielectric constant tensor:
#      x y z
#    x 1.773570 0.000000 0.000000 
#    y 0.000000 1.679340 0.000000 
#    z 0.000000 0.000000 1.819200 
# 
# From -- ./inp_files/16209.got.cif
#   From: 2010.05.17/outbox.cif.g08.bks.cpg/sg68_9_cif.got.tgz:16209.got - 2010.06.03 18:57:09.
