data_PCOD9508473
_publ_section_title
;
Structure prediction by ZEFSAII (Michael W. Deem and Ramdas Pophale) SiO2 
 PCOD9508473
Probable space group: C C C A
;
_chemical_formula_sum "Si O2"
_cell_formula_units_Z 68
_cell_length_a 28.178129
_cell_length_b 7.668990
_cell_length_c 15.749185
_cell_angle_alpha 90.000000
_cell_angle_beta 90.000000
_cell_angle_gamma 90.000000
_cell_volume 3403.364065
_symmetry_space_group_name_H-M "C C C A"
_symmetry_group_IT_number 68
_space_group.IT_coordinate_system_code '2'
_symmetry_cell_setting 'orthorhombic'
loop_
_space_group_symop_operation_xyz
x,y,z
-x,1/2-y,z
x,1/2-y,1/2-z
-x,y,1/2-z
-x,-y,-z
x,1/2+y,-z
-x,1/2+y,1/2+z
x,-y,1/2+z
1/2+x,1/2+y,z
1/2-x,-y,z
1/2+x,-y,1/2-z
1/2-x,1/2+y,1/2-z
1/2-x,1/2-y,-z
1/2+x,y,-z
1/2-x,y,1/2+z
1/2+x,1/2-y,1/2+z
loop_
_atom_site_type_symbol
_atom_site_label
_atom_site_fract_x
_atom_site_fract_y
_atom_site_fract_z
Si Si1 0.144197 0.894214 0.682202
Si Si2 0.447125 0.553014 0.892686
Si Si3 0.500000 0.750000 0.750000
Si Si4 0.806521 0.250000 0.750000
Si Si5 0.239136 0.296560 0.402312
Si Si6 0.500000 0.250000 0.976330
O O1 0.126331 0.750000 0.750000
O O2 0.184992 0.791172 0.629742
O O3 0.103375 0.965099 0.620225
O O4 0.164652 0.072430 0.726704
O O5 0.465242 0.634997 0.806291
O O6 0.485465 0.410028 0.919350
O O7 0.455155 0.700419 0.964264
O O8 0.773229 0.208841 0.668085
O O9 0.250000 0.500000 0.395054
O O10 0.250000 0.250000 0.500000
#
# Coordination Sequence:
#
# PCOD9508473 Si02
#       6
#    16  16   4   8  16   8
#     4  11  24  40  67  96 126 174 225 279 324 397
#     4  10  22  41  63  97 123 176 212 271 335 401
#     4  10  22  38  68  94 132 164 220 262 352 392
#     4  10  23  46  58  91 144 167 218 282 329 392
#     4  10  23  39  65  92 128 178 216 270 339 386
#     4   9  22  44  64  85 146 162 210 283 338 398
#
# _framework density 19.980231
#
# number of rings (size 3 to 8) (size 9 to 14) (size 15 to 20)
#    0.000    1.882    1.176    0.706    6.588    3.765 
#    4.235    0.000    0.000    0.000    0.000    0.000 
#    0.000    0.000    0.000    0.000    0.000    0.000 
#
# Total GULP energy -189534.751306 kJ/mol
# GULP energy per Si atom -5574.551509 kJ/mol
# Density = 1.993476 g / cm^3
# Si number density = 19.980231 Si / 1000 Ang^3
#
#
#
# Elastic Constant Matrix: (Units=GPa)
#
#
# Indices 1 2 3 4 5 6 
#
# 1 74.1423 15.6446 28.6102 0.0000 0.0000 0.0000
# 2 15.6446 72.7544 31.2837 0.0000 0.0000 0.0000
# 3 28.6102 31.2837 113.3401 0.0000 0.0000 0.0000
# 4 0.0000 0.0000 0.0000 35.3584 0.0000 0.0000
# 5 0.0000 0.0000 0.0000 0.0000 11.8203 0.0000
# 6 0.0000 0.0000 0.0000 0.0000 0.0000 26.3948
#
#
#
# Elastic Compliance Matrix: (Units=1/GPa)
#
#
# Indices 1 2 3 4 5 6 
#
# 1 0.015155 -0.001831 -0.003320 0.000000 0.000000 0.000000
# 2 -0.001831 0.015817 -0.003904 0.000000 0.000000 0.000000
# 3 -0.003320 -0.003904 0.010739 0.000000 0.000000 0.000000
# 4 0.000000 0.000000 0.000000 0.028282 0.000000 0.000000
# 5 0.000000 0.000000 0.000000 0.000000 0.084601 0.000000
# 6 0.000000 0.000000 0.000000 0.000000 0.000000 0.037886
#
#
# Mechanical properties :
#
#
# Convention : Reuss Voigt Hill
#
# Bulk Modulus (GPa) = 42.37101 45.70152 44.03626
# Shear Modulus (GPa) = 22.88788 27.02791 24.95789
#
# Velocity S-wave (km/s) = 3.38823 3.68194 3.53814
# Velocity P-wave (km/s) = 6.04643 6.40302 6.22728
#
# Compressibility (1/GPa) = 0.02360104
#
# Stress axis : x y z
#
# Youngs Moduli (GPa) = 65.98408 63.22257 93.12252
#
# Poissons Ratio (x) = 0.11577 0.30918
# Poissons Ratio (y) = 0.12083 0.36351
# Poissons Ratio (z) = 0.21908 0.24679
#
# Static dielectric constant tensor:
#      x y z
#    x 1.728210 0.000000 0.000000 
#    y 0.000000 1.739940 0.000000 
#    z 0.000000 0.000000 1.745420 
# 
# From -- ./inp_files/19426.got.cif
#   From: 2010.05.17/outbox.cif.g08.bks.cpg/sg68_10_cif.got.tgz:19426.got - 2010.06.03 18:57:09.
