data_PCOD9508827
_publ_section_title
;
Structure prediction by ZEFSAII (Michael W. Deem and Ramdas Pophale) SiO2 
 PCOD9508827
Probable space group: C C C A
;
_chemical_formula_sum "Si O2"
_cell_formula_units_Z 32
_cell_length_a 8.708640
_cell_length_b 10.420762
_cell_length_c 14.549895
_cell_angle_alpha 90.000000
_cell_angle_beta 90.000000
_cell_angle_gamma 90.000000
_cell_volume 1320.412644
_symmetry_space_group_name_H-M "C C C A"
_symmetry_group_IT_number 68
_space_group.IT_coordinate_system_code '2'
_symmetry_cell_setting 'orthorhombic'
loop_
_space_group_symop_operation_xyz
x,y,z
-x,1/2-y,z
x,1/2-y,1/2-z
-x,y,1/2-z
-x,-y,-z
x,1/2+y,-z
-x,1/2+y,1/2+z
x,-y,1/2+z
1/2+x,1/2+y,z
1/2-x,-y,z
1/2+x,-y,1/2-z
1/2-x,1/2+y,1/2-z
1/2-x,1/2-y,-z
1/2+x,y,-z
1/2-x,y,1/2+z
1/2+x,1/2-y,1/2+z
loop_
_atom_site_type_symbol
_atom_site_label
_atom_site_fract_x
_atom_site_fract_y
_atom_site_fract_z
Si Si1 0.354964 0.628134 0.524266
Si Si2 0.434005 0.991829 0.152050
O O1 0.250000 0.500000 0.533602
O O2 0.250000 0.750000 0.500000
O O3 0.451873 0.607298 0.431235
O O4 0.471137 0.614032 0.610939
O O5 0.500000 0.954939 0.250000
O O6 0.250000 0.000000 0.163360
#
# Coordination Sequence:
#
# PCOD9508827 Si02
#       2
#    16  16
#     4  10  23  46  71  97 138 187 235 292 357 424
#     4  10  22  42  69 105 142 184 236 294 358 430
#
# _framework density 24.234848
#
# number of rings (size 3 to 8) (size 9 to 14) (size 15 to 20)
#    0.000    2.000    0.000    1.500    0.000   20.000 
#    0.000   40.000    0.000    0.000    0.000    0.000 
#    0.000    0.000    0.000    0.000    0.000    0.000 
#
# Total GULP energy -89173.868248 kJ/mol
# GULP energy per Si atom -5573.366766 kJ/mol
# Density = 2.417969 g / cm^3
# Si number density = 24.234848 Si / 1000 Ang^3
#
#
#
# Elastic Constant Matrix: (Units=GPa)
#
#
# Indices 1 2 3 4 5 6 
#
# 1 200.8531 77.2741 61.3676 0.0000 0.0000 0.0000
# 2 77.2741 165.9628 -1.3140 0.0000 0.0000 0.0000
# 3 61.3676 -1.3140 151.7637 0.0000 0.0000 0.0000
# 4 0.0000 0.0000 0.0000 -8.4035 0.0000 0.0000
# 5 0.0000 0.0000 0.0000 0.0000 44.7489 0.0000
# 6 0.0000 0.0000 0.0000 0.0000 0.0000 59.1243
#
#
#
# Elastic Compliance Matrix: (Units=1/GPa)
#
#
# Indices 1 2 3 4 5 6 
#
# 1 0.007165 -0.003359 -0.002927 0.000000 0.000000 0.000000
# 2 -0.003359 0.007601 0.001424 0.000000 0.000000 0.000000
# 3 -0.002927 0.001424 0.007785 0.000000 0.000000 0.000000
# 4 0.000000 0.000000 0.000000 -0.118998 0.000000 0.000000
# 5 0.000000 0.000000 0.000000 0.000000 0.022347 0.000000
# 6 0.000000 0.000000 0.000000 0.000000 0.000000 0.016914
#
#
# Mechanical properties :
#
#
# Convention : Reuss Voigt Hill
#
# Bulk Modulus (GPa) = 77.95581 88.13722 83.04652
# Shear Modulus (GPa) = -115.77615 44.51075 -35.63270
#
# Velocity S-wave (km/s) = -6.91927 4.29026 -3.83862
# Velocity P-wave (km/s) = 5.62125 7.80952 3.83342
#
# Compressibility (1/GPa) = 0.01282778
#
# Stress axis : x y z
#
# Youngs Moduli (GPa) = 139.55980 131.56307 128.45400
#
# Poissons Ratio (x) = 0.44198 0.37592
# Poissons Ratio (y) = 0.46884 -0.18295
# Poissons Ratio (z) = 0.40842 -0.18738
#
# Static dielectric constant tensor:
#      x y z
#    x 1.715230 0.000000 0.000000 
#    y 0.000000 2.084990 0.000000 
#    z 0.000000 0.000000 1.903560 
# 
# From -- ./inp_files/18443.got.cif
#   From: 2010.05.17/outbox.cif.g08.bks.cpg/sg68_10_cif.got.tgz:18443.got - 2010.06.03 18:57:09.
