data_PCOD9508584
_publ_section_title
;
Structure prediction by ZEFSAII (Michael W. Deem and Ramdas Pophale) SiO2 
 PCOD9508584
Probable space group: C C C A
;
_chemical_formula_sum "Si O2"
_cell_formula_units_Z 88
_cell_length_a 5.324145
_cell_length_b 26.450488
_cell_length_c 29.152394
_cell_angle_alpha 90.000000
_cell_angle_beta 90.000000
_cell_angle_gamma 90.000000
_cell_volume 4105.421843
_symmetry_space_group_name_H-M "C C C A"
_symmetry_group_IT_number 68
_space_group.IT_coordinate_system_code '2'
_symmetry_cell_setting 'orthorhombic'
loop_
_space_group_symop_operation_xyz
x,y,z
-x,1/2-y,z
x,1/2-y,1/2-z
-x,y,1/2-z
-x,-y,-z
x,1/2+y,-z
-x,1/2+y,1/2+z
x,-y,1/2+z
1/2+x,1/2+y,z
1/2-x,-y,z
1/2+x,-y,1/2-z
1/2-x,1/2+y,1/2-z
1/2-x,1/2-y,-z
1/2+x,y,-z
1/2-x,y,1/2+z
1/2+x,1/2-y,1/2+z
loop_
_atom_site_type_symbol
_atom_site_label
_atom_site_fract_x
_atom_site_fract_y
_atom_site_fract_z
Si Si1 0.289226 0.605622 0.028515
Si Si2 0.460741 0.806095 0.408286
Si Si3 0.000000 0.659573 0.750000
Si Si4 0.498975 0.529837 0.104204
Si Si5 0.728015 0.876919 0.343130
Si Si6 0.362305 0.196870 0.316567
O O1 0.324503 0.658404 0.055299
O O2 0.366259 0.561867 0.063994
O O3 0.505649 0.602284 0.989704
O O4 0.500000 0.750000 0.427294
O O5 0.688245 0.839629 0.387384
O O6 0.314882 0.798639 0.360741
O O7 0.070356 0.630922 0.796377
O O8 0.226858 0.692909 0.732024
O O9 0.250000 0.500000 0.123584
O O10 0.635969 0.569057 0.138875
O O11 0.750000 0.500000 0.087086
O O12 0.995017 0.856372 0.325585
O O13 0.500000 0.250000 0.317745
#
# Coordination Sequence:
#
# PCOD9508584 Si02
#       6
#    16  16   8  16  16  16
#     4  11  26  43  70 104 137 169 224 290 351 415
#     4  10  22  40  63  93 137 185 229 268 335 417
#     4  10  24  39  60 100 140 170 230 290 337 400
#     4  11  26  46  74  99 130 177 229 285 354 422
#     4  10  23  41  65  94 134 179 226 282 340 404
#     4  11  22  39  66  97 140 191 232 276 340 415
#
# _framework density 21.435068999999999
#
# number of rings (size 3 to 8) (size 9 to 14) (size 15 to 20)
#    0.000    1.455    1.818    1.636   12.727    5.091 
#    0.000    0.909    0.000    0.000    0.000    0.000 
#    0.000    0.000    0.000    0.000    0.000    0.000 
#
# Total GULP energy -245055.157100 kJ/mol
# GULP energy per Si atom -5569.435389 kJ/mol
# Density = 2.138628 g / cm^3
# Si number density = 21.435069 Si / 1000 Ang^3
#
#
#
# Elastic Constant Matrix: (Units=GPa)
#
#
# Indices 1 2 3 4 5 6 
#
# 1 72.4080 27.3773 0.4350 0.0000 0.0000 0.0000
# 2 27.3773 108.5445 22.7421 0.0000 0.0000 0.0000
# 3 0.4350 22.7421 51.0090 0.0000 0.0000 0.0000
# 4 0.0000 0.0000 0.0000 -158.3236 0.0000 0.0000
# 5 0.0000 0.0000 0.0000 0.0000 27.5301 0.0000
# 6 0.0000 0.0000 0.0000 0.0000 0.0000 9.6345
#
#
#
# Elastic Compliance Matrix: (Units=1/GPa)
#
#
# Indices 1 2 3 4 5 6 
#
# 1 0.015409 -0.004257 0.001766 0.000000 0.000000 0.000000
# 2 -0.004257 0.011338 -0.005019 0.000000 0.000000 0.000000
# 3 0.001766 -0.005019 0.021827 0.000000 0.000000 0.000000
# 4 0.000000 0.000000 0.000000 -0.006316 0.000000 0.000000
# 5 0.000000 0.000000 0.000000 0.000000 0.036324 0.000000
# 6 0.000000 0.000000 0.000000 0.000000 0.000000 0.103794
#
#
# Mechanical properties :
#
#
# Convention : Reuss Voigt Hill
#
# Bulk Modulus (GPa) = 29.80061 37.00783 33.40422
# Shear Modulus (GPa) = 23.97173 -12.13801 5.91686
#
# Velocity S-wave (km/s) = 3.34779 -2.38222 1.66324
# Velocity P-wave (km/s) = 5.37369 3.12024 4.39388
#
# Compressibility (1/GPa) = 0.03355636
#
# Stress axis : x y z
#
# Youngs Moduli (GPa) = 64.89521 88.19929 45.81511
#
# Poissons Ratio (x) = 0.37544 -0.08093
# Poissons Ratio (y) = 0.27624 0.22993
# Poissons Ratio (z) = -0.11463 0.44264
#
# Static dielectric constant tensor:
#      x y z
#    x 1.928700 0.000000 0.000000 
#    y 0.000000 1.982340 0.000000 
#    z 0.000000 0.000000 1.749650 
# 
# From -- ./inp_files/53392.got.cif
#   From: 2010.05.17/outbox.cif.g08.bks.cpg/sg68_27_cif.got.tgz:53392.got - 2010.06.03 18:57:09.
