data_PCOD9508952
_publ_section_title
;
Structure prediction by ZEFSAII (Michael W. Deem and Ramdas Pophale) SiO2 
 PCOD9508952
Probable space group: C C C A
;
_chemical_formula_sum "Si O2"
_cell_formula_units_Z 88
_cell_length_a 10.435040
_cell_length_b 25.216150
_cell_length_c 14.615386
_cell_angle_alpha 90.000000
_cell_angle_beta 90.000000
_cell_angle_gamma 90.000000
_cell_volume 3845.768937
_symmetry_space_group_name_H-M "C C C A"
_symmetry_group_IT_number 68
_space_group.IT_coordinate_system_code '2'
_symmetry_cell_setting 'orthorhombic'
loop_
_space_group_symop_operation_xyz
x,y,z
-x,1/2-y,z
x,1/2-y,1/2-z
-x,y,1/2-z
-x,-y,-z
x,1/2+y,-z
-x,1/2+y,1/2+z
x,-y,1/2+z
1/2+x,1/2+y,z
1/2-x,-y,z
1/2+x,-y,1/2-z
1/2-x,1/2+y,1/2-z
1/2-x,1/2-y,-z
1/2+x,y,-z
1/2-x,y,1/2+z
1/2+x,1/2-y,1/2+z
loop_
_atom_site_type_symbol
_atom_site_label
_atom_site_fract_x
_atom_site_fract_y
_atom_site_fract_z
Si Si1 0.865976 0.734540 0.067329
Si Si2 0.643106 0.860566 0.285013
Si Si3 0.308284 0.423978 0.619457
Si Si4 0.960765 0.478396 0.900987
Si Si5 0.743770 0.750000 0.750000
Si Si6 0.657063 0.611077 0.582267
O O1 0.841627 0.765186 0.162583
O O2 0.879287 0.672582 0.095125
O O3 0.000000 0.750000 0.022611
O O4 0.750000 0.750000 0.000000
O O5 0.500000 0.868608 0.250000
O O6 0.722649 0.885151 0.201714
O O7 0.670170 0.798119 0.286579
O O8 0.698565 0.889079 0.375533
O O9 0.173556 0.448694 0.590657
O O10 0.412446 0.468416 0.651095
O O11 0.355090 0.396739 0.526553
O O12 0.070357 0.435882 0.873143
O O13 0.000000 0.500000 0.000000
#
# Coordination Sequence:
#
# PCOD9508952 Si02
#       6
#    16  16  16  16   8  16
#     4  11  25  42  68 104 135 181 230 287 343 418
#     4  11  25  43  67 102 136 180 227 285 344 412
#     4  10  22  44  67  96 135 174 220 286 339 408
#     4   9  21  43  67  94 130 175 224 275 345 402
#     4  10  24  46  66  96 139 185 226 278 345 412
#     4  10  24  40  70  97 132 179 224 277 348 407
#
# _framework density 22.882290999999999
#
# number of rings (size 3 to 8) (size 9 to 14) (size 15 to 20)
#    0.000    1.818    0.000    1.636   10.182    5.091 
#    6.545    0.000    0.000    0.000    0.000    0.000 
#    0.000    0.000    0.000    0.000    0.000    0.000 
#
# Total GULP energy -245245.689705 kJ/mol
# GULP energy per Si atom -5573.765675 kJ/mol
# Density = 2.283021 g / cm^3
# Si number density = 22.882291 Si / 1000 Ang^3
#
#
#
# Elastic Constant Matrix: (Units=GPa)
#
#
# Indices 1 2 3 4 5 6 
#
# 1 117.9409 35.4255 7.7355 0.0000 0.0000 0.0000
# 2 35.4255 93.6227 3.2327 0.0000 0.0000 0.0000
# 3 7.7355 3.2327 65.3890 0.0000 0.0000 0.0000
# 4 0.0000 0.0000 0.0000 11.2441 0.0000 0.0000
# 5 0.0000 0.0000 0.0000 0.0000 30.3210 0.0000
# 6 0.0000 0.0000 0.0000 0.0000 0.0000 28.0413
#
#
#
# Elastic Compliance Matrix: (Units=1/GPa)
#
#
# Indices 1 2 3 4 5 6 
#
# 1 0.009626 -0.003609 -0.000960 0.000000 0.000000 0.000000
# 2 -0.003609 0.012053 -0.000169 0.000000 0.000000 0.000000
# 3 -0.000960 -0.000169 0.015415 0.000000 0.000000 0.000000
# 4 0.000000 0.000000 0.000000 0.088936 0.000000 0.000000
# 5 0.000000 0.000000 0.000000 0.000000 0.032980 0.000000
# 6 0.000000 0.000000 0.000000 0.000000 0.000000 0.035662
#
#
# Mechanical properties :
#
#
# Convention : Reuss Voigt Hill
#
# Bulk Modulus (GPa) = 36.20972 41.08222 38.64597
# Shear Modulus (GPa) = 23.43525 29.29187 26.36356
#
# Velocity S-wave (km/s) = 3.20373 3.58175 3.39800
# Velocity P-wave (km/s) = 5.43543 5.92435 5.68515
#
# Compressibility (1/GPa) = 0.02761689
#
# Stress axis : x y z
#
# Youngs Moduli (GPa) = 103.88670 82.96933 64.87163
#
# Poissons Ratio (x) = 0.29945 0.06230
# Poissons Ratio (y) = 0.37494 0.01096
# Poissons Ratio (z) = 0.09976 0.01401
#
# Static dielectric constant tensor:
#      x y z
#    x 1.865470 0.000000 0.000000 
#    y 0.000000 1.903300 0.000000 
#    z 0.000000 0.000000 1.735350 
# 
# From -- ./inp_files/21120.got.cif
#   From: 2010.05.17/outbox.cif.g08.bks.cpg/sg68_11_cif.got.tgz:21120.got - 2010.06.03 18:57:09.
