data_PCOD9508211
_publ_section_title
;
Structure prediction by ZEFSAII (Michael W. Deem and Ramdas Pophale) SiO2 
 PCOD9508211
Probable space group: C C C A
;
_chemical_formula_sum "Si O2"
_cell_formula_units_Z 68
_cell_length_a 8.735320
_cell_length_b 22.691859
_cell_length_c 16.331820
_cell_angle_alpha 90.000000
_cell_angle_beta 90.000000
_cell_angle_gamma 90.000000
_cell_volume 3237.303972
_symmetry_space_group_name_H-M "C C C A"
_symmetry_group_IT_number 68
_space_group.IT_coordinate_system_code '2'
_symmetry_cell_setting 'orthorhombic'
loop_
_space_group_symop_operation_xyz
x,y,z
-x,1/2-y,z
x,1/2-y,1/2-z
-x,y,1/2-z
-x,-y,-z
x,1/2+y,-z
-x,1/2+y,1/2+z
x,-y,1/2+z
1/2+x,1/2+y,z
1/2-x,-y,z
1/2+x,-y,1/2-z
1/2-x,1/2+y,1/2-z
1/2-x,1/2-y,-z
1/2+x,y,-z
1/2-x,y,1/2+z
1/2+x,1/2-y,1/2+z
loop_
_atom_site_type_symbol
_atom_site_label
_atom_site_fract_x
_atom_site_fract_y
_atom_site_fract_z
Si Si1 0.601510 0.167296 0.606000
Si Si2 0.913843 0.421000 0.661125
Si Si3 0.945704 0.551042 0.657884
Si Si4 0.949040 0.813412 0.061024
Si Si5 0.500000 0.250000 0.750000
O O1 0.556327 0.099618 0.620298
O O2 0.771047 0.175693 0.573435
O O3 0.486041 0.186984 0.535091
O O4 0.587269 0.205798 0.688484
O O5 0.956224 0.484957 0.622598
O O6 0.728805 0.425179 0.664234
O O7 0.000000 0.414833 0.750000
O O8 0.962603 0.366319 0.605678
O O9 0.000000 0.543143 0.750000
O O10 0.000000 0.750000 0.095205
#
# Coordination Sequence:
#
# PCOD9508211 Si02
#       5
#    16  16  16  16   4
#     4  12  26  46  72 101 140 182 229 285 349 412
#     4  10  23  41  67 102 139 183 235 284 346 410
#     4  10  21  42  68  98 139 184 233 287 339 412
#     4  12  27  44  69 101 142 178 224 292 343 413
#     4  12  28  44  74 100 134 188 224 268 344 416
#
# _framework density 21.005132
#
# number of rings (size 3 to 8) (size 9 to 14) (size 15 to 20)
#    0.000    0.941    2.353    3.529    3.294    4.235 
#    0.000    0.000    0.000    0.000    0.000    0.000 
#    0.000    0.000    0.000    0.000    0.000    0.000 
#
# Total GULP energy -189959.072215 kJ/mol
# GULP energy per Si atom -5587.031536 kJ/mol
# Density = 2.095732 g / cm^3
# Si number density = 21.005132 Si / 1000 Ang^3
#
#
#
# Elastic Constant Matrix: (Units=GPa)
#
#
# Indices 1 2 3 4 5 6 
#
# 1 122.2391 59.2439 39.6572 0.0000 0.0000 0.0000
# 2 59.2439 172.4709 58.5553 0.0000 0.0000 0.0000
# 3 39.6572 58.5553 91.4650 0.0000 0.0000 0.0000
# 4 0.0000 0.0000 0.0000 48.2008 0.0000 0.0000
# 5 0.0000 0.0000 0.0000 0.0000 29.9868 0.0000
# 6 0.0000 0.0000 0.0000 0.0000 0.0000 16.8500
#
#
#
# Elastic Compliance Matrix: (Units=1/GPa)
#
#
# Indices 1 2 3 4 5 6 
#
# 1 0.010357 -0.002598 -0.002828 0.000000 0.000000 0.000000
# 2 -0.002598 0.008060 -0.004034 0.000000 0.000000 0.000000
# 3 -0.002828 -0.004034 0.014741 0.000000 0.000000 0.000000
# 4 0.000000 0.000000 0.000000 0.020747 0.000000 0.000000
# 5 0.000000 0.000000 0.000000 0.000000 0.033348 0.000000
# 6 0.000000 0.000000 0.000000 0.000000 0.000000 0.059347
#
#
# Mechanical properties :
#
#
# Convention : Reuss Voigt Hill
#
# Bulk Modulus (GPa) = 70.22162 77.89865 74.06013
# Shear Modulus (GPa) = 29.36610 34.25541 31.81076
#
# Velocity S-wave (km/s) = 3.74310 4.04271 3.89579
# Velocity P-wave (km/s) = 7.22387 7.67837 7.45459
#
# Compressibility (1/GPa) = 0.01424063
#
# Stress axis : x y z
#
# Youngs Moduli (GPa) = 96.55319 124.07264 67.83635
#
# Poissons Ratio (x) = 0.32230 0.19181
# Poissons Ratio (y) = 0.25081 0.27362
# Poissons Ratio (z) = 0.27301 0.50045
#
# Static dielectric constant tensor:
#      x y z
#    x 1.542090 0.000000 0.000000 
#    y 0.000000 1.834010 0.000000 
#    z 0.000000 0.000000 1.737630 
# 
# From -- ./inp_files/27984.got.cif
#   From: 2010.05.17/outbox.cif.g08.bks.cpg/sg68_14_cif.got.tgz:27984.got - 2010.06.03 18:57:09.
