data_PCOD9508311
_publ_section_title
;
Structure prediction by ZEFSAII (Michael W. Deem and Ramdas Pophale) SiO2 
 PCOD9508311
Probable space group: C C C A
;
_chemical_formula_sum "Si O2"
_cell_formula_units_Z 52
_cell_length_a 18.500904
_cell_length_b 7.112216
_cell_length_c 20.421835
_cell_angle_alpha 90.000000
_cell_angle_beta 90.000000
_cell_angle_gamma 90.000000
_cell_volume 2687.154581
_symmetry_space_group_name_H-M "C C C A"
_symmetry_group_IT_number 68
_space_group.IT_coordinate_system_code '2'
_symmetry_cell_setting 'orthorhombic'
loop_
_space_group_symop_operation_xyz
x,y,z
-x,1/2-y,z
x,1/2-y,1/2-z
-x,y,1/2-z
-x,-y,-z
x,1/2+y,-z
-x,1/2+y,1/2+z
x,-y,1/2+z
1/2+x,1/2+y,z
1/2-x,-y,z
1/2+x,-y,1/2-z
1/2-x,1/2+y,1/2-z
1/2-x,1/2-y,-z
1/2+x,y,-z
1/2-x,y,1/2+z
1/2+x,1/2-y,1/2+z
loop_
_atom_site_type_symbol
_atom_site_label
_atom_site_fract_x
_atom_site_fract_y
_atom_site_fract_z
Si Si1 0.642502 0.289817 0.052670
Si Si2 0.250000 0.500000 0.045804
Si Si3 0.500000 0.750000 0.250000
Si Si4 0.500000 0.250000 0.535450
Si Si5 0.464724 0.542835 0.857794
O O1 0.612552 0.418445 0.110056
O O2 0.693265 0.129370 0.083409
O O3 0.695538 0.390024 0.002028
O O4 0.571628 0.234636 0.009501
O O5 0.539906 0.601994 0.202121
O O6 0.493786 0.428228 0.584332
O O7 0.500000 0.750000 0.844288
#
# Coordination Sequence:
#
# PCOD9508311 Si02
#       5
#    16   8   4   8  16
#     4  11  19  36  55  95 134 162 192 247 324 391
#     4  10  22  30  54  96 144 160 184 234 328 418
#     4  10  26  40  56  98 112 158 242 280 300 352
#     4  11  20  35  62  99 126 157 204 248 322 401
#     4  11  21  37  63  88 123 163 205 276 311 363
#
# _framework density 19.351324999999999
#
# number of rings (size 3 to 8) (size 9 to 14) (size 15 to 20)
#    0.000    1.231    4.615    3.231    0.000    0.000 
#    0.000    0.000    0.000    0.000    8.000    0.000 
#    0.000    0.000    0.000    0.000    0.000    0.000 
#
# Total GULP energy -144753.976062 kJ/mol
# GULP energy per Si atom -5567.460618 kJ/mol
# Density = 1.930728 g / cm^3
# Si number density = 19.351325 Si / 1000 Ang^3
#
#
#
# Elastic Constant Matrix: (Units=GPa)
#
#
# Indices 1 2 3 4 5 6 
#
# 1 117.1111 46.4876 41.7232 0.0000 0.0000 0.0000
# 2 46.4876 132.4127 52.5443 0.0000 0.0000 0.0000
# 3 41.7232 52.5443 93.1117 0.0000 0.0000 0.0000
# 4 0.0000 0.0000 0.0000 37.3333 0.0000 0.0000
# 5 0.0000 0.0000 0.0000 0.0000 25.2564 0.0000
# 6 0.0000 0.0000 0.0000 0.0000 0.0000 46.0631
#
#
#
# Elastic Compliance Matrix: (Units=1/GPa)
#
#
# Indices 1 2 3 4 5 6 
#
# 1 0.010719 -0.002393 -0.003453 0.000000 0.000000 0.000000
# 2 -0.002393 0.010266 -0.004721 0.000000 0.000000 0.000000
# 3 -0.003453 -0.004721 0.014951 0.000000 0.000000 0.000000
# 4 0.000000 0.000000 0.000000 0.026786 0.000000 0.000000
# 5 0.000000 0.000000 0.000000 0.000000 0.039594 0.000000
# 6 0.000000 0.000000 0.000000 0.000000 0.000000 0.021709
#
#
# Mechanical properties :
#
#
# Convention : Reuss Voigt Hill
#
# Bulk Modulus (GPa) = 67.55625 69.34954 68.45290
# Shear Modulus (GPa) = 33.31303 35.18927 34.25115
#
# Velocity S-wave (km/s) = 4.15358 4.26895 4.21166
# Velocity P-wave (km/s) = 7.61506 7.75973 7.68774
#
# Compressibility (1/GPa) = 0.01480248
#
# Stress axis : x y z
#
# Youngs Moduli (GPa) = 93.29286 97.41282 66.88582
#
# Poissons Ratio (x) = 0.23312 0.23093
# Poissons Ratio (y) = 0.22326 0.31575
# Poissons Ratio (z) = 0.32211 0.45985
#
# Static dielectric constant tensor:
#      x y z
#    x 1.669680 0.000000 0.000000 
#    y 0.000000 1.893570 0.000000 
#    z 0.000000 0.000000 1.686550 
# 
# From -- ./inp_files/38130.got.cif
#   From: 2010.05.17/outbox.cif.g08.bks.cpg/sg68_20_cif.got.tgz:38130.got - 2010.06.03 18:57:09.
