data_PCOD9508520
_publ_section_title
;
Structure prediction by ZEFSAII (Michael W. Deem and Ramdas Pophale) SiO2 
 PCOD9508520
Probable space group: C C C A
;
_chemical_formula_sum "Si O2"
_cell_formula_units_Z 48
_cell_length_a 16.496894
_cell_length_b 13.111585
_cell_length_c 9.267302
_cell_angle_alpha 90.000000
_cell_angle_beta 90.000000
_cell_angle_gamma 90.000000
_cell_volume 2004.521388
_symmetry_space_group_name_H-M "C C C A"
_symmetry_group_IT_number 68
_space_group.IT_coordinate_system_code '2'
_symmetry_cell_setting 'orthorhombic'
loop_
_space_group_symop_operation_xyz
x,y,z
-x,1/2-y,z
x,1/2-y,1/2-z
-x,y,1/2-z
-x,-y,-z
x,1/2+y,-z
-x,1/2+y,1/2+z
x,-y,1/2+z
1/2+x,1/2+y,z
1/2-x,-y,z
1/2+x,-y,1/2-z
1/2-x,1/2+y,1/2-z
1/2-x,1/2-y,-z
1/2+x,y,-z
1/2-x,y,1/2+z
1/2+x,1/2-y,1/2+z
loop_
_atom_site_type_symbol
_atom_site_label
_atom_site_fract_x
_atom_site_fract_y
_atom_site_fract_z
Si Si1 0.410232 0.116124 0.003481
Si Si2 0.175828 0.206578 0.908375
Si Si3 0.750000 0.000000 0.032853
Si Si4 0.000000 0.490661 0.250000
O O1 0.400987 0.238864 0.016193
O O2 0.464318 0.065437 0.127514
O O3 0.193513 0.086911 0.895326
O O4 0.321674 0.065939 0.038000
O O5 0.176041 0.250000 0.750000
O O6 0.250000 0.250000 0.000000
O O7 0.939523 0.080794 0.155419
#
# Coordination Sequence:
#
# PCOD9508520 Si02
#       4
#    16  16   8   8
#     4  10  22  42  66  98 141 189 236 290 357 430
#     4  10  22  39  65  97 129 173 229 293 361 424
#     4  10  22  42  70  98 132 176 236 298 348 418
#     4  10  22  42  66 100 150 192 231 288 357 440
#
# _framework density 23.945867
#
# number of rings (size 3 to 8) (size 9 to 14) (size 15 to 20)
#    0.000    2.000    0.000    2.000    0.000   17.333 
#    0.000   17.500    0.000    0.000    0.000    0.000 
#    0.000    0.000    0.000    0.000    0.000    0.000 
#
# Total GULP energy -133660.469701 kJ/mol
# GULP energy per Si atom -5569.186238 kJ/mol
# Density = 2.389137 g / cm^3
# Si number density = 23.945867 Si / 1000 Ang^3
#
#
#
# Elastic Constant Matrix: (Units=GPa)
#
#
# Indices 1 2 3 4 5 6 
#
# 1 73.4531 29.8334 19.7640 0.0000 0.0000 0.0000
# 2 29.8334 192.8589 40.3682 0.0000 0.0000 0.0000
# 3 19.7640 40.3682 85.2469 0.0000 0.0000 0.0000
# 4 0.0000 0.0000 0.0000 24.4428 0.0000 0.0000
# 5 0.0000 0.0000 0.0000 0.0000 19.3802 0.0000
# 6 0.0000 0.0000 0.0000 0.0000 0.0000 41.7238
#
#
#
# Elastic Compliance Matrix: (Units=1/GPa)
#
#
# Indices 1 2 3 4 5 6 
#
# 1 0.015047 -0.001773 -0.002649 0.000000 0.000000 0.000000
# 2 -0.001773 0.005965 -0.002413 0.000000 0.000000 0.000000
# 3 -0.002649 -0.002413 0.013488 0.000000 0.000000 0.000000
# 4 0.000000 0.000000 0.000000 0.040912 0.000000 0.000000
# 5 0.000000 0.000000 0.000000 0.000000 0.051599 0.000000
# 6 0.000000 0.000000 0.000000 0.000000 0.000000 0.023967
#
#
# Mechanical properties :
#
#
# Convention : Reuss Voigt Hill
#
# Bulk Modulus (GPa) = 48.01156 59.05446 53.53301
# Shear Modulus (GPa) = 29.13906 34.54892 31.84399
#
# Velocity S-wave (km/s) = 3.49215 3.80253 3.65064
# Velocity P-wave (km/s) = 6.02941 6.63281 6.33829
#
# Compressibility (1/GPa) = 0.02082832
#
# Stress axis : x y z
#
# Youngs Moduli (GPa) = 66.45818 167.65610 74.14207
#
# Poissons Ratio (x) = 0.29728 0.19639
# Poissons Ratio (y) = 0.11784 0.17893
# Poissons Ratio (z) = 0.17604 0.40462
#
# Static dielectric constant tensor:
#      x y z
#    x 2.010570 0.000000 0.000000 
#    y 0.000000 2.101430 0.000000 
#    z 0.000000 0.000000 1.880120 
# 
# From -- ./inp_files/11311.got.cif
#   From: 2010.05.17/outbox.cif.g08.bks.cpg/sg68_6_cif.got.tgz:11311.got - 2010.06.03 18:57:09.
