data_PCOD9508402
_publ_section_title
;
Structure prediction by ZEFSAII (Michael W. Deem and Ramdas Pophale) SiO2 
 PCOD9508402
Probable space group: C C C A
;
_chemical_formula_sum "Si O2"
_cell_formula_units_Z 96
_cell_length_a 11.637410
_cell_length_b 18.715819
_cell_length_c 21.214707
_cell_angle_alpha 90.000000
_cell_angle_beta 90.000000
_cell_angle_gamma 90.000000
_cell_volume 4620.640813
_symmetry_space_group_name_H-M "C C C A"
_symmetry_group_IT_number 68
_space_group.IT_coordinate_system_code '2'
_symmetry_cell_setting 'orthorhombic'
loop_
_space_group_symop_operation_xyz
x,y,z
-x,1/2-y,z
x,1/2-y,1/2-z
-x,y,1/2-z
-x,-y,-z
x,1/2+y,-z
-x,1/2+y,1/2+z
x,-y,1/2+z
1/2+x,1/2+y,z
1/2-x,-y,z
1/2+x,-y,1/2-z
1/2-x,1/2+y,1/2-z
1/2-x,1/2-y,-z
1/2+x,y,-z
1/2-x,y,1/2+z
1/2+x,1/2-y,1/2+z
loop_
_atom_site_type_symbol
_atom_site_label
_atom_site_fract_x
_atom_site_fract_y
_atom_site_fract_z
Si Si1 0.500000 0.750000 0.150107
Si Si2 0.000000 0.638020 0.750000
Si Si3 0.376494 0.158197 0.942891
Si Si4 0.991305 0.512921 0.574652
Si Si5 0.750000 0.500000 0.146875
Si Si6 0.000000 0.750000 0.050357
Si Si7 0.259400 0.577819 0.228688
Si Si8 0.360442 0.124693 0.388263
O O1 0.454300 0.811574 0.195047
O O2 0.602442 0.780115 0.108364
O O3 0.106757 0.594401 0.726337
O O4 0.248668 0.127155 0.936418
O O5 0.457828 0.092820 0.921394
O O6 0.419176 0.198306 0.006286
O O7 0.065372 0.447696 0.603828
O O8 0.000000 0.500000 0.500000
O O9 0.863749 0.510908 0.605013
O O10 0.772111 0.564430 0.197850
O O11 0.930894 0.805713 0.092475
O O12 0.250000 0.500000 0.197935
O O13 0.187105 0.628089 0.183302
#
# Coordination Sequence:
#
# PCOD9508402 Si02
#       8
#     8   8  16  16   8   8  16  16
#     4  10  22  37  72  96 137 176 244 296 346 429
#     4  11  20  44  66 106 134 183 256 281 360 428
#     4  11  23  46  72 104 140 195 243 307 357 434
#     4  12  26  46  77 107 144 185 246 307 363 437
#     4  10  28  44  68 118 144 180 246 306 368 428
#     4  11  26  45  68 110 157 192 241 308 368 447
#     4  10  24  43  76  98 144 188 235 310 342 433
#     4  12  25  46  73 107 145 195 243 298 384 429
#
# _framework density 20.776339
#
# number of rings (size 3 to 8) (size 9 to 14) (size 15 to 20)
#    0.500    0.500    3.333    3.000    4.667    0.667 
#    9.000    0.000    3.667    0.000    0.000    0.000 
#    0.000    0.000    0.000    0.000    0.000    0.000 
#
# Total GULP energy -267651.745502 kJ/mol
# GULP energy per Si atom -5576.078031 kJ/mol
# Density = 2.072905 g / cm^3
# Si number density = 20.776339 Si / 1000 Ang^3
#
#
#
# Elastic Constant Matrix: (Units=GPa)
#
#
# Indices 1 2 3 4 5 6 
#
# 1 132.1239 72.5740 69.6587 0.0000 0.0000 0.0000
# 2 72.5740 120.7371 49.5136 0.0000 0.0000 0.0000
# 3 69.6587 49.5136 132.3884 0.0000 0.0000 0.0000
# 4 0.0000 0.0000 0.0000 23.9489 0.0000 0.0000
# 5 0.0000 0.0000 0.0000 0.0000 18.7538 0.0000
# 6 0.0000 0.0000 0.0000 0.0000 0.0000 24.7606
#
#
#
# Elastic Compliance Matrix: (Units=1/GPa)
#
#
# Indices 1 2 3 4 5 6 
#
# 1 0.013459 -0.006125 -0.004791 0.000000 0.000000 0.000000
# 2 -0.006125 0.012571 -0.001478 0.000000 0.000000 0.000000
# 3 -0.004791 -0.001478 0.010627 0.000000 0.000000 0.000000
# 4 0.000000 0.000000 0.000000 0.041756 0.000000 0.000000
# 5 0.000000 0.000000 0.000000 0.000000 0.053322 0.000000
# 6 0.000000 0.000000 0.000000 0.000000 0.000000 0.040387
#
#
# Mechanical properties :
#
#
# Convention : Reuss Voigt Hill
#
# Bulk Modulus (GPa) = 84.26295 85.41577 84.83936
# Shear Modulus (GPa) = 24.89204 26.39286 25.64245
#
# Velocity S-wave (km/s) = 3.46511 3.56804 3.51695
# Velocity P-wave (km/s) = 7.52692 7.62731 7.57728
#
# Compressibility (1/GPa) = 0.01186761
#
# Stress axis : x y z
#
# Youngs Moduli (GPa) = 74.29893 79.54984 94.09753
#
# Poissons Ratio (x) = 0.48728 0.45081
# Poissons Ratio (y) = 0.45512 0.13912
# Poissons Ratio (z) = 0.35595 0.11761
#
# Static dielectric constant tensor:
#      x y z
#    x 1.729430 0.000000 0.000000 
#    y 0.000000 1.909260 0.000000 
#    z 0.000000 0.000000 1.806250 
# 
# From -- ./inp_files/44494.got.cif
#   From: 2010.05.17/outbox.cif.g08.bks.cpg/sg68_23_cif.got.tgz:44494.got - 2010.06.03 18:57:09.
