data_PCOD9508279
_publ_section_title
;
Structure prediction by ZEFSAII (Michael W. Deem and Ramdas Pophale) SiO2 
 PCOD9508279
Probable space group: C C C A
;
_chemical_formula_sum "Si O2"
_cell_formula_units_Z 48
_cell_length_a 7.391374
_cell_length_b 8.701496
_cell_length_c 31.512511
_cell_angle_alpha 90.000000
_cell_angle_beta 90.000000
_cell_angle_gamma 90.000000
_cell_volume 2026.759013
_symmetry_space_group_name_H-M "C C C A"
_symmetry_group_IT_number 68
_space_group.IT_coordinate_system_code '2'
_symmetry_cell_setting 'orthorhombic'
loop_
_space_group_symop_operation_xyz
x,y,z
-x,1/2-y,z
x,1/2-y,1/2-z
-x,y,1/2-z
-x,-y,-z
x,1/2+y,-z
-x,1/2+y,1/2+z
x,-y,1/2+z
1/2+x,1/2+y,z
1/2-x,-y,z
1/2+x,-y,1/2-z
1/2-x,1/2+y,1/2-z
1/2-x,1/2-y,-z
1/2+x,y,-z
1/2-x,y,1/2+z
1/2+x,1/2-y,1/2+z
loop_
_atom_site_type_symbol
_atom_site_label
_atom_site_fract_x
_atom_site_fract_y
_atom_site_fract_z
Si Si1 0.750000 0.000000 0.885530
Si Si2 0.699267 0.781763 0.314007
Si Si3 0.750000 0.500000 0.760889
Si Si4 0.450659 0.068193 0.954061
O O1 0.794919 0.137401 0.852862
O O2 0.580481 0.015666 0.916293
O O3 0.500000 0.750000 0.331730
O O4 0.650461 0.898212 0.275254
O O5 0.803414 0.637638 0.292958
O O6 0.500000 0.250000 0.957101
O O7 0.250000 0.000000 0.945174
O O8 0.500000 0.000000 0.000000
#
# Coordination Sequence:
#
# PCOD9508279 Si02
#       4
#     8  16   8  16
#     4  11  26  48  74 115 160 202 256 331 394 463
#     4  10  21  44  67 105 149 199 257 319 383 471
#     4   9  18  38  74  95 144 198 254 303 386 459
#     4  12  27  52  84 116 156 208 268 327 403 494
#
# _framework density 23.683129999999998
#
# number of rings (size 3 to 8) (size 9 to 14) (size 15 to 20)
#    0.000    1.333    1.667    4.000    0.000    0.000 
#   18.000   26.667    0.000    0.000    0.000    0.000 
#    0.000    0.000    0.000    0.000    0.000    0.000 
#
# Total GULP energy -133631.338907 kJ/mol
# GULP energy per Si atom -5567.972454 kJ/mol
# Density = 2.362923 g / cm^3
# Si number density = 23.683130 Si / 1000 Ang^3
#
#
#
# Elastic Constant Matrix: (Units=GPa)
#
#
# Indices 1 2 3 4 5 6 
#
# 1 124.0035 81.5353 79.3464 0.0000 0.0000 0.0000
# 2 81.5353 163.0389 115.3392 0.0000 0.0000 0.0000
# 3 79.3464 115.3392 241.4945 0.0000 0.0000 0.0000
# 4 0.0000 0.0000 0.0000 29.0263 0.0000 0.0000
# 5 0.0000 0.0000 0.0000 0.0000 49.7220 0.0000
# 6 0.0000 0.0000 0.0000 0.0000 0.0000 24.4745
#
#
#
# Elastic Compliance Matrix: (Units=1/GPa)
#
#
# Indices 1 2 3 4 5 6 
#
# 1 0.012454 -0.005035 -0.001688 0.000000 0.000000 0.000000
# 2 -0.005035 0.011299 -0.003742 0.000000 0.000000 0.000000
# 3 -0.001688 -0.003742 0.006483 0.000000 0.000000 0.000000
# 4 0.000000 0.000000 0.000000 0.034452 0.000000 0.000000
# 5 0.000000 0.000000 0.000000 0.000000 0.020112 0.000000
# 6 0.000000 0.000000 0.000000 0.000000 0.000000 0.040859
#
#
# Mechanical properties :
#
#
# Convention : Reuss Voigt Hill
#
# Bulk Modulus (GPa) = 107.44396 120.10875 113.77635
# Shear Modulus (GPa) = 33.40263 37.46561 35.43412
#
# Velocity S-wave (km/s) = 3.75960 3.98169 3.87224
# Velocity P-wave (km/s) = 8.01947 8.48313 8.25456
#
# Compressibility (1/GPa) = 0.00930718
#
# Stress axis : x y z
#
# Youngs Moduli (GPa) = 80.29229 88.50664 154.25982
#
# Poissons Ratio (x) = 0.44560 0.26032
# Poissons Ratio (y) = 0.40424 0.57725
# Poissons Ratio (z) = 0.13549 0.33120
#
# Static dielectric constant tensor:
#      x y z
#    x 2.135960 0.000000 0.000000 
#    y 0.000000 2.001590 0.000000 
#    z 0.000000 0.000000 1.797550 
# 
# From -- ./inp_files/53662.got.cif
#   From: 2010.05.17/outbox.cif.g08.bks.cpg/sg68_27_cif.got.tgz:53662.got - 2010.06.03 18:57:09.
