data_PCOD9508024
_publ_section_title
;
Structure prediction by ZEFSAII (Michael W. Deem and Ramdas Pophale) SiO2 
 PCOD9508024
Probable space group: C C C A
;
_chemical_formula_sum "Si O2"
_cell_formula_units_Z 116
_cell_length_a 26.417201
_cell_length_b 22.567288
_cell_length_c 9.432448
_cell_angle_alpha 90.000000
_cell_angle_beta 90.000000
_cell_angle_gamma 90.000000
_cell_volume 5623.291430
_symmetry_space_group_name_H-M "C C C A"
_symmetry_group_IT_number 68
_space_group.IT_coordinate_system_code '2'
_symmetry_cell_setting 'orthorhombic'
loop_
_space_group_symop_operation_xyz
x,y,z
-x,1/2-y,z
x,1/2-y,1/2-z
-x,y,1/2-z
-x,-y,-z
x,1/2+y,-z
-x,1/2+y,1/2+z
x,-y,1/2+z
1/2+x,1/2+y,z
1/2-x,-y,z
1/2+x,-y,1/2-z
1/2-x,1/2+y,1/2-z
1/2-x,1/2-y,-z
1/2+x,y,-z
1/2-x,y,1/2+z
1/2+x,1/2-y,1/2+z
loop_
_atom_site_type_symbol
_atom_site_label
_atom_site_fract_x
_atom_site_fract_y
_atom_site_fract_z
Si Si1 0.359873 0.189500 0.827993
Si Si2 0.496136 0.436564 0.923302
Si Si3 0.243188 0.632748 0.630764
Si Si4 0.383724 0.389827 0.939481
Si Si5 0.000000 0.750000 0.250000
Si Si6 0.931452 0.839194 0.432055
Si Si7 0.215784 0.556690 0.886503
Si Si8 0.150318 0.180116 0.785654
O O1 0.352105 0.250000 0.750000
O O2 0.305961 0.172173 0.892603
O O3 0.375980 0.141343 0.711650
O O4 0.403851 0.194621 0.941188
O O5 0.500000 0.439887 0.750000
O O6 0.500000 0.500000 0.000000
O O7 0.440613 0.410921 0.956500
O O8 0.537268 0.392875 0.997154
O O9 0.224528 0.577262 0.725603
O O10 0.263446 0.609890 0.482386
O O11 0.290292 0.663782 0.710068
O O12 0.369951 0.342405 0.061731
O O13 0.343020 0.444041 0.933532
O O14 0.966877 0.793980 0.346613
O O15 0.884917 0.855336 0.326554
O O16 0.250000 0.500000 0.914036
O O17 0.144495 0.250000 0.750000
#
# Coordination Sequence:
#
# PCOD9508024 Si02
#       8
#    16  16  16  16   4  16  16  16
#     4  11  23  41  67 101 137 184 220 292 356 432
#     4  12  29  51  72 102 138 190 238 303 360 429
#     4  10  22  39  64  97 140 175 229 277 350 430
#     4  10  24  45  64  99 141 172 238 290 352 425
#     4  12  28  44  74 108 136 192 234 318 344 442
#     4  12  26  45  73 100 143 179 249 285 368 420
#     4  10  21  40  64  94 131 177 228 285 344 413
#     4  11  22  41  68 103 140 186 227 289 352 436
#
# _framework density 20.628488000000001
#
# number of rings (size 3 to 8) (size 9 to 14) (size 15 to 20)
#    0.000    1.103    2.069    3.310    4.828    2.207 
#    2.483    5.517    0.000    0.000    0.000    0.000 
#    0.000    0.000    0.000    0.000    0.000    0.000 
#
# Total GULP energy -323913.434203 kJ/mol
# GULP energy per Si atom -5584.714383 kJ/mol
# Density = 2.058154 g / cm^3
# Si number density = 20.628488 Si / 1000 Ang^3
#
#
#
# Elastic Constant Matrix: (Units=GPa)
#
#
# Indices 1 2 3 4 5 6 
#
# 1 104.9380 39.1548 2.3353 0.0000 0.0000 0.0000
# 2 39.1548 79.1264 11.0115 0.0000 0.0000 0.0000
# 3 2.3353 11.0115 75.0644 0.0000 0.0000 0.0000
# 4 0.0000 0.0000 0.0000 10.6486 0.0000 0.0000
# 5 0.0000 0.0000 0.0000 0.0000 -13.3403 0.0000
# 6 0.0000 0.0000 0.0000 0.0000 0.0000 20.1378
#
#
#
# Elastic Compliance Matrix: (Units=1/GPa)
#
#
# Indices 1 2 3 4 5 6 
#
# 1 0.011705 -0.005861 0.000496 0.000000 0.000000 0.000000
# 2 -0.005861 0.015836 -0.002141 0.000000 0.000000 0.000000
# 3 0.000496 -0.002141 0.013621 0.000000 0.000000 0.000000
# 4 0.000000 0.000000 0.000000 0.093909 0.000000 0.000000
# 5 0.000000 0.000000 0.000000 0.000000 -0.074961 0.000000
# 6 0.000000 0.000000 0.000000 0.000000 0.000000 0.049658
#
#
# Mechanical properties :
#
#
# Convention : Reuss Voigt Hill
#
# Bulk Modulus (GPa) = 38.24167 40.45912 39.35039
# Shear Modulus (GPa) = 37.45380 17.26436 27.35908
#
# Velocity S-wave (km/s) = 4.26565 2.89609 3.64576
# Velocity P-wave (km/s) = 6.54519 5.55328 6.06953
#
# Compressibility (1/GPa) = 0.02614949
#
# Stress axis : x y z
#
# Youngs Moduli (GPa) = 85.43083 63.14613 73.41872
#
# Poissons Ratio (x) = 0.37012 -0.03639
# Poissons Ratio (y) = 0.50073 0.15717
# Poissons Ratio (z) = -0.04234 0.13518
#
# Static dielectric constant tensor:
#      x y z
#    x 1.771900 0.000000 0.000000 
#    y 0.000000 1.707860 0.000000 
#    z 0.000000 0.000000 1.772490 
# 
# From -- ./inp_files/9153.got.cif
#   From: 2010.05.17/outbox.cif.g08.bks.cpg/sg68_5_cif.got.tgz:9153.got - 2010.06.03 18:57:09.
