data_PCOD9508280
_publ_section_title
;
Structure prediction by ZEFSAII (Michael W. Deem and Ramdas Pophale) SiO2 
 PCOD9508280
Probable space group: C C C A
;
_chemical_formula_sum "Si O2"
_cell_formula_units_Z 88
_cell_length_a 10.356481
_cell_length_b 29.945201
_cell_length_c 12.027547
_cell_angle_alpha 90.000000
_cell_angle_beta 90.000000
_cell_angle_gamma 90.000000
_cell_volume 3730.065928
_symmetry_space_group_name_H-M "C C C A"
_symmetry_group_IT_number 68
_space_group.IT_coordinate_system_code '2'
_symmetry_cell_setting 'orthorhombic'
loop_
_space_group_symop_operation_xyz
x,y,z
-x,1/2-y,z
x,1/2-y,1/2-z
-x,y,1/2-z
-x,-y,-z
x,1/2+y,-z
-x,1/2+y,1/2+z
x,-y,1/2+z
1/2+x,1/2+y,z
1/2-x,-y,z
1/2+x,-y,1/2-z
1/2-x,1/2+y,1/2-z
1/2-x,1/2-y,-z
1/2+x,y,-z
1/2-x,y,1/2+z
1/2+x,1/2-y,1/2+z
loop_
_atom_site_type_symbol
_atom_site_label
_atom_site_fract_x
_atom_site_fract_y
_atom_site_fract_z
Si Si1 0.520872 0.441532 0.873606
Si Si2 0.627268 0.779442 0.034562
Si Si3 0.900758 0.354327 0.653139
Si Si4 0.191005 0.642364 0.672912
Si Si5 0.250000 0.500000 0.613385
Si Si6 0.107334 0.918856 0.419417
O O1 0.500000 0.460746 0.750000
O O2 0.576140 0.392028 0.849937
O O3 0.630670 0.471150 0.933701
O O4 0.401744 0.438187 0.956638
O O5 0.500000 0.750000 0.043383
O O6 0.654832 0.807320 0.146268
O O7 0.750000 0.750000 0.000000
O O8 0.605134 0.817949 0.942557
O O9 0.761643 0.361563 0.708933
O O10 0.000000 0.338211 0.750000
O O11 0.967136 0.400293 0.612875
O O12 0.301223 0.624166 0.588387
O O13 0.169122 0.456976 0.659474
#
# Coordination Sequence:
#
# PCOD9508280 Si02
#       6
#    16  16  16  16   8  16
#     4  11  24  38  64  95 137 174 223 287 348 407
#     4  12  26  44  72 103 143 180 235 307 351 420
#     4  10  22  44  71  93 135 192 234 271 356 440
#     4  10  24  41  67 101 128 183 230 277 353 421
#     4  10  24  40  62 102 130 182 238 284 346 408
#     4  10  21  44  67  93 137 182 233 286 346 424
#
# _framework density 23.592075000000001
#
# number of rings (size 3 to 8) (size 9 to 14) (size 15 to 20)
#    0.000    1.455    1.818    2.727    2.545    6.909 
#    0.000    0.909    0.000    0.000    0.000    0.000 
#    0.000    0.000    0.000    0.000    0.000    0.000 
#
# Total GULP energy -245456.104134 kJ/mol
# GULP energy per Si atom -5578.547821 kJ/mol
# Density = 2.353838 g / cm^3
# Si number density = 23.592075 Si / 1000 Ang^3
#
#
#
# Elastic Constant Matrix: (Units=GPa)
#
#
# Indices 1 2 3 4 5 6 
#
# 1 97.6568 60.0341 28.0476 0.0000 0.0000 0.0000
# 2 60.0341 146.3086 19.5156 0.0000 0.0000 0.0000
# 3 28.0476 19.5156 78.9793 0.0000 0.0000 0.0000
# 4 0.0000 0.0000 0.0000 22.2470 0.0000 0.0000
# 5 0.0000 0.0000 0.0000 0.0000 32.0080 0.0000
# 6 0.0000 0.0000 0.0000 0.0000 0.0000 48.1652
#
#
#
# Elastic Compliance Matrix: (Units=1/GPa)
#
#
# Indices 1 2 3 4 5 6 
#
# 1 0.014757 -0.005539 -0.003872 0.000000 0.000000 0.000000
# 2 -0.005539 0.009147 -0.000293 0.000000 0.000000 0.000000
# 3 -0.003872 -0.000293 0.014109 0.000000 0.000000 0.000000
# 4 0.000000 0.000000 0.000000 0.044950 0.000000 0.000000
# 5 0.000000 0.000000 0.000000 0.000000 0.031242 0.000000
# 6 0.000000 0.000000 0.000000 0.000000 0.000000 0.020762
#
#
# Mechanical properties :
#
#
# Convention : Reuss Voigt Hill
#
# Bulk Modulus (GPa) = 53.74923 59.79324 56.77124
# Shear Modulus (GPa) = 31.13797 34.84053 32.98925
#
# Velocity S-wave (km/s) = 3.63691 3.84707 3.74347
# Velocity P-wave (km/s) = 6.36148 6.71810 6.54222
#
# Compressibility (1/GPa) = 0.01860492
#
# Stress axis : x y z
#
# Youngs Moduli (GPa) = 67.76518 109.32995 70.87669
#
# Poissons Ratio (x) = 0.60554 0.27443
# Poissons Ratio (y) = 0.37533 0.02078
# Poissons Ratio (z) = 0.26238 0.03205
#
# Static dielectric constant tensor:
#      x y z
#    x 1.965590 0.000000 0.000000 
#    y 0.000000 1.877820 0.000000 
#    z 0.000000 0.000000 1.991780 
# 
# From -- ./inp_files/12078.got.cif
#   From: 2010.05.17/outbox.cif.g08.bks.cpg/sg68_7_cif.got.tgz:12078.got - 2010.06.03 18:57:09.
