data_PCOD9508586
_publ_section_title
;
Structure prediction by ZEFSAII (Michael W. Deem and Ramdas Pophale) SiO2 
 PCOD9508586
Probable space group: C C C A
;
_chemical_formula_sum "Si O2"
_cell_formula_units_Z 88
_cell_length_a 29.608107
_cell_length_b 5.587459
_cell_length_c 25.967435
_cell_angle_alpha 90.000000
_cell_angle_beta 90.000000
_cell_angle_gamma 90.000000
_cell_volume 4295.898821
_symmetry_space_group_name_H-M "C C C A"
_symmetry_group_IT_number 68
_space_group.IT_coordinate_system_code '2'
_symmetry_cell_setting 'orthorhombic'
loop_
_space_group_symop_operation_xyz
x,y,z
-x,1/2-y,z
x,1/2-y,1/2-z
-x,y,1/2-z
-x,-y,-z
x,1/2+y,-z
-x,1/2+y,1/2+z
x,-y,1/2+z
1/2+x,1/2+y,z
1/2-x,-y,z
1/2+x,-y,1/2-z
1/2-x,1/2+y,1/2-z
1/2-x,1/2-y,-z
1/2+x,y,-z
1/2-x,y,1/2+z
1/2+x,1/2-y,1/2+z
loop_
_atom_site_type_symbol
_atom_site_label
_atom_site_fract_x
_atom_site_fract_y
_atom_site_fract_z
Si Si1 0.723287 0.748923 0.404868
Si Si2 0.363717 0.326792 0.970742
Si Si3 0.574432 0.906484 0.699083
Si Si4 0.500000 0.250000 0.826231
Si Si5 0.087209 0.993959 0.131010
Si Si6 0.340031 0.252670 0.692835
O O1 0.750000 0.500000 0.416320
O O2 0.687540 0.810462 0.449768
O O3 0.695729 0.699283 0.351949
O O4 0.750000 0.000000 0.397372
O O5 0.393729 0.404850 0.921841
O O6 0.371426 0.555186 0.008655
O O7 0.575329 0.750000 0.750000
O O8 0.573993 0.777121 0.643474
O O9 0.529084 0.057754 0.704176
O O10 0.620253 0.054955 0.698159
O O11 0.459277 0.371113 0.857310
O O12 0.128851 0.033767 0.171728
O O13 0.319171 0.250000 0.750000
#
# Coordination Sequence:
#
# PCOD9508586 Si02
#       6
#    16  16  16   8  16  16
#     4  11  26  43  70 104 137 171 221 286 344 407
#     4  11  26  46  74  98 130 177 230 285 349 411
#     4  11  22  39  66  95 135 185 225 271 330 403
#     4  10  24  39  60 100 138 174 222 286 335 388
#     4  10  23  41  65  93 134 177 225 276 335 397
#     4  10  22  40  63  94 136 183 224 259 330 409
#
# _framework density 20.484652000000001
#
# number of rings (size 3 to 8) (size 9 to 14) (size 15 to 20)
#    0.000    1.455    1.818    1.636   12.727    5.091 
#    0.000    0.909    0.000    0.000    0.000    0.000 
#    0.000    0.000    0.000    0.000    0.000    0.000 
#
# Total GULP energy -245069.702094 kJ/mol
# GULP energy per Si atom -5569.765957 kJ/mol
# Density = 2.043803 g / cm^3
# Si number density = 20.484652 Si / 1000 Ang^3
#
#
#
# Elastic Constant Matrix: (Units=GPa)
#
#
# Indices 1 2 3 4 5 6 
#
# 1 42.6786 28.2550 -18.7700 0.0000 0.0000 0.0000
# 2 28.2550 107.2338 22.3294 0.0000 0.0000 0.0000
# 3 -18.7700 22.3294 32.1006 0.0000 0.0000 0.0000
# 4 0.0000 0.0000 0.0000 32.1916 0.0000 0.0000
# 5 0.0000 0.0000 0.0000 0.0000 29.2493 0.0000
# 6 0.0000 0.0000 0.0000 0.0000 0.0000 79.0248
#
#
#
# Elastic Compliance Matrix: (Units=1/GPa)
#
#
# Indices 1 2 3 4 5 6 
#
# 1 0.076380 -0.034409 0.068597 0.000000 0.000000 0.000000
# 2 -0.034409 0.026406 -0.038489 0.000000 0.000000 0.000000
# 3 0.068597 -0.038489 0.098035 0.000000 0.000000 0.000000
# 4 0.000000 0.000000 0.000000 0.031064 0.000000 0.000000
# 5 0.000000 0.000000 0.000000 0.000000 0.034189 0.000000
# 6 0.000000 0.000000 0.000000 0.000000 0.000000 0.012654
#
#
# Mechanical properties :
#
#
# Convention : Reuss Voigt Hill
#
# Bulk Modulus (GPa) = 5.20239 27.29355 16.24797
# Shear Modulus (GPa) = 14.22861 38.10636 26.16749
#
# Velocity S-wave (km/s) = 2.63838 4.31773 3.57798
# Velocity P-wave (km/s) = 3.43898 6.18141 5.00182
#
# Compressibility (1/GPa) = 0.19221952
#
# Stress axis : x y z
#
# Youngs Moduli (GPa) = 13.09240 37.86948 10.20041
#
# Poissons Ratio (x) = 1.30307 -0.69972
# Poissons Ratio (y) = 0.45050 0.39260
# Poissons Ratio (z) = -0.89810 1.45754
#
# Static dielectric constant tensor:
#      x y z
#    x 1.701600 0.000000 0.000000 
#    y 0.000000 1.831150 0.000000 
#    z 0.000000 0.000000 1.740650 
# 
# From -- ./inp_files/42388.got.cif
#   From: 2010.05.17/outbox.cif.g08.bks.cpg/sg68_22_cif.got.tgz:42388.got - 2010.06.03 18:57:09.
