data_PCOD9508475
_publ_section_title
;
Structure prediction by ZEFSAII (Michael W. Deem and Ramdas Pophale) SiO2 
 PCOD9508475
Probable space group: C C C A
;
_chemical_formula_sum "Si O2"
_cell_formula_units_Z 80
_cell_length_a 16.681266
_cell_length_b 11.139405
_cell_length_c 19.395178
_cell_angle_alpha 90.000000
_cell_angle_beta 90.000000
_cell_angle_gamma 90.000000
_cell_volume 3603.999910
_symmetry_space_group_name_H-M "C C C A"
_symmetry_group_IT_number 68
_space_group.IT_coordinate_system_code '2'
_symmetry_cell_setting 'orthorhombic'
loop_
_space_group_symop_operation_xyz
x,y,z
-x,1/2-y,z
x,1/2-y,1/2-z
-x,y,1/2-z
-x,-y,-z
x,1/2+y,-z
-x,1/2+y,1/2+z
x,-y,1/2+z
1/2+x,1/2+y,z
1/2-x,-y,z
1/2+x,-y,1/2-z
1/2-x,1/2+y,1/2-z
1/2-x,1/2-y,-z
1/2+x,y,-z
1/2-x,y,1/2+z
1/2+x,1/2-y,1/2+z
loop_
_atom_site_type_symbol
_atom_site_label
_atom_site_fract_x
_atom_site_fract_y
_atom_site_fract_z
Si Si1 0.035612 0.378555 0.036614
Si Si2 0.158398 0.360387 0.658029
Si Si3 0.823290 0.081420 0.814082
Si Si4 0.227460 0.119882 0.472256
Si Si5 0.498161 0.004302 0.167787
O O1 0.000000 0.250000 0.011938
O O2 0.131652 0.378630 0.033175
O O3 0.016811 0.394782 0.117803
O O4 0.000000 0.500000 0.000000
O O5 0.174482 0.425886 0.730586
O O6 0.179066 0.221598 0.669259
O O7 0.214823 0.394566 0.594820
O O8 0.064248 0.393385 0.648453
O O9 0.750000 0.000000 0.836248
O O10 0.907295 0.041379 0.845868
O O11 0.250000 0.250000 0.500000
O O12 0.250000 0.000000 0.514376
O O13 0.500000 0.981484 0.250000
#
# Coordination Sequence:
#
# PCOD9508475 Si02
#       5
#    16  16  16  16  16
#     4  12  29  49  73 111 154 199 250 313 381 453
#     4  10  22  43  68 100 145 190 243 300 380 437
#     4  10  22  38  70 107 141 187 242 310 364 451
#     4  12  26  47  75 104 145 197 249 304 373 444
#     4  10  23  45  73 104 147 196 250 305 381 450
#
# _framework density 22.197558000000001
#
# number of rings (size 3 to 8) (size 9 to 14) (size 15 to 20)
#    0.000    1.200    2.000    2.400    8.400    3.600 
#    0.000    0.000    0.000    0.000    0.000    0.000 
#    0.000    0.000    0.000    0.000    0.000    0.000 
#
# Total GULP energy -223247.633715 kJ/mol
# GULP energy per Si atom -5581.190843 kJ/mol
# Density = 2.214704 g / cm^3
# Si number density = 22.197558 Si / 1000 Ang^3
#
#
#
# Elastic Constant Matrix: (Units=GPa)
#
#
# Indices 1 2 3 4 5 6 
#
# 1 236.9420 101.8922 60.2473 0.0000 0.0000 0.0000
# 2 101.8922 157.9286 42.0507 0.0000 0.0000 0.0000
# 3 60.2473 42.0507 96.9603 0.0000 0.0000 0.0000
# 4 0.0000 0.0000 0.0000 9.7209 0.0000 0.0000
# 5 0.0000 0.0000 0.0000 0.0000 9.3005 0.0000
# 6 0.0000 0.0000 0.0000 0.0000 0.0000 45.7043
#
#
#
# Elastic Compliance Matrix: (Units=1/GPa)
#
#
# Indices 1 2 3 4 5 6 
#
# 1 0.006313 -0.003424 -0.002438 0.000000 0.000000 0.000000
# 2 -0.003424 0.009016 -0.001783 0.000000 0.000000 0.000000
# 3 -0.002438 -0.001783 0.012601 0.000000 0.000000 0.000000
# 4 0.000000 0.000000 0.000000 0.102872 0.000000 0.000000
# 5 0.000000 0.000000 0.000000 0.000000 0.107521 0.000000
# 6 0.000000 0.000000 0.000000 0.000000 0.000000 0.021880
#
#
# Mechanical properties :
#
#
# Convention : Reuss Voigt Hill
#
# Bulk Modulus (GPa) = 79.10398 100.02346 89.56372
# Shear Modulus (GPa) = 17.87610 32.12118 24.99864
#
# Velocity S-wave (km/s) = 2.84089 3.80815 3.35951
# Velocity P-wave (km/s) = 6.81723 8.03084 7.44879
#
# Compressibility (1/GPa) = 0.01264159
#
# Stress axis : x y z
#
# Youngs Moduli (GPa) = 158.41534 110.92006 79.35762
#
# Poissons Ratio (x) = 0.37975 0.19344
# Poissons Ratio (y) = 0.54236 0.14146
# Poissons Ratio (z) = 0.38614 0.19773
#
# Static dielectric constant tensor:
#      x y z
#    x 1.164950 0.000000 0.000000 
#    y 0.000000 1.840810 0.000000 
#    z 0.000000 0.000000 1.916510 
# 
# From -- ./inp_files/45201.got.cif
#   From: 2010.05.17/outbox.cif.g08.bks.cpg/sg68_23_cif.got.tgz:45201.got - 2010.06.03 18:57:09.
