data_PCOD9508524
_publ_section_title
;
Structure prediction by ZEFSAII (Michael W. Deem and Ramdas Pophale) SiO2 
 PCOD9508524
Probable space group: C C C A
;
_chemical_formula_sum "Si O2"
_cell_formula_units_Z 88
_cell_length_a 16.799368
_cell_length_b 9.913852
_cell_length_c 24.039057
_cell_angle_alpha 90.000000
_cell_angle_beta 90.000000
_cell_angle_gamma 90.000000
_cell_volume 4003.619558
_symmetry_space_group_name_H-M "C C C A"
_symmetry_group_IT_number 68
_space_group.IT_coordinate_system_code '2'
_symmetry_cell_setting 'orthorhombic'
loop_
_space_group_symop_operation_xyz
x,y,z
-x,1/2-y,z
x,1/2-y,1/2-z
-x,y,1/2-z
-x,-y,-z
x,1/2+y,-z
-x,1/2+y,1/2+z
x,-y,1/2+z
1/2+x,1/2+y,z
1/2-x,-y,z
1/2+x,-y,1/2-z
1/2-x,1/2+y,1/2-z
1/2-x,1/2-y,-z
1/2+x,y,-z
1/2-x,y,1/2+z
1/2+x,1/2-y,1/2+z
loop_
_atom_site_type_symbol
_atom_site_label
_atom_site_fract_x
_atom_site_fract_y
_atom_site_fract_z
Si Si1 0.923644 0.474442 0.538759
Si Si2 0.440313 0.873633 0.658382
Si Si3 0.000000 0.924399 0.750000
Si Si4 0.363819 0.888630 0.332329
Si Si5 0.312286 0.195931 0.310983
Si Si6 0.096113 0.733197 0.548600
O O1 0.958089 0.437018 0.598880
O O2 0.874596 0.612562 0.544611
O O3 0.881821 0.352223 0.506125
O O4 0.000000 0.500000 0.500000
O O5 0.500000 0.750000 0.670403
O O6 0.449697 0.981624 0.707297
O O7 0.352938 0.809485 0.651638
O O8 0.936804 0.854528 0.708576
O O9 0.281961 0.818079 0.314485
O O10 0.379505 0.843230 0.395290
O O11 0.348928 0.049746 0.325766
O O12 0.334788 0.250000 0.250000
O O13 0.000000 0.750000 0.551324
#
# Coordination Sequence:
#
# PCOD9508524 Si02
#       6
#    16  16   8  16  16  16
#     4  10  22  39  66 100 135 175 232 297 359 416
#     4  12  21  38  70  99 133 183 242 284 350 444
#     4  12  21  40  73 104 132 181 245 294 344 437
#     4  11  25  42  67 100 143 175 236 299 352 418
#     4  11  24  44  65  99 139 190 226 288 361 432
#     4  10  22  42  65  99 132 177 229 292 355 420
#
# _framework density 21.980108999999999
#
# number of rings (size 3 to 8) (size 9 to 14) (size 15 to 20)
#    0.000    1.091    3.636    4.091    2.545    2.909 
#    0.000    1.818    0.000    0.000    0.000    0.000 
#    0.000    0.000    0.000    0.000    0.000    0.000 
#
# Total GULP energy -245832.087819 kJ/mol
# GULP energy per Si atom -5587.092905 kJ/mol
# Density = 2.193008 g / cm^3
# Si number density = 21.980109 Si / 1000 Ang^3
#
#
#
# Elastic Constant Matrix: (Units=GPa)
#
#
# Indices 1 2 3 4 5 6 
#
# 1 76.4194 25.2499 6.9487 0.0000 0.0000 0.0000
# 2 25.2499 80.0443 35.1671 0.0000 0.0000 0.0000
# 3 6.9487 35.1671 137.4804 0.0000 0.0000 0.0000
# 4 0.0000 0.0000 0.0000 22.0816 0.0000 0.0000
# 5 0.0000 0.0000 0.0000 0.0000 21.6511 0.0000
# 6 0.0000 0.0000 0.0000 0.0000 0.0000 25.3934
#
#
#
# Elastic Compliance Matrix: (Units=1/GPa)
#
#
# Indices 1 2 3 4 5 6 
#
# 1 0.014638 -0.004836 0.000497 0.000000 0.000000 0.000000
# 2 -0.004836 0.015673 -0.003765 0.000000 0.000000 0.000000
# 3 0.000497 -0.003765 0.008212 0.000000 0.000000 0.000000
# 4 0.000000 0.000000 0.000000 0.045287 0.000000 0.000000
# 5 0.000000 0.000000 0.000000 0.000000 0.046187 0.000000
# 6 0.000000 0.000000 0.000000 0.000000 0.000000 0.039380
#
#
# Mechanical properties :
#
#
# Convention : Reuss Voigt Hill
#
# Bulk Modulus (GPa) = 44.81173 47.63062 46.22118
# Shear Modulus (GPa) = 25.90377 28.93043 27.41710
#
# Velocity S-wave (km/s) = 3.43667 3.63190 3.53563
# Velocity P-wave (km/s) = 6.01492 6.26933 6.14344
#
# Compressibility (1/GPa) = 0.02231558
#
# Stress axis : x y z
#
# Youngs Moduli (GPa) = 68.31358 63.80566 121.77889
#
# Poissons Ratio (x) = 0.30857 -0.06055
# Poissons Ratio (y) = 0.33037 0.45845
# Poissons Ratio (z) = -0.03397 0.24020
#
# Static dielectric constant tensor:
#      x y z
#    x 1.851030 0.000000 0.000000 
#    y 0.000000 1.948640 0.000000 
#    z 0.000000 0.000000 1.777110 
# 
# From -- ./inp_files/39433.got.cif
#   From: 2010.05.17/outbox.cif.g08.bks.cpg/sg68_20_cif.got.tgz:39433.got - 2010.06.03 18:57:09.
