data_PCOD9508034
_publ_section_title
;
Structure prediction by ZEFSAII (Michael W. Deem and Ramdas Pophale) SiO2 
 PCOD9508034
Probable space group: C C C A
;
_chemical_formula_sum "Si O2"
_cell_formula_units_Z 56
_cell_length_a 7.112802
_cell_length_b 12.929152
_cell_length_c 26.052486
_cell_angle_alpha 90.000000
_cell_angle_beta 90.000000
_cell_angle_gamma 90.000000
_cell_volume 2395.851697
_symmetry_space_group_name_H-M "C C C A"
_symmetry_group_IT_number 68
_space_group.IT_coordinate_system_code '2'
_symmetry_cell_setting 'orthorhombic'
loop_
_space_group_symop_operation_xyz
x,y,z
-x,1/2-y,z
x,1/2-y,1/2-z
-x,y,1/2-z
-x,-y,-z
x,1/2+y,-z
-x,1/2+y,1/2+z
x,-y,1/2+z
1/2+x,1/2+y,z
1/2-x,-y,z
1/2+x,-y,1/2-z
1/2-x,1/2+y,1/2-z
1/2-x,1/2-y,-z
1/2+x,y,-z
1/2-x,y,1/2+z
1/2+x,1/2-y,1/2+z
loop_
_atom_site_type_symbol
_atom_site_label
_atom_site_fract_x
_atom_site_fract_y
_atom_site_fract_z
Si Si1 0.005731 0.428350 0.694354
Si Si2 0.712605 0.218887 0.558171
Si Si3 0.750000 0.500000 0.893522
Si Si4 0.774818 0.265265 0.168634
O O1 0.072107 0.495530 0.645583
O O2 0.160713 0.333149 0.691995
O O3 0.000000 0.480313 0.750000
O O4 0.806262 0.371235 0.690256
O O5 0.500000 0.250000 0.564412
O O6 0.750000 0.250000 0.500000
O O7 0.794720 0.272432 0.608914
O O8 0.746196 0.099234 0.570305
O O9 0.000000 0.250000 0.174079
#
# Coordination Sequence:
#
# PCOD9508034 Si02
#       4
#    16  16   8  16
#     4  10  21  40  65  93 134 182 220 282 346 403
#     4  10  23  42  67  98 131 181 225 284 356 406
#     4  10  24  46  64 100 148 168 238 290 332 434
#     4   9  19  39  65  97 134 172 229 283 336 415
#
# _framework density 23.373733000000001
#
# number of rings (size 3 to 8) (size 9 to 14) (size 15 to 20)
#    0.000    2.286    0.000    1.714    8.000    3.429 
#   15.429    0.000    0.000    0.000    0.000    0.000 
#    0.000    0.000    0.000    0.000    0.000    0.000 
#
# Total GULP energy -156168.821545 kJ/mol
# GULP energy per Si atom -5577.457912 kJ/mol
# Density = 2.332053 g / cm^3
# Si number density = 23.373733 Si / 1000 Ang^3
#
#
#
# Elastic Constant Matrix: (Units=GPa)
#
#
# Indices 1 2 3 4 5 6 
#
# 1 148.7476 4.9808 21.1577 0.0000 0.0000 0.0000
# 2 4.9808 73.4077 54.7358 0.0000 0.0000 0.0000
# 3 21.1577 54.7358 208.8085 0.0000 0.0000 0.0000
# 4 0.0000 0.0000 0.0000 28.2587 0.0000 0.0000
# 5 0.0000 0.0000 0.0000 0.0000 38.0322 0.0000
# 6 0.0000 0.0000 0.0000 0.0000 0.0000 31.6510
#
#
#
# Elastic Compliance Matrix: (Units=1/GPa)
#
#
# Indices 1 2 3 4 5 6 
#
# 1 0.006821 0.000065 -0.000708 0.000000 0.000000 0.000000
# 2 0.000065 0.016933 -0.004445 0.000000 0.000000 0.000000
# 3 -0.000708 -0.004445 0.006026 0.000000 0.000000 0.000000
# 4 0.000000 0.000000 0.000000 0.035387 0.000000 0.000000
# 5 0.000000 0.000000 0.000000 0.000000 0.026293 0.000000
# 6 0.000000 0.000000 0.000000 0.000000 0.000000 0.031595
#
#
# Mechanical properties :
#
#
# Convention : Reuss Voigt Hill
#
# Bulk Modulus (GPa) = 51.01092 65.85693 58.43392
# Shear Modulus (GPa) = 35.77393 42.92768 39.35081
#
# Velocity S-wave (km/s) = 3.91643 4.29018 4.10756
# Velocity P-wave (km/s) = 6.50558 7.26482 6.89566
#
# Compressibility (1/GPa) = 0.01960365
#
# Stress axis : x y z
#
# Youngs Moduli (GPa) = 146.59834 59.05738 165.94488
#
# Poissons Ratio (x) = -0.00386 0.11754
# Poissons Ratio (y) = -0.00957 0.73767
# Poissons Ratio (z) = 0.10384 0.26252
#
# Static dielectric constant tensor:
#      x y z
#    x 1.947210 0.000000 0.000000 
#    y 0.000000 1.887580 0.000000 
#    z 0.000000 0.000000 2.111610 
# 
# From -- ./inp_files/42666.got.cif
#   From: 2010.05.17/outbox.cif.g08.bks.cpg/sg68_22_cif.got.tgz:42666.got - 2010.06.03 18:57:09.
