data_PCOD9508314
_publ_section_title
;
Structure prediction by ZEFSAII (Michael W. Deem and Ramdas Pophale) SiO2 
 PCOD9508314
Probable space group: C C C A
;
_chemical_formula_sum "Si O2"
_cell_formula_units_Z 72
_cell_length_a 19.386346
_cell_length_b 10.954007
_cell_length_c 19.307637
_cell_angle_alpha 90.000000
_cell_angle_beta 90.000000
_cell_angle_gamma 90.000000
_cell_volume 4100.134456
_symmetry_space_group_name_H-M "C C C A"
_symmetry_group_IT_number 68
_space_group.IT_coordinate_system_code '2'
_symmetry_cell_setting 'orthorhombic'
loop_
_space_group_symop_operation_xyz
x,y,z
-x,1/2-y,z
x,1/2-y,1/2-z
-x,y,1/2-z
-x,-y,-z
x,1/2+y,-z
-x,1/2+y,1/2+z
x,-y,1/2+z
1/2+x,1/2+y,z
1/2-x,-y,z
1/2+x,-y,1/2-z
1/2-x,1/2+y,1/2-z
1/2-x,1/2-y,-z
1/2+x,y,-z
1/2-x,y,1/2+z
1/2+x,1/2-y,1/2+z
loop_
_atom_site_type_symbol
_atom_site_label
_atom_site_fract_x
_atom_site_fract_y
_atom_site_fract_z
Si Si1 0.671644 0.051806 0.348026
Si Si2 0.810835 0.098651 0.146763
Si Si3 0.204871 0.874426 0.004391
Si Si4 0.779457 0.250000 0.750000
Si Si5 0.578930 0.102661 0.757028
O O1 0.663425 0.113365 0.423567
O O2 0.673289 0.150454 0.286818
O O3 0.750000 0.000000 0.346180
O O4 0.616989 0.948389 0.325803
O O5 0.834119 0.127507 0.069016
O O6 0.771690 0.204775 0.189159
O O7 0.874284 0.057820 0.193309
O O8 0.750000 0.000000 0.143138
O O9 0.250000 0.000000 0.003956
O O10 0.250000 0.750000 0.000000
O O11 0.579719 0.250000 0.750000
O O12 0.500000 0.062463 0.750000
#
# Coordination Sequence:
#
# PCOD9508314 Si02
#       5
#    16  16  16   8  16
#     4  11  20  35  58  85 112 148 193 238 292 347
#     4  11  19  34  56  86 112 138 184 246 286 333
#     4  10  22  33  54  90 121 146 186 243 299 348
#     4  12  16  30  62  82 108 138 188 234 290 320
#     4  11  22  36  57  83 112 152 200 240 282 344
#
# _framework density 17.560397999999999
#
# number of rings (size 3 to 8) (size 9 to 14) (size 15 to 20)
#    0.000    1.111    7.778    0.000    3.111    0.000 
#    0.000    1.667    0.000    0.000    0.000    0.000 
#    0.000    0.000    0.000    0.000    0.000    0.000 
#
# Total GULP energy -200407.512316 kJ/mol
# GULP energy per Si atom -5566.875342 kJ/mol
# Density = 1.752043 g / cm^3
# Si number density = 17.560398 Si / 1000 Ang^3
#
#
#
# Elastic Constant Matrix: (Units=GPa)
#
#
# Indices 1 2 3 4 5 6 
#
# 1 92.3517 19.9330 37.3300 0.0000 0.0000 0.0000
# 2 19.9330 78.3437 40.5810 0.0000 0.0000 0.0000
# 3 37.3300 40.5810 157.7560 0.0000 0.0000 0.0000
# 4 0.0000 0.0000 0.0000 20.0253 0.0000 0.0000
# 5 0.0000 0.0000 0.0000 0.0000 -4.6504 0.0000
# 6 0.0000 0.0000 0.0000 0.0000 0.0000 17.9187
#
#
#
# Elastic Compliance Matrix: (Units=1/GPa)
#
#
# Indices 1 2 3 4 5 6 
#
# 1 0.012203 -0.001856 -0.002410 0.000000 0.000000 0.000000
# 2 -0.001856 0.015009 -0.003422 0.000000 0.000000 0.000000
# 3 -0.002410 -0.003422 0.007789 0.000000 0.000000 0.000000
# 4 0.000000 0.000000 0.000000 0.049937 0.000000 0.000000
# 5 0.000000 0.000000 0.000000 0.000000 -0.215036 0.000000
# 6 0.000000 0.000000 0.000000 0.000000 0.000000 0.055808
#
#
# Mechanical properties :
#
#
# Convention : Reuss Voigt Hill
#
# Bulk Modulus (GPa) = 50.95502 58.23770 54.59636
# Shear Modulus (GPa) = -95.46951 22.03255 -36.71848
#
# Velocity S-wave (km/s) = -7.38135 3.54598 -4.57769
# Velocity P-wave (km/s) = 6.60044 7.07117 1.79383
#
# Compressibility (1/GPa) = 0.01962515
#
# Stress axis : x y z
#
# Youngs Moduli (GPa) = 81.94674 66.62696 128.38012
#
# Poissons Ratio (x) = 0.12369 0.30941
# Poissons Ratio (y) = 0.15213 0.43926
# Poissons Ratio (z) = 0.19750 0.22797
#
# Static dielectric constant tensor:
#      x y z
#    x 1.710540 0.000000 0.000000 
#    y 0.000000 1.614860 0.000000 
#    z 0.000000 0.000000 1.664830 
# 
# From -- ./inp_files/37327.got.cif
#   From: 2010.05.17/outbox.cif.g08.bks.cpg/sg68_19_cif.got.tgz:37327.got - 2010.06.03 18:57:09.
