data_PCOD9508126
_publ_section_title
;
Structure prediction by ZEFSAII (Michael W. Deem and Ramdas Pophale) SiO2 
 PCOD9508126
Probable space group: C C C A
;
_chemical_formula_sum "Si O2"
_cell_formula_units_Z 96
_cell_length_a 12.882020
_cell_length_b 25.611382
_cell_length_c 14.372024
_cell_angle_alpha 90.000000
_cell_angle_beta 90.000000
_cell_angle_gamma 90.000000
_cell_volume 4741.709207
_symmetry_space_group_name_H-M "C C C A"
_symmetry_group_IT_number 68
_space_group.IT_coordinate_system_code '2'
_symmetry_cell_setting 'orthorhombic'
loop_
_space_group_symop_operation_xyz
x,y,z
-x,1/2-y,z
x,1/2-y,1/2-z
-x,y,1/2-z
-x,-y,-z
x,1/2+y,-z
-x,1/2+y,1/2+z
x,-y,1/2+z
1/2+x,1/2+y,z
1/2-x,-y,z
1/2+x,-y,1/2-z
1/2-x,1/2+y,1/2-z
1/2-x,1/2-y,-z
1/2+x,y,-z
1/2-x,y,1/2+z
1/2+x,1/2-y,1/2+z
loop_
_atom_site_type_symbol
_atom_site_label
_atom_site_fract_x
_atom_site_fract_y
_atom_site_fract_z
Si Si1 0.069466 0.641625 0.524688
Si Si2 0.720027 0.638969 0.314072
Si Si3 0.250000 0.000000 0.048247
Si Si4 0.500000 0.075136 0.250000
Si Si5 0.107640 0.926412 0.425082
Si Si6 0.669552 0.750000 0.250000
Si Si7 0.188033 0.103272 0.639487
Si Si8 0.000000 0.250000 0.405264
O O1 0.115823 0.629360 0.626596
O O2 0.166374 0.636174 0.452848
O O3 0.979019 0.603669 0.486361
O O4 0.030138 0.700519 0.533091
O O5 0.811247 0.614010 0.377297
O O6 0.730982 0.700513 0.290826
O O7 0.719846 0.614293 0.210811
O O8 0.306723 0.043281 0.109470
O O9 0.169735 0.032134 0.985483
O O10 0.446413 0.046139 0.335781
O O11 0.585757 0.110872 0.298658
O O12 0.593789 0.765846 0.335490
#
# Coordination Sequence:
#
# PCOD9508126 Si02
#       8
#    16  16   8   8  16   8  16   8
#     4  10  21  41  66  92 128 167 201 268 317 371
#     4  10  21  41  65  91 131 166 202 268 313 375
#     4  12  24  40  64  94 126 166 228 256 294 392
#     4   8  20  40  60  83 124 164 206 261 308 356
#     4  10  22  41  65  90 131 165 215 262 304 373
#     4   9  20  36  62  95 128 160 216 251 316 387
#     4  10  22  41  60  92 127 167 214 260 305 371
#     4   9  20  36  62  95 128 160 214 255 312 391
#
# _framework density 20.245864999999998
#
# number of rings (size 3 to 8) (size 9 to 14) (size 15 to 20)
#    0.000    2.167    1.667    0.000    2.333    6.667 
#    3.000    3.333    3.667    6.000    0.000    0.000 
#    0.000    0.000    0.000    0.000    0.000    0.000 
#
# Total GULP energy -267358.744512 kJ/mol
# GULP energy per Si atom -5569.973844 kJ/mol
# Density = 2.019978 g / cm^3
# Si number density = 20.245865 Si / 1000 Ang^3
#
#
#
# Elastic Constant Matrix: (Units=GPa)
#
#
# Indices 1 2 3 4 5 6 
#
# 1 65.0274 52.1493 47.2843 0.0000 0.0000 0.0000
# 2 52.1493 109.8617 82.3850 0.0000 0.0000 0.0000
# 3 47.2843 82.3850 119.9000 0.0000 0.0000 0.0000
# 4 0.0000 0.0000 0.0000 67.6561 0.0000 0.0000
# 5 0.0000 0.0000 0.0000 0.0000 27.2920 0.0000
# 6 0.0000 0.0000 0.0000 0.0000 0.0000 -235.9602
#
#
#
# Elastic Compliance Matrix: (Units=1/GPa)
#
#
# Indices 1 2 3 4 5 6 
#
# 1 0.025561 -0.009436 -0.003597 0.000000 0.000000 0.000000
# 2 -0.009436 0.022262 -0.011575 0.000000 0.000000 0.000000
# 3 -0.003597 -0.011575 0.017712 0.000000 0.000000 0.000000
# 4 0.000000 0.000000 0.000000 0.014781 0.000000 0.000000
# 5 0.000000 0.000000 0.000000 0.000000 0.036641 0.000000
# 6 0.000000 0.000000 0.000000 0.000000 0.000000 -0.004238
#
#
# Mechanical properties :
#
#
# Convention : Reuss Voigt Hill
#
# Bulk Modulus (GPa) = 61.27843 73.15847 67.21845
# Shear Modulus (GPa) = 29.87348 -20.67107 4.60121
#
# Velocity S-wave (km/s) = 3.84544 -3.19878 1.50917
# Velocity P-wave (km/s) = 7.07456 4.75085 6.02577
#
# Compressibility (1/GPa) = 0.01631896
#
# Stress axis : x y z
#
# Youngs Moduli (GPa) = 39.12243 44.92059 56.45926
#
# Poissons Ratio (x) = 0.42388 0.20306
# Poissons Ratio (y) = 0.36917 0.65351
# Poissons Ratio (z) = 0.14070 0.51995
#
# Static dielectric constant tensor:
#      x y z
#    x 1.786410 0.000000 0.000000 
#    y 0.000000 1.686820 0.000000 
#    z 0.000000 0.000000 1.762380 
# 
# From -- ./inp_files/22445.got.cif
#   From: 2010.05.17/outbox.cif.g08.bks.cpg/sg68_12_cif.got.tgz:22445.got - 2010.06.03 18:57:09.
