data_PCOD9508620
_publ_section_title
;
Structure prediction by ZEFSAII (Michael W. Deem and Ramdas Pophale) SiO2 
 PCOD9508620
Probable space group: C C C A
;
_chemical_formula_sum "Si O2"
_cell_formula_units_Z 72
_cell_length_a 10.866135
_cell_length_b 19.332206
_cell_length_c 12.871292
_cell_angle_alpha 90.000000
_cell_angle_beta 90.000000
_cell_angle_gamma 90.000000
_cell_volume 2703.825462
_symmetry_space_group_name_H-M "C C C A"
_symmetry_group_IT_number 68
_space_group.IT_coordinate_system_code '2'
_symmetry_cell_setting 'orthorhombic'
loop_
_space_group_symop_operation_xyz
x,y,z
-x,1/2-y,z
x,1/2-y,1/2-z
-x,y,1/2-z
-x,-y,-z
x,1/2+y,-z
-x,1/2+y,1/2+z
x,-y,1/2+z
1/2+x,1/2+y,z
1/2-x,-y,z
1/2+x,-y,1/2-z
1/2-x,1/2+y,1/2-z
1/2-x,1/2-y,-z
1/2+x,y,-z
1/2-x,y,1/2+z
1/2+x,1/2-y,1/2+z
loop_
_atom_site_type_symbol
_atom_site_label
_atom_site_fract_x
_atom_site_fract_y
_atom_site_fract_z
Si Si1 0.500000 0.250000 0.090330
Si Si2 0.250000 0.500000 0.475903
Si Si3 0.913311 0.125112 0.467448
Si Si4 0.633313 0.566453 0.720915
Si Si5 0.750703 0.200860 0.822179
Si Si6 0.500000 0.563141 0.250000
O O1 0.627661 0.256308 0.150684
O O2 0.501595 0.175789 0.032198
O O3 0.156151 0.441184 0.520088
O O4 0.338715 0.455121 0.398992
O O5 0.809723 0.178167 0.428472
O O6 0.975937 0.100529 0.358922
O O7 0.500000 0.596927 0.750000
O O8 0.724169 0.629435 0.739138
O O9 0.615731 0.489660 0.768217
O O10 0.669373 0.250000 0.750000
#
# Coordination Sequence:
#
# PCOD9508620 Si02
#       6
#     8   8  16  16  16   8
#     4  12  25  39  62 100 138 170 214 271 343 398
#     4   8  16  36  58  86 126 166 196 276 314 380
#     4  10  22  40  66  94 134 162 226 273 332 387
#     4   8  15  32  60  85 112 157 215 249 307 375
#     4  11  23  40  66  88 128 176 214 259 325 402
#     4   8  18  37  65  92 118 164 214 270 316 382
#
# _framework density 26.62894
#
# number of rings (size 3 to 8) (size 9 to 14) (size 15 to 20)
#    0.667    1.778    0.000    2.333    3.111    0.000 
#    0.000   10.000    0.000    0.000    0.000    0.000 
#    0.000    0.000    0.000    0.000    0.000    0.000 
#
# Total GULP energy -200679.570691 kJ/mol
# GULP energy per Si atom -5574.432519 kJ/mol
# Density = 2.656833 g / cm^3
# Si number density = 26.628940 Si / 1000 Ang^3
#
#
#
# Elastic Constant Matrix: (Units=GPa)
#
#
# Indices 1 2 3 4 5 6 
#
# 1 42.3933 10.2437 12.1669 0.0000 0.0000 0.0000
# 2 10.2437 165.4751 57.7468 0.0000 0.0000 0.0000
# 3 12.1669 57.7468 81.5617 0.0000 0.0000 0.0000
# 4 0.0000 0.0000 0.0000 42.2843 0.0000 0.0000
# 5 0.0000 0.0000 0.0000 0.0000 16.3196 0.0000
# 6 0.0000 0.0000 0.0000 0.0000 0.0000 57.9940
#
#
#
# Elastic Compliance Matrix: (Units=1/GPa)
#
#
# Indices 1 2 3 4 5 6 
#
# 1 0.024657 -0.000322 -0.003450 0.000000 0.000000 0.000000
# 2 -0.000322 0.008031 -0.005638 0.000000 0.000000 0.000000
# 3 -0.003450 -0.005638 0.016767 0.000000 0.000000 0.000000
# 4 0.000000 0.000000 0.000000 0.023649 0.000000 0.000000
# 5 0.000000 0.000000 0.000000 0.000000 0.061276 0.000000
# 6 0.000000 0.000000 0.000000 0.000000 0.000000 0.017243
#
#
# Mechanical properties :
#
#
# Convention : Reuss Voigt Hill
#
# Bulk Modulus (GPa) = 32.64332 49.97166 41.30749
# Shear Modulus (GPa) = 27.67727 37.27112 32.47420
#
# Velocity S-wave (km/s) = 3.22742 3.74524 3.49593
# Velocity P-wave (km/s) = 5.11601 6.12447 5.64281
#
# Compressibility (1/GPa) = 0.03063414
#
# Stress axis : x y z
#
# Youngs Moduli (GPa) = 40.55703 124.52422 59.64166
#
# Poissons Ratio (x) = 0.04015 0.20575
# Poissons Ratio (y) = 0.01308 0.33624
# Poissons Ratio (z) = 0.13991 0.70202
#
# Static dielectric constant tensor:
#      x y z
#    x 2.247420 0.000000 0.000000 
#    y 0.000000 2.126860 0.000000 
#    z 0.000000 0.000000 2.103520 
# 
# From -- ./inp_files/22079.got.cif
#   From: 2010.05.17/outbox.cif.g08.bks.cpg/sg68_12_cif.got.tgz:22079.got - 2010.06.03 18:57:09.
