data_PCOD9508239
_publ_section_title
;
Structure prediction by ZEFSAII (Michael W. Deem and Ramdas Pophale) SiO2 
 PCOD9508239
Probable space group: C C C A
;
_chemical_formula_sum "Si O2"
_cell_formula_units_Z 104
_cell_length_a 9.868144
_cell_length_b 22.482176
_cell_length_c 21.291248
_cell_angle_alpha 90.000000
_cell_angle_beta 90.000000
_cell_angle_gamma 90.000000
_cell_volume 4723.619864
_symmetry_space_group_name_H-M "C C C A"
_symmetry_group_IT_number 68
_space_group.IT_coordinate_system_code '2'
_symmetry_cell_setting 'orthorhombic'
loop_
_space_group_symop_operation_xyz
x,y,z
-x,1/2-y,z
x,1/2-y,1/2-z
-x,y,1/2-z
-x,-y,-z
x,1/2+y,-z
-x,1/2+y,1/2+z
x,-y,1/2+z
1/2+x,1/2+y,z
1/2-x,-y,z
1/2+x,-y,1/2-z
1/2-x,1/2+y,1/2-z
1/2-x,1/2-y,-z
1/2+x,y,-z
1/2-x,y,1/2+z
1/2+x,1/2-y,1/2+z
loop_
_atom_site_type_symbol
_atom_site_label
_atom_site_fract_x
_atom_site_fract_y
_atom_site_fract_z
Si Si1 0.474739 0.493157 0.073947
Si Si2 0.544193 0.181127 0.434378
Si Si3 0.775701 0.320164 0.985495
Si Si4 0.615108 0.187545 0.288998
Si Si5 0.159817 0.105485 0.240366
Si Si6 0.250000 0.000000 0.149024
Si Si7 0.228936 0.907735 0.883404
O O1 0.618803 0.482703 0.107612
O O2 0.364034 0.442897 0.093770
O O3 0.400703 0.553506 0.096692
O O4 0.500000 0.500000 0.000000
O O5 0.500000 0.250000 0.444471
O O6 0.682203 0.153430 0.460452
O O7 0.428239 0.156759 0.481386
O O8 0.556815 0.182306 0.359401
O O9 0.724632 0.343360 0.917607
O O10 0.750000 0.250000 0.000000
O O11 0.626077 0.250000 0.250000
O O12 0.500000 0.152336 0.250000
O O13 0.764809 0.161938 0.288712
O O14 0.198096 0.051948 0.194623
O O15 0.225742 0.096978 0.308917
O O16 0.000000 0.111275 0.250000
#
# Coordination Sequence:
#
# PCOD9508239 Si02
#       7
#    16  16  16  16  16   8  16
#     4  11  26  47  74 107 147 192 245 313 367 449
#     4  10  21  43  66 102 139 189 238 296 362 439
#     4  10  24  41  71 102 145 184 241 297 370 449
#     4  11  24  44  75 104 144 192 252 307 371 452
#     4  12  28  46  75 108 148 196 248 313 376 453
#     4  12  26  48  76 114 146 200 258 302 396 448
#     4  11  25  46  71 105 150 186 245 310 371 438
#
# _framework density 22.017012000000001
#
# number of rings (size 3 to 8) (size 9 to 14) (size 15 to 20)
#    0.000    1.077    3.077    2.769    8.615    2.769 
#    0.000    0.000    0.000    0.000    0.000    0.000 
#    0.000    0.000    0.000    0.000    0.000    0.000 
#
# Total GULP energy -289618.366371 kJ/mol
# GULP energy per Si atom -5569.583969 kJ/mol
# Density = 2.196690 g / cm^3
# Si number density = 22.017012 Si / 1000 Ang^3
#
#
#
# Elastic Constant Matrix: (Units=GPa)
#
#
# Indices 1 2 3 4 5 6 
#
# 1 181.9372 34.8667 70.3529 0.0000 0.0000 0.0000
# 2 34.8667 68.9209 10.1838 0.0000 0.0000 0.0000
# 3 70.3529 10.1838 155.8595 0.0000 0.0000 0.0000
# 4 0.0000 0.0000 0.0000 28.8392 0.0000 0.0000
# 5 0.0000 0.0000 0.0000 0.0000 45.2931 0.0000
# 6 0.0000 0.0000 0.0000 0.0000 0.0000 12.5273
#
#
#
# Elastic Compliance Matrix: (Units=1/GPa)
#
#
# Indices 1 2 3 4 5 6 
#
# 1 0.007312 -0.003243 -0.003089 0.000000 0.000000 0.000000
# 2 -0.003243 0.016089 0.000413 0.000000 0.000000 0.000000
# 3 -0.003089 0.000413 0.007783 0.000000 0.000000 0.000000
# 4 0.000000 0.000000 0.000000 0.034675 0.000000 0.000000
# 5 0.000000 0.000000 0.000000 0.000000 0.022078 0.000000
# 6 0.000000 0.000000 0.000000 0.000000 0.000000 0.079825
#
#
# Mechanical properties :
#
#
# Convention : Reuss Voigt Hill
#
# Bulk Modulus (GPa) = 51.68929 70.83606 61.26268
# Shear Modulus (GPa) = 26.87444 36.75285 31.81364
#
# Velocity S-wave (km/s) = 3.49753 4.09013 3.80538
# Velocity P-wave (km/s) = 6.31175 7.38571 6.86975
#
# Compressibility (1/GPa) = 0.01934637
#
# Stress axis : x y z
#
# Youngs Moduli (GPa) = 136.75672 62.15441 128.48001
#
# Poissons Ratio (x) = 0.20156 0.39685
# Poissons Ratio (y) = 0.44348 -0.05300
# Poissons Ratio (z) = 0.42241 -0.02564
#
# Static dielectric constant tensor:
#      x y z
#    x 1.951230 0.000000 0.000000 
#    y 0.000000 1.666320 0.000000 
#    z 0.000000 0.000000 1.794630 
# 
# From -- ./inp_files/36557.got.cif
#   From: 2010.05.17/outbox.cif.g08.bks.cpg/sg68_19_cif.got.tgz:36557.got - 2010.06.03 18:57:09.
