data_PCOD9508798
_publ_section_title
;
Structure prediction by ZEFSAII (Michael W. Deem and Ramdas Pophale) SiO2 
 PCOD9508798
Probable space group: C C C A
;
_chemical_formula_sum "Si O2"
_cell_formula_units_Z 88
_cell_length_a 25.110259
_cell_length_b 9.883780
_cell_length_c 15.095136
_cell_angle_alpha 90.000000
_cell_angle_beta 90.000000
_cell_angle_gamma 90.000000
_cell_volume 3746.375395
_symmetry_space_group_name_H-M "C C C A"
_symmetry_group_IT_number 68
_space_group.IT_coordinate_system_code '2'
_symmetry_cell_setting 'orthorhombic'
loop_
_space_group_symop_operation_xyz
x,y,z
-x,1/2-y,z
x,1/2-y,1/2-z
-x,y,1/2-z
-x,-y,-z
x,1/2+y,-z
-x,1/2+y,1/2+z
x,-y,1/2+z
1/2+x,1/2+y,z
1/2-x,-y,z
1/2+x,-y,1/2-z
1/2-x,1/2+y,1/2-z
1/2-x,1/2-y,-z
1/2+x,y,-z
1/2-x,y,1/2+z
1/2+x,1/2-y,1/2+z
loop_
_atom_site_type_symbol
_atom_site_label
_atom_site_fract_x
_atom_site_fract_y
_atom_site_fract_z
Si Si1 0.627094 0.042883 0.536951
Si Si2 0.247225 0.750000 0.250000
Si Si3 0.052379 0.401750 0.290017
Si Si4 0.944999 0.199676 0.481742
Si Si5 0.709438 0.880703 0.886148
Si Si6 0.832432 0.514307 0.772376
O O1 0.586454 0.166995 0.548780
O O2 0.660608 0.088593 0.450276
O O3 0.662309 0.023606 0.623605
O O4 0.594210 0.903086 0.530628
O O5 0.235284 0.737677 0.134390
O O6 0.292585 0.627854 0.260297
O O7 0.056153 0.250000 0.250000
O O8 0.041469 0.384053 0.393354
O O9 0.108315 0.469811 0.267682
O O10 0.000000 0.470311 0.250000
O O11 0.000000 0.250000 0.525564
O O12 0.750000 0.000000 0.909045
O O13 0.692318 0.883320 0.778132
#
# Coordination Sequence:
#
# PCOD9508798 Si02
#       6
#    16   8  16  16  16  16
#     4  12  26  41  71  98 136 174 220 278 331 402
#     4  10  22  42  67  88 133 178 224 284 328 402
#     4  11  18  36  68  93 120 172 227 267 315 393
#     4  12  24  43  66 102 135 171 219 274 330 398
#     4  10  25  42  64  95 133 173 227 278 334 400
#     4  11  21  42  64  95 130 173 224 272 336 395
#
# _framework density 23.489370999999998
#
# number of rings (size 3 to 8) (size 9 to 14) (size 15 to 20)
#    0.000    0.909    6.364    0.545    5.091    2.909 
#    0.000    0.000    0.000    1.091    0.000    0.000 
#    0.000    0.000    0.000    0.000    0.000    0.000 
#
# Total GULP energy -245090.396582 kJ/mol
# GULP energy per Si atom -5570.236286 kJ/mol
# Density = 2.343591 g / cm^3
# Si number density = 23.489371 Si / 1000 Ang^3
#
#
#
# Elastic Constant Matrix: (Units=GPa)
#
#
# Indices 1 2 3 4 5 6 
#
# 1 167.4058 27.8569 37.0250 0.0000 0.0000 0.0000
# 2 27.8569 75.9520 -4.4047 0.0000 0.0000 0.0000
# 3 37.0250 -4.4047 80.4461 0.0000 0.0000 0.0000
# 4 0.0000 0.0000 0.0000 10.5967 0.0000 0.0000
# 5 0.0000 0.0000 0.0000 0.0000 -63.5737 0.0000
# 6 0.0000 0.0000 0.0000 0.0000 0.0000 30.9635
#
#
#
# Elastic Compliance Matrix: (Units=1/GPa)
#
#
# Indices 1 2 3 4 5 6 
#
# 1 0.007217 -0.002848 -0.003477 0.000000 0.000000 0.000000
# 2 -0.002848 0.014332 0.002096 0.000000 0.000000 0.000000
# 3 -0.003477 0.002096 0.014146 0.000000 0.000000 0.000000
# 4 0.000000 0.000000 0.000000 0.094369 0.000000 0.000000
# 5 0.000000 0.000000 0.000000 0.000000 -0.015730 0.000000
# 6 0.000000 0.000000 0.000000 0.000000 0.000000 0.032296
#
#
# Mechanical properties :
#
#
# Convention : Reuss Voigt Hill
#
# Bulk Modulus (GPa) = 36.71777 49.41757 43.06767
# Shear Modulus (GPa) = 30.45652 13.15243 21.80447
#
# Velocity S-wave (km/s) = 3.60475 2.36885 3.05006
# Velocity P-wave (km/s) = 5.74380 5.34471 5.54784
#
# Compressibility (1/GPa) = 0.02723477
#
# Stress axis : x y z
#
# Youngs Moduli (GPa) = 138.56945 69.77156 70.69191
#
# Poissons Ratio (x) = 0.19874 0.24582
# Poissons Ratio (y) = 0.39471 -0.14815
# Poissons Ratio (z) = 0.48186 -0.14623
#
# Static dielectric constant tensor:
#      x y z
#    x 1.937290 0.000000 0.000000 
#    y 0.000000 1.916460 0.000000 
#    z 0.000000 0.000000 2.004030 
# 
# From -- ./inp_files/25284.got.cif
#   From: 2010.05.17/outbox.cif.g08.bks.cpg/sg68_13_cif.got.tgz:25284.got - 2010.06.03 18:57:09.
