data_PCOD9508433
_publ_section_title
;
Structure prediction by ZEFSAII (Michael W. Deem and Ramdas Pophale) SiO2 
 PCOD9508433
Probable space group: C C C A
;
_chemical_formula_sum "Si O2"
_cell_formula_units_Z 128
_cell_length_a 12.529074
_cell_length_b 24.950716
_cell_length_c 22.299654
_cell_angle_alpha 90.000000
_cell_angle_beta 90.000000
_cell_angle_gamma 90.000000
_cell_volume 6971.080724
_symmetry_space_group_name_H-M "C C C A"
_symmetry_group_IT_number 68
_space_group.IT_coordinate_system_code '2'
_symmetry_cell_setting 'orthorhombic'
loop_
_space_group_symop_operation_xyz
x,y,z
-x,1/2-y,z
x,1/2-y,1/2-z
-x,y,1/2-z
-x,-y,-z
x,1/2+y,-z
-x,1/2+y,1/2+z
x,-y,1/2+z
1/2+x,1/2+y,z
1/2-x,-y,z
1/2+x,-y,1/2-z
1/2-x,1/2+y,1/2-z
1/2-x,1/2-y,-z
1/2+x,y,-z
1/2-x,y,1/2+z
1/2+x,1/2-y,1/2+z
loop_
_atom_site_type_symbol
_atom_site_label
_atom_site_fract_x
_atom_site_fract_y
_atom_site_fract_z
Si Si1 0.884300 0.276742 0.836491
Si Si2 0.888947 0.391595 0.231310
Si Si3 0.652045 0.874185 0.587581
Si Si4 0.416591 0.084040 0.118974
Si Si5 0.183186 0.053611 0.347919
Si Si6 0.675042 0.330246 0.213499
Si Si7 0.952504 0.961111 0.880964
Si Si8 0.273315 0.560280 0.475926
O O1 0.854510 0.312149 0.893723
O O2 0.812834 0.224997 0.823212
O O3 0.881457 0.313823 0.776388
O O4 0.000000 0.250000 0.842906
O O5 0.862741 0.435432 0.282052
O O6 0.790740 0.352365 0.228420
O O7 0.907322 0.421675 0.169337
O O8 0.000000 0.364677 0.250000
O O9 0.531046 0.896287 0.593970
O O10 0.734050 0.900337 0.634911
O O11 0.701141 0.895156 0.525398
O O12 0.382548 0.124647 0.172345
O O13 0.322490 0.078935 0.068731
O O14 0.434914 0.022586 0.139345
O O15 0.078153 0.049653 0.389314
O O16 0.250000 0.000000 0.350110
O O17 0.881251 0.949782 0.938571
O O18 0.250000 0.500000 0.501244
#
# Coordination Sequence:
#
# PCOD9508433 Si02
#       8
#    16  16  16  16  16  16  16  16
#     4  11  24  41  64  94 121 154 206 271 316 367
#     4  10  22  38  61  91 130 163 199 251 316 382
#     4  12  24  40  62  90 124 165 210 264 309 359
#     4  11  23  38  64  95 122 172 205 254 310 372
#     4  11  22  36  56  93 130 163 203 252 303 374
#     4  11  21  40  66  90 122 156 208 259 319 371
#     4  10  22  40  60  90 134 169 203 242 307 380
#     4  10  24  40  63  90 129 171 213 250 300 381
#
# _framework density 18.361571000000001
#
# number of rings (size 3 to 8) (size 9 to 14) (size 15 to 20)
#    0.000    1.250    5.000    1.125    3.500    1.000 
#    2.250    1.875    0.000    0.000    0.000    0.000 
#    0.000    0.000    0.000    0.000    0.000    0.000 
#
# Total GULP energy -357070.522994 kJ/mol
# GULP energy per Si atom -5579.226922 kJ/mol
# Density = 1.831978 g / cm^3
# Si number density = 18.361571 Si / 1000 Ang^3
#
#
#
# Elastic Constant Matrix: (Units=GPa)
#
#
# Indices 1 2 3 4 5 6 
#
# 1 118.3478 30.9332 27.7994 0.0000 0.0000 0.0000
# 2 30.9332 96.2792 36.4622 0.0000 0.0000 0.0000
# 3 27.7994 36.4622 56.3020 0.0000 0.0000 0.0000
# 4 0.0000 0.0000 0.0000 31.1788 0.0000 0.0000
# 5 0.0000 0.0000 0.0000 0.0000 22.8807 0.0000
# 6 0.0000 0.0000 0.0000 0.0000 0.0000 32.8395
#
#
#
# Elastic Compliance Matrix: (Units=1/GPa)
#
#
# Indices 1 2 3 4 5 6 
#
# 1 0.009773 -0.001739 -0.003699 0.000000 0.000000 0.000000
# 2 -0.001739 0.014071 -0.008254 0.000000 0.000000 0.000000
# 3 -0.003699 -0.008254 0.024933 0.000000 0.000000 0.000000
# 4 0.000000 0.000000 0.000000 0.032073 0.000000 0.000000
# 5 0.000000 0.000000 0.000000 0.000000 0.043705 0.000000
# 6 0.000000 0.000000 0.000000 0.000000 0.000000 0.030451
#
#
# Mechanical properties :
#
#
# Convention : Reuss Voigt Hill
#
# Bulk Modulus (GPa) = 46.74453 51.25760 49.00106
# Shear Modulus (GPa) = 26.38211 29.09545 27.73878
#
# Velocity S-wave (km/s) = 3.79464 3.98500 3.89099
# Velocity P-wave (km/s) = 6.68671 7.01070 6.85062
#
# Compressibility (1/GPa) = 0.02139288
#
# Stress axis : x y z
#
# Youngs Moduli (GPa) = 102.32105 71.06771 40.10687
#
# Poissons Ratio (x) = 0.12359 0.14837
# Poissons Ratio (y) = 0.17794 0.33104
# Poissons Ratio (z) = 0.37852 0.58660
#
# Static dielectric constant tensor:
#      x y z
#    x 1.654420 0.000000 0.000000 
#    y 0.000000 1.634250 0.000000 
#    z 0.000000 0.000000 1.650850 
# 
# From -- ./inp_files/44738.got.cif
#   From: 2010.05.17/outbox.cif.g08.bks.cpg/sg68_23_cif.got.tgz:44738.got - 2010.06.03 18:57:09.
