data_PCOD9508152
_publ_section_title
;
Structure prediction by ZEFSAII (Michael W. Deem and Ramdas Pophale) SiO2 
 PCOD9508152
Probable space group: C C C A
;
_chemical_formula_sum "Si O2"
_cell_formula_units_Z 116
_cell_length_a 27.612053
_cell_length_b 24.277615
_cell_length_c 8.651579
_cell_angle_alpha 90.000000
_cell_angle_beta 90.000000
_cell_angle_gamma 90.000000
_cell_volume 5799.627442
_symmetry_space_group_name_H-M "C C C A"
_symmetry_group_IT_number 68
_space_group.IT_coordinate_system_code '2'
_symmetry_cell_setting 'orthorhombic'
loop_
_space_group_symop_operation_xyz
x,y,z
-x,1/2-y,z
x,1/2-y,1/2-z
-x,y,1/2-z
-x,-y,-z
x,1/2+y,-z
-x,1/2+y,1/2+z
x,-y,1/2+z
1/2+x,1/2+y,z
1/2-x,-y,z
1/2+x,-y,1/2-z
1/2-x,1/2+y,1/2-z
1/2-x,1/2-y,-z
1/2+x,y,-z
1/2-x,y,1/2+z
1/2+x,1/2-y,1/2+z
loop_
_atom_site_type_symbol
_atom_site_label
_atom_site_fract_x
_atom_site_fract_y
_atom_site_fract_z
Si Si1 0.231149 0.436364 0.502535
Si Si2 0.899066 0.315841 0.257390
Si Si3 0.025672 0.105396 0.413401
Si Si4 0.059482 0.657672 0.079617
Si Si5 0.107455 0.974497 0.998383
Si Si6 0.867659 0.074113 0.674151
Si Si7 0.817270 0.599014 0.818822
Si Si8 0.500000 0.250000 0.250000
O O1 0.250000 0.500000 0.508416
O O2 0.188301 0.424524 0.625594
O O3 0.208899 0.422051 0.336270
O O4 0.276424 0.398621 0.549464
O O5 0.896934 0.250000 0.250000
O O6 0.938247 0.342625 0.376828
O O7 0.848131 0.345838 0.291786
O O8 0.916579 0.332854 0.087107
O O9 0.056730 0.053630 0.465203
O O10 0.000000 0.094160 0.250000
O O11 0.986775 0.119463 0.543652
O O12 0.101255 0.629880 0.182813
O O13 0.035548 0.712021 0.149134
O O14 0.144697 0.946349 0.878575
O O15 0.108065 0.038826 0.964419
O O16 0.125138 0.958029 0.167055
#
# Coordination Sequence:
#
# PCOD9508152 Si02
#       8
#    16  16  16  16  16  16  16   4
#     4  12  23  39  67  96 124 166 213 268 325 400
#     4  10  21  41  68  92 127 169 220 279 328 382
#     4   9  21  40  64  93 128 171 215 263 322 392
#     4  11  23  42  65  97 132 170 229 270 328 384
#     4  11  24  40  60  95 135 174 209 261 330 393
#     4  12  25  40  65  96 135 172 212 272 327 390
#     4  11  23  41  64  95 127 167 220 267 330 395
#     4  12  24  40  66  92 128 184 224 282 314 392
#
# _framework density 20.001286
#
# number of rings (size 3 to 8) (size 9 to 14) (size 15 to 20)
#    0.000    1.103    2.759    3.724    3.862    3.586 
#    1.241    0.690    1.517    0.000    0.000    0.000 
#    0.000    0.000    0.000    0.000    0.000    0.000 
#
# Total GULP energy -324218.566604 kJ/mol
# GULP energy per Si atom -5589.975286 kJ/mol
# Density = 1.995576 g / cm^3
# Si number density = 20.001286 Si / 1000 Ang^3
#
#
#
# Elastic Constant Matrix: (Units=GPa)
#
#
# Indices 1 2 3 4 5 6 
#
# 1 108.3425 29.3506 14.3213 0.0000 0.0000 0.0000
# 2 29.3506 54.2434 -9.3590 0.0000 0.0000 0.0000
# 3 14.3213 -9.3590 58.9909 0.0000 0.0000 0.0000
# 4 0.0000 0.0000 0.0000 21.3260 0.0000 0.0000
# 5 0.0000 0.0000 0.0000 0.0000 10.9279 0.0000
# 6 0.0000 0.0000 0.0000 0.0000 0.0000 26.7873
#
#
#
# Elastic Compliance Matrix: (Units=1/GPa)
#
#
# Indices 1 2 3 4 5 6 
#
# 1 0.011640 -0.006977 -0.003933 0.000000 0.000000 0.000000
# 2 -0.006977 0.023136 0.005364 0.000000 0.000000 0.000000
# 3 -0.003933 0.005364 0.018758 0.000000 0.000000 0.000000
# 4 0.000000 0.000000 0.000000 0.046891 0.000000 0.000000
# 5 0.000000 0.000000 0.000000 0.000000 0.091509 0.000000
# 6 0.000000 0.000000 0.000000 0.000000 0.000000 0.037331
#
#
# Mechanical properties :
#
#
# Convention : Reuss Voigt Hill
#
# Bulk Modulus (GPa) = 23.56091 32.24474 27.90282
# Shear Modulus (GPa) = 19.64614 24.29250 21.96932
#
# Velocity S-wave (km/s) = 3.13748 3.48882 3.31780
# Velocity P-wave (km/s) = 4.99302 5.69082 5.35330
#
# Compressibility (1/GPa) = 0.04244319
#
# Stress axis : x y z
#
# Youngs Moduli (GPa) = 85.91150 43.22261 53.31183
#
# Poissons Ratio (x) = 0.30155 0.20966
# Poissons Ratio (y) = 0.59939 -0.28598
# Poissons Ratio (z) = 0.33786 -0.23186
#
# Static dielectric constant tensor:
#      x y z
#    x 1.731410 0.000000 0.000000 
#    y 0.000000 1.711100 0.000000 
#    z 0.000000 0.000000 1.715220 
# 
# From -- ./inp_files/8368.got.cif
#   From: 2010.05.17/outbox.cif.g08.bks.cpg/sg68_5_cif.got.tgz:8368.got - 2010.06.03 18:57:09.
