data_PCOD9508572
_publ_section_title
;
Structure prediction by ZEFSAII (Michael W. Deem and Ramdas Pophale) SiO2 
 PCOD9508572
Probable space group: C C C A
;
_chemical_formula_sum "Si O2"
_cell_formula_units_Z 88
_cell_length_a 24.526384
_cell_length_b 13.827955
_cell_length_c 12.062002
_cell_angle_alpha 90.000000
_cell_angle_beta 90.000000
_cell_angle_gamma 90.000000
_cell_volume 4090.824773
_symmetry_space_group_name_H-M "C C C A"
_symmetry_group_IT_number 68
_space_group.IT_coordinate_system_code '2'
_symmetry_cell_setting 'orthorhombic'
loop_
_space_group_symop_operation_xyz
x,y,z
-x,1/2-y,z
x,1/2-y,1/2-z
-x,y,1/2-z
-x,-y,-z
x,1/2+y,-z
-x,1/2+y,1/2+z
x,-y,1/2+z
1/2+x,1/2+y,z
1/2-x,-y,z
1/2+x,-y,1/2-z
1/2-x,1/2+y,1/2-z
1/2-x,1/2-y,-z
1/2+x,y,-z
1/2-x,y,1/2+z
1/2+x,1/2-y,1/2+z
loop_
_atom_site_type_symbol
_atom_site_label
_atom_site_fract_x
_atom_site_fract_y
_atom_site_fract_z
Si Si1 0.853131 0.003809 0.897191
Si Si2 0.183885 0.750000 0.750000
Si Si3 0.273828 0.093686 0.276341
Si Si4 0.394283 0.675074 0.055277
Si Si5 0.440350 0.480804 0.704031
Si Si6 0.372541 0.356769 0.077098
O O1 0.804049 0.044484 0.826127
O O2 0.899718 0.974178 0.808679
O O3 0.870062 0.090130 0.979371
O O4 0.845377 0.912052 0.974147
O O5 0.224718 0.660204 0.762285
O O6 0.146879 0.780746 0.853797
O O7 0.320992 0.154059 0.340109
O O8 0.250000 0.000000 0.343038
O O9 0.438636 0.616964 0.129419
O O10 0.403311 0.762555 0.969014
O O11 0.500000 0.499947 0.750000
O O12 0.415552 0.569594 0.633019
#
# Coordination Sequence:
#
# PCOD9508572 Si02
#       6
#    16   8  16  16  16  16
#     4  10  22  41  62  89 129 168 211 264 316 375
#     4  12  24  38  59  94 129 166 218 258 304 376
#     4  11  22  36  59  90 128 173 215 259 311 371
#     4  11  23  41  64  92 128 167 209 265 318 373
#     4  10  23  45  68  92 126 164 210 267 320 380
#     4  10  22  40  62  93 129 167 213 262 316 378
#
# _framework density 21.511555000000001
#
# number of rings (size 3 to 8) (size 9 to 14) (size 15 to 20)
#    0.000    1.455    0.000    6.545    0.000   11.636 
#    0.000    9.545    0.000    0.000    0.000    0.000 
#    0.000    0.000    0.000    0.000    0.000    0.000 
#
# Total GULP energy -245633.793648 kJ/mol
# GULP energy per Si atom -5582.586219 kJ/mol
# Density = 2.146259 g / cm^3
# Si number density = 21.511555 Si / 1000 Ang^3
#
#
#
# Elastic Constant Matrix: (Units=GPa)
#
#
# Indices 1 2 3 4 5 6 
#
# 1 74.5229 1.9431 27.1035 0.0000 0.0000 0.0000
# 2 1.9431 97.4720 30.4447 0.0000 0.0000 0.0000
# 3 27.1035 30.4447 88.2510 0.0000 0.0000 0.0000
# 4 0.0000 0.0000 0.0000 36.5168 0.0000 0.0000
# 5 0.0000 0.0000 0.0000 0.0000 -24.8878 0.0000
# 6 0.0000 0.0000 0.0000 0.0000 0.0000 1.9929
#
#
#
# Elastic Compliance Matrix: (Units=1/GPa)
#
#
# Indices 1 2 3 4 5 6 
#
# 1 0.015251 0.001299 -0.005132 0.000000 0.000000 0.000000
# 2 0.001299 0.011609 -0.004404 0.000000 0.000000 0.000000
# 3 -0.005132 -0.004404 0.014427 0.000000 0.000000 0.000000
# 4 0.000000 0.000000 0.000000 0.027385 0.000000 0.000000
# 5 0.000000 0.000000 0.000000 0.000000 -0.040180 0.000000
# 6 0.000000 0.000000 0.000000 0.000000 0.000000 0.501770
#
#
# Mechanical properties :
#
#
# Convention : Reuss Voigt Hill
#
# Bulk Modulus (GPa) = 40.30120 42.13649 41.21884
# Shear Modulus (GPa) = 9.00890 16.10802 12.55846
#
# Velocity S-wave (km/s) = 2.04867 2.73940 2.41882
# Velocity P-wave (km/s) = 4.93674 5.44391 5.19651
#
# Compressibility (1/GPa) = 0.02481316
#
# Stress axis : x y z
#
# Youngs Moduli (GPa) = 65.56806 86.14042 69.31609
#
# Poissons Ratio (x) = -0.11189 0.35573
# Poissons Ratio (y) = -0.08517 0.30525
# Poissons Ratio (z) = 0.33650 0.37934
#
# Static dielectric constant tensor:
#      x y z
#    x 1.761250 0.000000 0.000000 
#    y 0.000000 1.839850 0.000000 
#    z 0.000000 0.000000 1.812850 
# 
# From -- ./inp_files/13309.got.cif
#   From: 2010.05.17/outbox.cif.g08.bks.cpg/sg68_7_cif.got.tgz:13309.got - 2010.06.03 18:57:09.
