data_PCOD9508415
_publ_section_title
;
Structure prediction by ZEFSAII (Michael W. Deem and Ramdas Pophale) SiO2 
 PCOD9508415
Probable space group: C C C A
;
_chemical_formula_sum "Si O2"
_cell_formula_units_Z 120
_cell_length_a 11.183965
_cell_length_b 20.618929
_cell_length_c 23.793618
_cell_angle_alpha 90.000000
_cell_angle_beta 90.000000
_cell_angle_gamma 90.000000
_cell_volume 5486.841153
_symmetry_space_group_name_H-M "C C C A"
_symmetry_group_IT_number 68
_space_group.IT_coordinate_system_code '2'
_symmetry_cell_setting 'orthorhombic'
loop_
_space_group_symop_operation_xyz
x,y,z
-x,1/2-y,z
x,1/2-y,1/2-z
-x,y,1/2-z
-x,-y,-z
x,1/2+y,-z
-x,1/2+y,1/2+z
x,-y,1/2+z
1/2+x,1/2+y,z
1/2-x,-y,z
1/2+x,-y,1/2-z
1/2-x,1/2+y,1/2-z
1/2-x,1/2-y,-z
1/2+x,y,-z
1/2-x,y,1/2+z
1/2+x,1/2-y,1/2+z
loop_
_atom_site_type_symbol
_atom_site_label
_atom_site_fract_x
_atom_site_fract_y
_atom_site_fract_z
Si Si1 0.861931 0.317455 0.860499
Si Si2 0.500000 0.750000 0.446569
Si Si3 0.099988 0.541663 0.162325
Si Si4 0.044221 0.037737 0.443802
Si Si5 0.651466 0.952368 0.786732
Si Si6 0.791036 0.661557 0.970415
Si Si7 0.642778 0.823661 0.833385
Si Si8 0.651676 0.364426 0.583261
O O1 0.831429 0.390295 0.841754
O O2 0.791506 0.312735 0.919405
O O3 0.829669 0.252734 0.825647
O O4 0.007904 0.321126 0.859248
O O5 0.605371 0.715046 0.481361
O O6 0.440318 0.694848 0.408540
O O7 0.110179 0.504651 0.103742
O O8 0.129728 0.516907 0.224997
O O9 0.958287 0.547020 0.170599
O O10 0.134199 0.096201 0.458579
O O11 0.926560 0.070909 0.416431
O O12 0.000000 0.000000 0.500000
O O13 0.657916 0.873332 0.781201
O O14 0.750000 0.000000 0.811455
O O15 0.704716 0.645745 0.021425
O O16 0.737674 0.855562 0.875659
#
# Coordination Sequence:
#
# PCOD9508415 Si02
#       8
#    16   8  16  16  16  16  16  16
#     4  10  22  38  63  94 131 168 217 279 335 400
#     4  10  22  38  58  94 129 176 225 266 334 408
#     4  10  23  42  65  96 128 169 224 273 335 406
#     4  11  26  43  62  96 135 177 222 275 341 405
#     4  10  22  41  68  94 126 171 221 278 335 398
#     4  11  24  38  62  94 133 180 223 275 341 405
#     4  10  22  39  65  97 127 171 222 277 338 399
#     4  11  23  38  64  89 133 176 217 277 328 404
#
# _framework density 21.870507
#
# number of rings (size 3 to 8) (size 9 to 14) (size 15 to 20)
#    0.000    1.600    1.333    2.000    9.333    2.133 
#    0.000    2.667    0.000    0.000    0.000    0.933 
#    0.000    0.000    0.000    0.000    0.000    0.000 
#
# Total GULP energy -334182.706092 kJ/mol
# GULP energy per Si atom -5569.711768 kJ/mol
# Density = 2.182073 g / cm^3
# Si number density = 21.870507 Si / 1000 Ang^3
#
#
#
# Elastic Constant Matrix: (Units=GPa)
#
#
# Indices 1 2 3 4 5 6 
#
# 1 82.6881 43.5046 21.6136 0.0000 0.0000 0.0000
# 2 43.5046 138.2826 47.4409 0.0000 0.0000 0.0000
# 3 21.6136 47.4409 77.3971 0.0000 0.0000 0.0000
# 4 0.0000 0.0000 0.0000 23.4604 0.0000 0.0000
# 5 0.0000 0.0000 0.0000 0.0000 -19.9691 0.0000
# 6 0.0000 0.0000 0.0000 0.0000 0.0000 36.6547
#
#
#
# Elastic Compliance Matrix: (Units=1/GPa)
#
#
# Indices 1 2 3 4 5 6 
#
# 1 0.014648 -0.004058 -0.001603 0.000000 0.000000 0.000000
# 2 -0.004058 0.010282 -0.005169 0.000000 0.000000 0.000000
# 3 -0.001603 -0.005169 0.016536 0.000000 0.000000 0.000000
# 4 0.000000 0.000000 0.000000 0.042625 0.000000 0.000000
# 5 0.000000 0.000000 0.000000 0.000000 -0.050077 0.000000
# 6 0.000000 0.000000 0.000000 0.000000 0.000000 0.027282
#
#
# Mechanical properties :
#
#
# Convention : Reuss Voigt Hill
#
# Bulk Modulus (GPa) = 50.49103 58.16511 54.32807
# Shear Modulus (GPa) = 55.83020 20.41643 38.12332
#
# Velocity S-wave (km/s) = 5.05797 3.05866 4.17962
# Velocity P-wave (km/s) = 7.56619 6.25515 6.94169
#
# Compressibility (1/GPa) = 0.01980550
#
# Stress axis : x y z
#
# Youngs Moduli (GPa) = 68.26932 97.26052 60.47320
#
# Poissons Ratio (x) = 0.39472 0.09693
# Poissons Ratio (y) = 0.27707 0.31258
# Poissons Ratio (z) = 0.10943 0.50273
#
# Static dielectric constant tensor:
#      x y z
#    x 1.840960 0.000000 0.000000 
#    y 0.000000 1.930210 0.000000 
#    z 0.000000 0.000000 1.803200 
# 
# From -- ./inp_files/44645.got.cif
#   From: 2010.05.17/outbox.cif.g08.bks.cpg/sg68_23_cif.got.tgz:44645.got - 2010.06.03 18:57:09.
