data_PCOD9508694
_publ_section_title
;
Structure prediction by ZEFSAII (Michael W. Deem and Ramdas Pophale) SiO2 
 PCOD9508694
Probable space group: C C C A
;
_chemical_formula_sum "Si O2"
_cell_formula_units_Z 108
_cell_length_a 28.279215
_cell_length_b 11.658065
_cell_length_c 14.584476
_cell_angle_alpha 90.000000
_cell_angle_beta 90.000000
_cell_angle_gamma 90.000000
_cell_volume 4808.223562
_symmetry_space_group_name_H-M "C C C A"
_symmetry_group_IT_number 68
_space_group.IT_coordinate_system_code '2'
_symmetry_cell_setting 'orthorhombic'
loop_
_space_group_symop_operation_xyz
x,y,z
-x,1/2-y,z
x,1/2-y,1/2-z
-x,y,1/2-z
-x,-y,-z
x,1/2+y,-z
-x,1/2+y,1/2+z
x,-y,1/2+z
1/2+x,1/2+y,z
1/2-x,-y,z
1/2+x,-y,1/2-z
1/2-x,1/2+y,1/2-z
1/2-x,1/2-y,-z
1/2+x,y,-z
1/2-x,y,1/2+z
1/2+x,1/2-y,1/2+z
loop_
_atom_site_type_symbol
_atom_site_label
_atom_site_fract_x
_atom_site_fract_y
_atom_site_fract_z
Si Si1 0.985062 0.555169 0.116389
Si Si2 0.138157 0.751191 0.968339
Si Si3 0.672404 0.365245 0.801011
Si Si4 0.000000 0.750000 0.250000
Si Si5 0.386876 0.955542 0.154997
Si Si6 0.750000 0.000000 0.799592
Si Si7 0.677465 0.177728 0.344015
Si Si8 0.466455 0.151990 0.921758
O O1 0.939847 0.473648 0.123373
O O2 0.974378 0.659851 0.184628
O O3 0.029298 0.469176 0.133213
O O4 0.990297 0.614677 0.018279
O O5 0.168590 0.839502 0.907075
O O6 0.138352 0.628058 0.918362
O O7 0.084690 0.799681 0.951823
O O8 0.159878 0.748023 0.069302
O O9 0.688245 0.250000 0.750000
O O10 0.622192 0.395697 0.753147
O O11 0.708441 0.459599 0.767433
O O12 0.362164 0.078376 0.159061
O O13 0.773313 0.105994 0.854892
O O14 0.679629 0.250000 0.250000
O O15 0.500000 0.250000 0.879499
#
# Coordination Sequence:
#
# PCOD9508694 Si02
#       8
#    16  16  16   4  16   8  16  16
#     4  11  24  41  63  96 144 185 239 299 350 429
#     4  11  23  43  70 104 137 190 243 292 364 424
#     4   9  21  41  66  93 138 173 220 293 343 422
#     4  12  28  40  62 104 132 194 236 294 364 420
#     4  10  22  41  64 101 139 182 236 292 354 421
#     4  10  22  46  70 104 144 178 228 290 360 426
#     4  11  25  45  72 105 142 186 235 297 361 441
#     4  11  22  43  65  96 143 192 240 294 347 415
#
# _framework density 22.461518000000002
#
# number of rings (size 3 to 8) (size 9 to 14) (size 15 to 20)
#    0.000    1.481    3.704    0.444    3.111    2.963 
#    0.000   10.741    0.000    0.000    0.000    0.000 
#    0.000    0.000    0.000    0.000    0.000    0.000 
#
# Total GULP energy -301115.902500 kJ/mol
# GULP energy per Si atom -5576.220417 kJ/mol
# Density = 2.241039 g / cm^3
# Si number density = 22.461518 Si / 1000 Ang^3
#
#
#
# Elastic Constant Matrix: (Units=GPa)
#
#
# Indices 1 2 3 4 5 6 
#
# 1 80.3870 16.1000 18.2548 0.0000 0.0000 0.0000
# 2 16.1000 99.2923 31.4118 0.0000 0.0000 0.0000
# 3 18.2548 31.4118 102.0405 0.0000 0.0000 0.0000
# 4 0.0000 0.0000 0.0000 28.7616 0.0000 0.0000
# 5 0.0000 0.0000 0.0000 0.0000 16.9020 0.0000
# 6 0.0000 0.0000 0.0000 0.0000 0.0000 39.3954
#
#
#
# Elastic Compliance Matrix: (Units=1/GPa)
#
#
# Indices 1 2 3 4 5 6 
#
# 1 0.013176 -0.001541 -0.001883 0.000000 0.000000 0.000000
# 2 -0.001541 0.011338 -0.003215 0.000000 0.000000 0.000000
# 3 -0.001883 -0.003215 0.011126 0.000000 0.000000 0.000000
# 4 0.000000 0.000000 0.000000 0.034769 0.000000 0.000000
# 5 0.000000 0.000000 0.000000 0.000000 0.059165 0.000000
# 6 0.000000 0.000000 0.000000 0.000000 0.000000 0.025384
#
#
# Mechanical properties :
#
#
# Convention : Reuss Voigt Hill
#
# Bulk Modulus (GPa) = 44.71478 45.91700 45.31589
# Shear Modulus (GPa) = 28.45946 31.40868 29.93407
#
# Velocity S-wave (km/s) = 3.56340 3.74349 3.65455
# Velocity P-wave (km/s) = 6.07297 6.25874 6.16655
#
# Compressibility (1/GPa) = 0.02236397
#
# Stress axis : x y z
#
# Youngs Moduli (GPa) = 75.89562 88.19828 89.87599
#
# Poissons Ratio (x) = 0.13590 0.16922
# Poissons Ratio (y) = 0.11694 0.28892
# Poissons Ratio (z) = 0.14290 0.28353
#
# Static dielectric constant tensor:
#      x y z
#    x 1.877500 0.000000 0.000000 
#    y 0.000000 1.994870 0.000000 
#    z 0.000000 0.000000 1.884540 
# 
# From -- ./inp_files/26452.got.cif
#   From: 2010.05.17/outbox.cif.g08.bks.cpg/sg68_14_cif.got.tgz:26452.got - 2010.06.03 18:57:09.
