data_PCOD9508379
_publ_section_title
;
Structure prediction by ZEFSAII (Michael W. Deem and Ramdas Pophale) SiO2 
 PCOD9508379
Probable space group: C C C A
;
_chemical_formula_sum "Si O2"
_cell_formula_units_Z 72
_cell_length_a 22.348732
_cell_length_b 19.892003
_cell_length_c 8.344855
_cell_angle_alpha 90.000000
_cell_angle_beta 90.000000
_cell_angle_gamma 90.000000
_cell_volume 3709.797451
_symmetry_space_group_name_H-M "C C C A"
_symmetry_group_IT_number 68
_space_group.IT_coordinate_system_code '2'
_symmetry_cell_setting 'orthorhombic'
loop_
_space_group_symop_operation_xyz
x,y,z
-x,1/2-y,z
x,1/2-y,1/2-z
-x,y,1/2-z
-x,-y,-z
x,1/2+y,-z
-x,1/2+y,1/2+z
x,-y,1/2+z
1/2+x,1/2+y,z
1/2-x,-y,z
1/2+x,-y,1/2-z
1/2-x,1/2+y,1/2-z
1/2-x,1/2-y,-z
1/2+x,y,-z
1/2-x,y,1/2+z
1/2+x,1/2-y,1/2+z
loop_
_atom_site_type_symbol
_atom_site_label
_atom_site_fract_x
_atom_site_fract_y
_atom_site_fract_z
Si Si1 0.419388 0.062206 0.097186
Si Si2 0.167899 0.321311 0.973747
Si Si3 0.444158 0.081350 0.473847
Si Si4 0.739997 0.750000 0.250000
Si Si5 0.566542 0.270129 0.563688
O O1 0.363253 0.105734 0.034717
O O2 0.427829 0.075672 0.286219
O O3 0.483057 0.081300 0.013830
O O4 0.416531 0.982689 0.063790
O O5 0.217463 0.302147 0.843621
O O6 0.199214 0.296421 0.136925
O O7 0.112204 0.271006 0.956384
O O8 0.422529 0.151244 0.544703
O O9 0.500000 0.250000 0.512355
O O10 0.572026 0.250000 0.750000
#
# Coordination Sequence:
#
# PCOD9508379 Si02
#       5
#    16  16  16   8  16
#     4  10  22  38  63  88 138 165 203 257 333 394
#     4  11  21  42  61  93 120 178 209 279 300 386
#     4  10  22  37  59 100 128 167 196 257 338 411
#     4  10  24  38  66  86 130 170 244 250 312 350
#     4  11  22  35  64  97 131 162 210 270 338 395
#
# _framework density 19.408069000000001
#
# number of rings (size 3 to 8) (size 9 to 14) (size 15 to 20)
#    0.000    1.556    3.333    1.333    3.111    1.778 
#    0.000    0.000    0.000   22.667    0.000    0.000 
#    0.000    0.000    0.000    0.000    0.000    0.000 
#
# Total GULP energy -201003.010491 kJ/mol
# GULP energy per Si atom -5583.416958 kJ/mol
# Density = 1.936390 g / cm^3
# Si number density = 19.408069 Si / 1000 Ang^3
#
#
#
# Elastic Constant Matrix: (Units=GPa)
#
#
# Indices 1 2 3 4 5 6 
#
# 1 117.6630 43.4669 39.9931 0.0000 0.0000 0.0000
# 2 43.4669 169.7707 43.3584 0.0000 0.0000 0.0000
# 3 39.9931 43.3584 69.2138 0.0000 0.0000 0.0000
# 4 0.0000 0.0000 0.0000 24.2873 0.0000 0.0000
# 5 0.0000 0.0000 0.0000 0.0000 0.3905 0.0000
# 6 0.0000 0.0000 0.0000 0.0000 0.0000 19.7152
#
#
#
# Elastic Compliance Matrix: (Units=1/GPa)
#
#
# Indices 1 2 3 4 5 6 
#
# 1 0.010849 -0.001401 -0.005391 0.000000 0.000000 0.000000
# 2 -0.001401 0.007193 -0.003697 0.000000 0.000000 0.000000
# 3 -0.005391 -0.003697 0.019879 0.000000 0.000000 0.000000
# 4 0.000000 0.000000 0.000000 0.041174 0.000000 0.000000
# 5 0.000000 0.000000 0.000000 0.000000 2.560853 0.000000
# 6 0.000000 0.000000 0.000000 0.000000 0.000000 0.050722
#
#
# Mechanical properties :
#
#
# Convention : Reuss Voigt Hill
#
# Bulk Modulus (GPa) = 59.01951 67.80936 63.41444
# Shear Modulus (GPa) = 1.84007 24.20054 13.02030
#
# Velocity S-wave (km/s) = 0.97476 3.53502 2.59293
# Velocity P-wave (km/s) = 5.63406 7.18863 6.45829
#
# Compressibility (1/GPa) = 0.01694355
#
# Stress axis : x y z
#
# Youngs Moduli (GPa) = 92.17660 139.02327 50.30483
#
# Poissons Ratio (x) = 0.19474 0.27120
# Poissons Ratio (y) = 0.12912 0.18596
# Poissons Ratio (z) = 0.49693 0.51392
#
# Static dielectric constant tensor:
#      x y z
#    x 1.622580 0.000000 0.000000 
#    y 0.000000 1.675610 0.000000 
#    z 0.000000 0.000000 1.816540 
# 
# From -- ./inp_files/7036.got.cif
#   From: 2010.05.17/outbox.cif.g08.bks.cpg/sg68_4_cif.got.tgz:7036.got - 2010.06.03 18:57:09.
