data_PCOD9508632
_publ_section_title
;
Structure prediction by ZEFSAII (Michael W. Deem and Ramdas Pophale) SiO2 
 PCOD9508632
Probable space group: C C C A
;
_chemical_formula_sum "Si O2"
_cell_formula_units_Z 96
_cell_length_a 22.889792
_cell_length_b 22.635111
_cell_length_c 8.487686
_cell_angle_alpha 90.000000
_cell_angle_beta 90.000000
_cell_angle_gamma 90.000000
_cell_volume 4397.580310
_symmetry_space_group_name_H-M "C C C A"
_symmetry_group_IT_number 68
_space_group.IT_coordinate_system_code '2'
_symmetry_cell_setting 'orthorhombic'
loop_
_space_group_symop_operation_xyz
x,y,z
-x,1/2-y,z
x,1/2-y,1/2-z
-x,y,1/2-z
-x,-y,-z
x,1/2+y,-z
-x,1/2+y,1/2+z
x,-y,1/2+z
1/2+x,1/2+y,z
1/2-x,-y,z
1/2+x,-y,1/2-z
1/2-x,1/2+y,1/2-z
1/2-x,1/2-y,-z
1/2+x,y,-z
1/2-x,y,1/2+z
1/2+x,1/2-y,1/2+z
loop_
_atom_site_type_symbol
_atom_site_label
_atom_site_fract_x
_atom_site_fract_y
_atom_site_fract_z
Si Si1 0.815734 0.017977 0.953769
Si Si2 0.875831 0.080209 0.250447
Si Si3 0.192048 0.178133 0.083183
Si Si4 0.500000 0.860859 0.250000
Si Si5 0.128534 0.725648 0.416215
Si Si6 0.500000 0.750000 0.015737
Si Si7 0.189087 0.366483 0.774235
O O1 0.848121 0.051133 0.095659
O O2 0.750000 0.000000 0.000755
O O3 0.805662 0.064876 0.812105
O O4 0.855251 0.964517 0.888911
O O5 0.847000 0.142951 0.293110
O O6 0.943748 0.096859 0.240660
O O7 0.167112 0.243663 0.051683
O O8 0.186914 0.146692 0.911209
O O9 0.256812 0.168901 0.147599
O O10 0.496826 0.812463 0.109263
O O11 0.151884 0.750000 0.250000
O O12 0.062172 0.745701 0.431875
O O13 0.134772 0.656817 0.379980
#
# Coordination Sequence:
#
# PCOD9508632 Si02
#       7
#    16  16  16   8  16   8  16
#     4  12  25  42  69  98 133 177 223 276 341 402
#     4  12  25  45  67  98 134 178 232 281 331 408
#     4  11  22  41  65  99 140 171 220 270 335 397
#     4  11  26  44  70  94 134 174 229 282 338 400
#     4  10  22  40  67  99 135 173 218 271 333 397
#     4  11  21  44  66 100 125 179 220 276 340 401
#     4  11  23  40  66 104 135 178 213 273 333 402
#
# _framework density 21.830186999999999
#
# number of rings (size 3 to 8) (size 9 to 14) (size 15 to 20)
#    0.000    0.833    3.333    4.250    0.000    0.667 
#    0.000    0.000    0.000    0.000    0.000    0.000 
#    0.000    0.000    0.000    0.000    0.000    0.000 
#
# Total GULP energy -268122.249809 kJ/mol
# GULP energy per Si atom -5585.880204 kJ/mol
# Density = 2.178050 g / cm^3
# Si number density = 21.830187 Si / 1000 Ang^3
#
#
#
# Elastic Constant Matrix: (Units=GPa)
#
#
# Indices 1 2 3 4 5 6 
#
# 1 155.4086 55.9655 36.4661 0.0000 0.0000 0.0000
# 2 55.9655 102.7158 41.3395 0.0000 0.0000 0.0000
# 3 36.4661 41.3395 88.5378 0.0000 0.0000 0.0000
# 4 0.0000 0.0000 0.0000 36.2125 0.0000 0.0000
# 5 0.0000 0.0000 0.0000 0.0000 25.8029 0.0000
# 6 0.0000 0.0000 0.0000 0.0000 0.0000 41.9535
#
#
#
# Elastic Compliance Matrix: (Units=1/GPa)
#
#
# Indices 1 2 3 4 5 6 
#
# 1 0.008183 -0.003820 -0.001587 0.000000 0.000000 0.000000
# 2 -0.003820 0.013772 -0.004857 0.000000 0.000000 0.000000
# 3 -0.001587 -0.004857 0.014216 0.000000 0.000000 0.000000
# 4 0.000000 0.000000 0.000000 0.027615 0.000000 0.000000
# 5 0.000000 0.000000 0.000000 0.000000 0.038755 0.000000
# 6 0.000000 0.000000 0.000000 0.000000 0.000000 0.023836
#
#
# Mechanical properties :
#
#
# Convention : Reuss Voigt Hill
#
# Bulk Modulus (GPa) = 63.92484 68.24492 66.08488
# Shear Modulus (GPa) = 32.86948 34.98654 33.92801
#
# Velocity S-wave (km/s) = 3.88453 4.00768 3.94658
# Velocity P-wave (km/s) = 7.03319 7.26257 7.14880
#
# Compressibility (1/GPa) = 0.01564337
#
# Stress axis : x y z
#
# Youngs Moduli (GPa) = 122.21198 72.61360 70.34402
#
# Poissons Ratio (x) = 0.27736 0.11161
# Poissons Ratio (y) = 0.46682 0.34165
# Poissons Ratio (z) = 0.19391 0.35268
#
# Static dielectric constant tensor:
#      x y z
#    x 1.795220 0.000000 0.000000 
#    y 0.000000 1.919000 0.000000 
#    z 0.000000 0.000000 1.826430 
# 
# From -- ./inp_files/8175.got.cif
#   From: 2010.05.17/outbox.cif.g08.bks.cpg/sg68_5_cif.got.tgz:8175.got - 2010.06.03 18:57:09.
