data_PCOD9508569
_publ_section_title
;
Structure prediction by ZEFSAII (Michael W. Deem and Ramdas Pophale) SiO2 
 PCOD9508569
Probable space group: C C C A
;
_chemical_formula_sum "Si O2"
_cell_formula_units_Z 120
_cell_length_a 21.885927
_cell_length_b 23.703760
_cell_length_c 12.393357
_cell_angle_alpha 90.000000
_cell_angle_beta 90.000000
_cell_angle_gamma 90.000000
_cell_volume 6429.410389
_symmetry_space_group_name_H-M "C C C A"
_symmetry_group_IT_number 68
_space_group.IT_coordinate_system_code '2'
_symmetry_cell_setting 'orthorhombic'
loop_
_space_group_symop_operation_xyz
x,y,z
-x,1/2-y,z
x,1/2-y,1/2-z
-x,y,1/2-z
-x,-y,-z
x,1/2+y,-z
-x,1/2+y,1/2+z
x,-y,1/2+z
1/2+x,1/2+y,z
1/2-x,-y,z
1/2+x,-y,1/2-z
1/2-x,1/2+y,1/2-z
1/2-x,1/2-y,-z
1/2+x,y,-z
1/2-x,y,1/2+z
1/2+x,1/2-y,1/2+z
loop_
_atom_site_type_symbol
_atom_site_label
_atom_site_fract_x
_atom_site_fract_y
_atom_site_fract_z
Si Si1 0.452230 0.529106 0.153404
Si Si2 0.325323 0.091136 0.805685
Si Si3 0.963441 0.921749 0.023305
Si Si4 0.533836 0.696399 0.865494
Si Si5 0.693692 0.281152 0.860743
Si Si6 0.831902 0.587430 0.557813
Si Si7 0.250000 0.500000 0.062877
Si Si8 0.329845 0.205535 0.434329
O O1 0.500000 0.535143 0.250000
O O2 0.389998 0.559830 0.182947
O O3 0.446448 0.463300 0.121959
O O4 0.479574 0.556158 0.044449
O O5 0.325532 0.153422 0.856651
O O6 0.310206 0.097879 0.679292
O O7 0.278692 0.049178 0.864370
O O8 0.975343 0.859915 0.067152
O O9 0.904585 0.921441 0.946078
O O10 0.500000 0.750000 0.917018
O O11 0.500000 0.689585 0.750000
O O12 0.607219 0.706572 0.866165
O O13 0.675729 0.250000 0.750000
O O14 0.666717 0.248221 0.963940
O O15 0.767626 0.279815 0.871971
O O16 0.799684 0.532106 0.510097
O O17 0.821146 0.642702 0.484200
#
# Coordination Sequence:
#
# PCOD9508569 Si02
#       8
#    16  16  16  16  16  16   8  16
#     4  11  22  39  65  89 124 160 206 258 309 381
#     4  12  24  40  64  95 126 165 214 257 324 382
#     4  10  22  40  62  90 120 165 206 254 319 368
#     4  10  23  42  62  91 127 164 208 264 308 372
#     4  11  23  41  68  94 125 172 216 264 325 387
#     4  11  21  42  61  89 130 163 206 265 309 385
#     4  12  24  42  60  94 126 172 206 262 322 376
#     4  10  23  42  65  92 129 167 215 265 322 379
#
# _framework density 18.664231000000001
#
# number of rings (size 3 to 8) (size 9 to 14) (size 15 to 20)
#    0.000    1.200    5.333    0.800    3.733    0.000 
#    0.000    1.333    0.000    0.000    0.000    0.000 
#    0.000    0.000    0.000    0.000    0.000    0.000 
#
# Total GULP energy -334924.195482 kJ/mol
# GULP energy per Si atom -5582.069925 kJ/mol
# Density = 1.862175 g / cm^3
# Si number density = 18.664231 Si / 1000 Ang^3
#
#
#
# Elastic Constant Matrix: (Units=GPa)
#
#
# Indices 1 2 3 4 5 6 
#
# 1 40.4161 18.4212 17.8476 0.0000 0.0000 0.0000
# 2 18.4212 134.0891 25.6605 0.0000 0.0000 0.0000
# 3 17.8476 25.6605 64.1762 0.0000 0.0000 0.0000
# 4 0.0000 0.0000 0.0000 22.0928 0.0000 0.0000
# 5 0.0000 0.0000 0.0000 0.0000 7.4690 0.0000
# 6 0.0000 0.0000 0.0000 0.0000 0.0000 25.8211
#
#
#
# Elastic Compliance Matrix: (Units=1/GPa)
#
#
# Indices 1 2 3 4 5 6 
#
# 1 0.029049 -0.002647 -0.007020 0.000000 0.000000 0.000000
# 2 -0.002647 0.008317 -0.002589 0.000000 0.000000 0.000000
# 3 -0.007020 -0.002589 0.018570 0.000000 0.000000 0.000000
# 4 0.000000 0.000000 0.000000 0.045264 0.000000 0.000000
# 5 0.000000 0.000000 0.000000 0.000000 0.133886 0.000000
# 6 0.000000 0.000000 0.000000 0.000000 0.000000 0.038728
#
#
# Mechanical properties :
#
#
# Convention : Reuss Voigt Hill
#
# Bulk Modulus (GPa) = 31.82439 40.28223 36.05331
# Shear Modulus (GPa) = 16.19163 22.86004 19.52584
#
# Velocity S-wave (km/s) = 2.94857 3.50352 3.23795
# Velocity P-wave (km/s) = 5.35538 6.16406 5.77389
#
# Compressibility (1/GPa) = 0.03142244
#
# Stress axis : x y z
#
# Youngs Moduli (GPa) = 34.42412 120.23671 53.85105
#
# Poissons Ratio (x) = 0.31831 0.37805
# Poissons Ratio (y) = 0.09113 0.13943
# Poissons Ratio (z) = 0.24166 0.31132
#
# Static dielectric constant tensor:
#      x y z
#    x 1.634660 0.000000 0.000000 
#    y 0.000000 1.637270 0.000000 
#    z 0.000000 0.000000 1.642250 
# 
# From -- ./inp_files/15794.got.cif
#   From: 2010.05.17/outbox.cif.g08.bks.cpg/sg68_8_cif.got.tgz:15794.got - 2010.06.03 18:57:09.
