data_PCOD9508871
_publ_section_title
;
Structure prediction by ZEFSAII (Michael W. Deem and Ramdas Pophale) SiO2 
 PCOD9508871
Probable space group: C C C A
;
_chemical_formula_sum "Si O2"
_cell_formula_units_Z 112
_cell_length_a 15.073341
_cell_length_b 27.550545
_cell_length_c 13.988571
_cell_angle_alpha 90.000000
_cell_angle_beta 90.000000
_cell_angle_gamma 90.000000
_cell_volume 5809.156412
_symmetry_space_group_name_H-M "C C C A"
_symmetry_group_IT_number 68
_space_group.IT_coordinate_system_code '2'
_symmetry_cell_setting 'orthorhombic'
loop_
_space_group_symop_operation_xyz
x,y,z
-x,1/2-y,z
x,1/2-y,1/2-z
-x,y,1/2-z
-x,-y,-z
x,1/2+y,-z
-x,1/2+y,1/2+z
x,-y,1/2+z
1/2+x,1/2+y,z
1/2-x,-y,z
1/2+x,-y,1/2-z
1/2-x,1/2+y,1/2-z
1/2-x,1/2-y,-z
1/2+x,y,-z
1/2-x,y,1/2+z
1/2+x,1/2-y,1/2+z
loop_
_atom_site_type_symbol
_atom_site_label
_atom_site_fract_x
_atom_site_fract_y
_atom_site_fract_z
Si Si1 0.351718 0.146441 0.249767
Si Si2 0.162146 0.032923 0.790926
Si Si3 0.998850 0.807124 0.887358
Si Si4 0.997151 0.849811 0.405654
Si Si5 0.944667 0.951691 0.019972
Si Si6 0.150515 0.153960 0.253711
Si Si7 0.589975 0.557091 0.197571
O O1 0.341814 0.087728 0.253226
O O2 0.416625 0.158579 0.338724
O O3 0.408884 0.159427 0.156054
O O4 0.253405 0.169666 0.254847
O O5 0.127261 0.035780 0.899532
O O6 0.250000 0.000000 0.790019
O O7 0.101386 0.998927 0.724231
O O8 0.088838 0.830050 0.842401
O O9 0.000000 0.750000 0.868806
O O10 0.911064 0.828266 0.834791
O O11 0.997059 0.818709 0.998843
O O12 0.000475 0.906275 0.438600
O O13 0.908307 0.936742 0.915979
O O14 0.000000 0.000000 0.000000
O O15 0.155867 0.095583 0.244880
O O16 0.500000 0.572437 0.250000
#
# Coordination Sequence:
#
# PCOD9508871 Si02
#       7
#    16  16  16  16  16  16  16
#     4  10  23  41  63  90 132 173 209 251 314 373
#     4  11  23  36  53  88 130 165 210 255 295 361
#     4  11  24  45  70  96 122 157 207 270 331 382
#     4  10  22  43  62  91 128 169 205 258 316 375
#     4  11  21  35  58  84 118 169 214 245 303 368
#     4  11  21  41  65  94 123 162 210 265 318 377
#     4  12  20  36  58  86 122 167 212 254 308 359
#
# _framework density 19.279907000000001
#
# number of rings (size 3 to 8) (size 9 to 14) (size 15 to 20)
#    0.000    1.143    5.714    1.714    2.000    1.714 
#    2.571    5.714    0.000    0.000    0.000    0.000 
#    0.000    0.000    0.000    0.000    0.000    0.000 
#
# Total GULP energy -312215.662250 kJ/mol
# GULP energy per Si atom -5575.279683 kJ/mol
# Density = 1.923603 g / cm^3
# Si number density = 19.279907 Si / 1000 Ang^3
#
#
#
# Elastic Constant Matrix: (Units=GPa)
#
#
# Indices 1 2 3 4 5 6 
#
# 1 134.9834 14.1988 47.5236 0.0000 0.0000 0.0000
# 2 14.1988 60.3237 17.7347 0.0000 0.0000 0.0000
# 3 47.5236 17.7347 124.8985 0.0000 0.0000 0.0000
# 4 0.0000 0.0000 0.0000 18.8229 0.0000 0.0000
# 5 0.0000 0.0000 0.0000 0.0000 0.7891 0.0000
# 6 0.0000 0.0000 0.0000 0.0000 0.0000 10.8210
#
#
#
# Elastic Compliance Matrix: (Units=1/GPa)
#
#
# Indices 1 2 3 4 5 6 
#
# 1 0.008625 -0.001112 -0.003124 0.000000 0.000000 0.000000
# 2 -0.001112 0.017443 -0.002054 0.000000 0.000000 0.000000
# 3 -0.003124 -0.002054 0.009487 0.000000 0.000000 0.000000
# 4 0.000000 0.000000 0.000000 0.053127 0.000000 0.000000
# 5 0.000000 0.000000 0.000000 0.000000 1.267315 0.000000
# 6 0.000000 0.000000 0.000000 0.000000 0.000000 0.092413
#
#
# Mechanical properties :
#
#
# Convention : Reuss Voigt Hill
#
# Bulk Modulus (GPa) = 43.52423 53.23553 48.37988
# Shear Modulus (GPa) = 3.40449 22.13649 12.77049
#
# Velocity S-wave (km/s) = 1.33028 3.39213 2.57645
# Velocity P-wave (km/s) = 4.99835 6.55850 5.83084
#
# Compressibility (1/GPa) = 0.02297571
#
# Stress axis : x y z
#
# Youngs Moduli (GPa) = 115.94046 57.33066 105.40981
#
# Poissons Ratio (x) = 0.06374 0.32930
# Poissons Ratio (y) = 0.12889 0.21648
# Poissons Ratio (z) = 0.36220 0.11774
#
# Static dielectric constant tensor:
#      x y z
#    x 1.726820 0.000000 0.000000 
#    y 0.000000 1.669440 0.000000 
#    z 0.000000 0.000000 1.618620 
# 
# From -- ./inp_files/22735.got.cif
#   From: 2010.05.17/outbox.cif.g08.bks.cpg/sg68_12_cif.got.tgz:22735.got - 2010.06.03 18:57:09.
