data_PCOD9508716
_publ_section_title
;
Structure prediction by ZEFSAII (Michael W. Deem and Ramdas Pophale) SiO2 
 PCOD9508716
Probable space group: C C C A
;
_chemical_formula_sum "Si O2"
_cell_formula_units_Z 96
_cell_length_a 21.159499
_cell_length_b 23.462153
_cell_length_c 9.194599
_cell_angle_alpha 90.000000
_cell_angle_beta 90.000000
_cell_angle_gamma 90.000000
_cell_volume 4564.634795
_symmetry_space_group_name_H-M "C C C A"
_symmetry_group_IT_number 68
_space_group.IT_coordinate_system_code '2'
_symmetry_cell_setting 'orthorhombic'
loop_
_space_group_symop_operation_xyz
x,y,z
-x,1/2-y,z
x,1/2-y,1/2-z
-x,y,1/2-z
-x,-y,-z
x,1/2+y,-z
-x,1/2+y,1/2+z
x,-y,1/2+z
1/2+x,1/2+y,z
1/2-x,-y,z
1/2+x,-y,1/2-z
1/2-x,1/2+y,1/2-z
1/2-x,1/2-y,-z
1/2+x,y,-z
1/2-x,y,1/2+z
1/2+x,1/2-y,1/2+z
loop_
_atom_site_type_symbol
_atom_site_label
_atom_site_fract_x
_atom_site_fract_y
_atom_site_fract_z
Si Si1 0.178443 0.026795 0.348433
Si Si2 0.530180 0.169938 0.407523
Si Si3 0.874702 0.932541 0.344656
Si Si4 0.257205 0.373181 0.194822
Si Si5 0.280331 0.305010 0.931819
Si Si6 0.577755 0.227291 0.916545
O O1 0.151827 0.042592 0.505090
O O2 0.198567 0.085376 0.270727
O O3 0.250000 0.000000 0.362629
O O4 0.127996 0.987825 0.262792
O O5 0.500000 0.183025 0.250000
O O6 0.566274 0.109270 0.384383
O O7 0.576402 0.219015 0.470632
O O8 0.473956 0.181254 0.525959
O O9 0.822776 0.894632 0.260500
O O10 0.261025 0.360760 0.024815
O O11 0.243454 0.314220 0.270838
O O12 0.250000 0.250000 0.000000
O O13 0.354771 0.300408 0.929503
O O14 0.568718 0.250000 0.750000
#
# Coordination Sequence:
#
# PCOD9508716 Si02
#       6
#    16  16  16  16  16  16
#     4  10  22  41  66 100 133 173 222 285 357 412
#     4  11  24  45  67  93 131 186 232 281 348 407
#     4  11  23  42  70  96 131 176 237 281 345 411
#     4  11  22  39  64 100 141 178 211 282 353 412
#     4  12  24  38  64 106 143 173 223 275 346 425
#     4  11  24  43  68 100 140 180 228 280 346 426
#
# _framework density 21.031255000000002
#
# number of rings (size 3 to 8) (size 9 to 14) (size 15 to 20)
#    0.000    1.000    1.667    7.000    4.667    1.333 
#    0.000    0.833    0.000    0.000    0.000    0.000 
#    0.000    0.000    0.000    0.000    0.000    0.000 
#
# Total GULP energy -267401.890619 kJ/mol
# GULP energy per Si atom -5570.872721 kJ/mol
# Density = 2.098339 g / cm^3
# Si number density = 21.031255 Si / 1000 Ang^3
#
#
#
# Elastic Constant Matrix: (Units=GPa)
#
#
# Indices 1 2 3 4 5 6 
#
# 1 52.0480 31.7155 22.7867 0.0000 0.0000 0.0000
# 2 31.7155 103.1772 57.8204 0.0000 0.0000 0.0000
# 3 22.7867 57.8204 132.0153 0.0000 0.0000 0.0000
# 4 0.0000 0.0000 0.0000 43.3450 0.0000 0.0000
# 5 0.0000 0.0000 0.0000 0.0000 4.1373 0.0000
# 6 0.0000 0.0000 0.0000 0.0000 0.0000 34.1648
#
#
#
# Elastic Compliance Matrix: (Units=1/GPa)
#
#
# Indices 1 2 3 4 5 6 
#
# 1 0.023783 -0.006640 -0.001197 0.000000 0.000000 0.000000
# 2 -0.006640 0.014698 -0.005292 0.000000 0.000000 0.000000
# 3 -0.001197 -0.005292 0.010099 0.000000 0.000000 0.000000
# 4 0.000000 0.000000 0.000000 0.023071 0.000000 0.000000
# 5 0.000000 0.000000 0.000000 0.000000 0.241705 0.000000
# 6 0.000000 0.000000 0.000000 0.000000 0.000000 0.029270
#
#
# Mechanical properties :
#
#
# Convention : Reuss Voigt Hill
#
# Bulk Modulus (GPa) = 44.79520 56.87617 50.83568
# Shear Modulus (GPa) = 13.28642 27.99062 20.63852
#
# Velocity S-wave (km/s) = 2.51618 3.65212 3.13601
# Velocity P-wave (km/s) = 5.45776 6.69972 6.11038
#
# Compressibility (1/GPa) = 0.02232382
#
# Stress axis : x y z
#
# Youngs Moduli (GPa) = 42.04669 68.03419 99.01859
#
# Poissons Ratio (x) = 0.45174 0.11852
# Poissons Ratio (y) = 0.27918 0.52397
# Poissons Ratio (z) = 0.05033 0.36001
#
# Static dielectric constant tensor:
#      x y z
#    x -0.102410 0.000000 0.000000 
#    y 0.000000 1.939300 0.000000 
#    z 0.000000 0.000000 1.716490 
# 
# From -- ./inp_files/7298.got.cif
#   From: 2010.05.17/outbox.cif.g08.bks.cpg/sg68_4_cif.got.tgz:7298.got - 2010.06.03 18:57:09.
