data_PCOD9508793
_publ_section_title
;
Structure prediction by ZEFSAII (Michael W. Deem and Ramdas Pophale) SiO2 
 PCOD9508793
Probable space group: C C C A
;
_chemical_formula_sum "Si O2"
_cell_formula_units_Z 108
_cell_length_a 20.704630
_cell_length_b 24.377596
_cell_length_c 10.932544
_cell_angle_alpha 90.000000
_cell_angle_beta 90.000000
_cell_angle_gamma 90.000000
_cell_volume 5517.973154
_symmetry_space_group_name_H-M "C C C A"
_symmetry_group_IT_number 68
_space_group.IT_coordinate_system_code '2'
_symmetry_cell_setting 'orthorhombic'
loop_
_space_group_symop_operation_xyz
x,y,z
-x,1/2-y,z
x,1/2-y,1/2-z
-x,y,1/2-z
-x,-y,-z
x,1/2+y,-z
-x,1/2+y,1/2+z
x,-y,1/2+z
1/2+x,1/2+y,z
1/2-x,-y,z
1/2+x,-y,1/2-z
1/2-x,1/2+y,1/2-z
1/2-x,1/2-y,-z
1/2+x,y,-z
1/2-x,y,1/2+z
1/2+x,1/2-y,1/2+z
loop_
_atom_site_type_symbol
_atom_site_label
_atom_site_fract_x
_atom_site_fract_y
_atom_site_fract_z
Si Si1 0.347245 0.380766 0.859693
Si Si2 0.108771 0.415271 0.933637
Si Si3 0.120303 0.968333 0.428319
Si Si4 0.225844 0.556499 0.277108
Si Si5 0.500000 0.942278 0.750000
Si Si6 0.097573 0.171278 0.356029
Si Si7 0.288373 0.239684 0.622286
Si Si8 0.000000 0.750000 0.750000
O O1 0.291551 0.409045 0.775458
O O2 0.403148 0.366502 0.764910
O O3 0.318736 0.321066 0.894062
O O4 0.370970 0.419243 0.971090
O O5 0.174742 0.410262 0.857492
O O6 0.047179 0.412845 0.845146
O O7 0.115046 0.474864 0.997839
O O8 0.101207 0.368204 0.030880
O O9 0.184302 0.961751 0.342083
O O10 0.056249 0.968207 0.340020
O O11 0.250000 0.500000 0.338328
O O12 0.157759 0.213075 0.361905
O O13 0.038977 0.211542 0.340573
O O14 0.249821 0.250000 0.750000
O O15 0.250000 0.250000 0.500000
#
# Coordination Sequence:
#
# PCOD9508793 Si02
#       8
#    16  16  16  16   8  16  16   4
#     4  11  23  40  67  98 134 174 222 281 344 405
#     4  11  24  43  68  94 138 177 222 287 337 406
#     4  11  25  41  65  97 139 185 222 276 344 412
#     4  11  23  38  63 100 141 177 221 268 340 419
#     4  10  26  45  58  95 132 178 236 266 336 420
#     4  11  25  43  72  97 126 179 225 287 333 403
#     4  10  22  42  65  99 131 174 228 281 348 405
#     4  12  24  50  68 102 124 174 252 262 336 416
#
# _framework density 19.572405
#
# number of rings (size 3 to 8) (size 9 to 14) (size 15 to 20)
#    0.000    1.185    3.704    2.222   12.444    0.593 
#    0.000    0.000    0.000    0.889    0.000    0.000 
#    0.000    0.000    0.000    0.000    0.000    0.000 
#
# Total GULP energy -300791.560016 kJ/mol
# GULP energy per Si atom -5570.214074 kJ/mol
# Density = 1.952786 g / cm^3
# Si number density = 19.572405 Si / 1000 Ang^3
#
#
#
# Elastic Constant Matrix: (Units=GPa)
#
#
# Indices 1 2 3 4 5 6 
#
# 1 77.9747 24.6840 33.1188 0.0000 0.0000 0.0000
# 2 24.6840 114.6375 47.6050 0.0000 0.0000 0.0000
# 3 33.1188 47.6050 94.3494 0.0000 0.0000 0.0000
# 4 0.0000 0.0000 0.0000 12.8845 0.0000 0.0000
# 5 0.0000 0.0000 0.0000 0.0000 30.9877 0.0000
# 6 0.0000 0.0000 0.0000 0.0000 0.0000 27.2312
#
#
#
# Elastic Compliance Matrix: (Units=1/GPa)
#
#
# Indices 1 2 3 4 5 6 
#
# 1 0.015233 -0.001340 -0.004671 0.000000 0.000000 0.000000
# 2 -0.001340 0.011153 -0.005157 0.000000 0.000000 0.000000
# 3 -0.004671 -0.005157 0.014840 0.000000 0.000000 0.000000
# 4 0.000000 0.000000 0.000000 0.077613 0.000000 0.000000
# 5 0.000000 0.000000 0.000000 0.000000 0.032271 0.000000
# 6 0.000000 0.000000 0.000000 0.000000 0.000000 0.036723
#
#
# Mechanical properties :
#
#
# Convention : Reuss Voigt Hill
#
# Bulk Modulus (GPa) = 52.93722 55.30858 54.12290
# Shear Modulus (GPa) = 23.09831 26.32425 24.71128
#
# Velocity S-wave (km/s) = 3.43905 3.67136 3.55710
# Velocity P-wave (km/s) = 6.54790 6.80379 6.67707
#
# Compressibility (1/GPa) = 0.01889030
#
# Stress axis : x y z
#
# Youngs Moduli (GPa) = 65.64762 89.65961 67.38320
#
# Poissons Ratio (x) = 0.12017 0.31473
# Poissons Ratio (y) = 0.08799 0.34750
# Poissons Ratio (z) = 0.30663 0.46238
#
# Static dielectric constant tensor:
#      x y z
#    x 1.735660 0.000000 0.000000 
#    y 0.000000 1.670020 0.000000 
#    z 0.000000 0.000000 1.723090 
# 
# From -- ./inp_files/15768.got.cif
#   From: 2010.05.17/outbox.cif.g08.bks.cpg/sg68_8_cif.got.tgz:15768.got - 2010.06.03 18:57:09.
