data_PCOD9508093
_publ_section_title
;
Structure prediction by ZEFSAII (Michael W. Deem and Ramdas Pophale) SiO2 
 PCOD9508093
Probable space group: C C C A
;
_chemical_formula_sum "Si O2"
_cell_formula_units_Z 112
_cell_length_a 13.588863
_cell_length_b 27.346871
_cell_length_c 15.212373
_cell_angle_alpha 90.000000
_cell_angle_beta 90.000000
_cell_angle_gamma 90.000000
_cell_volume 5653.113795
_symmetry_space_group_name_H-M "C C C A"
_symmetry_group_IT_number 68
_space_group.IT_coordinate_system_code '2'
_symmetry_cell_setting 'orthorhombic'
loop_
_space_group_symop_operation_xyz
x,y,z
-x,1/2-y,z
x,1/2-y,1/2-z
-x,y,1/2-z
-x,-y,-z
x,1/2+y,-z
-x,1/2+y,1/2+z
x,-y,1/2+z
1/2+x,1/2+y,z
1/2-x,-y,z
1/2+x,-y,1/2-z
1/2-x,1/2+y,1/2-z
1/2-x,1/2-y,-z
1/2+x,y,-z
1/2-x,y,1/2+z
1/2+x,1/2-y,1/2+z
loop_
_atom_site_type_symbol
_atom_site_label
_atom_site_fract_x
_atom_site_fract_y
_atom_site_fract_z
Si Si1 0.000000 0.033480 0.750000
Si Si2 0.689692 0.209271 0.554196
Si Si3 0.140627 0.709097 0.178732
Si Si4 0.677666 0.898290 0.731973
Si Si5 0.500000 0.750000 0.970219
Si Si6 0.012290 0.533566 0.586320
Si Si7 0.210208 0.946209 0.624372
Si Si8 0.295147 0.405578 0.553602
O O1 0.091716 0.067865 0.730001
O O2 0.034844 0.000953 0.831099
O O3 0.750000 0.250000 0.500000
O O4 0.745097 0.213948 0.647639
O O5 0.576660 0.221267 0.532302
O O6 0.705237 0.152201 0.531366
O O7 0.117850 0.750000 0.250000
O O8 0.134553 0.844354 0.279821
O O9 0.067204 0.783182 0.404323
O O10 0.762499 0.905787 0.803461
O O11 0.722666 0.913005 0.637038
O O12 0.096783 0.573830 0.575635
O O13 0.000000 0.500000 0.500000
O O14 0.905538 0.554455 0.608488
O O15 0.259845 0.934624 0.531439
O O16 0.250000 0.000000 0.653072
#
# Coordination Sequence:
#
# PCOD9508093 Si02
#       8
#     8  16  16  16   8  16  16  16
#     4  12  24  38  65  90 132 169 222 270 324 386
#     4   9  22  43  66  98 130 171 218 278 342 407
#     4  10  23  42  66 100 134 169 219 286 344 404
#     4  11  26  42  65  95 131 175 219 276 338 396
#     4  10  21  40  75  94 134 166 224 274 339 406
#     4  12  24  40  63  95 128 172 222 267 327 400
#     4  12  24  42  65  95 130 177 219 273 332 400
#     4  11  25  43  67  94 135 174 221 274 340 402
#
# _framework density 19.812090000000001
#
# number of rings (size 3 to 8) (size 9 to 14) (size 15 to 20)
#    0.000    1.143    2.857    1.929    6.000    4.571 
#    0.000    0.357    0.000    0.000    0.000    0.000 
#    0.000    0.000    0.000    0.000    0.000    0.000 
#
# Total GULP energy -312548.982253 kJ/mol
# GULP energy per Si atom -5581.231826 kJ/mol
# Density = 1.976700 g / cm^3
# Si number density = 19.812090 Si / 1000 Ang^3
#
#
#
# Elastic Constant Matrix: (Units=GPa)
#
#
# Indices 1 2 3 4 5 6 
#
# 1 90.7032 33.9414 -9.4175 0.0000 0.0000 0.0000
# 2 33.9414 90.4367 14.4854 0.0000 0.0000 0.0000
# 3 -9.4175 14.4854 38.0755 0.0000 0.0000 0.0000
# 4 0.0000 0.0000 0.0000 25.7025 0.0000 0.0000
# 5 0.0000 0.0000 0.0000 0.0000 33.0717 0.0000
# 6 0.0000 0.0000 0.0000 0.0000 0.0000 6.2344
#
#
#
# Elastic Compliance Matrix: (Units=1/GPa)
#
#
# Indices 1 2 3 4 5 6 
#
# 1 0.013929 -0.006154 0.005786 0.000000 0.000000 0.000000
# 2 -0.006154 0.014494 -0.007036 0.000000 0.000000 0.000000
# 3 0.005786 -0.007036 0.030372 0.000000 0.000000 0.000000
# 4 0.000000 0.000000 0.000000 0.038907 0.000000 0.000000
# 5 0.000000 0.000000 0.000000 0.000000 0.030237 0.000000
# 6 0.000000 0.000000 0.000000 0.000000 0.000000 0.160401
#
#
# Mechanical properties :
#
#
# Convention : Reuss Voigt Hill
#
# Bulk Modulus (GPa) = 22.73442 33.02600 27.88021
# Shear Modulus (GPa) = 15.73265 25.01546 20.37406
#
# Velocity S-wave (km/s) = 2.82102 3.55721 3.21029
# Velocity P-wave (km/s) = 4.70222 5.79461 5.27676
#
# Compressibility (1/GPa) = 0.04398617
#
# Stress axis : x y z
#
# Youngs Moduli (GPa) = 71.79401 68.99290 32.92534
#
# Poissons Ratio (x) = 0.42461 -0.19052
# Poissons Ratio (y) = 0.44185 0.23168
# Poissons Ratio (z) = -0.41543 0.48546
#
# Static dielectric constant tensor:
#      x y z
#    x 1.742550 0.000000 0.000000 
#    y 0.000000 1.707240 0.000000 
#    z 0.000000 0.000000 1.775080 
# 
# From -- ./inp_files/22767.got.cif
#   From: 2010.05.17/outbox.cif.g08.bks.cpg/sg68_12_cif.got.tgz:22767.got - 2010.06.03 18:57:09.
