data_PCOD9508702
_publ_section_title
;
Structure prediction by ZEFSAII (Michael W. Deem and Ramdas Pophale) SiO2 
 PCOD9508702
Probable space group: C C C A
;
_chemical_formula_sum "Si O2"
_cell_formula_units_Z 88
_cell_length_a 12.583091
_cell_length_b 13.854154
_cell_length_c 23.753571
_cell_angle_alpha 90.000000
_cell_angle_beta 90.000000
_cell_angle_gamma 90.000000
_cell_volume 4140.914438
_symmetry_space_group_name_H-M "C C C A"
_symmetry_group_IT_number 68
_space_group.IT_coordinate_system_code '2'
_symmetry_cell_setting 'orthorhombic'
loop_
_space_group_symop_operation_xyz
x,y,z
-x,1/2-y,z
x,1/2-y,1/2-z
-x,y,1/2-z
-x,-y,-z
x,1/2+y,-z
-x,1/2+y,1/2+z
x,-y,1/2+z
1/2+x,1/2+y,z
1/2-x,-y,z
1/2+x,-y,1/2-z
1/2-x,1/2+y,1/2-z
1/2-x,1/2-y,-z
1/2+x,y,-z
1/2-x,y,1/2+z
1/2+x,1/2-y,1/2+z
loop_
_atom_site_type_symbol
_atom_site_label
_atom_site_fract_x
_atom_site_fract_y
_atom_site_fract_z
Si Si1 0.768237 0.896276 0.167007
Si Si2 0.688876 0.102085 0.846037
Si Si3 0.284654 0.104804 0.461376
Si Si4 0.121858 0.225875 0.052486
Si Si5 0.974611 0.363142 0.312583
Si Si6 0.275804 0.750000 0.750000
O O1 0.813663 0.905736 0.104680
O O2 0.644438 0.865514 0.165209
O O3 0.830167 0.820165 0.205177
O O4 0.750000 0.000000 0.194904
O O5 0.695338 0.172579 0.900182
O O6 0.562417 0.081334 0.848020
O O7 0.716021 0.169908 0.790803
O O8 0.750000 0.000000 0.846593
O O9 0.183721 0.176477 0.463101
O O10 0.374088 0.154305 0.499166
O O11 0.250000 0.000000 0.482494
O O12 0.000000 0.250000 0.068252
O O13 0.000000 0.250000 0.310897
O O14 0.000000 0.400616 0.250000
#
# Coordination Sequence:
#
# PCOD9508702 Si02
#       6
#    16  16  16  16  16   8
#     4  11  21  37  63  89 126 163 202 250 314 375
#     4  12  23  36  62  97 125 159 209 264 310 368
#     4  10  22  41  64  91 126 166 206 255 318 377
#     4  11  23  42  66  93 126 162 213 266 307 366
#     4  11  18  34  59  89 118 156 203 253 304 365
#     4  12  20  37  60  93 122 166 196 261 308 381
#
# _framework density 21.251344
#
# number of rings (size 3 to 8) (size 9 to 14) (size 15 to 20)
#    0.000    0.909    5.455    2.727    0.000    0.727 
#    0.000    7.273    0.000    1.091    0.000    0.000 
#    0.000    0.000    0.000    0.000    0.000    0.000 
#
# Total GULP energy -245014.461713 kJ/mol
# GULP energy per Si atom -5568.510493 kJ/mol
# Density = 2.120298 g / cm^3
# Si number density = 21.251344 Si / 1000 Ang^3
#
#
#
# Elastic Constant Matrix: (Units=GPa)
#
#
# Indices 1 2 3 4 5 6 
#
# 1 40.5724 27.0195 4.5721 0.0000 0.0000 0.0000
# 2 27.0195 157.5715 33.6602 0.0000 0.0000 0.0000
# 3 4.5721 33.6602 94.8950 0.0000 0.0000 0.0000
# 4 0.0000 0.0000 0.0000 30.3072 0.0000 0.0000
# 5 0.0000 0.0000 0.0000 0.0000 18.4663 0.0000
# 6 0.0000 0.0000 0.0000 0.0000 0.0000 26.2380
#
#
#
# Elastic Compliance Matrix: (Units=1/GPa)
#
#
# Indices 1 2 3 4 5 6 
#
# 1 0.027837 -0.004855 0.000381 0.000000 0.000000 0.000000
# 2 -0.004855 0.007713 -0.002502 0.000000 0.000000 0.000000
# 3 0.000381 -0.002502 0.011407 0.000000 0.000000 0.000000
# 4 0.000000 0.000000 0.000000 0.032995 0.000000 0.000000
# 5 0.000000 0.000000 0.000000 0.000000 0.054153 0.000000
# 6 0.000000 0.000000 0.000000 0.000000 0.000000 0.038113
#
#
# Mechanical properties :
#
#
# Convention : Reuss Voigt Hill
#
# Bulk Modulus (GPa) = 30.29770 47.06028 38.67899
# Shear Modulus (GPa) = 25.35848 30.18810 27.77329
#
# Velocity S-wave (km/s) = 3.45811 3.77308 3.61902
# Velocity P-wave (km/s) = 5.49841 6.41671 5.97523
#
# Compressibility (1/GPa) = 0.03300580
#
# Stress axis : x y z
#
# Youngs Moduli (GPa) = 35.92279 129.64646 87.66450
#
# Poissons Ratio (x) = 0.62940 -0.03338
# Poissons Ratio (y) = 0.17440 0.21934
# Poissons Ratio (z) = -0.01368 0.32438
#
# Static dielectric constant tensor:
#      x y z
#    x 1.790630 0.000000 0.000000 
#    y 0.000000 1.835460 0.000000 
#    z 0.000000 0.000000 1.891090 
# 
# From -- ./inp_files/45436.got.cif
#   From: 2010.05.17/outbox.cif.g08.bks.cpg/sg68_23_cif.got.tgz:45436.got - 2010.06.03 18:57:09.
