data_PCOD9508691
_publ_section_title
;
Structure prediction by ZEFSAII (Michael W. Deem and Ramdas Pophale) SiO2 
 PCOD9508691
Probable space group: C C C A
;
_chemical_formula_sum "Si O2"
_cell_formula_units_Z 96
_cell_length_a 10.785249
_cell_length_b 22.903034
_cell_length_c 19.529083
_cell_angle_alpha 90.000000
_cell_angle_beta 90.000000
_cell_angle_gamma 90.000000
_cell_volume 4823.974964
_symmetry_space_group_name_H-M "C C C A"
_symmetry_group_IT_number 68
_space_group.IT_coordinate_system_code '2'
_symmetry_cell_setting 'orthorhombic'
loop_
_space_group_symop_operation_xyz
x,y,z
-x,1/2-y,z
x,1/2-y,1/2-z
-x,y,1/2-z
-x,-y,-z
x,1/2+y,-z
-x,1/2+y,1/2+z
x,-y,1/2+z
1/2+x,1/2+y,z
1/2-x,-y,z
1/2+x,-y,1/2-z
1/2-x,1/2+y,1/2-z
1/2-x,1/2-y,-z
1/2+x,y,-z
1/2-x,y,1/2+z
1/2+x,1/2-y,1/2+z
loop_
_atom_site_type_symbol
_atom_site_label
_atom_site_fract_x
_atom_site_fract_y
_atom_site_fract_z
Si Si1 0.641780 0.136106 0.605388
Si Si2 0.200735 0.432628 0.709835
Si Si3 0.134325 0.242126 0.051663
Si Si4 0.053527 0.963503 0.564181
Si Si5 0.572848 0.424721 0.149129
Si Si6 0.254951 0.625437 0.955706
O O1 0.703266 0.110062 0.672922
O O2 0.621950 0.206165 0.607723
O O3 0.534608 0.090023 0.585643
O O4 0.724558 0.133729 0.536300
O O5 0.250000 0.500000 0.701669
O O6 0.169935 0.419560 0.788785
O O7 0.068921 0.418398 0.673160
O O8 0.168331 0.176805 0.075110
O O9 0.000000 0.250000 0.015211
O O10 0.250000 0.250000 0.000000
O O11 0.184219 0.935254 0.548031
O O12 0.072357 0.008789 0.624526
O O13 0.000000 0.000000 0.500000
O O14 0.618902 0.382798 0.087676
#
# Coordination Sequence:
#
# PCOD9508691 Si02
#       6
#    16  16  16  16  16  16
#     4  11  23  37  64  92 125 165 215 263 320 397
#     4  11  23  41  60  91 130 167 210 260 334 410
#     4  10  22  41  63  93 129 175 222 278 336 395
#     4  12  21  35  62  95 127 158 206 260 323 390
#     4  11  24  39  61  93 131 168 204 265 339 398
#     4  11  23  38  62  91 130 161 215 268 325 388
#
# _framework density 19.900601000000002
#
# number of rings (size 3 to 8) (size 9 to 14) (size 15 to 20)
#    0.000    1.000    5.000    2.500    0.000    1.333 
#    0.000    0.833    0.000    3.000    0.000    0.000 
#    0.000    0.000    0.000    0.000    0.000    0.000 
#
# Total GULP energy -267329.412768 kJ/mol
# GULP energy per Si atom -5569.362766 kJ/mol
# Density = 1.985531 g / cm^3
# Si number density = 19.900601 Si / 1000 Ang^3
#
#
#
# Elastic Constant Matrix: (Units=GPa)
#
#
# Indices 1 2 3 4 5 6 
#
# 1 66.3117 11.6561 5.5748 0.0000 0.0000 0.0000
# 2 11.6561 102.8356 10.0907 0.0000 0.0000 0.0000
# 3 5.5748 10.0907 53.4213 0.0000 0.0000 0.0000
# 4 0.0000 0.0000 0.0000 19.6089 0.0000 0.0000
# 5 0.0000 0.0000 0.0000 0.0000 32.0930 0.0000
# 6 0.0000 0.0000 0.0000 0.0000 0.0000 36.7026
#
#
#
# Elastic Compliance Matrix: (Units=1/GPa)
#
#
# Indices 1 2 3 4 5 6 
#
# 1 0.015476 -0.001626 -0.001308 0.000000 0.000000 0.000000
# 2 -0.001626 0.010079 -0.001734 0.000000 0.000000 0.000000
# 3 -0.001308 -0.001734 0.019183 0.000000 0.000000 0.000000
# 4 0.000000 0.000000 0.000000 0.050997 0.000000 0.000000
# 5 0.000000 0.000000 0.000000 0.000000 0.031159 0.000000
# 6 0.000000 0.000000 0.000000 0.000000 0.000000 0.027246
#
#
# Mechanical properties :
#
#
# Convention : Reuss Voigt Hill
#
# Bulk Modulus (GPa) = 28.24678 30.80130 29.52404
# Shear Modulus (GPa) = 28.52630 30.69739 29.61185
#
# Velocity S-wave (km/s) = 3.79019 3.93177 3.86163
# Velocity P-wave (km/s) = 5.77744 6.01024 5.89499
#
# Compressibility (1/GPa) = 0.03540227
#
# Stress axis : x y z
#
# Youngs Moduli (GPa) = 64.61607 99.21915 52.12903
#
# Poissons Ratio (x) = 0.16131 0.06818
# Poissons Ratio (y) = 0.10505 0.09040
# Poissons Ratio (z) = 0.08451 0.17206
#
# Static dielectric constant tensor:
#      x y z
#    x 1.762910 0.000000 0.000000 
#    y 0.000000 1.808540 0.000000 
#    z 0.000000 0.000000 1.759660 
# 
# From -- ./inp_files/29825.got.cif
#   From: 2010.05.17/outbox.cif.g08.bks.cpg/sg68_15_cif.got.tgz:29825.got - 2010.06.03 18:57:09.
