data_PCOD9508550
_publ_section_title
;
Structure prediction by ZEFSAII (Michael W. Deem and Ramdas Pophale) SiO2 
 PCOD9508550
Probable space group: C C C A
;
_chemical_formula_sum "Si O2"
_cell_formula_units_Z 84
_cell_length_a 9.918377
_cell_length_b 23.456541
_cell_length_c 20.222471
_cell_angle_alpha 90.000000
_cell_angle_beta 90.000000
_cell_angle_gamma 90.000000
_cell_volume 4704.774395
_symmetry_space_group_name_H-M "C C C A"
_symmetry_group_IT_number 68
_space_group.IT_coordinate_system_code '2'
_symmetry_cell_setting 'orthorhombic'
loop_
_space_group_symop_operation_xyz
x,y,z
-x,1/2-y,z
x,1/2-y,1/2-z
-x,y,1/2-z
-x,-y,-z
x,1/2+y,-z
-x,1/2+y,1/2+z
x,-y,1/2+z
1/2+x,1/2+y,z
1/2-x,-y,z
1/2+x,-y,1/2-z
1/2-x,1/2+y,1/2-z
1/2-x,1/2-y,-z
1/2+x,y,-z
1/2-x,y,1/2+z
1/2+x,1/2-y,1/2+z
loop_
_atom_site_type_symbol
_atom_site_label
_atom_site_fract_x
_atom_site_fract_y
_atom_site_fract_z
Si Si1 0.656706 0.945481 0.756384
Si Si2 0.776616 0.146887 0.346235
Si Si3 0.452882 0.683763 0.097032
Si Si4 0.500000 0.250000 0.250000
Si Si5 0.722784 0.170592 0.202270
Si Si6 0.132228 0.787243 0.036342
O O1 0.500000 0.960470 0.750000
O O2 0.702906 0.911500 0.823377
O O3 0.683232 0.895872 0.702572
O O4 0.750000 0.000000 0.747979
O O5 0.786641 0.179579 0.275631
O O6 0.690837 0.181529 0.399809
O O7 0.927106 0.144745 0.375059
O O8 0.500000 0.750000 0.096533
O O9 0.324677 0.682245 0.144290
O O10 0.414839 0.669880 0.021755
O O11 0.591020 0.209283 0.204894
O O12 0.000000 0.750000 0.052225
O O13 0.250000 0.750000 0.000000
#
# Coordination Sequence:
#
# PCOD9508550 Si02
#       6
#    16  16  16   4  16  16
#     4  10  24  43  65  94 121 166 218 270 332 367
#     4  10  22  40  58  90 122 163 216 257 315 375
#     4  11  21  38  56  94 126 174 204 249 318 386
#     4  12  20  36  50 100 132 152 198 256 340 384
#     4  10  23  35  62  90 128 159 207 270 319 385
#     4  11  22  38  58  88 134 173 205 246 315 399
#
# _framework density 17.854203999999999
#
# number of rings (size 3 to 8) (size 9 to 14) (size 15 to 20)
#    1.143    0.381    4.762    1.714    4.000    2.286 
#    0.000    0.000    0.000    2.286    0.000    0.000 
#    0.000    0.000    0.000    0.000    0.000    0.000 
#
# Total GULP energy -234128.609901 kJ/mol
# GULP energy per Si atom -5574.490712 kJ/mol
# Density = 1.781357 g / cm^3
# Si number density = 17.854204 Si / 1000 Ang^3
#
#
#
# Elastic Constant Matrix: (Units=GPa)
#
#
# Indices 1 2 3 4 5 6 
#
# 1 128.5378 50.6087 30.5645 0.0000 0.0000 0.0000
# 2 50.6087 95.8240 20.1730 0.0000 0.0000 0.0000
# 3 30.5645 20.1730 84.7444 0.0000 0.0000 0.0000
# 4 0.0000 0.0000 0.0000 12.5360 0.0000 0.0000
# 5 0.0000 0.0000 0.0000 0.0000 34.9832 0.0000
# 6 0.0000 0.0000 0.0000 0.0000 0.0000 30.5480
#
#
#
# Elastic Compliance Matrix: (Units=1/GPa)
#
#
# Indices 1 2 3 4 5 6 
#
# 1 0.010322 -0.004914 -0.002553 0.000000 0.000000 0.000000
# 2 -0.004914 0.013326 -0.001400 0.000000 0.000000 0.000000
# 3 -0.002553 -0.001400 0.013054 0.000000 0.000000 0.000000
# 4 0.000000 0.000000 0.000000 0.079770 0.000000 0.000000
# 5 0.000000 0.000000 0.000000 0.000000 0.028585 0.000000
# 6 0.000000 0.000000 0.000000 0.000000 0.000000 0.032735
#
#
# Mechanical properties :
#
#
# Convention : Reuss Voigt Hill
#
# Bulk Modulus (GPa) = 52.71980 56.86651 54.79316
# Shear Modulus (GPa) = 24.77111 29.46411 27.11761
#
# Velocity S-wave (km/s) = 3.72884 4.06675 3.90145
# Velocity P-wave (km/s) = 6.93765 7.34649 7.14499
#
# Compressibility (1/GPa) = 0.01896821
#
# Stress axis : x y z
#
# Youngs Moduli (GPa) = 96.88466 75.04304 76.60382
#
# Poissons Ratio (x) = 0.36875 0.19556
# Poissons Ratio (y) = 0.47607 0.10724
# Poissons Ratio (z) = 0.24734 0.10505
#
# Static dielectric constant tensor:
#      x y z
#    x 1.650100 0.000000 0.000000 
#    y 0.000000 1.611130 0.000000 
#    z 0.000000 0.000000 1.634090 
# 
# From -- ./inp_files/36182.got.cif
#   From: 2010.05.17/outbox.cif.g08.bks.cpg/sg68_19_cif.got.tgz:36182.got - 2010.06.03 18:57:09.
