data_PCOD9508941
_publ_section_title
;
Structure prediction by ZEFSAII (Michael W. Deem and Ramdas Pophale) SiO2 
 PCOD9508941
Probable space group: C C C A
;
_chemical_formula_sum "Si O2"
_cell_formula_units_Z 80
_cell_length_a 19.892679
_cell_length_b 12.964288
_cell_length_c 13.436771
_cell_angle_alpha 90.000000
_cell_angle_beta 90.000000
_cell_angle_gamma 90.000000
_cell_volume 3465.268259
_symmetry_space_group_name_H-M "C C C A"
_symmetry_group_IT_number 68
_space_group.IT_coordinate_system_code '2'
_symmetry_cell_setting 'orthorhombic'
loop_
_space_group_symop_operation_xyz
x,y,z
-x,1/2-y,z
x,1/2-y,1/2-z
-x,y,1/2-z
-x,-y,-z
x,1/2+y,-z
-x,1/2+y,1/2+z
x,-y,1/2+z
1/2+x,1/2+y,z
1/2-x,-y,z
1/2+x,-y,1/2-z
1/2-x,1/2+y,1/2-z
1/2-x,1/2-y,-z
1/2+x,y,-z
1/2-x,y,1/2+z
1/2+x,1/2-y,1/2+z
loop_
_atom_site_type_symbol
_atom_site_label
_atom_site_fract_x
_atom_site_fract_y
_atom_site_fract_z
Si Si1 0.954953 0.159948 0.448395
Si Si2 0.659965 0.993511 0.141112
Si Si3 0.507790 0.538072 0.861588
Si Si4 0.746337 0.633807 0.740852
Si Si5 0.802341 0.158136 0.472897
O O1 0.879167 0.197733 0.465069
O O2 0.000000 0.250000 0.402765
O O3 0.955676 0.053654 0.385400
O O4 0.989486 0.124331 0.552882
O O5 0.682755 0.063347 0.234941
O O6 0.688067 0.061515 0.048993
O O7 0.581190 0.984587 0.130547
O O8 0.698389 0.889965 0.172808
O O9 0.500000 0.578163 0.750000
O O10 0.723855 0.750000 0.750000
O O11 0.777901 0.618327 0.633602
O O12 0.750000 0.250000 0.500000
#
# Coordination Sequence:
#
# PCOD9508941 Si02
#       5
#    16  16  16  16  16
#     4  10  24  41  66  98 130 178 226 280 348 422
#     4  10  24  42  66  97 134 174 224 283 351 410
#     4  10  22  44  64  95 131 172 224 279 340 414
#     4  11  23  40  65 100 131 175 228 273 345 427
#     4  11  23  44  67  96 139 179 227 292 352 418
#
# _framework density 23.086234000000001
#
# number of rings (size 3 to 8) (size 9 to 14) (size 15 to 20)
#    0.000    1.600    2.000    1.200    2.800    5.600 
#    0.000    0.000    0.000    0.000    0.000    0.000 
#    0.000    0.000    0.000    0.000    0.000    0.000 
#
# Total GULP energy -223354.295305 kJ/mol
# GULP energy per Si atom -5583.857383 kJ/mol
# Density = 2.303369 g / cm^3
# Si number density = 23.086234 Si / 1000 Ang^3
#
#
#
# Elastic Constant Matrix: (Units=GPa)
#
#
# Indices 1 2 3 4 5 6 
#
# 1 109.2294 16.5467 -6.0563 0.0000 0.0000 0.0000
# 2 16.5467 60.3912 6.1092 0.0000 0.0000 0.0000
# 3 -6.0563 6.1092 125.6922 0.0000 0.0000 0.0000
# 4 0.0000 0.0000 0.0000 32.0727 0.0000 0.0000
# 5 0.0000 0.0000 0.0000 0.0000 27.5587 0.0000
# 6 0.0000 0.0000 0.0000 0.0000 0.0000 35.1119
#
#
#
# Elastic Compliance Matrix: (Units=1/GPa)
#
#
# Indices 1 2 3 4 5 6 
#
# 1 0.009595 -0.002689 0.000593 0.000000 0.000000 0.000000
# 2 -0.002689 0.017394 -0.000975 0.000000 0.000000 0.000000
# 3 0.000593 -0.000975 0.008032 0.000000 0.000000 0.000000
# 4 0.000000 0.000000 0.000000 0.031179 0.000000 0.000000
# 5 0.000000 0.000000 0.000000 0.000000 0.036286 0.000000
# 6 0.000000 0.000000 0.000000 0.000000 0.000000 0.028480
#
#
# Mechanical properties :
#
#
# Convention : Reuss Voigt Hill
#
# Bulk Modulus (GPa) = 34.62687 36.50135 35.56411
# Shear Modulus (GPa) = 34.07491 37.52952 35.80222
#
# Velocity S-wave (km/s) = 3.84602 4.03628 3.94230
# Velocity P-wave (km/s) = 5.89525 6.12921 6.01337
#
# Compressibility (1/GPa) = 0.02887931
#
# Stress axis : x y z
#
# Youngs Moduli (GPa) = 104.21797 57.49073 124.50346
#
# Poissons Ratio (x) = 0.15459 -0.07383
# Poissons Ratio (y) = 0.28024 0.12139
# Poissons Ratio (z) = -0.06180 0.05605
#
# Static dielectric constant tensor:
#      x y z
#    x 1.867280 0.000000 0.000000 
#    y 0.000000 1.863400 0.000000 
#    z 0.000000 0.000000 1.910220 
# 
# From -- ./inp_files/25173.got.cif
#   From: 2010.05.17/outbox.cif.g08.bks.cpg/sg68_13_cif.got.tgz:25173.got - 2010.06.03 18:57:09.
