data_PCOD9508781
_publ_section_title
;
Structure prediction by ZEFSAII (Michael W. Deem and Ramdas Pophale) SiO2 
 PCOD9508781
Probable space group: C C C A
;
_chemical_formula_sum "Si O2"
_cell_formula_units_Z 68
_cell_length_a 19.866987
_cell_length_b 16.718204
_cell_length_c 9.971759
_cell_angle_alpha 90.000000
_cell_angle_beta 90.000000
_cell_angle_gamma 90.000000
_cell_volume 3312.023440
_symmetry_space_group_name_H-M "C C C A"
_symmetry_group_IT_number 68
_space_group.IT_coordinate_system_code '2'
_symmetry_cell_setting 'orthorhombic'
loop_
_space_group_symop_operation_xyz
x,y,z
-x,1/2-y,z
x,1/2-y,1/2-z
-x,y,1/2-z
-x,-y,-z
x,1/2+y,-z
-x,1/2+y,1/2+z
x,-y,1/2+z
1/2+x,1/2+y,z
1/2-x,-y,z
1/2+x,-y,1/2-z
1/2-x,1/2+y,1/2-z
1/2-x,1/2-y,-z
1/2+x,y,-z
1/2-x,y,1/2+z
1/2+x,1/2-y,1/2+z
loop_
_atom_site_type_symbol
_atom_site_label
_atom_site_fract_x
_atom_site_fract_y
_atom_site_fract_z
Si Si1 0.047062 0.535816 0.121135
Si Si2 0.000000 0.750000 0.750000
Si Si3 0.300803 0.712181 0.101926
Si Si4 0.899360 0.336712 0.063442
Si Si5 0.681819 0.448351 0.767600
O O1 0.116383 0.491824 0.168034
O O2 0.000000 0.539995 0.250000
O O3 0.072336 0.620723 0.065934
O O4 0.000000 0.500000 0.000000
O O5 0.956814 0.812943 0.833954
O O6 0.292589 0.750000 0.250000
O O7 0.369115 0.748400 0.043474
O O8 0.297354 0.618565 0.123204
O O9 0.250000 0.750000 0.000000
O O10 0.847383 0.398399 0.138358
O O11 0.750000 0.500000 0.739307
#
# Coordination Sequence:
#
# PCOD9508781 Si02
#       5
#    16   4  16  16  16
#     4  12  25  45  70 106 146 186 249 305 370 437
#     4  12  20  48  74  92 136 188 258 272 364 460
#     4  10  22  42  64  96 133 184 234 283 358 429
#     4  11  23  42  71  97 134 197 235 288 369 436
#     4  11  23  43  71 106 143 189 243 305 368 440
#
# _framework density 20.531254000000001
#
# number of rings (size 3 to 8) (size 9 to 14) (size 15 to 20)
#    0.000    0.941    5.882    2.824    0.000    4.706 
#    4.235    0.588    0.000    0.000    0.000    0.000 
#    0.000    0.000    0.000    0.000    0.000    0.000 
#
# Total GULP energy -189397.755419 kJ/mol
# GULP energy per Si atom -5570.522218 kJ/mol
# Density = 2.048452 g / cm^3
# Si number density = 20.531254 Si / 1000 Ang^3
#
#
#
# Elastic Constant Matrix: (Units=GPa)
#
#
# Indices 1 2 3 4 5 6 
#
# 1 126.8943 45.8700 40.9282 0.0000 0.0000 0.0000
# 2 45.8700 96.4314 40.2364 0.0000 0.0000 0.0000
# 3 40.9282 40.2364 93.6946 0.0000 0.0000 0.0000
# 4 0.0000 0.0000 0.0000 23.8164 0.0000 0.0000
# 5 0.0000 0.0000 0.0000 0.0000 28.2523 0.0000
# 6 0.0000 0.0000 0.0000 0.0000 0.0000 -1.8740
#
#
#
# Elastic Compliance Matrix: (Units=1/GPa)
#
#
# Indices 1 2 3 4 5 6 
#
# 1 0.010111 -0.003614 -0.002865 0.000000 0.000000 0.000000
# 2 -0.003614 0.013926 -0.004402 0.000000 0.000000 0.000000
# 3 -0.002865 -0.004402 0.013815 0.000000 0.000000 0.000000
# 4 0.000000 0.000000 0.000000 0.041988 0.000000 0.000000
# 5 0.000000 0.000000 0.000000 0.000000 0.035395 0.000000
# 6 0.000000 0.000000 0.000000 0.000000 0.000000 -0.533613
#
#
# Mechanical properties :
#
#
# Convention : Reuss Voigt Hill
#
# Bulk Modulus (GPa) = 62.14846 63.45439 62.80142
# Shear Modulus (GPa) = -12.77943 22.70465 4.96261
#
# Velocity S-wave (km/s) = -2.49758 3.32905 1.55639
# Velocity P-wave (km/s) = 4.69241 6.76388 5.82103
#
# Compressibility (1/GPa) = 0.01609050
#
# Stress axis : x y z
#
# Youngs Moduli (GPa) = 98.90196 71.80896 72.38757
#
# Poissons Ratio (x) = 0.25954 0.20736
# Poissons Ratio (y) = 0.35746 0.31862
# Poissons Ratio (z) = 0.28332 0.31607
#
# Static dielectric constant tensor:
#      x y z
#    x 2.095420 0.000000 0.000000 
#    y 0.000000 1.537550 0.000000 
#    z 0.000000 0.000000 2.265010 
# 
# From -- ./inp_files/5962.got.cif
#   From: 2010.05.17/outbox.cif.g08.bks.cpg/sg68_3_cif.got.tgz:5962.got - 2010.06.03 18:57:09.
