data_PCOD9508021
_publ_section_title
;
Structure prediction by ZEFSAII (Michael W. Deem and Ramdas Pophale) SiO2 
 PCOD9508021
Probable space group: C C C A
;
_chemical_formula_sum "Si O2"
_cell_formula_units_Z 76
_cell_length_a 29.500136
_cell_length_b 8.169994
_cell_length_c 16.457737
_cell_angle_alpha 90.000000
_cell_angle_beta 90.000000
_cell_angle_gamma 90.000000
_cell_volume 3966.576857
_symmetry_space_group_name_H-M "C C C A"
_symmetry_group_IT_number 68
_space_group.IT_coordinate_system_code '2'
_symmetry_cell_setting 'orthorhombic'
loop_
_space_group_symop_operation_xyz
x,y,z
-x,1/2-y,z
x,1/2-y,1/2-z
-x,y,1/2-z
-x,-y,-z
x,1/2+y,-z
-x,1/2+y,1/2+z
x,-y,1/2+z
1/2+x,1/2+y,z
1/2-x,-y,z
1/2+x,-y,1/2-z
1/2-x,1/2+y,1/2-z
1/2-x,1/2-y,-z
1/2+x,y,-z
1/2-x,y,1/2+z
1/2+x,1/2-y,1/2+z
loop_
_atom_site_type_symbol
_atom_site_label
_atom_site_fract_x
_atom_site_fract_y
_atom_site_fract_z
Si Si1 0.500000 0.750000 0.029817
Si Si2 0.500000 0.750000 0.750000
Si Si3 0.698919 0.773517 0.033773
Si Si4 0.250000 0.500000 0.138345
Si Si5 0.654803 0.453120 0.110579
Si Si6 0.700300 0.750000 0.750000
Si Si7 0.451546 0.944070 0.607182
O O1 0.520187 0.605795 0.084368
O O2 0.462068 0.678216 0.968293
O O3 0.469741 0.860521 0.689506
O O4 0.706983 0.934601 0.087996
O O5 0.681567 0.618313 0.084655
O O6 0.750000 0.750000 0.000000
O O7 0.666652 0.821003 0.959569
O O8 0.267492 0.351259 0.191119
O O9 0.671603 0.375710 0.195197
O O10 0.601363 0.482265 0.112834
#
# Coordination Sequence:
#
# PCOD9508021 Si02
#       7
#     8   4  16   8  16   8  16
#     4   9  20  40  66  91 120 160 202 251 318 374
#     4  10  22  42  64  90 136 164 192 250 344 380
#     4  12  22  41  62  87 120 169 208 257 303 361
#     4  12  24  40  60  80 120 166 206 246 312 356
#     4  12  23  39  64  93 123 160 215 258 302 368
#     4  12  25  38  58  89 122 160 206 259 298 369
#     4  10  21  40  64  94 123 161 202 257 311 381
#
# _framework density 19.160095999999999
#
# number of rings (size 3 to 8) (size 9 to 14) (size 15 to 20)
#    0.000    0.842    4.211    3.158    0.000    0.421 
#    0.000    8.421    0.000    0.000    0.000    0.000 
#    0.000    0.000    0.000    0.000    0.000    0.000 
#
# Total GULP energy -212303.797698 kJ/mol
# GULP energy per Si atom -5586.942045 kJ/mol
# Density = 1.911649 g / cm^3
# Si number density = 19.160096 Si / 1000 Ang^3
#
#
#
# Elastic Constant Matrix: (Units=GPa)
#
#
# Indices 1 2 3 4 5 6 
#
# 1 110.6766 27.5145 43.1894 0.0000 0.0000 0.0000
# 2 27.5145 97.0757 46.6743 0.0000 0.0000 0.0000
# 3 43.1894 46.6743 111.7849 0.0000 0.0000 0.0000
# 4 0.0000 0.0000 0.0000 51.5757 0.0000 0.0000
# 5 0.0000 0.0000 0.0000 0.0000 8.0783 0.0000
# 6 0.0000 0.0000 0.0000 0.0000 0.0000 20.8489
#
#
#
# Elastic Compliance Matrix: (Units=1/GPa)
#
#
# Indices 1 2 3 4 5 6 
#
# 1 0.010772 -0.001316 -0.003612 0.000000 0.000000 0.000000
# 2 -0.001316 0.013050 -0.004940 0.000000 0.000000 0.000000
# 3 -0.003612 -0.004940 0.012404 0.000000 0.000000 0.000000
# 4 0.000000 0.000000 0.000000 0.019389 0.000000 0.000000
# 5 0.000000 0.000000 0.000000 0.000000 0.123788 0.000000
# 6 0.000000 0.000000 0.000000 0.000000 0.000000 0.047964
#
#
# Mechanical properties :
#
#
# Convention : Reuss Voigt Hill
#
# Bulk Modulus (GPa) = 60.64912 61.58817 61.11865
# Shear Modulus (GPa) = 19.79410 29.57785 24.68598
#
# Velocity S-wave (km/s) = 3.21766 3.93328 3.59333
# Velocity P-wave (km/s) = 6.74737 7.26921 7.01315
#
# Compressibility (1/GPa) = 0.01648828
#
# Stress axis : x y z
#
# Youngs Moduli (GPa) = 92.83120 76.63105 80.61858
#
# Poissons Ratio (x) = 0.10088 0.29122
# Poissons Ratio (y) = 0.12220 0.39826
# Poissons Ratio (z) = 0.33534 0.37856
#
# Static dielectric constant tensor:
#      x y z
#    x 1.629340 0.000000 0.000000 
#    y 0.000000 1.689370 0.000000 
#    z 0.000000 0.000000 1.705660 
# 
# From -- ./inp_files/34020.got.cif
#   From: 2010.05.17/outbox.cif.g08.bks.cpg/sg68_18_cif.got.tgz:34020.got - 2010.06.03 18:57:09.
