data_PCOD9508962
_publ_section_title
;
Structure prediction by ZEFSAII (Michael W. Deem and Ramdas Pophale) SiO2 
 PCOD9508962
Probable space group: C C C A
;
_chemical_formula_sum "Si O2"
_cell_formula_units_Z 88
_cell_length_a 28.907427
_cell_length_b 10.113818
_cell_length_c 12.761479
_cell_angle_alpha 90.000000
_cell_angle_beta 90.000000
_cell_angle_gamma 90.000000
_cell_volume 3731.002860
_symmetry_space_group_name_H-M "C C C A"
_symmetry_group_IT_number 68
_space_group.IT_coordinate_system_code '2'
_symmetry_cell_setting 'orthorhombic'
loop_
_space_group_symop_operation_xyz
x,y,z
-x,1/2-y,z
x,1/2-y,1/2-z
-x,y,1/2-z
-x,-y,-z
x,1/2+y,-z
-x,1/2+y,1/2+z
x,-y,1/2+z
1/2+x,1/2+y,z
1/2-x,-y,z
1/2+x,-y,1/2-z
1/2-x,1/2+y,1/2-z
1/2-x,1/2-y,-z
1/2+x,y,-z
1/2-x,y,1/2+z
1/2+x,1/2-y,1/2+z
loop_
_atom_site_type_symbol
_atom_site_label
_atom_site_fract_x
_atom_site_fract_y
_atom_site_fract_z
Si Si1 0.369114 0.391964 0.708964
Si Si2 0.170046 0.223257 0.493799
Si Si3 0.500000 0.750000 0.015073
Si Si4 0.199872 0.509353 0.869095
Si Si5 0.079671 0.275373 0.625326
Si Si6 0.968866 0.968184 0.661196
O O1 0.353992 0.250000 0.750000
O O2 0.352611 0.378649 0.590244
O O3 0.341861 0.493388 0.783695
O O4 0.424324 0.398815 0.713849
O O5 0.190945 0.355633 0.438292
O O6 0.129099 0.266641 0.571922
O O7 0.201151 0.122643 0.560090
O O8 0.541606 0.803696 0.941190
O O9 0.498459 0.871513 0.096800
O O10 0.250000 0.500000 0.814037
O O11 0.080676 0.250000 0.750000
O O12 0.057819 0.418434 0.600270
O O13 0.000000 0.033279 0.750000
#
# Coordination Sequence:
#
# PCOD9508962 Si02
#       6
#    16  16   8  16  16  16
#     4  10  22  44  68  99 140 188 241 296 361 443
#     4  11  24  46  74 104 148 195 242 304 380 444
#     4  12  24  42  68 102 142 192 252 296 372 432
#     4  11  25  45  75 110 143 188 243 308 372 449
#     4  12  26  43  65 102 146 193 245 308 370 437
#     4  12  24  41  69 102 141 195 248 302 365 445
#
# _framework density 23.586151999999998
#
# number of rings (size 3 to 8) (size 9 to 14) (size 15 to 20)
#    0.000    0.727    1.818    6.000    2.545    0.727 
#    0.000   10.000    0.000    0.000    0.000    0.000 
#    0.000    0.000    0.000    0.000    0.000    0.000 
#
# Total GULP energy -245253.843698 kJ/mol
# GULP energy per Si atom -5573.950993 kJ/mol
# Density = 2.353247 g / cm^3
# Si number density = 23.586152 Si / 1000 Ang^3
#
#
#
# Elastic Constant Matrix: (Units=GPa)
#
#
# Indices 1 2 3 4 5 6 
#
# 1 104.7793 5.2025 49.5842 0.0000 0.0000 0.0000
# 2 5.2025 80.8914 16.9986 0.0000 0.0000 0.0000
# 3 49.5842 16.9986 93.4620 0.0000 0.0000 0.0000
# 4 0.0000 0.0000 0.0000 19.8003 0.0000 0.0000
# 5 0.0000 0.0000 0.0000 0.0000 72.4505 0.0000
# 6 0.0000 0.0000 0.0000 0.0000 0.0000 10.4096
#
#
#
# Elastic Compliance Matrix: (Units=1/GPa)
#
#
# Indices 1 2 3 4 5 6 
#
# 1 0.012774 0.000626 -0.006891 0.000000 0.000000 0.000000
# 2 0.000626 0.012884 -0.002676 0.000000 0.000000 0.000000
# 3 -0.006891 -0.002676 0.014842 0.000000 0.000000 0.000000
# 4 0.000000 0.000000 0.000000 0.050504 0.000000 0.000000
# 5 0.000000 0.000000 0.000000 0.000000 0.013803 0.000000
# 6 0.000000 0.000000 0.000000 0.000000 0.000000 0.096065
#
#
# Mechanical properties :
#
#
# Convention : Reuss Voigt Hill
#
# Bulk Modulus (GPa) = 44.20888 46.96704 45.58796
# Shear Modulus (GPa) = 22.09542 34.35524 28.22533
#
# Velocity S-wave (km/s) = 3.06403 3.82066 3.46307
# Velocity P-wave (km/s) = 5.59482 6.27849 5.94649
#
# Compressibility (1/GPa) = 0.02261989
#
# Stress axis : x y z
#
# Youngs Moduli (GPa) = 78.28629 77.61421 67.37682
#
# Poissons Ratio (x) = -0.04862 0.46427
# Poissons Ratio (y) = -0.04905 0.18028
# Poissons Ratio (z) = 0.53945 0.20767
#
# Static dielectric constant tensor:
#      x y z
#    x 2.092680 0.000000 0.000000 
#    y 0.000000 2.264560 0.000000 
#    z 0.000000 0.000000 2.072620 
# 
# From -- ./inp_files/17628.got.cif
#   From: 2010.05.17/outbox.cif.g08.bks.cpg/sg68_9_cif.got.tgz:17628.got - 2010.06.03 18:57:09.
