data_PCOD9508234
_publ_section_title
;
Structure prediction by ZEFSAII (Michael W. Deem and Ramdas Pophale) SiO2 
 PCOD9508234
Probable space group: C C C A
;
_chemical_formula_sum "Si O2"
_cell_formula_units_Z 120
_cell_length_a 22.725139
_cell_length_b 11.554913
_cell_length_c 21.986281
_cell_angle_alpha 90.000000
_cell_angle_beta 90.000000
_cell_angle_gamma 90.000000
_cell_volume 5773.311658
_symmetry_space_group_name_H-M "C C C A"
_symmetry_group_IT_number 68
_space_group.IT_coordinate_system_code '2'
_symmetry_cell_setting 'orthorhombic'
loop_
_space_group_symop_operation_xyz
x,y,z
-x,1/2-y,z
x,1/2-y,1/2-z
-x,y,1/2-z
-x,-y,-z
x,1/2+y,-z
-x,1/2+y,1/2+z
x,-y,1/2+z
1/2+x,1/2+y,z
1/2-x,-y,z
1/2+x,-y,1/2-z
1/2-x,1/2+y,1/2-z
1/2-x,1/2-y,-z
1/2+x,y,-z
1/2-x,y,1/2+z
1/2+x,1/2-y,1/2+z
loop_
_atom_site_type_symbol
_atom_site_label
_atom_site_fract_x
_atom_site_fract_y
_atom_site_fract_z
Si Si1 0.319173 0.870684 0.901296
Si Si2 0.250000 0.000000 0.501514
Si Si3 0.946440 0.486341 0.607935
Si Si4 0.931176 0.747121 0.581237
Si Si5 0.226088 0.372428 0.731848
Si Si6 0.138428 0.153910 0.531993
Si Si7 0.574334 0.021012 0.642310
Si Si8 0.590078 0.880370 0.763755
O O1 0.280575 0.865184 0.840895
O O2 0.350504 0.751263 0.917205
O O3 0.368090 0.967466 0.888384
O O4 0.280929 0.905945 0.958589
O O5 0.303619 0.928341 0.531732
O O6 0.923707 0.617895 0.605559
O O7 0.916515 0.422292 0.552298
O O8 0.929200 0.426441 0.671259
O O9 0.016719 0.483074 0.605472
O O10 0.883242 0.783559 0.530155
O O11 0.000000 0.750000 0.558777
O O12 0.925143 0.841090 0.635191
O O13 0.255956 0.250000 0.750000
O O14 0.250000 0.500000 0.747334
O O15 0.160801 0.372491 0.760363
O O16 0.571199 0.967607 0.709775
O O17 0.568496 0.750000 0.750000
#
# Coordination Sequence:
#
# PCOD9508234 Si02
#       8
#    16   8  16  16  16  16  16  16
#     4  11  23  42  67  92 127 174 217 272 331 397
#     4  12  24  46  62  90 134 180 220 266 328 394
#     4  11  24  42  65 103 135 169 223 277 329 400
#     4  10  24  41  63  97 135 176 221 269 333 401
#     4  10  21  43  64  93 127 169 222 277 338 401
#     4  12  25  42  67  97 131 177 224 279 329 396
#     4  10  22  42  70  96 135 174 214 272 341 398
#     4  10  22  43  67  99 132 169 216 268 339 402
#
# _framework density 20.785298000000001
#
# number of rings (size 3 to 8) (size 9 to 14) (size 15 to 20)
#    0.000    1.333    2.000    4.000    1.867    3.733 
#   12.000    2.000    0.000    0.000    0.000    0.000 
#    0.000    0.000    0.000    0.000    0.000    0.000 
#
# Total GULP energy -335019.525184 kJ/mol
# GULP energy per Si atom -5583.658753 kJ/mol
# Density = 2.073799 g / cm^3
# Si number density = 20.785298 Si / 1000 Ang^3
#
#
#
# Elastic Constant Matrix: (Units=GPa)
#
#
# Indices 1 2 3 4 5 6 
#
# 1 35.6150 29.9966 17.4167 0.0000 0.0000 0.0000
# 2 29.9966 146.7236 31.1161 0.0000 0.0000 0.0000
# 3 17.4167 31.1161 41.7593 0.0000 0.0000 0.0000
# 4 0.0000 0.0000 0.0000 6.2195 0.0000 0.0000
# 5 0.0000 0.0000 0.0000 0.0000 20.0582 0.0000
# 6 0.0000 0.0000 0.0000 0.0000 0.0000 28.0404
#
#
#
# Elastic Compliance Matrix: (Units=1/GPa)
#
#
# Indices 1 2 3 4 5 6 
#
# 1 0.038452 -0.005297 -0.012090 0.000000 0.000000 0.000000
# 2 -0.005297 0.008824 -0.004366 0.000000 0.000000 0.000000
# 3 -0.012090 -0.004366 0.032242 0.000000 0.000000 0.000000
# 4 0.000000 0.000000 0.000000 0.160786 0.000000 0.000000
# 5 0.000000 0.000000 0.000000 0.000000 0.049855 0.000000
# 6 0.000000 0.000000 0.000000 0.000000 0.000000 0.035663
#
#
# Mechanical properties :
#
#
# Convention : Reuss Voigt Hill
#
# Bulk Modulus (GPa) = 27.76847 42.35074 35.05961
# Shear Modulus (GPa) = 13.11189 20.56818 16.84003
#
# Velocity S-wave (km/s) = 2.51435 3.14913 2.84947
# Velocity P-wave (km/s) = 4.67097 5.80020 5.26594
#
# Compressibility (1/GPa) = 0.03601207
#
# Stress axis : x y z
#
# Youngs Moduli (GPa) = 26.00640 113.32185 31.01499
#
# Poissons Ratio (x) = 0.60029 0.37498
# Poissons Ratio (y) = 0.13776 0.13541
# Poissons Ratio (z) = 0.31442 0.49476
#
# Static dielectric constant tensor:
#      x y z
#    x 1.765470 0.000000 0.000000 
#    y 0.000000 1.751120 0.000000 
#    z 0.000000 0.000000 1.727410 
# 
# From -- ./inp_files/40946.got.cif
#   From: 2010.05.17/outbox.cif.g08.bks.cpg/sg68_21_cif.got.tgz:40946.got - 2010.06.03 18:57:09.
