data_PCOD9508786
_publ_section_title
;
Structure prediction by ZEFSAII (Michael W. Deem and Ramdas Pophale) SiO2 
 PCOD9508786
Probable space group: C C C A
;
_chemical_formula_sum "Si O2"
_cell_formula_units_Z 64
_cell_length_a 26.235819
_cell_length_b 11.733119
_cell_length_c 8.675672
_cell_angle_alpha 90.000000
_cell_angle_beta 90.000000
_cell_angle_gamma 90.000000
_cell_volume 2670.614642
_symmetry_space_group_name_H-M "C C C A"
_symmetry_group_IT_number 68
_space_group.IT_coordinate_system_code '2'
_symmetry_cell_setting 'orthorhombic'
loop_
_space_group_symop_operation_xyz
x,y,z
-x,1/2-y,z
x,1/2-y,1/2-z
-x,y,1/2-z
-x,-y,-z
x,1/2+y,-z
-x,1/2+y,1/2+z
x,-y,1/2+z
1/2+x,1/2+y,z
1/2-x,-y,z
1/2+x,-y,1/2-z
1/2-x,1/2+y,1/2-z
1/2-x,1/2-y,-z
1/2+x,y,-z
1/2-x,y,1/2+z
1/2+x,1/2-y,1/2+z
loop_
_atom_site_type_symbol
_atom_site_label
_atom_site_fract_x
_atom_site_fract_y
_atom_site_fract_z
Si Si1 0.411574 0.380374 0.196670
Si Si2 0.250000 0.500000 0.840792
Si Si3 0.621110 0.750000 0.250000
Si Si4 0.825374 0.067276 0.099488
Si Si5 0.044351 0.930684 0.622325
O O1 0.402093 0.250000 0.250000
O O2 0.363070 0.459173 0.138063
O O3 0.434340 0.443132 0.347562
O O4 0.454726 0.400102 0.060177
O O5 0.218085 0.580546 0.729840
O O6 0.205901 0.448814 0.945375
O O7 0.647965 0.811523 0.107945
O O8 0.588441 0.849185 0.320018
O O9 0.000000 0.909291 0.750000
#
# Coordination Sequence:
#
# PCOD9508786 Si02
#       5
#    16   8   8  16  16
#     4  11  26  46  77 107 148 198 245 306 378 445
#     4  10  22  42  64  98 148 182 252 302 354 452
#     4  10  23  40  74  94 146 190 236 308 377 430
#     4  10  22  43  65 105 141 191 243 299 372 433
#     4  11  25  47  73 108 148 188 253 311 368 442
#
# _framework density 23.964521000000001
#
# number of rings (size 3 to 8) (size 9 to 14) (size 15 to 20)
#    0.000    1.500    0.000    4.125   10.500    1.500 
#   13.500    0.000    0.000    0.000    0.000    0.000 
#    0.000    0.000    0.000    0.000    0.000    0.000 
#
# Total GULP energy -178389.071484 kJ/mol
# GULP energy per Si atom -5574.658484 kJ/mol
# Density = 2.390998 g / cm^3
# Si number density = 23.964521 Si / 1000 Ang^3
#
#
#
# Elastic Constant Matrix: (Units=GPa)
#
#
# Indices 1 2 3 4 5 6 
#
# 1 103.0348 41.0143 24.9173 0.0000 0.0000 0.0000
# 2 41.0143 130.7832 20.6449 0.0000 0.0000 0.0000
# 3 24.9173 20.6449 116.0225 0.0000 0.0000 0.0000
# 4 0.0000 0.0000 0.0000 3.5721 0.0000 0.0000
# 5 0.0000 0.0000 0.0000 0.0000 49.4796 0.0000
# 6 0.0000 0.0000 0.0000 0.0000 0.0000 5.7980
#
#
#
# Elastic Compliance Matrix: (Units=1/GPa)
#
#
# Indices 1 2 3 4 5 6 
#
# 1 0.011474 -0.003302 -0.001877 0.000000 0.000000 0.000000
# 2 -0.003302 0.008817 -0.000860 0.000000 0.000000 0.000000
# 3 -0.001877 -0.000860 0.009175 0.000000 0.000000 0.000000
# 4 0.000000 0.000000 0.000000 0.279950 0.000000 0.000000
# 5 0.000000 0.000000 0.000000 0.000000 0.020210 0.000000
# 6 0.000000 0.000000 0.000000 0.000000 0.000000 0.172474
#
#
# Mechanical properties :
#
#
# Convention : Reuss Voigt Hill
#
# Bulk Modulus (GPa) = 57.50617 58.11040 57.80829
# Shear Modulus (GPa) = 9.61587 29.32087 19.46837
#
# Velocity S-wave (km/s) = 2.00531 3.50167 2.85333
# Velocity P-wave (km/s) = 5.42311 6.37574 5.91862
#
# Compressibility (1/GPa) = 0.01738944
#
# Stress axis : x y z
#
# Youngs Moduli (GPa) = 87.15610 113.41101 108.99148
#
# Poissons Ratio (x) = 0.37448 0.20453
# Poissons Ratio (y) = 0.28779 0.09371
# Poissons Ratio (z) = 0.16355 0.09751
#
# Static dielectric constant tensor:
#      x y z
#    x 1.970590 0.000000 0.000000 
#    y 0.000000 1.814290 0.000000 
#    z 0.000000 0.000000 2.057330 
# 
# From -- ./inp_files/4122.got.cif
#   From: 2010.05.17/outbox.cif.g08.bks.cpg/sg68_3_cif.got.tgz:4122.got - 2010.06.03 18:57:09.
