data_PCOD9508945
_publ_section_title
;
Structure prediction by ZEFSAII (Michael W. Deem and Ramdas Pophale) SiO2 
 PCOD9508945
Probable space group: C C C A
;
_chemical_formula_sum "Si O2"
_cell_formula_units_Z 88
_cell_length_a 18.089139
_cell_length_b 13.657937
_cell_length_c 14.817042
_cell_angle_alpha 90.000000
_cell_angle_beta 90.000000
_cell_angle_gamma 90.000000
_cell_volume 3660.703151
_symmetry_space_group_name_H-M "C C C A"
_symmetry_group_IT_number 68
_space_group.IT_coordinate_system_code '2'
_symmetry_cell_setting 'orthorhombic'
loop_
_space_group_symop_operation_xyz
x,y,z
-x,1/2-y,z
x,1/2-y,1/2-z
-x,y,1/2-z
-x,-y,-z
x,1/2+y,-z
-x,1/2+y,1/2+z
x,-y,1/2+z
1/2+x,1/2+y,z
1/2-x,-y,z
1/2+x,-y,1/2-z
1/2-x,1/2+y,1/2-z
1/2-x,1/2-y,-z
1/2+x,y,-z
1/2-x,y,1/2+z
1/2+x,1/2-y,1/2+z
loop_
_atom_site_type_symbol
_atom_site_label
_atom_site_fract_x
_atom_site_fract_y
_atom_site_fract_z
Si Si1 0.000000 0.914956 0.750000
Si Si2 0.843923 0.706796 0.992076
Si Si3 0.149990 0.334853 0.319385
Si Si4 0.204246 0.122262 0.912505
Si Si5 0.549940 0.042795 0.081533
Si Si6 0.750000 0.500000 0.745446
Si Si7 0.000000 0.750000 0.053263
O O1 0.038746 0.977686 0.829538
O O2 0.064155 0.853583 0.702037
O O3 0.836666 0.789735 0.916043
O O4 0.784443 0.625162 0.962949
O O5 0.819295 0.763493 0.082259
O O6 0.932278 0.699632 0.997751
O O7 0.174944 0.250000 0.250000
O O8 0.190830 0.438117 0.309475
O O9 0.135088 0.058158 0.948489
O O10 0.215054 0.079627 0.813184
O O11 0.527946 0.154801 0.105383
O O12 0.500000 0.000000 0.000000
#
# Coordination Sequence:
#
# PCOD9508945 Si02
#       7
#     8  16  16  16  16   8   8
#     4  12  25  45  70 104 146 192 237 305 374 432
#     4  10  23  44  71 100 132 194 235 296 369 438
#     4  12  26  43  69 106 141 185 239 295 365 439
#     4  10  22  44  65  96 136 175 238 290 363 420
#     4  11  25  46  70 105 142 190 245 301 365 452
#     4  12  24  44  68  98 142 182 226 308 352 436
#     4  10  24  45  73 104 140 184 252 303 364 443
#
# _framework density 24.039097999999999
#
# number of rings (size 3 to 8) (size 9 to 14) (size 15 to 20)
#    0.000    1.091    3.636    2.455    7.636    1.091 
#    9.818    3.636    0.000    0.000    0.000    0.000 
#    0.000    0.000    0.000    0.000    0.000    0.000 
#
# Total GULP energy -245511.936135 kJ/mol
# GULP energy per Si atom -5579.816730 kJ/mol
# Density = 2.398438 g / cm^3
# Si number density = 24.039098 Si / 1000 Ang^3
#
#
#
# Elastic Constant Matrix: (Units=GPa)
#
#
# Indices 1 2 3 4 5 6 
#
# 1 183.3166 45.0042 13.9095 0.0000 0.0000 0.0000
# 2 45.0042 110.2453 18.8736 0.0000 0.0000 0.0000
# 3 13.9095 18.8736 57.8071 0.0000 0.0000 0.0000
# 4 0.0000 0.0000 0.0000 17.8000 0.0000 0.0000
# 5 0.0000 0.0000 0.0000 0.0000 19.6421 0.0000
# 6 0.0000 0.0000 0.0000 0.0000 0.0000 63.2182
#
#
#
# Elastic Compliance Matrix: (Units=1/GPa)
#
#
# Indices 1 2 3 4 5 6 
#
# 1 0.006089 -0.002367 -0.000692 0.000000 0.000000 0.000000
# 2 -0.002367 0.010528 -0.002868 0.000000 0.000000 0.000000
# 3 -0.000692 -0.002868 0.018402 0.000000 0.000000 0.000000
# 4 0.000000 0.000000 0.000000 0.056180 0.000000 0.000000
# 5 0.000000 0.000000 0.000000 0.000000 0.050911 0.000000
# 6 0.000000 0.000000 0.000000 0.000000 0.000000 0.015818
#
#
# Mechanical properties :
#
#
# Convention : Reuss Voigt Hill
#
# Bulk Modulus (GPa) = 43.16973 56.32707 49.74840
# Shear Modulus (GPa) = 28.16859 38.37084 33.26971
#
# Velocity S-wave (km/s) = 3.42684 3.99956 3.72423
# Velocity P-wave (km/s) = 5.80128 6.69410 6.26362
#
# Compressibility (1/GPa) = 0.02316438
#
# Stress axis : x y z
#
# Youngs Moduli (GPa) = 164.23961 94.98588 54.34257
#
# Poissons Ratio (x) = 0.22483 0.03762
# Poissons Ratio (y) = 0.38876 0.15584
# Poissons Ratio (z) = 0.11369 0.27239
#
# Static dielectric constant tensor:
#      x y z
#    x 2.037220 0.000000 0.000000 
#    y 0.000000 1.944910 0.000000 
#    z 0.000000 0.000000 2.043570 
# 
# From -- ./inp_files/31887.got.cif
#   From: 2010.05.17/outbox.cif.g08.bks.cpg/sg68_16_cif.got.tgz:31887.got - 2010.06.03 18:57:09.
