data_PCOD9508607
_publ_section_title
;
Structure prediction by ZEFSAII (Michael W. Deem and Ramdas Pophale) SiO2 
 PCOD9508607
Probable space group: C C C A
;
_chemical_formula_sum "Si O2"
_cell_formula_units_Z 80
_cell_length_a 25.341606
_cell_length_b 10.159062
_cell_length_c 14.238427
_cell_angle_alpha 90.000000
_cell_angle_beta 90.000000
_cell_angle_gamma 90.000000
_cell_volume 3665.639555
_symmetry_space_group_name_H-M "C C C A"
_symmetry_group_IT_number 68
_space_group.IT_coordinate_system_code '2'
_symmetry_cell_setting 'orthorhombic'
loop_
_space_group_symop_operation_xyz
x,y,z
-x,1/2-y,z
x,1/2-y,1/2-z
-x,y,1/2-z
-x,-y,-z
x,1/2+y,-z
-x,1/2+y,1/2+z
x,-y,1/2+z
1/2+x,1/2+y,z
1/2-x,-y,z
1/2+x,-y,1/2-z
1/2-x,1/2+y,1/2-z
1/2-x,1/2-y,-z
1/2+x,y,-z
1/2-x,y,1/2+z
1/2+x,1/2-y,1/2+z
loop_
_atom_site_type_symbol
_atom_site_label
_atom_site_fract_x
_atom_site_fract_y
_atom_site_fract_z
Si Si1 0.620158 0.397567 0.282323
Si Si2 0.190613 0.514269 0.389729
Si Si3 0.160850 0.290942 0.538380
Si Si4 0.046441 0.660839 0.454359
Si Si5 0.485445 0.045229 0.849177
O O1 0.605668 0.250000 0.250000
O O2 0.649370 0.466872 0.195284
O O3 0.662301 0.377107 0.366410
O O4 0.567442 0.463492 0.322470
O O5 0.250000 0.500000 0.353256
O O6 0.174876 0.388642 0.453691
O O7 0.190893 0.651788 0.449651
O O8 0.100628 0.237811 0.538534
O O9 0.031888 0.626232 0.560820
O O10 0.000000 0.750000 0.415210
O O11 0.037122 0.533086 0.389331
O O12 0.500000 0.107903 0.750000
#
# Coordination Sequence:
#
# PCOD9508607 Si02
#       5
#    16  16  16  16  16
#     4  10  22  40  65  93 125 174 231 271 329 419
#     4  11  25  45  71 101 132 177 235 291 347 405
#     4  11  23  45  71  96 140 180 226 284 349 414
#     4  11  24  40  63  97 138 177 224 270 337 426
#     4  11  23  38  62  94 135 181 224 278 339 408
#
# _framework density 21.824294999999999
#
# number of rings (size 3 to 8) (size 9 to 14) (size 15 to 20)
#    0.000    1.200    2.000    4.200    5.600    1.200 
#    0.000   11.000    0.000    0.000    0.000    0.000 
#    0.000    0.000    0.000    0.000    0.000    0.000 
#
# Total GULP energy -223182.789970 kJ/mol
# GULP energy per Si atom -5579.569749 kJ/mol
# Density = 2.177462 g / cm^3
# Si number density = 21.824295 Si / 1000 Ang^3
#
#
#
# Elastic Constant Matrix: (Units=GPa)
#
#
# Indices 1 2 3 4 5 6 
#
# 1 119.1124 47.7857 19.3196 0.0000 0.0000 0.0000
# 2 47.7857 78.0673 46.9674 0.0000 0.0000 0.0000
# 3 19.3196 46.9674 122.7375 0.0000 0.0000 0.0000
# 4 0.0000 0.0000 0.0000 29.0918 0.0000 0.0000
# 5 0.0000 0.0000 0.0000 0.0000 7.5466 0.0000
# 6 0.0000 0.0000 0.0000 0.0000 0.0000 19.7773
#
#
#
# Elastic Compliance Matrix: (Units=1/GPa)
#
#
# Indices 1 2 3 4 5 6 
#
# 1 0.011246 -0.007559 0.001122 0.000000 0.000000 0.000000
# 2 -0.007559 0.021721 -0.007122 0.000000 0.000000 0.000000
# 3 0.001122 -0.007122 0.010696 0.000000 0.000000 0.000000
# 4 0.000000 0.000000 0.000000 0.034374 0.000000 0.000000
# 5 0.000000 0.000000 0.000000 0.000000 0.132510 0.000000
# 6 0.000000 0.000000 0.000000 0.000000 0.000000 0.050563
#
#
# Mechanical properties :
#
#
# Convention : Reuss Voigt Hill
#
# Bulk Modulus (GPa) = 60.43798 60.89583 60.66690
# Shear Modulus (GPa) = 17.02166 25.00610 21.01388
#
# Velocity S-wave (km/s) = 2.79577 3.38863 3.10638
# Velocity P-wave (km/s) = 6.17858 6.57828 6.38156
#
# Compressibility (1/GPa) = 0.01654589
#
# Stress axis : x y z
#
# Youngs Moduli (GPa) = 88.92121 46.03783 93.49117
#
# Poissons Ratio (x) = 0.34800 -0.10493
# Poissons Ratio (y) = 0.67215 0.66586
# Poissons Ratio (z) = -0.09980 0.32789
#
# Static dielectric constant tensor:
#      x y z
#    x 1.801900 0.000000 0.000000 
#    y 0.000000 1.875090 0.000000 
#    z 0.000000 0.000000 1.838500 
# 
# From -- ./inp_files/20883.got.cif
#   From: 2010.05.17/outbox.cif.g08.bks.cpg/sg68_11_cif.got.tgz:20883.got - 2010.06.03 18:57:09.
