data_PCOD9508655
_publ_section_title
;
Structure prediction by ZEFSAII (Michael W. Deem and Ramdas Pophale) SiO2 
 PCOD9508655
Probable space group: C C C A
;
_chemical_formula_sum "Si O2"
_cell_formula_units_Z 60
_cell_length_a 22.395974
_cell_length_b 15.531012
_cell_length_c 7.506853
_cell_angle_alpha 90.000000
_cell_angle_beta 90.000000
_cell_angle_gamma 90.000000
_cell_volume 2611.124751
_symmetry_space_group_name_H-M "C C C A"
_symmetry_group_IT_number 68
_space_group.IT_coordinate_system_code '2'
_symmetry_cell_setting 'orthorhombic'
loop_
_space_group_symop_operation_xyz
x,y,z
-x,1/2-y,z
x,1/2-y,1/2-z
-x,y,1/2-z
-x,-y,-z
x,1/2+y,-z
-x,1/2+y,1/2+z
x,-y,1/2+z
1/2+x,1/2+y,z
1/2-x,-y,z
1/2+x,-y,1/2-z
1/2-x,1/2+y,1/2-z
1/2-x,1/2-y,-z
1/2+x,y,-z
1/2-x,y,1/2+z
1/2+x,1/2-y,1/2+z
loop_
_atom_site_type_symbol
_atom_site_label
_atom_site_fract_x
_atom_site_fract_y
_atom_site_fract_z
Si Si1 0.320347 0.341424 0.173654
Si Si2 0.121535 0.058987 0.528265
Si Si3 0.095058 0.122198 0.135434
Si Si4 0.750000 0.500000 0.915180
Si Si5 0.000000 0.250000 0.250000
O O1 0.301672 0.250000 0.250000
O O2 0.372348 0.378911 0.303300
O O3 0.265903 0.409235 0.177328
O O4 0.350141 0.338923 0.978617
O O5 0.109051 0.106437 0.344042
O O6 0.082050 0.974162 0.561653
O O7 0.188009 0.018150 0.512813
O O8 0.040916 0.188222 0.130502
#
# Coordination Sequence:
#
# PCOD9508655 Si02
#       5
#    16  16  16   8   4
#     4  11  24  43  69 105 146 187 228 281 344 426
#     4  11  22  43  72 102 144 180 229 283 348 426
#     4  11  24  46  70 100 137 180 235 298 347 415
#     4  10  22  40  70 106 146 190 222 270 350 420
#     4  12  28  48  70 100 134 178 248 304 358 406
#
# _framework density 22.978603
#
# number of rings (size 3 to 8) (size 9 to 14) (size 15 to 20)
#    0.000    1.067    5.333    2.400    3.733    2.133 
#    2.400    4.667    0.000    0.000    0.000    0.000 
#    0.000    0.000    0.000    0.000    0.000    0.000 
#
# Total GULP energy -167540.500931 kJ/mol
# GULP energy per Si atom -5584.683364 kJ/mol
# Density = 2.292630 g / cm^3
# Si number density = 22.978603 Si / 1000 Ang^3
#
#
#
# Elastic Constant Matrix: (Units=GPa)
#
#
# Indices 1 2 3 4 5 6 
#
# 1 75.4616 57.5724 23.9560 0.0000 0.0000 0.0000
# 2 57.5724 167.2412 32.1746 0.0000 0.0000 0.0000
# 3 23.9560 32.1746 100.5885 0.0000 0.0000 0.0000
# 4 0.0000 0.0000 0.0000 5.6606 0.0000 0.0000
# 5 0.0000 0.0000 0.0000 0.0000 4.1965 0.0000
# 6 0.0000 0.0000 0.0000 0.0000 0.0000 53.5170
#
#
#
# Elastic Compliance Matrix: (Units=1/GPa)
#
#
# Indices 1 2 3 4 5 6 
#
# 1 0.018558 -0.005901 -0.002532 0.000000 0.000000 0.000000
# 2 -0.005901 0.008248 -0.001233 0.000000 0.000000 0.000000
# 3 -0.002532 -0.001233 0.010939 0.000000 0.000000 0.000000
# 4 0.000000 0.000000 0.000000 0.176660 0.000000 0.000000
# 5 0.000000 0.000000 0.000000 0.000000 0.238294 0.000000
# 6 0.000000 0.000000 0.000000 0.000000 0.000000 0.018686
#
#
# Mechanical properties :
#
#
# Convention : Reuss Voigt Hill
#
# Bulk Modulus (GPa) = 54.31137 63.41081 58.86109
# Shear Modulus (GPa) = 10.06330 27.98070 19.02200
#
# Velocity S-wave (km/s) = 2.09498 3.49332 2.88030
# Velocity P-wave (km/s) = 5.43496 6.62771 6.06075
#
# Compressibility (1/GPa) = 0.01841235
#
# Stress axis : x y z
#
# Youngs Moduli (GPa) = 53.88506 121.23993 91.41716
#
# Poissons Ratio (x) = 0.71549 0.23148
# Poissons Ratio (y) = 0.31800 0.11270
# Poissons Ratio (z) = 0.13644 0.14946
#
# Static dielectric constant tensor:
#      x y z
#    x 1.832920 0.000000 0.000000 
#    y 0.000000 1.881150 0.000000 
#    z 0.000000 0.000000 1.961100 
# 
# From -- ./inp_files/4928.got.cif
#   From: 2010.05.17/outbox.cif.g08.bks.cpg/sg68_3_cif.got.tgz:4928.got - 2010.06.03 18:57:09.
