data_PCOD9508447
_publ_section_title
;
Structure prediction by ZEFSAII (Michael W. Deem and Ramdas Pophale) SiO2 
 PCOD9508447
Probable space group: C C C A
;
_chemical_formula_sum "Si O2"
_cell_formula_units_Z 56
_cell_length_a 8.579368
_cell_length_b 24.825189
_cell_length_c 11.611572
_cell_angle_alpha 90.000000
_cell_angle_beta 90.000000
_cell_angle_gamma 90.000000
_cell_volume 2473.084068
_symmetry_space_group_name_H-M "C C C A"
_symmetry_group_IT_number 68
_space_group.IT_coordinate_system_code '2'
_symmetry_cell_setting 'orthorhombic'
loop_
_space_group_symop_operation_xyz
x,y,z
-x,1/2-y,z
x,1/2-y,1/2-z
-x,y,1/2-z
-x,-y,-z
x,1/2+y,-z
-x,1/2+y,1/2+z
x,-y,1/2+z
1/2+x,1/2+y,z
1/2-x,-y,z
1/2+x,-y,1/2-z
1/2-x,1/2+y,1/2-z
1/2-x,1/2-y,-z
1/2+x,y,-z
1/2-x,y,1/2+z
1/2+x,1/2-y,1/2+z
loop_
_atom_site_type_symbol
_atom_site_label
_atom_site_fract_x
_atom_site_fract_y
_atom_site_fract_z
Si Si1 0.929087 0.458123 0.091449
Si Si2 0.000000 0.047175 0.750000
Si Si3 0.680252 0.730184 0.377743
Si Si4 0.244123 0.396276 0.094433
O O1 0.895713 0.503427 0.184693
O O2 0.078229 0.422349 0.124451
O O3 0.800805 0.419490 0.031094
O O4 0.000000 0.500000 0.000000
O O5 0.114868 0.083747 0.825013
O O6 0.500000 0.750000 0.379285
O O7 0.740097 0.750000 0.250000
O O8 0.750000 0.750000 0.500000
O O9 0.713532 0.666576 0.388341
#
# Coordination Sequence:
#
# PCOD9508447 Si02
#       4
#    16   8  16  16
#     4  10  22  39  62  98 136 175 225 278 348 438
#     4  10  22  38  63 102 139 178 228 284 358 448
#     4  11  27  50  74 106 142 188 252 312 364 432
#     4  11  24  43  68  97 139 190 232 299 368 428
#
# _framework density 22.643792000000001
#
# number of rings (size 3 to 8) (size 9 to 14) (size 15 to 20)
#    0.000    1.429    0.000    5.143    0.000   21.143 
#    0.000    0.000    0.000    0.000    0.000    0.000 
#    0.000    0.000    0.000    0.000    0.000    0.000 
#
# Total GULP energy -155900.270852 kJ/mol
# GULP energy per Si atom -5567.866816 kJ/mol
# Density = 2.259225 g / cm^3
# Si number density = 22.643792 Si / 1000 Ang^3
#
#
#
# Elastic Constant Matrix: (Units=GPa)
#
#
# Indices 1 2 3 4 5 6 
#
# 1 142.2760 74.6098 47.8679 0.0000 0.0000 0.0000
# 2 74.6098 255.1907 76.0276 0.0000 0.0000 0.0000
# 3 47.8679 76.0276 118.1259 0.0000 0.0000 0.0000
# 4 0.0000 0.0000 0.0000 27.4936 0.0000 0.0000
# 5 0.0000 0.0000 0.0000 0.0000 37.4456 0.0000
# 6 0.0000 0.0000 0.0000 0.0000 0.0000 33.8166
#
#
#
# Elastic Compliance Matrix: (Units=1/GPa)
#
#
# Indices 1 2 3 4 5 6 
#
# 1 0.008805 -0.001870 -0.002364 0.000000 0.000000 0.000000
# 2 -0.001870 0.005245 -0.002618 0.000000 0.000000 0.000000
# 3 -0.002364 -0.002618 0.011109 0.000000 0.000000 0.000000
# 4 0.000000 0.000000 0.000000 0.036372 0.000000 0.000000
# 5 0.000000 0.000000 0.000000 0.000000 0.026705 0.000000
# 6 0.000000 0.000000 0.000000 0.000000 0.000000 0.029571
#
#
# Mechanical properties :
#
#
# Convention : Reuss Voigt Hill
#
# Bulk Modulus (GPa) = 87.30754 101.40036 94.35395
# Shear Modulus (GPa) = 36.94655 40.89031 38.91843
#
# Velocity S-wave (km/s) = 4.04374 4.25409 4.15025
# Velocity P-wave (km/s) = 7.77452 8.30708 8.04521
#
# Compressibility (1/GPa) = 0.01145376
#
# Stress axis : x y z
#
# Youngs Moduli (GPa) = 113.57690 190.64485 90.01808
#
# Poissons Ratio (x) = 0.35646 0.21285
# Poissons Ratio (y) = 0.21236 0.23570
# Poissons Ratio (z) = 0.26855 0.49917
#
# Static dielectric constant tensor:
#      x y z
#    x 1.852980 0.000000 0.000000 
#    y 0.000000 1.840120 0.000000 
#    z 0.000000 0.000000 2.162480 
# 
# From -- ./inp_files/10586.got.cif
#   From: 2010.05.17/outbox.cif.g08.bks.cpg/sg68_6_cif.got.tgz:10586.got - 2010.06.03 18:57:09.
