data_PCOD9508864
_publ_section_title
;
Structure prediction by ZEFSAII (Michael W. Deem and Ramdas Pophale) SiO2 
 PCOD9508864
Probable space group: C C C A
;
_chemical_formula_sum "Si O2"
_cell_formula_units_Z 64
_cell_length_a 29.064134
_cell_length_b 11.938606
_cell_length_c 8.352858
_cell_angle_alpha 90.000000
_cell_angle_beta 90.000000
_cell_angle_gamma 90.000000
_cell_volume 2898.318476
_symmetry_space_group_name_H-M "C C C A"
_symmetry_group_IT_number 68
_space_group.IT_coordinate_system_code '2'
_symmetry_cell_setting 'orthorhombic'
loop_
_space_group_symop_operation_xyz
x,y,z
-x,1/2-y,z
x,1/2-y,1/2-z
-x,y,1/2-z
-x,-y,-z
x,1/2+y,-z
-x,1/2+y,1/2+z
x,-y,1/2+z
1/2+x,1/2+y,z
1/2-x,-y,z
1/2+x,-y,1/2-z
1/2-x,1/2+y,1/2-z
1/2-x,1/2-y,-z
1/2+x,y,-z
1/2-x,y,1/2+z
1/2+x,1/2-y,1/2+z
loop_
_atom_site_type_symbol
_atom_site_label
_atom_site_fract_x
_atom_site_fract_y
_atom_site_fract_z
Si Si1 0.881244 0.750000 0.250000
Si Si2 0.538760 0.653817 0.959329
Si Si3 0.308613 0.114459 0.049499
Si Si4 0.500000 0.954974 0.250000
Si Si5 0.218192 0.095239 0.214417
O O1 0.914188 0.803289 0.115531
O O2 0.848429 0.666157 0.155070
O O3 0.500000 0.750000 0.931670
O O4 0.527088 0.539535 0.865260
O O5 0.534194 0.620358 0.144738
O O6 0.258941 0.156011 0.118634
O O7 0.309742 0.980572 0.088326
O O8 0.310323 0.143696 0.861461
O O9 0.250000 0.000000 0.302961
#
# Coordination Sequence:
#
# PCOD9508864 Si02
#       5
#     8  16  16   8  16
#     4  12  23  34  58  98 132 148 216 290 307 370
#     4  11  22  45  65  97 128 167 214 268 334 406
#     4   9  18  32  59  78 119 163 204 269 294 379
#     4  10  22  42  78  80 118 192 198 248 354 406
#     4   8  14  36  54  75 108 171 213 230 319 384
#
# _framework density 22.081771
#
# number of rings (size 3 to 8) (size 9 to 14) (size 15 to 20)
#    1.500    0.500    5.000    0.375    0.000    3.000 
#    0.000    0.000   11.000    0.000    0.000    0.000 
#    0.000    0.000    0.000    0.000    0.000    0.000 
#
# Total GULP energy -178191.070515 kJ/mol
# GULP energy per Si atom -5568.470954 kJ/mol
# Density = 2.203151 g / cm^3
# Si number density = 22.081771 Si / 1000 Ang^3
#
#
#
# Elastic Constant Matrix: (Units=GPa)
#
#
# Indices 1 2 3 4 5 6 
#
# 1 100.2392 53.1357 46.0054 0.0000 0.0000 0.0000
# 2 53.1357 66.7413 47.7643 0.0000 0.0000 0.0000
# 3 46.0054 47.7643 147.2074 0.0000 0.0000 0.0000
# 4 0.0000 0.0000 0.0000 41.6149 0.0000 0.0000
# 5 0.0000 0.0000 0.0000 0.0000 -0.5978 0.0000
# 6 0.0000 0.0000 0.0000 0.0000 0.0000 15.4073
#
#
#
# Elastic Compliance Matrix: (Units=1/GPa)
#
#
# Indices 1 2 3 4 5 6 
#
# 1 0.017430 -0.012996 -0.001230 0.000000 0.000000 0.000000
# 2 -0.012996 0.029205 -0.005415 0.000000 0.000000 0.000000
# 3 -0.001230 -0.005415 0.008935 0.000000 0.000000 0.000000
# 4 0.000000 0.000000 0.000000 0.024030 0.000000 0.000000
# 5 0.000000 0.000000 0.000000 0.000000 -1.672820 0.000000
# 6 0.000000 0.000000 0.000000 0.000000 0.000000 0.064904
#
#
# Mechanical properties :
#
#
# Convention : Reuss Voigt Hill
#
# Bulk Modulus (GPa) = 61.39767 67.55542 64.47654
# Shear Modulus (GPa) = -3.37017 22.43706 9.53344
#
# Velocity S-wave (km/s) = -1.23674 3.19107 2.08007
# Velocity P-wave (km/s) = 5.08190 6.65109 5.91873
#
# Compressibility (1/GPa) = 0.01628726
#
# Stress axis : x y z
#
# Youngs Moduli (GPa) = 57.37236 34.24056 111.92565
#
# Poissons Ratio (x) = 0.44500 0.13771
# Poissons Ratio (y) = 0.74563 0.60603
# Poissons Ratio (z) = 0.07059 0.18540
#
# Static dielectric constant tensor:
#      x y z
#    x 1.776920 0.000000 0.000000 
#    y 0.000000 -8.798220 0.000000 
#    z 0.000000 0.000000 1.824290 
# 
# From -- ./inp_files/9427.got.cif
#   From: 2010.05.17/outbox.cif.g08.bks.cpg/sg68_5_cif.got.tgz:9427.got - 2010.06.03 18:57:09.
