data_PCOD9508964
_publ_section_title
;
Structure prediction by ZEFSAII (Michael W. Deem and Ramdas Pophale) SiO2 
 PCOD9508964
Probable space group: C C C A
;
_chemical_formula_sum "Si O2"
_cell_formula_units_Z 72
_cell_length_a 14.261996
_cell_length_b 17.630569
_cell_length_c 12.226754
_cell_angle_alpha 90.000000
_cell_angle_beta 90.000000
_cell_angle_gamma 90.000000
_cell_volume 3074.381891
_symmetry_space_group_name_H-M "C C C A"
_symmetry_group_IT_number 68
_space_group.IT_coordinate_system_code '2'
_symmetry_cell_setting 'orthorhombic'
loop_
_space_group_symop_operation_xyz
x,y,z
-x,1/2-y,z
x,1/2-y,1/2-z
-x,y,1/2-z
-x,-y,-z
x,1/2+y,-z
-x,1/2+y,1/2+z
x,-y,1/2+z
1/2+x,1/2+y,z
1/2-x,-y,z
1/2+x,-y,1/2-z
1/2-x,1/2+y,1/2-z
1/2-x,1/2-y,-z
1/2+x,y,-z
1/2-x,y,1/2+z
1/2+x,1/2-y,1/2+z
loop_
_atom_site_type_symbol
_atom_site_label
_atom_site_fract_x
_atom_site_fract_y
_atom_site_fract_z
Si Si1 0.576422 0.340847 0.845996
Si Si2 0.763441 0.250000 0.250000
Si Si3 0.551891 0.082059 0.999905
Si Si4 0.354973 0.474674 0.793301
Si Si5 0.600734 0.633290 0.764242
O O1 0.500000 0.325151 0.750000
O O2 0.662844 0.282444 0.840007
O O3 0.522461 0.354158 0.959002
O O4 0.613801 0.423464 0.808148
O O5 0.690697 0.181508 0.272372
O O6 0.625994 0.073803 0.901002
O O7 0.604369 0.107250 0.109297
O O8 0.500000 0.000000 0.000000
O O9 0.250000 0.500000 0.778751
O O10 0.407190 0.554750 0.802018
O O11 0.500000 0.671553 0.750000
#
# Coordination Sequence:
#
# PCOD9508964 Si02
#       5
#    16   8  16  16  16
#     4  10  22  44  69 105 139 187 243 298 366 437
#     4  12  26  44  72  98 154 204 224 296 388 460
#     4  11  22  41  76 105 136 181 248 322 359 425
#     4  11  21  40  73 103 134 179 252 311 358 426
#     4  12  24  46  70 104 145 189 245 305 377 442
#
# _framework density 23.419339999999998
#
# number of rings (size 3 to 8) (size 9 to 14) (size 15 to 20)
#    0.000    0.889    6.667    1.333    0.000    2.667 
#    0.000   14.444    0.000    0.000    0.000    0.000 
#    0.000    0.000    0.000    0.000    0.000    0.000 
#
# Total GULP energy -201002.863638 kJ/mol
# GULP energy per Si atom -5583.412879 kJ/mol
# Density = 2.336604 g / cm^3
# Si number density = 23.419340 Si / 1000 Ang^3
#
#
#
# Elastic Constant Matrix: (Units=GPa)
#
#
# Indices 1 2 3 4 5 6 
#
# 1 139.8238 49.1256 5.9314 0.0000 0.0000 0.0000
# 2 49.1256 126.4485 22.3821 0.0000 0.0000 0.0000
# 3 5.9314 22.3821 78.6738 0.0000 0.0000 0.0000
# 4 0.0000 0.0000 0.0000 -5.7358 0.0000 0.0000
# 5 0.0000 0.0000 0.0000 0.0000 17.5592 0.0000
# 6 0.0000 0.0000 0.0000 0.0000 0.0000 50.5235
#
#
#
# Elastic Compliance Matrix: (Units=1/GPa)
#
#
# Indices 1 2 3 4 5 6 
#
# 1 0.008289 -0.003275 0.000307 0.000000 0.000000 0.000000
# 2 -0.003275 0.009621 -0.002490 0.000000 0.000000 0.000000
# 3 0.000307 -0.002490 0.013396 0.000000 0.000000 0.000000
# 4 0.000000 0.000000 0.000000 -0.174343 0.000000 0.000000
# 5 0.000000 0.000000 0.000000 0.000000 0.056950 0.000000
# 6 0.000000 0.000000 0.000000 0.000000 0.000000 0.019793
#
#
# Mechanical properties :
#
#
# Convention : Reuss Voigt Hill
#
# Bulk Modulus (GPa) = 49.04340 55.53603 52.28972
# Shear Modulus (GPa) = -102.92311 30.30319 -36.30996
#
# Velocity S-wave (km/s) = -6.63651 3.60104 -3.94182
# Velocity P-wave (km/s) = 6.14309 6.40743 1.28795
#
# Compressibility (1/GPa) = 0.02039010
#
# Stress axis : x y z
#
# Youngs Moduli (GPa) = 120.63610 103.93495 74.64880
#
# Poissons Ratio (x) = 0.34036 -0.02289
# Poissons Ratio (y) = 0.39505 0.18590
# Poissons Ratio (z) = -0.03700 0.25883
#
# Static dielectric constant tensor:
#      x y z
#    x 1.918170 0.000000 0.000000 
#    y 0.000000 1.986010 0.000000 
#    z 0.000000 0.000000 1.854830 
# 
# From -- ./inp_files/22033.got.cif
#   From: 2010.05.17/outbox.cif.g08.bks.cpg/sg68_12_cif.got.tgz:22033.got - 2010.06.03 18:57:09.
