data_PCOD9508938
_publ_section_title
;
Structure prediction by ZEFSAII (Michael W. Deem and Ramdas Pophale) SiO2 
 PCOD9508938
Probable space group: C C C A
;
_chemical_formula_sum "Si O2"
_cell_formula_units_Z 68
_cell_length_a 5.462477
_cell_length_b 31.151111
_cell_length_c 19.081242
_cell_angle_alpha 90.000000
_cell_angle_beta 90.000000
_cell_angle_gamma 90.000000
_cell_volume 3246.906640
_symmetry_space_group_name_H-M "C C C A"
_symmetry_group_IT_number 68
_space_group.IT_coordinate_system_code '2'
_symmetry_cell_setting 'orthorhombic'
loop_
_space_group_symop_operation_xyz
x,y,z
-x,1/2-y,z
x,1/2-y,1/2-z
-x,y,1/2-z
-x,-y,-z
x,1/2+y,-z
-x,1/2+y,1/2+z
x,-y,1/2+z
1/2+x,1/2+y,z
1/2-x,-y,z
1/2+x,-y,1/2-z
1/2-x,1/2+y,1/2-z
1/2-x,1/2-y,-z
1/2+x,y,-z
1/2-x,y,1/2+z
1/2+x,1/2-y,1/2+z
loop_
_atom_site_type_symbol
_atom_site_label
_atom_site_fract_x
_atom_site_fract_y
_atom_site_fract_z
Si Si1 0.250523 0.362882 0.666791
Si Si2 0.758186 0.672697 0.175027
Si Si3 0.434777 0.451573 0.973368
Si Si4 0.407558 0.458085 0.670940
Si Si5 0.500000 0.250000 0.250000
O O1 0.248504 0.351773 0.749924
O O2 0.498968 0.339342 0.640739
O O3 0.260987 0.413915 0.664104
O O4 0.998721 0.344683 0.636066
O O5 0.826173 0.720705 0.200752
O O6 0.391134 0.453880 0.890109
O O7 0.500000 0.500000 0.000000
O O8 0.199902 0.431024 0.010043
O O9 0.500000 0.461911 0.750000
O O10 0.250000 0.500000 0.654379
#
# Coordination Sequence:
#
# PCOD9508938 Si02
#       5
#    16  16  16  16   4
#     4   9  19  33  43  71 111 132 173 241 266 303
#     4   9  17  32  45  71 110 135 178 209 287 323
#     4  10  22  44  54  73 106 142 191 250 288 321
#     4  12  25  34  59  85 106 156 208 233 285 339
#     4   8  16  26  56  66  96 166 172 190 268 406
#
# _framework density 20.943012
#
# number of rings (size 3 to 8) (size 9 to 14) (size 15 to 20)
#    0.000    2.353    4.706    0.000    6.588    9.412 
#    0.000    0.000    0.000    0.000    0.000    0.000 
#    0.000    0.000    0.000  112.235    0.000    0.000 
#
# Total GULP energy -189360.695482 kJ/mol
# GULP energy per Si atom -5569.432220 kJ/mol
# Density = 2.089534 g / cm^3
# Si number density = 20.943012 Si / 1000 Ang^3
#
#
#
# Elastic Constant Matrix: (Units=GPa)
#
#
# Indices 1 2 3 4 5 6 
#
# 1 189.1715 35.1743 4.7109 0.0000 0.0000 0.0000
# 2 35.1743 128.5566 -11.5568 0.0000 0.0000 0.0000
# 3 4.7109 -11.5568 86.4785 0.0000 0.0000 0.0000
# 4 0.0000 0.0000 0.0000 -9.2908 0.0000 0.0000
# 5 0.0000 0.0000 0.0000 0.0000 24.0677 0.0000
# 6 0.0000 0.0000 0.0000 0.0000 0.0000 32.5479
#
#
#
# Elastic Compliance Matrix: (Units=1/GPa)
#
#
# Indices 1 2 3 4 5 6 
#
# 1 0.005592 -0.001576 -0.000515 0.000000 0.000000 0.000000
# 2 -0.001576 0.008318 0.001197 0.000000 0.000000 0.000000
# 3 -0.000515 0.001197 0.011752 0.000000 0.000000 0.000000
# 4 0.000000 0.000000 0.000000 -0.107633 0.000000 0.000000
# 5 0.000000 0.000000 0.000000 0.000000 0.041549 0.000000
# 6 0.000000 0.000000 0.000000 0.000000 0.000000 0.030724
#
#
# Mechanical properties :
#
#
# Convention : Reuss Voigt Hill
#
# Bulk Modulus (GPa) = 41.88848 51.20705 46.54777
# Shear Modulus (GPa) = 104886.98644 34.52351 52460.75498
#
# Velocity S-wave (km/s) = 224.03307 4.06452 158.44137
# Velocity P-wave (km/s) = 258.72984 6.82135 183.01320
#
# Compressibility (1/GPa) = 0.02387291
#
# Stress axis : x y z
#
# Youngs Moduli (GPa) = 178.82197 120.22650 85.09442
#
# Poissons Ratio (x) = 0.18952 0.04385
# Poissons Ratio (y) = 0.28189 -0.10189
# Poissons Ratio (z) = 0.09215 -0.14396
#
# Static dielectric constant tensor:
#      x y z
#    x 1.929780 0.000000 0.000000 
#    y 0.000000 1.791260 0.000000 
#    z 0.000000 0.000000 1.736450 
# 
# From -- ./inp_files/35207.got.cif
#   From: 2010.05.17/outbox.cif.g08.bks.cpg/sg68_18_cif.got.tgz:35207.got - 2010.06.03 18:57:09.
