data_PCOD9508318
_publ_section_title
;
Structure prediction by ZEFSAII (Michael W. Deem and Ramdas Pophale) SiO2 
 PCOD9508318
Probable space group: C C C A
;
_chemical_formula_sum "Si O2"
_cell_formula_units_Z 72
_cell_length_a 10.205621
_cell_length_b 20.692945
_cell_length_c 18.410332
_cell_angle_alpha 90.000000
_cell_angle_beta 90.000000
_cell_angle_gamma 90.000000
_cell_volume 3887.974071
_symmetry_space_group_name_H-M "C C C A"
_symmetry_group_IT_number 68
_space_group.IT_coordinate_system_code '2'
_symmetry_cell_setting 'orthorhombic'
loop_
_space_group_symop_operation_xyz
x,y,z
-x,1/2-y,z
x,1/2-y,1/2-z
-x,y,1/2-z
-x,-y,-z
x,1/2+y,-z
-x,1/2+y,1/2+z
x,-y,1/2+z
1/2+x,1/2+y,z
1/2-x,-y,z
1/2+x,-y,1/2-z
1/2-x,1/2+y,1/2-z
1/2-x,1/2-y,-z
1/2+x,y,-z
1/2-x,y,1/2+z
1/2+x,1/2-y,1/2+z
loop_
_atom_site_type_symbol
_atom_site_label
_atom_site_fract_x
_atom_site_fract_y
_atom_site_fract_z
Si Si1 0.204493 0.250000 0.250000
Si Si2 0.500000 0.750000 0.607119
Si Si3 0.500000 0.750000 0.124454
Si Si4 0.787635 0.574699 0.432552
Si Si5 0.532328 0.646020 0.493157
Si Si6 0.871760 0.356166 0.791998
O O1 0.118792 0.263613 0.178771
O O2 0.279485 0.317787 0.263531
O O3 0.570169 0.698778 0.554622
O O4 0.412847 0.705013 0.657744
O O5 0.475137 0.811264 0.072813
O O6 0.750000 0.500000 0.440224
O O7 0.663372 0.612495 0.465062
O O8 0.809290 0.593491 0.347700
O O9 0.920749 0.598651 0.473648
O O10 0.000000 0.380893 0.750000
#
# Coordination Sequence:
#
# PCOD9508318 Si02
#       6
#     8   8   8  16  16  16
#     4  11  19  34  56  88 125 143 192 248 316 367
#     4   9  19  31  59  93 111 140 190 254 311 355
#     4  10  22  33  57  94 118 150 188 260 320 356
#     4  11  24  41  59  85 125 167 209 242 288 363
#     4  10  22  37  61  87 120 155 198 255 307 353
#     4  11  20  35  61  88 116 152 196 247 306 361
#
# _framework density 18.518643000000001
#
# number of rings (size 3 to 8) (size 9 to 14) (size 15 to 20)
#    0.000    1.556    4.444    0.667    3.111    2.667 
#    0.000    2.222    0.000    5.333    0.000    0.000 
#    0.000    0.000    0.000    0.000    0.000    0.000 
#
# Total GULP energy -200629.182015 kJ/mol
# GULP energy per Si atom -5573.032834 kJ/mol
# Density = 1.847649 g / cm^3
# Si number density = 18.518643 Si / 1000 Ang^3
#
#
#
# Elastic Constant Matrix: (Units=GPa)
#
#
# Indices 1 2 3 4 5 6 
#
# 1 79.9590 26.6865 20.6628 0.0000 0.0000 0.0000
# 2 26.6865 91.7941 34.0927 0.0000 0.0000 0.0000
# 3 20.6628 34.0927 73.9171 0.0000 0.0000 0.0000
# 4 0.0000 0.0000 0.0000 16.7160 0.0000 0.0000
# 5 0.0000 0.0000 0.0000 0.0000 28.2104 0.0000
# 6 0.0000 0.0000 0.0000 0.0000 0.0000 15.8207
#
#
#
# Elastic Compliance Matrix: (Units=1/GPa)
#
#
# Indices 1 2 3 4 5 6 
#
# 1 0.014222 -0.003208 -0.002496 0.000000 0.000000 0.000000
# 2 -0.003208 0.013869 -0.005500 0.000000 0.000000 0.000000
# 3 -0.002496 -0.005500 0.016763 0.000000 0.000000 0.000000
# 4 0.000000 0.000000 0.000000 0.059823 0.000000 0.000000
# 5 0.000000 0.000000 0.000000 0.000000 0.035448 0.000000
# 6 0.000000 0.000000 0.000000 0.000000 0.000000 0.063208
#
#
# Mechanical properties :
#
#
# Convention : Reuss Voigt Hill
#
# Bulk Modulus (GPa) = 44.55022 45.39490 44.97256
# Shear Modulus (GPa) = 21.43861 23.09797 22.26829
#
# Velocity S-wave (km/s) = 3.40616 3.53552 3.47144
# Velocity P-wave (km/s) = 6.29114 6.42128 6.35654
#
# Compressibility (1/GPa) = 0.02244658
#
# Stress axis : x y z
#
# Youngs Moduli (GPa) = 70.31369 72.10182 59.65389
#
# Poissons Ratio (x) = 0.23127 0.14891
# Poissons Ratio (y) = 0.22553 0.32811
# Poissons Ratio (z) = 0.17552 0.39658
#
# Static dielectric constant tensor:
#      x y z
#    x 1.711240 0.000000 0.000000 
#    y 0.000000 1.632850 0.000000 
#    z 0.000000 0.000000 1.665600 
# 
# From -- ./inp_files/29553.got.cif
#   From: 2010.05.17/outbox.cif.g08.bks.cpg/sg68_15_cif.got.tgz:29553.got - 2010.06.03 18:57:09.
