data_PCOD9508043
_publ_section_title
;
Structure prediction by ZEFSAII (Michael W. Deem and Ramdas Pophale) SiO2 
 PCOD9508043
Probable space group: C C C A
;
_chemical_formula_sum "Si O2"
_cell_formula_units_Z 68
_cell_length_a 16.123801
_cell_length_b 22.927748
_cell_length_c 9.058078
_cell_angle_alpha 90.000000
_cell_angle_beta 90.000000
_cell_angle_gamma 90.000000
_cell_volume 3348.612432
_symmetry_space_group_name_H-M "C C C A"
_symmetry_group_IT_number 68
_space_group.IT_coordinate_system_code '2'
_symmetry_cell_setting 'orthorhombic'
loop_
_space_group_symop_operation_xyz
x,y,z
-x,1/2-y,z
x,1/2-y,1/2-z
-x,y,1/2-z
-x,-y,-z
x,1/2+y,-z
-x,1/2+y,1/2+z
x,-y,1/2+z
1/2+x,1/2+y,z
1/2-x,-y,z
1/2+x,-y,1/2-z
1/2-x,1/2+y,1/2-z
1/2-x,1/2-y,-z
1/2+x,y,-z
1/2-x,y,1/2+z
1/2+x,1/2-y,1/2+z
loop_
_atom_site_type_symbol
_atom_site_label
_atom_site_fract_x
_atom_site_fract_y
_atom_site_fract_z
Si Si1 0.000000 0.750000 0.250000
Si Si2 0.363853 0.053801 0.356782
Si Si3 0.578247 0.925420 0.145865
Si Si4 0.604160 0.146507 0.354459
Si Si5 0.733944 0.089464 0.852095
O O1 0.940261 0.791983 0.344237
O O2 0.411921 0.110784 0.298945
O O3 0.307156 0.069530 0.496088
O O4 0.303510 0.045795 0.215054
O O5 0.413445 0.994935 0.382693
O O6 0.500000 0.915309 0.250000
O O7 0.660637 0.905706 0.233975
O O8 0.573863 0.890932 0.993726
O O9 0.794572 0.354324 0.632525
#
# Coordination Sequence:
#
# PCOD9508043 Si02
#       5
#     4  16  16  16  16
#     4  12  28  52  70  96 130 184 258 294 332 408
#     4  10  22  38  70 107 145 180 220 274 357 427
#     4  12  25  38  69 112 148 175 223 290 357 420
#     4  10  25  46  70  94 140 189 225 292 343 413
#     4  10  21  40  66 101 142 182 221 272 355 423
#
# _framework density 20.306918
#
# number of rings (size 3 to 8) (size 9 to 14) (size 15 to 20)
#    1.412    0.000    2.353    2.118    8.235    1.882 
#    0.000    5.294    0.000    0.000    0.000    0.000 
#    0.000    0.000    0.000    0.000    0.000    0.000 
#
# Total GULP energy -189607.354095 kJ/mol
# GULP energy per Si atom -5576.686885 kJ/mol
# Density = 2.026070 g / cm^3
# Si number density = 20.306918 Si / 1000 Ang^3
#
#
#
# Elastic Constant Matrix: (Units=GPa)
#
#
# Indices 1 2 3 4 5 6 
#
# 1 104.7932 44.8418 35.1525 0.0000 0.0000 0.0000
# 2 44.8418 113.9234 49.3448 0.0000 0.0000 0.0000
# 3 35.1525 49.3448 126.5669 0.0000 0.0000 0.0000
# 4 0.0000 0.0000 0.0000 -10.6635 0.0000 0.0000
# 5 0.0000 0.0000 0.0000 0.0000 43.1574 0.0000
# 6 0.0000 0.0000 0.0000 0.0000 0.0000 40.0634
#
#
#
# Elastic Compliance Matrix: (Units=1/GPa)
#
#
# Indices 1 2 3 4 5 6 
#
# 1 0.011794 -0.003878 -0.001764 0.000000 0.000000 0.000000
# 2 -0.003878 0.011837 -0.003538 0.000000 0.000000 0.000000
# 3 -0.001764 -0.003538 0.009770 0.000000 0.000000 0.000000
# 4 0.000000 0.000000 0.000000 -0.093778 0.000000 0.000000
# 5 0.000000 0.000000 0.000000 0.000000 0.023171 0.000000
# 6 0.000000 0.000000 0.000000 0.000000 0.000000 0.024960
#
#
# Mechanical properties :
#
#
# Convention : Reuss Voigt Hill
#
# Bulk Modulus (GPa) = 66.48295 67.10685 66.79490
# Shear Modulus (GPa) = 449.38006 28.90776 239.14391
#
# Velocity S-wave (km/s) = 14.89209 3.77708 10.86372
# Velocity P-wave (km/s) = 18.12483 7.22079 13.79582
#
# Compressibility (1/GPa) = 0.01504145
#
# Stress axis : x y z
#
# Youngs Moduli (GPa) = 84.79074 84.48320 102.35441
#
# Poissons Ratio (x) = 0.32765 0.18050
# Poissons Ratio (y) = 0.32885 0.36209
# Poissons Ratio (z) = 0.14953 0.29887
#
# Static dielectric constant tensor:
#      x y z
#    x 1.811260 0.000000 0.000000 
#    y 0.000000 1.743090 0.000000 
#    z 0.000000 0.000000 1.728990 
# 
# From -- ./inp_files/5913.got.cif
#   From: 2010.05.17/outbox.cif.g08.bks.cpg/sg68_3_cif.got.tgz:5913.got - 2010.06.03 18:57:09.
