data_PCOD9508594
_publ_section_title
;
Structure prediction by ZEFSAII (Michael W. Deem and Ramdas Pophale) SiO2 
 PCOD9508594
Probable space group: C C C A
;
_chemical_formula_sum "Si O2"
_cell_formula_units_Z 64
_cell_length_a 11.612430
_cell_length_b 20.052967
_cell_length_c 11.555767
_cell_angle_alpha 90.000000
_cell_angle_beta 90.000000
_cell_angle_gamma 90.000000
_cell_volume 2690.918378
_symmetry_space_group_name_H-M "C C C A"
_symmetry_group_IT_number 68
_space_group.IT_coordinate_system_code '2'
_symmetry_cell_setting 'orthorhombic'
loop_
_space_group_symop_operation_xyz
x,y,z
-x,1/2-y,z
x,1/2-y,1/2-z
-x,y,1/2-z
-x,-y,-z
x,1/2+y,-z
-x,1/2+y,1/2+z
x,-y,1/2+z
1/2+x,1/2+y,z
1/2-x,-y,z
1/2+x,-y,1/2-z
1/2-x,1/2+y,1/2-z
1/2-x,1/2-y,-z
1/2+x,y,-z
1/2-x,y,1/2+z
1/2+x,1/2-y,1/2+z
loop_
_atom_site_type_symbol
_atom_site_label
_atom_site_fract_x
_atom_site_fract_y
_atom_site_fract_z
Si Si1 0.497515 0.072133 0.057473
Si Si2 0.227170 0.798739 0.835176
Si Si3 0.913667 0.702050 0.523007
Si Si4 0.307798 0.927933 0.741631
O O1 0.524928 0.130890 0.966511
O O2 0.595908 0.073610 0.156885
O O3 0.376593 0.084216 0.122486
O O4 0.500000 0.000000 0.000000
O O5 0.297767 0.750000 0.750000
O O6 0.298194 0.811408 0.951485
O O7 0.217528 0.869217 0.770859
O O8 0.122833 0.750641 0.872633
O O9 0.000000 0.750000 0.452293
O O10 0.250000 0.000000 0.738524
#
# Coordination Sequence:
#
# PCOD9508594 Si02
#       4
#    16  16  16  16
#     4  10  23  41  64  97 135 177 227 281 348 414
#     4  10  22  40  64  92 124 166 221 272 338 406
#     4  10  22  40  64  92 124 165 221 276 335 409
#     4  10  23  41  64  97 135 176 226 282 345 417
#
# _framework density 23.783702000000002
#
# number of rings (size 3 to 8) (size 9 to 14) (size 15 to 20)
#    0.000    2.000    0.000    1.500    7.000    4.000 
#    0.000    0.000    0.000    0.000    0.000    0.000 
#    0.000    0.000    0.000    0.000    0.000    0.000 
#
# Total GULP energy -178627.348337 kJ/mol
# GULP energy per Si atom -5582.104636 kJ/mol
# Density = 2.372957 g / cm^3
# Si number density = 23.783702 Si / 1000 Ang^3
#
#
#
# Elastic Constant Matrix: (Units=GPa)
#
#
# Indices 1 2 3 4 5 6 
#
# 1 80.7460 66.2289 38.4739 0.0000 0.0000 0.0000
# 2 66.2289 267.7229 62.1730 0.0000 0.0000 0.0000
# 3 38.4739 62.1730 82.3519 0.0000 0.0000 0.0000
# 4 0.0000 0.0000 0.0000 38.6692 0.0000 0.0000
# 5 0.0000 0.0000 0.0000 0.0000 19.8447 0.0000
# 6 0.0000 0.0000 0.0000 0.0000 0.0000 39.6224
#
#
#
# Elastic Compliance Matrix: (Units=1/GPa)
#
#
# Indices 1 2 3 4 5 6 
#
# 1 0.017696 -0.002980 -0.006017 0.000000 0.000000 0.000000
# 2 -0.002980 0.005031 -0.002406 0.000000 0.000000 0.000000
# 3 -0.006017 -0.002406 0.016771 0.000000 0.000000 0.000000
# 4 0.000000 0.000000 0.000000 0.025860 0.000000 0.000000
# 5 0.000000 0.000000 0.000000 0.000000 0.050391 0.000000
# 6 0.000000 0.000000 0.000000 0.000000 0.000000 0.025238
#
#
# Mechanical properties :
#
#
# Convention : Reuss Voigt Hill
#
# Bulk Modulus (GPa) = 59.91383 84.95249 72.43316
# Shear Modulus (GPa) = 29.52308 37.22361 33.37335
#
# Velocity S-wave (km/s) = 3.52705 3.96041 3.75000
# Velocity P-wave (km/s) = 6.46781 7.53057 7.01933
#
# Compressibility (1/GPa) = 0.01669064
#
# Stress axis : x y z
#
# Youngs Moduli (GPa) = 56.50956 198.75945 59.62744
#
# Poissons Ratio (x) = 0.59235 0.35881
# Poissons Ratio (y) = 0.16841 0.14347
# Poissons Ratio (z) = 0.34004 0.47823
#
# Static dielectric constant tensor:
#      x y z
#    x 2.026290 0.000000 0.000000 
#    y 0.000000 1.857340 0.000000 
#    z 0.000000 0.000000 1.982340 
# 
# From -- ./inp_files/12798.got.cif
#   From: 2010.05.17/outbox.cif.g08.bks.cpg/sg68_7_cif.got.tgz:12798.got - 2010.06.03 18:57:09.
