data_PCOD9508821
_publ_section_title
;
Structure prediction by ZEFSAII (Michael W. Deem and Ramdas Pophale) SiO2 
 PCOD9508821
Probable space group: C C C A
;
_chemical_formula_sum "Si O2"
_cell_formula_units_Z 112
_cell_length_a 11.592870
_cell_length_b 35.089062
_cell_length_c 13.300129
_cell_angle_alpha 90.000000
_cell_angle_beta 90.000000
_cell_angle_gamma 90.000000
_cell_volume 5410.265500
_symmetry_space_group_name_H-M "C C C A"
_symmetry_group_IT_number 68
_space_group.IT_coordinate_system_code '2'
_symmetry_cell_setting 'orthorhombic'
loop_
_space_group_symop_operation_xyz
x,y,z
-x,1/2-y,z
x,1/2-y,1/2-z
-x,y,1/2-z
-x,-y,-z
x,1/2+y,-z
-x,1/2+y,1/2+z
x,-y,1/2+z
1/2+x,1/2+y,z
1/2-x,-y,z
1/2+x,-y,1/2-z
1/2-x,1/2+y,1/2-z
1/2-x,1/2-y,-z
1/2+x,y,-z
1/2-x,y,1/2+z
1/2+x,1/2-y,1/2+z
loop_
_atom_site_type_symbol
_atom_site_label
_atom_site_fract_x
_atom_site_fract_y
_atom_site_fract_z
Si Si1 0.249704 0.117855 0.313135
Si Si2 0.599477 0.166620 0.329372
Si Si3 0.679999 0.037555 0.741138
Si Si4 0.017439 0.963387 0.572439
Si Si5 0.460950 0.333381 0.642083
Si Si6 0.556798 0.618981 0.977665
Si Si7 0.873638 0.728536 0.008056
O O1 0.299429 0.147586 0.233393
O O2 0.253421 0.075971 0.266485
O O3 0.120977 0.130455 0.337915
O O4 0.327046 0.119566 0.412833
O O5 0.500000 0.176764 0.250000
O O6 0.543435 0.135783 0.405654
O O7 0.633987 0.203227 0.391945
O O8 0.586363 0.040249 0.652184
O O9 0.625704 0.033319 0.851853
O O10 0.750000 0.000000 0.719185
O O11 0.030857 0.923994 0.511622
O O12 0.000000 0.000000 0.500000
O O13 0.500000 0.318843 0.750000
O O14 0.559654 0.351116 0.570365
O O15 0.390293 0.301183 0.583519
O O16 0.000000 0.750000 0.011017
O O17 0.750000 0.750000 0.000000
#
# Coordination Sequence:
#
# PCOD9508821 Si02
#       7
#    16  16  16  16  16  16  16
#     4  11  23  43  74 100 135 186 236 288 349 428
#     4   9  23  45  73 100 136 185 232 287 354 427
#     4  11  25  43  64  99 136 180 233 287 351 407
#     4  11  24  42  63  93 139 178 226 295 347 411
#     4  11  25  44  72 102 142 182 233 289 353 420
#     4  10  22  42  69 100 133 177 238 286 351 415
#     4  11  28  49  73 108 147 184 237 297 362 440
#
# _framework density 20.701385999999999
#
# number of rings (size 3 to 8) (size 9 to 14) (size 15 to 20)
#    0.000    1.429    1.429    1.714   10.000    5.714 
#    0.000    0.000    0.000    0.000    0.000    0.000 
#    0.000    0.000    0.000    0.000    0.000    0.000 
#
# Total GULP energy -312894.938294 kJ/mol
# GULP energy per Si atom -5587.409612 kJ/mol
# Density = 2.065427 g / cm^3
# Si number density = 20.701386 Si / 1000 Ang^3
#
#
#
# Elastic Constant Matrix: (Units=GPa)
#
#
# Indices 1 2 3 4 5 6 
#
# 1 69.1698 34.8896 29.0214 0.0000 0.0000 0.0000
# 2 34.8896 116.3744 50.3839 0.0000 0.0000 0.0000
# 3 29.0214 50.3839 135.5341 0.0000 0.0000 0.0000
# 4 0.0000 0.0000 0.0000 26.9727 0.0000 0.0000
# 5 0.0000 0.0000 0.0000 0.0000 16.8001 0.0000
# 6 0.0000 0.0000 0.0000 0.0000 0.0000 21.4894
#
#
#
# Elastic Compliance Matrix: (Units=1/GPa)
#
#
# Indices 1 2 3 4 5 6 
#
# 1 0.017542 -0.004330 -0.002147 0.000000 0.000000 0.000000
# 2 -0.004330 0.011310 -0.003277 0.000000 0.000000 0.000000
# 3 -0.002147 -0.003277 0.009056 0.000000 0.000000 0.000000
# 4 0.000000 0.000000 0.000000 0.037074 0.000000 0.000000
# 5 0.000000 0.000000 0.000000 0.000000 0.059524 0.000000
# 6 0.000000 0.000000 0.000000 0.000000 0.000000 0.046534
#
#
# Mechanical properties :
#
#
# Convention : Reuss Voigt Hill
#
# Bulk Modulus (GPa) = 54.34602 61.07424 57.71013
# Shear Modulus (GPa) = 24.19186 26.83801 25.51494
#
# Velocity S-wave (km/s) = 3.42220 3.60451 3.51454
# Velocity P-wave (km/s) = 6.47492 6.84762 6.66388
#
# Compressibility (1/GPa) = 0.01840061
#
# Stress axis : x y z
#
# Youngs Moduli (GPa) = 57.00682 88.41803 110.42207
#
# Poissons Ratio (x) = 0.38283 0.23703
# Poissons Ratio (y) = 0.24682 0.36188
# Poissons Ratio (z) = 0.12237 0.28977
#
# Static dielectric constant tensor:
#      x y z
#    x 1.815460 0.000000 0.000000 
#    y 0.000000 1.703060 0.000000 
#    z 0.000000 0.000000 1.712320 
# 
# From -- ./inp_files/21239.got.cif
#   From: 2010.05.17/outbox.cif.g08.bks.cpg/sg68_11_cif.got.tgz:21239.got - 2010.06.03 18:57:09.
