data_PCOD9508829
_publ_section_title
;
Structure prediction by ZEFSAII (Michael W. Deem and Ramdas Pophale) SiO2 
 PCOD9508829
Probable space group: C C C A
;
_chemical_formula_sum "Si O2"
_cell_formula_units_Z 64
_cell_length_a 28.913826
_cell_length_b 10.748757
_cell_length_c 9.343727
_cell_angle_alpha 90.000000
_cell_angle_beta 90.000000
_cell_angle_gamma 90.000000
_cell_volume 2903.915327
_symmetry_space_group_name_H-M "C C C A"
_symmetry_group_IT_number 68
_space_group.IT_coordinate_system_code '2'
_symmetry_cell_setting 'orthorhombic'
loop_
_space_group_symop_operation_xyz
x,y,z
-x,1/2-y,z
x,1/2-y,1/2-z
-x,y,1/2-z
-x,-y,-z
x,1/2+y,-z
-x,1/2+y,1/2+z
x,-y,1/2+z
1/2+x,1/2+y,z
1/2-x,-y,z
1/2+x,-y,1/2-z
1/2-x,1/2+y,1/2-z
1/2-x,1/2-y,-z
1/2+x,y,-z
1/2-x,y,1/2+z
1/2+x,1/2-y,1/2+z
loop_
_atom_site_type_symbol
_atom_site_label
_atom_site_fract_x
_atom_site_fract_y
_atom_site_fract_z
Si Si1 0.018308 0.120163 0.084902
Si Si2 0.655920 0.605012 0.742151
Si Si3 0.374726 0.908524 0.057699
Si Si4 0.250000 0.000000 0.261089
Si Si5 0.304039 0.250000 0.750000
O O1 0.073378 0.138525 0.067130
O O2 0.000000 0.250000 0.024386
O O3 0.000000 0.110054 0.250000
O O4 0.000000 0.000000 0.000000
O O5 0.653371 0.750000 0.750000
O O6 0.620792 0.539201 0.639315
O O7 0.705667 0.558980 0.686252
O O8 0.645838 0.562035 0.902664
O O9 0.338280 0.815724 0.135453
O O10 0.226725 0.133913 0.315863
#
# Coordination Sequence:
#
# PCOD9508829 Si02
#       5
#    16  16  16   8   8
#     4  11  25  46  74 103 139 179 232 288 353 428
#     4  11  26  43  70 100 143 183 238 288 344 426
#     4  11  26  45  70 101 139 184 232 289 362 407
#     4  10  22  44  64 102 136 190 234 288 348 408
#     4  10  22  42  69  94 140 184 233 294 342 422
#
# _framework density 22.039211000000002
#
# number of rings (size 3 to 8) (size 9 to 14) (size 15 to 20)
#    0.000    1.250    1.250    3.000   10.500    5.500 
#    0.000    0.000    0.000    0.000    0.000    0.000 
#    0.000    0.000    0.000    0.000    0.000    0.000 
#
# Total GULP energy -178160.967509 kJ/mol
# GULP energy per Si atom -5567.530235 kJ/mol
# Density = 2.198905 g / cm^3
# Si number density = 22.039211 Si / 1000 Ang^3
#
#
#
# Elastic Constant Matrix: (Units=GPa)
#
#
# Indices 1 2 3 4 5 6 
#
# 1 129.2497 47.1229 -1.2789 0.0000 0.0000 0.0000
# 2 47.1229 203.2783 27.1530 0.0000 0.0000 0.0000
# 3 -1.2789 27.1530 80.8156 0.0000 0.0000 0.0000
# 4 0.0000 0.0000 0.0000 26.8703 0.0000 0.0000
# 5 0.0000 0.0000 0.0000 0.0000 -3.0868 0.0000
# 6 0.0000 0.0000 0.0000 0.0000 0.0000 -5.2316
#
#
#
# Elastic Compliance Matrix: (Units=1/GPa)
#
#
# Indices 1 2 3 4 5 6 
#
# 1 0.008505 -0.002083 0.000834 0.000000 0.000000 0.000000
# 2 -0.002083 0.005661 -0.001935 0.000000 0.000000 0.000000
# 3 0.000834 -0.001935 0.013037 0.000000 0.000000 0.000000
# 4 0.000000 0.000000 0.000000 0.037216 0.000000 0.000000
# 5 0.000000 0.000000 0.000000 0.000000 -0.323964 0.000000
# 6 0.000000 0.000000 0.000000 0.000000 0.000000 -0.191146
#
#
# Mechanical properties :
#
#
# Convention : Reuss Voigt Hill
#
# Bulk Modulus (GPa) = 47.99464 62.14861 55.07163
# Shear Modulus (GPa) = -11.43173 26.40015 7.48421
#
# Velocity S-wave (km/s) = -2.27997 3.46478 1.84479
# Velocity P-wave (km/s) = 3.85917 6.65332 5.43874
#
# Compressibility (1/GPa) = 0.02083566
#
# Stress axis : x y z
#
# Youngs Moduli (GPa) = 117.58289 176.65728 76.70385
#
# Poissons Ratio (x) = 0.36797 -0.06400
# Poissons Ratio (y) = 0.24492 0.14841
# Poissons Ratio (z) = -0.09811 0.34181
#
# Static dielectric constant tensor:
#      x y z
#    x 1.720440 0.000000 0.000000 
#    y 0.000000 1.728540 0.000000 
#    z 0.000000 0.000000 1.862720 
# 
# From -- ./inp_files/9353.got.cif
#   From: 2010.05.17/outbox.cif.g08.bks.cpg/sg68_5_cif.got.tgz:9353.got - 2010.06.03 18:57:09.
