data_PCOD9508248
_publ_section_title
;
Structure prediction by ZEFSAII (Michael W. Deem and Ramdas Pophale) SiO2 
 PCOD9508248
Probable space group: C C C A
;
_chemical_formula_sum "Si O2"
_cell_formula_units_Z 84
_cell_length_a 11.471196
_cell_length_b 18.415808
_cell_length_c 17.974063
_cell_angle_alpha 90.000000
_cell_angle_beta 90.000000
_cell_angle_gamma 90.000000
_cell_volume 3797.044949
_symmetry_space_group_name_H-M "C C C A"
_symmetry_group_IT_number 68
_space_group.IT_coordinate_system_code '2'
_symmetry_cell_setting 'orthorhombic'
loop_
_space_group_symop_operation_xyz
x,y,z
-x,1/2-y,z
x,1/2-y,1/2-z
-x,y,1/2-z
-x,-y,-z
x,1/2+y,-z
-x,1/2+y,1/2+z
x,-y,1/2+z
1/2+x,1/2+y,z
1/2-x,-y,z
1/2+x,-y,1/2-z
1/2-x,1/2+y,1/2-z
1/2-x,1/2-y,-z
1/2+x,y,-z
1/2-x,y,1/2+z
1/2+x,1/2-y,1/2+z
loop_
_atom_site_type_symbol
_atom_site_label
_atom_site_fract_x
_atom_site_fract_y
_atom_site_fract_z
Si Si1 0.000000 0.750000 0.250000
Si Si2 0.500000 0.440673 0.750000
Si Si3 0.396048 0.063232 0.437953
Si Si4 0.250000 0.500000 0.772758
Si Si5 0.382663 0.627206 0.854908
Si Si6 0.293633 0.170959 0.983945
Si Si7 0.025762 0.909493 0.912553
O O1 0.922421 0.695749 0.196802
O O2 0.374778 0.479787 0.736112
O O3 0.481774 0.402749 0.829256
O O4 0.498410 0.086725 0.381057
O O5 0.297130 0.124032 0.435539
O O6 0.431917 0.069559 0.525105
O O7 0.383611 0.977485 0.423459
O O8 0.294866 0.571536 0.815612
O O9 0.322947 0.643059 0.933719
O O10 0.413297 0.163654 0.939000
O O11 0.250000 0.250000 0.000000
#
# Coordination Sequence:
#
# PCOD9508248 Si02
#       7
#     4   8  16   8  16  16  16
#     4  12  26  48  72 114 158 212 260 326 410 488
#     4  12  25  42  68 114 145 194 248 326 399 456
#     4  10  21  43  67  98 133 186 245 310 371 451
#     4  12  26  44  70 112 150 200 258 332 382 484
#     4  11  25  43  73 100 149 197 257 314 388 474
#     4  11  24  40  67 101 142 190 247 311 386 462
#     4  10  23  39  67  98 136 181 244 307 373 453
#
# _framework density 22.122467
#
# number of rings (size 3 to 8) (size 9 to 14) (size 15 to 20)
#    0.000    1.143    1.905    3.429    8.000    3.810 
#    0.000    0.000    0.000    7.429    0.000    0.000 
#    0.000    0.000    0.000    0.000    0.000    0.000 
#
# Total GULP energy -233947.197292 kJ/mol
# GULP energy per Si atom -5570.171364 kJ/mol
# Density = 2.207211 g / cm^3
# Si number density = 22.122467 Si / 1000 Ang^3
#
#
#
# Elastic Constant Matrix: (Units=GPa)
#
#
# Indices 1 2 3 4 5 6 
#
# 1 97.9136 46.0027 34.3650 0.0000 0.0000 0.0000
# 2 46.0027 91.1728 8.8190 0.0000 0.0000 0.0000
# 3 34.3650 8.8190 118.6700 0.0000 0.0000 0.0000
# 4 0.0000 0.0000 0.0000 -33.6298 0.0000 0.0000
# 5 0.0000 0.0000 0.0000 0.0000 33.2931 0.0000
# 6 0.0000 0.0000 0.0000 0.0000 0.0000 34.4630
#
#
#
# Elastic Compliance Matrix: (Units=1/GPa)
#
#
# Indices 1 2 3 4 5 6 
#
# 1 0.014902 -0.007153 -0.003784 0.000000 0.000000 0.000000
# 2 -0.007153 0.014481 0.000995 0.000000 0.000000 0.000000
# 3 -0.003784 0.000995 0.009448 0.000000 0.000000 0.000000
# 4 0.000000 0.000000 0.000000 -0.029736 0.000000 0.000000
# 5 0.000000 0.000000 0.000000 0.000000 0.030036 0.000000
# 6 0.000000 0.000000 0.000000 0.000000 0.000000 0.029017
#
#
# Mechanical properties :
#
#
# Convention : Reuss Voigt Hill
#
# Bulk Modulus (GPa) = 52.77502 54.01443 53.39472
# Shear Modulus (GPa) = 52.99556 21.39658 37.19607
#
# Velocity S-wave (km/s) = 4.89975 3.11334 4.10490
# Velocity P-wave (km/s) = 7.47781 6.11498 6.83047
#
# Compressibility (1/GPa) = 0.01894836
#
# Stress axis : x y z
#
# Youngs Moduli (GPa) = 67.10638 69.05588 105.83707
#
# Poissons Ratio (x) = 0.49395 0.40046
# Poissons Ratio (y) = 0.48000 -0.10533
# Poissons Ratio (z) = 0.25391 -0.06872
#
# Static dielectric constant tensor:
#      x y z
#    x 1.900970 0.000000 0.000000 
#    y 0.000000 2.021130 0.000000 
#    z 0.000000 0.000000 1.855520 
# 
# From -- ./inp_files/29606.got.cif
#   From: 2010.05.17/outbox.cif.g08.bks.cpg/sg68_15_cif.got.tgz:29606.got - 2010.06.03 18:57:09.
