data_PCOD9508445
_publ_section_title
;
Structure prediction by ZEFSAII (Michael W. Deem and Ramdas Pophale) SiO2 
 PCOD9508445
Probable space group: C C C A
;
_chemical_formula_sum "Si O2"
_cell_formula_units_Z 64
_cell_length_a 8.757033
_cell_length_b 22.611236
_cell_length_c 14.293926
_cell_angle_alpha 90.000000
_cell_angle_beta 90.000000
_cell_angle_gamma 90.000000
_cell_volume 2830.302263
_symmetry_space_group_name_H-M "C C C A"
_symmetry_group_IT_number 68
_space_group.IT_coordinate_system_code '2'
_symmetry_cell_setting 'orthorhombic'
loop_
_space_group_symop_operation_xyz
x,y,z
-x,1/2-y,z
x,1/2-y,1/2-z
-x,y,1/2-z
-x,-y,-z
x,1/2+y,-z
-x,1/2+y,1/2+z
x,-y,1/2+z
1/2+x,1/2+y,z
1/2-x,-y,z
1/2+x,-y,1/2-z
1/2-x,1/2+y,1/2-z
1/2-x,1/2-y,-z
1/2+x,y,-z
1/2-x,y,1/2+z
1/2+x,1/2-y,1/2+z
loop_
_atom_site_type_symbol
_atom_site_label
_atom_site_fract_x
_atom_site_fract_y
_atom_site_fract_z
Si Si1 0.164918 0.182214 0.716714
Si Si2 0.136539 0.377637 0.136645
Si Si3 0.500000 0.015645 0.750000
Si Si4 0.183901 0.128535 0.044005
Si Si5 0.750000 0.500000 0.117239
O O1 0.164342 0.250000 0.750000
O O2 0.200673 0.166653 0.608816
O O3 0.000000 0.158078 0.750000
O O4 0.309585 0.154910 0.770540
O O5 0.095071 0.442475 0.178078
O O6 0.986091 0.357378 0.080072
O O7 0.274393 0.366803 0.064313
O O8 0.613835 0.980259 0.814622
O O9 0.205169 0.058150 0.062030
#
# Coordination Sequence:
#
# PCOD9508445 Si02
#       5
#    16  16   8  16   8
#     4  11  24  44  68  95 129 172 220 276 331 386
#     4  11  22  44  64  97 134 168 221 264 328 387
#     4  10  22  40  63  96 131 176 214 262 326 394
#     4  11  24  40  65  99 130 175 219 266 327 392
#     4  10  22  38  62  98 128 176 214 260 326 386
#
# _framework density 22.612425000000002
#
# number of rings (size 3 to 8) (size 9 to 14) (size 15 to 20)
#    0.000    1.250    5.000    1.500    1.750   10.000 
#    0.000    0.000    0.000    0.000    0.000    0.000 
#    0.000    0.000    0.000    0.000    0.000    0.000 
#
# Total GULP energy -178586.550938 kJ/mol
# GULP energy per Si atom -5580.829717 kJ/mol
# Density = 2.256096 g / cm^3
# Si number density = 22.612425 Si / 1000 Ang^3
#
#
#
# Elastic Constant Matrix: (Units=GPa)
#
#
# Indices 1 2 3 4 5 6 
#
# 1 76.4906 -0.0769 -0.1277 0.0000 0.0000 0.0000
# 2 -0.0769 37.6234 -7.4553 0.0000 0.0000 0.0000
# 3 -0.1277 -7.4553 104.1104 0.0000 0.0000 0.0000
# 4 0.0000 0.0000 0.0000 -34.5111 0.0000 0.0000
# 5 0.0000 0.0000 0.0000 0.0000 27.0564 0.0000
# 6 0.0000 0.0000 0.0000 0.0000 0.0000 15.9161
#
#
#
# Elastic Compliance Matrix: (Units=1/GPa)
#
#
# Indices 1 2 3 4 5 6 
#
# 1 0.013074 0.000030 0.000018 0.000000 0.000000 0.000000
# 2 0.000030 0.026962 0.001931 0.000000 0.000000 0.000000
# 3 0.000018 0.001931 0.009743 0.000000 0.000000 0.000000
# 4 0.000000 0.000000 0.000000 -0.028976 0.000000 0.000000
# 5 0.000000 0.000000 0.000000 0.000000 0.036960 0.000000
# 6 0.000000 0.000000 0.000000 0.000000 0.000000 0.062830
#
#
# Mechanical properties :
#
#
# Convention : Reuss Voigt Hill
#
# Bulk Modulus (GPa) = 18.60900 22.54497 20.57698
# Shear Modulus (GPa) = 37.16203 16.75123 26.95663
#
# Velocity S-wave (km/s) = 4.05833 2.72471 3.45645
# Velocity P-wave (km/s) = 5.49613 4.45988 5.00490
#
# Compressibility (1/GPa) = 0.05373745
#
# Stress axis : x y z
#
# Youngs Moduli (GPa) = 76.49029 37.08948 102.63281
#
# Poissons Ratio (x) = -0.00113 -0.00187
# Poissons Ratio (y) = -0.00232 -0.19816
# Poissons Ratio (z) = -0.00139 -0.07161
#
# Static dielectric constant tensor:
#      x y z
#    x 1.937840 0.000000 0.000000 
#    y 0.000000 1.843630 0.000000 
#    z 0.000000 0.000000 1.834090 
# 
# From -- ./inp_files/11710.got.cif
#   From: 2010.05.17/outbox.cif.g08.bks.cpg/sg68_6_cif.got.tgz:11710.got - 2010.06.03 18:57:09.
