data_PCOD9508121
_publ_section_title
;
Structure prediction by ZEFSAII (Michael W. Deem and Ramdas Pophale) SiO2 
 PCOD9508121
Probable space group: C C C A
;
_chemical_formula_sum "Si O2"
_cell_formula_units_Z 88
_cell_length_a 10.817974
_cell_length_b 10.429946
_cell_length_c 30.308429
_cell_angle_alpha 90.000000
_cell_angle_beta 90.000000
_cell_angle_gamma 90.000000
_cell_volume 3419.726856
_symmetry_space_group_name_H-M "C C C A"
_symmetry_group_IT_number 68
_space_group.IT_coordinate_system_code '2'
_symmetry_cell_setting 'orthorhombic'
loop_
_space_group_symop_operation_xyz
x,y,z
-x,1/2-y,z
x,1/2-y,1/2-z
-x,y,1/2-z
-x,-y,-z
x,1/2+y,-z
-x,1/2+y,1/2+z
x,-y,1/2+z
1/2+x,1/2+y,z
1/2-x,-y,z
1/2+x,-y,1/2-z
1/2-x,1/2+y,1/2-z
1/2-x,1/2-y,-z
1/2+x,y,-z
1/2-x,y,1/2+z
1/2+x,1/2-y,1/2+z
loop_
_atom_site_type_symbol
_atom_site_label
_atom_site_fract_x
_atom_site_fract_y
_atom_site_fract_z
Si Si1 0.171225 0.632207 0.482516
Si Si2 0.750000 0.000000 0.724995
Si Si3 0.075617 0.036339 0.194482
Si Si4 0.123433 0.915815 0.924482
Si Si5 0.115607 0.066977 0.608360
Si Si6 0.666831 0.198319 0.666044
O O1 0.250000 0.500000 0.479598
O O2 0.250000 0.750000 0.500000
O O3 0.084812 0.614842 0.525222
O O4 0.122549 0.662455 0.433504
O O5 0.867167 0.997273 0.758385
O O6 0.728831 0.880689 0.691553
O O7 0.163594 0.156038 0.180153
O O8 0.948667 0.115418 0.185642
O O9 0.083877 0.918863 0.160021
O O10 0.157397 0.811164 0.886894
O O11 0.250000 0.000000 0.925976
O O12 0.000980 0.981143 0.905989
O O13 0.250000 0.000000 0.608246
#
# Coordination Sequence:
#
# PCOD9508121 Si02
#       6
#    16   8  16  16  16  16
#     4  10  23  41  67  99 138 180 232 284 343 413
#     4  12  20  36  62  86 122 154 212 270 340 386
#     4  10  22  39  64  93 124 166 224 278 330 403
#     4  10  21  41  64  94 135 174 216 276 351 402
#     4  10  21  41  65  97 128 172 228 278 331 406
#     4  10  22  39  63  92 125 169 219 276 333 407
#
# _framework density 25.733052000000001
#
# number of rings (size 3 to 8) (size 9 to 14) (size 15 to 20)
#    0.000    1.818    1.818    1.636    5.091    1.455 
#    0.000   10.909    0.000   13.091    0.000    0.000 
#    0.000    0.000    0.000    0.000    0.000    0.000 
#
# Total GULP energy -245017.721082 kJ/mol
# GULP energy per Si atom -5568.584570 kJ/mol
# Density = 2.567448 g / cm^3
# Si number density = 25.733052 Si / 1000 Ang^3
#
#
#
# Elastic Constant Matrix: (Units=GPa)
#
#
# Indices 1 2 3 4 5 6 
#
# 1 105.9470 4.3387 -5.9941 0.0000 0.0000 0.0000
# 2 4.3387 74.5573 35.0396 0.0000 0.0000 0.0000
# 3 -5.9941 35.0396 179.1493 0.0000 0.0000 0.0000
# 4 0.0000 0.0000 0.0000 -82.9617 0.0000 0.0000
# 5 0.0000 0.0000 0.0000 0.0000 16.2933 0.0000
# 6 0.0000 0.0000 0.0000 0.0000 0.0000 23.4216
#
#
#
# Elastic Compliance Matrix: (Units=1/GPa)
#
#
# Indices 1 2 3 4 5 6 
#
# 1 0.009497 -0.000773 0.000469 0.000000 0.000000 0.000000
# 2 -0.000773 0.014833 -0.002927 0.000000 0.000000 0.000000
# 3 0.000469 -0.002927 0.006170 0.000000 0.000000 0.000000
# 4 0.000000 0.000000 0.000000 -0.012054 0.000000 0.000000
# 5 0.000000 0.000000 0.000000 0.000000 0.061375 0.000000
# 6 0.000000 0.000000 0.000000 0.000000 0.000000 0.042696
#
#
# Mechanical properties :
#
#
# Convention : Reuss Voigt Hill
#
# Bulk Modulus (GPa) = 41.60111 47.38023 44.49067
# Shear Modulus (GPa) = 36.49851 13.10192 24.80021
#
# Velocity S-wave (km/s) = 3.77019 2.25888 3.10780
# Velocity P-wave (km/s) = 5.92907 5.02549 5.49588
#
# Compressibility (1/GPa) = 0.02403782
#
# Stress axis : x y z
#
# Youngs Moduli (GPa) = 105.29785 67.41674 162.07126
#
# Poissons Ratio (x) = 0.05212 -0.07600
# Poissons Ratio (y) = 0.08140 0.47439
# Poissons Ratio (z) = -0.04938 0.19733
#
# Static dielectric constant tensor:
#      x y z
#    x 2.221120 0.000000 0.000000 
#    y 0.000000 2.059870 0.000000 
#    z 0.000000 0.000000 2.263160 
# 
# From -- ./inp_files/54634.got.cif
#   From: 2010.05.17/outbox.cif.g08.bks.cpg/sg68_28_cif.got.tgz:54634.got - 2010.06.03 18:57:09.
