data_PCOD9508809
_publ_section_title
;
Structure prediction by ZEFSAII (Michael W. Deem and Ramdas Pophale) SiO2 
 PCOD9508809
Probable space group: C C C A
;
_chemical_formula_sum "Si O2"
_cell_formula_units_Z 112
_cell_length_a 12.706135
_cell_length_b 28.785760
_cell_length_c 13.824782
_cell_angle_alpha 90.000000
_cell_angle_beta 90.000000
_cell_angle_gamma 90.000000
_cell_volume 5056.493545
_symmetry_space_group_name_H-M "C C C A"
_symmetry_group_IT_number 68
_space_group.IT_coordinate_system_code '2'
_symmetry_cell_setting 'orthorhombic'
loop_
_space_group_symop_operation_xyz
x,y,z
-x,1/2-y,z
x,1/2-y,1/2-z
-x,y,1/2-z
-x,-y,-z
x,1/2+y,-z
-x,1/2+y,1/2+z
x,-y,1/2+z
1/2+x,1/2+y,z
1/2-x,-y,z
1/2+x,-y,1/2-z
1/2-x,1/2+y,1/2-z
1/2-x,1/2-y,-z
1/2+x,y,-z
1/2-x,y,1/2+z
1/2+x,1/2-y,1/2+z
loop_
_atom_site_type_symbol
_atom_site_label
_atom_site_fract_x
_atom_site_fract_y
_atom_site_fract_z
Si Si1 0.380465 0.863659 0.528775
Si Si2 0.603409 0.531275 0.185001
Si Si3 0.394264 0.278123 0.907661
Si Si4 0.022556 0.120412 0.135933
Si Si5 0.574783 0.141866 0.170770
Si Si6 0.235072 0.705646 0.083628
Si Si7 0.322047 0.568740 0.803601
O O1 0.414549 0.881520 0.423530
O O2 0.496648 0.859374 0.578984
O O3 0.310085 0.819858 0.496185
O O4 0.319965 0.894951 0.607130
O O5 0.500000 0.527166 0.250000
O O6 0.579914 0.572211 0.108839
O O7 0.629222 0.478988 0.154766
O O8 0.708019 0.552776 0.234372
O O9 0.500000 0.250000 0.886681
O O10 0.414032 0.331686 0.881546
O O11 0.299571 0.246721 0.866086
O O12 0.363487 0.276586 0.020872
O O13 0.000000 0.120478 0.250000
O O14 0.500000 0.165886 0.250000
O O15 0.682996 0.168455 0.153485
O O16 0.609824 0.092868 0.218979
#
# Coordination Sequence:
#
# PCOD9508809 Si02
#       7
#    16  16  16  16  16  16  16
#     4  11  22  43  68 101 139 182 235 287 348 421
#     4  10  22  42  68 105 142 179 232 291 344 422
#     4  11  22  42  65  97 136 177 230 290 343 410
#     4  11  24  41  65  91 138 178 229 292 337 398
#     4  10  22  42  70 102 140 183 230 290 350 423
#     4  11  22  39  72  97 137 186 228 282 362 407
#     4  10  23  42  73 104 143 186 224 284 366 419
#
# _framework density 22.149736999999998
#
# number of rings (size 3 to 8) (size 9 to 14) (size 15 to 20)
#    0.000    1.429    2.857    2.143    4.000    0.857 
#    0.000    0.000    3.143   12.000    0.000    0.000 
#    0.000    0.000    0.000    0.000    0.000    0.000 
#
# Total GULP energy -311762.289999 kJ/mol
# GULP energy per Si atom -5567.183750 kJ/mol
# Density = 2.209932 g / cm^3
# Si number density = 22.149737 Si / 1000 Ang^3
#
#
#
# Elastic Constant Matrix: (Units=GPa)
#
#
# Indices 1 2 3 4 5 6 
#
# 1 77.2974 28.9106 11.0249 0.0000 0.0000 0.0000
# 2 28.9106 146.0854 13.3003 0.0000 0.0000 0.0000
# 3 11.0249 13.3003 68.8307 0.0000 0.0000 0.0000
# 4 0.0000 0.0000 0.0000 20.8618 0.0000 0.0000
# 5 0.0000 0.0000 0.0000 0.0000 28.1290 0.0000
# 6 0.0000 0.0000 0.0000 0.0000 0.0000 -142.8021
#
#
#
# Elastic Compliance Matrix: (Units=1/GPa)
#
#
# Indices 1 2 3 4 5 6 
#
# 1 0.014178 -0.002646 -0.001760 0.000000 0.000000 0.000000
# 2 -0.002646 0.007462 -0.001018 0.000000 0.000000 0.000000
# 3 -0.001760 -0.001018 0.015007 0.000000 0.000000 0.000000
# 4 0.000000 0.000000 0.000000 0.047935 0.000000 0.000000
# 5 0.000000 0.000000 0.000000 0.000000 0.035550 0.000000
# 6 0.000000 0.000000 0.000000 0.000000 0.000000 -0.007003
#
#
# Mechanical properties :
#
#
# Convention : Reuss Voigt Hill
#
# Bulk Modulus (GPa) = 38.76048 44.29835 41.52941
# Shear Modulus (GPa) = 37.71457 -2.83042 17.44208
#
# Velocity S-wave (km/s) = 4.13087 -1.13165 2.80922
# Velocity P-wave (km/s) = 6.34739 4.28199 5.41409
#
# Compressibility (1/GPa) = 0.02579948
#
# Stress axis : x y z
#
# Youngs Moduli (GPa) = 70.53426 134.02019 66.63570
#
# Poissons Ratio (x) = 0.35456 0.11726
# Poissons Ratio (y) = 0.18660 0.06784
# Poissons Ratio (z) = 0.12412 0.13644
#
# Static dielectric constant tensor:
#      x y z
#    x 1.911820 0.000000 0.000000 
#    y 0.000000 1.887560 0.000000 
#    z 0.000000 0.000000 1.876710 
# 
# From -- ./inp_files/21274.got.cif
#   From: 2010.05.17/outbox.cif.g08.bks.cpg/sg68_11_cif.got.tgz:21274.got - 2010.06.03 18:57:09.
