data_PCOD9508388
_publ_section_title
;
Structure prediction by ZEFSAII (Michael W. Deem and Ramdas Pophale) SiO2 
 PCOD9508388
Probable space group: C C C A
;
_chemical_formula_sum "Si O2"
_cell_formula_units_Z 96
_cell_length_a 20.169376
_cell_length_b 17.373655
_cell_length_c 13.532784
_cell_angle_alpha 90.000000
_cell_angle_beta 90.000000
_cell_angle_gamma 90.000000
_cell_volume 4742.101063
_symmetry_space_group_name_H-M "C C C A"
_symmetry_group_IT_number 68
_space_group.IT_coordinate_system_code '2'
_symmetry_cell_setting 'orthorhombic'
loop_
_space_group_symop_operation_xyz
x,y,z
-x,1/2-y,z
x,1/2-y,1/2-z
-x,y,1/2-z
-x,-y,-z
x,1/2+y,-z
-x,1/2+y,1/2+z
x,-y,1/2+z
1/2+x,1/2+y,z
1/2-x,-y,z
1/2+x,-y,1/2-z
1/2-x,1/2+y,1/2-z
1/2-x,1/2-y,-z
1/2+x,y,-z
1/2-x,y,1/2+z
1/2+x,1/2-y,1/2+z
loop_
_atom_site_type_symbol
_atom_site_label
_atom_site_fract_x
_atom_site_fract_y
_atom_site_fract_z
Si Si1 0.620613 0.108062 0.993114
Si Si2 0.617773 0.938934 0.921893
Si Si3 0.730374 0.384092 0.926803
Si Si4 0.179984 0.222173 0.141804
Si Si5 0.269007 0.917665 0.706607
Si Si6 0.494426 0.842130 0.867340
O O1 0.696735 0.103515 0.029222
O O2 0.573174 0.126845 0.084283
O O3 0.622295 0.179966 0.917964
O O4 0.602228 0.028982 0.937434
O O5 0.653318 0.917842 0.817369
O O6 0.553314 0.886064 0.924713
O O7 0.672015 0.919360 0.006801
O O8 0.711421 0.294641 0.913641
O O9 0.738791 0.416736 0.816077
O O10 0.158261 0.250000 0.250000
O O11 0.236773 0.157787 0.158824
O O12 0.250000 0.000000 0.660448
O O13 0.500000 0.750000 0.879856
O O14 0.500000 0.858313 0.750000
#
# Coordination Sequence:
#
# PCOD9508388 Si02
#       6
#    16  16  16  16  16  16
#     4  12  22  43  66  95 134 178 224 279 336 399
#     4  12  23  42  68  99 133 176 222 276 337 401
#     4  11  23  37  67  99 133 174 219 275 333 392
#     4  10  22  37  62  98 134 173 217 271 330 395
#     4  11  20  37  61  99 136 167 219 273 326 396
#     4  11  27  46  68  96 134 179 229 278 341 410
#
# _framework density 20.244191000000001
#
# number of rings (size 3 to 8) (size 9 to 14) (size 15 to 20)
#    0.000    0.833    3.333    4.500    2.333    0.000 
#    0.000    0.000    0.000    3.000    0.000    0.000 
#    0.000    0.000    0.000    0.000    0.000    0.000 
#
# Total GULP energy -267949.745314 kJ/mol
# GULP energy per Si atom -5582.286361 kJ/mol
# Density = 2.019811 g / cm^3
# Si number density = 20.244191 Si / 1000 Ang^3
#
#
#
# Elastic Constant Matrix: (Units=GPa)
#
#
# Indices 1 2 3 4 5 6 
#
# 1 94.8692 44.1045 47.2440 0.0000 0.0000 0.0000
# 2 44.1045 152.4118 58.4529 0.0000 0.0000 0.0000
# 3 47.2440 58.4529 92.3151 0.0000 0.0000 0.0000
# 4 0.0000 0.0000 0.0000 22.9295 0.0000 0.0000
# 5 0.0000 0.0000 0.0000 0.0000 35.6131 0.0000
# 6 0.0000 0.0000 0.0000 0.0000 0.0000 28.8963
#
#
#
# Elastic Compliance Matrix: (Units=1/GPa)
#
#
# Indices 1 2 3 4 5 6 
#
# 1 0.014504 -0.001783 -0.006293 0.000000 0.000000 0.000000
# 2 -0.001783 0.008885 -0.004713 0.000000 0.000000 0.000000
# 3 -0.006293 -0.004713 0.017037 0.000000 0.000000 0.000000
# 4 0.000000 0.000000 0.000000 0.043612 0.000000 0.000000
# 5 0.000000 0.000000 0.000000 0.000000 0.028080 0.000000
# 6 0.000000 0.000000 0.000000 0.000000 0.000000 0.034607
#
#
# Mechanical properties :
#
#
# Convention : Reuss Voigt Hill
#
# Bulk Modulus (GPa) = 67.35625 71.02212 69.18919
# Shear Modulus (GPa) = 28.20825 30.14076 29.17451
#
# Velocity S-wave (km/s) = 3.73688 3.86276 3.80034
# Velocity P-wave (km/s) = 7.20854 7.41980 7.31494
#
# Compressibility (1/GPa) = 0.01484643
#
# Stress axis : x y z
#
# Youngs Moduli (GPa) = 68.94624 112.55167 58.69409
#
# Poissons Ratio (x) = 0.20073 0.36939
# Poissons Ratio (y) = 0.12296 0.27663
# Poissons Ratio (z) = 0.43391 0.53046
#
# Static dielectric constant tensor:
#      x y z
#    x 1.726730 0.000000 0.000000 
#    y 0.000000 1.719010 0.000000 
#    z 0.000000 0.000000 1.812530 
# 
# From -- ./inp_files/24468.got.cif
#   From: 2010.05.17/outbox.cif.g08.bks.cpg/sg68_13_cif.got.tgz:24468.got - 2010.06.03 18:57:09.
