data_PCOD9508069
_publ_section_title
;
Structure prediction by ZEFSAII (Michael W. Deem and Ramdas Pophale) SiO2 
 PCOD9508069
Probable space group: C C C A
;
_chemical_formula_sum "Si O2"
_cell_formula_units_Z 96
_cell_length_a 20.253039
_cell_length_b 14.258380
_cell_length_c 16.142920
_cell_angle_alpha 90.000000
_cell_angle_beta 90.000000
_cell_angle_gamma 90.000000
_cell_volume 4661.680218
_symmetry_space_group_name_H-M "C C C A"
_symmetry_group_IT_number 68
_space_group.IT_coordinate_system_code '2'
_symmetry_cell_setting 'orthorhombic'
loop_
_space_group_symop_operation_xyz
x,y,z
-x,1/2-y,z
x,1/2-y,1/2-z
-x,y,1/2-z
-x,-y,-z
x,1/2+y,-z
-x,1/2+y,1/2+z
x,-y,1/2+z
1/2+x,1/2+y,z
1/2-x,-y,z
1/2+x,-y,1/2-z
1/2-x,1/2+y,1/2-z
1/2-x,1/2-y,-z
1/2+x,y,-z
1/2-x,y,1/2+z
1/2+x,1/2-y,1/2+z
loop_
_atom_site_type_symbol
_atom_site_label
_atom_site_fract_x
_atom_site_fract_y
_atom_site_fract_z
Si Si1 0.431395 0.805100 0.046466
Si Si2 0.250000 0.500000 0.100424
Si Si3 0.243707 0.750000 0.250000
Si Si4 0.948231 0.529410 0.675606
Si Si5 0.032562 0.648096 0.129515
Si Si6 0.296287 0.301771 0.567333
Si Si7 0.348314 0.916115 0.765207
O O1 0.500000 0.750000 0.048609
O O2 0.436503 0.883764 0.116180
O O3 0.370531 0.734243 0.054697
O O4 0.428569 0.853658 0.956862
O O5 0.282114 0.587926 0.053761
O O6 0.307193 0.458823 0.159276
O O7 0.280293 0.779179 0.335198
O O8 0.197715 0.662016 0.275087
O O9 0.876811 0.498512 0.709266
O O10 0.000000 0.552920 0.750000
O O11 0.980852 0.437627 0.632549
O O12 0.085438 0.632821 0.201367
O O13 0.000000 0.750000 0.137734
O O14 0.250000 0.250000 0.500000
#
# Coordination Sequence:
#
# PCOD9508069 Si02
#       7
#    16   8   8  16  16  16  16
#     4  11  25  41  67  95 135 179 225 278 347 415
#     4  10  24  44  72  92 146 174 228 300 338 418
#     4  10  22  42  70  94 138 176 232 288 334 418
#     4  10  23  38  64  99 135 173 221 275 344 416
#     4  10  21  42  65  97 131 169 223 281 343 407
#     4  11  26  49  68 104 135 188 231 288 353 417
#     4  10  21  40  67  98 128 176 223 282 344 401
#
# _framework density 20.593433000000001
#
# number of rings (size 3 to 8) (size 9 to 14) (size 15 to 20)
#    0.000    1.667    0.000    3.500    9.333    4.000 
#   12.000    0.000    0.000    0.000    0.000    0.000 
#    0.000    0.000    0.000    0.000    0.000    0.000 
#
# Total GULP energy -268137.292558 kJ/mol
# GULP energy per Si atom -5586.193595 kJ/mol
# Density = 2.054656 g / cm^3
# Si number density = 20.593433 Si / 1000 Ang^3
#
#
#
# Elastic Constant Matrix: (Units=GPa)
#
#
# Indices 1 2 3 4 5 6 
#
# 1 110.0616 41.6911 16.0064 0.0000 0.0000 0.0000
# 2 41.6911 122.4960 31.2794 0.0000 0.0000 0.0000
# 3 16.0064 31.2794 73.9300 0.0000 0.0000 0.0000
# 4 0.0000 0.0000 0.0000 180.3399 0.0000 0.0000
# 5 0.0000 0.0000 0.0000 0.0000 -4.5257 0.0000
# 6 0.0000 0.0000 0.0000 0.0000 0.0000 22.0866
#
#
#
# Elastic Compliance Matrix: (Units=1/GPa)
#
#
# Indices 1 2 3 4 5 6 
#
# 1 0.010478 -0.003349 -0.000852 0.000000 0.000000 0.000000
# 2 -0.003349 0.010223 -0.003600 0.000000 0.000000 0.000000
# 3 -0.000852 -0.003600 0.015234 0.000000 0.000000 0.000000
# 4 0.000000 0.000000 0.000000 0.005545 0.000000 0.000000
# 5 0.000000 0.000000 0.000000 0.000000 -0.220962 0.000000
# 6 0.000000 0.000000 0.000000 0.000000 0.000000 0.045276
#
#
# Mechanical properties :
#
#
# Convention : Reuss Voigt Hill
#
# Bulk Modulus (GPa) = 49.18001 53.82683 51.50342
# Shear Modulus (GPa) = -44.71178 54.08089 4.68455
#
# Velocity S-wave (km/s) = -4.66463 5.13013 1.50987
# Velocity P-wave (km/s) = 2.25355 7.82851 5.30128
#
# Compressibility (1/GPa) = 0.02033346
#
# Stress axis : x y z
#
# Youngs Moduli (GPa) = 95.43638 97.82314 65.64310
#
# Poissons Ratio (x) = 0.32758 0.05591
# Poissons Ratio (y) = 0.31959 0.23632
# Poissons Ratio (z) = 0.08129 0.35217
#
# Static dielectric constant tensor:
#      x y z
#    x 1.704080 0.000000 0.000000 
#    y 0.000000 1.742480 0.000000 
#    z 0.000000 0.000000 1.748590 
# 
# From -- ./inp_files/24501.got.cif
#   From: 2010.05.17/outbox.cif.g08.bks.cpg/sg68_13_cif.got.tgz:24501.got - 2010.06.03 18:57:09.
