data_PCOD9508466
_publ_section_title
;
Structure prediction by ZEFSAII (Michael W. Deem and Ramdas Pophale) SiO2 
 PCOD9508466
Probable space group: C C C A
;
_chemical_formula_sum "Si O2"
_cell_formula_units_Z 88
_cell_length_a 15.435100
_cell_length_b 32.018551
_cell_length_c 8.693397
_cell_angle_alpha 90.000000
_cell_angle_beta 90.000000
_cell_angle_gamma 90.000000
_cell_volume 4296.359702
_symmetry_space_group_name_H-M "C C C A"
_symmetry_group_IT_number 68
_space_group.IT_coordinate_system_code '2'
_symmetry_cell_setting 'orthorhombic'
loop_
_space_group_symop_operation_xyz
x,y,z
-x,1/2-y,z
x,1/2-y,1/2-z
-x,y,1/2-z
-x,-y,-z
x,1/2+y,-z
-x,1/2+y,1/2+z
x,-y,1/2+z
1/2+x,1/2+y,z
1/2-x,-y,z
1/2+x,-y,1/2-z
1/2-x,1/2+y,1/2-z
1/2-x,1/2-y,-z
1/2+x,y,-z
1/2-x,y,1/2+z
1/2+x,1/2-y,1/2+z
loop_
_atom_site_type_symbol
_atom_site_label
_atom_site_fract_x
_atom_site_fract_y
_atom_site_fract_z
Si Si1 0.500000 0.750000 0.503546
Si Si2 0.431439 0.941057 0.028128
Si Si3 0.316330 0.162464 0.696428
Si Si4 0.500000 0.996632 0.750000
Si Si5 0.500000 0.323862 0.250000
Si Si6 0.000000 0.874855 0.750000
Si Si7 0.333894 0.871261 0.871539
Si Si8 0.148844 0.750000 0.750000
O O1 0.508555 0.708232 0.606772
O O2 0.415587 0.747005 0.395625
O O3 0.491625 0.904271 0.099559
O O4 0.427355 0.973021 0.172529
O O5 0.468723 0.967507 0.887702
O O6 0.352600 0.915263 0.955438
O O7 0.413304 0.152078 0.752974
O O8 0.316318 0.159593 0.513669
O O9 0.248922 0.129481 0.763321
O O10 0.294369 0.208564 0.752403
O O11 0.417276 0.353551 0.219331
#
# Coordination Sequence:
#
# PCOD9508466 Si02
#       8
#     8  16  16   8   8   8  16   8
#     4  10  22  38  66  88 126 166 222 278 330 382
#     4   9  19  36  64  95 124 160 204 254 319 382
#     4  11  25  40  63  91 131 175 225 270 330 382
#     4   9  17  36  67  97 122 162 200 249 321 396
#     4  11  23  42  60  92 123 170 219 274 330 384
#     4   9  20  41  63  91 127 170 221 271 323 383
#     4  11  25  41  61  95 129 169 218 269 326 391
#     4  11  22  40  62  91 124 178 220 279 326 377
#
# _framework density 20.482457
#
# number of rings (size 3 to 8) (size 9 to 14) (size 15 to 20)
#    0.000    1.818    1.818    1.636    5.091    3.636 
#    0.000    0.000    0.000   37.091    0.000    0.000 
#    0.000    0.000    0.000    0.000    0.000    0.000 
#
# Total GULP energy -245487.343111 kJ/mol
# GULP energy per Si atom -5579.257798 kJ/mol
# Density = 2.043584 g / cm^3
# Si number density = 20.482457 Si / 1000 Ang^3
#
#
#
# Elastic Constant Matrix: (Units=GPa)
#
#
# Indices 1 2 3 4 5 6 
#
# 1 74.7397 13.6647 28.5639 0.0000 0.0000 0.0000
# 2 13.6647 98.3855 27.5223 0.0000 0.0000 0.0000
# 3 28.5639 27.5223 94.6634 0.0000 0.0000 0.0000
# 4 0.0000 0.0000 0.0000 -12.5191 0.0000 0.0000
# 5 0.0000 0.0000 0.0000 0.0000 23.6395 0.0000
# 6 0.0000 0.0000 0.0000 0.0000 0.0000 -6.1378
#
#
#
# Elastic Compliance Matrix: (Units=1/GPa)
#
#
# Indices 1 2 3 4 5 6 
#
# 1 0.015197 -0.000901 -0.004324 0.000000 0.000000 0.000000
# 2 -0.000901 0.011117 -0.002960 0.000000 0.000000 0.000000
# 3 -0.004324 -0.002960 0.012729 0.000000 0.000000 0.000000
# 4 0.000000 0.000000 0.000000 -0.079878 0.000000 0.000000
# 5 0.000000 0.000000 0.000000 0.000000 0.042302 0.000000
# 6 0.000000 0.000000 0.000000 0.000000 0.000000 -0.162925
#
#
# Mechanical properties :
#
#
# Convention : Reuss Voigt Hill
#
# Bulk Modulus (GPa) = 44.10501 45.25450 44.67975
# Shear Modulus (GPa) = -36.35559 14.19905 -11.07827
#
# Velocity S-wave (km/s) = -4.21760 2.63578 -2.32818
# Velocity P-wave (km/s) = 1.46210 5.60405 3.82542
#
# Compressibility (1/GPa) = 0.02267316
#
# Stress axis : x y z
#
# Youngs Moduli (GPa) = 65.80294 89.94914 78.56068
#
# Poissons Ratio (x) = 0.08107 0.33966
# Poissons Ratio (y) = 0.05930 0.23256
# Poissons Ratio (z) = 0.28450 0.26628
#
# Static dielectric constant tensor:
#      x y z
#    x 1.711930 0.000000 0.000000 
#    y 0.000000 1.769390 0.000000 
#    z 0.000000 0.000000 1.744660 
# 
# From -- ./inp_files/6457.got.cif
#   From: 2010.05.17/outbox.cif.g08.bks.cpg/sg68_4_cif.got.tgz:6457.got - 2010.06.03 18:57:09.
