data_PCOD9508575
_publ_section_title
;
Structure prediction by ZEFSAII (Michael W. Deem and Ramdas Pophale) SiO2 
 PCOD9508575
Probable space group: C C C A
;
_chemical_formula_sum "Si O2"
_cell_formula_units_Z 80
_cell_length_a 11.669687
_cell_length_b 20.564872
_cell_length_c 15.230280
_cell_angle_alpha 90.000000
_cell_angle_beta 90.000000
_cell_angle_gamma 90.000000
_cell_volume 3655.048180
_symmetry_space_group_name_H-M "C C C A"
_symmetry_group_IT_number 68
_space_group.IT_coordinate_system_code '2'
_symmetry_cell_setting 'orthorhombic'
loop_
_space_group_symop_operation_xyz
x,y,z
-x,1/2-y,z
x,1/2-y,1/2-z
-x,y,1/2-z
-x,-y,-z
x,1/2+y,-z
-x,1/2+y,1/2+z
x,-y,1/2+z
1/2+x,1/2+y,z
1/2-x,-y,z
1/2+x,-y,1/2-z
1/2-x,1/2+y,1/2-z
1/2-x,1/2-y,-z
1/2+x,y,-z
1/2-x,y,1/2+z
1/2+x,1/2-y,1/2+z
loop_
_atom_site_type_symbol
_atom_site_label
_atom_site_fract_x
_atom_site_fract_y
_atom_site_fract_z
Si Si1 0.837069 0.060752 0.679735
Si Si2 0.864149 0.759016 0.849377
Si Si3 0.486304 0.044808 0.650865
Si Si4 0.247810 0.897923 0.634865
Si Si5 0.325841 0.870954 0.448096
O O1 0.816468 0.095781 0.773378
O O2 0.788490 0.102829 0.600159
O O3 0.750000 0.000000 0.685285
O O4 0.957290 0.026769 0.656693
O O5 0.818220 0.750000 0.750000
O O6 0.826134 0.831512 0.870296
O O7 0.828186 0.704456 0.919870
O O8 0.000000 0.750000 0.845141
O O9 0.500000 0.071712 0.750000
O O10 0.352411 0.047376 0.628705
O O11 0.565881 0.090887 0.592845
O O12 0.324053 0.891042 0.549029
#
# Coordination Sequence:
#
# PCOD9508575 Si02
#       5
#    16  16  16  16  16
#     4  10  22  40  62  95 137 173 227 271 339 413
#     4  11  20  38  73  98 128 179 228 287 350 418
#     4  11  21  45  66  92 137 175 227 277 335 419
#     4  12  23  41  69  98 137 175 224 301 342 398
#     4  11  23  40  65 106 131 172 238 275 349 421
#
# _framework density 21.887536000000001
#
# number of rings (size 3 to 8) (size 9 to 14) (size 15 to 20)
#    0.000    1.000    8.000    0.600    0.000    3.200 
#    3.600    0.000    0.000    0.000    0.000    4.200 
#    0.000    0.000    0.000    0.000    0.000    0.000 
#
# Total GULP energy -223452.531392 kJ/mol
# GULP energy per Si atom -5586.313285 kJ/mol
# Density = 2.183772 g / cm^3
# Si number density = 21.887536 Si / 1000 Ang^3
#
#
#
# Elastic Constant Matrix: (Units=GPa)
#
#
# Indices 1 2 3 4 5 6 
#
# 1 67.5274 34.4388 5.0618 0.0000 0.0000 0.0000
# 2 34.4388 91.3162 16.5349 0.0000 0.0000 0.0000
# 3 5.0618 16.5349 88.2827 0.0000 0.0000 0.0000
# 4 0.0000 0.0000 0.0000 17.5721 0.0000 0.0000
# 5 0.0000 0.0000 0.0000 0.0000 31.4996 0.0000
# 6 0.0000 0.0000 0.0000 0.0000 0.0000 29.7197
#
#
#
# Elastic Compliance Matrix: (Units=1/GPa)
#
#
# Indices 1 2 3 4 5 6 
#
# 1 0.018341 -0.006963 0.000252 0.000000 0.000000 0.000000
# 2 -0.006963 0.013979 -0.002219 0.000000 0.000000 0.000000
# 3 0.000252 -0.002219 0.011728 0.000000 0.000000 0.000000
# 4 0.000000 0.000000 0.000000 0.056908 0.000000 0.000000
# 5 0.000000 0.000000 0.000000 0.000000 0.031746 0.000000
# 6 0.000000 0.000000 0.000000 0.000000 0.000000 0.033648
#
#
# Mechanical properties :
#
#
# Convention : Reuss Voigt Hill
#
# Bulk Modulus (GPa) = 38.18317 39.91079 39.04698
# Shear Modulus (GPa) = 25.91500 28.49768 27.20634
#
# Velocity S-wave (km/s) = 3.44467 3.61224 3.52945
# Velocity P-wave (km/s) = 5.77097 5.97259 5.87264
#
# Compressibility (1/GPa) = 0.02618955
#
# Stress axis : x y z
#
# Youngs Moduli (GPa) = 54.52308 71.53761 85.26338
#
# Poissons Ratio (x) = 0.49810 -0.02153
# Poissons Ratio (y) = 0.37963 0.18919
# Poissons Ratio (z) = -0.01377 0.15874
#
# Static dielectric constant tensor:
#      x y z
#    x 1.836400 0.000000 0.000000 
#    y 0.000000 1.848580 0.000000 
#    z 0.000000 0.000000 1.813470 
# 
# From -- ./inp_files/20850.got.cif
#   From: 2010.05.17/outbox.cif.g08.bks.cpg/sg68_11_cif.got.tgz:20850.got - 2010.06.03 18:57:09.
