data_PCOD9508113
_publ_section_title
;
Structure prediction by ZEFSAII (Michael W. Deem and Ramdas Pophale) SiO2 
 PCOD9508113
Probable space group: C C C A
;
_chemical_formula_sum "Si O2"
_cell_formula_units_Z 64
_cell_length_a 21.217960
_cell_length_b 9.954281
_cell_length_c 15.796177
_cell_angle_alpha 90.000000
_cell_angle_beta 90.000000
_cell_angle_gamma 90.000000
_cell_volume 3336.303216
_symmetry_space_group_name_H-M "C C C A"
_symmetry_group_IT_number 68
_space_group.IT_coordinate_system_code '2'
_symmetry_cell_setting 'orthorhombic'
loop_
_space_group_symop_operation_xyz
x,y,z
-x,1/2-y,z
x,1/2-y,1/2-z
-x,y,1/2-z
-x,-y,-z
x,1/2+y,-z
-x,1/2+y,1/2+z
x,-y,1/2+z
1/2+x,1/2+y,z
1/2-x,-y,z
1/2+x,-y,1/2-z
1/2-x,1/2+y,1/2-z
1/2-x,1/2-y,-z
1/2+x,y,-z
1/2-x,y,1/2+z
1/2+x,1/2-y,1/2+z
loop_
_atom_site_type_symbol
_atom_site_label
_atom_site_fract_x
_atom_site_fract_y
_atom_site_fract_z
Si Si1 0.825005 0.098030 0.449988
Si Si2 0.000000 0.970776 0.250000
Si Si3 0.608392 0.250000 0.250000
Si Si4 0.296824 0.299810 0.403221
Si Si5 0.973444 0.103668 0.429809
O O1 0.776726 0.168744 0.383298
O O2 0.805606 0.172246 0.536391
O O3 0.898148 0.116418 0.433051
O O4 0.814904 0.938228 0.450978
O O5 0.061279 0.875624 0.261521
O O6 0.007723 0.055202 0.164155
O O7 0.654827 0.219229 0.327419
O O8 0.000000 0.250000 0.449088
O O9 0.000000 0.000000 0.500000
#
# Coordination Sequence:
#
# PCOD9508113 Si02
#       5
#    16   8   8  16  16
#     4  10  21  41  63  95 125 167 215 264 322 390
#     4  11  25  42  64  94 136 164 226 272 324 396
#     4  11  22  42  66  94 123 176 216 272 331 380
#     4  10  21  41  67  91 129 166 218 269 320 393
#     4  12  25  42  68  98 133 175 215 272 330 391
#
# _framework density 19.182908999999999
#
# number of rings (size 3 to 8) (size 9 to 14) (size 15 to 20)
#    0.000    1.250    2.500    3.375    3.500    0.000 
#    4.500   10.000    0.000    0.000    0.000    0.000 
#    0.000    0.000    0.000    0.000    0.000    0.000 
#
# Total GULP energy -178573.372736 kJ/mol
# GULP energy per Si atom -5580.417898 kJ/mol
# Density = 1.913925 g / cm^3
# Si number density = 19.182909 Si / 1000 Ang^3
#
#
#
# Elastic Constant Matrix: (Units=GPa)
#
#
# Indices 1 2 3 4 5 6 
#
# 1 186.0913 59.8310 61.6418 0.0000 0.0000 0.0000
# 2 59.8310 151.7348 77.6032 0.0000 0.0000 0.0000
# 3 61.6418 77.6032 103.6181 0.0000 0.0000 0.0000
# 4 0.0000 0.0000 0.0000 26.9953 0.0000 0.0000
# 5 0.0000 0.0000 0.0000 0.0000 32.7878 0.0000
# 6 0.0000 0.0000 0.0000 0.0000 0.0000 24.4409
#
#
#
# Elastic Compliance Matrix: (Units=1/GPa)
#
#
# Indices 1 2 3 4 5 6 
#
# 1 0.006783 -0.000990 -0.003294 0.000000 0.000000 0.000000
# 2 -0.000990 0.010827 -0.007519 0.000000 0.000000 0.000000
# 3 -0.003294 -0.007519 0.017242 0.000000 0.000000 0.000000
# 4 0.000000 0.000000 0.000000 0.037043 0.000000 0.000000
# 5 0.000000 0.000000 0.000000 0.000000 0.030499 0.000000
# 6 0.000000 0.000000 0.000000 0.000000 0.000000 0.040915
#
#
# Mechanical properties :
#
#
# Convention : Reuss Voigt Hill
#
# Bulk Modulus (GPa) = 88.92823 93.28847 91.10835
# Shear Modulus (GPa) = 29.29740 33.00269 31.15004
#
# Velocity S-wave (km/s) = 3.91226 4.15230 4.03407
# Velocity P-wave (km/s) = 8.17719 8.46908 8.32442
#
# Compressibility (1/GPa) = 0.01124502
#
# Stress axis : x y z
#
# Youngs Moduli (GPa) = 147.42624 92.36534 57.99894
#
# Poissons Ratio (x) = 0.09146 0.19103
# Poissons Ratio (y) = 0.14597 0.43611
# Poissons Ratio (z) = 0.48557 0.69453
#
# Static dielectric constant tensor:
#      x y z
#    x 1.687600 0.000000 0.000000 
#    y 0.000000 1.554480 0.000000 
#    z 0.000000 0.000000 1.667520 
# 
# From -- ./inp_files/25041.got.cif
#   From: 2010.05.17/outbox.cif.g08.bks.cpg/sg68_13_cif.got.tgz:25041.got - 2010.06.03 18:57:09.
