data_PCOD9508136
_publ_section_title
;
Structure prediction by ZEFSAII (Michael W. Deem and Ramdas Pophale) SiO2 
 PCOD9508136
Probable space group: C C C A
;
_chemical_formula_sum "Si O2"
_cell_formula_units_Z 88
_cell_length_a 16.480346
_cell_length_b 30.295909
_cell_length_c 8.807401
_cell_angle_alpha 90.000000
_cell_angle_beta 90.000000
_cell_angle_gamma 90.000000
_cell_volume 4397.421375
_symmetry_space_group_name_H-M "C C C A"
_symmetry_group_IT_number 68
_space_group.IT_coordinate_system_code '2'
_symmetry_cell_setting 'orthorhombic'
loop_
_space_group_symop_operation_xyz
x,y,z
-x,1/2-y,z
x,1/2-y,1/2-z
-x,y,1/2-z
-x,-y,-z
x,1/2+y,-z
-x,1/2+y,1/2+z
x,-y,1/2+z
1/2+x,1/2+y,z
1/2-x,-y,z
1/2+x,-y,1/2-z
1/2-x,1/2+y,1/2-z
1/2-x,1/2-y,-z
1/2+x,y,-z
1/2-x,y,1/2+z
1/2+x,1/2-y,1/2+z
loop_
_atom_site_type_symbol
_atom_site_label
_atom_site_fract_x
_atom_site_fract_y
_atom_site_fract_z
Si Si1 0.360726 0.299694 0.245431
Si Si2 0.208316 0.100507 0.308964
Si Si3 0.733360 0.836397 0.460128
Si Si4 0.408502 0.028620 0.710008
Si Si5 0.500000 0.632377 0.750000
Si Si6 0.886323 0.561698 0.371206
O O1 0.392075 0.250000 0.250000
O O2 0.282492 0.302775 0.355068
O O3 0.427990 0.334782 0.298828
O O4 0.328457 0.314453 0.078689
O O5 0.201098 0.135772 0.442748
O O6 0.194715 0.127634 0.153731
O O7 0.151707 0.058202 0.310759
O O8 0.301363 0.084349 0.325925
O O9 0.500000 0.041677 0.750000
O O10 0.386973 0.038885 0.535762
O O11 0.400314 0.977269 0.750287
O O12 0.456379 0.598693 0.634123
#
# Coordination Sequence:
#
# PCOD9508136 Si02
#       6
#    16  16  16  16   8  16
#     4  11  23  41  69  97 124 163 216 273 337 396
#     4  11  22  42  64  94 131 176 219 260 324 393
#     4  10  21  41  66  92 128 166 209 261 328 389
#     4  12  27  40  64  97 132 172 231 274 314 366
#     4  12  23  42  66  88 134 166 220 270 325 382
#     4  12  26  43  62  94 133 178 225 265 326 378
#
# _framework density 20.011728000000002
#
# number of rings (size 3 to 8) (size 9 to 14) (size 15 to 20)
#    0.000    0.727    6.364    1.909    5.091    1.455 
#    0.000    0.000    0.000    0.000    0.000    6.364 
#    0.000    0.000    0.000    0.000    0.000    0.000 
#
# Total GULP energy -245676.767481 kJ/mol
# GULP energy per Si atom -5583.562897 kJ/mol
# Density = 1.996618 g / cm^3
# Si number density = 20.011728 Si / 1000 Ang^3
#
#
#
# Elastic Constant Matrix: (Units=GPa)
#
#
# Indices 1 2 3 4 5 6 
#
# 1 64.8022 14.1033 5.6466 0.0000 0.0000 0.0000
# 2 14.1033 120.4378 27.6989 0.0000 0.0000 0.0000
# 3 5.6466 27.6989 66.7743 0.0000 0.0000 0.0000
# 4 0.0000 0.0000 0.0000 15.4468 0.0000 0.0000
# 5 0.0000 0.0000 0.0000 0.0000 13.3709 0.0000
# 6 0.0000 0.0000 0.0000 0.0000 0.0000 33.2193
#
#
#
# Elastic Compliance Matrix: (Units=1/GPa)
#
#
# Indices 1 2 3 4 5 6 
#
# 1 0.015859 -0.001712 -0.000631 0.000000 0.000000 0.000000
# 2 -0.001712 0.009364 -0.003739 0.000000 0.000000 0.000000
# 3 -0.000631 -0.003739 0.016580 0.000000 0.000000 0.000000
# 4 0.000000 0.000000 0.000000 0.064738 0.000000 0.000000
# 5 0.000000 0.000000 0.000000 0.000000 0.074789 0.000000
# 6 0.000000 0.000000 0.000000 0.000000 0.000000 0.030103
#
#
# Mechanical properties :
#
#
# Convention : Reuss Voigt Hill
#
# Bulk Modulus (GPa) = 33.74001 38.54578 36.14290
# Shear Modulus (GPa) = 21.41534 26.04510 23.73022
#
# Velocity S-wave (km/s) = 3.27485 3.61153 3.44730
# Velocity P-wave (km/s) = 5.58536 6.05758 5.82626
#
# Compressibility (1/GPa) = 0.02963840
#
# Stress axis : x y z
#
# Youngs Moduli (GPa) = 63.05511 106.79758 60.31249
#
# Poissons Ratio (x) = 0.18284 0.03805
# Poissons Ratio (y) = 0.10795 0.22553
# Poissons Ratio (z) = 0.03978 0.39935
#
# Static dielectric constant tensor:
#      x y z
#    x 1.710540 0.000000 0.000000 
#    y 0.000000 1.719510 0.000000 
#    z 0.000000 0.000000 1.738040 
# 
# From -- ./inp_files/6431.got.cif
#   From: 2010.05.17/outbox.cif.g08.bks.cpg/sg68_4_cif.got.tgz:6431.got - 2010.06.03 18:57:09.
