data_PCOD9508250
_publ_section_title
;
Structure prediction by ZEFSAII (Michael W. Deem and Ramdas Pophale) SiO2 
 PCOD9508250
Probable space group: C C C A
;
_chemical_formula_sum "Si O2"
_cell_formula_units_Z 108
_cell_length_a 5.315469
_cell_length_b 30.543240
_cell_length_c 29.905215
_cell_angle_alpha 90.000000
_cell_angle_beta 90.000000
_cell_angle_gamma 90.000000
_cell_volume 4855.160861
_symmetry_space_group_name_H-M "C C C A"
_symmetry_group_IT_number 68
_space_group.IT_coordinate_system_code '2'
_symmetry_cell_setting 'orthorhombic'
loop_
_space_group_symop_operation_xyz
x,y,z
-x,1/2-y,z
x,1/2-y,1/2-z
-x,y,1/2-z
-x,-y,-z
x,1/2+y,-z
-x,1/2+y,1/2+z
x,-y,1/2+z
1/2+x,1/2+y,z
1/2-x,-y,z
1/2+x,-y,1/2-z
1/2-x,1/2+y,1/2-z
1/2-x,1/2-y,-z
1/2+x,y,-z
1/2-x,y,1/2+z
1/2+x,1/2-y,1/2+z
loop_
_atom_site_type_symbol
_atom_site_label
_atom_site_fract_x
_atom_site_fract_y
_atom_site_fract_z
Si Si1 0.977258 0.950151 0.019295
Si Si2 0.000000 0.750000 0.250000
Si Si3 0.675076 0.675582 0.206631
Si Si4 0.446104 0.583767 0.801481
Si Si5 0.021916 0.301932 0.479244
Si Si6 0.366062 0.594878 0.608022
Si Si7 0.119682 0.152756 0.109016
Si Si8 0.750000 0.500000 0.719581
O O1 0.915922 0.942809 0.071366
O O2 0.245751 0.929536 0.007775
O O3 0.000000 0.000000 0.000000
O O4 0.831345 0.718706 0.218970
O O5 0.500000 0.668489 0.250000
O O6 0.845818 0.632711 0.201661
O O7 0.558683 0.675524 0.157056
O O8 0.500000 0.574558 0.750000
O O9 0.651776 0.580686 0.839966
O O10 0.263950 0.543172 0.811349
O O11 0.743241 0.319902 0.488944
O O12 0.114770 0.311532 0.429611
O O13 0.000000 0.250000 0.486389
O O14 0.107348 0.619593 0.598442
O O15 0.613353 0.626789 0.607697
O O16 0.500000 0.492249 0.750000
#
# Coordination Sequence:
#
# PCOD9508250 Si02
#       8
#    16   4  16  16  16  16  16   8
#     4  10  22  41  64  95 136 180 226 287 352 413
#     4  12  26  44  68 110 132 196 242 284 378 434
#     4  11  24  44  69  99 144 185 236 296 356 432
#     4  10  21  43  68  94 140 179 228 295 343 411
#     4  10  22  42  63  91 124 165 216 277 338 402
#     4  11  24  41  66 100 130 181 231 271 353 420
#     4  11  25  42  68  99 135 182 226 287 348 413
#     4  10  22  38  64  96 120 174 228 264 340 396
#
# _framework density 22.244371000000001
#
# number of rings (size 3 to 8) (size 9 to 14) (size 15 to 20)
#    0.000    1.481    0.741    3.333    2.074    9.481 
#    4.000    7.407    0.000    0.000    0.000    0.000 
#    0.000    0.000    0.000    0.000    0.000    0.000 
#
# Total GULP energy -300975.653321 kJ/mol
# GULP energy per Si atom -5573.623210 kJ/mol
# Density = 2.219374 g / cm^3
# Si number density = 22.244371 Si / 1000 Ang^3
#
#
#
# Elastic Constant Matrix: (Units=GPa)
#
#
# Indices 1 2 3 4 5 6 
#
# 1 102.0105 9.4463 2.9966 0.0000 0.0000 0.0000
# 2 9.4463 88.1877 8.4100 0.0000 0.0000 0.0000
# 3 2.9966 8.4100 121.0965 0.0000 0.0000 0.0000
# 4 0.0000 0.0000 0.0000 165.4420 0.0000 0.0000
# 5 0.0000 0.0000 0.0000 0.0000 36.5881 0.0000
# 6 0.0000 0.0000 0.0000 0.0000 0.0000 -2.3565
#
#
#
# Elastic Compliance Matrix: (Units=1/GPa)
#
#
# Indices 1 2 3 4 5 6 
#
# 1 0.009905 -0.001044 -0.000173 0.000000 0.000000 0.000000
# 2 -0.001044 0.011525 -0.000775 0.000000 0.000000 0.000000
# 3 -0.000173 -0.000775 0.008316 0.000000 0.000000 0.000000
# 4 0.000000 0.000000 0.000000 0.006044 0.000000 0.000000
# 5 0.000000 0.000000 0.000000 0.000000 0.027331 0.000000
# 6 0.000000 0.000000 0.000000 0.000000 0.000000 -0.424361
#
#
# Mechanical properties :
#
#
# Convention : Reuss Voigt Hill
#
# Bulk Modulus (GPa) = 38.81595 39.22228 39.01912
# Shear Modulus (GPa) = -14.34028 59.29752 22.47862
#
# Velocity S-wave (km/s) = -2.54179 5.16867 3.18233
# Velocity P-wave (km/s) = 2.97883 7.30007 5.57514
#
# Compressibility (1/GPa) = 0.02576261
#
# Stress axis : x y z
#
# Youngs Moduli (GPa) = 100.96213 86.76641 120.25103
#
# Poissons Ratio (x) = 0.09063 0.02075
# Poissons Ratio (y) = 0.10545 0.09314
# Poissons Ratio (z) = 0.01742 0.06721
#
# Static dielectric constant tensor:
#      x y z
#    x 1.053870 0.000000 0.000000 
#    y 0.000000 0.815030 0.000000 
#    z 0.000000 0.000000 1.823420 
# 
# From -- ./inp_files/53528.got.cif
#   From: 2010.05.17/outbox.cif.g08.bks.cpg/sg68_27_cif.got.tgz:53528.got - 2010.06.03 18:57:09.
