data_PCOD9508432
_publ_section_title
;
Structure prediction by ZEFSAII (Michael W. Deem and Ramdas Pophale) SiO2 
 PCOD9508432
Probable space group: C C C A
;
_chemical_formula_sum "Si O2"
_cell_formula_units_Z 80
_cell_length_a 23.749897
_cell_length_b 11.473445
_cell_length_c 14.117987
_cell_angle_alpha 90.000000
_cell_angle_beta 90.000000
_cell_angle_gamma 90.000000
_cell_volume 3847.054566
_symmetry_space_group_name_H-M "C C C A"
_symmetry_group_IT_number 68
_space_group.IT_coordinate_system_code '2'
_symmetry_cell_setting 'orthorhombic'
loop_
_space_group_symop_operation_xyz
x,y,z
-x,1/2-y,z
x,1/2-y,1/2-z
-x,y,1/2-z
-x,-y,-z
x,1/2+y,-z
-x,1/2+y,1/2+z
x,-y,1/2+z
1/2+x,1/2+y,z
1/2-x,-y,z
1/2+x,-y,1/2-z
1/2-x,1/2+y,1/2-z
1/2-x,1/2-y,-z
1/2+x,y,-z
1/2-x,y,1/2+z
1/2+x,1/2-y,1/2+z
loop_
_atom_site_type_symbol
_atom_site_label
_atom_site_fract_x
_atom_site_fract_y
_atom_site_fract_z
Si Si1 0.120867 0.259873 0.550884
Si Si2 0.338305 0.285567 0.852161
Si Si3 0.155642 0.949694 0.181533
Si Si4 0.728156 0.127158 0.147533
Si Si5 0.060293 0.873223 0.296445
O O1 0.121372 0.253566 0.438773
O O2 0.131489 0.133193 0.598766
O O3 0.176637 0.330162 0.583728
O O4 0.069021 0.335390 0.594843
O O5 0.361793 0.250000 0.750000
O O6 0.326976 0.423924 0.853662
O O7 0.280449 0.213550 0.861433
O O8 0.203630 0.887617 0.245197
O O9 0.105127 0.964838 0.258302
O O10 0.750000 0.000000 0.118988
O O11 0.079546 0.750000 0.250000
O O12 0.000000 0.896512 0.250000
#
# Coordination Sequence:
#
# PCOD9508432 Si02
#       5
#    16  16  16  16  16
#     4  10  23  37  58  92 119 159 219 260 310 380
#     4  12  24  38  56  86 131 176 207 258 315 368
#     4  10  22  38  61  88 123 160 212 265 313 376
#     4  11  22  37  56  84 121 169 210 250 303 370
#     4   8  16  38  68  93 115 150 208 272 321 376
#
# _framework density 20.79513
#
# number of rings (size 3 to 8) (size 9 to 14) (size 15 to 20)
#    0.000    1.800    2.000    3.600    2.800    0.000 
#    0.000    1.000    0.000    5.400    0.000    4.200 
#    0.000    0.000    0.000    0.000    0.000    0.000 
#
# Total GULP energy -223117.562249 kJ/mol
# GULP energy per Si atom -5577.939056 kJ/mol
# Density = 2.074780 g / cm^3
# Si number density = 20.795130 Si / 1000 Ang^3
#
#
#
# Elastic Constant Matrix: (Units=GPa)
#
#
# Indices 1 2 3 4 5 6 
#
# 1 73.6679 35.3439 30.0990 0.0000 0.0000 0.0000
# 2 35.3439 111.6525 11.2895 0.0000 0.0000 0.0000
# 3 30.0990 11.2895 131.7058 0.0000 0.0000 0.0000
# 4 0.0000 0.0000 0.0000 19.0513 0.0000 0.0000
# 5 0.0000 0.0000 0.0000 0.0000 22.1985 0.0000
# 6 0.0000 0.0000 0.0000 0.0000 0.0000 13.7219
#
#
#
# Elastic Compliance Matrix: (Units=1/GPa)
#
#
# Indices 1 2 3 4 5 6 
#
# 1 0.017516 -0.005185 -0.003559 0.000000 0.000000 0.000000
# 2 -0.005185 0.010569 0.000279 0.000000 0.000000 0.000000
# 3 -0.003559 0.000279 0.008382 0.000000 0.000000 0.000000
# 4 0.000000 0.000000 0.000000 0.052490 0.000000 0.000000
# 5 0.000000 0.000000 0.000000 0.000000 0.045048 0.000000
# 6 0.000000 0.000000 0.000000 0.000000 0.000000 0.072876
#
#
# Mechanical properties :
#
#
# Convention : Reuss Voigt Hill
#
# Bulk Modulus (GPa) = 51.18122 52.27677 51.72900
# Shear Modulus (GPa) = 21.70861 27.01392 24.36126
#
# Velocity S-wave (km/s) = 3.23449 3.60814 3.42642
# Velocity P-wave (km/s) = 6.21408 6.52317 6.37050
#
# Compressibility (1/GPa) = 0.01953842
#
# Stress axis : x y z
#
# Youngs Moduli (GPa) = 57.09090 94.61232 119.30316
#
# Poissons Ratio (x) = 0.49056 0.42454
# Poissons Ratio (y) = 0.29601 -0.03328
# Poissons Ratio (z) = 0.20316 -0.02639
#
# Static dielectric constant tensor:
#      x y z
#    x 1.763580 0.000000 0.000000 
#    y 0.000000 1.754890 0.000000 
#    z 0.000000 0.000000 1.841030 
# 
# From -- ./inp_files/25144.got.cif
#   From: 2010.05.17/outbox.cif.g08.bks.cpg/sg68_13_cif.got.tgz:25144.got - 2010.06.03 18:57:09.
