data_PCOD9508969
_publ_section_title
;
Structure prediction by ZEFSAII (Michael W. Deem and Ramdas Pophale) SiO2 
 PCOD9508969
Probable space group: C C C A
;
_chemical_formula_sum "Si O2"
_cell_formula_units_Z 104
_cell_length_a 9.247361
_cell_length_b 20.822465
_cell_length_c 24.217884
_cell_angle_alpha 90.000000
_cell_angle_beta 90.000000
_cell_angle_gamma 90.000000
_cell_volume 4663.222604
_symmetry_space_group_name_H-M "C C C A"
_symmetry_group_IT_number 68
_space_group.IT_coordinate_system_code '2'
_symmetry_cell_setting 'orthorhombic'
loop_
_space_group_symop_operation_xyz
x,y,z
-x,1/2-y,z
x,1/2-y,1/2-z
-x,y,1/2-z
-x,-y,-z
x,1/2+y,-z
-x,1/2+y,1/2+z
x,-y,1/2+z
1/2+x,1/2+y,z
1/2-x,-y,z
1/2+x,-y,1/2-z
1/2-x,1/2+y,1/2-z
1/2-x,1/2-y,-z
1/2+x,y,-z
1/2-x,y,1/2+z
1/2+x,1/2-y,1/2+z
loop_
_atom_site_type_symbol
_atom_site_label
_atom_site_fract_x
_atom_site_fract_y
_atom_site_fract_z
Si Si1 0.881913 0.700608 0.497392
Si Si2 0.668098 0.754065 0.184318
Si Si3 0.220549 0.882356 0.676087
Si Si4 0.500000 0.056067 0.750000
Si Si5 0.983258 0.407293 0.076590
Si Si6 0.707097 0.638331 0.891526
Si Si7 0.989834 0.970473 0.358247
O O1 0.750000 0.750000 0.500000
O O2 0.890934 0.678480 0.434096
O O3 0.000000 0.750000 0.519299
O O4 0.896110 0.633693 0.531014
O O5 0.500000 0.750000 0.165110
O O6 0.661398 0.750000 0.250000
O O7 0.765058 0.691313 0.171407
O O8 0.737963 0.815738 0.156887
O O9 0.343715 0.931816 0.657606
O O10 0.141559 0.902418 0.733263
O O11 0.089078 0.884761 0.633266
O O12 0.526843 0.012517 0.696063
O O13 0.150804 0.386944 0.075754
O O14 0.971897 0.484188 0.087289
O O15 0.616858 0.579062 0.869198
#
# Coordination Sequence:
#
# PCOD9508969 Si02
#       7
#    16  16  16   8  16  16  16
#     4  12  27  48  77 107 142 196 245 315 380 451
#     4  11  24  43  74 109 145 195 247 305 373 450
#     4  11  24  44  73 106 144 195 248 307 362 451
#     4  10  22  44  69  99 148 198 240 288 376 442
#     4  11  24  48  72 101 144 190 248 297 375 452
#     4  12  27  46  74 110 149 188 250 311 378 459
#     4  11  28  44  73 108 147 195 244 315 369 453
#
# _framework density 22.302174000000001
#
# number of rings (size 3 to 8) (size 9 to 14) (size 15 to 20)
#    0.000    0.769    3.077    4.154    8.615    3.077 
#    0.000    2.308    0.000    0.000    0.000    0.000 
#    0.000    0.000    0.000    0.000    0.000    0.000 
#
# Total GULP energy -290145.312431 kJ/mol
# GULP energy per Si atom -5579.717547 kJ/mol
# Density = 2.225141 g / cm^3
# Si number density = 22.302174 Si / 1000 Ang^3
#
#
#
# Elastic Constant Matrix: (Units=GPa)
#
#
# Indices 1 2 3 4 5 6 
#
# 1 57.8751 77.0866 19.4371 0.0000 0.0000 0.0000
# 2 77.0866 159.4656 60.1093 0.0000 0.0000 0.0000
# 3 19.4371 60.1093 90.6481 0.0000 0.0000 0.0000
# 4 0.0000 0.0000 0.0000 38.6985 0.0000 0.0000
# 5 0.0000 0.0000 0.0000 0.0000 23.9608 0.0000
# 6 0.0000 0.0000 0.0000 0.0000 0.0000 28.1666
#
#
#
# Elastic Compliance Matrix: (Units=1/GPa)
#
#
# Indices 1 2 3 4 5 6 
#
# 1 0.051949 -0.027883 0.007350 0.000000 0.000000 0.000000
# 2 -0.027883 0.023327 -0.009489 0.000000 0.000000 0.000000
# 3 0.007350 -0.009489 0.015748 0.000000 0.000000 0.000000
# 4 0.000000 0.000000 0.000000 0.025841 0.000000 0.000000
# 5 0.000000 0.000000 0.000000 0.000000 0.041735 0.000000
# 6 0.000000 0.000000 0.000000 0.000000 0.000000 0.035503
#
#
# Mechanical properties :
#
#
# Convention : Reuss Voigt Hill
#
# Bulk Modulus (GPa) = 32.27943 69.02832 50.65387
# Shear Modulus (GPa) = 18.90560 28.25559 23.58060
#
# Velocity S-wave (km/s) = 2.91469 3.56328 3.25518
# Velocity P-wave (km/s) = 5.08255 6.92444 6.07372
#
# Compressibility (1/GPa) = 0.03097948
#
# Stress axis : x y z
#
# Youngs Moduli (GPa) = 19.24980 42.86950 63.50022
#
# Poissons Ratio (x) = 1.19533 -0.46675
# Poissons Ratio (y) = 0.53674 0.60257
# Poissons Ratio (z) = -0.14149 0.40680
#
# Static dielectric constant tensor:
#      x y z
#    x 1.824880 0.000000 0.000000 
#    y 0.000000 2.154120 0.000000 
#    z 0.000000 0.000000 1.839290 
# 
# From -- ./inp_files/49408.got.cif
#   From: 2010.05.17/outbox.cif.g08.bks.cpg/sg68_25_cif.got.tgz:49408.got - 2010.06.03 18:57:09.
