data_PCOD9508219
_publ_section_title
;
Structure prediction by ZEFSAII (Michael W. Deem and Ramdas Pophale) SiO2 
 PCOD9508219
Probable space group: C C C A
;
_chemical_formula_sum "Si O2"
_cell_formula_units_Z 64
_cell_length_a 13.561884
_cell_length_b 18.138794
_cell_length_c 10.989256
_cell_angle_alpha 90.000000
_cell_angle_beta 90.000000
_cell_angle_gamma 90.000000
_cell_volume 2703.315438
_symmetry_space_group_name_H-M "C C C A"
_symmetry_group_IT_number 68
_space_group.IT_coordinate_system_code '2'
_symmetry_cell_setting 'orthorhombic'
loop_
_space_group_symop_operation_xyz
x,y,z
-x,1/2-y,z
x,1/2-y,1/2-z
-x,y,1/2-z
-x,-y,-z
x,1/2+y,-z
-x,1/2+y,1/2+z
x,-y,1/2+z
1/2+x,1/2+y,z
1/2-x,-y,z
1/2+x,-y,1/2-z
1/2-x,1/2+y,1/2-z
1/2-x,1/2-y,-z
1/2+x,y,-z
1/2-x,y,1/2+z
1/2+x,1/2-y,1/2+z
loop_
_atom_site_type_symbol
_atom_site_label
_atom_site_fract_x
_atom_site_fract_y
_atom_site_fract_z
Si Si1 0.184807 0.307111 0.349352
Si Si2 0.098551 0.549387 0.496219
Si Si3 0.101208 0.215802 0.569194
Si Si4 0.881661 0.965895 0.764049
O O1 0.146134 0.250000 0.250000
O O2 0.143319 0.276885 0.476153
O O3 0.303817 0.302842 0.349185
O O4 0.149068 0.388040 0.319447
O O5 0.078430 0.636928 0.494071
O O6 0.152742 0.531046 0.623283
O O7 0.145309 0.526940 0.365573
O O8 0.000000 0.500000 0.500000
O O9 0.000000 0.250000 0.618873
O O10 0.000000 0.968364 0.750000
#
# Coordination Sequence:
#
# PCOD9508219 Si02
#       4
#    16  16  16  16
#     4  11  24  44  72 105 132 193 249 291 366 434
#     4  10  21  42  70 105 137 190 236 291 367 428
#     4  11  24  45  70 102 146 185 242 309 360 429
#     4  10  21  42  72 104 141 185 241 296 359 432
#
# _framework density 23.674631999999999
#
# number of rings (size 3 to 8) (size 9 to 14) (size 15 to 20)
#    0.000    1.500    2.500    3.000    0.000    1.500 
#   22.500    2.500    0.000    0.000    0.000    0.000 
#    0.000    0.000    0.000    0.000    0.000    0.000 
#
# Total GULP energy -178696.283393 kJ/mol
# GULP energy per Si atom -5584.258856 kJ/mol
# Density = 2.362075 g / cm^3
# Si number density = 23.674632 Si / 1000 Ang^3
#
#
#
# Elastic Constant Matrix: (Units=GPa)
#
#
# Indices 1 2 3 4 5 6 
#
# 1 101.9105 39.9645 14.0492 0.0000 0.0000 0.0000
# 2 39.9645 126.4937 67.7332 0.0000 0.0000 0.0000
# 3 14.0492 67.7332 152.2029 0.0000 0.0000 0.0000
# 4 0.0000 0.0000 0.0000 36.0642 0.0000 0.0000
# 5 0.0000 0.0000 0.0000 0.0000 -12.1444 0.0000
# 6 0.0000 0.0000 0.0000 0.0000 0.0000 36.7014
#
#
#
# Elastic Compliance Matrix: (Units=1/GPa)
#
#
# Indices 1 2 3 4 5 6 
#
# 1 0.011259 -0.003939 0.000714 0.000000 0.000000 0.000000
# 2 -0.003939 0.011757 -0.004868 0.000000 0.000000 0.000000
# 3 0.000714 -0.004868 0.008671 0.000000 0.000000 0.000000
# 4 0.000000 0.000000 0.000000 0.027728 0.000000 0.000000
# 5 0.000000 0.000000 0.000000 0.000000 -0.082342 0.000000
# 6 0.000000 0.000000 0.000000 0.000000 0.000000 0.027247
#
#
# Mechanical properties :
#
#
# Convention : Reuss Voigt Hill
#
# Bulk Modulus (GPa) = 64.52118 69.34455 66.93286
# Shear Modulus (GPa) = 194.74778 29.38157 112.06468
#
# Velocity S-wave (km/s) = 9.07958 3.52669 6.88753
# Velocity P-wave (km/s) = 11.71455 6.77773 9.56996
#
# Compressibility (1/GPa) = 0.01549879
#
# Stress axis : x y z
#
# Youngs Moduli (GPa) = 88.81811 85.05525 115.32885
#
# Poissons Ratio (x) = 0.33507 -0.08233
# Poissons Ratio (y) = 0.34989 0.56148
# Poissons Ratio (z) = -0.06340 0.41409
#
# Static dielectric constant tensor:
#      x y z
#    x 1.898650 0.000000 0.000000 
#    y 0.000000 1.825510 0.000000 
#    z 0.000000 0.000000 1.970010 
# 
# From -- ./inp_files/12822.got.cif
#   From: 2010.05.17/outbox.cif.g08.bks.cpg/sg68_7_cif.got.tgz:12822.got - 2010.06.03 18:57:09.
