data_PCOD9508078
_publ_section_title
;
Structure prediction by ZEFSAII (Michael W. Deem and Ramdas Pophale) SiO2 
 PCOD9508078
Probable space group: C C C A
;
_chemical_formula_sum "Si O2"
_cell_formula_units_Z 104
_cell_length_a 18.031705
_cell_length_b 13.788855
_cell_length_c 18.019302
_cell_angle_alpha 90.000000
_cell_angle_beta 90.000000
_cell_angle_gamma 90.000000
_cell_volume 4480.257365
_symmetry_space_group_name_H-M "C C C A"
_symmetry_group_IT_number 68
_space_group.IT_coordinate_system_code '2'
_symmetry_cell_setting 'orthorhombic'
loop_
_space_group_symop_operation_xyz
x,y,z
-x,1/2-y,z
x,1/2-y,1/2-z
-x,y,1/2-z
-x,-y,-z
x,1/2+y,-z
-x,1/2+y,1/2+z
x,-y,1/2+z
1/2+x,1/2+y,z
1/2-x,-y,z
1/2+x,-y,1/2-z
1/2-x,1/2+y,1/2-z
1/2-x,1/2-y,-z
1/2+x,y,-z
1/2-x,y,1/2+z
1/2+x,1/2-y,1/2+z
loop_
_atom_site_type_symbol
_atom_site_label
_atom_site_fract_x
_atom_site_fract_y
_atom_site_fract_z
Si Si1 0.500000 0.250000 0.628552
Si Si2 0.784427 0.608058 0.816224
Si Si3 0.257040 0.384888 0.514923
Si Si4 0.122650 0.245822 0.007686
Si Si5 0.920211 0.789577 0.149131
Si Si6 0.923600 0.422911 0.224870
Si Si7 0.154879 0.612014 0.280088
O O1 0.433719 0.275585 0.571572
O O2 0.541023 0.334347 0.677049
O O3 0.750000 0.500000 0.823100
O O4 0.763260 0.647784 0.897315
O O5 0.870404 0.613685 0.792292
O O6 0.738631 0.637003 0.743194
O O7 0.250000 0.500000 0.510136
O O8 0.188352 0.331295 0.475934
O O9 0.333464 0.342726 0.484077
O O10 0.082036 0.194644 0.938352
O O11 0.889680 0.874449 0.201345
O O12 0.869395 0.698392 0.168413
O O13 0.000000 0.750000 0.170021
O O14 0.870261 0.506709 0.190431
O O15 0.000000 0.473543 0.250000
#
# Coordination Sequence:
#
# PCOD9508078 Si02
#       7
#     8  16  16  16  16  16  16
#     4  12  27  46  60 101 146 194 228 278 362 435
#     4   9  19  38  67  98 130 173 235 289 348 403
#     4  10  22  43  67  98 136 189 235 283 344 414
#     4  11  24  43  66  95 144 188 231 279 341 435
#     4  11  21  40  65  98 130 170 236 290 355 405
#     4  11  23  42  65  97 139 181 232 289 356 417
#     4  10  21  40  69 100 124 176 232 307 343 404
#
# _framework density 23.212952999999999
#
# number of rings (size 3 to 8) (size 9 to 14) (size 15 to 20)
#    0.000    1.538    2.308    3.000    0.000    3.692 
#    8.308    3.077    0.000    0.000    0.000    0.000 
#    0.000    0.000    0.000    0.000    0.000    0.000 
#
# Total GULP energy -289644.675759 kJ/mol
# GULP energy per Si atom -5570.089918 kJ/mol
# Density = 2.316012 g / cm^3
# Si number density = 23.212953 Si / 1000 Ang^3
#
#
#
# Elastic Constant Matrix: (Units=GPa)
#
#
# Indices 1 2 3 4 5 6 
#
# 1 149.4338 33.1390 40.1887 0.0000 0.0000 0.0000
# 2 33.1390 119.1968 26.5819 0.0000 0.0000 0.0000
# 3 40.1887 26.5819 82.5501 0.0000 0.0000 0.0000
# 4 0.0000 0.0000 0.0000 16.2941 0.0000 0.0000
# 5 0.0000 0.0000 0.0000 0.0000 26.8274 0.0000
# 6 0.0000 0.0000 0.0000 0.0000 0.0000 28.0006
#
#
#
# Elastic Compliance Matrix: (Units=1/GPa)
#
#
# Indices 1 2 3 4 5 6 
#
# 1 0.007925 -0.001447 -0.003392 0.000000 0.000000 0.000000
# 2 -0.001447 0.009303 -0.002291 0.000000 0.000000 0.000000
# 3 -0.003392 -0.002291 0.014503 0.000000 0.000000 0.000000
# 4 0.000000 0.000000 0.000000 0.061372 0.000000 0.000000
# 5 0.000000 0.000000 0.000000 0.000000 0.037275 0.000000
# 6 0.000000 0.000000 0.000000 0.000000 0.000000 0.035713
#
#
# Mechanical properties :
#
#
# Convention : Reuss Voigt Hill
#
# Bulk Modulus (GPa) = 57.24022 61.22223 59.23123
# Shear Modulus (GPa) = 26.85635 30.97584 28.91609
#
# Velocity S-wave (km/s) = 3.40509 3.65694 3.53326
# Velocity P-wave (km/s) = 6.33813 6.65299 6.49747
#
# Compressibility (1/GPa) = 0.01747023
#
# Stress axis : x y z
#
# Youngs Moduli (GPa) = 126.18099 107.49591 68.95039
#
# Poissons Ratio (x) = 0.15553 0.23391
# Poissons Ratio (y) = 0.18256 0.15798
# Poissons Ratio (z) = 0.42805 0.24629
#
# Static dielectric constant tensor:
#      x y z
#    x 1.827620 0.000000 0.000000 
#    y 0.000000 1.911840 0.000000 
#    z 0.000000 0.000000 1.982980 
# 
# From -- ./inp_files/39614.got.cif
#   From: 2010.05.17/outbox.cif.g08.bks.cpg/sg68_20_cif.got.tgz:39614.got - 2010.06.03 18:57:09.
