data_PCOD9508165
_publ_section_title
;
Structure prediction by ZEFSAII (Michael W. Deem and Ramdas Pophale) SiO2 
 PCOD9508165
Probable space group: C C C A
;
_chemical_formula_sum "Si O2"
_cell_formula_units_Z 104
_cell_length_a 18.833577
_cell_length_b 10.073122
_cell_length_c 26.617485
_cell_angle_alpha 90.000000
_cell_angle_beta 90.000000
_cell_angle_gamma 90.000000
_cell_volume 5049.680771
_symmetry_space_group_name_H-M "C C C A"
_symmetry_group_IT_number 68
_space_group.IT_coordinate_system_code '2'
_symmetry_cell_setting 'orthorhombic'
loop_
_space_group_symop_operation_xyz
x,y,z
-x,1/2-y,z
x,1/2-y,1/2-z
-x,y,1/2-z
-x,-y,-z
x,1/2+y,-z
-x,1/2+y,1/2+z
x,-y,1/2+z
1/2+x,1/2+y,z
1/2-x,-y,z
1/2+x,-y,1/2-z
1/2-x,1/2+y,1/2-z
1/2-x,1/2-y,-z
1/2+x,y,-z
1/2-x,y,1/2+z
1/2+x,1/2-y,1/2+z
loop_
_atom_site_type_symbol
_atom_site_label
_atom_site_fract_x
_atom_site_fract_y
_atom_site_fract_z
Si Si1 0.648231 0.358113 0.497396
Si Si2 0.000000 0.750000 0.377545
Si Si3 0.827917 0.492129 0.841642
Si Si4 0.342083 0.767067 0.600762
Si Si5 0.250000 0.000000 0.576736
Si Si6 0.481319 0.006937 0.806890
Si Si7 0.500000 0.250000 0.864692
Si Si8 0.107040 0.606044 0.561694
O O1 0.689753 0.299236 0.449566
O O2 0.695700 0.428456 0.539012
O O3 0.618676 0.228519 0.524739
O O4 0.599125 0.472870 0.471907
O O5 0.927227 0.776914 0.408021
O O6 0.992563 0.619523 0.342908
O O7 0.750000 0.500000 0.818959
O O8 0.836815 0.337096 0.854669
O O9 0.896724 0.538954 0.811014
O O10 0.833438 0.568669 0.895894
O O11 0.298202 0.899816 0.608584
O O12 0.500000 0.975479 0.750000
O O13 0.526245 0.133421 0.827214
O O14 0.544867 0.342147 0.902448
#
# Coordination Sequence:
#
# PCOD9508165 Si02
#       8
#    16   8  16  16   8  16   8  16
#     4  11  22  36  52  81 118 170 211 250 296 342
#     4  10  23  43  62  92 120 160 202 255 315 390
#     4   9  19  38  62  88 122 160 198 248 312 367
#     4  10  22  36  58  86 124 165 210 254 303 358
#     4  12  22  34  54  86 116 170 216 260 290 354
#     4  10  21  41  70  91 116 156 196 250 320 392
#     4  10  23  39  58  90 120 152 202 251 315 368
#     4  10  22  35  55  83 119 166 206 249 294 355
#
# _framework density 20.595362000000002
#
# number of rings (size 3 to 8) (size 9 to 14) (size 15 to 20)
#    0.000    1.846    1.538    2.769    6.462    1.231 
#    0.000    0.000    1.692    5.538    0.000    0.000 
#    0.000    0.000    0.000    0.000    0.000    0.000 
#
# Total GULP energy -289515.936586 kJ/mol
# GULP energy per Si atom -5567.614165 kJ/mol
# Density = 2.054849 g / cm^3
# Si number density = 20.595362 Si / 1000 Ang^3
#
#
#
# Elastic Constant Matrix: (Units=GPa)
#
#
# Indices 1 2 3 4 5 6 
#
# 1 78.6196 24.7034 19.5290 0.0000 0.0000 0.0000
# 2 24.7034 128.7308 25.0409 0.0000 0.0000 0.0000
# 3 19.5290 25.0409 58.3797 0.0000 0.0000 0.0000
# 4 0.0000 0.0000 0.0000 15.3118 0.0000 0.0000
# 5 0.0000 0.0000 0.0000 0.0000 14.7010 0.0000
# 6 0.0000 0.0000 0.0000 0.0000 0.0000 29.7848
#
#
#
# Elastic Compliance Matrix: (Units=1/GPa)
#
#
# Indices 1 2 3 4 5 6 
#
# 1 0.014321 -0.001982 -0.003941 0.000000 0.000000 0.000000
# 2 -0.001982 0.008750 -0.003090 0.000000 0.000000 0.000000
# 3 -0.003941 -0.003090 0.019773 0.000000 0.000000 0.000000
# 4 0.000000 0.000000 0.000000 0.065309 0.000000 0.000000
# 5 0.000000 0.000000 0.000000 0.000000 0.068022 0.000000
# 6 0.000000 0.000000 0.000000 0.000000 0.000000 0.033574
#
#
# Mechanical properties :
#
#
# Convention : Reuss Voigt Hill
#
# Bulk Modulus (GPa) = 40.29217 44.91963 42.60590
# Shear Modulus (GPa) = 21.18225 25.05664 23.11945
#
# Velocity S-wave (km/s) = 3.21050 3.49179 3.35409
# Velocity P-wave (km/s) = 5.77488 6.17371 5.97762
#
# Compressibility (1/GPa) = 0.02481872
#
# Stress axis : x y z
#
# Youngs Moduli (GPa) = 69.82760 114.29209 50.57438
#
# Poissons Ratio (x) = 0.22649 0.19929
# Poissons Ratio (y) = 0.13837 0.15628
# Poissons Ratio (z) = 0.27516 0.35317
#
# Static dielectric constant tensor:
#      x y z
#    x 1.616300 0.000000 0.000000 
#    y 0.000000 1.787390 0.000000 
#    z 0.000000 0.000000 1.732900 
# 
# From -- ./inp_files/51879.got.cif
#   From: 2010.05.17/outbox.cif.g08.bks.cpg/sg68_26_cif.got.tgz:51879.got - 2010.06.03 18:57:09.
