data_PCOD9508191
_publ_section_title
;
Structure prediction by ZEFSAII (Michael W. Deem and Ramdas Pophale) SiO2 
 PCOD9508191
Probable space group: C C C A
;
_chemical_formula_sum "Si O2"
_cell_formula_units_Z 116
_cell_length_a 26.930968
_cell_length_b 9.269687
_cell_length_c 22.572539
_cell_angle_alpha 90.000000
_cell_angle_beta 90.000000
_cell_angle_gamma 90.000000
_cell_volume 5635.045744
_symmetry_space_group_name_H-M "C C C A"
_symmetry_group_IT_number 68
_space_group.IT_coordinate_system_code '2'
_symmetry_cell_setting 'orthorhombic'
loop_
_space_group_symop_operation_xyz
x,y,z
-x,1/2-y,z
x,1/2-y,1/2-z
-x,y,1/2-z
-x,-y,-z
x,1/2+y,-z
-x,1/2+y,1/2+z
x,-y,1/2+z
1/2+x,1/2+y,z
1/2-x,-y,z
1/2+x,-y,1/2-z
1/2-x,1/2+y,1/2-z
1/2-x,1/2-y,-z
1/2+x,y,-z
1/2-x,y,1/2+z
1/2+x,1/2-y,1/2+z
loop_
_atom_site_type_symbol
_atom_site_label
_atom_site_fract_x
_atom_site_fract_y
_atom_site_fract_z
Si Si1 0.457353 0.064169 0.855638
Si Si2 0.370598 0.236442 0.909533
Si Si3 0.305573 0.252313 0.026136
Si Si4 0.611592 0.693523 0.812962
Si Si5 0.370989 0.442592 0.406202
Si Si6 0.806779 0.524893 0.365045
Si Si7 0.477419 0.412203 0.445849
Si Si8 0.500000 0.750000 0.250000
O O1 0.424698 0.164125 0.900225
O O2 0.468728 0.150757 0.795514
O O3 0.425574 0.922311 0.840767
O O4 0.505979 0.002708 0.887814
O O5 0.370495 0.395808 0.882945
O O6 0.333836 0.125536 0.877473
O O7 0.346836 0.262740 0.974485
O O8 0.320681 0.106281 0.060944
O O9 0.310490 0.380889 0.074095
O O10 0.250000 0.250000 0.000000
O O11 0.595066 0.750000 0.750000
O O12 0.618157 0.829708 0.854881
O O13 0.664217 0.610995 0.814250
O O14 0.418105 0.420306 0.449432
O O15 0.750000 0.500000 0.351186
O O16 0.500000 0.250000 0.443862
O O17 0.500000 0.500000 0.500000
#
# Coordination Sequence:
#
# PCOD9508191 Si02
#       8
#    16  16  16  16  16  16  16   4
#     4  11  26  46  69 100 137 178 233 290 349 414
#     4  11  23  39  65  99 136 173 218 282 342 400
#     4  11  22  40  68 101 138 180 224 275 340 417
#     4  10  24  46  68  91 130 177 227 286 343 402
#     4  11  25  41  65  97 134 172 232 273 343 413
#     4  10  21  42  64  97 139 173 225 280 345 409
#     4  12  27  45  67  99 140 185 225 281 360 429
#     4  12  28  44  78 104 132 184 246 294 340 428
#
# _framework density 20.585457000000002
#
# number of rings (size 3 to 8) (size 9 to 14) (size 15 to 20)
#    0.000    1.103    2.759    2.483    8.690    0.000 
#    0.000    1.379    0.000    0.000    0.000    0.000 
#    0.000    0.000    0.000    0.000    0.000    0.000 
#
# Total GULP energy -324112.258981 kJ/mol
# GULP energy per Si atom -5588.142396 kJ/mol
# Density = 2.053860 g / cm^3
# Si number density = 20.585457 Si / 1000 Ang^3
#
#
#
# Elastic Constant Matrix: (Units=GPa)
#
#
# Indices 1 2 3 4 5 6 
#
# 1 95.5905 33.3755 6.3633 0.0000 0.0000 0.0000
# 2 33.3755 154.9728 15.2629 0.0000 0.0000 0.0000
# 3 6.3633 15.2629 53.8458 0.0000 0.0000 0.0000
# 4 0.0000 0.0000 0.0000 30.2431 0.0000 0.0000
# 5 0.0000 0.0000 0.0000 0.0000 18.4052 0.0000
# 6 0.0000 0.0000 0.0000 0.0000 0.0000 21.8274
#
#
#
# Elastic Compliance Matrix: (Units=1/GPa)
#
#
# Indices 1 2 3 4 5 6 
#
# 1 0.011335 -0.002376 -0.000666 0.000000 0.000000 0.000000
# 2 -0.002376 0.007136 -0.001742 0.000000 0.000000 0.000000
# 3 -0.000666 -0.001742 0.019144 0.000000 0.000000 0.000000
# 4 0.000000 0.000000 0.000000 0.033065 0.000000 0.000000
# 5 0.000000 0.000000 0.000000 0.000000 0.054332 0.000000
# 6 0.000000 0.000000 0.000000 0.000000 0.000000 0.045814
#
#
# Mechanical properties :
#
#
# Convention : Reuss Voigt Hill
#
# Bulk Modulus (GPa) = 35.65366 46.04584 40.84975
# Shear Modulus (GPa) = 26.35138 30.72231 28.53684
#
# Velocity S-wave (km/s) = 3.58173 3.86739 3.72729
# Velocity P-wave (km/s) = 5.87047 6.50837 6.19764
#
# Compressibility (1/GPa) = 0.02804761
#
# Stress axis : x y z
#
# Youngs Moduli (GPa) = 88.22178 140.13611 52.23556
#
# Poissons Ratio (x) = 0.33290 0.03480
# Poissons Ratio (y) = 0.20958 0.09099
# Poissons Ratio (z) = 0.05877 0.24411
#
# Static dielectric constant tensor:
#      x y z
#    x 1.748920 0.000000 0.000000 
#    y 0.000000 1.732150 0.000000 
#    z 0.000000 0.000000 1.712870 
# 
# From -- ./inp_files/47298.got.cif
#   From: 2010.05.17/outbox.cif.g08.bks.cpg/sg68_24_cif.got.tgz:47298.got - 2010.06.03 18:57:09.
