data_PCOD9508915
_publ_section_title
;
Structure prediction by ZEFSAII (Michael W. Deem and Ramdas Pophale) SiO2 
 PCOD9508915
Probable space group: C C C A
;
_chemical_formula_sum "Si O2"
_cell_formula_units_Z 88
_cell_length_a 8.449680
_cell_length_b 20.833763
_cell_length_c 22.525786
_cell_angle_alpha 90.000000
_cell_angle_beta 90.000000
_cell_angle_gamma 90.000000
_cell_volume 3965.408519
_symmetry_space_group_name_H-M "C C C A"
_symmetry_group_IT_number 68
_space_group.IT_coordinate_system_code '2'
_symmetry_cell_setting 'orthorhombic'
loop_
_space_group_symop_operation_xyz
x,y,z
-x,1/2-y,z
x,1/2-y,1/2-z
-x,y,1/2-z
-x,-y,-z
x,1/2+y,-z
-x,1/2+y,1/2+z
x,-y,1/2+z
1/2+x,1/2+y,z
1/2-x,-y,z
1/2+x,-y,1/2-z
1/2-x,1/2+y,1/2-z
1/2-x,1/2-y,-z
1/2+x,y,-z
1/2-x,y,1/2+z
1/2+x,1/2-y,1/2+z
loop_
_atom_site_type_symbol
_atom_site_label
_atom_site_fract_x
_atom_site_fract_y
_atom_site_fract_z
Si Si1 0.767865 0.923619 0.706513
Si Si2 0.250000 0.500000 0.418875
Si Si3 0.625706 0.894038 0.329682
Si Si4 0.695629 0.356656 0.409358
Si Si5 0.884725 0.381442 0.515229
Si Si6 0.169062 0.220678 0.083637
O O1 0.752170 0.900603 0.774560
O O2 0.668617 0.892244 0.653000
O O3 0.947195 0.904235 0.691117
O O4 0.750000 0.000000 0.705578
O O5 0.340637 0.549157 0.376107
O O6 0.154831 0.548115 0.460716
O O7 0.638521 0.825181 0.360545
O O8 0.852285 0.381854 0.444806
O O9 0.552105 0.367271 0.454763
O O10 0.725793 0.281729 0.399571
O O11 0.767917 0.325021 0.539394
O O12 0.000000 0.250000 0.061514
#
# Coordination Sequence:
#
# PCOD9508915 Si02
#       6
#    16   8  16  16  16  16
#     4  11  23  41  69 101 137 177 229 280 347 418
#     4  10  22  44  66 100 142 178 228 284 356 414
#     4  10  22  43  70 101 133 183 224 288 346 414
#     4  12  25  43  66 105 139 186 237 287 349 417
#     4  11  26  42  71  99 144 186 230 293 347 418
#     4  11  22  45  70  98 138 183 236 278 349 416
#
# _framework density 22.191914000000001
#
# number of rings (size 3 to 8) (size 9 to 14) (size 15 to 20)
#    0.000    1.091    2.727    3.273    3.818    1.455 
#    0.000    0.000    0.000    4.364    0.000    0.000 
#    0.000    0.000    0.000    0.000    0.000    0.000 
#
# Total GULP energy -245944.390168 kJ/mol
# GULP energy per Si atom -5589.645231 kJ/mol
# Density = 2.214140 g / cm^3
# Si number density = 22.191914 Si / 1000 Ang^3
#
#
#
# Elastic Constant Matrix: (Units=GPa)
#
#
# Indices 1 2 3 4 5 6 
#
# 1 63.5572 40.6931 24.2239 0.0000 0.0000 0.0000
# 2 40.6931 136.9255 57.1592 0.0000 0.0000 0.0000
# 3 24.2239 57.1592 117.0683 0.0000 0.0000 0.0000
# 4 0.0000 0.0000 0.0000 31.5127 0.0000 0.0000
# 5 0.0000 0.0000 0.0000 0.0000 20.3882 0.0000
# 6 0.0000 0.0000 0.0000 0.0000 0.0000 12.5522
#
#
#
# Elastic Compliance Matrix: (Units=1/GPa)
#
#
# Indices 1 2 3 4 5 6 
#
# 1 0.019646 -0.005202 -0.001525 0.000000 0.000000 0.000000
# 2 -0.005202 0.010550 -0.004075 0.000000 0.000000 0.000000
# 3 -0.001525 -0.004075 0.010847 0.000000 0.000000 0.000000
# 4 0.000000 0.000000 0.000000 0.031733 0.000000 0.000000
# 5 0.000000 0.000000 0.000000 0.000000 0.049048 0.000000
# 6 0.000000 0.000000 0.000000 0.000000 0.000000 0.079668
#
#
# Mechanical properties :
#
#
# Convention : Reuss Voigt Hill
#
# Bulk Modulus (GPa) = 51.44234 62.41147 56.92690
# Shear Modulus (GPa) = 21.77933 25.92227 23.85080
#
# Velocity S-wave (km/s) = 3.13614 3.42145 3.28190
# Velocity P-wave (km/s) = 6.02867 6.61763 6.33000
#
# Compressibility (1/GPa) = 0.01943924
#
# Stress axis : x y z
#
# Youngs Moduli (GPa) = 50.90172 94.78495 92.18975
#
# Poissons Ratio (x) = 0.49305 0.14062
# Poissons Ratio (y) = 0.26478 0.37566
# Poissons Ratio (z) = 0.07764 0.38623
#
# Static dielectric constant tensor:
#      x y z
#    x 1.892410 0.000000 0.000000 
#    y 0.000000 1.753860 0.000000 
#    z 0.000000 0.000000 1.885500 
# 
# From -- ./inp_files/43154.got.cif
#   From: 2010.05.17/outbox.cif.g08.bks.cpg/sg68_22_cif.got.tgz:43154.got - 2010.06.03 18:57:09.
