data_PCOD9508576
_publ_section_title
;
Structure prediction by ZEFSAII (Michael W. Deem and Ramdas Pophale) SiO2 
 PCOD9508576
Probable space group: C C C A
;
_chemical_formula_sum "Si O2"
_cell_formula_units_Z 88
_cell_length_a 11.444878
_cell_length_b 22.152094
_cell_length_c 18.111763
_cell_angle_alpha 90.000000
_cell_angle_beta 90.000000
_cell_angle_gamma 90.000000
_cell_volume 4591.839290
_symmetry_space_group_name_H-M "C C C A"
_symmetry_group_IT_number 68
_space_group.IT_coordinate_system_code '2'
_symmetry_cell_setting 'orthorhombic'
loop_
_space_group_symop_operation_xyz
x,y,z
-x,1/2-y,z
x,1/2-y,1/2-z
-x,y,1/2-z
-x,-y,-z
x,1/2+y,-z
-x,1/2+y,1/2+z
x,-y,1/2+z
1/2+x,1/2+y,z
1/2-x,-y,z
1/2+x,-y,1/2-z
1/2-x,1/2+y,1/2-z
1/2-x,1/2-y,-z
1/2+x,y,-z
1/2-x,y,1/2+z
1/2+x,1/2-y,1/2+z
loop_
_atom_site_type_symbol
_atom_site_label
_atom_site_fract_x
_atom_site_fract_y
_atom_site_fract_z
Si Si1 0.740023 0.927184 0.768899
Si Si2 0.132516 0.398184 0.121636
Si Si3 0.363933 0.095312 0.580235
Si Si4 0.000000 0.250000 0.640192
Si Si5 0.750000 0.000000 0.519285
Si Si6 0.500000 0.357755 0.250000
Si Si7 0.702795 0.693316 0.957770
O O1 0.830710 0.906471 0.706222
O O2 0.775993 0.903417 0.850039
O O3 0.613442 0.901192 0.742952
O O4 0.750000 0.000000 0.771882
O O5 0.186170 0.452418 0.072295
O O6 0.197131 0.339126 0.090085
O O7 0.994576 0.398864 0.110198
O O8 0.341720 0.146400 0.519183
O O9 0.340479 0.033811 0.534705
O O10 0.962724 0.308633 0.687817
O O11 0.101501 0.279876 0.592703
O O12 0.750000 0.750000 0.000000
#
# Coordination Sequence:
#
# PCOD9508576 Si02
#       7
#    16  16  16   8   8   8  16
#     4  12  25  42  65  98 138 182 225 280 342 411
#     4  11  23  41  63  96 133 172 224 273 344 398
#     4  11  24  41  65 100 136 175 223 277 343 409
#     4  11  22  46  72  94 133 176 240 286 325 416
#     4  10  22  40  62  96 132 182 220 270 328 412
#     4  11  26  44  70 100 130 185 240 280 338 413
#     4  11  23  43  68  97 129 173 222 282 343 398
#
# _framework density 19.164434
#
# number of rings (size 3 to 8) (size 9 to 14) (size 15 to 20)
#    0.000    0.909    3.636    3.273    2.545    1.455 
#    0.000    0.000    0.000    2.182    0.000    0.000 
#    0.000    0.000    0.000    0.000    0.000    0.000 
#
# Total GULP energy -245590.813418 kJ/mol
# GULP energy per Si atom -5581.609396 kJ/mol
# Density = 1.912081 g / cm^3
# Si number density = 19.164434 Si / 1000 Ang^3
#
#
#
# Elastic Constant Matrix: (Units=GPa)
#
#
# Indices 1 2 3 4 5 6 
#
# 1 67.0591 35.0083 -0.4754 0.0000 0.0000 0.0000
# 2 35.0083 121.4748 26.6787 0.0000 0.0000 0.0000
# 3 -0.4754 26.6787 80.8793 0.0000 0.0000 0.0000
# 4 0.0000 0.0000 0.0000 24.7693 0.0000 0.0000
# 5 0.0000 0.0000 0.0000 0.0000 31.4927 0.0000
# 6 0.0000 0.0000 0.0000 0.0000 0.0000 29.3430
#
#
#
# Elastic Compliance Matrix: (Units=1/GPa)
#
#
# Indices 1 2 3 4 5 6 
#
# 1 0.017831 -0.005565 0.001940 0.000000 0.000000 0.000000
# 2 -0.005565 0.010612 -0.003533 0.000000 0.000000 0.000000
# 3 0.001940 -0.003533 0.013541 0.000000 0.000000 0.000000
# 4 0.000000 0.000000 0.000000 0.040373 0.000000 0.000000
# 5 0.000000 0.000000 0.000000 0.000000 0.031753 0.000000
# 6 0.000000 0.000000 0.000000 0.000000 0.000000 0.034080
#
#
# Mechanical properties :
#
#
# Convention : Reuss Voigt Hill
#
# Bulk Modulus (GPa) = 36.14193 43.53739 39.83966
# Shear Modulus (GPa) = 29.11581 31.00110 30.05846
#
# Velocity S-wave (km/s) = 3.90200 4.02635 3.96466
# Velocity P-wave (km/s) = 6.26104 6.66201 6.46464
#
# Compressibility (1/GPa) = 0.02766870
#
# Stress axis : x y z
#
# Youngs Moduli (GPa) = 56.08147 94.23356 73.85005
#
# Poissons Ratio (x) = 0.52441 -0.14330
# Poissons Ratio (y) = 0.31209 0.26092
# Poissons Ratio (z) = -0.10882 0.33294
#
# Static dielectric constant tensor:
#      x y z
#    x 1.614060 0.000000 0.000000 
#    y 0.000000 1.644290 0.000000 
#    z 0.000000 0.000000 1.644220 
# 
# From -- ./inp_files/21006.got.cif
#   From: 2010.05.17/outbox.cif.g08.bks.cpg/sg68_11_cif.got.tgz:21006.got - 2010.06.03 18:57:09.
