data_PCOD9508510
_publ_section_title
;
Structure prediction by ZEFSAII (Michael W. Deem and Ramdas Pophale) SiO2 
 PCOD9508510
Probable space group: C C C A
;
_chemical_formula_sum "Si O2"
_cell_formula_units_Z 84
_cell_length_a 20.948934
_cell_length_b 20.126563
_cell_length_c 9.780607
_cell_angle_alpha 90.000000
_cell_angle_beta 90.000000
_cell_angle_gamma 90.000000
_cell_volume 4123.797720
_symmetry_space_group_name_H-M "C C C A"
_symmetry_group_IT_number 68
_space_group.IT_coordinate_system_code '2'
_symmetry_cell_setting 'orthorhombic'
loop_
_space_group_symop_operation_xyz
x,y,z
-x,1/2-y,z
x,1/2-y,1/2-z
-x,y,1/2-z
-x,-y,-z
x,1/2+y,-z
-x,1/2+y,1/2+z
x,-y,1/2+z
1/2+x,1/2+y,z
1/2-x,-y,z
1/2+x,-y,1/2-z
1/2-x,1/2+y,1/2-z
1/2-x,1/2-y,-z
1/2+x,y,-z
1/2-x,y,1/2+z
1/2+x,1/2-y,1/2+z
loop_
_atom_site_type_symbol
_atom_site_label
_atom_site_fract_x
_atom_site_fract_y
_atom_site_fract_z
Si Si1 0.231060 0.327761 0.769300
Si Si2 0.668035 0.653941 0.009653
Si Si3 0.427906 0.927094 0.407134
Si Si4 0.109184 0.299148 0.948544
Si Si5 0.500000 0.250000 0.250000
Si Si6 0.920878 0.543232 0.602903
O O1 0.245996 0.250000 0.750000
O O2 0.289399 0.355107 0.855518
O O3 0.214328 0.354642 0.620406
O O4 0.166688 0.329268 0.859067
O O5 0.614078 0.599002 0.014585
O O6 0.635406 0.727141 0.997921
O O7 0.409402 0.850836 0.433713
O O8 0.504151 0.938640 0.402884
O O9 0.402244 0.952532 0.261897
O O10 0.406714 0.972627 0.534108
O O11 0.048023 0.289799 0.849568
#
# Coordination Sequence:
#
# PCOD9508510 Si02
#       6
#    16  16  16  16   4  16
#     4  10  22  39  63  93 126 173 211 264 329 378
#     4  11  23  42  67  96 128 171 225 268 325 391
#     4  10  24  42  66  96 130 170 208 272 335 403
#     4  11  22  37  66  97 132 166 218 272 331 386
#     4  12  20  36  64 110 132 168 224 278 328 408
#     4  10  24  43  66  93 130 172 214 265 340 393
#
# _framework density 20.369574
#
# number of rings (size 3 to 8) (size 9 to 14) (size 15 to 20)
#    0.000    1.524    2.857    3.429    8.000    1.524 
#    0.000    2.857    0.000    0.000    0.000    0.000 
#    0.000    0.000    0.000    0.000    0.000    0.000 
#
# Total GULP energy -234550.064340 kJ/mol
# GULP energy per Si atom -5584.525341 kJ/mol
# Density = 2.032321 g / cm^3
# Si number density = 20.369574 Si / 1000 Ang^3
#
#
#
# Elastic Constant Matrix: (Units=GPa)
#
#
# Indices 1 2 3 4 5 6 
#
# 1 56.4255 26.7369 26.6749 0.0000 0.0000 0.0000
# 2 26.7369 54.8554 20.5424 0.0000 0.0000 0.0000
# 3 26.6749 20.5424 84.5675 0.0000 0.0000 0.0000
# 4 0.0000 0.0000 0.0000 28.4181 0.0000 0.0000
# 5 0.0000 0.0000 0.0000 0.0000 19.4137 0.0000
# 6 0.0000 0.0000 0.0000 0.0000 0.0000 -2.9101
#
#
#
# Elastic Compliance Matrix: (Units=1/GPa)
#
#
# Indices 1 2 3 4 5 6 
#
# 1 0.025137 -0.010212 -0.005448 0.000000 0.000000 0.000000
# 2 -0.010212 0.024202 -0.002658 0.000000 0.000000 0.000000
# 3 -0.005448 -0.002658 0.014189 0.000000 0.000000 0.000000
# 4 0.000000 0.000000 0.000000 0.035189 0.000000 0.000000
# 5 0.000000 0.000000 0.000000 0.000000 0.051510 0.000000
# 6 0.000000 0.000000 0.000000 0.000000 0.000000 -0.343630
#
#
# Mechanical properties :
#
#
# Convention : Reuss Voigt Hill
#
# Bulk Modulus (GPa) = 37.18520 38.19520 37.69020
# Shear Modulus (GPa) = -33.82875 17.11062 -8.35907
#
# Velocity S-wave (km/s) = -4.07965 2.90143 -2.02796
# Velocity P-wave (km/s) = 1.97395 5.47871 3.61384
#
# Compressibility (1/GPa) = 0.02689242
#
# Stress axis : x y z
#
# Youngs Moduli (GPa) = 39.78220 41.31835 70.47668
#
# Poissons Ratio (x) = 0.42193 0.38398
# Poissons Ratio (y) = 0.40624 0.18733
# Poissons Ratio (z) = 0.21675 0.10983
#
# Static dielectric constant tensor:
#      x y z
#    x 1.712490 0.000000 0.000000 
#    y 0.000000 1.693110 0.000000 
#    z 0.000000 0.000000 1.744090 
# 
# From -- ./inp_files/7960.got.cif
#   From: 2010.05.17/outbox.cif.g08.bks.cpg/sg68_4_cif.got.tgz:7960.got - 2010.06.03 18:57:09.
