data_PCOD9508598
_publ_section_title
;
Structure prediction by ZEFSAII (Michael W. Deem and Ramdas Pophale) SiO2 
 PCOD9508598
Probable space group: C C C A
;
_chemical_formula_sum "Si O2"
_cell_formula_units_Z 72
_cell_length_a 20.666961
_cell_length_b 8.884162
_cell_length_c 15.923174
_cell_angle_alpha 90.000000
_cell_angle_beta 90.000000
_cell_angle_gamma 90.000000
_cell_volume 2923.632157
_symmetry_space_group_name_H-M "C C C A"
_symmetry_group_IT_number 68
_space_group.IT_coordinate_system_code '2'
_symmetry_cell_setting 'orthorhombic'
loop_
_space_group_symop_operation_xyz
x,y,z
-x,1/2-y,z
x,1/2-y,1/2-z
-x,y,1/2-z
-x,-y,-z
x,1/2+y,-z
-x,1/2+y,1/2+z
x,-y,1/2+z
1/2+x,1/2+y,z
1/2-x,-y,z
1/2+x,-y,1/2-z
1/2-x,1/2+y,1/2-z
1/2-x,1/2-y,-z
1/2+x,y,-z
1/2-x,y,1/2+z
1/2+x,1/2-y,1/2+z
loop_
_atom_site_type_symbol
_atom_site_label
_atom_site_fract_x
_atom_site_fract_y
_atom_site_fract_z
Si Si1 0.597831 0.503963 0.444633
Si Si2 0.720717 0.844279 0.627171
Si Si3 0.649779 0.757419 0.345578
Si Si4 0.380163 0.901160 0.630696
Si Si5 0.000000 0.750000 0.387816
O O1 0.665051 0.413023 0.431951
O O2 0.598681 0.628668 0.370444
O O3 0.605499 0.596171 0.530280
O O4 0.539335 0.383976 0.437497
O O5 0.787346 0.770463 0.596428
O O6 0.680466 0.698939 0.660264
O O7 0.750000 0.000000 0.669650
O O8 0.673635 0.750000 0.250000
O O9 0.625091 0.924437 0.352268
O O10 0.444944 0.829946 0.665857
#
# Coordination Sequence:
#
# PCOD9508598 Si02
#       5
#    16  16  16  16   8
#     4  10  22  40  64  94 127 169 219 270 324 392
#     4   9  21  37  58  89 126 164 208 257 317 386
#     4  11  24  41  64  96 131 168 214 270 333 396
#     4  11  22  39  66  94 127 171 217 270 325 387
#     4  10  22  42  63  88 123 172 222 268 324 388
#
# _framework density 24.626902000000001
#
# number of rings (size 3 to 8) (size 9 to 14) (size 15 to 20)
#    0.000    1.778    0.000    4.000    0.000   16.000 
#    0.000    8.889    0.000    0.000    0.000    0.000 
#    0.000    0.000    0.000    0.000    0.000    0.000 
#
# Total GULP energy -200555.630275 kJ/mol
# GULP energy per Si atom -5570.989730 kJ/mol
# Density = 2.457085 g / cm^3
# Si number density = 24.626902 Si / 1000 Ang^3
#
#
#
# Elastic Constant Matrix: (Units=GPa)
#
#
# Indices 1 2 3 4 5 6 
#
# 1 111.9708 83.2904 30.3647 0.0000 0.0000 0.0000
# 2 83.2904 220.5218 38.0569 0.0000 0.0000 0.0000
# 3 30.3647 38.0569 59.3146 0.0000 0.0000 0.0000
# 4 0.0000 0.0000 0.0000 21.9437 0.0000 0.0000
# 5 0.0000 0.0000 0.0000 0.0000 1.9194 0.0000
# 6 0.0000 0.0000 0.0000 0.0000 0.0000 45.0394
#
#
#
# Elastic Compliance Matrix: (Units=1/GPa)
#
#
# Indices 1 2 3 4 5 6 
#
# 1 0.013216 -0.004300 -0.004007 0.000000 0.000000 0.000000
# 2 -0.004300 0.006499 -0.001968 0.000000 0.000000 0.000000
# 3 -0.004007 -0.001968 0.020173 0.000000 0.000000 0.000000
# 4 0.000000 0.000000 0.000000 0.045571 0.000000 0.000000
# 5 0.000000 0.000000 0.000000 0.000000 0.520992 0.000000
# 6 0.000000 0.000000 0.000000 0.000000 0.000000 0.022203
#
#
# Mechanical properties :
#
#
# Convention : Reuss Voigt Hill
#
# Bulk Modulus (GPa) = 51.71208 77.24791 64.48000
# Shear Modulus (GPa) = 7.62603 29.78685 18.70644
#
# Velocity S-wave (km/s) = 1.76163 3.48160 2.75906
# Velocity P-wave (km/s) = 5.01813 6.89909 6.03237
#
# Compressibility (1/GPa) = 0.01933784
#
# Stress axis : x y z
#
# Youngs Moduli (GPa) = 75.66456 153.88043 49.57096
#
# Poissons Ratio (x) = 0.66173 0.19861
# Poissons Ratio (y) = 0.32538 0.09756
# Poissons Ratio (z) = 0.30316 0.30285
#
# Static dielectric constant tensor:
#      x y z
#    x 1.969470 0.000000 0.000000 
#    y 0.000000 2.024630 0.000000 
#    z 0.000000 0.000000 2.028060 
# 
# From -- ./inp_files/40104.got.cif
#   From: 2010.05.17/outbox.cif.g08.bks.cpg/sg68_21_cif.got.tgz:40104.got - 2010.06.03 18:57:09.
