data_PCOD9508895
_publ_section_title
;
Structure prediction by ZEFSAII (Michael W. Deem and Ramdas Pophale) SiO2 
 PCOD9508895
Probable space group: C C C A
;
_chemical_formula_sum "Si O2"
_cell_formula_units_Z 64
_cell_length_a 23.280074
_cell_length_b 8.326535
_cell_length_c 13.930446
_cell_angle_alpha 90.000000
_cell_angle_beta 90.000000
_cell_angle_gamma 90.000000
_cell_volume 2700.310403
_symmetry_space_group_name_H-M "C C C A"
_symmetry_group_IT_number 68
_space_group.IT_coordinate_system_code '2'
_symmetry_cell_setting 'orthorhombic'
loop_
_space_group_symop_operation_xyz
x,y,z
-x,1/2-y,z
x,1/2-y,1/2-z
-x,y,1/2-z
-x,-y,-z
x,1/2+y,-z
-x,1/2+y,1/2+z
x,-y,1/2+z
1/2+x,1/2+y,z
1/2-x,-y,z
1/2+x,-y,1/2-z
1/2-x,1/2+y,1/2-z
1/2-x,1/2-y,-z
1/2+x,y,-z
1/2-x,y,1/2+z
1/2+x,1/2-y,1/2+z
loop_
_atom_site_type_symbol
_atom_site_label
_atom_site_fract_x
_atom_site_fract_y
_atom_site_fract_z
Si Si1 0.627713 0.583663 0.870288
Si Si2 0.005436 0.068301 0.366509
Si Si3 0.206354 0.387139 0.469044
Si Si4 0.618004 0.956454 0.856515
O O1 0.564658 0.516129 0.895914
O O2 0.634043 0.775518 0.887583
O O3 0.630143 0.544761 0.757454
O O4 0.679490 0.523115 0.936878
O O5 0.000000 0.250000 0.403152
O O6 0.000000 0.076939 0.250000
O O7 0.948198 0.969818 0.387081
O O8 0.250000 0.500000 0.410827
O O9 0.250000 0.250000 0.500000
O O10 0.150360 0.389816 0.401995
#
# Coordination Sequence:
#
# PCOD9508895 Si02
#       4
#    16  16  16  16
#     4  10  22  43  68  95 130 174 220 272 338 396
#     4   9  19  36  65 102 130 160 214 278 338 401
#     4  12  26  45  64  95 137 175 228 276 318 397
#     4  10  22  43  68  95 130 176 219 272 337 395
#
# _framework density 23.700980999999999
#
# number of rings (size 3 to 8) (size 9 to 14) (size 15 to 20)
#    0.000    1.750    2.500    0.750    3.500    5.000 
#    0.000    0.000    0.000    0.000    0.000    0.000 
#    0.000    0.000    0.000    0.000    0.000    0.000 
#
# Total GULP energy -178241.026979 kJ/mol
# GULP energy per Si atom -5570.032093 kJ/mol
# Density = 2.364704 g / cm^3
# Si number density = 23.700981 Si / 1000 Ang^3
#
#
#
# Elastic Constant Matrix: (Units=GPa)
#
#
# Indices 1 2 3 4 5 6 
#
# 1 170.5604 45.2376 33.6364 0.0000 0.0000 0.0000
# 2 45.2376 65.7999 35.8018 0.0000 0.0000 0.0000
# 3 33.6364 35.8018 91.3233 0.0000 0.0000 0.0000
# 4 0.0000 0.0000 0.0000 22.7690 0.0000 0.0000
# 5 0.0000 0.0000 0.0000 0.0000 30.7794 0.0000
# 6 0.0000 0.0000 0.0000 0.0000 0.0000 48.1562
#
#
#
# Elastic Compliance Matrix: (Units=1/GPa)
#
#
# Indices 1 2 3 4 5 6 
#
# 1 0.007229 -0.004476 -0.000908 0.000000 0.000000 0.000000
# 2 -0.004476 0.022090 -0.007011 0.000000 0.000000 0.000000
# 3 -0.000908 -0.007011 0.014033 0.000000 0.000000 0.000000
# 4 0.000000 0.000000 0.000000 0.043919 0.000000 0.000000
# 5 0.000000 0.000000 0.000000 0.000000 0.032489 0.000000
# 6 0.000000 0.000000 0.000000 0.000000 0.000000 0.020766
#
#
# Mechanical properties :
#
#
# Convention : Reuss Voigt Hill
#
# Bulk Modulus (GPa) = 53.87472 61.89279 57.88376
# Shear Modulus (GPa) = 29.15376 34.54144 31.84760
#
# Velocity S-wave (km/s) = 3.51103 3.82171 3.66966
# Velocity P-wave (km/s) = 6.26233 6.75609 6.51389
#
# Compressibility (1/GPa) = 0.01856158
#
# Stress axis : x y z
#
# Youngs Moduli (GPa) = 138.32630 45.26981 71.25976
#
# Poissons Ratio (x) = 0.20263 0.06470
# Poissons Ratio (y) = 0.61917 0.49962
# Poissons Ratio (z) = 0.12559 0.31740
#
# Static dielectric constant tensor:
#      x y z
#    x 1.901790 0.000000 0.000000 
#    y 0.000000 2.081580 0.000000 
#    z 0.000000 0.000000 1.938420 
# 
# From -- ./inp_files/19220.got.cif
#   From: 2010.05.17/outbox.cif.g08.bks.cpg/sg68_10_cif.got.tgz:19220.got - 2010.06.03 18:57:09.
