data_PCOD9508197
_publ_section_title
;
Structure prediction by ZEFSAII (Michael W. Deem and Ramdas Pophale) SiO2 
 PCOD9508197
Probable space group: C C C A
;
_chemical_formula_sum "Si O2"
_cell_formula_units_Z 72
_cell_length_a 8.500379
_cell_length_b 15.437599
_cell_length_c 25.169983
_cell_angle_alpha 90.000000
_cell_angle_beta 90.000000
_cell_angle_gamma 90.000000
_cell_volume 3302.942153
_symmetry_space_group_name_H-M "C C C A"
_symmetry_group_IT_number 68
_space_group.IT_coordinate_system_code '2'
_symmetry_cell_setting 'orthorhombic'
loop_
_space_group_symop_operation_xyz
x,y,z
-x,1/2-y,z
x,1/2-y,1/2-z
-x,y,1/2-z
-x,-y,-z
x,1/2+y,-z
-x,1/2+y,1/2+z
x,-y,1/2+z
1/2+x,1/2+y,z
1/2-x,-y,z
1/2+x,-y,1/2-z
1/2-x,1/2+y,1/2-z
1/2-x,1/2-y,-z
1/2+x,y,-z
1/2-x,y,1/2+z
1/2+x,1/2-y,1/2+z
loop_
_atom_site_type_symbol
_atom_site_label
_atom_site_fract_x
_atom_site_fract_y
_atom_site_fract_z
Si Si1 0.751835 0.150513 0.980409
Si Si2 0.397891 0.435819 0.382216
Si Si3 0.844269 0.293617 0.691950
Si Si4 0.433152 0.589070 0.074482
Si Si5 0.000000 0.250000 0.147915
O O1 0.866899 0.133324 0.929827
O O2 0.585876 0.115444 0.960398
O O3 0.750000 0.250000 0.000000
O O4 0.798582 0.095400 0.031415
O O5 0.250000 0.500000 0.385493
O O6 0.387324 0.391823 0.324522
O O7 0.542591 0.498213 0.395991
O O8 0.844269 0.250000 0.750000
O O9 0.661321 0.282952 0.675166
O O10 0.000000 0.250000 0.664986
O O11 0.431698 0.668723 0.115238
#
# Coordination Sequence:
#
# PCOD9508197 Si02
#       5
#    16  16  16  16   8
#     4  11  19  35  58  95 135 187 237 269 331 430
#     4  10  21  42  66  93 148 181 228 306 346 418
#     4  11  25  47  74 102 131 179 244 304 370 433
#     4  11  22  38  64  98 148 194 236 279 357 420
#     4  12  21  46  72 104 140 188 229 296 366 430
#
# _framework density 21.798746000000001
#
# number of rings (size 3 to 8) (size 9 to 14) (size 15 to 20)
#    0.000    1.111    6.667    1.000    0.000    3.556 
#    0.000    7.778    0.000    0.000    0.000    0.000 
#    0.000    0.000    0.000    0.000    0.000    0.000 
#
# Total GULP energy -200489.543165 kJ/mol
# GULP energy per Si atom -5569.153977 kJ/mol
# Density = 2.174913 g / cm^3
# Si number density = 21.798746 Si / 1000 Ang^3
#
#
#
# Elastic Constant Matrix: (Units=GPa)
#
#
# Indices 1 2 3 4 5 6 
#
# 1 21.6685 0.1391 -10.1035 0.0000 0.0000 0.0000
# 2 0.1391 132.2038 57.9730 0.0000 0.0000 0.0000
# 3 -10.1035 57.9730 87.7549 0.0000 0.0000 0.0000
# 4 0.0000 0.0000 0.0000 42.3983 0.0000 0.0000
# 5 0.0000 0.0000 0.0000 0.0000 7.6243 0.0000
# 6 0.0000 0.0000 0.0000 0.0000 0.0000 21.8766
#
#
#
# Elastic Compliance Matrix: (Units=1/GPa)
#
#
# Indices 1 2 3 4 5 6 
#
# 1 0.049973 -0.003626 0.008149 0.000000 0.000000 0.000000
# 2 -0.003626 0.010912 -0.007626 0.000000 0.000000 0.000000
# 3 0.008149 -0.007626 0.017372 0.000000 0.000000 0.000000
# 4 0.000000 0.000000 0.000000 0.023586 0.000000 0.000000
# 5 0.000000 0.000000 0.000000 0.000000 0.131160 0.000000
# 6 0.000000 0.000000 0.000000 0.000000 0.000000 0.045711
#
#
# Mechanical properties :
#
#
# Convention : Reuss Voigt Hill
#
# Bulk Modulus (GPa) = 13.87926 37.51606 25.69766
# Shear Modulus (GPa) = 16.18456 27.28775 21.73615
#
# Velocity S-wave (km/s) = 2.72776 3.54192 3.16116
# Velocity P-wave (km/s) = 4.03754 5.82877 5.01379
#
# Compressibility (1/GPa) = 0.07204993
#
# Stress axis : x y z
#
# Youngs Moduli (GPa) = 20.01089 91.64134 57.56495
#
# Poissons Ratio (x) = 0.33229 -0.46909
# Poissons Ratio (y) = 0.07256 0.43901
# Poissons Ratio (z) = -0.16307 0.69888
#
# Static dielectric constant tensor:
#      x y z
#    x 1.872940 0.000000 0.000000 
#    y 0.000000 1.854410 0.000000 
#    z 0.000000 0.000000 1.807950 
# 
# From -- ./inp_files/45903.got.cif
#   From: 2010.05.17/outbox.cif.g08.bks.cpg/sg68_23_cif.got.tgz:45903.got - 2010.06.03 18:57:09.
