data_PCOD9508403
_publ_section_title
;
Structure prediction by ZEFSAII (Michael W. Deem and Ramdas Pophale) SiO2 
 PCOD9508403
Probable space group: C C C A
;
_chemical_formula_sum "Si O2"
_cell_formula_units_Z 80
_cell_length_a 31.090370
_cell_length_b 7.644654
_cell_length_c 13.340815
_cell_angle_alpha 90.000000
_cell_angle_beta 90.000000
_cell_angle_gamma 90.000000
_cell_volume 3170.779824
_symmetry_space_group_name_H-M "C C C A"
_symmetry_group_IT_number 68
_space_group.IT_coordinate_system_code '2'
_symmetry_cell_setting 'orthorhombic'
loop_
_space_group_symop_operation_xyz
x,y,z
-x,1/2-y,z
x,1/2-y,1/2-z
-x,y,1/2-z
-x,-y,-z
x,1/2+y,-z
-x,1/2+y,1/2+z
x,-y,1/2+z
1/2+x,1/2+y,z
1/2-x,-y,z
1/2+x,-y,1/2-z
1/2-x,1/2+y,1/2-z
1/2-x,1/2-y,-z
1/2+x,y,-z
1/2-x,y,1/2+z
1/2+x,1/2-y,1/2+z
loop_
_atom_site_type_symbol
_atom_site_label
_atom_site_fract_x
_atom_site_fract_y
_atom_site_fract_z
Si Si1 0.549911 0.396691 0.404016
Si Si2 0.640999 0.311562 0.448749
Si Si3 0.701330 0.939484 0.698242
Si Si4 0.964113 0.486718 0.136058
Si Si5 0.630108 0.564800 0.158462
O O1 0.600820 0.420096 0.402090
O O2 0.516069 0.522591 0.346569
O O3 0.542270 0.197434 0.369408
O O4 0.540023 0.411151 0.522742
O O5 0.684277 0.404445 0.413374
O O6 0.635481 0.121859 0.399297
O O7 0.637929 0.302332 0.567694
O O8 0.699151 0.750000 0.750000
O O9 0.666545 0.057471 0.757393
O O10 0.750000 0.000000 0.702839
O O11 0.920213 0.423124 0.188875
#
# Coordination Sequence:
#
# PCOD9508403 Si02
#       5
#    16  16  16  16  16
#     4   8  13  23  42  68  96 125 155 187 227 277
#     4   9  18  33  52  74 100 129 161 198 240 287
#     4  10  22  38  53  71  97 127 162 206 251 292
#     4   8  13  23  42  68  96 125 155 187 227 277
#     4   9  18  33  52  74 100 129 161 198 240 287
#
# _framework density 25.230387
#
# number of rings (size 3 to 8) (size 9 to 14) (size 15 to 20)
#    0.000    3.200    0.000    0.000    0.000    2.400 
#    0.000    5.000    0.000    6.000    0.000    0.000 
#    0.000   33.600    0.000    0.000    0.000    0.000 
#
# Total GULP energy -223362.099891 kJ/mol
# GULP energy per Si atom -5584.052497 kJ/mol
# Density = 2.517296 g / cm^3
# Si number density = 25.230387 Si / 1000 Ang^3
#
#
#
# Elastic Constant Matrix: (Units=GPa)
#
#
# Indices 1 2 3 4 5 6 
#
# 1 162.6438 39.9752 36.6046 0.0000 0.0000 0.0000
# 2 39.9752 79.2650 35.7587 0.0000 0.0000 0.0000
# 3 36.6046 35.7587 60.0196 0.0000 0.0000 0.0000
# 4 0.0000 0.0000 0.0000 22.0773 0.0000 0.0000
# 5 0.0000 0.0000 0.0000 0.0000 36.0069 0.0000
# 6 0.0000 0.0000 0.0000 0.0000 0.0000 22.5898
#
#
#
# Elastic Compliance Matrix: (Units=1/GPa)
#
#
# Indices 1 2 3 4 5 6 
#
# 1 0.007428 -0.002328 -0.003143 0.000000 0.000000 0.000000
# 2 -0.002328 0.017983 -0.009294 0.000000 0.000000 0.000000
# 3 -0.003143 -0.009294 0.024115 0.000000 0.000000 0.000000
# 4 0.000000 0.000000 0.000000 0.045295 0.000000 0.000000
# 5 0.000000 0.000000 0.000000 0.000000 0.027772 0.000000
# 6 0.000000 0.000000 0.000000 0.000000 0.000000 0.044268
#
#
# Mechanical properties :
#
#
# Convention : Reuss Voigt Hill
#
# Bulk Modulus (GPa) = 50.01078 58.51170 54.26124
# Shear Modulus (GPa) = 24.62354 28.77411 26.69883
#
# Velocity S-wave (km/s) = 3.12741 3.38073 3.25653
# Velocity P-wave (km/s) = 5.73634 6.20326 5.97436
#
# Compressibility (1/GPa) = 0.01999569
#
# Stress axis : x y z
#
# Youngs Moduli (GPa) = 134.62539 55.60847 41.46737
#
# Poissons Ratio (x) = 0.12947 0.13034
# Poissons Ratio (y) = 0.31343 0.38540
# Poissons Ratio (z) = 0.42314 0.51683
#
# Static dielectric constant tensor:
#      x y z
#    x 1.969420 0.000000 0.000000 
#    y 0.000000 2.069050 0.000000 
#    z 0.000000 0.000000 2.044840 
# 
# From -- ./inp_files/6368.got.cif
#   From: 2010.05.17/outbox.cif.g08.bks.cpg/sg68_4_cif.got.tgz:6368.got - 2010.06.03 18:57:09.
