data_PCOD9508833
_publ_section_title
;
Structure prediction by ZEFSAII (Michael W. Deem and Ramdas Pophale) SiO2 
 PCOD9508833
Probable space group: C C C A
;
_chemical_formula_sum "Si O2"
_cell_formula_units_Z 64
_cell_length_a 13.736203
_cell_length_b 10.224534
_cell_length_c 20.156915
_cell_angle_alpha 90.000000
_cell_angle_beta 90.000000
_cell_angle_gamma 90.000000
_cell_volume 2830.963619
_symmetry_space_group_name_H-M "C C C A"
_symmetry_group_IT_number 68
_space_group.IT_coordinate_system_code '2'
_symmetry_cell_setting 'orthorhombic'
loop_
_space_group_symop_operation_xyz
x,y,z
-x,1/2-y,z
x,1/2-y,1/2-z
-x,y,1/2-z
-x,-y,-z
x,1/2+y,-z
-x,1/2+y,1/2+z
x,-y,1/2+z
1/2+x,1/2+y,z
1/2-x,-y,z
1/2+x,-y,1/2-z
1/2-x,1/2+y,1/2-z
1/2-x,1/2-y,-z
1/2+x,y,-z
1/2-x,y,1/2+z
1/2+x,1/2-y,1/2+z
loop_
_atom_site_type_symbol
_atom_site_label
_atom_site_fract_x
_atom_site_fract_y
_atom_site_fract_z
Si Si1 0.678244 0.124787 0.931061
Si Si2 0.329917 0.888026 0.775149
Si Si3 0.181297 0.374174 0.578830
Si Si4 0.000000 0.250000 0.350781
Si Si5 0.000000 0.037006 0.250000
O O1 0.752381 0.245858 0.925823
O O2 0.585769 0.172576 0.888242
O O3 0.750000 0.000000 0.916582
O O4 0.634988 0.111516 0.006069
O O5 0.290949 0.750000 0.750000
O O6 0.371537 0.870078 0.850145
O O7 0.250000 0.000000 0.775002
O O8 0.414452 0.941637 0.727809
O O9 0.250000 0.500000 0.583095
O O10 0.956382 0.364312 0.304391
#
# Coordination Sequence:
#
# PCOD9508833 Si02
#       5
#    16  16  16   8   8
#     4  10  22  42  69  99 131 179 229 287 347 417
#     4  11  25  43  70  98 135 185 228 280 352 410
#     4   9  20  42  65  95 137 173 226 284 345 412
#     4  11  24  42  68 100 133 178 234 282 349 408
#     4  11  27  44  62 100 146 172 232 294 324 426
#
# _framework density 22.607143000000001
#
# number of rings (size 3 to 8) (size 9 to 14) (size 15 to 20)
#    0.000    1.750    0.000    3.375   10.500    0.000 
#    4.500   12.500    0.000    0.000    0.000    0.000 
#    0.000    0.000    0.000    0.000    0.000    0.000 
#
# Total GULP energy -178297.303324 kJ/mol
# GULP energy per Si atom -5571.790729 kJ/mol
# Density = 2.255569 g / cm^3
# Si number density = 22.607143 Si / 1000 Ang^3
#
#
#
# Elastic Constant Matrix: (Units=GPa)
#
#
# Indices 1 2 3 4 5 6 
#
# 1 78.1052 44.6175 28.2898 0.0000 0.0000 0.0000
# 2 44.6175 191.0365 45.6121 0.0000 0.0000 0.0000
# 3 28.2898 45.6121 92.1843 0.0000 0.0000 0.0000
# 4 0.0000 0.0000 0.0000 24.0148 0.0000 0.0000
# 5 0.0000 0.0000 0.0000 0.0000 31.3418 0.0000
# 6 0.0000 0.0000 0.0000 0.0000 0.0000 28.3655
#
#
#
# Elastic Compliance Matrix: (Units=1/GPa)
#
#
# Indices 1 2 3 4 5 6 
#
# 1 0.015660 -0.002846 -0.003397 0.000000 0.000000 0.000000
# 2 -0.002846 0.006453 -0.002320 0.000000 0.000000 0.000000
# 3 -0.003397 -0.002320 0.013038 0.000000 0.000000 0.000000
# 4 0.000000 0.000000 0.000000 0.041641 0.000000 0.000000
# 5 0.000000 0.000000 0.000000 0.000000 0.031906 0.000000
# 6 0.000000 0.000000 0.000000 0.000000 0.000000 0.035254
#
#
# Mechanical properties :
#
#
# Convention : Reuss Voigt Hill
#
# Bulk Modulus (GPa) = 55.47952 66.48498 60.98225
# Shear Modulus (GPa) = 29.92455 32.93152 31.42804
#
# Velocity S-wave (km/s) = 3.64218 3.82080 3.73256
# Velocity P-wave (km/s) = 6.50241 6.99552 6.75347
#
# Compressibility (1/GPa) = 0.01802467
#
# Stress axis : x y z
#
# Youngs Moduli (GPa) = 63.85827 154.96282 76.69822
#
# Poissons Ratio (x) = 0.44106 0.26057
# Poissons Ratio (y) = 0.18175 0.17790
# Poissons Ratio (z) = 0.21695 0.35944
#
# Static dielectric constant tensor:
#      x y z
#    x 1.844400 0.000000 0.000000 
#    y 0.000000 1.817300 0.000000 
#    z 0.000000 0.000000 1.997550 
# 
# From -- ./inp_files/45008.got.cif
#   From: 2010.05.17/outbox.cif.g08.bks.cpg/sg68_23_cif.got.tgz:45008.got - 2010.06.03 18:57:09.
