data_PCOD9508497
_publ_section_title
;
Structure prediction by ZEFSAII (Michael W. Deem and Ramdas Pophale) SiO2 
 PCOD9508497
Probable space group: C C C A
;
_chemical_formula_sum "Si O2"
_cell_formula_units_Z 68
_cell_length_a 5.027083
_cell_length_b 28.080921
_cell_length_c 21.837623
_cell_angle_alpha 90.000000
_cell_angle_beta 90.000000
_cell_angle_gamma 90.000000
_cell_volume 3082.710684
_symmetry_space_group_name_H-M "C C C A"
_symmetry_group_IT_number 68
_space_group.IT_coordinate_system_code '2'
_symmetry_cell_setting 'orthorhombic'
loop_
_space_group_symop_operation_xyz
x,y,z
-x,1/2-y,z
x,1/2-y,1/2-z
-x,y,1/2-z
-x,-y,-z
x,1/2+y,-z
-x,1/2+y,1/2+z
x,-y,1/2+z
1/2+x,1/2+y,z
1/2-x,-y,z
1/2+x,-y,1/2-z
1/2-x,1/2+y,1/2-z
1/2-x,1/2-y,-z
1/2+x,y,-z
1/2-x,y,1/2+z
1/2+x,1/2-y,1/2+z
loop_
_atom_site_type_symbol
_atom_site_label
_atom_site_fract_x
_atom_site_fract_y
_atom_site_fract_z
Si Si1 0.684030 0.052465 0.960331
Si Si2 0.868395 0.886731 0.349355
Si Si3 0.500000 0.250000 0.954954
Si Si4 0.615744 0.677694 0.347313
Si Si5 0.000000 0.750000 0.750000
Si Si6 0.500000 0.033705 0.250000
O O1 0.763832 0.092533 0.913162
O O2 0.750000 0.000000 0.934075
O O3 0.379189 0.055674 0.980957
O O4 0.630309 0.854172 0.324300
O O5 0.930134 0.931100 0.305652
O O6 0.129466 0.854968 0.357413
O O7 0.473841 0.204957 0.909125
O O8 0.750000 0.250000 0.000000
O O9 0.669877 0.717274 0.295730
O O10 0.750000 0.000000 0.235627
#
# Coordination Sequence:
#
# PCOD9508497 Si02
#       6
#    16  16   8  16   4   8
#     4  10  22  39  61  89 125 166 203 248 302 359
#     4  12  24  42  65  97 125 162 217 259 309 375
#     4  11  24  43  64  95 134 167 206 256 326 385
#     4  11  25  41  68  92 124 168 206 265 313 369
#     4  10  24  48  64  90 124 160 212 254 320 384
#     4  12  26  43  66  93 130 171 206 265 324 370
#
# _framework density 22.058506999999999
#
# number of rings (size 3 to 8) (size 9 to 14) (size 15 to 20)
#    0.000    0.941    0.000    6.353    0.000   12.235 
#    0.000    0.000    0.000    0.000    0.000    0.000 
#    0.000    0.000    0.000    0.000    0.000    0.000 
#
# Total GULP energy -190418.000224 kJ/mol
# GULP energy per Si atom -5600.529418 kJ/mol
# Density = 2.200830 g / cm^3
# Si number density = 22.058507 Si / 1000 Ang^3
#
#
#
# Elastic Constant Matrix: (Units=GPa)
#
#
# Indices 1 2 3 4 5 6 
#
# 1 137.5409 57.8546 20.4250 0.0000 0.0000 0.0000
# 2 57.8546 138.1626 52.0539 0.0000 0.0000 0.0000
# 3 20.4250 52.0539 86.8496 0.0000 0.0000 0.0000
# 4 0.0000 0.0000 0.0000 9.6282 0.0000 0.0000
# 5 0.0000 0.0000 0.0000 0.0000 13.7213 0.0000
# 6 0.0000 0.0000 0.0000 0.0000 0.0000 28.8506
#
#
#
# Elastic Compliance Matrix: (Units=1/GPa)
#
#
# Indices 1 2 3 4 5 6 
#
# 1 0.008827 -0.003764 0.000180 0.000000 0.000000 0.000000
# 2 -0.003764 0.010954 -0.005680 0.000000 0.000000 0.000000
# 3 0.000180 -0.005680 0.014876 0.000000 0.000000 0.000000
# 4 0.000000 0.000000 0.000000 0.103861 0.000000 0.000000
# 5 0.000000 0.000000 0.000000 0.000000 0.072880 0.000000
# 6 0.000000 0.000000 0.000000 0.000000 0.000000 0.034661
#
#
# Mechanical properties :
#
#
# Convention : Reuss Voigt Hill
#
# Bulk Modulus (GPa) = 61.99976 69.24668 65.62322
# Shear Modulus (GPa) = 18.52098 25.92134 22.22116
#
# Velocity S-wave (km/s) = 2.90078 3.43172 3.17736
# Velocity P-wave (km/s) = 6.27593 6.86751 6.57837
#
# Compressibility (1/GPa) = 0.01612910
#
# Stress axis : x y z
#
# Youngs Moduli (GPa) = 113.28670 91.28983 67.22128
#
# Poissons Ratio (x) = 0.34363 -0.01211
# Poissons Ratio (y) = 0.42643 0.38183
# Poissons Ratio (z) = -0.02041 0.51854
#
# Static dielectric constant tensor:
#      x y z
#    x 1.755060 0.000000 0.000000 
#    y 0.000000 1.847230 0.000000 
#    z 0.000000 0.000000 1.811630 
# 
# From -- ./inp_files/35106.got.cif
#   From: 2010.05.17/outbox.cif.g08.bks.cpg/sg68_18_cif.got.tgz:35106.got - 2010.06.03 18:57:09.
