data_PCOD9508120
_publ_section_title
;
Structure prediction by ZEFSAII (Michael W. Deem and Ramdas Pophale) SiO2 
 PCOD9508120
Probable space group: C C C A
;
_chemical_formula_sum "Si O2"
_cell_formula_units_Z 52
_cell_length_a 20.086371
_cell_length_b 5.122551
_cell_length_c 22.825554
_cell_angle_alpha 90.000000
_cell_angle_beta 90.000000
_cell_angle_gamma 90.000000
_cell_volume 2348.600224
_symmetry_space_group_name_H-M "C C C A"
_symmetry_group_IT_number 68
_space_group.IT_coordinate_system_code '2'
_symmetry_cell_setting 'orthorhombic'
loop_
_space_group_symop_operation_xyz
x,y,z
-x,1/2-y,z
x,1/2-y,1/2-z
-x,y,1/2-z
-x,-y,-z
x,1/2+y,-z
-x,1/2+y,1/2+z
x,-y,1/2+z
1/2+x,1/2+y,z
1/2-x,-y,z
1/2+x,-y,1/2-z
1/2-x,1/2+y,1/2-z
1/2-x,1/2-y,-z
1/2+x,y,-z
1/2-x,y,1/2+z
1/2+x,1/2-y,1/2+z
loop_
_atom_site_type_symbol
_atom_site_label
_atom_site_fract_x
_atom_site_fract_y
_atom_site_fract_z
Si Si1 0.601584 0.642526 0.843345
Si Si2 0.574345 0.551621 0.975208
Si Si3 0.000000 0.750000 0.250000
Si Si4 0.815896 0.348024 0.183435
O O1 0.573120 0.643212 0.908671
O O2 0.546070 0.582374 0.794196
O O3 0.657974 0.419047 0.844943
O O4 0.629069 0.925351 0.824160
O O5 0.500000 0.500000 0.000000
O O6 0.607610 0.771771 0.015195
O O7 0.804101 0.250000 0.250000
O O8 0.750000 0.500000 0.162560
#
# Coordination Sequence:
#
# PCOD9508120 Si02
#       4
#    16  16   4  16
#     4  12  25  41  71 105 143 180 233 293 353 436
#     4  10  21  41  64  94 133 188 226 269 344 431
#     4  12  24  42  60 114 148 174 216 294 380 418
#     4  12  24  46  69  99 139 192 239 285 351 422
#
# _framework density 22.140847000000001
#
# number of rings (size 3 to 8) (size 9 to 14) (size 15 to 20)
#    0.000    0.615    3.077    6.462    0.000    4.923 
#    0.000    0.000    0.000   18.462    0.000    0.000 
#    0.000    0.000    0.000    0.000    0.000    0.000 
#
# Total GULP energy -145086.258984 kJ/mol
# GULP energy per Si atom -5580.240730 kJ/mol
# Density = 2.209045 g / cm^3
# Si number density = 22.140847 Si / 1000 Ang^3
#
#
#
# Elastic Constant Matrix: (Units=GPa)
#
#
# Indices 1 2 3 4 5 6 
#
# 1 48.4532 11.2616 36.6535 0.0000 0.0000 0.0000
# 2 11.2616 159.1453 16.6440 0.0000 0.0000 0.0000
# 3 36.6535 16.6440 113.3387 0.0000 0.0000 0.0000
# 4 0.0000 0.0000 0.0000 13.5357 0.0000 0.0000
# 5 0.0000 0.0000 0.0000 0.0000 16.5760 0.0000
# 6 0.0000 0.0000 0.0000 0.0000 0.0000 21.9011
#
#
#
# Elastic Compliance Matrix: (Units=1/GPa)
#
#
# Indices 1 2 3 4 5 6 
#
# 1 0.027488 -0.001031 -0.008738 0.000000 0.000000 0.000000
# 2 -0.001031 0.006420 -0.000609 0.000000 0.000000 0.000000
# 3 -0.008738 -0.000609 0.011739 0.000000 0.000000 0.000000
# 4 0.000000 0.000000 0.000000 0.073879 0.000000 0.000000
# 5 0.000000 0.000000 0.000000 0.000000 0.060328 0.000000
# 6 0.000000 0.000000 0.000000 0.000000 0.000000 0.045660
#
#
# Mechanical properties :
#
#
# Convention : Reuss Voigt Hill
#
# Bulk Modulus (GPa) = 40.17760 50.00616 45.09188
# Shear Modulus (GPa) = 19.64112 27.49444 23.56778
#
# Velocity S-wave (km/s) = 2.98165 3.52774 3.26613
# Velocity P-wave (km/s) = 5.48082 6.26321 5.88503
#
# Compressibility (1/GPa) = 0.02488949
#
# Stress axis : x y z
#
# Youngs Moduli (GPa) = 36.37903 155.75678 85.18967
#
# Poissons Ratio (x) = 0.16063 0.74441
# Poissons Ratio (y) = 0.03752 0.05191
# Poissons Ratio (z) = 0.31789 0.09490
#
# Static dielectric constant tensor:
#      x y z
#    x 2.095680 0.000000 0.000000 
#    y 0.000000 1.374020 0.000000 
#    z 0.000000 0.000000 1.809640 
# 
# From -- ./inp_files/39962.got.cif
#   From: 2010.05.17/outbox.cif.g08.bks.cpg/sg68_20_cif.got.tgz:39962.got - 2010.06.03 18:57:09.
