data_PCOD9508513
_publ_section_title
;
Structure prediction by ZEFSAII (Michael W. Deem and Ramdas Pophale) SiO2 
 PCOD9508513
Probable space group: C C C A
;
_chemical_formula_sum "Si O2"
_cell_formula_units_Z 104
_cell_length_a 23.148124
_cell_length_b 9.603658
_cell_length_c 20.335740
_cell_angle_alpha 90.000000
_cell_angle_beta 90.000000
_cell_angle_gamma 90.000000
_cell_volume 4520.770565
_symmetry_space_group_name_H-M "C C C A"
_symmetry_group_IT_number 68
_space_group.IT_coordinate_system_code '2'
_symmetry_cell_setting 'orthorhombic'
loop_
_space_group_symop_operation_xyz
x,y,z
-x,1/2-y,z
x,1/2-y,1/2-z
-x,y,1/2-z
-x,-y,-z
x,1/2+y,-z
-x,1/2+y,1/2+z
x,-y,1/2+z
1/2+x,1/2+y,z
1/2-x,-y,z
1/2+x,-y,1/2-z
1/2-x,1/2+y,1/2-z
1/2-x,1/2-y,-z
1/2+x,y,-z
1/2-x,y,1/2+z
1/2+x,1/2-y,1/2+z
loop_
_atom_site_type_symbol
_atom_site_label
_atom_site_fract_x
_atom_site_fract_y
_atom_site_fract_z
Si Si1 0.678538 0.415580 0.628508
Si Si2 0.908362 0.823225 0.685530
Si Si3 0.626836 0.109132 0.010719
Si Si4 0.234660 0.275707 0.575206
Si Si5 0.553520 0.651990 0.455726
Si Si6 0.349363 0.406882 0.246867
Si Si7 0.250000 0.500000 0.158893
O O1 0.640644 0.286559 0.659962
O O2 0.657746 0.453267 0.554552
O O3 0.756535 0.643204 0.616533
O O4 0.663231 0.533771 0.680980
O O5 0.933680 0.750000 0.750000
O O6 0.948368 0.846406 0.623046
O O7 0.885062 0.973560 0.708971
O O8 0.605666 0.257261 0.984186
O O9 0.671092 0.153346 0.069392
O O10 0.573292 0.005675 0.026557
O O11 0.250000 0.250000 0.500000
O O12 0.276064 0.391838 0.607286
O O13 0.500000 0.750000 0.478218
O O14 0.372748 0.250000 0.250000
O O15 0.289473 0.408092 0.206166
#
# Coordination Sequence:
#
# PCOD9508513 Si02
#       7
#    16  16  16  16  16  16   8
#     4   9  20  42  61  88 135 184 221 270 327 415
#     4   9  19  40  67  91 132 174 226 278 341 422
#     4  10  23  40  65  95 127 171 223 281 345 417
#     4  10  22  39  64  88 130 177 226 269 331 404
#     4  11  23  43  67  97 128 170 225 298 363 417
#     4  11  24  38  60  92 133 187 226 269 330 400
#     4  12  24  38  54  88 130 178 230 264 316 396
#
# _framework density 23.004929000000001
#
# number of rings (size 3 to 8) (size 9 to 14) (size 15 to 20)
#    0.000    1.846    1.538    1.385    6.462    2.769 
#    2.769    0.000    0.000    0.000    0.000    9.692 
#    0.000    1.231    0.000    0.000    0.000    0.000 
#
# Total GULP energy -289532.109585 kJ/mol
# GULP energy per Si atom -5567.925184 kJ/mol
# Density = 2.295257 g / cm^3
# Si number density = 23.004929 Si / 1000 Ang^3
#
#
#
# Elastic Constant Matrix: (Units=GPa)
#
#
# Indices 1 2 3 4 5 6 
#
# 1 54.5483 23.9859 20.6476 0.0000 0.0000 0.0000
# 2 23.9859 166.3777 44.8861 0.0000 0.0000 0.0000
# 3 20.6476 44.8861 98.4038 0.0000 0.0000 0.0000
# 4 0.0000 0.0000 0.0000 38.2418 0.0000 0.0000
# 5 0.0000 0.0000 0.0000 0.0000 11.9462 0.0000
# 6 0.0000 0.0000 0.0000 0.0000 0.0000 30.9518
#
#
#
# Elastic Compliance Matrix: (Units=1/GPa)
#
#
# Indices 1 2 3 4 5 6 
#
# 1 0.020508 -0.002048 -0.003369 0.000000 0.000000 0.000000
# 2 -0.002048 0.007058 -0.002790 0.000000 0.000000 0.000000
# 3 -0.003369 -0.002790 0.012142 0.000000 0.000000 0.000000
# 4 0.000000 0.000000 0.000000 0.026149 0.000000 0.000000
# 5 0.000000 0.000000 0.000000 0.000000 0.083709 0.000000
# 6 0.000000 0.000000 0.000000 0.000000 0.000000 0.032308
#
#
# Mechanical properties :
#
#
# Convention : Reuss Voigt Hill
#
# Bulk Modulus (GPa) = 42.92812 55.37432 49.15122
# Shear Modulus (GPa) = 24.26565 31.54865 27.90715
#
# Velocity S-wave (km/s) = 3.25130 3.70724 3.48673
# Velocity P-wave (km/s) = 5.72673 6.51519 6.13365
#
# Compressibility (1/GPa) = 0.02329475
#
# Stress axis : x y z
#
# Youngs Moduli (GPa) = 48.76141 141.67721 82.36048
#
# Poissons Ratio (x) = 0.29010 0.27748
# Poissons Ratio (y) = 0.09984 0.22978
# Poissons Ratio (z) = 0.16428 0.39527
#
# Static dielectric constant tensor:
#      x y z
#    x 1.955480 0.000000 0.000000 
#    y 0.000000 1.953320 0.000000 
#    z 0.000000 0.000000 1.881730 
# 
# From -- ./inp_files/41342.got.cif
#   From: 2010.05.17/outbox.cif.g08.bks.cpg/sg68_21_cif.got.tgz:41342.got - 2010.06.03 18:57:09.
