data_PCOD9508023
_publ_section_title
;
Structure prediction by ZEFSAII (Michael W. Deem and Ramdas Pophale) SiO2 
 PCOD9508023
Probable space group: C C C A
;
_chemical_formula_sum "Si O2"
_cell_formula_units_Z 80
_cell_length_a 21.951739
_cell_length_b 14.569679
_cell_length_c 12.401540
_cell_angle_alpha 90.000000
_cell_angle_beta 90.000000
_cell_angle_gamma 90.000000
_cell_volume 3966.381943
_symmetry_space_group_name_H-M "C C C A"
_symmetry_group_IT_number 68
_space_group.IT_coordinate_system_code '2'
_symmetry_cell_setting 'orthorhombic'
loop_
_space_group_symop_operation_xyz
x,y,z
-x,1/2-y,z
x,1/2-y,1/2-z
-x,y,1/2-z
-x,-y,-z
x,1/2+y,-z
-x,1/2+y,1/2+z
x,-y,1/2+z
1/2+x,1/2+y,z
1/2-x,-y,z
1/2+x,-y,1/2-z
1/2-x,1/2+y,1/2-z
1/2-x,1/2-y,-z
1/2+x,y,-z
1/2-x,y,1/2+z
1/2+x,1/2-y,1/2+z
loop_
_atom_site_type_symbol
_atom_site_label
_atom_site_fract_x
_atom_site_fract_y
_atom_site_fract_z
Si Si1 0.177000 0.811500 0.648930
Si Si2 0.882612 0.030277 0.238252
Si Si3 0.500000 0.250000 0.071496
Si Si4 0.381189 0.340208 0.527153
Si Si5 0.500000 0.095642 0.250000
Si Si6 0.794509 0.421584 0.647093
O O1 0.159076 0.750000 0.750000
O O2 0.163828 0.754809 0.949311
O O3 0.246809 0.840234 0.662396
O O4 0.133963 0.900136 0.663563
O O5 0.942316 0.971307 0.260806
O O6 0.824293 0.962046 0.243824
O O7 0.886654 0.089608 0.128430
O O8 0.514710 0.164200 0.150627
O O9 0.444714 0.209139 0.001483
O O10 0.350114 0.394073 0.429022
O O11 0.750000 0.500000 0.598610
#
# Coordination Sequence:
#
# PCOD9508023 Si02
#       6
#    16  16   8  16   8  16
#     4   9  21  39  63  96 131 166 214 268 330 383
#     4  10  23  41  63  93 128 170 217 267 321 386
#     4  11  26  42  63  98 132 170 225 266 329 400
#     4  11  23  41  64  99 130 175 217 270 328 390
#     4  11  24  44  63  86 136 174 213 272 328 383
#     4  10  21  40  64  94 130 167 222 267 327 391
#
# _framework density 20.169515000000001
#
# number of rings (size 3 to 8) (size 9 to 14) (size 15 to 20)
#    0.000    1.800    2.000    0.600    2.800    9.600 
#    0.000    0.000    0.000    0.000    0.000    0.000 
#    0.000    0.000    0.000    0.000    0.000    0.000 
#
# Total GULP energy -222750.528545 kJ/mol
# GULP energy per Si atom -5568.763214 kJ/mol
# Density = 2.012361 g / cm^3
# Si number density = 20.169515 Si / 1000 Ang^3
#
#
#
# Elastic Constant Matrix: (Units=GPa)
#
#
# Indices 1 2 3 4 5 6 
#
# 1 143.9035 81.3422 42.0898 0.0000 0.0000 0.0000
# 2 81.3422 120.5455 48.8862 0.0000 0.0000 0.0000
# 3 42.0898 48.8862 56.8483 0.0000 0.0000 0.0000
# 4 0.0000 0.0000 0.0000 -182.1154 0.0000 0.0000
# 5 0.0000 0.0000 0.0000 0.0000 -18.9933 0.0000
# 6 0.0000 0.0000 0.0000 0.0000 0.0000 49.1243
#
#
#
# Elastic Compliance Matrix: (Units=1/GPa)
#
#
# Indices 1 2 3 4 5 6 
#
# 1 0.011524 -0.006627 -0.002833 0.000000 0.000000 0.000000
# 2 -0.006627 0.016549 -0.009325 0.000000 0.000000 0.000000
# 3 -0.002833 -0.009325 0.027707 0.000000 0.000000 0.000000
# 4 0.000000 0.000000 0.000000 -0.005491 0.000000 0.000000
# 5 0.000000 0.000000 0.000000 0.000000 -0.052650 0.000000
# 6 0.000000 0.000000 0.000000 0.000000 0.000000 0.020357
#
#
# Mechanical properties :
#
#
# Convention : Reuss Voigt Hill
#
# Bulk Modulus (GPa) = 54.91472 73.99264 64.45368
# Shear Modulus (GPa) = 81.12335 -20.46495 30.32920
#
# Velocity S-wave (km/s) = 6.34887 -3.18881 3.88198
# Velocity P-wave (km/s) = 9.00166 4.81737 7.21931
#
# Compressibility (1/GPa) = 0.01821006
#
# Stress axis : x y z
#
# Youngs Moduli (GPa) = 86.77723 60.42670 36.09214
#
# Poissons Ratio (x) = 0.40045 0.10225
# Poissons Ratio (y) = 0.57508 0.33654
# Poissons Ratio (z) = 0.24585 0.56345
#
# Static dielectric constant tensor:
#      x y z
#    x 1.703710 0.000000 0.000000 
#    y 0.000000 1.778980 0.000000 
#    z 0.000000 0.000000 1.734540 
# 
# From -- ./inp_files/15360.got.cif
#   From: 2010.05.17/outbox.cif.g08.bks.cpg/sg68_8_cif.got.tgz:15360.got - 2010.06.03 18:57:09.
