data_PCOD9508357
_publ_section_title
;
Structure prediction by ZEFSAII (Michael W. Deem and Ramdas Pophale) SiO2 
 PCOD9508357
Probable space group: C C C A
;
_chemical_formula_sum "Si O2"
_cell_formula_units_Z 72
_cell_length_a 21.228797
_cell_length_b 9.989261
_cell_length_c 17.497782
_cell_angle_alpha 90.000000
_cell_angle_beta 90.000000
_cell_angle_gamma 90.000000
_cell_volume 3710.579545
_symmetry_space_group_name_H-M "C C C A"
_symmetry_group_IT_number 68
_space_group.IT_coordinate_system_code '2'
_symmetry_cell_setting 'orthorhombic'
loop_
_space_group_symop_operation_xyz
x,y,z
-x,1/2-y,z
x,1/2-y,1/2-z
-x,y,1/2-z
-x,-y,-z
x,1/2+y,-z
-x,1/2+y,1/2+z
x,-y,1/2+z
1/2+x,1/2+y,z
1/2-x,-y,z
1/2+x,-y,1/2-z
1/2-x,1/2+y,1/2-z
1/2-x,1/2-y,-z
1/2+x,y,-z
1/2-x,y,1/2+z
1/2+x,1/2-y,1/2+z
loop_
_atom_site_type_symbol
_atom_site_label
_atom_site_fract_x
_atom_site_fract_y
_atom_site_fract_z
Si Si1 0.850636 0.897267 0.740510
Si Si2 0.066395 0.869633 0.205289
Si Si3 0.142264 0.674390 0.435298
Si Si4 0.675056 0.990244 0.571260
Si Si5 0.750000 0.500000 0.151850
O O1 0.876069 0.750000 0.750000
O O2 0.788380 0.903170 0.792287
O O3 0.900009 0.993702 0.779453
O O4 0.837677 0.955777 0.656665
O O5 0.102010 0.750000 0.250000
O O6 0.078882 0.839023 0.116411
O O7 0.000000 0.877266 0.250000
O O8 0.139321 0.592710 0.514377
O O9 0.156774 0.833511 0.440946
O O10 0.200347 0.593573 0.393811
O O11 0.750000 0.000000 0.557290
#
# Coordination Sequence:
#
# PCOD9508357 Si02
#       5
#    16  16  16  16   8
#     4  11  23  37  64  93 128 167 218 270 313 381
#     4  10  22  45  69  83 116 169 227 267 317 376
#     4  11  24  39  61  97 130 177 208 260 327 389
#     4  12  23  38  59  96 143 169 205 254 331 390
#     4  10  22  36  60  94 130 172 220 248 316 396
#
# _framework density 19.403977999999999
#
# number of rings (size 3 to 8) (size 9 to 14) (size 15 to 20)
#    0.000    1.111    4.444    2.000    6.222    0.444 
#    0.000    1.111    0.000    0.000    0.000    0.000 
#    0.000    0.000    0.000    0.000    0.000    0.000 
#
# Total GULP energy -200532.187952 kJ/mol
# GULP energy per Si atom -5570.338554 kJ/mol
# Density = 1.935981 g / cm^3
# Si number density = 19.403978 Si / 1000 Ang^3
#
#
#
# Elastic Constant Matrix: (Units=GPa)
#
#
# Indices 1 2 3 4 5 6 
#
# 1 50.9037 12.1700 8.3660 0.0000 0.0000 0.0000
# 2 12.1700 162.2864 26.6073 0.0000 0.0000 0.0000
# 3 8.3660 26.6073 82.2422 0.0000 0.0000 0.0000
# 4 0.0000 0.0000 0.0000 24.4263 0.0000 0.0000
# 5 0.0000 0.0000 0.0000 0.0000 -4.6817 0.0000
# 6 0.0000 0.0000 0.0000 0.0000 0.0000 13.0456
#
#
#
# Elastic Compliance Matrix: (Units=1/GPa)
#
#
# Indices 1 2 3 4 5 6 
#
# 1 0.020214 -0.001245 -0.001654 0.000000 0.000000 0.000000
# 2 -0.001245 0.006584 -0.002003 0.000000 0.000000 0.000000
# 3 -0.001654 -0.002003 0.012976 0.000000 0.000000 0.000000
# 4 0.000000 0.000000 0.000000 0.040939 0.000000 0.000000
# 5 0.000000 0.000000 0.000000 0.000000 -0.213600 0.000000
# 6 0.000000 0.000000 0.000000 0.000000 0.000000 0.076654
#
#
# Mechanical properties :
#
#
# Convention : Reuss Voigt Hill
#
# Bulk Modulus (GPa) = 33.36650 43.30208 38.33429
# Shear Modulus (GPa) = -137.21500 23.11067 -57.05217
#
# Velocity S-wave (km/s) = -8.41834 3.45487 -5.42827
# Velocity P-wave (km/s) = 8.78966 6.18703 4.41468
#
# Compressibility (1/GPa) = 0.02997018
#
# Stress axis : x y z
#
# Youngs Moduli (GPa) = 49.46995 151.88906 77.06802
#
# Poissons Ratio (x) = 0.18907 0.12744
# Poissons Ratio (y) = 0.06158 0.15440
# Poissons Ratio (z) = 0.08180 0.30429
#
# Static dielectric constant tensor:
#      x y z
#    x 1.294880 0.000000 0.000000 
#    y 0.000000 1.753370 0.000000 
#    z 0.000000 0.000000 1.735200 
# 
# From -- ./inp_files/28133.got.cif
#   From: 2010.05.17/outbox.cif.g08.bks.cpg/sg68_15_cif.got.tgz:28133.got - 2010.06.03 18:57:09.
