data_PCOD9508930
_publ_section_title
;
Structure prediction by ZEFSAII (Michael W. Deem and Ramdas Pophale) SiO2 
 PCOD9508930
Probable space group: C C C A
;
_chemical_formula_sum "Si O2"
_cell_formula_units_Z 104
_cell_length_a 26.532057
_cell_length_b 9.267273
_cell_length_c 22.135031
_cell_angle_alpha 90.000000
_cell_angle_beta 90.000000
_cell_angle_gamma 90.000000
_cell_volume 5442.557338
_symmetry_space_group_name_H-M "C C C A"
_symmetry_group_IT_number 68
_space_group.IT_coordinate_system_code '2'
_symmetry_cell_setting 'orthorhombic'
loop_
_space_group_symop_operation_xyz
x,y,z
-x,1/2-y,z
x,1/2-y,1/2-z
-x,y,1/2-z
-x,-y,-z
x,1/2+y,-z
-x,1/2+y,1/2+z
x,-y,1/2+z
1/2+x,1/2+y,z
1/2-x,-y,z
1/2+x,-y,1/2-z
1/2-x,1/2+y,1/2-z
1/2-x,1/2-y,-z
1/2+x,y,-z
1/2-x,y,1/2+z
1/2+x,1/2-y,1/2+z
loop_
_atom_site_type_symbol
_atom_site_label
_atom_site_fract_x
_atom_site_fract_y
_atom_site_fract_z
Si Si1 0.500000 0.250000 0.890221
Si Si2 0.417581 0.152236 0.690125
Si Si3 0.750000 0.500000 0.057694
Si Si4 0.750000 0.000000 0.213168
Si Si5 0.654851 0.103458 0.286599
Si Si6 0.161217 0.563588 0.021518
Si Si7 0.222212 0.258673 0.620828
Si Si8 0.892886 0.212403 0.069048
O O1 0.471654 0.359540 0.844022
O O2 0.546194 0.301011 0.931229
O O3 0.421195 0.250000 0.750000
O O4 0.384392 0.231464 0.637792
O O5 0.391998 0.001036 0.705035
O O6 0.799306 0.526624 0.018579
O O7 0.739015 0.643956 0.094571
O O8 0.800145 0.983984 0.253128
O O9 0.752117 0.860584 0.170190
O O10 0.643164 0.250000 0.250000
O O11 0.679107 0.161584 0.348230
O O12 0.128968 0.672180 0.979268
O O13 0.196176 0.648731 0.068822
O O14 0.129034 0.444674 0.056443
#
# Coordination Sequence:
#
# PCOD9508930 Si02
#       8
#     8  16   8   8  16  16  16  16
#     4   8  23  44  70 100 126 168 221 294 340 404
#     4  10  22  43  72  98 130 168 227 276 348 399
#     4  12  24  40  60  94 132 177 215 272 312 396
#     4  10  24  40  58  96 136 181 223 266 320 398
#     4  10  23  40  62  97 135 176 223 273 324 399
#     4  12  24  42  62  96 136 176 225 270 327 410
#     4  11  24  40  61  88 142 176 224 264 325 383
#     4  10  25  42  69  98 128 178 226 280 342 394
#
# _framework density 19.108664000000001
#
# number of rings (size 3 to 8) (size 9 to 14) (size 15 to 20)
#    0.923    0.615    1.538    2.538    6.462    3.692 
#    0.000    0.000    0.000    7.385    0.000    0.000 
#    0.000    0.000    0.000    0.000    0.000    0.000 
#
# Total GULP energy -289964.787124 kJ/mol
# GULP energy per Si atom -5576.245906 kJ/mol
# Density = 1.906517 g / cm^3
# Si number density = 19.108664 Si / 1000 Ang^3
#
#
#
# Elastic Constant Matrix: (Units=GPa)
#
#
# Indices 1 2 3 4 5 6 
#
# 1 69.0123 34.5649 -0.9860 0.0000 0.0000 0.0000
# 2 34.5649 85.3471 18.7065 0.0000 0.0000 0.0000
# 3 -0.9860 18.7065 63.0360 0.0000 0.0000 0.0000
# 4 0.0000 0.0000 0.0000 30.4971 0.0000 0.0000
# 5 0.0000 0.0000 0.0000 0.0000 63.9893 0.0000
# 6 0.0000 0.0000 0.0000 0.0000 0.0000 29.6225
#
#
#
# Elastic Compliance Matrix: (Units=1/GPa)
#
#
# Indices 1 2 3 4 5 6 
#
# 1 0.018598 -0.008124 0.002702 0.000000 0.000000 0.000000
# 2 -0.008124 0.016081 -0.004899 0.000000 0.000000 0.000000
# 3 0.002702 -0.004899 0.017360 0.000000 0.000000 0.000000
# 4 0.000000 0.000000 0.000000 0.032790 0.000000 0.000000
# 5 0.000000 0.000000 0.000000 0.000000 0.015628 0.000000
# 6 0.000000 0.000000 0.000000 0.000000 0.000000 0.033758
#
#
# Mechanical properties :
#
#
# Convention : Reuss Voigt Hill
#
# Bulk Modulus (GPa) = 31.85152 35.77401 33.81276
# Shear Modulus (GPa) = 30.24386 35.82911 33.03649
#
# Velocity S-wave (km/s) = 3.98267 4.33485 4.16248
# Velocity P-wave (km/s) = 6.15254 6.61941 6.39024
#
# Compressibility (1/GPa) = 0.03139568
#
# Stress axis : x y z
#
# Youngs Moduli (GPa) = 53.76993 62.18567 57.60337
#
# Poissons Ratio (x) = 0.50520 -0.15563
# Poissons Ratio (y) = 0.43683 0.28221
# Poissons Ratio (z) = -0.14528 0.30466
#
# Static dielectric constant tensor:
#      x y z
#    x 1.684020 0.000000 0.000000 
#    y 0.000000 1.676620 0.000000 
#    z 0.000000 0.000000 1.712150 
# 
# From -- ./inp_files/41603.got.cif
#   From: 2010.05.17/outbox.cif.g08.bks.cpg/sg68_21_cif.got.tgz:41603.got - 2010.06.03 18:57:09.
