data_PCOD9508251
_publ_section_title
;
Structure prediction by ZEFSAII (Michael W. Deem and Ramdas Pophale) SiO2 
 PCOD9508251
Probable space group: C C C A
;
_chemical_formula_sum "Si O2"
_cell_formula_units_Z 88
_cell_length_a 16.696560
_cell_length_b 11.977616
_cell_length_c 20.395508
_cell_angle_alpha 90.000000
_cell_angle_beta 90.000000
_cell_angle_gamma 90.000000
_cell_volume 4078.795345
_symmetry_space_group_name_H-M "C C C A"
_symmetry_group_IT_number 68
_space_group.IT_coordinate_system_code '2'
_symmetry_cell_setting 'orthorhombic'
loop_
_space_group_symop_operation_xyz
x,y,z
-x,1/2-y,z
x,1/2-y,1/2-z
-x,y,1/2-z
-x,-y,-z
x,1/2+y,-z
-x,1/2+y,1/2+z
x,-y,1/2+z
1/2+x,1/2+y,z
1/2-x,-y,z
1/2+x,-y,1/2-z
1/2-x,1/2+y,1/2-z
1/2-x,1/2-y,-z
1/2+x,y,-z
1/2-x,y,1/2+z
1/2+x,1/2-y,1/2+z
loop_
_atom_site_type_symbol
_atom_site_label
_atom_site_fract_x
_atom_site_fract_y
_atom_site_fract_z
Si Si1 0.591735 0.768967 0.162277
Si Si2 0.605274 0.338515 0.190728
Si Si3 0.227706 0.626162 0.418837
Si Si4 0.500000 0.250000 0.417320
Si Si5 0.126660 0.235959 0.480987
Si Si6 0.663257 0.936968 0.263517
O O1 0.500000 0.750000 0.183593
O O2 0.585565 0.798495 0.085999
O O3 0.638034 0.868115 0.199386
O O4 0.642669 0.656498 0.180523
O O5 0.599450 0.250000 0.250000
O O6 0.685889 0.321284 0.146120
O O7 0.537742 0.334896 0.134841
O O8 0.606161 0.459396 0.222452
O O9 0.250000 0.500000 0.403514
O O10 0.161517 0.634200 0.476538
O O11 0.301325 0.689310 0.452776
O O12 0.432061 0.205153 0.466759
O O13 0.750000 0.000000 0.258411
#
# Coordination Sequence:
#
# PCOD9508251 Si02
#       6
#    16  16  16   8  16  16
#     4  11  24  45  71 103 145 182 236 296 358 421
#     4  11  24  42  68 100 139 177 230 283 347 413
#     4  10  22  43  67  97 133 176 224 287 339 407
#     4  10  23  44  66  97 136 184 218 280 336 417
#     4  10  21  43  68  95 134 176 229 276 343 416
#     4  11  25  42  70 100 139 186 232 288 353 413
#
# _framework density 21.574997
#
# number of rings (size 3 to 8) (size 9 to 14) (size 15 to 20)
#    0.000    1.455    0.909    4.091    5.091    3.636 
#    9.818    2.727    0.000    0.000    0.000    0.000 
#    0.000    0.000    0.000    0.000    0.000    0.000 
#
# Total GULP energy -245091.666852 kJ/mol
# GULP energy per Si atom -5570.265156 kJ/mol
# Density = 2.152589 g / cm^3
# Si number density = 21.574997 Si / 1000 Ang^3
#
#
#
# Elastic Constant Matrix: (Units=GPa)
#
#
# Indices 1 2 3 4 5 6 
#
# 1 98.9180 29.0567 45.5839 0.0000 0.0000 0.0000
# 2 29.0567 105.9589 62.0074 0.0000 0.0000 0.0000
# 3 45.5839 62.0074 193.8576 0.0000 0.0000 0.0000
# 4 0.0000 0.0000 0.0000 14.3388 0.0000 0.0000
# 5 0.0000 0.0000 0.0000 0.0000 39.0322 0.0000
# 6 0.0000 0.0000 0.0000 0.0000 0.0000 14.6492
#
#
#
# Elastic Compliance Matrix: (Units=1/GPa)
#
#
# Indices 1 2 3 4 5 6 
#
# 1 0.011660 -0.001960 -0.002115 0.000000 0.000000 0.000000
# 2 -0.001960 0.011940 -0.003358 0.000000 0.000000 0.000000
# 3 -0.002115 -0.003358 0.006730 0.000000 0.000000 0.000000
# 4 0.000000 0.000000 0.000000 0.069741 0.000000 0.000000
# 5 0.000000 0.000000 0.000000 0.000000 0.025620 0.000000
# 6 0.000000 0.000000 0.000000 0.000000 0.000000 0.068263
#
#
# Mechanical properties :
#
#
# Convention : Reuss Voigt Hill
#
# Bulk Modulus (GPa) = 64.66671 74.67006 69.66839
# Shear Modulus (GPa) = 23.36726 31.07647 27.22187
#
# Velocity S-wave (km/s) = 3.29458 3.79937 3.55594
# Velocity P-wave (km/s) = 6.67161 7.34381 7.01577
#
# Compressibility (1/GPa) = 0.01546391
#
# Stress axis : x y z
#
# Youngs Moduli (GPa) = 85.76614 83.74922 148.58994
#
# Poissons Ratio (x) = 0.16413 0.31424
# Poissons Ratio (y) = 0.16808 0.49903
# Poissons Ratio (z) = 0.18138 0.28127
#
# Static dielectric constant tensor:
#      x y z
#    x 1.994690 0.000000 0.000000 
#    y 0.000000 1.714850 0.000000 
#    z 0.000000 0.000000 1.814810 
# 
# From -- ./inp_files/39443.got.cif
#   From: 2010.05.17/outbox.cif.g08.bks.cpg/sg68_20_cif.got.tgz:39443.got - 2010.06.03 18:57:09.
