data_PCOD9508608
_publ_section_title
;
Structure prediction by ZEFSAII (Michael W. Deem and Ramdas Pophale) SiO2 
 PCOD9508608
Probable space group: C C C A
;
_chemical_formula_sum "Si O2"
_cell_formula_units_Z 104
_cell_length_a 21.972078
_cell_length_b 26.427830
_cell_length_c 8.793688
_cell_angle_alpha 90.000000
_cell_angle_beta 90.000000
_cell_angle_gamma 90.000000
_cell_volume 5106.268994
_symmetry_space_group_name_H-M "C C C A"
_symmetry_group_IT_number 68
_space_group.IT_coordinate_system_code '2'
_symmetry_cell_setting 'orthorhombic'
loop_
_space_group_symop_operation_xyz
x,y,z
-x,1/2-y,z
x,1/2-y,1/2-z
-x,y,1/2-z
-x,-y,-z
x,1/2+y,-z
-x,1/2+y,1/2+z
x,-y,1/2+z
1/2+x,1/2+y,z
1/2-x,-y,z
1/2+x,-y,1/2-z
1/2-x,1/2+y,1/2-z
1/2-x,1/2-y,-z
1/2+x,y,-z
1/2-x,y,1/2+z
1/2+x,1/2-y,1/2+z
loop_
_atom_site_type_symbol
_atom_site_label
_atom_site_fract_x
_atom_site_fract_y
_atom_site_fract_z
Si Si1 0.464736 0.043789 0.406933
Si Si2 0.938874 0.615600 0.665312
Si Si3 0.688733 0.403469 0.115278
Si Si4 0.872569 0.539221 0.882580
Si Si5 0.772825 0.838000 0.113780
Si Si6 0.165056 0.299829 0.330694
Si Si7 0.250000 0.500000 0.245797
O O1 0.500000 0.050401 0.250000
O O2 0.457840 0.094954 0.500817
O O3 0.500000 0.000000 0.500000
O O4 0.399304 0.016831 0.396357
O O5 0.911497 0.566750 0.753034
O O6 0.885576 0.656506 0.668103
O O7 0.000000 0.632706 0.750000
O O8 0.685097 0.370412 0.269961
O O9 0.718031 0.456581 0.159468
O O10 0.628551 0.421551 0.024388
O O11 0.734432 0.373743 0.001668
O O12 0.802810 0.530016 0.840314
O O13 0.722155 0.813064 0.221616
O O14 0.809145 0.799521 0.003734
O O15 0.138908 0.250000 0.250000
#
# Coordination Sequence:
#
# PCOD9508608 Si02
#       7
#    16  16  16  16  16  16   8
#     4  12  24  43  65  91 131 186 235 274 329 409
#     4  12  25  45  67  94 132 182 236 285 338 412
#     4  11  21  36  55  92 136 182 218 271 332 418
#     4  12  22  38  60  92 137 180 224 275 331 407
#     4  10  22  40  65  94 135 173 219 280 362 420
#     4  11  24  45  71 101 131 171 230 292 362 423
#     4  12  24  32  54  94 140 178 218 266 338 404
#
# _framework density 20.36712
#
# number of rings (size 3 to 8) (size 9 to 14) (size 15 to 20)
#    0.000    0.615    6.154    2.769    2.154    0.308 
#    0.000    0.000    0.000    0.000    0.000    1.077 
#    0.000    0.000    0.000    0.000    0.000    0.000 
#
# Total GULP energy -290387.595375 kJ/mol
# GULP energy per Si atom -5584.376834 kJ/mol
# Density = 2.032076 g / cm^3
# Si number density = 20.367120 Si / 1000 Ang^3
#
#
#
# Elastic Constant Matrix: (Units=GPa)
#
#
# Indices 1 2 3 4 5 6 
#
# 1 64.6615 -4.2323 27.9074 0.0000 0.0000 0.0000
# 2 -4.2323 49.6833 28.3234 0.0000 0.0000 0.0000
# 3 27.9074 28.3234 139.4150 0.0000 0.0000 0.0000
# 4 0.0000 0.0000 0.0000 39.9401 0.0000 0.0000
# 5 0.0000 0.0000 0.0000 0.0000 32.9170 0.0000
# 6 0.0000 0.0000 0.0000 0.0000 0.0000 10.5215
#
#
#
# Elastic Compliance Matrix: (Units=1/GPa)
#
#
# Indices 1 2 3 4 5 6 
#
# 1 0.017592 0.003965 -0.004327 0.000000 0.000000 0.000000
# 2 0.003965 0.023658 -0.005600 0.000000 0.000000 0.000000
# 3 -0.004327 -0.005600 0.009177 0.000000 0.000000 0.000000
# 4 0.000000 0.000000 0.000000 0.025037 0.000000 0.000000
# 5 0.000000 0.000000 0.000000 0.000000 0.030379 0.000000
# 6 0.000000 0.000000 0.000000 0.000000 0.000000 0.095044
#
#
# Mechanical properties :
#
#
# Convention : Reuss Voigt Hill
#
# Bulk Modulus (GPa) = 25.97186 39.75077 32.86132
# Shear Modulus (GPa) = 22.15867 30.12647 26.14257
#
# Velocity S-wave (km/s) = 3.30201 3.85017 3.58658
# Velocity P-wave (km/s) = 5.22659 6.27093 5.77243
#
# Compressibility (1/GPa) = 0.03850321
#
# Stress axis : x y z
#
# Youngs Moduli (GPa) = 56.84316 42.26937 108.97135
#
# Poissons Ratio (x) = -0.16762 0.47154
# Poissons Ratio (y) = -0.22541 0.61025
# Poissons Ratio (z) = 0.24597 0.23671
#
# Static dielectric constant tensor:
#      x y z
#    x 1.937210 0.000000 0.000000 
#    y 0.000000 1.726640 0.000000 
#    z 0.000000 0.000000 2.009660 
# 
# From -- ./inp_files/7381.got.cif
#   From: 2010.05.17/outbox.cif.g08.bks.cpg/sg68_4_cif.got.tgz:7381.got - 2010.06.03 18:57:09.
