data_PCOD9508914
_publ_section_title
;
Structure prediction by ZEFSAII (Michael W. Deem and Ramdas Pophale) SiO2 
 PCOD9508914
Probable space group: C C C A
;
_chemical_formula_sum "Si O2"
_cell_formula_units_Z 68
_cell_length_a 18.938306
_cell_length_b 14.968873
_cell_length_c 10.522095
_cell_angle_alpha 90.000000
_cell_angle_beta 90.000000
_cell_angle_gamma 90.000000
_cell_volume 2982.857125
_symmetry_space_group_name_H-M "C C C A"
_symmetry_group_IT_number 68
_space_group.IT_coordinate_system_code '2'
_symmetry_cell_setting 'orthorhombic'
loop_
_space_group_symop_operation_xyz
x,y,z
-x,1/2-y,z
x,1/2-y,1/2-z
-x,y,1/2-z
-x,-y,-z
x,1/2+y,-z
-x,1/2+y,1/2+z
x,-y,1/2+z
1/2+x,1/2+y,z
1/2-x,-y,z
1/2+x,-y,1/2-z
1/2-x,1/2+y,1/2-z
1/2-x,1/2-y,-z
1/2+x,y,-z
1/2-x,y,1/2+z
1/2+x,1/2-y,1/2+z
loop_
_atom_site_type_symbol
_atom_site_label
_atom_site_fract_x
_atom_site_fract_y
_atom_site_fract_z
Si Si1 0.238464 0.306417 0.129436
Si Si2 0.394362 0.371448 0.187876
Si Si3 0.891585 0.084810 0.197080
Si Si4 0.000000 0.750000 0.250000
Si Si5 0.526063 0.401086 0.550515
O O1 0.211313 0.250000 0.250000
O O2 0.314752 0.341626 0.172203
O O3 0.180334 0.384506 0.129243
O O4 0.250000 0.250000 0.000000
O O5 0.395748 0.477538 0.193210
O O6 0.439169 0.322421 0.296444
O O7 0.440787 0.346798 0.064520
O O8 0.910849 0.099271 0.345262
O O9 0.955731 0.130758 0.120804
O O10 0.500000 0.500000 0.500000
#
# Coordination Sequence:
#
# PCOD9508914 Si02
#       5
#    16  16  16   4  16
#     4  12  27  45  64 101 145 191 243 304 375 451
#     4  11  23  42  67  98 134 184 232 302 370 451
#     4  10  22  43  70 100 138 185 242 300 384 461
#     4  12  24  40  72 102 138 174 244 308 374 448
#     4   9  19  39  69 100 130 174 240 300 365 448
#
# _framework density 22.796935999999999
#
# number of rings (size 3 to 8) (size 9 to 14) (size 15 to 20)
#    0.000    1.412    1.176    4.941    3.294    3.765 
#    0.000    8.235    0.000    0.000    0.000    0.000 
#    0.000    0.000    0.000    0.000    0.000    0.000 
#
# Total GULP energy -189312.780516 kJ/mol
# GULP energy per Si atom -5568.022956 kJ/mol
# Density = 2.274505 g / cm^3
# Si number density = 22.796936 Si / 1000 Ang^3
#
#
#
# Elastic Constant Matrix: (Units=GPa)
#
#
# Indices 1 2 3 4 5 6 
#
# 1 160.6866 43.3178 16.6236 0.0000 0.0000 0.0000
# 2 43.3178 92.3811 26.7463 0.0000 0.0000 0.0000
# 3 16.6236 26.7463 104.2313 0.0000 0.0000 0.0000
# 4 0.0000 0.0000 0.0000 24.5269 0.0000 0.0000
# 5 0.0000 0.0000 0.0000 0.0000 30.8977 0.0000
# 6 0.0000 0.0000 0.0000 0.0000 0.0000 41.7894
#
#
#
# Elastic Compliance Matrix: (Units=1/GPa)
#
#
# Indices 1 2 3 4 5 6 
#
# 1 0.007133 -0.003257 -0.000302 0.000000 0.000000 0.000000
# 2 -0.003257 0.013181 -0.002863 0.000000 0.000000 0.000000
# 3 -0.000302 -0.002863 0.010377 0.000000 0.000000 0.000000
# 4 0.000000 0.000000 0.000000 0.040771 0.000000 0.000000
# 5 0.000000 0.000000 0.000000 0.000000 0.032365 0.000000
# 6 0.000000 0.000000 0.000000 0.000000 0.000000 0.023930
#
#
# Mechanical properties :
#
#
# Convention : Reuss Voigt Hill
#
# Bulk Modulus (GPa) = 56.03237 58.96381 57.49809
# Shear Modulus (GPa) = 34.11844 37.48357 35.80100
#
# Velocity S-wave (km/s) = 3.87282 4.05932 3.96716
# Velocity P-wave (km/s) = 6.68061 6.92038 6.80155
#
# Compressibility (1/GPa) = 0.01784683
#
# Stress axis : x y z
#
# Youngs Moduli (GPa) = 140.20200 75.86765 96.36899
#
# Poissons Ratio (x) = 0.24711 0.02908
# Poissons Ratio (y) = 0.45665 0.27589
# Poissons Ratio (z) = 0.04231 0.21719
#
# Static dielectric constant tensor:
#      x y z
#    x 1.830630 0.000000 0.000000 
#    y 0.000000 2.102730 0.000000 
#    z 0.000000 0.000000 2.065650 
# 
# From -- ./inp_files/13022.got.cif
#   From: 2010.05.17/outbox.cif.g08.bks.cpg/sg68_7_cif.got.tgz:13022.got - 2010.06.03 18:57:09.
