data_PCOD9508262
_publ_section_title
;
Structure prediction by ZEFSAII (Michael W. Deem and Ramdas Pophale) SiO2 
 PCOD9508262
Probable space group: C C C A
;
_chemical_formula_sum "Si O2"
_cell_formula_units_Z 64
_cell_length_a 9.261646
_cell_length_b 25.533361
_cell_length_c 9.760496
_cell_angle_alpha 90.000000
_cell_angle_beta 90.000000
_cell_angle_gamma 90.000000
_cell_volume 2308.171374
_symmetry_space_group_name_H-M "C C C A"
_symmetry_group_IT_number 68
_space_group.IT_coordinate_system_code '2'
_symmetry_cell_setting 'orthorhombic'
loop_
_space_group_symop_operation_xyz
x,y,z
-x,1/2-y,z
x,1/2-y,1/2-z
-x,y,1/2-z
-x,-y,-z
x,1/2+y,-z
-x,1/2+y,1/2+z
x,-y,1/2+z
1/2+x,1/2+y,z
1/2-x,-y,z
1/2+x,-y,1/2-z
1/2-x,1/2+y,1/2-z
1/2-x,1/2-y,-z
1/2+x,y,-z
1/2-x,y,1/2+z
1/2+x,1/2-y,1/2+z
loop_
_atom_site_type_symbol
_atom_site_label
_atom_site_fract_x
_atom_site_fract_y
_atom_site_fract_z
Si Si1 0.750000 0.500000 0.666683
Si Si2 0.778833 0.250000 0.750000
Si Si3 0.500000 0.750000 0.970834
Si Si4 0.808816 0.661530 0.450786
Si Si5 0.500000 0.068162 0.750000
Si Si6 0.060103 0.906554 0.051658
O O1 0.648530 0.463785 0.756338
O O2 0.871014 0.463083 0.591083
O O3 0.725940 0.199860 0.659910
O O4 0.885105 0.225558 0.865091
O O5 0.591680 0.703537 0.035396
O O6 0.699626 0.629365 0.540579
O O7 0.919690 0.620407 0.377274
O O8 0.501601 0.094421 0.896632
#
# Coordination Sequence:
#
# PCOD9508262 Si02
#       6
#     8   8   8  16   8  16
#     4  12  28  50  76 108 160 194 264 316 386 460
#     4   7  16  40  64  99 129 198 240 289 383 436
#     4   7  16  38  62 101 126 195 238 290 372 435
#     4  10  21  43  71 102 152 187 256 304 387 441
#     4  12  28  48  72 117 144 209 256 310 390 446
#     4  12  26  47  72 112 153 201 252 328 369 473
#
# _framework density 27.727575999999999
#
# number of rings (size 3 to 8) (size 9 to 14) (size 15 to 20)
#    1.500    0.250    2.500    1.500    3.500    5.000 
#    0.000    0.000    0.000    1.500    0.000    0.000 
#    0.000    0.000    0.000    0.000    0.000    0.000 
#
# Total GULP energy -178300.833608 kJ/mol
# GULP energy per Si atom -5571.901050 kJ/mol
# Density = 2.766447 g / cm^3
# Si number density = 27.727576 Si / 1000 Ang^3
#
#
#
# Elastic Constant Matrix: (Units=GPa)
#
#
# Indices 1 2 3 4 5 6 
#
# 1 133.8602 31.9380 1.8716 0.0000 0.0000 0.0000
# 2 31.9380 109.3465 13.9232 0.0000 0.0000 0.0000
# 3 1.8716 13.9232 60.8820 0.0000 0.0000 0.0000
# 4 0.0000 0.0000 0.0000 -0.8165 0.0000 0.0000
# 5 0.0000 0.0000 0.0000 0.0000 41.8080 0.0000
# 6 0.0000 0.0000 0.0000 0.0000 0.0000 47.6000
#
#
#
# Elastic Compliance Matrix: (Units=1/GPa)
#
#
# Indices 1 2 3 4 5 6 
#
# 1 0.008035 -0.002385 0.000298 0.000000 0.000000 0.000000
# 2 -0.002385 0.010127 -0.002243 0.000000 0.000000 0.000000
# 3 0.000298 -0.002243 0.016929 0.000000 0.000000 0.000000
# 4 0.000000 0.000000 0.000000 -1.224799 0.000000 0.000000
# 5 0.000000 0.000000 0.000000 0.000000 0.023919 0.000000
# 6 0.000000 0.000000 0.000000 0.000000 0.000000 0.021008
#
#
# Mechanical properties :
#
#
# Convention : Reuss Voigt Hill
#
# Bulk Modulus (GPa) = 37.83133 44.39490 41.11312
# Shear Modulus (GPa) = -4.43534 34.80871 15.18669
#
# Velocity S-wave (km/s) = -1.26613 3.54698 2.34286
# Velocity P-wave (km/s) = 3.39649 5.72893 4.70939
#
# Compressibility (1/GPa) = 0.02643312
#
# Stress axis : x y z
#
# Youngs Moduli (GPa) = 124.45025 98.74196 59.07042
#
# Poissons Ratio (x) = 0.23550 -0.01763
# Poissons Ratio (y) = 0.29681 0.13248
# Poissons Ratio (z) = -0.03714 0.22145
#
# Static dielectric constant tensor:
#      x y z
#    x 2.094580 0.000000 0.000000 
#    y 0.000000 2.320500 0.000000 
#    z 0.000000 0.000000 2.251000 
# 
# From -- ./inp_files/11748.got.cif
#   From: 2010.05.17/outbox.cif.g08.bks.cpg/sg68_6_cif.got.tgz:11748.got - 2010.06.03 18:57:09.
