data_PCOD9508226
_publ_section_title
;
Structure prediction by ZEFSAII (Michael W. Deem and Ramdas Pophale) SiO2 
 PCOD9508226
Probable space group: C C C A
;
_chemical_formula_sum "Si O2"
_cell_formula_units_Z 80
_cell_length_a 25.569729
_cell_length_b 11.029434
_cell_length_c 12.414916
_cell_angle_alpha 90.000000
_cell_angle_beta 90.000000
_cell_angle_gamma 90.000000
_cell_volume 3501.250121
_symmetry_space_group_name_H-M "C C C A"
_symmetry_group_IT_number 68
_space_group.IT_coordinate_system_code '2'
_symmetry_cell_setting 'orthorhombic'
loop_
_space_group_symop_operation_xyz
x,y,z
-x,1/2-y,z
x,1/2-y,1/2-z
-x,y,1/2-z
-x,-y,-z
x,1/2+y,-z
-x,1/2+y,1/2+z
x,-y,1/2+z
1/2+x,1/2+y,z
1/2-x,-y,z
1/2+x,-y,1/2-z
1/2-x,1/2+y,1/2-z
1/2-x,1/2-y,-z
1/2+x,y,-z
1/2-x,y,1/2+z
1/2+x,1/2-y,1/2+z
loop_
_atom_site_type_symbol
_atom_site_label
_atom_site_fract_x
_atom_site_fract_y
_atom_site_fract_z
Si Si1 0.312219 0.243310 0.979809
Si Si2 0.594572 0.315954 0.641969
Si Si3 0.559894 0.780484 0.597467
Si Si4 0.311989 0.984483 0.889041
Si Si5 0.398166 0.563368 0.770059
O O1 0.343145 0.290987 0.874594
O O2 0.325190 0.098330 0.968883
O O3 0.250000 0.250000 0.000000
O O4 0.327198 0.353471 0.061292
O O5 0.577049 0.250000 0.750000
O O6 0.570409 0.275092 0.529072
O O7 0.580691 0.454824 0.659285
O O8 0.500000 0.750000 0.618853
O O9 0.570670 0.905797 0.660327
O O10 0.597044 0.681517 0.655892
O O11 0.342608 0.981850 0.776169
O O12 0.250000 0.000000 0.871321
#
# Coordination Sequence:
#
# PCOD9508226 Si02
#       5
#    16  16  16  16  16
#     4  10  22  43  71 105 155 201 253 308 377 462
#     4  12  26  45  74 108 151 192 254 314 382 451
#     4  11  28  53  77 109 148 201 259 323 400 465
#     4  10  21  42  72 112 147 202 252 313 382 457
#     4  11  24  47  78 103 148 194 250 318 380 459
#
# _framework density 22.848980999999998
#
# number of rings (size 3 to 8) (size 9 to 14) (size 15 to 20)
#    0.000    1.200    4.000    1.200    5.600    1.200 
#    7.200    0.000    0.000    0.000    0.000    0.000 
#    0.000    0.000    0.000    0.000    0.000    0.000 
#
# Total GULP energy -222767.625532 kJ/mol
# GULP energy per Si atom -5569.190638 kJ/mol
# Density = 2.279698 g / cm^3
# Si number density = 22.848981 Si / 1000 Ang^3
#
#
#
# Elastic Constant Matrix: (Units=GPa)
#
#
# Indices 1 2 3 4 5 6 
#
# 1 83.5621 34.1054 35.1692 0.0000 0.0000 0.0000
# 2 34.1054 139.8809 49.1798 0.0000 0.0000 0.0000
# 3 35.1692 49.1798 143.6061 0.0000 0.0000 0.0000
# 4 0.0000 0.0000 0.0000 36.1969 0.0000 0.0000
# 5 0.0000 0.0000 0.0000 0.0000 -19.8561 0.0000
# 6 0.0000 0.0000 0.0000 0.0000 0.0000 12.4752
#
#
#
# Elastic Compliance Matrix: (Units=1/GPa)
#
#
# Indices 1 2 3 4 5 6 
#
# 1 0.014086 -0.002526 -0.002585 0.000000 0.000000 0.000000
# 2 -0.002526 0.008580 -0.002320 0.000000 0.000000 0.000000
# 3 -0.002585 -0.002320 0.008391 0.000000 0.000000 0.000000
# 4 0.000000 0.000000 0.000000 0.027627 0.000000 0.000000
# 5 0.000000 0.000000 0.000000 0.000000 -0.050362 0.000000
# 6 0.000000 0.000000 0.000000 0.000000 0.000000 0.080159
#
#
# Mechanical properties :
#
#
# Convention : Reuss Voigt Hill
#
# Bulk Modulus (GPa) = 61.74116 67.10644 64.42380
# Shear Modulus (GPa) = 45.98117 22.33617 34.15867
#
# Velocity S-wave (km/s) = 4.49084 3.12998 3.87069
# Velocity P-wave (km/s) = 7.34644 6.51887 6.94500
#
# Compressibility (1/GPa) = 0.01619665
#
# Stress axis : x y z
#
# Youngs Moduli (GPa) = 70.99354 116.54496 119.17559
#
# Poissons Ratio (x) = 0.29435 0.30803
# Poissons Ratio (y) = 0.17930 0.27648
# Poissons Ratio (z) = 0.18350 0.27038
#
# Static dielectric constant tensor:
#      x y z
#    x 1.940370 0.000000 0.000000 
#    y 0.000000 1.898130 0.000000 
#    z 0.000000 0.000000 1.889670 
# 
# From -- ./inp_files/17562.got.cif
#   From: 2010.05.17/outbox.cif.g08.bks.cpg/sg68_9_cif.got.tgz:17562.got - 2010.06.03 18:57:09.
