data_PCOD9508027
_publ_section_title
;
Structure prediction by ZEFSAII (Michael W. Deem and Ramdas Pophale) SiO2 
 PCOD9508027
Probable space group: C C C A
;
_chemical_formula_sum "Si O2"
_cell_formula_units_Z 96
_cell_length_a 13.376817
_cell_length_b 13.723953
_cell_length_c 20.025239
_cell_angle_alpha 90.000000
_cell_angle_beta 90.000000
_cell_angle_gamma 90.000000
_cell_volume 3676.289602
_symmetry_space_group_name_H-M "C C C A"
_symmetry_group_IT_number 68
_space_group.IT_coordinate_system_code '2'
_symmetry_cell_setting 'orthorhombic'
loop_
_space_group_symop_operation_xyz
x,y,z
-x,1/2-y,z
x,1/2-y,1/2-z
-x,y,1/2-z
-x,-y,-z
x,1/2+y,-z
-x,1/2+y,1/2+z
x,-y,1/2+z
1/2+x,1/2+y,z
1/2-x,-y,z
1/2+x,-y,1/2-z
1/2-x,1/2+y,1/2-z
1/2-x,1/2-y,-z
1/2+x,y,-z
1/2-x,y,1/2+z
1/2+x,1/2-y,1/2+z
loop_
_atom_site_type_symbol
_atom_site_label
_atom_site_fract_x
_atom_site_fract_y
_atom_site_fract_z
Si Si1 0.418279 0.665985 0.980308
Si Si2 0.005356 0.853921 0.616347
Si Si3 0.277366 0.135078 0.240166
Si Si4 0.250000 0.000000 0.854884
Si Si5 0.500000 0.394900 0.250000
Si Si6 0.041595 0.558117 0.118094
Si Si7 0.775964 0.111468 0.412463
O O1 0.500000 0.750000 0.966793
O O2 0.469926 0.575140 0.943087
O O3 0.309284 0.676194 0.947879
O O4 0.419762 0.648705 0.059365
O O5 0.109676 0.859969 0.575214
O O6 0.000000 0.750000 0.652943
O O7 0.992094 0.956095 0.653275
O O8 0.294212 0.250000 0.250000
O O9 0.383336 0.078444 0.238420
O O10 0.230413 0.120887 0.167873
O O11 0.221830 0.088209 0.303678
O O12 0.157972 0.043938 0.895943
O O13 0.478587 0.359737 0.173626
O O14 0.750000 0.000000 0.430561
#
# Coordination Sequence:
#
# PCOD9508027 Si02
#       7
#    16  16  16   8   8  16  16
#     4  11  26  45  72 102 130 178 239 283 336 397
#     4  11  27  46  68 101 139 181 231 279 344 414
#     4  11  23  39  65  97 135 179 221 273 347 400
#     4  10  26  38  60 102 136 168 226 280 326 422
#     4  10  21  40  65 102 132 166 231 286 325 410
#     4  11  23  42  65  97 138 177 219 285 344 396
#     4  12  24  45  73  98 139 184 229 281 343 415
#
# _framework density 26.113287
#
# number of rings (size 3 to 8) (size 9 to 14) (size 15 to 20)
#    0.000    1.000    4.167    0.750    9.333    4.000 
#    0.000    0.417    0.000    0.000    0.000    0.000 
#    0.000    0.000    0.000    0.000    0.000    0.000 
#
# Total GULP energy -267668.090136 kJ/mol
# GULP energy per Si atom -5576.418544 kJ/mol
# Density = 2.605385 g / cm^3
# Si number density = 26.113287 Si / 1000 Ang^3
#
#
#
# Elastic Constant Matrix: (Units=GPa)
#
#
# Indices 1 2 3 4 5 6 
#
# 1 114.9378 12.3115 -8.0859 0.0000 0.0000 0.0000
# 2 12.3115 144.7802 -2.2540 0.0000 0.0000 0.0000
# 3 -8.0859 -2.2540 49.6962 0.0000 0.0000 0.0000
# 4 0.0000 0.0000 0.0000 15.6587 0.0000 0.0000
# 5 0.0000 0.0000 0.0000 0.0000 26.4205 0.0000
# 6 0.0000 0.0000 0.0000 0.0000 0.0000 32.8530
#
#
#
# Elastic Compliance Matrix: (Units=1/GPa)
#
#
# Indices 1 2 3 4 5 6 
#
# 1 0.008878 -0.000733 0.001411 0.000000 0.000000 0.000000
# 2 -0.000733 0.006972 0.000197 0.000000 0.000000 0.000000
# 3 0.001411 0.000197 0.020361 0.000000 0.000000 0.000000
# 4 0.000000 0.000000 0.000000 0.063862 0.000000 0.000000
# 5 0.000000 0.000000 0.000000 0.000000 0.037849 0.000000
# 6 0.000000 0.000000 0.000000 0.000000 0.000000 0.030439
#
#
# Mechanical properties :
#
#
# Convention : Reuss Voigt Hill
#
# Bulk Modulus (GPa) = 26.34214 34.81747 30.57981
# Shear Modulus (GPa) = 27.89165 35.48263 31.68714
#
# Velocity S-wave (km/s) = 3.27173 3.69018 3.48724
# Velocity P-wave (km/s) = 4.93779 5.61416 5.28680
#
# Compressibility (1/GPa) = 0.03796198
#
# Stress axis : x y z
#
# Youngs Moduli (GPa) = 112.63597 143.42230 49.11388
#
# Poissons Ratio (x) = 0.10513 -0.06931
# Poissons Ratio (y) = 0.08256 -0.00967
# Poissons Ratio (z) = -0.15896 -0.02825
#
# Static dielectric constant tensor:
#      x y z
#    x 2.085500 0.000000 0.000000 
#    y 0.000000 2.331040 0.000000 
#    z 0.000000 0.000000 2.045450 
# 
# From -- ./inp_files/45469.got.cif
#   From: 2010.05.17/outbox.cif.g08.bks.cpg/sg68_23_cif.got.tgz:45469.got - 2010.06.03 18:57:09.
