data_PCOD9508407
_publ_section_title
;
Structure prediction by ZEFSAII (Michael W. Deem and Ramdas Pophale) SiO2 
 PCOD9508407
Probable space group: C C C A
;
_chemical_formula_sum "Si O2"
_cell_formula_units_Z 104
_cell_length_a 8.512478
_cell_length_b 27.170976
_cell_length_c 19.911134
_cell_angle_alpha 90.000000
_cell_angle_beta 90.000000
_cell_angle_gamma 90.000000
_cell_volume 4605.292684
_symmetry_space_group_name_H-M "C C C A"
_symmetry_group_IT_number 68
_space_group.IT_coordinate_system_code '2'
_symmetry_cell_setting 'orthorhombic'
loop_
_space_group_symop_operation_xyz
x,y,z
-x,1/2-y,z
x,1/2-y,1/2-z
-x,y,1/2-z
-x,-y,-z
x,1/2+y,-z
-x,1/2+y,1/2+z
x,-y,1/2+z
1/2+x,1/2+y,z
1/2-x,-y,z
1/2+x,-y,1/2-z
1/2-x,1/2+y,1/2-z
1/2-x,1/2-y,-z
1/2+x,y,-z
1/2-x,y,1/2+z
1/2+x,1/2-y,1/2+z
loop_
_atom_site_type_symbol
_atom_site_label
_atom_site_fract_x
_atom_site_fract_y
_atom_site_fract_z
Si Si1 0.665040 0.682738 0.290085
Si Si2 0.765445 0.928099 0.662157
Si Si3 0.500000 0.415250 0.250000
Si Si4 0.990554 0.060002 0.551594
Si Si5 0.075850 0.960030 0.603985
Si Si6 0.817715 0.626278 0.122945
Si Si7 0.178273 0.270232 0.836760
O O1 0.500000 0.683594 0.250000
O O2 0.698041 0.629031 0.319508
O O3 0.791488 0.701822 0.234879
O O4 0.696290 0.726027 0.343278
O O5 0.648492 0.944355 0.721341
O O6 0.670779 0.935334 0.592513
O O7 0.925340 0.956623 0.652090
O O8 0.565267 0.384692 0.186166
O O9 0.964215 0.050205 0.474189
O O10 0.085353 0.109865 0.558402
O O11 0.097601 0.019427 0.592704
O O12 0.176615 0.912843 0.628536
O O13 0.781615 0.683329 0.116846
O O14 0.000000 0.250000 0.843772
#
# Coordination Sequence:
#
# PCOD9508407 Si02
#       7
#    16  16   8  16  16  16  16
#     4  11  22  35  59  93 128 166 212 258 308 387
#     4  11  22  39  64  92 133 164 209 268 322 379
#     4  10  22  38  57  90 132 168 194 248 323 408
#     4  10  23  43  67  92 118 168 232 260 315 384
#     4  11  23  42  68  92 120 169 226 275 305 373
#     4  11  22  39  64  93 131 163 213 271 320 372
#     4  11  21  35  62  88 125 174 214 250 308 393
#
# _framework density 22.582711
#
# number of rings (size 3 to 8) (size 9 to 14) (size 15 to 20)
#    0.000    1.231    1.538    6.462    2.154    2.462 
#    0.000   12.308    1.692   10.154    0.000    0.000 
#    0.000    0.000    0.000    0.000    0.000    0.000 
#
# Total GULP energy -289713.651548 kJ/mol
# GULP energy per Si atom -5571.416376 kJ/mol
# Density = 2.253131 g / cm^3
# Si number density = 22.582711 Si / 1000 Ang^3
#
#
#
# Elastic Constant Matrix: (Units=GPa)
#
#
# Indices 1 2 3 4 5 6 
#
# 1 88.9867 44.3630 4.5162 0.0000 0.0000 0.0000
# 2 44.3630 180.4730 26.8215 0.0000 0.0000 0.0000
# 3 4.5162 26.8215 33.8033 0.0000 0.0000 0.0000
# 4 0.0000 0.0000 0.0000 129.8496 0.0000 0.0000
# 5 0.0000 0.0000 0.0000 0.0000 9.1017 0.0000
# 6 0.0000 0.0000 0.0000 0.0000 0.0000 30.1151
#
#
#
# Elastic Compliance Matrix: (Units=1/GPa)
#
#
# Indices 1 2 3 4 5 6 
#
# 1 0.012831 -0.003287 0.000894 0.000000 0.000000 0.000000
# 2 -0.003287 0.007124 -0.005213 0.000000 0.000000 0.000000
# 3 0.000894 -0.005213 0.033600 0.000000 0.000000 0.000000
# 4 0.000000 0.000000 0.000000 0.007701 0.000000 0.000000
# 5 0.000000 0.000000 0.000000 0.000000 0.109870 0.000000
# 6 0.000000 0.000000 0.000000 0.000000 0.000000 0.033206
#
#
# Mechanical properties :
#
#
# Convention : Reuss Voigt Hill
#
# Bulk Modulus (GPa) = 26.08109 50.51825 38.29967
# Shear Modulus (GPa) = 21.52155 48.98409 35.25282
#
# Velocity S-wave (km/s) = 3.09043 4.66241 3.95530
# Velocity P-wave (km/s) = 4.93037 7.16959 6.15270
#
# Compressibility (1/GPa) = 0.03834196
#
# Stress axis : x y z
#
# Youngs Moduli (GPa) = 77.93694 140.37576 29.76186
#
# Poissons Ratio (x) = 0.46139 -0.02660
# Poissons Ratio (y) = 0.25617 0.15516
# Poissons Ratio (z) = -0.06966 0.73182
#
# Static dielectric constant tensor:
#      x y z
#    x 1.946930 0.000000 0.000000 
#    y 0.000000 1.945620 0.000000 
#    z 0.000000 0.000000 1.938140 
# 
# From -- ./inp_files/36560.got.cif
#   From: 2010.05.17/outbox.cif.g08.bks.cpg/sg68_19_cif.got.tgz:36560.got - 2010.06.03 18:57:09.
