data_PCOD9508461
_publ_section_title
;
Structure prediction by ZEFSAII (Michael W. Deem and Ramdas Pophale) SiO2 
 PCOD9508461
Probable space group: C C C A
;
_chemical_formula_sum "Si O2"
_cell_formula_units_Z 56
_cell_length_a 10.811518
_cell_length_b 7.235107
_cell_length_c 30.080325
_cell_angle_alpha 90.000000
_cell_angle_beta 90.000000
_cell_angle_gamma 90.000000
_cell_volume 2352.957908
_symmetry_space_group_name_H-M "C C C A"
_symmetry_group_IT_number 68
_space_group.IT_coordinate_system_code '2'
_symmetry_cell_setting 'orthorhombic'
loop_
_space_group_symop_operation_xyz
x,y,z
-x,1/2-y,z
x,1/2-y,1/2-z
-x,y,1/2-z
-x,-y,-z
x,1/2+y,-z
-x,1/2+y,1/2+z
x,-y,1/2+z
1/2+x,1/2+y,z
1/2-x,-y,z
1/2+x,-y,1/2-z
1/2-x,1/2+y,1/2-z
1/2-x,1/2-y,-z
1/2+x,y,-z
1/2-x,y,1/2+z
1/2+x,1/2-y,1/2+z
loop_
_atom_site_type_symbol
_atom_site_label
_atom_site_fract_x
_atom_site_fract_y
_atom_site_fract_z
Si Si1 0.860701 0.797872 0.931416
Si Si2 0.117747 0.499697 0.780599
Si Si3 0.256284 0.279047 0.662613
Si Si4 0.250000 0.000000 0.998848
O O1 0.780051 0.795209 0.886947
O O2 0.798490 0.652691 0.964916
O O3 0.000000 0.750000 0.918681
O O4 0.859451 0.971973 0.964683
O O5 0.250000 0.500000 0.754167
O O6 0.132319 0.810689 0.691792
O O7 0.359776 0.671784 0.814538
O O8 0.000000 0.483994 0.750000
O O9 0.250000 0.500000 0.660445
#
# Coordination Sequence:
#
# PCOD9508461 Si02
#       4
#    16  16  16   8
#     4  11  21  39  68 107 149 200 245 307 374 449
#     4   8  19  37  69 109 143 195 251 321 401 467
#     4   9  19  37  68 107 148 192 257 319 384 460
#     4  10  22  38  66 104 154 192 254 294 368 456
#
# _framework density 23.799831000000001
#
# number of rings (size 3 to 8) (size 9 to 14) (size 15 to 20)
#    1.714    0.571    1.429    2.571    0.000    1.143 
#    0.000    0.000    3.143    0.857   14.857    0.000 
#    0.000    0.000    0.000    0.000    0.000    0.000 
#
# Total GULP energy -156031.894975 kJ/mol
# GULP energy per Si atom -5572.567678 kJ/mol
# Density = 2.374566 g / cm^3
# Si number density = 23.799831 Si / 1000 Ang^3
#
#
#
# Elastic Constant Matrix: (Units=GPa)
#
#
# Indices 1 2 3 4 5 6 
#
# 1 133.9926 48.1667 92.7945 0.0000 0.0000 0.0000
# 2 48.1667 160.2259 78.2683 0.0000 0.0000 0.0000
# 3 92.7945 78.2683 220.4502 0.0000 0.0000 0.0000
# 4 0.0000 0.0000 0.0000 44.6010 0.0000 0.0000
# 5 0.0000 0.0000 0.0000 0.0000 41.4838 0.0000
# 6 0.0000 0.0000 0.0000 0.0000 0.0000 21.8584
#
#
#
# Elastic Compliance Matrix: (Units=1/GPa)
#
#
# Indices 1 2 3 4 5 6 
#
# 1 0.010732 -0.001233 -0.004079 0.000000 0.000000 0.000000
# 2 -0.001233 0.007692 -0.002212 0.000000 0.000000 0.000000
# 3 -0.004079 -0.002212 0.007039 0.000000 0.000000 0.000000
# 4 0.000000 0.000000 0.000000 0.022421 0.000000 0.000000
# 5 0.000000 0.000000 0.000000 0.000000 0.024106 0.000000
# 6 0.000000 0.000000 0.000000 0.000000 0.000000 0.045749
#
#
# Mechanical properties :
#
#
# Convention : Reuss Voigt Hill
#
# Bulk Modulus (GPa) = 96.03122 105.90308 100.96715
# Shear Modulus (GPa) = 36.69483 41.28459 38.98971
#
# Velocity S-wave (km/s) = 3.93085 4.16944 4.05190
# Velocity P-wave (km/s) = 7.81276 8.23244 8.02534
#
# Compressibility (1/GPa) = 0.01041328
#
# Stress axis : x y z
#
# Youngs Moduli (GPa) = 93.18310 129.99716 142.07312
#
# Poissons Ratio (x) = 0.16034 0.57957
# Poissons Ratio (y) = 0.11493 0.31426
# Poissons Ratio (z) = 0.38013 0.28755
#
# Static dielectric constant tensor:
#      x y z
#    x 2.001050 0.000000 0.000000 
#    y 0.000000 2.251560 0.000000 
#    z 0.000000 0.000000 1.878550 
# 
# From -- ./inp_files/48741.got.cif
#   From: 2010.05.17/outbox.cif.g08.bks.cpg/sg68_25_cif.got.tgz:48741.got - 2010.06.03 18:57:09.
