data_PCOD9508411
_publ_section_title
;
Structure prediction by ZEFSAII (Michael W. Deem and Ramdas Pophale) SiO2 
 PCOD9508411
Probable space group: C C C A
;
_chemical_formula_sum "Si O2"
_cell_formula_units_Z 120
_cell_length_a 19.929609
_cell_length_b 23.927134
_cell_length_c 12.901516
_cell_angle_alpha 90.000000
_cell_angle_beta 90.000000
_cell_angle_gamma 90.000000
_cell_volume 6152.196601
_symmetry_space_group_name_H-M "C C C A"
_symmetry_group_IT_number 68
_space_group.IT_coordinate_system_code '2'
_symmetry_cell_setting 'orthorhombic'
loop_
_space_group_symop_operation_xyz
x,y,z
-x,1/2-y,z
x,1/2-y,1/2-z
-x,y,1/2-z
-x,-y,-z
x,1/2+y,-z
-x,1/2+y,1/2+z
x,-y,1/2+z
1/2+x,1/2+y,z
1/2-x,-y,z
1/2+x,-y,1/2-z
1/2-x,1/2+y,1/2-z
1/2-x,1/2-y,-z
1/2+x,y,-z
1/2-x,y,1/2+z
1/2+x,1/2-y,1/2+z
loop_
_atom_site_type_symbol
_atom_site_label
_atom_site_fract_x
_atom_site_fract_y
_atom_site_fract_z
Si Si1 0.309414 0.402822 0.394474
Si Si2 0.833380 0.917410 0.161017
Si Si3 0.797093 0.327254 0.984749
Si Si4 0.549722 0.911388 0.993480
Si Si5 0.250000 0.500000 0.015905
Si Si6 0.027551 0.812243 0.865778
Si Si7 0.959368 0.491371 0.848925
Si Si8 0.175735 0.770263 0.866290
O O1 0.303575 0.400337 0.271155
O O2 0.250679 0.364726 0.441793
O O3 0.383978 0.388366 0.435505
O O4 0.297846 0.464916 0.440105
O O5 0.845262 0.864780 0.085991
O O6 0.786076 0.956676 0.091782
O O7 0.898011 0.953650 0.187038
O O8 0.742667 0.299629 0.907774
O O9 0.833780 0.281673 0.055040
O O10 0.512019 0.860295 0.050692
O O11 0.566403 0.956583 0.083463
O O12 0.505432 0.949013 0.915872
O O13 0.108639 0.807376 0.864421
O O14 0.000000 0.750000 0.890637
O O15 0.000000 0.825341 0.750000
O O16 0.000000 0.512511 0.750000
O O17 0.186356 0.750000 0.750000
#
# Coordination Sequence:
#
# PCOD9508411 Si02
#       8
#    16  16  16  16   8  16  16  16
#     4  11  20  40  60  86 125 159 194 251 301 368
#     4  11  22  38  60  91 121 160 205 246 305 372
#     4  10  24  38  61  91 121 161 198 253 316 371
#     4  11  23  40  62  88 121 163 203 249 311 360
#     4  10  22  38  58  88 122 158 200 244 298 354
#     4  11  23  41  64  90 120 156 206 261 307 358
#     4  11  23  40  61  87 125 163 203 250 300 373
#     4  11  21  41  63  88 121 156 205 257 312 365
#
# _framework density 19.505227999999999
#
# number of rings (size 3 to 8) (size 9 to 14) (size 15 to 20)
#    0.000    1.200    5.333    1.600    1.867    0.000 
#    0.000    1.333    0.000    2.000    0.000    0.000 
#    0.000    0.000    0.000    0.000    0.000    0.000 
#
# Total GULP energy -334872.529766 kJ/mol
# GULP energy per Si atom -5581.208829 kJ/mol
# Density = 1.946083 g / cm^3
# Si number density = 19.505228 Si / 1000 Ang^3
#
#
#
# Elastic Constant Matrix: (Units=GPa)
#
#
# Indices 1 2 3 4 5 6 
#
# 1 27.3684 -10.8376 2.5707 0.0000 0.0000 0.0000
# 2 -10.8376 49.2551 20.0040 0.0000 0.0000 0.0000
# 3 2.5707 20.0040 100.2910 0.0000 0.0000 0.0000
# 4 0.0000 0.0000 0.0000 16.5790 0.0000 0.0000
# 5 0.0000 0.0000 0.0000 0.0000 23.9868 0.0000
# 6 0.0000 0.0000 0.0000 0.0000 0.0000 58.3756
#
#
#
# Elastic Compliance Matrix: (Units=1/GPa)
#
#
# Indices 1 2 3 4 5 6 
#
# 1 0.040889 0.010253 -0.003093 0.000000 0.000000 0.000000
# 2 0.010253 0.024663 -0.005182 0.000000 0.000000 0.000000
# 3 -0.003093 -0.005182 0.011084 0.000000 0.000000 0.000000
# 4 0.000000 0.000000 0.000000 0.060317 0.000000 0.000000
# 5 0.000000 0.000000 0.000000 0.000000 0.041690 0.000000
# 6 0.000000 0.000000 0.000000 0.000000 0.000000 0.017130
#
#
# Mechanical properties :
#
#
# Convention : Reuss Voigt Hill
#
# Bulk Modulus (GPa) = 12.40825 22.26542 17.33683
# Shear Modulus (GPa) = 22.86430 30.80011 26.83221
#
# Velocity S-wave (km/s) = 3.42748 3.97806 3.71299
# Velocity P-wave (km/s) = 4.69455 5.70437 5.22392
#
# Compressibility (1/GPa) = 0.08059157
#
# Stress axis : x y z
#
# Youngs Moduli (GPa) = 24.45641 40.54648 90.22099
#
# Poissons Ratio (x) = -0.41572 0.27907
# Poissons Ratio (y) = -0.25075 0.46753
# Poissons Ratio (z) = 0.07565 0.21012
#
# Static dielectric constant tensor:
#      x y z
#    x 1.695730 0.000000 0.000000 
#    y 0.000000 1.698140 0.000000 
#    z 0.000000 0.000000 1.655990 
# 
# From -- ./inp_files/15799.got.cif
#   From: 2010.05.17/outbox.cif.g08.bks.cpg/sg68_8_cif.got.tgz:15799.got - 2010.06.03 18:57:09.
