data_PCOD9508615
_publ_section_title
;
Structure prediction by ZEFSAII (Michael W. Deem and Ramdas Pophale) SiO2 
 PCOD9508615
Probable space group: C C C A
;
_chemical_formula_sum "Si O2"
_cell_formula_units_Z 64
_cell_length_a 13.754486
_cell_length_b 19.448505
_cell_length_c 8.851759
_cell_angle_alpha 90.000000
_cell_angle_beta 90.000000
_cell_angle_gamma 90.000000
_cell_volume 2367.882619
_symmetry_space_group_name_H-M "C C C A"
_symmetry_group_IT_number 68
_space_group.IT_coordinate_system_code '2'
_symmetry_cell_setting 'orthorhombic'
loop_
_space_group_symop_operation_xyz
x,y,z
-x,1/2-y,z
x,1/2-y,1/2-z
-x,y,1/2-z
-x,-y,-z
x,1/2+y,-z
-x,1/2+y,1/2+z
x,-y,1/2+z
1/2+x,1/2+y,z
1/2-x,-y,z
1/2+x,-y,1/2-z
1/2-x,1/2+y,1/2-z
1/2-x,1/2-y,-z
1/2+x,y,-z
1/2-x,y,1/2+z
1/2+x,1/2-y,1/2+z
loop_
_atom_site_type_symbol
_atom_site_label
_atom_site_fract_x
_atom_site_fract_y
_atom_site_fract_z
Si Si1 0.819687 0.604193 0.518049
Si Si2 0.250000 0.500000 0.232205
Si Si3 0.500000 0.750000 0.750000
Si Si4 0.000000 0.750000 0.750000
Si Si5 0.012387 0.573261 0.428301
Si Si6 0.136648 0.818580 0.999442
O O1 0.806203 0.552966 0.375802
O O2 0.807411 0.554181 0.661821
O O3 0.932204 0.623837 0.501338
O O4 0.753795 0.673294 0.508042
O O5 0.423151 0.789729 0.642584
O O6 0.921091 0.708852 0.854481
O O7 0.000000 0.571542 0.250000
O O8 0.000000 0.500000 0.500000
O O9 0.116525 0.599587 0.481168
#
# Coordination Sequence:
#
# PCOD9508615 Si02
#       6
#    16   8   4   4  16  16
#     4  11  23  42  71 107 146 192 232 297 372 457
#     4  10  22  40  66 110 148 174 230 290 382 458
#     4  10  24  54  72  98 148 204 264 318 360 422
#     4  10  28  50  68 102 138 202 268 330 344 422
#     4  12  25  43  76 113 148 188 233 304 385 457
#     4  11  25  48  73  99 146 193 260 311 372 438
#
# _framework density 27.028365999999998
#
# number of rings (size 3 to 8) (size 9 to 14) (size 15 to 20)
#    0.000    1.000    1.250    6.000    5.250    0.000 
#    0.000    7.500    0.000    0.000    0.000    0.000 
#    0.000    0.000    0.000    0.000    0.000    0.000 
#
# Total GULP energy -179078.331671 kJ/mol
# GULP energy per Si atom -5596.197865 kJ/mol
# Density = 2.696685 g / cm^3
# Si number density = 27.028366 Si / 1000 Ang^3
#
#
#
# Elastic Constant Matrix: (Units=GPa)
#
#
# Indices 1 2 3 4 5 6 
#
# 1 129.5249 22.5316 31.4724 0.0000 0.0000 0.0000
# 2 22.5316 98.2335 39.4835 0.0000 0.0000 0.0000
# 3 31.4724 39.4835 165.1448 0.0000 0.0000 0.0000
# 4 0.0000 0.0000 0.0000 34.7138 0.0000 0.0000
# 5 0.0000 0.0000 0.0000 0.0000 25.8124 0.0000
# 6 0.0000 0.0000 0.0000 0.0000 0.0000 35.4399
#
#
#
# Elastic Compliance Matrix: (Units=1/GPa)
#
#
# Indices 1 2 3 4 5 6 
#
# 1 0.008265 -0.001397 -0.001241 0.000000 0.000000 0.000000
# 2 -0.001397 0.011498 -0.002483 0.000000 0.000000 0.000000
# 3 -0.001241 -0.002483 0.006885 0.000000 0.000000 0.000000
# 4 0.000000 0.000000 0.000000 0.028807 0.000000 0.000000
# 5 0.000000 0.000000 0.000000 0.000000 0.038741 0.000000
# 6 0.000000 0.000000 0.000000 0.000000 0.000000 0.028217
#
#
# Mechanical properties :
#
#
# Convention : Reuss Voigt Hill
#
# Bulk Modulus (GPa) = 60.94963 64.43089 62.69026
# Shear Modulus (GPa) = 36.19932 39.15428 37.67680
#
# Velocity S-wave (km/s) = 3.66363 3.81022 3.73764
# Velocity P-wave (km/s) = 6.36360 6.57625 6.47080
#
# Compressibility (1/GPa) = 0.01640699
#
# Stress axis : x y z
#
# Youngs Moduli (GPa) = 120.99069 86.97049 145.23434
#
# Poissons Ratio (x) = 0.12149 0.18026
# Poissons Ratio (y) = 0.16901 0.36059
# Poissons Ratio (z) = 0.15017 0.21593
#
# Static dielectric constant tensor:
#      x y z
#    x 2.195010 0.000000 0.000000 
#    y 0.000000 2.157420 0.000000 
#    z 0.000000 0.000000 2.079160 
# 
# From -- ./inp_files/5063.got.cif
#   From: 2010.05.17/outbox.cif.g08.bks.cpg/sg68_3_cif.got.tgz:5063.got - 2010.06.03 18:57:09.
