data_PCOD9508929
_publ_section_title
;
Structure prediction by ZEFSAII (Michael W. Deem and Ramdas Pophale) SiO2 
 PCOD9508929
Probable space group: C C C A
;
_chemical_formula_sum "Si O2"
_cell_formula_units_Z 56
_cell_length_a 13.658637
_cell_length_b 5.534571
_cell_length_c 29.477859
_cell_angle_alpha 90.000000
_cell_angle_beta 90.000000
_cell_angle_gamma 90.000000
_cell_volume 2228.369797
_symmetry_space_group_name_H-M "C C C A"
_symmetry_group_IT_number 68
_space_group.IT_coordinate_system_code '2'
_symmetry_cell_setting 'orthorhombic'
loop_
_space_group_symop_operation_xyz
x,y,z
-x,1/2-y,z
x,1/2-y,1/2-z
-x,y,1/2-z
-x,-y,-z
x,1/2+y,-z
-x,1/2+y,1/2+z
x,-y,1/2+z
1/2+x,1/2+y,z
1/2-x,-y,z
1/2+x,-y,1/2-z
1/2-x,1/2+y,1/2-z
1/2-x,1/2-y,-z
1/2+x,y,-z
1/2-x,y,1/2+z
1/2+x,1/2-y,1/2+z
loop_
_atom_site_type_symbol
_atom_site_label
_atom_site_fract_x
_atom_site_fract_y
_atom_site_fract_z
Si Si1 0.643463 0.389538 0.616065
Si Si2 0.000000 0.250000 0.833290
Si Si3 0.109549 0.634837 0.705399
Si Si4 0.609586 0.920567 0.484874
O O1 0.750000 0.500000 0.611307
O O2 0.558195 0.567872 0.634110
O O3 0.654568 0.201688 0.657176
O O4 0.613134 0.313550 0.565854
O O5 0.916486 0.355827 0.799994
O O6 0.158239 0.750000 0.750000
O O7 0.000000 0.750000 0.705159
O O8 0.652170 0.697339 0.514856
O O9 0.500000 0.000000 0.500000
#
# Coordination Sequence:
#
# PCOD9508929 Si02
#       4
#    16   8  16  16
#     4  11  25  42  66 105 139 184 237 297 365 441
#     4  10  22  43  72  92 138 188 230 300 359 432
#     4   9  21  41  68 102 132 181 237 287 360 427
#     4  10  23  41  68  99 135 186 237 298 364 434
#
# _framework density 25.130479000000001
#
# number of rings (size 3 to 8) (size 9 to 14) (size 15 to 20)
#    0.000    2.000    0.000    1.714   16.000   11.429 
#    5.143    0.000    0.000    0.000    0.000    0.000 
#    0.000    0.000    0.000    0.000    0.000    0.000 
#
# Total GULP energy -156023.418274 kJ/mol
# GULP energy per Si atom -5572.264938 kJ/mol
# Density = 2.507328 g / cm^3
# Si number density = 25.130479 Si / 1000 Ang^3
#
#
#
# Elastic Constant Matrix: (Units=GPa)
#
#
# Indices 1 2 3 4 5 6 
#
# 1 74.2849 -14.2469 11.2580 0.0000 0.0000 0.0000
# 2 -14.2469 86.1787 26.4514 0.0000 0.0000 0.0000
# 3 11.2580 26.4514 203.5015 0.0000 0.0000 0.0000
# 4 0.0000 0.0000 0.0000 11.5830 0.0000 0.0000
# 5 0.0000 0.0000 0.0000 0.0000 -69.8842 0.0000
# 6 0.0000 0.0000 0.0000 0.0000 0.0000 21.8664
#
#
#
# Elastic Compliance Matrix: (Units=1/GPa)
#
#
# Indices 1 2 3 4 5 6 
#
# 1 0.014148 0.002686 -0.001132 0.000000 0.000000 0.000000
# 2 0.002686 0.012596 -0.001786 0.000000 0.000000 0.000000
# 3 -0.001132 -0.001786 0.005209 0.000000 0.000000 0.000000
# 4 0.000000 0.000000 0.000000 0.086333 0.000000 0.000000
# 5 0.000000 0.000000 0.000000 0.000000 -0.014309 0.000000
# 6 0.000000 0.000000 0.000000 0.000000 0.000000 0.045732
#
#
# Mechanical properties :
#
#
# Convention : Reuss Voigt Hill
#
# Bulk Modulus (GPa) = 31.75558 45.65445 38.70501
# Shear Modulus (GPa) = 31.11985 15.41322 23.26653
#
# Velocity S-wave (km/s) = 3.52281 2.47923 3.04605
# Velocity P-wave (km/s) = 5.40469 5.13827 5.27316
#
# Compressibility (1/GPa) = 0.03149053
#
# Stress axis : x y z
#
# Youngs Moduli (GPa) = 70.67913 79.38991 191.98587
#
# Poissons Ratio (x) = -0.21327 0.21731
# Poissons Ratio (y) = -0.18987 0.34286
# Poissons Ratio (z) = 0.08000 0.14178
#
# Static dielectric constant tensor:
#      x y z
#    x 2.114410 0.000000 0.000000 
#    y 0.000000 3.284420 0.000000 
#    z 0.000000 0.000000 2.041500 
# 
# From -- ./inp_files/52751.got.cif
#   From: 2010.05.17/outbox.cif.g08.bks.cpg/sg68_27_cif.got.tgz:52751.got - 2010.06.03 18:57:09.
