data_PCOD9508670
_publ_section_title
;
Structure prediction by ZEFSAII (Michael W. Deem and Ramdas Pophale) SiO2 
 PCOD9508670
Probable space group: C C C A
;
_chemical_formula_sum "Si O2"
_cell_formula_units_Z 48
_cell_length_a 28.746963
_cell_length_b 13.512140
_cell_length_c 4.845571
_cell_angle_alpha 90.000000
_cell_angle_beta 90.000000
_cell_angle_gamma 90.000000
_cell_volume 1882.179625
_symmetry_space_group_name_H-M "C C C A"
_symmetry_group_IT_number 68
_space_group.IT_coordinate_system_code '2'
_symmetry_cell_setting 'orthorhombic'
loop_
_space_group_symop_operation_xyz
x,y,z
-x,1/2-y,z
x,1/2-y,1/2-z
-x,y,1/2-z
-x,-y,-z
x,1/2+y,-z
-x,1/2+y,1/2+z
x,-y,1/2+z
1/2+x,1/2+y,z
1/2-x,-y,z
1/2+x,-y,1/2-z
1/2-x,1/2+y,1/2-z
1/2-x,1/2-y,-z
1/2+x,y,-z
1/2-x,y,1/2+z
1/2+x,1/2-y,1/2+z
loop_
_atom_site_type_symbol
_atom_site_label
_atom_site_fract_x
_atom_site_fract_y
_atom_site_fract_z
Si Si1 0.634068 0.182839 0.510341
Si Si2 0.052326 0.434261 0.296958
Si Si3 0.278438 0.370623 0.253556
O O1 0.657700 0.250000 0.750000
O O2 0.591636 0.134958 0.674222
O O3 0.671478 0.105987 0.383629
O O4 0.618936 0.250000 0.250000
O O5 0.056655 0.465031 0.614695
O O6 0.000000 0.395908 0.250000
O O7 0.280104 0.250000 0.250000
O O8 0.235809 0.400795 0.449536
#
# Coordination Sequence:
#
# PCOD9508670 Si02
#       3
#    16  16  16
#     4  11  21  34  58  89 113 140 188 242 280 319
#     4  10  22  41  60  78 109 153 189 222 282 353
#     4   9  16  28  48  77 112 145 177 219 274 333
#
# _framework density 25.50235
#
# number of rings (size 3 to 8) (size 9 to 14) (size 15 to 20)
#    0.000    2.000    0.000    7.000    0.000    0.667 
#    0.000    1.667    0.000    6.000    0.000    0.000 
#    0.000    0.000    0.000    0.000    0.000    0.000 
#
# Total GULP energy -134284.005029 kJ/mol
# GULP energy per Si atom -5595.166876 kJ/mol
# Density = 2.544431 g / cm^3
# Si number density = 25.502350 Si / 1000 Ang^3
#
#
#
# Elastic Constant Matrix: (Units=GPa)
#
#
# Indices 1 2 3 4 5 6 
#
# 1 166.8414 25.2156 25.8408 0.0000 0.0000 0.0000
# 2 25.2156 50.1347 -8.3156 0.0000 0.0000 0.0000
# 3 25.8408 -8.3156 122.2715 0.0000 0.0000 0.0000
# 4 0.0000 0.0000 0.0000 25.8820 0.0000 0.0000
# 5 0.0000 0.0000 0.0000 0.0000 48.3887 0.0000
# 6 0.0000 0.0000 0.0000 0.0000 0.0000 28.6852
#
#
#
# Elastic Compliance Matrix: (Units=1/GPa)
#
#
# Indices 1 2 3 4 5 6 
#
# 1 0.006816 -0.003709 -0.001693 0.000000 0.000000 0.000000
# 2 -0.003709 0.022192 0.002293 0.000000 0.000000 0.000000
# 3 -0.001693 0.002293 0.008692 0.000000 0.000000 0.000000
# 4 0.000000 0.000000 0.000000 0.038637 0.000000 0.000000
# 5 0.000000 0.000000 0.000000 0.000000 0.020666 0.000000
# 6 0.000000 0.000000 0.000000 0.000000 0.000000 0.034861
#
#
# Mechanical properties :
#
#
# Convention : Reuss Voigt Hill
#
# Bulk Modulus (GPa) = 31.76300 47.19214 39.47757
# Shear Modulus (GPa) = 33.65255 40.35830 37.00542
#
# Velocity S-wave (km/s) = 3.63655 3.98242 3.81341
# Velocity P-wave (km/s) = 5.48768 6.30011 5.90788
#
# Compressibility (1/GPa) = 0.03148317
#
# Stress axis : x y z
#
# Youngs Moduli (GPa) = 146.70291 45.06091 115.04513
#
# Poissons Ratio (x) = 0.16714 0.19475
# Poissons Ratio (y) = 0.54415 -0.26382
# Poissons Ratio (z) = 0.24835 -0.10333
#
# Static dielectric constant tensor:
#      x y z
#    x 2.045490 0.000000 0.000000 
#    y 0.000000 2.125090 0.000000 
#    z 0.000000 0.000000 1.948430 
# 
# From -- ./inp_files/645.got.cif
#   From: 2010.05.17/outbox.cif.g08.bks.cpg/sg68_1_cif.got.tgz:645.got - 2010.06.03 18:57:09.
