data_PCOD9508832
_publ_section_title
;
Structure prediction by ZEFSAII (Michael W. Deem and Ramdas Pophale) SiO2 
 PCOD9508832
Probable space group: C C C A
;
_chemical_formula_sum "Si O2"
_cell_formula_units_Z 88
_cell_length_a 12.236560
_cell_length_b 24.831422
_cell_length_c 13.332210
_cell_angle_alpha 90.000000
_cell_angle_beta 90.000000
_cell_angle_gamma 90.000000
_cell_volume 4051.007810
_symmetry_space_group_name_H-M "C C C A"
_symmetry_group_IT_number 68
_space_group.IT_coordinate_system_code '2'
_symmetry_cell_setting 'orthorhombic'
loop_
_space_group_symop_operation_xyz
x,y,z
-x,1/2-y,z
x,1/2-y,1/2-z
-x,y,1/2-z
-x,-y,-z
x,1/2+y,-z
-x,1/2+y,1/2+z
x,-y,1/2+z
1/2+x,1/2+y,z
1/2-x,-y,z
1/2+x,-y,1/2-z
1/2-x,1/2+y,1/2-z
1/2-x,1/2-y,-z
1/2+x,y,-z
1/2-x,y,1/2+z
1/2+x,1/2-y,1/2+z
loop_
_atom_site_type_symbol
_atom_site_label
_atom_site_fract_x
_atom_site_fract_y
_atom_site_fract_z
Si Si1 0.624652 0.409645 0.786275
Si Si2 0.388790 0.281298 0.427473
Si Si3 0.918243 0.049385 0.995711
Si Si4 0.750000 0.000000 0.342764
Si Si5 0.255824 0.817290 0.377373
Si Si6 0.474852 0.872128 0.853289
O O1 0.500000 0.408209 0.750000
O O2 0.629570 0.433538 0.898450
O O3 0.689157 0.453652 0.720669
O O4 0.670363 0.348230 0.794951
O O5 0.500000 0.250000 0.464303
O O6 0.326878 0.310836 0.519776
O O7 0.302132 0.241507 0.374450
O O8 0.440115 0.322429 0.348019
O O9 0.828744 0.033222 0.915304
O O10 0.988582 0.097395 0.951500
O O11 0.000000 0.000000 0.000000
O O12 0.148462 0.855027 0.373858
O O13 0.500000 0.903641 0.750000
#
# Coordination Sequence:
#
# PCOD9508832 Si02
#       6
#    16  16  16   8  16  16
#     4  12  26  46  70 108 143 181 243 287 353 434
#     4   9  20  43  69 100 134 180 234 286 354 422
#     4  12  27  45  69 103 145 190 230 297 349 418
#     4  12  28  46  72 100 144 192 230 288 358 424
#     4  10  22  42  69  97 137 183 225 292 357 410
#     4  11  24  43  71 101 137 181 244 284 344 425
#
# _framework density 21.722989999999999
#
# number of rings (size 3 to 8) (size 9 to 14) (size 15 to 20)
#    0.000    1.091    3.636    1.636    7.636    3.273 
#    3.273    1.818    0.000    0.000    0.000    0.000 
#    0.000    0.000    0.000    0.000    0.000    0.000 
#
# Total GULP energy -245525.918491 kJ/mol
# GULP energy per Si atom -5580.134511 kJ/mol
# Density = 2.167355 g / cm^3
# Si number density = 21.722990 Si / 1000 Ang^3
#
#
#
# Elastic Constant Matrix: (Units=GPa)
#
#
# Indices 1 2 3 4 5 6 
#
# 1 136.9706 51.6908 58.4276 0.0000 0.0000 0.0000
# 2 51.6908 69.5537 27.3522 0.0000 0.0000 0.0000
# 3 58.4276 27.3522 108.7530 0.0000 0.0000 0.0000
# 4 0.0000 0.0000 0.0000 39.1852 0.0000 0.0000
# 5 0.0000 0.0000 0.0000 0.0000 25.3882 0.0000
# 6 0.0000 0.0000 0.0000 0.0000 0.0000 28.6314
#
#
#
# Elastic Compliance Matrix: (Units=1/GPa)
#
#
# Indices 1 2 3 4 5 6 
#
# 1 0.011941 -0.007049 -0.004643 0.000000 0.000000 0.000000
# 2 -0.007049 0.020116 -0.001272 0.000000 0.000000 0.000000
# 3 -0.004643 -0.001272 0.012009 0.000000 0.000000 0.000000
# 4 0.000000 0.000000 0.000000 0.025520 0.000000 0.000000
# 5 0.000000 0.000000 0.000000 0.000000 0.039388 0.000000
# 6 0.000000 0.000000 0.000000 0.000000 0.000000 0.034927
#
#
# Mechanical properties :
#
#
# Convention : Reuss Voigt Hill
#
# Bulk Modulus (GPa) = 55.12893 65.57982 60.35437
# Shear Modulus (GPa) = 28.42905 30.49473 29.46189
#
# Velocity S-wave (km/s) = 3.62153 3.75080 3.68673
# Velocity P-wave (km/s) = 6.55138 7.00090 6.77987
#
# Compressibility (1/GPa) = 0.01813930
#
# Stress axis : x y z
#
# Youngs Moduli (GPa) = 83.74223 49.71090 83.26771
#
# Poissons Ratio (x) = 0.35040 0.38659
# Poissons Ratio (y) = 0.59029 0.10595
# Poissons Ratio (z) = 0.38879 0.06325
#
# Static dielectric constant tensor:
#      x y z
#    x 1.762810 0.000000 0.000000 
#    y 0.000000 1.866350 0.000000 
#    z 0.000000 0.000000 1.730530 
# 
# From -- ./inp_files/21123.got.cif
#   From: 2010.05.17/outbox.cif.g08.bks.cpg/sg68_11_cif.got.tgz:21123.got - 2010.06.03 18:57:09.
