data_PCOD9508130
_publ_section_title
;
Structure prediction by ZEFSAII (Michael W. Deem and Ramdas Pophale) SiO2 
 PCOD9508130
Probable space group: C C C A
;
_chemical_formula_sum "Si O2"
_cell_formula_units_Z 48
_cell_length_a 8.420598
_cell_length_b 7.193408
_cell_length_c 33.973920
_cell_angle_alpha 90.000000
_cell_angle_beta 90.000000
_cell_angle_gamma 90.000000
_cell_volume 2057.895360
_symmetry_space_group_name_H-M "C C C A"
_symmetry_group_IT_number 68
_space_group.IT_coordinate_system_code '2'
_symmetry_cell_setting 'orthorhombic'
loop_
_space_group_symop_operation_xyz
x,y,z
-x,1/2-y,z
x,1/2-y,1/2-z
-x,y,1/2-z
-x,-y,-z
x,1/2+y,-z
-x,1/2+y,1/2+z
x,-y,1/2+z
1/2+x,1/2+y,z
1/2-x,-y,z
1/2+x,-y,1/2-z
1/2-x,1/2+y,1/2-z
1/2-x,1/2-y,-z
1/2+x,y,-z
1/2-x,y,1/2+z
1/2+x,1/2-y,1/2+z
loop_
_atom_site_type_symbol
_atom_site_label
_atom_site_fract_x
_atom_site_fract_y
_atom_site_fract_z
Si Si1 0.937736 0.534110 0.125441
Si Si2 0.064004 0.957886 0.456512
Si Si3 0.437768 0.534537 0.708474
O O1 0.750000 0.500000 0.124427
O O2 0.000000 0.750000 0.126465
O O3 0.003217 0.453186 0.084309
O O4 0.997705 0.456765 0.167177
O O5 0.000000 0.750000 0.451950
O O6 0.250000 0.000000 0.457758
O O7 0.000000 0.000000 0.500000
O O8 0.500000 0.750000 0.708682
O O9 0.500000 0.457153 0.750000
O O10 0.250000 0.500000 0.708099
#
# Coordination Sequence:
#
# PCOD9508130 Si02
#       3
#    16  16  16
#     4  10  22  42  65  95 129 169 213 264 319 380
#     4  11  23  41  64  95 129 169 214 265 320 381
#     4  10  21  41  65  95 129 169 213 263 318 380
#
# _framework density 23.324801000000001
#
# number of rings (size 3 to 8) (size 9 to 14) (size 15 to 20)
#    0.000    1.667    0.000    4.000    0.000    2.667 
#    0.000   36.667    0.000    0.000    0.000    0.000 
#    0.000    0.000    0.000    0.000    0.000    0.000 
#
# Total GULP energy -133799.780292 kJ/mol
# GULP energy per Si atom -5574.990845 kJ/mol
# Density = 2.327171 g / cm^3
# Si number density = 23.324801 Si / 1000 Ang^3
#
#
#
# Elastic Constant Matrix: (Units=GPa)
#
#
# Indices 1 2 3 4 5 6 
#
# 1 300.0306 41.9027 142.4444 0.0000 0.0000 0.0000
# 2 41.9027 150.9668 25.8822 0.0000 0.0000 0.0000
# 3 142.4444 25.8822 370.0944 0.0000 0.0000 0.0000
# 4 0.0000 0.0000 0.0000 -16.8917 0.0000 0.0000
# 5 0.0000 0.0000 0.0000 0.0000 74.4514 0.0000
# 6 0.0000 0.0000 0.0000 0.0000 0.0000 38.7648
#
#
#
# Elastic Compliance Matrix: (Units=1/GPa)
#
#
# Indices 1 2 3 4 5 6 
#
# 1 0.004195 -0.000898 -0.001552 0.000000 0.000000 0.000000
# 2 -0.000898 0.006897 -0.000137 0.000000 0.000000 0.000000
# 3 -0.001552 -0.000137 0.003309 0.000000 0.000000 0.000000
# 4 0.000000 0.000000 0.000000 -0.059201 0.000000 0.000000
# 5 0.000000 0.000000 0.000000 0.000000 0.013432 0.000000
# 6 0.000000 0.000000 0.000000 0.000000 0.000000 0.025797
#
#
# Mechanical properties :
#
#
# Convention : Reuss Voigt Hill
#
# Bulk Modulus (GPa) = 108.37460 137.95004 123.16232
# Shear Modulus (GPa) = 1867.30084 59.98907 963.64495
#
# Velocity S-wave (km/s) = 28.32494 5.07689 20.34794
# Velocity P-wave (km/s) = 33.41109 9.67667 24.59612
#
# Compressibility (1/GPa) = 0.00922725
#
# Stress axis : x y z
#
# Youngs Moduli (GPa) = 238.36571 144.99603 302.21948
#
# Poissons Ratio (x) = 0.13026 0.46900
# Poissons Ratio (y) = 0.21414 0.04127
# Poissons Ratio (z) = 0.36991 0.01980
#
# Static dielectric constant tensor:
#      x y z
#    x 1.923290 0.000000 0.000000 
#    y 0.000000 1.230380 0.000000 
#    z 0.000000 0.000000 1.957240 
# 
# From -- ./inp_files/53601.got.cif
#   From: 2010.05.17/outbox.cif.g08.bks.cpg/sg68_27_cif.got.tgz:53601.got - 2010.06.03 18:57:09.
