data_PCOD9508087
_publ_section_title
;
Structure prediction by ZEFSAII (Michael W. Deem and Ramdas Pophale) SiO2 
 PCOD9508087
Probable space group: C C C A
;
_chemical_formula_sum "Si O2"
_cell_formula_units_Z 80
_cell_length_a 11.850512
_cell_length_b 10.409228
_cell_length_c 26.482843
_cell_angle_alpha 90.000000
_cell_angle_beta 90.000000
_cell_angle_gamma 90.000000
_cell_volume 3266.782659
_symmetry_space_group_name_H-M "C C C A"
_symmetry_group_IT_number 68
_space_group.IT_coordinate_system_code '2'
_symmetry_cell_setting 'orthorhombic'
loop_
_space_group_symop_operation_xyz
x,y,z
-x,1/2-y,z
x,1/2-y,1/2-z
-x,y,1/2-z
-x,-y,-z
x,1/2+y,-z
-x,1/2+y,1/2+z
x,-y,1/2+z
1/2+x,1/2+y,z
1/2-x,-y,z
1/2+x,-y,1/2-z
1/2-x,1/2+y,1/2-z
1/2-x,1/2-y,-z
1/2+x,y,-z
1/2-x,y,1/2+z
1/2+x,1/2-y,1/2+z
loop_
_atom_site_type_symbol
_atom_site_label
_atom_site_fract_x
_atom_site_fract_y
_atom_site_fract_z
Si Si1 0.123567 0.690322 0.141874
Si Si2 0.521876 0.439059 0.844982
Si Si3 0.115006 0.991858 0.054410
Si Si4 0.859720 0.202591 0.529500
Si Si5 0.670009 0.792455 0.307499
O O1 0.166331 0.654946 0.085865
O O2 0.207830 0.790095 0.167489
O O3 0.000000 0.750000 0.138308
O O4 0.100663 0.557732 0.170447
O O5 0.466527 0.462758 0.900247
O O6 0.411226 0.414865 0.811001
O O7 0.601774 0.315571 0.839564
O O8 0.250000 0.000000 0.068792
O O9 0.085320 0.843614 0.040883
O O10 0.102540 0.087290 0.007166
O O11 0.750000 0.250000 0.500000
O O12 0.677610 0.750000 0.250000
#
# Coordination Sequence:
#
# PCOD9508087 Si02
#       5
#    16  16  16  16  16
#     4  12  26  49  73 111 155 195 255 315 385 461
#     4  11  24  47  78 106 151 195 250 319 387 454
#     4  10  21  40  70 108 151 206 253 310 375 456
#     4  10  22  42  68 107 154 202 257 308 371 458
#     4  11  27  53  76 111 148 194 258 328 400 469
#
# _framework density 24.488924999999998
#
# number of rings (size 3 to 8) (size 9 to 14) (size 15 to 20)
#    0.000    1.200    2.000    4.200    0.000    9.200 
#   18.000    0.000    0.000    0.000    0.000    0.000 
#    0.000    0.000    0.000    0.000    0.000    0.000 
#
# Total GULP energy -223558.630884 kJ/mol
# GULP energy per Si atom -5588.965772 kJ/mol
# Density = 2.443319 g / cm^3
# Si number density = 24.488925 Si / 1000 Ang^3
#
#
#
# Elastic Constant Matrix: (Units=GPa)
#
#
# Indices 1 2 3 4 5 6 
#
# 1 117.6702 15.3022 34.4984 0.0000 0.0000 0.0000
# 2 15.3022 89.4950 11.8178 0.0000 0.0000 0.0000
# 3 34.4984 11.8178 116.9822 0.0000 0.0000 0.0000
# 4 0.0000 0.0000 0.0000 17.8465 0.0000 0.0000
# 5 0.0000 0.0000 0.0000 0.0000 16.5821 0.0000
# 6 0.0000 0.0000 0.0000 0.0000 0.0000 36.9967
#
#
#
# Elastic Compliance Matrix: (Units=1/GPa)
#
#
# Indices 1 2 3 4 5 6 
#
# 1 0.009442 -0.001264 -0.002657 0.000000 0.000000 0.000000
# 2 -0.001264 0.011494 -0.000789 0.000000 0.000000 0.000000
# 3 -0.002657 -0.000789 0.009411 0.000000 0.000000 0.000000
# 4 0.000000 0.000000 0.000000 0.056033 0.000000 0.000000
# 5 0.000000 0.000000 0.000000 0.000000 0.060306 0.000000
# 6 0.000000 0.000000 0.000000 0.000000 0.000000 0.027029
#
#
# Mechanical properties :
#
#
# Convention : Reuss Voigt Hill
#
# Bulk Modulus (GPa) = 47.77959 49.70936 48.74448
# Shear Modulus (GPa) = 26.30061 31.78700 29.04380
#
# Velocity S-wave (km/s) = 3.28072 3.60671 3.44757
# Velocity P-wave (km/s) = 5.82270 6.13899 5.98294
#
# Compressibility (1/GPa) = 0.02092944
#
# Stress axis : x y z
#
# Youngs Moduli (GPa) = 105.91509 87.00210 106.25375
#
# Poissons Ratio (x) = 0.10993 0.28228
# Poissons Ratio (y) = 0.13383 0.08378
# Poissons Ratio (z) = 0.28138 0.06860
#
# Static dielectric constant tensor:
#      x y z
#    x 2.105900 0.000000 0.000000 
#    y 0.000000 1.985720 0.000000 
#    z 0.000000 0.000000 1.876480 
# 
# From -- ./inp_files/45157.got.cif
#   From: 2010.05.17/outbox.cif.g08.bks.cpg/sg68_23_cif.got.tgz:45157.got - 2010.06.03 18:57:09.
