data_PCOD9508908
_publ_section_title
;
Structure prediction by ZEFSAII (Michael W. Deem and Ramdas Pophale) SiO2 
 PCOD9508908
Probable space group: C C C A
;
_chemical_formula_sum "Si O2"
_cell_formula_units_Z 60
_cell_length_a 10.626815
_cell_length_b 17.066487
_cell_length_c 13.703364
_cell_angle_alpha 90.000000
_cell_angle_beta 90.000000
_cell_angle_gamma 90.000000
_cell_volume 2485.274984
_symmetry_space_group_name_H-M "C C C A"
_symmetry_group_IT_number 68
_space_group.IT_coordinate_system_code '2'
_symmetry_cell_setting 'orthorhombic'
loop_
_space_group_symop_operation_xyz
x,y,z
-x,1/2-y,z
x,1/2-y,1/2-z
-x,y,1/2-z
-x,-y,-z
x,1/2+y,-z
-x,1/2+y,1/2+z
x,-y,1/2+z
1/2+x,1/2+y,z
1/2-x,-y,z
1/2+x,-y,1/2-z
1/2-x,1/2+y,1/2-z
1/2-x,1/2-y,-z
1/2+x,y,-z
1/2-x,y,1/2+z
1/2+x,1/2-y,1/2+z
loop_
_atom_site_type_symbol
_atom_site_label
_atom_site_fract_x
_atom_site_fract_y
_atom_site_fract_z
Si Si1 0.430200 0.439199 0.152220
Si Si2 0.250000 0.500000 0.994262
Si Si3 0.000000 0.250000 0.250000
Si Si4 0.829611 0.651488 0.081753
Si Si5 0.274061 0.811312 0.357854
O O1 0.500000 0.470749 0.250000
O O2 0.369620 0.495575 0.069155
O O3 0.532113 0.380642 0.104071
O O4 0.313711 0.381769 0.178447
O O5 0.256000 0.426240 0.921760
O O6 0.092446 0.194519 0.308255
O O7 0.792274 0.725822 0.146272
O O8 0.809077 0.677070 0.970661
#
# Coordination Sequence:
#
# PCOD9508908 Si02
#       5
#    16   8   4  16  16
#     4  11  23  44  66  98 135 177 222 279 337 405
#     4  10  24  42  64 104 128 184 222 264 354 406
#     4  12  24  40  62 108 130 164 220 304 320 400
#     4  10  22  43  69  93 134 177 222 275 333 416
#     4  10  24  39  67 103 128 173 230 275 346 387
#
# _framework density 24.142199000000002
#
# number of rings (size 3 to 8) (size 9 to 14) (size 15 to 20)
#    0.000    1.600    0.000    3.200   11.200    2.133 
#    9.600    0.000    0.000    0.000    0.000    0.000 
#    0.000    0.000    0.000    0.000    0.000    0.000 
#
# Total GULP energy -167515.713301 kJ/mol
# GULP energy per Si atom -5583.857110 kJ/mol
# Density = 2.408725 g / cm^3
# Si number density = 24.142199 Si / 1000 Ang^3
#
#
#
# Elastic Constant Matrix: (Units=GPa)
#
#
# Indices 1 2 3 4 5 6 
#
# 1 95.8473 5.8275 13.7725 0.0000 0.0000 0.0000
# 2 5.8275 77.9336 21.8837 0.0000 0.0000 0.0000
# 3 13.7725 21.8837 36.6725 0.0000 0.0000 0.0000
# 4 0.0000 0.0000 0.0000 34.4369 0.0000 0.0000
# 5 0.0000 0.0000 0.0000 0.0000 7.2647 0.0000
# 6 0.0000 0.0000 0.0000 0.0000 0.0000 71.7490
#
#
#
# Elastic Compliance Matrix: (Units=1/GPa)
#
#
# Indices 1 2 3 4 5 6 
#
# 1 0.011039 0.000407 -0.004389 0.000000 0.000000 0.000000
# 2 0.000407 0.015429 -0.009360 0.000000 0.000000 0.000000
# 3 -0.004389 -0.009360 0.034502 0.000000 0.000000 0.000000
# 4 0.000000 0.000000 0.000000 0.029039 0.000000 0.000000
# 5 0.000000 0.000000 0.000000 0.000000 0.137651 0.000000
# 6 0.000000 0.000000 0.000000 0.000000 0.000000 0.013937
#
#
# Mechanical properties :
#
#
# Convention : Reuss Voigt Hill
#
# Bulk Modulus (GPa) = 29.16557 32.60231 30.88394
# Shear Modulus (GPa) = 17.87564 33.95477 25.91520
#
# Velocity S-wave (km/s) = 2.72404 3.75433 3.27989
# Velocity P-wave (km/s) = 4.69050 5.68568 5.21190
#
# Compressibility (1/GPa) = 0.03428700
#
# Stress axis : x y z
#
# Youngs Moduli (GPa) = 90.58686 64.81184 28.98386
#
# Poissons Ratio (x) = -0.02637 0.12720
# Poissons Ratio (y) = -0.03686 0.27129
# Poissons Ratio (z) = 0.39755 0.60664
#
# Static dielectric constant tensor:
#      x y z
#    x 1.900630 0.000000 0.000000 
#    y 0.000000 2.011980 0.000000 
#    z 0.000000 0.000000 2.001250 
# 
# From -- ./inp_files/27736.got.cif
#   From: 2010.05.17/outbox.cif.g08.bks.cpg/sg68_14_cif.got.tgz:27736.got - 2010.06.03 18:57:09.
