data_PCOD9508426
_publ_section_title
;
Structure prediction by ZEFSAII (Michael W. Deem and Ramdas Pophale) SiO2 
 PCOD9508426
Probable space group: C C C A
;
_chemical_formula_sum "Si O2"
_cell_formula_units_Z 84
_cell_length_a 9.059013
_cell_length_b 16.485452
_cell_length_c 22.455105
_cell_angle_alpha 90.000000
_cell_angle_beta 90.000000
_cell_angle_gamma 90.000000
_cell_volume 3353.488584
_symmetry_space_group_name_H-M "C C C A"
_symmetry_group_IT_number 68
_space_group.IT_coordinate_system_code '2'
_symmetry_cell_setting 'orthorhombic'
loop_
_space_group_symop_operation_xyz
x,y,z
-x,1/2-y,z
x,1/2-y,1/2-z
-x,y,1/2-z
-x,-y,-z
x,1/2+y,-z
-x,1/2+y,1/2+z
x,-y,1/2+z
1/2+x,1/2+y,z
1/2-x,-y,z
1/2+x,-y,1/2-z
1/2-x,1/2+y,1/2-z
1/2-x,1/2-y,-z
1/2+x,y,-z
1/2-x,y,1/2+z
1/2+x,1/2-y,1/2+z
loop_
_atom_site_type_symbol
_atom_site_label
_atom_site_fract_x
_atom_site_fract_y
_atom_site_fract_z
Si Si1 0.029324 0.154137 0.100650
Si Si2 0.500000 0.250000 0.750000
Si Si3 0.500000 0.119145 0.250000
Si Si4 0.996298 0.108239 0.965501
Si Si5 0.663708 0.806394 0.861180
Si Si6 0.274277 0.135868 0.823711
Si Si7 0.750000 0.500000 0.475816
O O1 0.184696 0.142589 0.132784
O O2 0.000000 0.250000 0.109185
O O3 0.897649 0.102073 0.130012
O O4 0.040030 0.142563 0.030112
O O5 0.384778 0.186439 0.779881
O O6 0.415343 0.168623 0.199297
O O7 0.644717 0.086632 0.211326
O O8 0.927794 0.169775 0.919209
O O9 0.864135 0.046994 0.981647
O O10 0.140913 0.061624 0.942131
O O11 0.697368 0.711284 0.858040
#
# Coordination Sequence:
#
# PCOD9508426 Si02
#       7
#    16   4   8  16  16  16   8
#     4  10  22  38  60  93 133 162 194 257 331 382
#     4  12  16  34  52  76 134 188 208 214 300 390
#     4  12  23  34  58  92 131 171 208 240 301 386
#     4  11  23  43  65  92 117 164 211 266 321 373
#     4  11  21  36  57  90 124 161 205 249 306 380
#     4  11  20  34  55  87 134 175 199 245 304 392
#     4  10  24  44  66  86 114 166 222 264 308 370
#
# _framework density 25.048542000000001
#
# number of rings (size 3 to 8) (size 9 to 14) (size 15 to 20)
#    0.000    1.143    6.667    1.143    2.667    4.571 
#    0.000    0.000    0.000    1.143    0.000    0.000 
#    0.000    0.000    0.000    0.000    0.000    0.000 
#
# Total GULP energy -234388.877098 kJ/mol
# GULP energy per Si atom -5580.687550 kJ/mol
# Density = 2.499153 g / cm^3
# Si number density = 25.048542 Si / 1000 Ang^3
#
#
#
# Elastic Constant Matrix: (Units=GPa)
#
#
# Indices 1 2 3 4 5 6 
#
# 1 212.4434 37.0249 61.3302 0.0000 0.0000 0.0000
# 2 37.0249 25.8357 13.3322 0.0000 0.0000 0.0000
# 3 61.3302 13.3322 120.7155 0.0000 0.0000 0.0000
# 4 0.0000 0.0000 0.0000 2.3575 0.0000 0.0000
# 5 0.0000 0.0000 0.0000 0.0000 52.1101 0.0000
# 6 0.0000 0.0000 0.0000 0.0000 0.0000 33.7532
#
#
#
# Elastic Compliance Matrix: (Units=1/GPa)
#
#
# Indices 1 2 3 4 5 6 
#
# 1 0.006958 -0.008640 -0.002581 0.000000 0.000000 0.000000
# 2 -0.008640 0.051773 -0.001329 0.000000 0.000000 0.000000
# 3 -0.002581 -0.001329 0.009742 0.000000 0.000000 0.000000
# 4 0.000000 0.000000 0.000000 0.424176 0.000000 0.000000
# 5 0.000000 0.000000 0.000000 0.000000 0.019190 0.000000
# 6 0.000000 0.000000 0.000000 0.000000 0.000000 0.029627
#
#
# Mechanical properties :
#
#
# Convention : Reuss Voigt Hill
#
# Bulk Modulus (GPa) = 23.05480 64.70768 43.88124
# Shear Modulus (GPa) = 8.60553 34.13132 21.36843
#
# Velocity S-wave (km/s) = 1.85553 3.69536 2.92392
# Velocity P-wave (km/s) = 3.71681 6.64052 5.38104
#
# Compressibility (1/GPa) = 0.04337491
#
# Stress axis : x y z
#
# Youngs Moduli (GPa) = 143.72158 19.31507 102.64962
#
# Poissons Ratio (x) = 0.16687 0.26492
# Poissons Ratio (y) = 1.24168 0.13638
# Poissons Ratio (z) = 0.37092 0.02566
#
# Static dielectric constant tensor:
#      x y z
#    x 1.832610 0.000000 0.000000 
#    y 0.000000 2.016910 0.000000 
#    z 0.000000 0.000000 2.065550 
# 
# From -- ./inp_files/36232.got.cif
#   From: 2010.05.17/outbox.cif.g08.bks.cpg/sg68_19_cif.got.tgz:36232.got - 2010.06.03 18:57:09.
