data_PCOD9508265
_publ_section_title
;
Structure prediction by ZEFSAII (Michael W. Deem and Ramdas Pophale) SiO2 
 PCOD9508265
Probable space group: C C C A
;
_chemical_formula_sum "Si O2"
_cell_formula_units_Z 88
_cell_length_a 25.986281
_cell_length_b 13.651251
_cell_length_c 11.626198
_cell_angle_alpha 90.000000
_cell_angle_beta 90.000000
_cell_angle_gamma 90.000000
_cell_volume 4124.338452
_symmetry_space_group_name_H-M "C C C A"
_symmetry_group_IT_number 68
_space_group.IT_coordinate_system_code '2'
_symmetry_cell_setting 'orthorhombic'
loop_
_space_group_symop_operation_xyz
x,y,z
-x,1/2-y,z
x,1/2-y,1/2-z
-x,y,1/2-z
-x,-y,-z
x,1/2+y,-z
-x,1/2+y,1/2+z
x,-y,1/2+z
1/2+x,1/2+y,z
1/2-x,-y,z
1/2+x,-y,1/2-z
1/2-x,1/2+y,1/2-z
1/2-x,1/2-y,-z
1/2+x,y,-z
1/2-x,y,1/2+z
1/2+x,1/2-y,1/2+z
loop_
_atom_site_type_symbol
_atom_site_label
_atom_site_fract_x
_atom_site_fract_y
_atom_site_fract_z
Si Si1 0.645576 0.655407 0.335198
Si Si2 0.646191 0.696446 0.974317
Si Si3 0.719190 0.403683 0.652284
Si Si4 0.798166 0.750000 0.250000
Si Si5 0.534878 0.936871 0.146243
Si Si6 0.527504 0.651823 0.933426
O O1 0.640606 0.750000 0.250000
O O2 0.656880 0.700230 0.460332
O O3 0.688641 0.590381 0.273589
O O4 0.592652 0.598392 0.339985
O O5 0.666347 0.696593 0.844111
O O6 0.584989 0.677784 0.977194
O O7 0.678508 0.621141 0.052389
O O8 0.750000 0.500000 0.624657
O O9 0.760219 0.317882 0.675363
O O10 0.500000 0.901113 0.250000
O O11 0.533793 0.054956 0.143388
O O12 0.509571 0.888207 0.034267
O O13 0.500000 0.750000 0.886919
#
# Coordination Sequence:
#
# PCOD9508265 Si02
#       6
#    16  16  16   8  16  16
#     4  10  21  43  73 100 135 184 243 298 348 424
#     4  11  24  46  69  97 144 183 237 288 356 430
#     4  11  25  44  72 103 137 181 239 295 355 411
#     4  12  26  44  67  98 137 192 222 288 354 412
#     4  11  24  41  72 102 134 180 239 284 356 426
#     4  11  25  45  66 102 141 183 223 292 360 420
#
# _framework density 21.336755
#
# number of rings (size 3 to 8) (size 9 to 14) (size 15 to 20)
#    0.000    1.091    4.545    2.727    2.545    4.000 
#    0.000    0.000    0.000    0.000    0.000    0.000 
#    0.000    0.000    0.000    0.000    0.000    0.000 
#
# Total GULP energy -245875.969501 kJ/mol
# GULP energy per Si atom -5588.090216 kJ/mol
# Density = 2.128819 g / cm^3
# Si number density = 21.336755 Si / 1000 Ang^3
#
#
#
# Elastic Constant Matrix: (Units=GPa)
#
#
# Indices 1 2 3 4 5 6 
#
# 1 133.2215 50.6031 17.7269 0.0000 0.0000 0.0000
# 2 50.6031 72.2777 11.9971 0.0000 0.0000 0.0000
# 3 17.7269 11.9971 55.6645 0.0000 0.0000 0.0000
# 4 0.0000 0.0000 0.0000 5.8315 0.0000 0.0000
# 5 0.0000 0.0000 0.0000 0.0000 24.5365 0.0000
# 6 0.0000 0.0000 0.0000 0.0000 0.0000 35.9187
#
#
#
# Elastic Compliance Matrix: (Units=1/GPa)
#
#
# Indices 1 2 3 4 5 6 
#
# 1 0.010398 -0.006980 -0.001807 0.000000 0.000000 0.000000
# 2 -0.006980 0.019034 -0.001880 0.000000 0.000000 0.000000
# 3 -0.001807 -0.001880 0.018945 0.000000 0.000000 0.000000
# 4 0.000000 0.000000 0.000000 0.171483 0.000000 0.000000
# 5 0.000000 0.000000 0.000000 0.000000 0.040756 0.000000
# 6 0.000000 0.000000 0.000000 0.000000 0.000000 0.027841
#
#
# Mechanical properties :
#
#
# Convention : Reuss Voigt Hill
#
# Bulk Modulus (GPa) = 36.97585 46.86867 41.92226
# Shear Modulus (GPa) = 15.68361 25.31312 20.49836
#
# Velocity S-wave (km/s) = 2.71412 3.44810 3.10289
# Velocity P-wave (km/s) = 5.21433 6.15356 5.70331
#
# Compressibility (1/GPa) = 0.02704468
#
# Stress axis : x y z
#
# Youngs Moduli (GPa) = 96.17230 52.53677 52.78351
#
# Poissons Ratio (x) = 0.36670 0.09538
# Poissons Ratio (y) = 0.67127 0.09921
# Poissons Ratio (z) = 0.17378 0.09874
#
# Static dielectric constant tensor:
#      x y z
#    x 1.735660 0.000000 0.000000 
#    y 0.000000 1.775740 0.000000 
#    z 0.000000 0.000000 1.770060 
# 
# From -- ./inp_files/13338.got.cif
#   From: 2010.05.17/outbox.cif.g08.bks.cpg/sg68_7_cif.got.tgz:13338.got - 2010.06.03 18:57:09.
