data_PCOD9508440
_publ_section_title
;
Structure prediction by ZEFSAII (Michael W. Deem and Ramdas Pophale) SiO2 
 PCOD9508440
Probable space group: C C C A
;
_chemical_formula_sum "Si O2"
_cell_formula_units_Z 72
_cell_length_a 4.774458
_cell_length_b 25.812657
_cell_length_c 21.535498
_cell_angle_alpha 90.000000
_cell_angle_beta 90.000000
_cell_angle_gamma 90.000000
_cell_volume 2654.065929
_symmetry_space_group_name_H-M "C C C A"
_symmetry_group_IT_number 68
_space_group.IT_coordinate_system_code '2'
_symmetry_cell_setting 'orthorhombic'
loop_
_space_group_symop_operation_xyz
x,y,z
-x,1/2-y,z
x,1/2-y,1/2-z
-x,y,1/2-z
-x,-y,-z
x,1/2+y,-z
-x,1/2+y,1/2+z
x,-y,1/2+z
1/2+x,1/2+y,z
1/2-x,-y,z
1/2+x,-y,1/2-z
1/2-x,1/2+y,1/2-z
1/2-x,1/2-y,-z
1/2+x,y,-z
1/2-x,y,1/2+z
1/2+x,1/2-y,1/2+z
loop_
_atom_site_type_symbol
_atom_site_label
_atom_site_fract_x
_atom_site_fract_y
_atom_site_fract_z
Si Si1 0.648017 0.344466 0.183630
Si Si2 0.362662 0.696993 0.117130
Si Si3 0.549028 0.046107 0.373529
Si Si4 0.404875 0.593078 0.042039
Si Si5 0.750000 0.000000 0.248286
O O1 0.500000 0.351213 0.250000
O O2 0.450204 0.306891 0.142397
O O3 0.667827 0.397910 0.144433
O O4 0.951421 0.319751 0.176809
O O5 0.500000 0.750000 0.093897
O O6 0.381442 0.651730 0.065503
O O7 0.258183 0.057213 0.408516
O O8 0.493870 0.024401 0.303411
O O9 0.750000 0.000000 0.397977
O O10 0.721238 0.583810 0.020322
O O11 0.500000 0.951862 0.250000
#
# Coordination Sequence:
#
# PCOD9508440 Si02
#       5
#    16  16  16  16   8
#     4  11  23  42  67 100 138 180 223 281 351 424
#     4  11  25  44  67  98 135 175 231 294 352 427
#     4   9  23  44  64 101 138 179 231 283 334 419
#     4  11  24  44  69  98 134 181 236 295 355 410
#     4  10  22  38  62  92 128 174 222 268 334 414
#
# _framework density 27.128188000000002
#
# number of rings (size 3 to 8) (size 9 to 14) (size 15 to 20)
#    0.667    0.889    0.000    4.667    0.000   11.556 
#    0.000    0.000    0.000    0.000    0.000    0.000 
#    0.000    0.000    0.000    0.000    0.000    0.000 
#
# Total GULP energy -201091.237144 kJ/mol
# GULP energy per Si atom -5585.867698 kJ/mol
# Density = 2.706644 g / cm^3
# Si number density = 27.128188 Si / 1000 Ang^3
#
#
#
# Elastic Constant Matrix: (Units=GPa)
#
#
# Indices 1 2 3 4 5 6 
#
# 1 199.1649 41.4812 -5.9344 0.0000 0.0000 0.0000
# 2 41.4812 199.0270 38.8823 0.0000 0.0000 0.0000
# 3 -5.9344 38.8823 102.4180 0.0000 0.0000 0.0000
# 4 0.0000 0.0000 0.0000 23.5749 0.0000 0.0000
# 5 0.0000 0.0000 0.0000 0.0000 40.4083 0.0000
# 6 0.0000 0.0000 0.0000 0.0000 0.0000 43.2135
#
#
#
# Elastic Compliance Matrix: (Units=1/GPa)
#
#
# Indices 1 2 3 4 5 6 
#
# 1 0.005307 -0.001260 0.000786 0.000000 0.000000 0.000000
# 2 -0.001260 0.005726 -0.002247 0.000000 0.000000 0.000000
# 3 0.000786 -0.002247 0.010662 0.000000 0.000000 0.000000
# 4 0.000000 0.000000 0.000000 0.042418 0.000000 0.000000
# 5 0.000000 0.000000 0.000000 0.000000 0.024747 0.000000
# 6 0.000000 0.000000 0.000000 0.000000 0.000000 0.023141
#
#
# Mechanical properties :
#
#
# Convention : Reuss Voigt Hill
#
# Bulk Modulus (GPa) = 61.52437 72.16312 66.84374
# Shear Modulus (GPa) = 40.69657 49.85139 45.27398
#
# Velocity S-wave (km/s) = 3.87739 4.29140 4.08964
# Velocity P-wave (km/s) = 6.54018 7.15635 6.85519
#
# Compressibility (1/GPa) = 0.01625372
#
# Stress axis : x y z
#
# Youngs Moduli (GPa) = 188.44108 174.64562 93.78752
#
# Poissons Ratio (x) = 0.21997 -0.07368
# Poissons Ratio (y) = 0.23734 0.21072
# Poissons Ratio (z) = -0.14805 0.39239
#
# Static dielectric constant tensor:
#      x y z
#    x 2.183210 0.000000 0.000000 
#    y 0.000000 2.033560 0.000000 
#    z 0.000000 0.000000 2.239370 
# 
# From -- ./inp_files/48296.got.cif
#   From: 2010.05.17/outbox.cif.g08.bks.cpg/sg68_25_cif.got.tgz:48296.got - 2010.06.03 18:57:09.
