data_PCOD9508144
_publ_section_title
;
Structure prediction by ZEFSAII (Michael W. Deem and Ramdas Pophale) SiO2 
 PCOD9508144
Probable space group: C C C A
;
_chemical_formula_sum "Si O2"
_cell_formula_units_Z 88
_cell_length_a 30.524735
_cell_length_b 5.383815
_cell_length_c 25.095175
_cell_angle_alpha 90.000000
_cell_angle_beta 90.000000
_cell_angle_gamma 90.000000
_cell_volume 4124.129169
_symmetry_space_group_name_H-M "C C C A"
_symmetry_group_IT_number 68
_space_group.IT_coordinate_system_code '2'
_symmetry_cell_setting 'orthorhombic'
loop_
_space_group_symop_operation_xyz
x,y,z
-x,1/2-y,z
x,1/2-y,1/2-z
-x,y,1/2-z
-x,-y,-z
x,1/2+y,-z
-x,1/2+y,1/2+z
x,-y,1/2+z
1/2+x,1/2+y,z
1/2-x,-y,z
1/2+x,-y,1/2-z
1/2-x,1/2+y,1/2-z
1/2-x,1/2-y,-z
1/2+x,y,-z
1/2-x,y,1/2+z
1/2+x,1/2-y,1/2+z
loop_
_atom_site_type_symbol
_atom_site_label
_atom_site_fract_x
_atom_site_fract_y
_atom_site_fract_z
Si Si1 0.750000 0.500000 0.533774
Si Si2 0.500000 0.250000 0.464346
Si Si3 0.250000 0.000000 0.872402
Si Si4 0.823997 0.682377 0.104810
Si Si5 0.424079 0.290296 0.377682
Si Si6 0.687301 0.181511 0.810802
Si Si7 0.911346 0.795185 0.686006
O O1 0.750000 0.750000 0.500000
O O2 0.794967 0.504837 0.568940
O O3 0.500000 0.500000 0.500000
O O4 0.458505 0.262348 0.424918
O O5 0.293425 0.919816 0.902819
O O6 0.231303 0.781666 0.836665
O O7 0.875221 0.709352 0.096261
O O8 0.820401 0.594165 0.166712
O O9 0.428580 0.551559 0.345591
O O10 0.429037 0.055554 0.337216
O O11 0.691627 0.250000 0.750000
O O12 0.640931 0.307749 0.826209
O O13 0.916755 0.750000 0.750000
#
# Coordination Sequence:
#
# PCOD9508144 Si02
#       7
#     8   8   8  16  16  16  16
#     4  12  27  41  62  86 120 168 225 275 328 394
#     4  12  28  52  79 108 129 162 234 302 352 414
#     4  12  19  35  58  88 136 176 225 261 322 370
#     4  11  24  41  61  91 134 174 221 277 333 399
#     4  11  24  45  72  99 137 180 218 287 352 396
#     4  10  22  34  58  93 135 184 226 267 317 383
#     4  10  21  41  67 104 144 185 223 263 325 419
#
# _framework density 21.337837
#
# number of rings (size 3 to 8) (size 9 to 14) (size 15 to 20)
#    0.000    1.091    3.636    2.182    2.545    1.455 
#    0.000    2.727    0.000    0.000    0.000    0.000 
#    0.000    0.000    0.000    0.000    0.000    0.000 
#
# Total GULP energy -245231.670122 kJ/mol
# GULP energy per Si atom -5573.447048 kJ/mol
# Density = 2.128927 g / cm^3
# Si number density = 21.337837 Si / 1000 Ang^3
#
#
#
# Elastic Constant Matrix: (Units=GPa)
#
#
# Indices 1 2 3 4 5 6 
#
# 1 149.1984 52.6900 77.7353 0.0000 0.0000 0.0000
# 2 52.6900 153.6994 68.4540 0.0000 0.0000 0.0000
# 3 77.7353 68.4540 115.4980 0.0000 0.0000 0.0000
# 4 0.0000 0.0000 0.0000 26.2939 0.0000 0.0000
# 5 0.0000 0.0000 0.0000 0.0000 -12.1108 0.0000
# 6 0.0000 0.0000 0.0000 0.0000 0.0000 22.0559
#
#
#
# Elastic Compliance Matrix: (Units=1/GPa)
#
#
# Indices 1 2 3 4 5 6 
#
# 1 0.010364 -0.000606 -0.006616 0.000000 0.000000 0.000000
# 2 -0.000606 0.008875 -0.004852 0.000000 0.000000 0.000000
# 3 -0.006616 -0.004852 0.015987 0.000000 0.000000 0.000000
# 4 0.000000 0.000000 0.000000 0.038032 0.000000 0.000000
# 5 0.000000 0.000000 0.000000 0.000000 -0.082571 0.000000
# 6 0.000000 0.000000 0.000000 0.000000 0.000000 0.045339
#
#
# Mechanical properties :
#
#
# Convention : Reuss Voigt Hill
#
# Bulk Modulus (GPa) = 90.27741 90.68383 90.48062
# Shear Modulus (GPa) = 78.28901 21.88223 50.08562
#
# Velocity S-wave (km/s) = 6.06382 3.20584 4.85012
# Velocity P-wave (km/s) = 9.56174 7.50297 8.59423
#
# Compressibility (1/GPa) = 0.01107697
#
# Stress axis : x y z
#
# Youngs Moduli (GPa) = 96.49205 112.67572 62.55217
#
# Poissons Ratio (x) = 0.06831 0.41383
# Poissons Ratio (y) = 0.05850 0.30351
# Poissons Ratio (z) = 0.63837 0.54671
#
# Static dielectric constant tensor:
#      x y z
#    x 1.778350 0.000000 0.000000 
#    y 0.000000 1.882660 0.000000 
#    z 0.000000 0.000000 1.840150 
# 
# From -- ./inp_files/47501.got.cif
#   From: 2010.05.17/outbox.cif.g08.bks.cpg/sg68_24_cif.got.tgz:47501.got - 2010.06.03 18:57:09.
