data_PCOD9508875
_publ_section_title
;
Structure prediction by ZEFSAII (Michael W. Deem and Ramdas Pophale) SiO2 
 PCOD9508875
Probable space group: C C C A
;
_chemical_formula_sum "Si O2"
_cell_formula_units_Z 64
_cell_length_a 19.732075
_cell_length_b 5.546694
_cell_length_c 27.621425
_cell_angle_alpha 90.000000
_cell_angle_beta 90.000000
_cell_angle_gamma 90.000000
_cell_volume 3023.103702
_symmetry_space_group_name_H-M "C C C A"
_symmetry_group_IT_number 68
_space_group.IT_coordinate_system_code '2'
_symmetry_cell_setting 'orthorhombic'
loop_
_space_group_symop_operation_xyz
x,y,z
-x,1/2-y,z
x,1/2-y,1/2-z
-x,y,1/2-z
-x,-y,-z
x,1/2+y,-z
-x,1/2+y,1/2+z
x,-y,1/2+z
1/2+x,1/2+y,z
1/2-x,-y,z
1/2+x,-y,1/2-z
1/2-x,1/2+y,1/2-z
1/2-x,1/2-y,-z
1/2+x,y,-z
1/2-x,y,1/2+z
1/2+x,1/2-y,1/2+z
loop_
_atom_site_type_symbol
_atom_site_label
_atom_site_fract_x
_atom_site_fract_y
_atom_site_fract_z
Si Si1 0.000000 0.750000 0.842752
Si Si2 0.000000 0.750000 0.470312
Si Si3 0.750000 0.500000 0.312641
Si Si4 0.103772 0.410549 0.705909
Si Si5 0.250000 0.500000 0.874490
Si Si6 0.102556 0.606182 0.393050
O O1 0.948819 0.613722 0.807501
O O2 0.048558 0.596217 0.877593
O O3 0.066745 0.747530 0.436278
O O4 0.000000 0.500000 0.500000
O O5 0.819693 0.507028 0.282999
O O6 0.754607 0.250230 0.343601
O O7 0.079959 0.250000 0.750000
O O8 0.107760 0.262902 0.655794
O O9 0.178703 0.483793 0.903005
#
# Coordination Sequence:
#
# PCOD9508875 Si02
#       6
#     8   8   8  16   8  16
#     4  12  21  45  69  98 146 187 240 295 351 408
#     4  12  27  46  76 106 141 187 238 303 380 438
#     4  10  22  43  64 103 142 198 238 281 342 427
#     4  11  25  41  70 103 146 191 242 290 349 422
#     4  10  22  43  74 101 138 190 236 293 354 421
#     4  11  24  44  70 105 141 187 240 297 355 433
#
# _framework density 21.170294999999999
#
# number of rings (size 3 to 8) (size 9 to 14) (size 15 to 20)
#    0.000    1.000    5.000    0.750    0.000    8.000 
#    0.000    1.250    0.000    0.000    0.000    0.000 
#    0.000    0.000    0.000    0.000    0.000    0.000 
#
# Total GULP energy -178830.661308 kJ/mol
# GULP energy per Si atom -5588.458166 kJ/mol
# Density = 2.112211 g / cm^3
# Si number density = 21.170295 Si / 1000 Ang^3
#
#
#
# Elastic Constant Matrix: (Units=GPa)
#
#
# Indices 1 2 3 4 5 6 
#
# 1 191.6428 53.2275 32.9359 0.0000 0.0000 0.0000
# 2 53.2275 115.8290 42.0155 0.0000 0.0000 0.0000
# 3 32.9359 42.0155 91.7398 0.0000 0.0000 0.0000
# 4 0.0000 0.0000 0.0000 30.4632 0.0000 0.0000
# 5 0.0000 0.0000 0.0000 0.0000 -43.4145 0.0000
# 6 0.0000 0.0000 0.0000 0.0000 0.0000 -5.9811
#
#
#
# Elastic Compliance Matrix: (Units=1/GPa)
#
#
# Indices 1 2 3 4 5 6 
#
# 1 0.006070 -0.002397 -0.001081 0.000000 0.000000 0.000000
# 2 -0.002397 0.011300 -0.004315 0.000000 0.000000 0.000000
# 3 -0.001081 -0.004315 0.013265 0.000000 0.000000 0.000000
# 4 0.000000 0.000000 0.000000 0.032827 0.000000 0.000000
# 5 0.000000 0.000000 0.000000 0.000000 -0.023034 0.000000
# 6 0.000000 0.000000 0.000000 0.000000 0.000000 -0.167192
#
#
# Mechanical properties :
#
#
# Convention : Reuss Voigt Hill
#
# Bulk Modulus (GPa) = 66.45246 72.84105 69.64675
# Shear Modulus (GPa) = -47.09742 14.28234 -16.40754
#
# Velocity S-wave (km/s) = -4.72178 2.60020 -2.78695
# Velocity P-wave (km/s) = 1.31554 6.59520 4.75538
#
# Compressibility (1/GPa) = 0.01504835
#
# Stress axis : x y z
#
# Youngs Moduli (GPa) = 164.75500 88.49546 75.38826
#
# Poissons Ratio (x) = 0.21212 0.08152
# Poissons Ratio (y) = 0.39491 0.32528
# Poissons Ratio (z) = 0.17815 0.38183
#
# Static dielectric constant tensor:
#      x y z
#    x 1.809370 0.000000 0.000000 
#    y 0.000000 1.823330 0.000000 
#    z 0.000000 0.000000 1.406360 
# 
# From -- ./inp_files/51610.got.cif
#   From: 2010.05.17/outbox.cif.g08.bks.cpg/sg68_26_cif.got.tgz:51610.got - 2010.06.03 18:57:09.
