data_PCOD9508896
_publ_section_title
;
Structure prediction by ZEFSAII (Michael W. Deem and Ramdas Pophale) SiO2 
 PCOD9508896
Probable space group: C C C A
;
_chemical_formula_sum "Si O2"
_cell_formula_units_Z 72
_cell_length_a 19.847804
_cell_length_b 13.961168
_cell_length_c 11.762290
_cell_angle_alpha 90.000000
_cell_angle_beta 90.000000
_cell_angle_gamma 90.000000
_cell_volume 3259.313222
_symmetry_space_group_name_H-M "C C C A"
_symmetry_group_IT_number 68
_space_group.IT_coordinate_system_code '2'
_symmetry_cell_setting 'orthorhombic'
loop_
_space_group_symop_operation_xyz
x,y,z
-x,1/2-y,z
x,1/2-y,1/2-z
-x,y,1/2-z
-x,-y,-z
x,1/2+y,-z
-x,1/2+y,1/2+z
x,-y,1/2+z
1/2+x,1/2+y,z
1/2-x,-y,z
1/2+x,-y,1/2-z
1/2-x,1/2+y,1/2-z
1/2-x,1/2-y,-z
1/2+x,y,-z
1/2-x,y,1/2+z
1/2+x,1/2-y,1/2+z
loop_
_atom_site_type_symbol
_atom_site_label
_atom_site_fract_x
_atom_site_fract_y
_atom_site_fract_z
Si Si1 0.106529 0.607347 0.478438
Si Si2 0.291911 0.596141 0.194401
Si Si3 0.112133 0.108365 0.092438
Si Si4 0.500000 0.750000 0.421541
Si Si5 0.690949 0.228925 0.089465
O O1 0.152511 0.601636 0.593164
O O2 0.091321 0.501017 0.433809
O O3 0.041436 0.670911 0.506860
O O4 0.150134 0.673039 0.392387
O O5 0.250000 0.500000 0.182423
O O6 0.329633 0.604253 0.313666
O O7 0.233524 0.673861 0.182196
O O8 0.055055 0.181573 0.138157
O O9 0.140305 0.156502 0.976803
O O10 0.750000 0.250000 0.000000
#
# Coordination Sequence:
#
# PCOD9508896 Si02
#       5
#    16  16  16   8  16
#     4  10  22  43  68  95 132 177 222 276 329 392
#     4  11  23  38  64  98 139 170 210 273 340 407
#     4  11  23  42  66  97 133 180 217 279 329 390
#     4  10  24  45  70  93 130 176 240 269 322 397
#     4   9  21  38  59  96 137 165 214 265 335 399
#
# _framework density 22.090544000000001
#
# number of rings (size 3 to 8) (size 9 to 14) (size 15 to 20)
#    0.000    1.778    2.222    0.667    6.222    9.778 
#    0.000    0.000    0.000    1.333    0.000    0.000 
#    0.000    0.000    0.000    0.000    0.000    0.000 
#
# Total GULP energy -201009.086068 kJ/mol
# GULP energy per Si atom -5583.585724 kJ/mol
# Density = 2.204026 g / cm^3
# Si number density = 22.090544 Si / 1000 Ang^3
#
#
#
# Elastic Constant Matrix: (Units=GPa)
#
#
# Indices 1 2 3 4 5 6 
#
# 1 101.1839 62.7207 20.9914 0.0000 0.0000 0.0000
# 2 62.7207 213.8974 35.8553 0.0000 0.0000 0.0000
# 3 20.9914 35.8553 59.6576 0.0000 0.0000 0.0000
# 4 0.0000 0.0000 0.0000 21.2593 0.0000 0.0000
# 5 0.0000 0.0000 0.0000 0.0000 18.6404 0.0000
# 6 0.0000 0.0000 0.0000 0.0000 0.0000 30.8287
#
#
#
# Elastic Compliance Matrix: (Units=1/GPa)
#
#
# Indices 1 2 3 4 5 6 
#
# 1 0.012385 -0.003226 -0.002419 0.000000 0.000000 0.000000
# 2 -0.003226 0.006039 -0.002495 0.000000 0.000000 0.000000
# 3 -0.002419 -0.002495 0.019113 0.000000 0.000000 0.000000
# 4 0.000000 0.000000 0.000000 0.047038 0.000000 0.000000
# 5 0.000000 0.000000 0.000000 0.000000 0.053647 0.000000
# 6 0.000000 0.000000 0.000000 0.000000 0.000000 0.032437
#
#
# Mechanical properties :
#
#
# Convention : Reuss Voigt Hill
#
# Bulk Modulus (GPa) = 47.04179 68.20821 57.62500
# Shear Modulus (GPa) = 25.77004 31.15709 28.46356
#
# Velocity S-wave (km/s) = 3.41921 3.75964 3.59346
# Velocity P-wave (km/s) = 6.07694 7.05622 6.58481
#
# Compressibility (1/GPa) = 0.02125769
#
# Stress axis : x y z
#
# Youngs Moduli (GPa) = 80.74604 165.58307 52.32124
#
# Poissons Ratio (x) = 0.53418 0.12655
# Poissons Ratio (y) = 0.26049 0.13052
# Poissons Ratio (z) = 0.19531 0.41306
#
# Static dielectric constant tensor:
#      x y z
#    x 1.807050 0.000000 0.000000 
#    y 0.000000 1.232290 0.000000 
#    z 0.000000 0.000000 1.859340 
# 
# From -- ./inp_files/23374.got.cif
#   From: 2010.05.17/outbox.cif.g08.bks.cpg/sg68_12_cif.got.tgz:23374.got - 2010.06.03 18:57:09.
