data_PCOD9508622
_publ_section_title
;
Structure prediction by ZEFSAII (Michael W. Deem and Ramdas Pophale) SiO2 
 PCOD9508622
Probable space group: C C C A
;
_chemical_formula_sum "Si O2"
_cell_formula_units_Z 72
_cell_length_a 12.323951
_cell_length_b 19.410879
_cell_length_c 13.109423
_cell_angle_alpha 90.000000
_cell_angle_beta 90.000000
_cell_angle_gamma 90.000000
_cell_volume 3136.019412
_symmetry_space_group_name_H-M "C C C A"
_symmetry_group_IT_number 68
_space_group.IT_coordinate_system_code '2'
_symmetry_cell_setting 'orthorhombic'
loop_
_space_group_symop_operation_xyz
x,y,z
-x,1/2-y,z
x,1/2-y,1/2-z
-x,y,1/2-z
-x,-y,-z
x,1/2+y,-z
-x,1/2+y,1/2+z
x,-y,1/2+z
1/2+x,1/2+y,z
1/2-x,-y,z
1/2+x,-y,1/2-z
1/2-x,1/2+y,1/2-z
1/2-x,1/2-y,-z
1/2+x,y,-z
1/2-x,y,1/2+z
1/2+x,1/2-y,1/2+z
loop_
_atom_site_type_symbol
_atom_site_label
_atom_site_fract_x
_atom_site_fract_y
_atom_site_fract_z
Si Si1 0.300522 0.275936 0.855116
Si Si2 0.700145 0.427328 0.625835
Si Si3 0.419828 0.046833 0.431970
Si Si4 0.500000 0.037031 0.750000
Si Si5 0.907399 0.701318 0.429790
O O1 0.351727 0.250000 0.750000
O O2 0.247905 0.353325 0.851068
O O3 0.206892 0.219924 0.877977
O O4 0.381281 0.282364 0.950975
O O5 0.750000 0.500000 0.660904
O O6 0.684214 0.438658 0.504059
O O7 0.582076 0.421150 0.678947
O O8 0.453726 0.125108 0.415472
O O9 0.500000 0.000000 0.500000
O O10 0.424162 0.008644 0.324427
O O11 0.000000 0.750000 0.389434
#
# Coordination Sequence:
#
# PCOD9508622 Si02
#       5
#    16  16  16   8  16
#     4  10  24  42  62  96 127 166 225 264 332 403
#     4  10  23  41  62  94 133 172 215 283 335 400
#     4   9  21  39  60  93 128 165 217 270 324 396
#     4  10  22  40  66  98 124 172 236 258 336 400
#     4  10  23  41  65  91 130 170 210 276 336 388
#
# _framework density 22.959042
#
# number of rings (size 3 to 8) (size 9 to 14) (size 15 to 20)
#    0.000    2.222    0.000    0.000    9.333    7.111 
#    4.000    0.000    0.000    0.000    0.000    0.000 
#    0.000    0.000    0.000    0.000    0.000    0.000 
#
# Total GULP energy -200590.383506 kJ/mol
# GULP energy per Si atom -5571.955097 kJ/mol
# Density = 2.290679 g / cm^3
# Si number density = 22.959042 Si / 1000 Ang^3
#
#
#
# Elastic Constant Matrix: (Units=GPa)
#
#
# Indices 1 2 3 4 5 6 
#
# 1 23.0699 5.8442 0.3659 0.0000 0.0000 0.0000
# 2 5.8442 130.5910 -1.2623 0.0000 0.0000 0.0000
# 3 0.3659 -1.2623 103.3533 0.0000 0.0000 0.0000
# 4 0.0000 0.0000 0.0000 18.0833 0.0000 0.0000
# 5 0.0000 0.0000 0.0000 0.0000 2.0964 0.0000
# 6 0.0000 0.0000 0.0000 0.0000 0.0000 28.2669
#
#
#
# Elastic Compliance Matrix: (Units=1/GPa)
#
#
# Indices 1 2 3 4 5 6 
#
# 1 0.043847 -0.001964 -0.000179 0.000000 0.000000 0.000000
# 2 -0.001964 0.007746 0.000102 0.000000 0.000000 0.000000
# 3 -0.000179 0.000102 0.009677 0.000000 0.000000 0.000000
# 4 0.000000 0.000000 0.000000 0.055300 0.000000 0.000000
# 5 0.000000 0.000000 0.000000 0.000000 0.477004 0.000000
# 6 0.000000 0.000000 0.000000 0.000000 0.000000 0.035377
#
#
# Mechanical properties :
#
#
# Convention : Reuss Voigt Hill
#
# Bulk Modulus (GPa) = 17.48637 29.65666 23.57152
# Shear Modulus (GPa) = 7.66757 26.49375 17.08066
#
# Velocity S-wave (km/s) = 1.82946 3.40068 2.73053
# Velocity P-wave (km/s) = 3.47785 5.32586 4.49779
#
# Compressibility (1/GPa) = 0.05718741
#
# Stress axis : x y z
#
# Youngs Moduli (GPa) = 22.80663 129.09277 103.33329
#
# Poissons Ratio (x) = 0.25354 0.01852
# Poissons Ratio (y) = 0.04479 -0.01049
# Poissons Ratio (z) = 0.00409 -0.01311
#
# Static dielectric constant tensor:
#      x y z
#    x 1.842790 0.000000 0.000000 
#    y 0.000000 2.148250 0.000000 
#    z 0.000000 0.000000 2.039640 
# 
# From -- ./inp_files/22051.got.cif
#   From: 2010.05.17/outbox.cif.g08.bks.cpg/sg68_12_cif.got.tgz:22051.got - 2010.06.03 18:57:09.
