data_PCOD9508947
_publ_section_title
;
Structure prediction by ZEFSAII (Michael W. Deem and Ramdas Pophale) SiO2 
 PCOD9508947
Probable space group: C C C A
;
_chemical_formula_sum "Si O2"
_cell_formula_units_Z 80
_cell_length_a 26.052791
_cell_length_b 9.797596
_cell_length_c 14.344826
_cell_angle_alpha 90.000000
_cell_angle_beta 90.000000
_cell_angle_gamma 90.000000
_cell_volume 3661.584557
_symmetry_space_group_name_H-M "C C C A"
_symmetry_group_IT_number 68
_space_group.IT_coordinate_system_code '2'
_symmetry_cell_setting 'orthorhombic'
loop_
_space_group_symop_operation_xyz
x,y,z
-x,1/2-y,z
x,1/2-y,1/2-z
-x,y,1/2-z
-x,-y,-z
x,1/2+y,-z
-x,1/2+y,1/2+z
x,-y,1/2+z
1/2+x,1/2+y,z
1/2-x,-y,z
1/2+x,-y,1/2-z
1/2-x,1/2+y,1/2-z
1/2-x,1/2-y,-z
1/2+x,y,-z
1/2-x,y,1/2+z
1/2+x,1/2-y,1/2+z
loop_
_atom_site_type_symbol
_atom_site_label
_atom_site_fract_x
_atom_site_fract_y
_atom_site_fract_z
Si Si1 0.750000 0.500000 0.203485
Si Si2 0.817449 0.750000 0.750000
Si Si3 0.341669 0.157060 0.120170
Si Si4 0.114461 0.687548 0.582011
Si Si5 0.500000 0.750000 0.393354
Si Si6 0.500000 0.999606 0.750000
Si Si7 0.606367 0.579711 0.794737
O O1 0.783318 0.388247 0.260974
O O2 0.714407 0.401223 0.141000
O O3 0.852325 0.727531 0.657573
O O4 0.357180 0.305979 0.160289
O O5 0.376408 0.063952 0.187816
O O6 0.355735 0.161288 0.012912
O O7 0.110102 0.549594 0.640355
O O8 0.055892 0.733130 0.558930
O O9 0.509056 0.888112 0.332276
O O10 0.454240 0.903331 0.783975
#
# Coordination Sequence:
#
# PCOD9508947 Si02
#       7
#     8   8  16  16   8   8  16
#     4  12  28  48  72 104 140 186 246 302 356 416
#     4  12  26  47  78 100 140 187 238 300 354 424
#     4  11  26  44  67 100 143 182 237 296 356 412
#     4  11  24  43  75 101 140 186 234 290 355 430
#     4   9  20  38  66 111 138 182 236 275 354 451
#     4   9  18  37  72  98 144 190 220 284 362 416
#     4  10  22  44  66 101 144 177 231 292 347 431
#
# _framework density 21.848464
#
# number of rings (size 3 to 8) (size 9 to 14) (size 15 to 20)
#    0.000    1.400    2.000    3.600    2.800    4.800 
#    0.000    4.000    0.000    0.000    0.000    0.000 
#    0.000    0.000    0.000    0.000    0.000    0.000 
#
# Total GULP energy -222768.001749 kJ/mol
# GULP energy per Si atom -5569.200044 kJ/mol
# Density = 2.179874 g / cm^3
# Si number density = 21.848464 Si / 1000 Ang^3
#
#
#
# Elastic Constant Matrix: (Units=GPa)
#
#
# Indices 1 2 3 4 5 6 
#
# 1 123.6951 38.3736 20.5411 0.0000 0.0000 0.0000
# 2 38.3736 114.7824 0.4624 0.0000 0.0000 0.0000
# 3 20.5411 0.4624 103.4930 0.0000 0.0000 0.0000
# 4 0.0000 0.0000 0.0000 24.5349 0.0000 0.0000
# 5 0.0000 0.0000 0.0000 0.0000 15.4230 0.0000
# 6 0.0000 0.0000 0.0000 0.0000 0.0000 47.6945
#
#
#
# Elastic Compliance Matrix: (Units=1/GPa)
#
#
# Indices 1 2 3 4 5 6 
#
# 1 0.009359 -0.003121 -0.001844 0.000000 0.000000 0.000000
# 2 -0.003121 0.009753 0.000576 0.000000 0.000000 0.000000
# 3 -0.001844 0.000576 0.010026 0.000000 0.000000 0.000000
# 4 0.000000 0.000000 0.000000 0.040758 0.000000 0.000000
# 5 0.000000 0.000000 0.000000 0.000000 0.064838 0.000000
# 6 0.000000 0.000000 0.000000 0.000000 0.000000 0.020967
#
#
# Mechanical properties :
#
#
# Convention : Reuss Voigt Hill
#
# Bulk Modulus (GPa) = 49.11592 51.19162 50.15377
# Shear Modulus (GPa) = 29.19435 36.37003 32.78219
#
# Velocity S-wave (km/s) = 3.65940 4.08444 3.87775
# Velocity P-wave (km/s) = 6.35484 6.76200 6.56158
#
# Compressibility (1/GPa) = 0.02036000
#
# Stress axis : x y z
#
# Youngs Moduli (GPa) = 106.85026 102.52885 99.74236
#
# Poissons Ratio (x) = 0.32003 0.18388
# Poissons Ratio (y) = 0.33352 -0.05745
# Poissons Ratio (z) = 0.19699 -0.05905
#
# Static dielectric constant tensor:
#      x y z
#    x 1.897800 0.000000 0.000000 
#    y 0.000000 1.861380 0.000000 
#    z 0.000000 0.000000 1.816040 
# 
# From -- ./inp_files/25226.got.cif
#   From: 2010.05.17/outbox.cif.g08.bks.cpg/sg68_13_cif.got.tgz:25226.got - 2010.06.03 18:57:09.
