data_PCOD9508019
_publ_section_title
;
Structure prediction by ZEFSAII (Michael W. Deem and Ramdas Pophale) SiO2 
 PCOD9508019
Probable space group: C C C A
;
_chemical_formula_sum "Si O2"
_cell_formula_units_Z 88
_cell_length_a 14.649460
_cell_length_b 23.914429
_cell_length_c 10.814777
_cell_angle_alpha 90.000000
_cell_angle_beta 90.000000
_cell_angle_gamma 90.000000
_cell_volume 3788.778365
_symmetry_space_group_name_H-M "C C C A"
_symmetry_group_IT_number 68
_space_group.IT_coordinate_system_code '2'
_symmetry_cell_setting 'orthorhombic'
loop_
_space_group_symop_operation_xyz
x,y,z
-x,1/2-y,z
x,1/2-y,1/2-z
-x,y,1/2-z
-x,-y,-z
x,1/2+y,-z
-x,1/2+y,1/2+z
x,-y,1/2+z
1/2+x,1/2+y,z
1/2-x,-y,z
1/2+x,-y,1/2-z
1/2-x,1/2+y,1/2-z
1/2-x,1/2-y,-z
1/2+x,y,-z
1/2-x,y,1/2+z
1/2+x,1/2-y,1/2+z
loop_
_atom_site_type_symbol
_atom_site_label
_atom_site_fract_x
_atom_site_fract_y
_atom_site_fract_z
Si Si1 0.492297 0.313584 0.100286
Si Si2 0.043133 0.429213 0.883203
Si Si3 0.796276 0.355580 0.002815
Si Si4 0.615315 0.961640 0.441453
Si Si5 0.173170 0.815259 0.776265
Si Si6 0.000000 0.887256 0.750000
O O1 0.500000 0.250000 0.052089
O O2 0.500000 0.308308 0.250000
O O3 0.560305 0.365820 0.071115
O O4 0.397032 0.335853 0.044220
O O5 0.123052 0.474510 0.897388
O O6 0.000000 0.422193 0.750000
O O7 0.956738 0.457879 0.948517
O O8 0.733018 0.329958 0.896477
O O9 0.801650 0.423108 0.012769
O O10 0.783514 0.336351 0.145137
O O11 0.560340 0.927595 0.335831
O O12 0.161075 0.750000 0.750000
O O13 0.077199 0.845653 0.799356
#
# Coordination Sequence:
#
# PCOD9508019 Si02
#       6
#    16  16  16  16  16   8
#     4   9  19  35  62 105 137 175 234 284 349 429
#     4   9  16  31  58  96 125 169 215 277 333 403
#     4  10  23  42  63  96 135 179 225 287 359 416
#     4   9  18  35  61  93 122 165 228 270 343 409
#     4  11  24  43  63  96 135 181 229 292 361 421
#     4  10  21  40  64  92 127 176 234 282 342 434
#
# _framework density 23.226483999999999
#
# number of rings (size 3 to 8) (size 9 to 14) (size 15 to 20)
#    0.000    2.364    0.909    0.818    2.545    4.364 
#   16.364    0.000    0.000    9.818    0.000    0.000 
#    0.000    0.000    0.000    0.000    0.000    0.000 
#
# Total GULP energy -245082.608409 kJ/mol
# GULP energy per Si atom -5570.059282 kJ/mol
# Density = 2.317362 g / cm^3
# Si number density = 23.226484 Si / 1000 Ang^3
#
#
#
# Elastic Constant Matrix: (Units=GPa)
#
#
# Indices 1 2 3 4 5 6 
#
# 1 45.1162 55.2044 16.2981 0.0000 0.0000 0.0000
# 2 55.2044 230.6755 36.5452 0.0000 0.0000 0.0000
# 3 16.2981 36.5452 122.7465 0.0000 0.0000 0.0000
# 4 0.0000 0.0000 0.0000 19.2411 0.0000 0.0000
# 5 0.0000 0.0000 0.0000 0.0000 14.4538 0.0000
# 6 0.0000 0.0000 0.0000 0.0000 0.0000 12.2835
#
#
#
# Elastic Compliance Matrix: (Units=1/GPa)
#
#
# Indices 1 2 3 4 5 6 
#
# 1 0.031830 -0.007292 -0.002055 0.000000 0.000000 0.000000
# 2 -0.007292 0.006220 -0.000884 0.000000 0.000000 0.000000
# 3 -0.002055 -0.000884 0.008683 0.000000 0.000000 0.000000
# 4 0.000000 0.000000 0.000000 0.051972 0.000000 0.000000
# 5 0.000000 0.000000 0.000000 0.000000 0.069186 0.000000
# 6 0.000000 0.000000 0.000000 0.000000 0.000000 0.081410
#
#
# Mechanical properties :
#
#
# Convention : Reuss Voigt Hill
#
# Bulk Modulus (GPa) = 38.06465 68.29263 53.17864
# Shear Modulus (GPa) = 17.95210 28.56173 23.25692
#
# Velocity S-wave (km/s) = 2.78315 3.51052 3.16778
# Velocity P-wave (km/s) = 5.17223 6.77484 6.02704
#
# Compressibility (1/GPa) = 0.02627109
#
# Stress axis : x y z
#
# Youngs Moduli (GPa) = 31.41720 160.76821 115.16908
#
# Poissons Ratio (x) = 1.17228 0.23671
# Poissons Ratio (y) = 0.22909 0.10178
# Poissons Ratio (z) = 0.06457 0.14207
#
# Static dielectric constant tensor:
#      x y z
#    x 1.757920 0.000000 0.000000 
#    y 0.000000 1.966460 0.000000 
#    z 0.000000 0.000000 1.716140 
# 
# From -- ./inp_files/13322.got.cif
#   From: 2010.05.17/outbox.cif.g08.bks.cpg/sg68_7_cif.got.tgz:13322.got - 2010.06.03 18:57:09.
