data_PCOD9508549
_publ_section_title
;
Structure prediction by ZEFSAII (Michael W. Deem and Ramdas Pophale) SiO2 
 PCOD9508549
Probable space group: C C C A
;
_chemical_formula_sum "Si O2"
_cell_formula_units_Z 52
_cell_length_a 11.486761
_cell_length_b 8.791009
_cell_length_c 20.101497
_cell_angle_alpha 90.000000
_cell_angle_beta 90.000000
_cell_angle_gamma 90.000000
_cell_volume 2029.853576
_symmetry_space_group_name_H-M "C C C A"
_symmetry_group_IT_number 68
_space_group.IT_coordinate_system_code '2'
_symmetry_cell_setting 'orthorhombic'
loop_
_space_group_symop_operation_xyz
x,y,z
-x,1/2-y,z
x,1/2-y,1/2-z
-x,y,1/2-z
-x,-y,-z
x,1/2+y,-z
-x,1/2+y,1/2+z
x,-y,1/2+z
1/2+x,1/2+y,z
1/2-x,-y,z
1/2+x,-y,1/2-z
1/2-x,1/2+y,1/2-z
1/2-x,1/2-y,-z
1/2+x,y,-z
1/2-x,y,1/2+z
1/2+x,1/2-y,1/2+z
loop_
_atom_site_type_symbol
_atom_site_label
_atom_site_fract_x
_atom_site_fract_y
_atom_site_fract_z
Si Si1 0.483504 0.000006 0.853758
Si Si2 0.148165 0.130890 0.461936
Si Si3 0.500000 0.250000 0.750000
Si Si4 0.834220 0.713883 0.111264
O O1 0.613357 0.930180 0.849655
O O2 0.394132 0.857975 0.853404
O O3 0.465069 0.066759 0.927128
O O4 0.447028 0.126134 0.800768
O O5 0.124452 0.195507 0.534345
O O6 0.201823 0.248957 0.407557
O O7 0.250000 0.000000 0.468027
#
# Coordination Sequence:
#
# PCOD9508549 Si02
#       4
#    16  16   4  16
#     4  10  22  40  58  85 124 166 206 255 304 367
#     4   9  18  35  63 100 124 144 192 259 331 396
#     4  12  28  42  56  80 120 172 228 254 284 362
#     4   9  19  37  66  93 119 153 195 256 331 387
#
# _framework density 25.617612999999999
#
# number of rings (size 3 to 8) (size 9 to 14) (size 15 to 20)
#    0.000    2.462    0.000    0.923    0.000   12.308 
#    0.000    9.231    0.000    0.000    0.000    0.000 
#    0.000    0.000    0.000    0.000    0.000    0.000 
#
# Total GULP energy -144930.866598 kJ/mol
# GULP energy per Si atom -5574.264100 kJ/mol
# Density = 2.555931 g / cm^3
# Si number density = 25.617613 Si / 1000 Ang^3
#
#
#
# Elastic Constant Matrix: (Units=GPa)
#
#
# Indices 1 2 3 4 5 6 
#
# 1 89.2411 41.4026 7.7748 0.0000 0.0000 0.0000
# 2 41.4026 153.4946 49.2196 0.0000 0.0000 0.0000
# 3 7.7748 49.2196 100.3383 0.0000 0.0000 0.0000
# 4 0.0000 0.0000 0.0000 63.6090 0.0000 0.0000
# 5 0.0000 0.0000 0.0000 0.0000 26.0771 0.0000
# 6 0.0000 0.0000 0.0000 0.0000 0.0000 41.8876
#
#
#
# Elastic Compliance Matrix: (Units=1/GPa)
#
#
# Indices 1 2 3 4 5 6 
#
# 1 0.012867 -0.003739 0.000837 0.000000 0.000000 0.000000
# 2 -0.003739 0.008818 -0.004036 0.000000 0.000000 0.000000
# 3 0.000837 -0.004036 0.011881 0.000000 0.000000 0.000000
# 4 0.000000 0.000000 0.000000 0.015721 0.000000 0.000000
# 5 0.000000 0.000000 0.000000 0.000000 0.038348 0.000000
# 6 0.000000 0.000000 0.000000 0.000000 0.000000 0.023873
#
#
# Mechanical properties :
#
#
# Convention : Reuss Voigt Hill
#
# Bulk Modulus (GPa) = 50.78531 59.98532 55.38531
# Shear Modulus (GPa) = 37.89398 42.62654 40.26026
#
# Velocity S-wave (km/s) = 3.85023 4.08359 3.96862
# Velocity P-wave (km/s) = 6.29548 6.76023 6.53199
#
# Compressibility (1/GPa) = 0.01969073
#
# Stress axis : x y z
#
# Youngs Moduli (GPa) = 77.71550 113.41039 84.16789
#
# Poissons Ratio (x) = 0.42407 -0.07046
# Poissons Ratio (y) = 0.29060 0.33967
# Poissons Ratio (z) = -0.06506 0.45768
#
# Static dielectric constant tensor:
#      x y z
#    x 2.039910 0.000000 0.000000 
#    y 0.000000 2.161390 0.000000 
#    z 0.000000 0.000000 1.938520 
# 
# From -- ./inp_files/38113.got.cif
#   From: 2010.05.17/outbox.cif.g08.bks.cpg/sg68_20_cif.got.tgz:38113.got - 2010.06.03 18:57:09.
