data_PCOD9508805
_publ_section_title
;
Structure prediction by ZEFSAII (Michael W. Deem and Ramdas Pophale) SiO2 
 PCOD9508805
Probable space group: C C C A
;
_chemical_formula_sum "Si O2"
_cell_formula_units_Z 64
_cell_length_a 10.798403
_cell_length_b 10.956258
_cell_length_c 24.517063
_cell_angle_alpha 90.000000
_cell_angle_beta 90.000000
_cell_angle_gamma 90.000000
_cell_volume 2900.615912
_symmetry_space_group_name_H-M "C C C A"
_symmetry_group_IT_number 68
_space_group.IT_coordinate_system_code '2'
_symmetry_cell_setting 'orthorhombic'
loop_
_space_group_symop_operation_xyz
x,y,z
-x,1/2-y,z
x,1/2-y,1/2-z
-x,y,1/2-z
-x,-y,-z
x,1/2+y,-z
-x,1/2+y,1/2+z
x,-y,1/2+z
1/2+x,1/2+y,z
1/2-x,-y,z
1/2+x,-y,1/2-z
1/2-x,1/2+y,1/2-z
1/2-x,1/2-y,-z
1/2+x,y,-z
1/2-x,y,1/2+z
1/2+x,1/2-y,1/2+z
loop_
_atom_site_type_symbol
_atom_site_label
_atom_site_fract_x
_atom_site_fract_y
_atom_site_fract_z
Si Si1 0.327956 0.615842 0.143038
Si Si2 0.250000 0.000000 0.697992
Si Si3 0.817274 0.250000 0.250000
Si Si4 0.428095 0.991637 0.098302
Si Si5 0.225020 0.198057 0.559290
O O1 0.250000 0.500000 0.162775
O O2 0.377148 0.693241 0.194819
O O3 0.436555 0.562654 0.105070
O O4 0.240285 0.700886 0.106191
O O5 0.247675 0.128946 0.728829
O O6 0.369966 0.997583 0.658850
O O7 0.338837 0.894256 0.069803
O O8 0.400238 0.119312 0.068012
O O9 0.250000 0.250000 0.500000
#
# Coordination Sequence:
#
# PCOD9508805 Si02
#       5
#    16   8   8  16  16
#     4  12  26  43  68 105 140 187 238 295 370 436
#     4  10  22  42  68 100 138 186 238 298 356 436
#     4  12  22  45  69 104 142 188 247 297 370 440
#     4  10  23  46  68  98 140 182 238 291 359 440
#     4  10  23  46  71  98 137 179 235 298 362 433
#
# _framework density 22.064281000000001
#
# number of rings (size 3 to 8) (size 9 to 14) (size 15 to 20)
#    0.000    1.500    6.250    0.750    3.500    4.000 
#    4.500    1.250    0.000    0.000    0.000    0.000 
#    0.000    0.000    0.000    0.000    0.000    0.000 
#
# Total GULP energy -178541.055552 kJ/mol
# GULP energy per Si atom -5579.407986 kJ/mol
# Density = 2.201406 g / cm^3
# Si number density = 22.064281 Si / 1000 Ang^3
#
#
#
# Elastic Constant Matrix: (Units=GPa)
#
#
# Indices 1 2 3 4 5 6 
#
# 1 32.3263 35.9792 0.9840 0.0000 0.0000 0.0000
# 2 35.9792 180.4977 72.7388 0.0000 0.0000 0.0000
# 3 0.9840 72.7388 123.4794 0.0000 0.0000 0.0000
# 4 0.0000 0.0000 0.0000 -34.9701 0.0000 0.0000
# 5 0.0000 0.0000 0.0000 0.0000 22.3109 0.0000
# 6 0.0000 0.0000 0.0000 0.0000 0.0000 33.6979
#
#
#
# Elastic Compliance Matrix: (Units=1/GPa)
#
#
# Indices 1 2 3 4 5 6 
#
# 1 0.043076 -0.011078 0.006183 0.000000 0.000000 0.000000
# 2 -0.011078 0.010114 -0.005870 0.000000 0.000000 0.000000
# 3 0.006183 -0.005870 0.011507 0.000000 0.000000 0.000000
# 4 0.000000 0.000000 0.000000 -0.028596 0.000000 0.000000
# 5 0.000000 0.000000 0.000000 0.000000 0.044821 0.000000
# 6 0.000000 0.000000 0.000000 0.000000 0.000000 0.029675
#
#
# Mechanical properties :
#
#
# Convention : Reuss Voigt Hill
#
# Bulk Modulus (GPa) = 23.16594 61.74525 42.45560
# Shear Modulus (GPa) = 34.12581 19.31448 26.72014
#
# Velocity S-wave (km/s) = 3.93702 2.96188 3.48374
# Velocity P-wave (km/s) = 5.58470 6.30413 5.95529
#
# Compressibility (1/GPa) = 0.04316683
#
# Stress axis : x y z
#
# Youngs Moduli (GPa) = 23.21469 98.87459 86.90473
#
# Poissons Ratio (x) = 1.09533 -0.53729
# Poissons Ratio (y) = 0.25717 0.51009
# Poissons Ratio (z) = -0.14353 0.58035
#
# Static dielectric constant tensor:
#      x y z
#    x 1.819620 0.000000 0.000000 
#    y 0.000000 1.830590 0.000000 
#    z 0.000000 0.000000 1.837850 
# 
# From -- ./inp_files/43893.got.cif
#   From: 2010.05.17/outbox.cif.g08.bks.cpg/sg68_22_cif.got.tgz:43893.got - 2010.06.03 18:57:09.
