data_PCOD9508289
_publ_section_title
;
Structure prediction by ZEFSAII (Michael W. Deem and Ramdas Pophale) SiO2 
 PCOD9508289
Probable space group: C C C A
;
_chemical_formula_sum "Si O2"
_cell_formula_units_Z 88
_cell_length_a 25.368594
_cell_length_b 8.437473
_cell_length_c 20.537052
_cell_angle_alpha 90.000000
_cell_angle_beta 90.000000
_cell_angle_gamma 90.000000
_cell_volume 4395.890815
_symmetry_space_group_name_H-M "C C C A"
_symmetry_group_IT_number 68
_space_group.IT_coordinate_system_code '2'
_symmetry_cell_setting 'orthorhombic'
loop_
_space_group_symop_operation_xyz
x,y,z
-x,1/2-y,z
x,1/2-y,1/2-z
-x,y,1/2-z
-x,-y,-z
x,1/2+y,-z
-x,1/2+y,1/2+z
x,-y,1/2+z
1/2+x,1/2+y,z
1/2-x,-y,z
1/2+x,-y,1/2-z
1/2-x,1/2+y,1/2-z
1/2-x,1/2-y,-z
1/2+x,y,-z
1/2-x,y,1/2+z
1/2+x,1/2-y,1/2+z
loop_
_atom_site_type_symbol
_atom_site_label
_atom_site_fract_x
_atom_site_fract_y
_atom_site_fract_z
Si Si1 0.250000 0.500000 0.842941
Si Si2 0.622778 0.844347 0.638821
Si Si3 0.136971 0.474694 0.778920
Si Si4 0.469187 0.913496 0.190877
Si Si5 0.267710 0.686360 0.570985
Si Si6 0.484639 0.428841 0.069116
O O1 0.196342 0.499799 0.801751
O O2 0.248578 0.667321 0.882631
O O3 0.637650 0.950808 0.701292
O O4 0.615745 0.677286 0.678341
O O5 0.670041 0.820305 0.587629
O O6 0.574134 0.922374 0.599999
O O7 0.092200 0.602270 0.794519
O O8 0.500000 0.750000 0.185707
O O9 0.500000 0.002868 0.250000
O O10 0.478483 0.994963 0.123018
O O11 0.250000 0.500000 0.579804
O O12 0.250000 0.750000 0.500000
O O13 0.500000 0.250000 0.062743
O O14 0.500000 0.500000 0.000000
#
# Coordination Sequence:
#
# PCOD9508289 Si02
#       6
#     8  16  16  16  16  16
#     4  10  24  44  72 106 138 188 234 300 360 416
#     4  10  23  41  69 103 129 186 232 288 355 417
#     4  10  21  44  71  99 142 174 239 295 348 432
#     4  11  23  41  68 102 135 179 227 284 354 419
#     4  11  24  44  70  98 142 189 239 284 354 431
#     4  12  25  42  66  96 135 177 226 281 349 414
#
# _framework density 20.018695000000001
#
# number of rings (size 3 to 8) (size 9 to 14) (size 15 to 20)
#    0.000    1.273    4.545    0.545    1.273    4.727 
#    0.000    0.000    0.000    0.000    0.000    0.000 
#    0.000    0.000    0.000    0.000    0.000    0.000 
#
# Total GULP energy -244995.106681 kJ/mol
# GULP energy per Si atom -5568.070606 kJ/mol
# Density = 1.997313 g / cm^3
# Si number density = 20.018695 Si / 1000 Ang^3
#
#
#
# Elastic Constant Matrix: (Units=GPa)
#
#
# Indices 1 2 3 4 5 6 
#
# 1 164.6673 41.4963 96.0914 0.0000 0.0000 0.0000
# 2 41.4963 112.7617 55.9313 0.0000 0.0000 0.0000
# 3 96.0914 55.9313 187.2561 0.0000 0.0000 0.0000
# 4 0.0000 0.0000 0.0000 22.1206 0.0000 0.0000
# 5 0.0000 0.0000 0.0000 0.0000 31.1681 0.0000
# 6 0.0000 0.0000 0.0000 0.0000 0.0000 29.0611
#
#
#
# Elastic Compliance Matrix: (Units=1/GPa)
#
#
# Indices 1 2 3 4 5 6 
#
# 1 0.008799 -0.001172 -0.004165 0.000000 0.000000 0.000000
# 2 -0.001172 0.010567 -0.002555 0.000000 0.000000 0.000000
# 3 -0.004165 -0.002555 0.008241 0.000000 0.000000 0.000000
# 4 0.000000 0.000000 0.000000 0.045207 0.000000 0.000000
# 5 0.000000 0.000000 0.000000 0.000000 0.032084 0.000000
# 6 0.000000 0.000000 0.000000 0.000000 0.000000 0.034410
#
#
# Mechanical properties :
#
#
# Convention : Reuss Voigt Hill
#
# Bulk Modulus (GPa) = 84.58428 94.63591 89.61010
# Shear Modulus (GPa) = 31.44027 34.54768 32.99398
#
# Velocity S-wave (km/s) = 3.96731 4.15875 4.06416
# Velocity P-wave (km/s) = 7.95804 8.39265 8.17824
#
# Compressibility (1/GPa) = 0.01182253
#
# Stress axis : x y z
#
# Youngs Moduli (GPa) = 113.65311 94.63654 121.34946
#
# Poissons Ratio (x) = 0.11092 0.50542
# Poissons Ratio (y) = 0.13320 0.31002
# Poissons Ratio (z) = 0.47337 0.24177
#
# Static dielectric constant tensor:
#      x y z
#    x 1.795910 0.000000 0.000000 
#    y 0.000000 1.762350 0.000000 
#    z 0.000000 0.000000 1.812280 
# 
# From -- ./inp_files/40736.got.cif
#   From: 2010.05.17/outbox.cif.g08.bks.cpg/sg68_21_cif.got.tgz:40736.got - 2010.06.03 18:57:09.
