data_PCOD9508953
_publ_section_title
;
Structure prediction by ZEFSAII (Michael W. Deem and Ramdas Pophale) SiO2 
 PCOD9508953
Probable space group: C C C A
;
_chemical_formula_sum "Si O2"
_cell_formula_units_Z 56
_cell_length_a 11.267434
_cell_length_b 7.730875
_cell_length_c 28.157931
_cell_angle_alpha 90.000000
_cell_angle_beta 90.000000
_cell_angle_gamma 90.000000
_cell_volume 2452.756382
_symmetry_space_group_name_H-M "C C C A"
_symmetry_group_IT_number 68
_space_group.IT_coordinate_system_code '2'
_symmetry_cell_setting 'orthorhombic'
loop_
_space_group_symop_operation_xyz
x,y,z
-x,1/2-y,z
x,1/2-y,1/2-z
-x,y,1/2-z
-x,-y,-z
x,1/2+y,-z
-x,1/2+y,1/2+z
x,-y,1/2+z
1/2+x,1/2+y,z
1/2-x,-y,z
1/2+x,-y,1/2-z
1/2-x,1/2+y,1/2-z
1/2-x,1/2-y,-z
1/2+x,y,-z
1/2-x,y,1/2+z
1/2+x,1/2-y,1/2+z
loop_
_atom_site_type_symbol
_atom_site_label
_atom_site_fract_x
_atom_site_fract_y
_atom_site_fract_z
Si Si1 0.872174 0.338025 0.632523
Si Si2 0.001895 0.954501 0.944680
Si Si3 0.123928 0.448884 0.765241
Si Si4 0.250000 0.500000 0.607159
O O1 0.865910 0.460626 0.678075
O O2 0.771693 0.186945 0.632853
O O3 0.000000 0.250000 0.640258
O O4 0.896661 0.447437 0.584315
O O5 0.000000 0.750000 0.938495
O O6 0.130398 0.002975 0.923728
O O7 0.000000 0.000000 0.000000
O O8 0.115075 0.250000 0.750000
O O9 0.250000 0.500000 0.743392
O O10 0.000000 0.534827 0.750000
#
# Coordination Sequence:
#
# PCOD9508953 Si02
#       4
#    16  16  16   8
#     4  10  22  44  67  98 138 179 235 292 353 421
#     4  11  25  43  67 102 138 180 232 284 351 426
#     4  11  25  45  68 101 139 181 234 295 354 426
#     4  10  24  42  70  94 136 186 226 292 350 410
#
# _framework density 22.831455999999999
#
# number of rings (size 3 to 8) (size 9 to 14) (size 15 to 20)
#    0.000    1.429    2.857    2.571    6.000    5.143 
#    0.000    0.000    0.000    0.000    0.000    0.000 
#    0.000    0.000    0.000    0.000    0.000    0.000 
#
# Total GULP energy -156058.592429 kJ/mol
# GULP energy per Si atom -5573.521158 kJ/mol
# Density = 2.277949 g / cm^3
# Si number density = 22.831456 Si / 1000 Ang^3
#
#
#
# Elastic Constant Matrix: (Units=GPa)
#
#
# Indices 1 2 3 4 5 6 
#
# 1 162.0368 40.7631 34.6452 0.0000 0.0000 0.0000
# 2 40.7631 89.0046 24.8081 0.0000 0.0000 0.0000
# 3 34.6452 24.8081 138.5369 0.0000 0.0000 0.0000
# 4 0.0000 0.0000 0.0000 -5.8107 0.0000 0.0000
# 5 0.0000 0.0000 0.0000 0.0000 20.7941 0.0000
# 6 0.0000 0.0000 0.0000 0.0000 0.0000 53.5958
#
#
#
# Elastic Compliance Matrix: (Units=1/GPa)
#
#
# Indices 1 2 3 4 5 6 
#
# 1 0.007181 -0.002935 -0.001270 0.000000 0.000000 0.000000
# 2 -0.002935 0.013025 -0.001598 0.000000 0.000000 0.000000
# 3 -0.001270 -0.001598 0.007822 0.000000 0.000000 0.000000
# 4 0.000000 0.000000 0.000000 -0.172096 0.000000 0.000000
# 5 0.000000 0.000000 0.000000 0.000000 0.048091 0.000000
# 6 0.000000 0.000000 0.000000 0.000000 0.000000 0.018658
#
#
# Mechanical properties :
#
#
# Convention : Reuss Voigt Hill
#
# Bulk Modulus (GPa) = 60.89686 65.55680 63.22683
# Shear Modulus (GPa) = -83.00457 33.00661 -24.99898
#
# Velocity S-wave (km/s) = -6.03608 3.80631 -3.31257
# Velocity P-wave (km/s) = 4.67427 6.93492 3.62245
#
# Compressibility (1/GPa) = 0.01642121
#
# Stress axis : x y z
#
# Youngs Moduli (GPa) = 139.24898 76.77506 127.84087
#
# Poissons Ratio (x) = 0.22533 0.16240
# Poissons Ratio (y) = 0.40868 0.20435
# Poissons Ratio (z) = 0.17690 0.12272
#
# Static dielectric constant tensor:
#      x y z
#    x 1.935050 0.000000 0.000000 
#    y 0.000000 1.981720 0.000000 
#    z 0.000000 0.000000 1.510370 
# 
# From -- ./inp_files/48715.got.cif
#   From: 2010.05.17/outbox.cif.g08.bks.cpg/sg68_25_cif.got.tgz:48715.got - 2010.06.03 18:57:09.
