data_PCOD9508487
_publ_section_title
;
Structure prediction by ZEFSAII (Michael W. Deem and Ramdas Pophale) SiO2 
 PCOD9508487
Probable space group: C C C A
;
_chemical_formula_sum "Si O2"
_cell_formula_units_Z 80
_cell_length_a 8.637636
_cell_length_b 27.895898
_cell_length_c 14.009970
_cell_angle_alpha 90.000000
_cell_angle_beta 90.000000
_cell_angle_gamma 90.000000
_cell_volume 3375.766897
_symmetry_space_group_name_H-M "C C C A"
_symmetry_group_IT_number 68
_space_group.IT_coordinate_system_code '2'
_symmetry_cell_setting 'orthorhombic'
loop_
_space_group_symop_operation_xyz
x,y,z
-x,1/2-y,z
x,1/2-y,1/2-z
-x,y,1/2-z
-x,-y,-z
x,1/2+y,-z
-x,1/2+y,1/2+z
x,-y,1/2+z
1/2+x,1/2+y,z
1/2-x,-y,z
1/2+x,-y,1/2-z
1/2-x,1/2+y,1/2-z
1/2-x,1/2-y,-z
1/2+x,y,-z
1/2-x,y,1/2+z
1/2+x,1/2-y,1/2+z
loop_
_atom_site_type_symbol
_atom_site_label
_atom_site_fract_x
_atom_site_fract_y
_atom_site_fract_z
Si Si1 0.990053 0.098293 0.981390
Si Si2 0.991791 0.697525 0.584646
Si Si3 0.249578 0.197234 0.747525
Si Si4 0.155384 0.093039 0.794165
Si Si5 0.696955 0.445606 0.625443
O O1 0.129676 0.089344 0.906044
O O2 0.832569 0.084818 0.927579
O O3 0.986973 0.153334 0.014579
O O4 0.037026 0.066861 0.073172
O O5 0.834320 0.691756 0.645394
O O6 0.000000 0.750000 0.537450
O O7 0.121853 0.698064 0.667738
O O8 0.175961 0.250000 0.750000
O O9 0.158222 0.149247 0.768859
O O10 0.296016 0.069902 0.736338
O O11 0.000000 0.070070 0.750000
O O12 0.750000 0.500000 0.615904
#
# Coordination Sequence:
#
# PCOD9508487 Si02
#       5
#    16  16  16  16  16
#     4  11  22  42  65  93 130 164 213 265 318 383
#     4   9  18  35  62  92 122 165 212 252 307 381
#     4   9  17  35  59  86 121 168 214 250 301 376
#     4  10  22  39  57  86 129 161 200 264 322 371
#     4  11  24  43  65  91 124 164 215 267 322 378
#
# _framework density 23.698319999999999
#
# number of rings (size 3 to 8) (size 9 to 14) (size 15 to 20)
#    0.000    2.000    2.000    3.000    0.000    1.200 
#    7.200   11.000    0.000    0.000    0.000    0.000 
#    0.000    0.000    0.000    0.000    0.000    0.000 
#
# Total GULP energy -223538.051669 kJ/mol
# GULP energy per Si atom -5588.451292 kJ/mol
# Density = 2.364438 g / cm^3
# Si number density = 23.698320 Si / 1000 Ang^3
#
#
#
# Elastic Constant Matrix: (Units=GPa)
#
#
# Indices 1 2 3 4 5 6 
#
# 1 43.7422 -9.8131 15.4067 0.0000 0.0000 0.0000
# 2 -9.8131 105.9590 28.3561 0.0000 0.0000 0.0000
# 3 15.4067 28.3561 109.0439 0.0000 0.0000 0.0000
# 4 0.0000 0.0000 0.0000 -424.4441 0.0000 0.0000
# 5 0.0000 0.0000 0.0000 0.0000 16.9525 0.0000
# 6 0.0000 0.0000 0.0000 0.0000 0.0000 21.6778
#
#
#
# Elastic Compliance Matrix: (Units=1/GPa)
#
#
# Indices 1 2 3 4 5 6 
#
# 1 0.025235 0.003537 -0.004485 0.000000 0.000000 0.000000
# 2 0.003537 0.010639 -0.003266 0.000000 0.000000 0.000000
# 3 -0.004485 -0.003266 0.010654 0.000000 0.000000 0.000000
# 4 0.000000 0.000000 0.000000 -0.002356 0.000000 0.000000
# 5 0.000000 0.000000 0.000000 0.000000 0.058988 0.000000
# 6 0.000000 0.000000 0.000000 0.000000 0.000000 0.046130
#
#
# Mechanical properties :
#
#
# Convention : Reuss Voigt Hill
#
# Bulk Modulus (GPa) = 26.24746 36.29385 31.27065
# Shear Modulus (GPa) = 29.33951 -62.17641 -16.41845
#
# Velocity S-wave (km/s) = 3.52240 -5.12773 -2.63499
# Velocity P-wave (km/s) = 5.25764 4.43959 1.99159
#
# Compressibility (1/GPa) = 0.03809893
#
# Stress axis : x y z
#
# Youngs Moduli (GPa) = 39.62821 93.99055 93.86360
#
# Poissons Ratio (x) = -0.33248 0.42100
# Poissons Ratio (y) = -0.14018 0.30660
# Poissons Ratio (z) = 0.17774 0.30702
#
# Static dielectric constant tensor:
#      x y z
#    x 1.931830 0.000000 0.000000 
#    y 0.000000 1.872710 0.000000 
#    z 0.000000 0.000000 1.901510 
# 
# From -- ./inp_files/11946.got.cif
#   From: 2010.05.17/outbox.cif.g08.bks.cpg/sg68_6_cif.got.tgz:11946.got - 2010.06.03 18:57:09.
