data_PCOD9508629
_publ_section_title
;
Structure prediction by ZEFSAII (Michael W. Deem and Ramdas Pophale) SiO2 
 PCOD9508629
Probable space group: C C C A
;
_chemical_formula_sum "Si O2"
_cell_formula_units_Z 96
_cell_length_a 9.602700
_cell_length_b 30.558404
_cell_length_c 15.288267
_cell_angle_alpha 90.000000
_cell_angle_beta 90.000000
_cell_angle_gamma 90.000000
_cell_volume 4486.237778
_symmetry_space_group_name_H-M "C C C A"
_symmetry_group_IT_number 68
_space_group.IT_coordinate_system_code '2'
_symmetry_cell_setting 'orthorhombic'
loop_
_space_group_symop_operation_xyz
x,y,z
-x,1/2-y,z
x,1/2-y,1/2-z
-x,y,1/2-z
-x,-y,-z
x,1/2+y,-z
-x,1/2+y,1/2+z
x,-y,1/2+z
1/2+x,1/2+y,z
1/2-x,-y,z
1/2+x,-y,1/2-z
1/2-x,1/2+y,1/2-z
1/2-x,1/2-y,-z
1/2+x,y,-z
1/2-x,y,1/2+z
1/2+x,1/2-y,1/2+z
loop_
_atom_site_type_symbol
_atom_site_label
_atom_site_fract_x
_atom_site_fract_y
_atom_site_fract_z
Si Si1 0.219668 0.112193 0.780710
Si Si2 0.011128 0.335586 0.880788
Si Si3 0.630928 0.420194 0.089801
Si Si4 0.873438 0.281655 0.025997
Si Si5 0.229848 0.798371 0.708461
Si Si6 0.308933 0.951744 0.930086
O O1 0.187108 0.085998 0.690246
O O2 0.302110 0.157671 0.763444
O O3 0.263082 0.079492 0.857158
O O4 0.079333 0.132731 0.821208
O O5 0.109651 0.303744 0.825124
O O6 0.104608 0.369326 0.936210
O O7 0.407402 0.311674 0.055430
O O8 0.748448 0.439173 0.025671
O O9 0.479271 0.445117 0.078766
O O10 0.850727 0.303953 0.118130
O O11 0.000000 0.250000 0.039366
O O12 0.750000 0.250000 0.000000
O O13 0.208931 0.750000 0.750000
O O14 0.250000 0.000000 0.912628
#
# Coordination Sequence:
#
# PCOD9508629 Si02
#       6
#    16  16  16  16  16  16
#     4  10  24  42  69  99 134 178 226 277 325 414
#     4  10  22  40  67  90 132 178 227 263 332 405
#     4  10  23  42  69  98 133 171 219 276 337 397
#     4  12  25  39  62  96 129 176 228 278 322 392
#     4  11  23  40  66  95 133 177 224 272 332 391
#     4  11  23  44  72 100 133 176 220 277 339 408
#
# _framework density 21.398776999999999
#
# number of rings (size 3 to 8) (size 9 to 14) (size 15 to 20)
#    0.000    1.333    1.667    6.000    9.333    4.333 
#    0.000    2.500    3.667    0.000    0.000    0.000 
#    0.000    0.000    0.000    0.000    0.000    0.000 
#
# Total GULP energy -267434.186844 kJ/mol
# GULP energy per Si atom -5571.545559 kJ/mol
# Density = 2.135007 g / cm^3
# Si number density = 21.398777 Si / 1000 Ang^3
#
#
#
# Elastic Constant Matrix: (Units=GPa)
#
#
# Indices 1 2 3 4 5 6 
#
# 1 43.6988 2.2641 6.9488 0.0000 0.0000 0.0000
# 2 2.2641 96.7728 41.9071 0.0000 0.0000 0.0000
# 3 6.9488 41.9071 108.7232 0.0000 0.0000 0.0000
# 4 0.0000 0.0000 0.0000 38.0267 0.0000 0.0000
# 5 0.0000 0.0000 0.0000 0.0000 20.8686 0.0000
# 6 0.0000 0.0000 0.0000 0.0000 0.0000 1.9045
#
#
#
# Elastic Compliance Matrix: (Units=1/GPa)
#
#
# Indices 1 2 3 4 5 6 
#
# 1 0.023120 0.000119 -0.001523 0.000000 0.000000 0.000000
# 2 0.000119 0.012405 -0.004789 0.000000 0.000000 0.000000
# 3 -0.001523 -0.004789 0.011141 0.000000 0.000000 0.000000
# 4 0.000000 0.000000 0.000000 0.026297 0.000000 0.000000
# 5 0.000000 0.000000 0.000000 0.000000 0.047919 0.000000
# 6 0.000000 0.000000 0.000000 0.000000 0.000000 0.525075
#
#
# Mechanical properties :
#
#
# Convention : Reuss Voigt Hill
#
# Bulk Modulus (GPa) = 29.17294 39.04831 34.11062
# Shear Modulus (GPa) = 7.46525 25.36496 16.41510
#
# Velocity S-wave (km/s) = 1.86981 3.44662 2.77267
# Velocity P-wave (km/s) = 4.28068 5.84179 5.12107
#
# Compressibility (1/GPa) = 0.03427835
#
# Stress axis : x y z
#
# Youngs Moduli (GPa) = 43.25260 80.61585 89.75932
#
# Poissons Ratio (x) = -0.00958 0.13674
# Poissons Ratio (y) = -0.00514 0.42985
# Poissons Ratio (z) = 0.06589 0.38606
#
# Static dielectric constant tensor:
#      x y z
#    x 1.830270 0.000000 0.000000 
#    y 0.000000 1.868230 0.000000 
#    z 0.000000 0.000000 1.827800 
# 
# From -- ./inp_files/29937.got.cif
#   From: 2010.05.17/outbox.cif.g08.bks.cpg/sg68_15_cif.got.tgz:29937.got - 2010.06.03 18:57:09.
