data_PCOD9508147
_publ_section_title
;
Structure prediction by ZEFSAII (Michael W. Deem and Ramdas Pophale) SiO2 
 PCOD9508147
Probable space group: C C C A
;
_chemical_formula_sum "Si O2"
_cell_formula_units_Z 88
_cell_length_a 12.853118
_cell_length_b 30.619309
_cell_length_c 9.461705
_cell_angle_alpha 90.000000
_cell_angle_beta 90.000000
_cell_angle_gamma 90.000000
_cell_volume 3723.687986
_symmetry_space_group_name_H-M "C C C A"
_symmetry_group_IT_number 68
_space_group.IT_coordinate_system_code '2'
_symmetry_cell_setting 'orthorhombic'
loop_
_space_group_symop_operation_xyz
x,y,z
-x,1/2-y,z
x,1/2-y,1/2-z
-x,y,1/2-z
-x,-y,-z
x,1/2+y,-z
-x,1/2+y,1/2+z
x,-y,1/2+z
1/2+x,1/2+y,z
1/2-x,-y,z
1/2+x,-y,1/2-z
1/2-x,1/2+y,1/2-z
1/2-x,1/2-y,-z
1/2+x,y,-z
1/2-x,y,1/2+z
1/2+x,1/2-y,1/2+z
loop_
_atom_site_type_symbol
_atom_site_label
_atom_site_fract_x
_atom_site_fract_y
_atom_site_fract_z
Si Si1 0.000000 0.178656 0.750000
Si Si2 0.500000 0.013802 0.750000
Si Si3 0.224205 0.844040 0.327087
Si Si4 0.500000 0.250000 0.488454
Si Si5 0.297495 0.289201 0.911545
Si Si6 0.308424 0.076004 0.665634
Si Si7 0.667992 0.462549 0.381319
O O1 0.101546 0.150637 0.789915
O O2 0.032239 0.211117 0.621027
O O3 0.406187 0.045529 0.705069
O O4 0.553875 0.982354 0.634412
O O5 0.256466 0.800192 0.241678
O O6 0.229204 0.831378 0.490790
O O7 0.300569 0.880017 0.258468
O O8 0.417426 0.224520 0.583559
O O9 0.250000 0.250000 0.000000
O O10 0.315638 0.075573 0.496030
O O11 0.205497 0.052008 0.725815
O O12 0.750000 0.500000 0.426179
#
# Coordination Sequence:
#
# PCOD9508147 Si02
#       7
#     8   8  16   8  16  16  16
#     4   9  18  37  64  85 116 166 218 256 321 384
#     4  10  22  41  68  93 129 178 221 270 329 422
#     4  11  23  40  64  94 134 167 216 283 339 386
#     4   9  18  36  63  88 114 163 225 264 304 389
#     4  11  21  41  65  93 125 178 222 274 323 403
#     4  11  23  41  62  98 134 167 218 283 344 396
#     4  10  21  41  67  94 123 171 221 264 326 410
#
# _framework density 23.632487000000001
#
# number of rings (size 3 to 8) (size 9 to 14) (size 15 to 20)
#    0.000    1.636    1.818    3.818    0.000    2.182 
#    3.273    8.182    0.000    0.000    0.000    0.000 
#    0.000    0.000    0.000    0.000    0.000    0.000 
#
# Total GULP energy -245450.219250 kJ/mol
# GULP energy per Si atom -5578.414074 kJ/mol
# Density = 2.357870 g / cm^3
# Si number density = 23.632487 Si / 1000 Ang^3
#
#
#
# Elastic Constant Matrix: (Units=GPa)
#
#
# Indices 1 2 3 4 5 6 
#
# 1 85.4014 18.0363 33.2162 0.0000 0.0000 0.0000
# 2 18.0363 100.0725 13.6462 0.0000 0.0000 0.0000
# 3 33.2162 13.6462 121.8454 0.0000 0.0000 0.0000
# 4 0.0000 0.0000 0.0000 31.7664 0.0000 0.0000
# 5 0.0000 0.0000 0.0000 0.0000 13.2660 0.0000
# 6 0.0000 0.0000 0.0000 0.0000 0.0000 37.2842
#
#
#
# Elastic Compliance Matrix: (Units=1/GPa)
#
#
# Indices 1 2 3 4 5 6 
#
# 1 0.013465 -0.001956 -0.003452 0.000000 0.000000 0.000000
# 2 -0.001956 0.010432 -0.000635 0.000000 0.000000 0.000000
# 3 -0.003452 -0.000635 0.009219 0.000000 0.000000 0.000000
# 4 0.000000 0.000000 0.000000 0.031480 0.000000 0.000000
# 5 0.000000 0.000000 0.000000 0.000000 0.075381 0.000000
# 6 0.000000 0.000000 0.000000 0.000000 0.000000 0.026821
#
#
# Mechanical properties :
#
#
# Convention : Reuss Voigt Hill
#
# Bulk Modulus (GPa) = 47.55008 48.56851 48.05930
# Shear Modulus (GPa) = 26.89714 32.62471 29.76092
#
# Velocity S-wave (km/s) = 3.37730 3.71954 3.55254
# Velocity P-wave (km/s) = 5.94748 6.24843 6.09981
#
# Compressibility (1/GPa) = 0.02103046
#
# Stress axis : x y z
#
# Youngs Moduli (GPa) = 74.26651 95.85969 108.46941
#
# Poissons Ratio (x) = 0.18752 0.37439
# Poissons Ratio (y) = 0.14528 0.06889
# Poissons Ratio (z) = 0.25634 0.06088
#
# Static dielectric constant tensor:
#      x y z
#    x 4.989820 0.000000 0.000000 
#    y 0.000000 2.023850 0.000000 
#    z 0.000000 0.000000 1.885480 
# 
# From -- ./inp_files/12088.got.cif
#   From: 2010.05.17/outbox.cif.g08.bks.cpg/sg68_7_cif.got.tgz:12088.got - 2010.06.03 18:57:09.
