data_PCOD9508686
_publ_section_title
;
Structure prediction by ZEFSAII (Michael W. Deem and Ramdas Pophale) SiO2 
 PCOD9508686
Probable space group: C C C A
;
_chemical_formula_sum "Si O2"
_cell_formula_units_Z 96
_cell_length_a 24.497496
_cell_length_b 15.352117
_cell_length_c 13.397723
_cell_angle_alpha 90.000000
_cell_angle_beta 90.000000
_cell_angle_gamma 90.000000
_cell_volume 5038.728539
_symmetry_space_group_name_H-M "C C C A"
_symmetry_group_IT_number 68
_space_group.IT_coordinate_system_code '2'
_symmetry_cell_setting 'orthorhombic'
loop_
_space_group_symop_operation_xyz
x,y,z
-x,1/2-y,z
x,1/2-y,1/2-z
-x,y,1/2-z
-x,-y,-z
x,1/2+y,-z
-x,1/2+y,1/2+z
x,-y,1/2+z
1/2+x,1/2+y,z
1/2-x,-y,z
1/2+x,-y,1/2-z
1/2-x,1/2+y,1/2-z
1/2-x,1/2-y,-z
1/2+x,y,-z
1/2-x,y,1/2+z
1/2+x,1/2-y,1/2+z
loop_
_atom_site_type_symbol
_atom_site_label
_atom_site_fract_x
_atom_site_fract_y
_atom_site_fract_z
Si Si1 0.383217 0.636140 0.934476
Si Si2 0.561845 0.785855 0.644076
Si Si3 0.308467 0.750000 0.250000
Si Si4 0.937074 0.461152 0.751723
Si Si5 0.143423 0.585468 0.647171
Si Si6 0.750000 0.500000 0.442239
Si Si7 0.744322 0.334535 0.071558
O O1 0.404252 0.735896 0.938710
O O2 0.418204 0.585730 0.850858
O O3 0.319058 0.641829 0.909671
O O4 0.387227 0.591702 0.041444
O O5 0.500000 0.750000 0.637533
O O6 0.584389 0.750000 0.750000
O O7 0.564845 0.888374 0.659626
O O8 0.342527 0.818070 0.315469
O O9 0.272770 0.808439 0.174447
O O10 0.894207 0.535542 0.775399
O O11 0.000000 0.489831 0.750000
O O12 0.199869 0.534530 0.624290
O O13 0.767365 0.581273 0.512666
O O14 0.750000 0.250000 0.000000
#
# Coordination Sequence:
#
# PCOD9508686 Si02
#       7
#    16  16   8  16  16   8  16
#     4  10  22  41  62  97 128 171 217 272 345 393
#     4   9  16  36  62  92 120 149 213 283 319 375
#     4  12  26  44  63  96 141 180 224 278 340 420
#     4  11  23  42  69  98 129 171 233 288 327 394
#     4  11  27  42  65  96 138 181 221 275 349 412
#     4  10  24  46  64 102 132 174 236 270 344 420
#     4  11  24  43  65  98 138 171 224 280 340 416
#
# _framework density 19.052426000000001
#
# number of rings (size 3 to 8) (size 9 to 14) (size 15 to 20)
#    0.000    1.500    6.667    0.000   12.833    0.667 
#    0.000    0.417    0.000    0.000    0.000    0.000 
#    0.000    0.000    0.000    0.000    0.000    0.000 
#
# Total GULP energy -267698.626741 kJ/mol
# GULP energy per Si atom -5577.054724 kJ/mol
# Density = 1.900906 g / cm^3
# Si number density = 19.052426 Si / 1000 Ang^3
#
#
#
# Elastic Constant Matrix: (Units=GPa)
#
#
# Indices 1 2 3 4 5 6 
#
# 1 57.9313 17.1503 28.0223 0.0000 0.0000 0.0000
# 2 17.1503 88.1521 22.6659 0.0000 0.0000 0.0000
# 3 28.0223 22.6659 71.5520 0.0000 0.0000 0.0000
# 4 0.0000 0.0000 0.0000 34.6155 0.0000 0.0000
# 5 0.0000 0.0000 0.0000 0.0000 -0.9676 0.0000
# 6 0.0000 0.0000 0.0000 0.0000 0.0000 22.0492
#
#
#
# Elastic Compliance Matrix: (Units=1/GPa)
#
#
# Indices 1 2 3 4 5 6 
#
# 1 0.021687 -0.002216 -0.007791 0.000000 0.000000 0.000000
# 2 -0.002216 0.012576 -0.003116 0.000000 0.000000 0.000000
# 3 -0.007791 -0.003116 0.018014 0.000000 0.000000 0.000000
# 4 0.000000 0.000000 0.000000 0.028889 0.000000 0.000000
# 5 0.000000 0.000000 0.000000 0.000000 -1.033481 0.000000
# 6 0.000000 0.000000 0.000000 0.000000 0.000000 0.045353
#
#
# Mechanical properties :
#
#
# Convention : Reuss Voigt Hill
#
# Bulk Modulus (GPa) = 38.41611 39.25694 38.83652
# Shear Modulus (GPa) = -5.73369 21.12588 7.69610
#
# Velocity S-wave (km/s) = -1.73665 3.33352 2.01201
# Velocity P-wave (km/s) = 4.02317 5.95533 5.08192
#
# Compressibility (1/GPa) = 0.02603075
#
# Stress axis : x y z
#
# Youngs Moduli (GPa) = 46.11143 79.51434 55.51156
#
# Poissons Ratio (x) = 0.17620 0.43251
# Poissons Ratio (y) = 0.10218 0.17298
# Poissons Ratio (z) = 0.35927 0.24777
#
# Static dielectric constant tensor:
#      x y z
#    x 1.659700 0.000000 0.000000 
#    y 0.000000 1.706370 0.000000 
#    z 0.000000 0.000000 1.669470 
# 
# From -- ./inp_files/25412.got.cif
#   From: 2010.05.17/outbox.cif.g08.bks.cpg/sg68_13_cif.got.tgz:25412.got - 2010.06.03 18:57:09.
