data_PCOD9508591
_publ_section_title
;
Structure prediction by ZEFSAII (Michael W. Deem and Ramdas Pophale) SiO2 
 PCOD9508591
Probable space group: C C C A
;
_chemical_formula_sum "Si O2"
_cell_formula_units_Z 60
_cell_length_a 13.407361
_cell_length_b 24.271051
_cell_length_c 8.740674
_cell_angle_alpha 90.000000
_cell_angle_beta 90.000000
_cell_angle_gamma 90.000000
_cell_volume 2844.309217
_symmetry_space_group_name_H-M "C C C A"
_symmetry_group_IT_number 68
_space_group.IT_coordinate_system_code '2'
_symmetry_cell_setting 'orthorhombic'
loop_
_space_group_symop_operation_xyz
x,y,z
-x,1/2-y,z
x,1/2-y,1/2-z
-x,y,1/2-z
-x,-y,-z
x,1/2+y,-z
-x,1/2+y,1/2+z
x,-y,1/2+z
1/2+x,1/2+y,z
1/2-x,-y,z
1/2+x,-y,1/2-z
1/2-x,1/2+y,1/2-z
1/2-x,1/2-y,-z
1/2+x,y,-z
1/2-x,y,1/2+z
1/2+x,1/2-y,1/2+z
loop_
_atom_site_type_symbol
_atom_site_label
_atom_site_fract_x
_atom_site_fract_y
_atom_site_fract_z
Si Si1 0.113010 0.547642 0.734835
Si Si2 0.621735 0.650344 0.848278
Si Si3 0.500000 0.439307 0.250000
Si Si4 0.000000 0.750000 0.250000
Si Si5 0.220842 0.600249 0.448103
O O1 0.090974 0.482745 0.762102
O O2 0.158948 0.563777 0.570095
O O3 0.000000 0.571655 0.750000
O O4 0.193904 0.566856 0.857390
O O5 0.540617 0.601946 0.880433
O O6 0.568962 0.708841 0.847019
O O7 0.716764 0.644465 0.953773
O O8 0.656888 0.632551 0.678040
#
# Coordination Sequence:
#
# PCOD9508591 Si02
#       5
#    16  16   8   4  16
#     4   9  22  38  59  94 129 162 194 247 290 375
#     4  10  23  40  61  87 115 162 202 257 294 367
#     4   9  22  35  58  90 128 163 198 235 312 344
#     4  10  24  40  64  82 114 156 204 256 324 334
#     4  10  22  40  64  90 124 159 208 235 310 364
#
# _framework density 21.094753000000001
#
# number of rings (size 3 to 8) (size 9 to 14) (size 15 to 20)
#    0.800    1.600    0.000    0.000    7.467   11.733 
#    0.000    0.000    0.000    3.200    0.000    0.000 
#    0.000    0.000    0.000    0.000    0.000    0.000 
#
# Total GULP energy -167224.849589 kJ/mol
# GULP energy per Si atom -5574.161653 kJ/mol
# Density = 2.104674 g / cm^3
# Si number density = 21.094753 Si / 1000 Ang^3
#
#
#
# Elastic Constant Matrix: (Units=GPa)
#
#
# Indices 1 2 3 4 5 6 
#
# 1 155.5278 54.1918 66.4242 0.0000 0.0000 0.0000
# 2 54.1918 123.8506 37.9577 0.0000 0.0000 0.0000
# 3 66.4242 37.9577 125.7171 0.0000 0.0000 0.0000
# 4 0.0000 0.0000 0.0000 6.7935 0.0000 0.0000
# 5 0.0000 0.0000 0.0000 0.0000 32.3275 0.0000
# 6 0.0000 0.0000 0.0000 0.0000 0.0000 38.9284
#
#
#
# Elastic Compliance Matrix: (Units=1/GPa)
#
#
# Indices 1 2 3 4 5 6 
#
# 1 0.009086 -0.002760 -0.003967 0.000000 0.000000 0.000000
# 2 -0.002760 0.009736 -0.001481 0.000000 0.000000 0.000000
# 3 -0.003967 -0.001481 0.010498 0.000000 0.000000 0.000000
# 4 0.000000 0.000000 0.000000 0.147200 0.000000 0.000000
# 5 0.000000 0.000000 0.000000 0.000000 0.030933 0.000000
# 6 0.000000 0.000000 0.000000 0.000000 0.000000 0.025688
#
#
# Mechanical properties :
#
#
# Convention : Reuss Voigt Hill
#
# Bulk Modulus (GPa) = 77.50414 80.24923 78.87669
# Shear Modulus (GPa) = 19.69605 32.04467 25.87036
#
# Velocity S-wave (km/s) = 3.05896 3.90177 3.50578
# Velocity P-wave (km/s) = 7.02118 7.64351 7.33895
#
# Compressibility (1/GPa) = 0.01290254
#
# Stress axis : x y z
#
# Youngs Moduli (GPa) = 110.06347 102.71408 95.25764
#
# Poissons Ratio (x) = 0.28345 0.37792
# Poissons Ratio (y) = 0.30373 0.14112
# Poissons Ratio (z) = 0.43666 0.15217
#
# Static dielectric constant tensor:
#      x y z
#    x 1.924990 0.000000 0.000000 
#    y 0.000000 1.749280 0.000000 
#    z 0.000000 0.000000 1.798170 
# 
# From -- ./inp_files/4913.got.cif
#   From: 2010.05.17/outbox.cif.g08.bks.cpg/sg68_3_cif.got.tgz:4913.got - 2010.06.03 18:57:09.
