data_PCOD9508489
_publ_section_title
;
Structure prediction by ZEFSAII (Michael W. Deem and Ramdas Pophale) SiO2 
 PCOD9508489
Probable space group: C C C A
;
_chemical_formula_sum "Si O2"
_cell_formula_units_Z 128
_cell_length_a 12.103126
_cell_length_b 23.094904
_cell_length_c 24.133074
_cell_angle_alpha 90.000000
_cell_angle_beta 90.000000
_cell_angle_gamma 90.000000
_cell_volume 6745.689709
_symmetry_space_group_name_H-M "C C C A"
_symmetry_group_IT_number 68
_space_group.IT_coordinate_system_code '2'
_symmetry_cell_setting 'orthorhombic'
loop_
_space_group_symop_operation_xyz
x,y,z
-x,1/2-y,z
x,1/2-y,1/2-z
-x,y,1/2-z
-x,-y,-z
x,1/2+y,-z
-x,1/2+y,1/2+z
x,-y,1/2+z
1/2+x,1/2+y,z
1/2-x,-y,z
1/2+x,-y,1/2-z
1/2-x,1/2+y,1/2-z
1/2-x,1/2-y,-z
1/2+x,y,-z
1/2-x,y,1/2+z
1/2+x,1/2-y,1/2+z
loop_
_atom_site_type_symbol
_atom_site_label
_atom_site_fract_x
_atom_site_fract_y
_atom_site_fract_z
Si Si1 0.868874 0.182956 0.738246
Si Si2 0.291772 0.091153 0.175055
Si Si3 0.645234 0.301928 0.387679
Si Si4 0.064049 0.976108 0.691919
Si Si5 0.195005 0.857116 0.969058
Si Si6 0.097472 0.329506 0.915331
Si Si7 0.342705 0.543542 0.493356
Si Si8 0.941127 0.462113 0.419293
O O1 0.844416 0.250000 0.750000
O O2 0.805212 0.139997 0.778251
O O3 0.840836 0.174335 0.674086
O O4 0.000000 0.174657 0.750000
O O5 0.166100 0.067492 0.177388
O O6 0.335917 0.120988 0.118195
O O7 0.375273 0.038542 0.189335
O O8 0.748216 0.313309 0.427249
O O9 0.534534 0.333653 0.409527
O O10 0.624727 0.232862 0.388184
O O11 0.000000 0.967203 0.750000
O O12 0.972488 0.971311 0.643864
O O13 0.291765 0.894179 0.997964
O O14 0.126255 0.904430 0.934298
O O15 0.127270 0.830451 0.019860
O O16 0.250000 0.500000 0.470017
O O17 0.445353 0.542824 0.453157
O O18 0.378139 0.515872 0.552254
#
# Coordination Sequence:
#
# PCOD9508489 Si02
#       8
#    16  16  16  16  16  16  16  16
#     4  11  19  39  67  97 119 152 214 263 317 360
#     4  11  24  41  67  90 123 169 202 265 315 383
#     4  11  23  38  65  96 127 163 212 274 313 378
#     4  11  27  42  59  92 129 164 207 255 318 383
#     4  11  23  36  61  92 128 169 196 261 322 372
#     4  11  22  41  63  96 125 161 219 260 320 372
#     4   9  20  36  59  87 113 161 209 251 298 369
#     4  10  22  39  58  85 125 164 210 248 305 380
#
# _framework density 18.975079999999998
#
# number of rings (size 3 to 8) (size 9 to 14) (size 15 to 20)
#    0.000    1.375    2.500    3.000   10.500    0.000 
#    4.500    0.000    0.000    1.875    0.000    0.000 
#    0.000    0.000    0.000    0.000    0.000    0.000 
#
# Total GULP energy -357484.317951 kJ/mol
# GULP energy per Si atom -5585.692468 kJ/mol
# Density = 1.893189 g / cm^3
# Si number density = 18.975080 Si / 1000 Ang^3
#
#
#
# Elastic Constant Matrix: (Units=GPa)
#
#
# Indices 1 2 3 4 5 6 
#
# 1 63.1179 10.9709 36.8360 0.0000 0.0000 0.0000
# 2 10.9709 51.9428 12.0539 0.0000 0.0000 0.0000
# 3 36.8360 12.0539 133.0709 0.0000 0.0000 0.0000
# 4 0.0000 0.0000 0.0000 39.5910 0.0000 0.0000
# 5 0.0000 0.0000 0.0000 0.0000 22.1854 0.0000
# 6 0.0000 0.0000 0.0000 0.0000 0.0000 16.6331
#
#
#
# Elastic Compliance Matrix: (Units=1/GPa)
#
#
# Indices 1 2 3 4 5 6 
#
# 1 0.019314 -0.002900 -0.005084 0.000000 0.000000 0.000000
# 2 -0.002900 0.020101 -0.001018 0.000000 0.000000 0.000000
# 3 -0.005084 -0.001018 0.009014 0.000000 0.000000 0.000000
# 4 0.000000 0.000000 0.000000 0.025258 0.000000 0.000000
# 5 0.000000 0.000000 0.000000 0.000000 0.045075 0.000000
# 6 0.000000 0.000000 0.000000 0.000000 0.000000 0.060121
#
#
# Mechanical properties :
#
#
# Convention : Reuss Voigt Hill
#
# Bulk Modulus (GPa) = 32.86651 40.87257 36.86954
# Shear Modulus (GPa) = 24.15129 28.23330 26.19229
#
# Velocity S-wave (km/s) = 3.57149 3.86153 3.71934
# Velocity P-wave (km/s) = 5.86224 6.43963 6.15771
#
# Compressibility (1/GPa) = 0.03042611
#
# Stress axis : x y z
#
# Youngs Moduli (GPa) = 51.77502 49.74960 110.93498
#
# Poissons Ratio (x) = 0.14426 0.56397
# Poissons Ratio (y) = 0.15013 0.11294
# Poissons Ratio (z) = 0.26322 0.05065
#
# Static dielectric constant tensor:
#      x y z
#    x 1.666080 0.000000 0.000000 
#    y 0.000000 1.668030 0.000000 
#    z 0.000000 0.000000 1.670070 
# 
# From -- ./inp_files/44725.got.cif
#   From: 2010.05.17/outbox.cif.g08.bks.cpg/sg68_23_cif.got.tgz:44725.got - 2010.06.03 18:57:09.
