data_PCOD9508776
_publ_section_title
;
Structure prediction by ZEFSAII (Michael W. Deem and Ramdas Pophale) SiO2 
 PCOD9508776
Probable space group: C C C A
;
_chemical_formula_sum "Si O2"
_cell_formula_units_Z 48
_cell_length_a 5.110930
_cell_length_b 27.929276
_cell_length_c 15.841759
_cell_angle_alpha 90.000000
_cell_angle_beta 90.000000
_cell_angle_gamma 90.000000
_cell_volume 2261.325149
_symmetry_space_group_name_H-M "C C C A"
_symmetry_group_IT_number 68
_space_group.IT_coordinate_system_code '2'
_symmetry_cell_setting 'orthorhombic'
loop_
_space_group_symop_operation_xyz
x,y,z
-x,1/2-y,z
x,1/2-y,1/2-z
-x,y,1/2-z
-x,-y,-z
x,1/2+y,-z
-x,1/2+y,1/2+z
x,-y,1/2+z
1/2+x,1/2+y,z
1/2-x,-y,z
1/2+x,-y,1/2-z
1/2-x,1/2+y,1/2-z
1/2-x,1/2-y,-z
1/2+x,y,-z
1/2-x,y,1/2+z
1/2+x,1/2-y,1/2+z
loop_
_atom_site_type_symbol
_atom_site_label
_atom_site_fract_x
_atom_site_fract_y
_atom_site_fract_z
Si Si1 0.483137 0.407114 0.148524
Si Si2 0.000000 0.250000 0.439923
Si Si3 0.493487 0.149219 0.648074
Si Si4 0.250000 0.000000 0.438385
O O1 0.500000 0.408803 0.250000
O O2 0.770563 0.389168 0.119518
O O3 0.339475 0.455611 0.119712
O O4 0.279165 0.367097 0.118792
O O5 0.750000 0.250000 0.500000
O O6 0.958388 0.202741 0.383676
O O7 0.500000 0.148466 0.750000
O O8 0.500000 0.000000 0.500000
#
# Coordination Sequence:
#
# PCOD9508776 Si02
#       4
#    16   8  16   8
#     4  10  23  42  65  89 120 166 214 258 307 374
#     4  12  25  38  61  94 126 162 200 254 323 382
#     4  10  22  42  64  88 120 163 212 258 305 369
#     4  12  26  40  62  96 130 164 202 260 328 380
#
# _framework density 21.226492
#
# number of rings (size 3 to 8) (size 9 to 14) (size 15 to 20)
#    0.000    1.333    0.000    4.500    0.000   13.333 
#    0.000    6.667    0.000    0.000    0.000    0.000 
#    0.000    0.000    0.000    0.000    0.000    0.000 
#
# Total GULP energy -133838.579501 kJ/mol
# GULP energy per Si atom -5576.607479 kJ/mol
# Density = 2.117818 g / cm^3
# Si number density = 21.226492 Si / 1000 Ang^3
#
#
#
# Elastic Constant Matrix: (Units=GPa)
#
#
# Indices 1 2 3 4 5 6 
#
# 1 177.9016 39.3583 40.7748 0.0000 0.0000 0.0000
# 2 39.3583 136.7413 33.3092 0.0000 0.0000 0.0000
# 3 40.7748 33.3092 24.0931 0.0000 0.0000 0.0000
# 4 0.0000 0.0000 0.0000 142.0750 0.0000 0.0000
# 5 0.0000 0.0000 0.0000 0.0000 25.9057 0.0000
# 6 0.0000 0.0000 0.0000 0.0000 0.0000 37.2934
#
#
#
# Elastic Compliance Matrix: (Units=1/GPa)
#
#
# Indices 1 2 3 4 5 6 
#
# 1 0.009460 0.001775 -0.018464 0.000000 0.000000 0.000000
# 2 0.001775 0.011359 -0.018708 0.000000 0.000000 0.000000
# 3 -0.018464 -0.018708 0.098619 0.000000 0.000000 0.000000
# 4 0.000000 0.000000 0.000000 0.007039 0.000000 0.000000
# 5 0.000000 0.000000 0.000000 0.000000 0.038602 0.000000
# 6 0.000000 0.000000 0.000000 0.000000 0.000000 0.026814
#
#
# Mechanical properties :
#
#
# Convention : Reuss Voigt Hill
#
# Bulk Modulus (GPa) = 20.55791 62.84675 41.70233
# Shear Modulus (GPa) = 17.92736 56.07442 37.00089
#
# Velocity S-wave (km/s) = 2.90931 5.14534 4.17963
# Velocity P-wave (km/s) = 4.58165 8.06048 6.55602
#
# Compressibility (1/GPa) = 0.04864307
#
# Stress axis : x y z
#
# Youngs Moduli (GPa) = 105.70326 88.03247 10.14005
#
# Poissons Ratio (x) = -0.15624 0.18723
# Poissons Ratio (y) = -0.18760 0.18970
# Poissons Ratio (z) = 1.95174 1.64694
#
# Static dielectric constant tensor:
#      x y z
#    x 1.793470 0.000000 0.000000 
#    y 0.000000 1.810160 0.000000 
#    z 0.000000 0.000000 1.748400 
# 
# From -- ./inp_files/18238.got.cif
#   From: 2010.05.17/outbox.cif.g08.bks.cpg/sg68_10_cif.got.tgz:18238.got - 2010.06.03 18:57:09.
