data_PCOD9508418
_publ_section_title
;
Structure prediction by ZEFSAII (Michael W. Deem and Ramdas Pophale) SiO2 
 PCOD9508418
Probable space group: C C C A
;
_chemical_formula_sum "Si O2"
_cell_formula_units_Z 112
_cell_length_a 11.055733
_cell_length_b 27.238216
_cell_length_c 18.119465
_cell_angle_alpha 90.000000
_cell_angle_beta 90.000000
_cell_angle_gamma 90.000000
_cell_volume 5456.467487
_symmetry_space_group_name_H-M "C C C A"
_symmetry_group_IT_number 68
_space_group.IT_coordinate_system_code '2'
_symmetry_cell_setting 'orthorhombic'
loop_
_space_group_symop_operation_xyz
x,y,z
-x,1/2-y,z
x,1/2-y,1/2-z
-x,y,1/2-z
-x,-y,-z
x,1/2+y,-z
-x,1/2+y,1/2+z
x,-y,1/2+z
1/2+x,1/2+y,z
1/2-x,-y,z
1/2+x,-y,1/2-z
1/2-x,1/2+y,1/2-z
1/2-x,1/2-y,-z
1/2+x,y,-z
1/2-x,y,1/2+z
1/2+x,1/2-y,1/2+z
loop_
_atom_site_type_symbol
_atom_site_label
_atom_site_fract_x
_atom_site_fract_y
_atom_site_fract_z
Si Si1 0.257265 0.087933 0.719832
Si Si2 0.195345 0.305062 0.751473
Si Si3 0.989963 0.304743 0.879113
Si Si4 0.546176 0.604218 0.981839
Si Si5 0.519827 0.565125 0.131921
Si Si6 0.757548 0.942597 0.124852
Si Si7 0.633894 0.467312 0.085183
O O1 0.269050 0.146101 0.731900
O O2 0.391317 0.069025 0.701415
O O3 0.193757 0.065706 0.792271
O O4 0.177296 0.067975 0.651487
O O5 0.249530 0.250000 0.750000
O O6 0.128468 0.311130 0.672526
O O7 0.095927 0.306596 0.817486
O O8 0.990868 0.345111 0.942926
O O9 0.000000 0.250000 0.910898
O O10 0.658872 0.583845 0.934631
O O11 0.432996 0.566918 0.972838
O O12 0.575374 0.600717 0.068210
O O13 0.379018 0.577302 0.134315
O O14 0.536971 0.508282 0.108850
O O15 0.750000 0.000000 0.108907
O O16 0.750000 0.500000 0.062372
#
# Coordination Sequence:
#
# PCOD9508418 Si02
#       7
#    16  16  16  16  16  16  16
#     4  11  22  40  62  88 126 164 205 263 309 371
#     4   9  17  33  63  94 115 151 202 267 320 355
#     4   9  18  35  61  97 121 144 207 274 312 351
#     4  12  23  38  66  90 122 170 210 260 316 372
#     4  11  26  39  57  87 134 167 204 251 314 381
#     4  12  25  38  60  88 124 169 210 246 304 379
#     4  10  22  38  59  88 125 162 209 254 310 368
#
# _framework density 20.526101000000001
#
# number of rings (size 3 to 8) (size 9 to 14) (size 15 to 20)
#    0.000    1.429    4.286    3.000    4.000    0.571 
#    0.000    0.000    3.143    3.429    0.000    0.000 
#    0.000    0.000    0.000    0.000    0.000    0.000 
#
# Total GULP energy -312506.160350 kJ/mol
# GULP energy per Si atom -5580.467149 kJ/mol
# Density = 2.047938 g / cm^3
# Si number density = 20.526101 Si / 1000 Ang^3
#
#
#
# Elastic Constant Matrix: (Units=GPa)
#
#
# Indices 1 2 3 4 5 6 
#
# 1 54.6713 -2.2613 0.2807 0.0000 0.0000 0.0000
# 2 -2.2613 134.9081 17.2165 0.0000 0.0000 0.0000
# 3 0.2807 17.2165 75.3444 0.0000 0.0000 0.0000
# 4 0.0000 0.0000 0.0000 21.3842 0.0000 0.0000
# 5 0.0000 0.0000 0.0000 0.0000 25.7932 0.0000
# 6 0.0000 0.0000 0.0000 0.0000 0.0000 15.0116
#
#
#
# Elastic Compliance Matrix: (Units=1/GPa)
#
#
# Indices 1 2 3 4 5 6 
#
# 1 0.018305 0.000325 -0.000142 0.000000 0.000000 0.000000
# 2 0.000325 0.007641 -0.001747 0.000000 0.000000 0.000000
# 3 -0.000142 -0.001747 0.013672 0.000000 0.000000 0.000000
# 4 0.000000 0.000000 0.000000 0.046764 0.000000 0.000000
# 5 0.000000 0.000000 0.000000 0.000000 0.038770 0.000000
# 6 0.000000 0.000000 0.000000 0.000000 0.000000 0.066615
#
#
# Mechanical properties :
#
#
# Convention : Reuss Voigt Hill
#
# Bulk Modulus (GPa) = 27.40548 32.82174 30.11361
# Shear Modulus (GPa) = 24.14768 29.08366 26.61567
#
# Velocity S-wave (km/s) = 3.43364 3.76827 3.60484
# Velocity P-wave (km/s) = 5.39448 5.91254 5.65944
#
# Compressibility (1/GPa) = 0.03648906
#
# Stress axis : x y z
#
# Youngs Moduli (GPa) = 54.62896 130.87516 73.14137
#
# Poissons Ratio (x) = -0.04254 0.01042
# Poissons Ratio (y) = -0.01776 0.12779
# Poissons Ratio (z) = 0.00778 0.22866
#
# Static dielectric constant tensor:
#      x y z
#    x 1.767680 0.000000 0.000000 
#    y 0.000000 1.721750 0.000000 
#    z 0.000000 0.000000 1.765980 
# 
# From -- ./inp_files/37942.got.cif
#   From: 2010.05.17/outbox.cif.g08.bks.cpg/sg68_19_cif.got.tgz:37942.got - 2010.06.03 18:57:09.
