data_PCOD9508634
_publ_section_title
;
Structure prediction by ZEFSAII (Michael W. Deem and Ramdas Pophale) SiO2 
 PCOD9508634
Probable space group: C C C A
;
_chemical_formula_sum "Si O2"
_cell_formula_units_Z 96
_cell_length_a 10.115617
_cell_length_b 16.070950
_cell_length_c 25.508877
_cell_angle_alpha 90.000000
_cell_angle_beta 90.000000
_cell_angle_gamma 90.000000
_cell_volume 4146.916276
_symmetry_space_group_name_H-M "C C C A"
_symmetry_group_IT_number 68
_space_group.IT_coordinate_system_code '2'
_symmetry_cell_setting 'orthorhombic'
loop_
_space_group_symop_operation_xyz
x,y,z
-x,1/2-y,z
x,1/2-y,1/2-z
-x,y,1/2-z
-x,-y,-z
x,1/2+y,-z
-x,1/2+y,1/2+z
x,-y,1/2+z
1/2+x,1/2+y,z
1/2-x,-y,z
1/2+x,-y,1/2-z
1/2-x,1/2+y,1/2-z
1/2-x,1/2-y,-z
1/2+x,y,-z
1/2-x,y,1/2+z
1/2+x,1/2-y,1/2+z
loop_
_atom_site_type_symbol
_atom_site_label
_atom_site_fract_x
_atom_site_fract_y
_atom_site_fract_z
Si Si1 0.532170 0.513985 0.153577
Si Si2 0.787762 0.122367 0.814222
Si Si3 0.862214 0.070193 0.566928
Si Si4 0.624457 0.802396 0.481614
Si Si5 0.734015 0.264370 0.879410
Si Si6 0.874699 0.859865 0.713884
O O1 0.657908 0.578031 0.157763
O O2 0.590679 0.439320 0.186852
O O3 0.482379 0.474197 0.098504
O O4 0.408109 0.555663 0.182560
O O5 0.828704 0.198695 0.851199
O O6 0.744245 0.139929 0.754956
O O7 0.887460 0.107849 0.508621
O O8 0.805043 0.153350 0.596726
O O9 0.750000 0.000000 0.563834
O O10 0.500000 0.750000 0.500105
O O11 0.750000 0.750000 0.500000
O O12 0.644613 0.788067 0.420078
O O13 0.645151 0.294340 0.831499
O O14 0.000000 0.843696 0.750000
#
# Coordination Sequence:
#
# PCOD9508634 Si02
#       6
#    16  16  16  16  16  16
#     4  10  23  42  68 101 146 185 235 291 360 427
#     4  10  24  41  66 109 141 192 232 295 354 430
#     4  11  24  47  73 105 139 193 240 301 369 433
#     4  10  26  46  72 107 144 185 242 303 369 437
#     4  11  24  44  69 104 145 184 239 297 362 434
#     4  10  22  40  68 101 144 189 235 286 348 434
#
# _framework density 23.149733000000001
#
# number of rings (size 3 to 8) (size 9 to 14) (size 15 to 20)
#    0.000    1.667    1.667    0.500    9.333    8.667 
#    3.000    4.167    0.000    2.000    0.000    0.000 
#    0.000    0.000    0.000    0.000    0.000    0.000 
#
# Total GULP energy -267755.885136 kJ/mol
# GULP energy per Si atom -5578.247607 kJ/mol
# Density = 2.309704 g / cm^3
# Si number density = 23.149733 Si / 1000 Ang^3
#
#
#
# Elastic Constant Matrix: (Units=GPa)
#
#
# Indices 1 2 3 4 5 6 
#
# 1 35.8997 -0.2275 18.1254 0.0000 0.0000 0.0000
# 2 -0.2275 116.3835 60.7490 0.0000 0.0000 0.0000
# 3 18.1254 60.7490 130.5196 0.0000 0.0000 0.0000
# 4 0.0000 0.0000 0.0000 60.4476 0.0000 0.0000
# 5 0.0000 0.0000 0.0000 0.0000 8.1338 0.0000
# 6 0.0000 0.0000 0.0000 0.0000 0.0000 20.1195
#
#
#
# Elastic Compliance Matrix: (Units=1/GPa)
#
#
# Indices 1 2 3 4 5 6 
#
# 1 0.030740 0.003023 -0.005676 0.000000 0.000000 0.000000
# 2 0.003023 0.011647 -0.005841 0.000000 0.000000 0.000000
# 3 -0.005676 -0.005841 0.011168 0.000000 0.000000 0.000000
# 4 0.000000 0.000000 0.000000 0.016543 0.000000 0.000000
# 5 0.000000 0.000000 0.000000 0.000000 0.122944 0.000000
# 6 0.000000 0.000000 0.000000 0.000000 0.000000 0.049703
#
#
# Mechanical properties :
#
#
# Convention : Reuss Voigt Hill
#
# Bulk Modulus (GPa) = 27.34640 48.89961 38.12300
# Shear Modulus (GPa) = 18.38761 31.35058 24.86910
#
# Velocity S-wave (km/s) = 2.82137 3.68401 3.28116
# Velocity P-wave (km/s) = 4.73836 6.26617 5.55504
#
# Compressibility (1/GPa) = 0.03656789
#
# Stress axis : x y z
#
# Youngs Moduli (GPa) = 32.53067 85.86004 89.53861
#
# Poissons Ratio (x) = -0.25953 0.50820
# Poissons Ratio (y) = -0.09833 0.52297
# Poissons Ratio (z) = 0.18464 0.50148
#
# Static dielectric constant tensor:
#      x y z
#    x 1.890880 0.000000 0.000000 
#    y 0.000000 2.000760 0.000000 
#    z 0.000000 0.000000 2.053950 
# 
# From -- ./inp_files/44437.got.cif
#   From: 2010.05.17/outbox.cif.g08.bks.cpg/sg68_23_cif.got.tgz:44437.got - 2010.06.03 18:57:09.
