data_PCOD9508008
_publ_section_title
;
Structure prediction by ZEFSAII (Michael W. Deem and Ramdas Pophale) SiO2 
 PCOD9508008
Probable space group: C C C A
;
_chemical_formula_sum "Si O2"
_cell_formula_units_Z 72
_cell_length_a 14.083950
_cell_length_b 13.793253
_cell_length_c 17.513702
_cell_angle_alpha 90.000000
_cell_angle_beta 90.000000
_cell_angle_gamma 90.000000
_cell_volume 3402.272796
_symmetry_space_group_name_H-M "C C C A"
_symmetry_group_IT_number 68
_space_group.IT_coordinate_system_code '2'
_symmetry_cell_setting 'orthorhombic'
loop_
_space_group_symop_operation_xyz
x,y,z
-x,1/2-y,z
x,1/2-y,1/2-z
-x,y,1/2-z
-x,-y,-z
x,1/2+y,-z
-x,1/2+y,1/2+z
x,-y,1/2+z
1/2+x,1/2+y,z
1/2-x,-y,z
1/2+x,-y,1/2-z
1/2-x,1/2+y,1/2-z
1/2-x,1/2-y,-z
1/2+x,y,-z
1/2-x,y,1/2+z
1/2+x,1/2-y,1/2+z
loop_
_atom_site_type_symbol
_atom_site_label
_atom_site_fract_x
_atom_site_fract_y
_atom_site_fract_z
Si Si1 0.250000 0.000000 0.823828
Si Si2 0.288228 0.351670 0.787980
Si Si3 0.406627 0.640268 0.861658
Si Si4 0.388543 0.850876 0.904322
Si Si5 0.151608 0.551990 0.942623
O O1 0.181785 0.937873 0.768362
O O2 0.305577 0.917672 0.870432
O O3 0.313349 0.250000 0.750000
O O4 0.172909 0.358913 0.795889
O O5 0.325670 0.374995 0.872599
O O6 0.372832 0.735216 0.909760
O O7 0.519143 0.646745 0.849651
O O8 0.400492 0.539797 0.906844
O O9 0.401272 0.894391 0.988936
O O10 0.250000 0.500000 0.968673
#
# Coordination Sequence:
#
# PCOD9508008 Si02
#       5
#     8  16  16  16  16
#     4  12  22  38  62  94 124 168 212 254 326 382
#     4  11  22  41  62  93 129 168 207 262 322 388
#     4  10  22  40  63  91 128 158 212 269 312 369
#     4  11  23  38  65  97 119 167 214 265 314 381
#     4  10  21  40  63  89 130 165 207 261 321 378
#
# _framework density 21.162324000000002
#
# number of rings (size 3 to 8) (size 9 to 14) (size 15 to 20)
#    0.000    1.333    6.667    0.667    0.000    6.222 
#    0.000    0.000    0.000    1.333    0.000    0.000 
#    0.000    0.000    0.000    0.000    0.000    0.000 
#
# Total GULP energy -200519.165878 kJ/mol
# GULP energy per Si atom -5569.976830 kJ/mol
# Density = 2.111416 g / cm^3
# Si number density = 21.162324 Si / 1000 Ang^3
#
#
#
# Elastic Constant Matrix: (Units=GPa)
#
#
# Indices 1 2 3 4 5 6 
#
# 1 47.4425 8.3921 10.4627 0.0000 0.0000 0.0000
# 2 8.3921 152.4656 36.2945 0.0000 0.0000 0.0000
# 3 10.4627 36.2945 79.6625 0.0000 0.0000 0.0000
# 4 0.0000 0.0000 0.0000 33.4938 0.0000 0.0000
# 5 0.0000 0.0000 0.0000 0.0000 12.4206 0.0000
# 6 0.0000 0.0000 0.0000 0.0000 0.0000 26.0376
#
#
#
# Elastic Compliance Matrix: (Units=1/GPa)
#
#
# Indices 1 2 3 4 5 6 
#
# 1 0.021753 -0.000580 -0.002593 0.000000 0.000000 0.000000
# 2 -0.000580 0.007372 -0.003283 0.000000 0.000000 0.000000
# 3 -0.002593 -0.003283 0.014389 0.000000 0.000000 0.000000
# 4 0.000000 0.000000 0.000000 0.029856 0.000000 0.000000
# 5 0.000000 0.000000 0.000000 0.000000 0.080512 0.000000
# 6 0.000000 0.000000 0.000000 0.000000 0.000000 0.038406
#
#
# Mechanical properties :
#
#
# Convention : Reuss Voigt Hill
#
# Bulk Modulus (GPa) = 32.67648 43.31879 37.99764
# Shear Modulus (GPa) = 23.21269 29.35182 26.28226
#
# Velocity S-wave (km/s) = 3.31552 3.72826 3.52793
# Velocity P-wave (km/s) = 5.48920 6.24880 5.88128
#
# Compressibility (1/GPa) = 0.03060305
#
# Stress axis : x y z
#
# Youngs Moduli (GPa) = 45.97171 135.64438 69.49737
#
# Poissons Ratio (x) = 0.07869 0.18018
# Poissons Ratio (y) = 0.02667 0.22813
# Poissons Ratio (z) = 0.11919 0.44527
#
# Static dielectric constant tensor:
#      x y z
#    x 1.824990 0.000000 0.000000 
#    y 0.000000 1.784470 0.000000 
#    z 0.000000 0.000000 1.774250 
# 
# From -- ./inp_files/30658.got.cif
#   From: 2010.05.17/outbox.cif.g08.bks.cpg/sg68_16_cif.got.tgz:30658.got - 2010.06.03 18:57:09.
