data_PCOD9508366
_publ_section_title
;
Structure prediction by ZEFSAII (Michael W. Deem and Ramdas Pophale) SiO2 
 PCOD9508366
Probable space group: C C C A
;
_chemical_formula_sum "Si O2"
_cell_formula_units_Z 96
_cell_length_a 8.513766
_cell_length_b 22.057545
_cell_length_c 23.243607
_cell_angle_alpha 90.000000
_cell_angle_beta 90.000000
_cell_angle_gamma 90.000000
_cell_volume 4364.981498
_symmetry_space_group_name_H-M "C C C A"
_symmetry_group_IT_number 68
_space_group.IT_coordinate_system_code '2'
_symmetry_cell_setting 'orthorhombic'
loop_
_space_group_symop_operation_xyz
x,y,z
-x,1/2-y,z
x,1/2-y,1/2-z
-x,y,1/2-z
-x,-y,-z
x,1/2+y,-z
-x,1/2+y,1/2+z
x,-y,1/2+z
1/2+x,1/2+y,z
1/2-x,-y,z
1/2+x,-y,1/2-z
1/2-x,1/2+y,1/2-z
1/2-x,1/2-y,-z
1/2+x,y,-z
1/2-x,y,1/2+z
1/2+x,1/2-y,1/2+z
loop_
_atom_site_type_symbol
_atom_site_label
_atom_site_fract_x
_atom_site_fract_y
_atom_site_fract_z
Si Si1 0.000000 0.610312 0.250000
Si Si2 0.610938 0.422136 0.599682
Si Si3 0.041227 0.550311 0.368719
Si Si4 0.114114 0.120369 0.972171
Si Si5 0.000000 0.250000 0.018795
Si Si6 0.635143 0.671170 0.396783
Si Si7 0.680150 0.320534 0.765773
O O1 0.025720 0.570934 0.192365
O O2 0.837119 0.647785 0.240648
O O3 0.773321 0.435531 0.630976
O O4 0.507717 0.479868 0.618048
O O5 0.629825 0.417033 0.530806
O O6 0.534859 0.357828 0.615001
O O7 0.987119 0.588521 0.423679
O O8 0.280791 0.125748 0.940524
O O9 0.047069 0.188563 0.985696
O O10 0.133995 0.268489 0.064824
O O11 0.707383 0.676848 0.334651
O O12 0.680051 0.250000 0.750000
O O13 0.500000 0.343142 0.750000
#
# Coordination Sequence:
#
# PCOD9508366 Si02
#       7
#     8  16  16  16   8  16  16
#     4  12  25  48  68 102 138 185 236 280 344 414
#     4  10  23  43  69  96 131 177 223 290 346 406
#     4  11  24  45  65  97 137 178 229 284 341 413
#     4  11  22  41  67 102 134 176 223 281 349 415
#     4  10  22  36  65  97 138 170 218 284 348 410
#     4  11  22  42  64 100 129 175 228 278 342 412
#     4  11  24  44  70  99 138 186 231 282 340 410
#
# _framework density 21.993220999999998
#
# number of rings (size 3 to 8) (size 9 to 14) (size 15 to 20)
#    0.000    1.167    1.667    5.250    0.000    6.000 
#    7.500    0.000    0.000    0.000    0.000    0.000 
#    0.000    0.000    0.000    0.000    0.000    0.000 
#
# Total GULP energy -267615.106324 kJ/mol
# GULP energy per Si atom -5575.314715 kJ/mol
# Density = 2.194316 g / cm^3
# Si number density = 21.993221 Si / 1000 Ang^3
#
#
#
# Elastic Constant Matrix: (Units=GPa)
#
#
# Indices 1 2 3 4 5 6 
#
# 1 65.0595 14.6574 -1.9934 0.0000 0.0000 0.0000
# 2 14.6574 83.8757 21.4230 0.0000 0.0000 0.0000
# 3 -1.9934 21.4230 112.9883 0.0000 0.0000 0.0000
# 4 0.0000 0.0000 0.0000 5.6609 0.0000 0.0000
# 5 0.0000 0.0000 0.0000 0.0000 39.6815 0.0000
# 6 0.0000 0.0000 0.0000 0.0000 0.0000 6.9869
#
#
#
# Elastic Compliance Matrix: (Units=1/GPa)
#
#
# Indices 1 2 3 4 5 6 
#
# 1 0.016079 -0.003029 0.000858 0.000000 0.000000 0.000000
# 2 -0.003029 0.013100 -0.002537 0.000000 0.000000 0.000000
# 3 0.000858 -0.002537 0.009347 0.000000 0.000000 0.000000
# 4 0.000000 0.000000 0.000000 0.176652 0.000000 0.000000
# 5 0.000000 0.000000 0.000000 0.000000 0.025201 0.000000
# 6 0.000000 0.000000 0.000000 0.000000 0.000000 0.143124
#
#
# Mechanical properties :
#
#
# Convention : Reuss Voigt Hill
#
# Bulk Modulus (GPa) = 34.35336 36.67751 35.51543
# Shear Modulus (GPa) = 12.41861 25.65495 19.03678
#
# Velocity S-wave (km/s) = 2.37883 3.41910 2.94526
# Velocity P-wave (km/s) = 4.81653 5.68330 5.26778
#
# Compressibility (1/GPa) = 0.02910923
#
# Stress axis : x y z
#
# Youngs Moduli (GPa) = 62.19190 76.33716 106.98990
#
# Poissons Ratio (x) = 0.23123 -0.09180
# Poissons Ratio (y) = 0.18838 0.27146
# Poissons Ratio (z) = -0.05336 0.19368
#
# Static dielectric constant tensor:
#      x y z
#    x 2.055630 0.000000 0.000000 
#    y 0.000000 1.809420 0.000000 
#    z 0.000000 0.000000 2.013550 
# 
# From -- ./inp_files/43341.got.cif
#   From: 2010.05.17/outbox.cif.g08.bks.cpg/sg68_22_cif.got.tgz:43341.got - 2010.06.03 18:57:09.
