data_PCOD9508215
_publ_section_title
;
Structure prediction by ZEFSAII (Michael W. Deem and Ramdas Pophale) SiO2 
 PCOD9508215
Probable space group: C C C A
;
_chemical_formula_sum "Si O2"
_cell_formula_units_Z 48
_cell_length_a 9.345793
_cell_length_b 14.997757
_cell_length_c 14.137628
_cell_angle_alpha 90.000000
_cell_angle_beta 90.000000
_cell_angle_gamma 90.000000
_cell_volume 1981.613810
_symmetry_space_group_name_H-M "C C C A"
_symmetry_group_IT_number 68
_space_group.IT_coordinate_system_code '2'
_symmetry_cell_setting 'orthorhombic'
loop_
_space_group_symop_operation_xyz
x,y,z
-x,1/2-y,z
x,1/2-y,1/2-z
-x,y,1/2-z
-x,-y,-z
x,1/2+y,-z
-x,1/2+y,1/2+z
x,-y,1/2+z
1/2+x,1/2+y,z
1/2-x,-y,z
1/2+x,-y,1/2-z
1/2-x,1/2+y,1/2-z
1/2-x,1/2-y,-z
1/2+x,y,-z
1/2-x,y,1/2+z
1/2+x,1/2-y,1/2+z
loop_
_atom_site_type_symbol
_atom_site_label
_atom_site_fract_x
_atom_site_fract_y
_atom_site_fract_z
Si Si1 0.417988 0.844320 0.339139
Si Si2 0.168883 0.593510 0.268277
Si Si3 0.871794 0.315767 0.538133
O O1 0.500000 0.750000 0.347275
O O2 0.500000 0.888753 0.250000
O O3 0.255004 0.841860 0.303169
O O4 0.418574 0.876389 0.447413
O O5 0.250000 0.500000 0.253964
O O6 0.185007 0.627080 0.375234
O O7 0.000000 0.591078 0.250000
O O8 0.750000 0.250000 0.500000
O O9 0.000000 0.250000 0.567627
#
# Coordination Sequence:
#
# PCOD9508215 Si02
#       3
#    16  16  16
#     4  10  21  42  69  97 136 180 227 287 348 410
#     4  12  27  46  70 105 146 187 232 289 357 423
#     4  11  23  41  70 103 134 179 236 288 343 415
#
# _framework density 24.222681999999999
#
# number of rings (size 3 to 8) (size 9 to 14) (size 15 to 20)
#    0.000    1.000    0.000    9.000    0.000    4.667 
#    0.000   10.000    0.000    0.000    0.000    0.000 
#    0.000    0.000    0.000    0.000    0.000    0.000 
#
# Total GULP energy -134151.615764 kJ/mol
# GULP energy per Si atom -5589.650657 kJ/mol
# Density = 2.416755 g / cm^3
# Si number density = 24.222682 Si / 1000 Ang^3
#
#
#
# Elastic Constant Matrix: (Units=GPa)
#
#
# Indices 1 2 3 4 5 6 
#
# 1 182.5414 46.7326 7.5801 0.0000 0.0000 0.0000
# 2 46.7326 62.0692 27.8877 0.0000 0.0000 0.0000
# 3 7.5801 27.8877 159.5985 0.0000 0.0000 0.0000
# 4 0.0000 0.0000 0.0000 -1.3242 0.0000 0.0000
# 5 0.0000 0.0000 0.0000 0.0000 48.9576 0.0000
# 6 0.0000 0.0000 0.0000 0.0000 0.0000 32.8925
#
#
#
# Elastic Compliance Matrix: (Units=1/GPa)
#
#
# Indices 1 2 3 4 5 6 
#
# 1 0.006843 -0.005433 0.000624 0.000000 0.000000 0.000000
# 2 -0.005433 0.021797 -0.003551 0.000000 0.000000 0.000000
# 3 0.000624 -0.003551 0.006857 0.000000 0.000000 0.000000
# 4 0.000000 0.000000 0.000000 -0.755154 0.000000 0.000000
# 5 0.000000 0.000000 0.000000 0.000000 0.020426 0.000000
# 6 0.000000 0.000000 0.000000 0.000000 0.000000 0.030402
#
#
# Mechanical properties :
#
#
# Convention : Reuss Voigt Hill
#
# Bulk Modulus (GPa) = 53.25352 63.17891 58.21621
# Shear Modulus (GPa) = -7.74171 37.57242 14.91535
#
# Velocity S-wave (km/s) = -1.78969 3.94271 2.48414
# Velocity P-wave (km/s) = 4.21450 6.84586 5.68453
#
# Compressibility (1/GPa) = 0.01877810
#
# Stress axis : x y z
#
# Youngs Moduli (GPa) = 146.13187 45.87841 145.84697
#
# Poissons Ratio (x) = 0.24925 -0.09105
# Poissons Ratio (y) = 0.79390 0.51785
# Poissons Ratio (z) = -0.09123 0.16290
#
# Static dielectric constant tensor:
#      x y z
#    x 1.988060 0.000000 0.000000 
#    y 0.000000 1.991970 0.000000 
#    z 0.000000 0.000000 1.979300 
# 
# From -- ./inp_files/27561.got.cif
#   From: 2010.05.17/outbox.cif.g08.bks.cpg/sg68_14_cif.got.tgz:27561.got - 2010.06.03 18:57:09.
