data_PCOD9508648
_publ_section_title
;
Structure prediction by ZEFSAII (Michael W. Deem and Ramdas Pophale) SiO2 
 PCOD9508648
Probable space group: C C C A
;
_chemical_formula_sum "Si O2"
_cell_formula_units_Z 80
_cell_length_a 15.805084
_cell_length_b 9.273765
_cell_length_c 21.832628
_cell_angle_alpha 90.000000
_cell_angle_beta 90.000000
_cell_angle_gamma 90.000000
_cell_volume 3200.065811
_symmetry_space_group_name_H-M "C C C A"
_symmetry_group_IT_number 68
_space_group.IT_coordinate_system_code '2'
_symmetry_cell_setting 'orthorhombic'
loop_
_space_group_symop_operation_xyz
x,y,z
-x,1/2-y,z
x,1/2-y,1/2-z
-x,y,1/2-z
-x,-y,-z
x,1/2+y,-z
-x,1/2+y,1/2+z
x,-y,1/2+z
1/2+x,1/2+y,z
1/2-x,-y,z
1/2+x,-y,1/2-z
1/2-x,1/2+y,1/2-z
1/2-x,1/2-y,-z
1/2+x,y,-z
1/2-x,y,1/2+z
1/2+x,1/2-y,1/2+z
loop_
_atom_site_type_symbol
_atom_site_label
_atom_site_fract_x
_atom_site_fract_y
_atom_site_fract_z
Si Si1 0.674061 0.090161 0.224516
Si Si2 0.618965 0.034256 0.898050
Si Si3 0.151957 0.042200 0.965944
Si Si4 0.449824 0.407285 0.647872
Si Si5 0.229476 0.766821 0.111521
O O1 0.647621 0.250000 0.250000
O O2 0.719275 0.145888 0.162160
O O3 0.750000 0.000000 0.256665
O O4 0.602020 0.973805 0.205277
O O5 0.534573 0.002184 0.861739
O O6 0.673312 0.181972 0.891248
O O7 0.679587 0.910229 0.875468
O O8 0.602817 0.030294 0.970772
O O9 0.173526 0.204296 0.944668
O O10 0.250000 0.000000 0.978879
O O11 0.105971 0.951300 0.912639
O O12 0.500000 0.250000 0.651215
#
# Coordination Sequence:
#
# PCOD9508648 Si02
#       5
#    16  16  16  16  16
#     4  11  26  50  82 105 136 190 254 320 393 458
#     4  11  22  37  66 101 152 195 241 293 364 443
#     4  11  21  37  61 104 146 207 244 286 353 443
#     4  11  24  43  70 108 155 187 244 317 374 442
#     4  10  22  40  69 100 144 195 252 299 363 452
#
# _framework density 24.999486999999998
#
# number of rings (size 3 to 8) (size 9 to 14) (size 15 to 20)
#    0.000    1.200    2.000    6.000    5.600    3.200 
#    0.000    2.000    0.000    0.000    0.000    0.000 
#    0.000    0.000    0.000    0.000    0.000    0.000 
#
# Total GULP energy -222726.242073 kJ/mol
# GULP energy per Si atom -5568.156052 kJ/mol
# Density = 2.494259 g / cm^3
# Si number density = 24.999487 Si / 1000 Ang^3
#
#
#
# Elastic Constant Matrix: (Units=GPa)
#
#
# Indices 1 2 3 4 5 6 
#
# 1 147.0918 43.9049 29.0010 0.0000 0.0000 0.0000
# 2 43.9049 109.1982 31.0826 0.0000 0.0000 0.0000
# 3 29.0010 31.0826 81.8215 0.0000 0.0000 0.0000
# 4 0.0000 0.0000 0.0000 24.9513 0.0000 0.0000
# 5 0.0000 0.0000 0.0000 0.0000 57.3090 0.0000
# 6 0.0000 0.0000 0.0000 0.0000 0.0000 20.8701
#
#
#
# Elastic Compliance Matrix: (Units=1/GPa)
#
#
# Indices 1 2 3 4 5 6 
#
# 1 0.007955 -0.002686 -0.001799 0.000000 0.000000 0.000000
# 2 -0.002686 0.011175 -0.003293 0.000000 0.000000 0.000000
# 3 -0.001799 -0.003293 0.014110 0.000000 0.000000 0.000000
# 4 0.000000 0.000000 0.000000 0.040078 0.000000 0.000000
# 5 0.000000 0.000000 0.000000 0.000000 0.017449 0.000000
# 6 0.000000 0.000000 0.000000 0.000000 0.000000 0.047915
#
#
# Mechanical properties :
#
#
# Convention : Reuss Voigt Hill
#
# Bulk Modulus (GPa) = 56.54999 60.67651 58.61325
# Shear Modulus (GPa) = 31.22372 36.23429 33.72900
#
# Velocity S-wave (km/s) = 3.53792 3.81123 3.67711
# Velocity P-wave (km/s) = 6.27365 6.60992 6.44398
#
# Compressibility (1/GPa) = 0.01768347
#
# Stress axis : x y z
#
# Youngs Moduli (GPa) = 125.70662 89.48464 70.86979
#
# Poissons Ratio (x) = 0.24039 0.12750
# Poissons Ratio (y) = 0.33769 0.23338
# Poissons Ratio (z) = 0.22616 0.29468
#
# Static dielectric constant tensor:
#      x y z
#    x 2.008010 0.000000 0.000000 
#    y 0.000000 1.498260 0.000000 
#    z 0.000000 0.000000 2.099130 
# 
# From -- ./inp_files/51262.got.cif
#   From: 2010.05.17/outbox.cif.g08.bks.cpg/sg68_26_cif.got.tgz:51262.got - 2010.06.03 18:57:09.
