data_PCOD9508819
_publ_section_title
;
Structure prediction by ZEFSAII (Michael W. Deem and Ramdas Pophale) SiO2 
 PCOD9508819
Probable space group: C C C A
;
_chemical_formula_sum "Si O2"
_cell_formula_units_Z 72
_cell_length_a 11.675701
_cell_length_b 27.570617
_cell_length_c 8.745613
_cell_angle_alpha 90.000000
_cell_angle_beta 90.000000
_cell_angle_gamma 90.000000
_cell_volume 2815.267751
_symmetry_space_group_name_H-M "C C C A"
_symmetry_group_IT_number 68
_space_group.IT_coordinate_system_code '2'
_symmetry_cell_setting 'orthorhombic'
loop_
_space_group_symop_operation_xyz
x,y,z
-x,1/2-y,z
x,1/2-y,1/2-z
-x,y,1/2-z
-x,-y,-z
x,1/2+y,-z
-x,1/2+y,1/2+z
x,-y,1/2+z
1/2+x,1/2+y,z
1/2-x,-y,z
1/2+x,-y,1/2-z
1/2-x,1/2+y,1/2-z
1/2-x,1/2-y,-z
1/2+x,y,-z
1/2-x,y,1/2+z
1/2+x,1/2-y,1/2+z
loop_
_atom_site_type_symbol
_atom_site_label
_atom_site_fract_x
_atom_site_fract_y
_atom_site_fract_z
Si Si1 0.355642 0.441078 0.609991
Si Si2 0.250000 0.500000 0.349050
Si Si3 0.869836 0.650201 0.693210
Si Si4 0.995956 0.869685 0.427802
Si Si5 0.319057 0.217663 0.121746
O O1 0.279671 0.457242 0.466710
O O2 0.351838 0.485137 0.731872
O O3 0.321916 0.396393 0.718496
O O4 0.464739 0.418071 0.525259
O O5 0.781419 0.691984 0.716747
O O6 0.000000 0.659030 0.750000
O O7 0.887065 0.645658 0.510224
O O8 0.902800 0.825373 0.440216
O O9 0.000000 0.880935 0.250000
O O10 0.380736 0.250000 0.250000
O O11 0.250000 0.250000 0.000000
#
# Coordination Sequence:
#
# PCOD9508819 Si02
#       5
#    16   8  16  16  16
#     4  10  22  42  68  98 132 175 216 278 351 402
#     4  10  22  42  74 106 132 166 230 294 338 414
#     4  10  23  44  66  95 137 181 229 283 344 412
#     4  11  25  44  67  97 141 187 228 280 345 419
#     4  12  25  40  66 100 133 181 236 285 340 400
#
# _framework density 25.574832000000001
#
# number of rings (size 3 to 8) (size 9 to 14) (size 15 to 20)
#    0.000    1.333    0.000    5.333    0.000   12.444 
#    0.000   14.444    0.000    0.000    0.000    0.000 
#    0.000    0.000    0.000    0.000    0.000    0.000 
#
# Total GULP energy -200904.713876 kJ/mol
# GULP energy per Si atom -5580.686497 kJ/mol
# Density = 2.551662 g / cm^3
# Si number density = 25.574832 Si / 1000 Ang^3
#
#
#
# Elastic Constant Matrix: (Units=GPa)
#
#
# Indices 1 2 3 4 5 6 
#
# 1 81.4424 52.3337 46.2499 0.0000 0.0000 0.0000
# 2 52.3337 89.9427 61.3255 0.0000 0.0000 0.0000
# 3 46.2499 61.3255 198.5329 0.0000 0.0000 0.0000
# 4 0.0000 0.0000 0.0000 36.8551 0.0000 0.0000
# 5 0.0000 0.0000 0.0000 0.0000 35.3970 0.0000
# 6 0.0000 0.0000 0.0000 0.0000 0.0000 5.5686
#
#
#
# Elastic Compliance Matrix: (Units=1/GPa)
#
#
# Indices 1 2 3 4 5 6 
#
# 1 0.019889 -0.010658 -0.001341 0.000000 0.000000 0.000000
# 2 -0.010658 0.019796 -0.003632 0.000000 0.000000 0.000000
# 3 -0.001341 -0.003632 0.006471 0.000000 0.000000 0.000000
# 4 0.000000 0.000000 0.000000 0.027133 0.000000 0.000000
# 5 0.000000 0.000000 0.000000 0.000000 0.028251 0.000000
# 6 0.000000 0.000000 0.000000 0.000000 0.000000 0.179579
#
#
# Mechanical properties :
#
#
# Convention : Reuss Voigt Hill
#
# Bulk Modulus (GPa) = 67.14143 76.63734 71.88938
# Shear Modulus (GPa) = 15.75565 29.56474 22.66019
#
# Velocity S-wave (km/s) = 2.48475 3.40370 2.97986
# Velocity P-wave (km/s) = 5.87724 6.74373 6.32534
#
# Compressibility (1/GPa) = 0.01489393
#
# Stress axis : x y z
#
# Youngs Moduli (GPa) = 50.27919 50.51508 154.52947
#
# Poissons Ratio (x) = 0.53840 0.20724
# Poissons Ratio (y) = 0.53588 0.56125
# Poissons Ratio (z) = 0.06743 0.18347
#
# Static dielectric constant tensor:
#      x y z
#    x 2.049210 0.000000 0.000000 
#    y 0.000000 2.090900 0.000000 
#    z 0.000000 0.000000 2.078920 
# 
# From -- ./inp_files/5202.got.cif
#   From: 2010.05.17/outbox.cif.g08.bks.cpg/sg68_3_cif.got.tgz:5202.got - 2010.06.03 18:57:09.
