data_PCOD9508581
_publ_section_title
;
Structure prediction by ZEFSAII (Michael W. Deem and Ramdas Pophale) SiO2 
 PCOD9508581
Probable space group: C C C A
;
_chemical_formula_sum "Si O2"
_cell_formula_units_Z 48
_cell_length_a 24.456027
_cell_length_b 5.258662
_cell_length_c 16.036203
_cell_angle_alpha 90.000000
_cell_angle_beta 90.000000
_cell_angle_gamma 90.000000
_cell_volume 2062.351600
_symmetry_space_group_name_H-M "C C C A"
_symmetry_group_IT_number 68
_space_group.IT_coordinate_system_code '2'
_symmetry_cell_setting 'orthorhombic'
loop_
_space_group_symop_operation_xyz
x,y,z
-x,1/2-y,z
x,1/2-y,1/2-z
-x,y,1/2-z
-x,-y,-z
x,1/2+y,-z
-x,1/2+y,1/2+z
x,-y,1/2+z
1/2+x,1/2+y,z
1/2-x,-y,z
1/2+x,-y,1/2-z
1/2-x,1/2+y,1/2-z
1/2-x,1/2-y,-z
1/2+x,y,-z
1/2-x,y,1/2+z
1/2+x,1/2-y,1/2+z
loop_
_atom_site_type_symbol
_atom_site_label
_atom_site_fract_x
_atom_site_fract_y
_atom_site_fract_z
Si Si1 0.714638 0.252414 0.149516
Si Si2 0.600911 0.798809 0.949943
Si Si3 0.438837 0.502430 0.786530
O O1 0.705835 0.250000 0.250000
O O2 0.750000 0.500000 0.131056
O O3 0.659958 0.292950 0.095216
O O4 0.750000 0.000000 0.128349
O O5 0.560628 0.933410 0.883245
O O6 0.594510 0.002755 0.025092
O O7 0.411298 0.250000 0.750000
O O8 0.500000 0.495912 0.750000
O O9 0.410891 0.750000 0.750000
#
# Coordination Sequence:
#
# PCOD9508581 Si02
#       3
#    16  16  16
#     4  10  22  40  63  91 127 176 224 260 309 390
#     4  12  25  40  64  99 134 166 212 275 336 384
#     4  10  22  44  68  90 123 174 222 266 324 396
#
# _framework density 23.274401000000001
#
# number of rings (size 3 to 8) (size 9 to 14) (size 15 to 20)
#    0.000    1.333    0.000    5.000    0.000    8.000 
#    0.000   20.000    0.000    0.000    0.000    0.000 
#    0.000    0.000    0.000    0.000    0.000    0.000 
#
# Total GULP energy -133837.097543 kJ/mol
# GULP energy per Si atom -5576.545731 kJ/mol
# Density = 2.322143 g / cm^3
# Si number density = 23.274401 Si / 1000 Ang^3
#
#
#
# Elastic Constant Matrix: (Units=GPa)
#
#
# Indices 1 2 3 4 5 6 
#
# 1 85.7422 18.2955 13.5708 0.0000 0.0000 0.0000
# 2 18.2955 211.0530 10.2685 0.0000 0.0000 0.0000
# 3 13.5708 10.2685 52.9548 0.0000 0.0000 0.0000
# 4 0.0000 0.0000 0.0000 -67.7412 0.0000 0.0000
# 5 0.0000 0.0000 0.0000 0.0000 23.6957 0.0000
# 6 0.0000 0.0000 0.0000 0.0000 0.0000 -22.1129
#
#
#
# Elastic Compliance Matrix: (Units=1/GPa)
#
#
# Indices 1 2 3 4 5 6 
#
# 1 0.012332 -0.000924 -0.002981 0.000000 0.000000 0.000000
# 2 -0.000924 0.004853 -0.000704 0.000000 0.000000 0.000000
# 3 -0.002981 -0.000704 0.019785 0.000000 0.000000 0.000000
# 4 0.000000 0.000000 0.000000 -0.014762 0.000000 0.000000
# 5 0.000000 0.000000 0.000000 0.000000 0.042202 0.000000
# 6 0.000000 0.000000 0.000000 0.000000 0.000000 -0.045222
#
#
# Mechanical properties :
#
#
# Convention : Reuss Voigt Hill
#
# Bulk Modulus (GPa) = 36.03554 48.22438 42.12996
# Shear Modulus (GPa) = 132.78548 7.27602 70.03075
#
# Velocity S-wave (km/s) = 7.56148 1.77002 5.49131
# Velocity P-wave (km/s) = 9.57868 4.99422 7.63850
#
# Compressibility (1/GPa) = 0.02775038
#
# Stress axis : x y z
#
# Youngs Moduli (GPa) = 81.09078 206.07927 50.54450
#
# Poissons Ratio (x) = 0.19041 0.15068
# Poissons Ratio (y) = 0.07492 0.03559
# Poissons Ratio (z) = 0.24174 0.14511
#
# Static dielectric constant tensor:
#      x y z
#    x 1.430070 0.000000 0.000000 
#    y 0.000000 1.923710 0.000000 
#    z 0.000000 0.000000 2.076900 
# 
# From -- ./inp_files/18149.got.cif
#   From: 2010.05.17/outbox.cif.g08.bks.cpg/sg68_10_cif.got.tgz:18149.got - 2010.06.03 18:57:09.
