data_PCOD9508186
_publ_section_title
;
Structure prediction by ZEFSAII (Michael W. Deem and Ramdas Pophale) SiO2 
 PCOD9508186
Probable space group: C C C A
;
_chemical_formula_sum "Si O2"
_cell_formula_units_Z 104
_cell_length_a 20.889013
_cell_length_b 25.680887
_cell_length_c 8.495841
_cell_angle_alpha 90.000000
_cell_angle_beta 90.000000
_cell_angle_gamma 90.000000
_cell_volume 4557.580162
_symmetry_space_group_name_H-M "C C C A"
_symmetry_group_IT_number 68
_space_group.IT_coordinate_system_code '2'
_symmetry_cell_setting 'orthorhombic'
loop_
_space_group_symop_operation_xyz
x,y,z
-x,1/2-y,z
x,1/2-y,1/2-z
-x,y,1/2-z
-x,-y,-z
x,1/2+y,-z
-x,1/2+y,1/2+z
x,-y,1/2+z
1/2+x,1/2+y,z
1/2-x,-y,z
1/2+x,-y,1/2-z
1/2-x,1/2+y,1/2-z
1/2-x,1/2-y,-z
1/2+x,y,-z
1/2-x,y,1/2+z
1/2+x,1/2-y,1/2+z
loop_
_atom_site_type_symbol
_atom_site_label
_atom_site_fract_x
_atom_site_fract_y
_atom_site_fract_z
Si Si1 0.670368 0.689347 0.504890
Si Si2 0.000000 0.164487 0.750000
Si Si3 0.890113 0.250000 0.750000
Si Si4 0.738976 0.633115 0.250094
Si Si5 0.000000 0.535517 0.750000
Si Si6 0.932930 0.889102 0.512651
Si Si7 0.875446 0.525612 0.182956
Si Si8 0.686095 0.562774 0.995156
O O1 0.651306 0.742293 0.592248
O O2 0.715114 0.681170 0.355721
O O3 0.703919 0.656482 0.645543
O O4 0.604653 0.662907 0.444356
O O5 0.062557 0.200598 0.764635
O O6 0.010064 0.128025 0.601096
O O7 0.760589 0.586613 0.371500
O O8 0.687570 0.608534 0.127269
O O9 0.040305 0.574075 0.643306
O O10 0.054773 0.501031 0.830716
O O11 0.880863 0.923599 0.422017
O O12 0.864746 0.544386 0.362073
O O13 0.820831 0.487807 0.111289
#
# Coordination Sequence:
#
# PCOD9508186 Si02
#       8
#    16   8   8  16   8  16  16  16
#     4  10  21  42  64  94 125 159 217 257 340 389
#     4   9  21  40  69  94 122 164 205 252 347 391
#     4   9  20  40  72  98 120 154 204 273 322 422
#     4  10  23  42  63  89 127 180 207 275 321 388
#     4  12  25  38  59  89 134 171 223 268 323 368
#     4  11  22  39  60  90 127 170 211 264 313 393
#     4  12  24  39  57  91 126 179 222 271 306 379
#     4  11  25  40  60  87 133 171 231 263 322 369
#
# _framework density 22.819127999999999
#
# number of rings (size 3 to 8) (size 9 to 14) (size 15 to 20)
#    0.000    1.385    3.077    1.846    2.154    2.462 
#    0.000    0.000    0.000   14.769    0.000    0.000 
#    0.000    0.000    0.000    0.000    0.000    0.000 
#
# Total GULP energy -289659.733490 kJ/mol
# GULP energy per Si atom -5570.379490 kJ/mol
# Density = 2.276719 g / cm^3
# Si number density = 22.819128 Si / 1000 Ang^3
#
#
#
# Elastic Constant Matrix: (Units=GPa)
#
#
# Indices 1 2 3 4 5 6 
#
# 1 59.0808 -0.1496 21.5872 0.0000 0.0000 0.0000
# 2 -0.1496 37.4632 8.2717 0.0000 0.0000 0.0000
# 3 21.5872 8.2717 88.3132 0.0000 0.0000 0.0000
# 4 0.0000 0.0000 0.0000 42.4854 0.0000 0.0000
# 5 0.0000 0.0000 0.0000 0.0000 32.3035 0.0000
# 6 0.0000 0.0000 0.0000 0.0000 0.0000 21.6499
#
#
#
# Elastic Compliance Matrix: (Units=1/GPa)
#
#
# Indices 1 2 3 4 5 6 
#
# 1 0.018630 0.001103 -0.004657 0.000000 0.000000 0.000000
# 2 0.001103 0.027322 -0.002829 0.000000 0.000000 0.000000
# 3 -0.004657 -0.002829 0.012727 0.000000 0.000000 0.000000
# 4 0.000000 0.000000 0.000000 0.023537 0.000000 0.000000
# 5 0.000000 0.000000 0.000000 0.000000 0.030956 0.000000
# 6 0.000000 0.000000 0.000000 0.000000 0.000000 0.046190
#
#
# Mechanical properties :
#
#
# Convention : Reuss Voigt Hill
#
# Bulk Modulus (GPa) = 21.78048 27.14172 24.46110
# Shear Modulus (GPa) = 26.67619 29.63096 28.15357
#
# Velocity S-wave (km/s) = 3.42281 3.60740 3.51632
# Velocity P-wave (km/s) = 5.01861 5.41029 5.21812
#
# Compressibility (1/GPa) = 0.04591267
#
# Stress axis : x y z
#
# Youngs Moduli (GPa) = 53.67550 36.60078 78.57499
#
# Poissons Ratio (x) = -0.04036 0.36595
# Poissons Ratio (y) = -0.05919 0.22226
# Poissons Ratio (z) = 0.24998 0.10353
#
# Static dielectric constant tensor:
#      x y z
#    x 1.780530 0.000000 0.000000 
#    y 0.000000 1.852710 0.000000 
#    z 0.000000 0.000000 1.870030 
# 
# From -- ./inp_files/7403.got.cif
#   From: 2010.05.17/outbox.cif.g08.bks.cpg/sg68_4_cif.got.tgz:7403.got - 2010.06.03 18:57:09.
