data_PCOD9508231
_publ_section_title
;
Structure prediction by ZEFSAII (Michael W. Deem and Ramdas Pophale) SiO2 
 PCOD9508231
Probable space group: C C C A
;
_chemical_formula_sum "Si O2"
_cell_formula_units_Z 52
_cell_length_a 21.248431
_cell_length_b 4.895856
_cell_length_c 18.600520
_cell_angle_alpha 90.000000
_cell_angle_beta 90.000000
_cell_angle_gamma 90.000000
_cell_volume 1934.998301
_symmetry_space_group_name_H-M "C C C A"
_symmetry_group_IT_number 68
_space_group.IT_coordinate_system_code '2'
_symmetry_cell_setting 'orthorhombic'
loop_
_space_group_symop_operation_xyz
x,y,z
-x,1/2-y,z
x,1/2-y,1/2-z
-x,y,1/2-z
-x,-y,-z
x,1/2+y,-z
-x,1/2+y,1/2+z
x,-y,1/2+z
1/2+x,1/2+y,z
1/2-x,-y,z
1/2+x,-y,1/2-z
1/2-x,1/2+y,1/2-z
1/2-x,1/2-y,-z
1/2+x,y,-z
1/2-x,y,1/2+z
1/2+x,1/2-y,1/2+z
loop_
_atom_site_type_symbol
_atom_site_label
_atom_site_fract_x
_atom_site_fract_y
_atom_site_fract_z
Si Si1 0.000000 0.750000 0.250000
Si Si2 0.562705 0.114343 0.631349
Si Si3 0.750000 0.500000 0.340262
Si Si4 0.160770 0.254643 0.951328
Si Si5 0.643029 0.750000 0.250000
O O1 0.040066 0.559681 0.199099
O O2 0.500000 0.250000 0.597886
O O3 0.604925 0.332473 0.676865
O O4 0.599980 0.897331 0.583349
O O5 0.781779 0.707750 0.396980
O O6 0.691828 0.544515 0.286649
O O7 0.162937 0.567374 0.976271
#
# Coordination Sequence:
#
# PCOD9508231 Si02
#       5
#     4  16   8  16   8
#     4  12  22  42  72 106 138 184 230 306 372 424
#     4  11  24  43  72 104 145 182 238 306 365 437
#     4  10  24  40  74 100 148 188 242 304 356 430
#     4  11  27  47  70 102 144 198 244 289 354 432
#     4  10  21  43  62 110 136 178 236 298 370 420
#
# _framework density 26.873407
#
# number of rings (size 3 to 8) (size 9 to 14) (size 15 to 20)
#    0.000    1.231    3.077    0.923    4.308   11.077 
#    0.000    0.000    0.000    0.000    0.000    0.000 
#    0.000    0.000    0.000    0.000    0.000    0.000 
#
# Total GULP energy -145148.637616 kJ/mol
# GULP energy per Si atom -5582.639908 kJ/mol
# Density = 2.681224 g / cm^3
# Si number density = 26.873407 Si / 1000 Ang^3
#
#
#
# Elastic Constant Matrix: (Units=GPa)
#
#
# Indices 1 2 3 4 5 6 
#
# 1 117.2152 14.6320 25.1086 0.0000 0.0000 0.0000
# 2 14.6320 73.7197 6.9922 0.0000 0.0000 0.0000
# 3 25.1086 6.9922 104.4067 0.0000 0.0000 0.0000
# 4 0.0000 0.0000 0.0000 -7.5625 0.0000 0.0000
# 5 0.0000 0.0000 0.0000 0.0000 5.3658 0.0000
# 6 0.0000 0.0000 0.0000 0.0000 0.0000 33.0573
#
#
#
# Elastic Compliance Matrix: (Units=1/GPa)
#
#
# Indices 1 2 3 4 5 6 
#
# 1 0.009184 -0.001624 -0.002100 0.000000 0.000000 0.000000
# 2 -0.001624 0.013939 -0.000543 0.000000 0.000000 0.000000
# 3 -0.002100 -0.000543 0.010119 0.000000 0.000000 0.000000
# 4 0.000000 0.000000 0.000000 -0.132231 0.000000 0.000000
# 5 0.000000 0.000000 0.000000 0.000000 0.186364 0.000000
# 6 0.000000 0.000000 0.000000 0.000000 0.000000 0.030251
#
#
# Mechanical properties :
#
#
# Convention : Reuss Voigt Hill
#
# Bulk Modulus (GPa) = 40.47157 43.20081 41.83619
# Shear Modulus (GPa) = 37.20372 22.74602 29.97487
#
# Velocity S-wave (km/s) = 3.72480 2.91248 3.34340
# Velocity P-wave (km/s) = 5.79583 5.23647 5.52323
#
# Compressibility (1/GPa) = 0.02470870
#
# Stress axis : x y z
#
# Youngs Moduli (GPa) = 108.88731 71.74287 98.82113
#
# Poissons Ratio (x) = 0.11649 0.20751
# Poissons Ratio (y) = 0.17679 0.05366
# Poissons Ratio (z) = 0.22865 0.03896
#
# Static dielectric constant tensor:
#      x y z
#    x 2.749490 0.000000 0.000000 
#    y 0.000000 2.006330 0.000000 
#    z 0.000000 0.000000 2.047080 
# 
# From -- ./inp_files/34842.got.cif
#   From: 2010.05.17/outbox.cif.g08.bks.cpg/sg68_18_cif.got.tgz:34842.got - 2010.06.03 18:57:09.
