data_PCOD9508570
_publ_section_title
;
Structure prediction by ZEFSAII (Michael W. Deem and Ramdas Pophale) SiO2 
 PCOD9508570
Probable space group: C C C A
;
_chemical_formula_sum "Si O2"
_cell_formula_units_Z 40
_cell_length_a 29.993186
_cell_length_b 4.890906
_cell_length_c 12.665290
_cell_angle_alpha 90.000000
_cell_angle_beta 90.000000
_cell_angle_gamma 90.000000
_cell_volume 1857.920194
_symmetry_space_group_name_H-M "C C C A"
_symmetry_group_IT_number 68
_space_group.IT_coordinate_system_code '2'
_symmetry_cell_setting 'orthorhombic'
loop_
_space_group_symop_operation_xyz
x,y,z
-x,1/2-y,z
x,1/2-y,1/2-z
-x,y,1/2-z
-x,-y,-z
x,1/2+y,-z
-x,1/2+y,1/2+z
x,-y,1/2+z
1/2+x,1/2+y,z
1/2-x,-y,z
1/2+x,-y,1/2-z
1/2-x,1/2+y,1/2-z
1/2-x,1/2-y,-z
1/2+x,y,-z
1/2-x,y,1/2+z
1/2+x,1/2-y,1/2+z
loop_
_atom_site_type_symbol
_atom_site_label
_atom_site_fract_x
_atom_site_fract_y
_atom_site_fract_z
Si Si1 0.380480 0.750000 0.750000
Si Si2 0.948950 0.724198 0.069963
Si Si3 0.319087 0.750000 0.250000
Si Si4 0.750000 0.500000 0.918253
O O1 0.413120 0.821647 0.845912
O O2 0.350392 0.496891 0.788394
O O3 0.000000 0.750000 0.108248
O O4 0.943642 0.412715 0.033418
O O5 0.289000 0.597801 0.162067
O O6 0.750000 0.250000 0.000000
#
# Coordination Sequence:
#
# PCOD9508570 Si02
#       4
#     8  16   8   8
#     4  12  24  40  66  97 134 167 214 284 328 378
#     4  10  22  40  62  92 132 177 220 261 320 392
#     4  12  27  44  67 103 128 163 231 274 329 426
#     4  12  26  48  72  92 132 178 212 276 352 408
#
# _framework density 21.529449
#
# number of rings (size 3 to 8) (size 9 to 14) (size 15 to 20)
#    0.000    0.800    0.000    7.800    0.000    9.600 
#    0.000    8.000    0.000    0.000    0.000    0.000 
#    0.000    0.000    0.000    0.000    0.000    0.000 
#
# Total GULP energy -111596.160678 kJ/mol
# GULP energy per Si atom -5579.808034 kJ/mol
# Density = 2.148045 g / cm^3
# Si number density = 21.529449 Si / 1000 Ang^3
#
#
#
# Elastic Constant Matrix: (Units=GPa)
#
#
# Indices 1 2 3 4 5 6 
#
# 1 124.5734 46.4219 64.2714 0.0000 0.0000 0.0000
# 2 46.4219 143.0757 24.2317 0.0000 0.0000 0.0000
# 3 64.2714 24.2317 87.1522 0.0000 0.0000 0.0000
# 4 0.0000 0.0000 0.0000 40.0388 0.0000 0.0000
# 5 0.0000 0.0000 0.0000 0.0000 6.8156 0.0000
# 6 0.0000 0.0000 0.0000 0.0000 0.0000 22.3312
#
#
#
# Elastic Compliance Matrix: (Units=1/GPa)
#
#
# Indices 1 2 3 4 5 6 
#
# 1 0.014046 -0.002941 -0.009540 0.000000 0.000000 0.000000
# 2 -0.002941 0.007951 -0.000041 0.000000 0.000000 0.000000
# 3 -0.009540 -0.000041 0.018521 0.000000 0.000000 0.000000
# 4 0.000000 0.000000 0.000000 0.024976 0.000000 0.000000
# 5 0.000000 0.000000 0.000000 0.000000 0.146723 0.000000
# 6 0.000000 0.000000 0.000000 0.000000 0.000000 0.044780
#
#
# Mechanical properties :
#
#
# Convention : Reuss Voigt Hill
#
# Bulk Modulus (GPa) = 64.63557 69.40571 67.02064
# Shear Modulus (GPa) = 17.40945 28.49554 22.95250
#
# Velocity S-wave (km/s) = 2.84673 3.64202 3.26866
# Velocity P-wave (km/s) = 6.39471 7.07060 6.74113
#
# Compressibility (1/GPa) = 0.01547136
#
# Stress axis : x y z
#
# Youngs Moduli (GPa) = 71.19643 125.77529 53.99197
#
# Poissons Ratio (x) = 0.36996 0.51510
# Poissons Ratio (y) = 0.20942 0.00224
# Poissons Ratio (z) = 0.67923 0.00521
#
# Static dielectric constant tensor:
#      x y z
#    x 1.796010 0.000000 0.000000 
#    y 0.000000 1.740740 0.000000 
#    z 0.000000 0.000000 1.490420 
# 
# From -- ./inp_files/9957.got.cif
#   From: 2010.05.17/outbox.cif.g08.bks.cpg/sg68_5_cif.got.tgz:9957.got - 2010.06.03 18:57:09.
