data_PCOD9508438
_publ_section_title
;
Structure prediction by ZEFSAII (Michael W. Deem and Ramdas Pophale) SiO2 
 PCOD9508438
Probable space group: C C C A
;
_chemical_formula_sum "Si O2"
_cell_formula_units_Z 56
_cell_length_a 10.317712
_cell_length_b 11.507509
_cell_length_c 19.985887
_cell_angle_alpha 90.000000
_cell_angle_beta 90.000000
_cell_angle_gamma 90.000000
_cell_volume 2372.947621
_symmetry_space_group_name_H-M "C C C A"
_symmetry_group_IT_number 68
_space_group.IT_coordinate_system_code '2'
_symmetry_cell_setting 'orthorhombic'
loop_
_space_group_symop_operation_xyz
x,y,z
-x,1/2-y,z
x,1/2-y,1/2-z
-x,y,1/2-z
-x,-y,-z
x,1/2+y,-z
-x,1/2+y,1/2+z
x,-y,1/2+z
1/2+x,1/2+y,z
1/2-x,-y,z
1/2+x,-y,1/2-z
1/2-x,1/2+y,1/2-z
1/2-x,1/2-y,-z
1/2+x,y,-z
1/2-x,y,1/2+z
1/2+x,1/2-y,1/2+z
loop_
_atom_site_type_symbol
_atom_site_label
_atom_site_fract_x
_atom_site_fract_y
_atom_site_fract_z
Si Si1 0.674632 0.679372 0.184401
Si Si2 0.250000 0.000000 0.521421
Si Si3 0.922953 0.557377 0.144789
Si Si4 0.801574 0.877590 0.108726
O O1 0.643100 0.750000 0.250000
O O2 0.815008 0.616504 0.191419
O O3 0.573275 0.578204 0.166419
O O4 0.706859 0.773127 0.126882
O O5 0.358379 0.949564 0.570844
O O6 0.195306 0.902967 0.470727
O O7 0.055216 0.626674 0.139098
O O8 0.750000 0.000000 0.137315
#
# Coordination Sequence:
#
# PCOD9508438 Si02
#       4
#    16   8  16  16
#     4  10  23  42  62  87 123 165 214 254 312 381
#     4   8  20  38  64  90 126 154 214 254 310 386
#     4  10  22  40  64  92 121 165 209 260 311 377
#     4  10  22  38  62  92 123 160 203 254 322 370
#
# _framework density 23.599342
#
# number of rings (size 3 to 8) (size 9 to 14) (size 15 to 20)
#    0.857    1.714    0.000    1.714    4.000    8.000 
#    0.000    7.143    0.000    0.000    0.000    0.000 
#    0.000    0.000    0.000    0.000    0.000    0.000 
#
# Total GULP energy -156302.889731 kJ/mol
# GULP energy per Si atom -5582.246062 kJ/mol
# Density = 2.354563 g / cm^3
# Si number density = 23.599342 Si / 1000 Ang^3
#
#
#
# Elastic Constant Matrix: (Units=GPa)
#
#
# Indices 1 2 3 4 5 6 
#
# 1 70.0335 13.6874 21.9980 0.0000 0.0000 0.0000
# 2 13.6874 124.4959 30.1023 0.0000 0.0000 0.0000
# 3 21.9980 30.1023 92.2315 0.0000 0.0000 0.0000
# 4 0.0000 0.0000 0.0000 1.9237 0.0000 0.0000
# 5 0.0000 0.0000 0.0000 0.0000 45.2378 0.0000
# 6 0.0000 0.0000 0.0000 0.0000 0.0000 17.4320
#
#
#
# Elastic Compliance Matrix: (Units=1/GPa)
#
#
# Indices 1 2 3 4 5 6 
#
# 1 0.015524 -0.000881 -0.003415 0.000000 0.000000 0.000000
# 2 -0.000881 0.008771 -0.002652 0.000000 0.000000 0.000000
# 3 -0.003415 -0.002652 0.012522 0.000000 0.000000 0.000000
# 4 0.000000 0.000000 0.000000 0.519840 0.000000 0.000000
# 5 0.000000 0.000000 0.000000 0.000000 0.022105 0.000000
# 6 0.000000 0.000000 0.000000 0.000000 0.000000 0.057366
#
#
# Mechanical properties :
#
#
# Convention : Reuss Voigt Hill
#
# Bulk Modulus (GPa) = 43.63004 46.48184 45.05594
# Shear Modulus (GPa) = 7.60265 27.65022 17.62644
#
# Velocity S-wave (km/s) = 1.79682 3.42665 2.73592
# Velocity P-wave (km/s) = 4.77836 5.94937 5.39572
#
# Compressibility (1/GPa) = 0.02291999
#
# Stress axis : x y z
#
# Youngs Moduli (GPa) = 64.41742 114.01742 79.85640
#
# Poissons Ratio (x) = 0.10045 0.27271
# Poissons Ratio (y) = 0.05675 0.21181
# Poissons Ratio (z) = 0.21999 0.30242
#
# Static dielectric constant tensor:
#      x y z
#    x 1.981510 0.000000 0.000000 
#    y 0.000000 1.940730 0.000000 
#    z 0.000000 0.000000 1.879390 
# 
# From -- ./inp_files/43817.got.cif
#   From: 2010.05.17/outbox.cif.g08.bks.cpg/sg68_22_cif.got.tgz:43817.got - 2010.06.03 18:57:09.
