data_PCOD9508757
_publ_section_title
;
Structure prediction by ZEFSAII (Michael W. Deem and Ramdas Pophale) SiO2 
 PCOD9508757
Probable space group: C C C A
;
_chemical_formula_sum "Si O2"
_cell_formula_units_Z 36
_cell_length_a 13.897956
_cell_length_b 5.692803
_cell_length_c 18.859541
_cell_angle_alpha 90.000000
_cell_angle_beta 90.000000
_cell_angle_gamma 90.000000
_cell_volume 1492.135306
_symmetry_space_group_name_H-M "C C C A"
_symmetry_group_IT_number 68
_space_group.IT_coordinate_system_code '2'
_symmetry_cell_setting 'orthorhombic'
loop_
_space_group_symop_operation_xyz
x,y,z
-x,1/2-y,z
x,1/2-y,1/2-z
-x,y,1/2-z
-x,-y,-z
x,1/2+y,-z
-x,1/2+y,1/2+z
x,-y,1/2+z
1/2+x,1/2+y,z
1/2-x,-y,z
1/2+x,-y,1/2-z
1/2-x,1/2+y,1/2-z
1/2-x,1/2-y,-z
1/2+x,y,-z
1/2-x,y,1/2+z
1/2+x,1/2-y,1/2+z
loop_
_atom_site_type_symbol
_atom_site_label
_atom_site_fract_x
_atom_site_fract_y
_atom_site_fract_z
Si Si1 0.861211 0.764667 0.027172
Si Si2 0.854091 0.395429 0.678595
Si Si3 0.000000 0.250000 0.250000
O O1 0.876408 0.767215 0.111609
O O2 0.898897 0.509162 0.003667
O O3 0.750000 0.750000 0.000000
O O4 0.842734 0.250000 0.750000
O O5 0.750000 0.500000 0.660489
O O6 0.932531 0.590786 0.699374
#
# Coordination Sequence:
#
# PCOD9508757 Si02
#       3
#    16  16   4
#     4  10  22  41  73 113 150 200 260 314 394 466
#     4  12  26  46  80 107 158 208 257 329 394 463
#     4  12  30  48  72 120 152 200 280 312 390 482
#
# _framework density 24.126497000000001
#
# number of rings (size 3 to 8) (size 9 to 14) (size 15 to 20)
#    0.000    0.889    6.667    0.667   12.444    0.000 
#    0.000    2.222    0.000    0.000    0.000    0.000 
#    0.000    0.000    0.000    0.000    0.000    0.000 
#
# Total GULP energy -100683.537539 kJ/mol
# GULP energy per Si atom -5593.529863 kJ/mol
# Density = 2.407158 g / cm^3
# Si number density = 24.126497 Si / 1000 Ang^3
#
#
#
# Elastic Constant Matrix: (Units=GPa)
#
#
# Indices 1 2 3 4 5 6 
#
# 1 127.4827 -18.0118 -38.0967 0.0000 0.0000 0.0000
# 2 -18.0118 101.6516 1.5494 0.0000 0.0000 0.0000
# 3 -38.0967 1.5494 155.9075 0.0000 0.0000 0.0000
# 4 0.0000 0.0000 0.0000 52.8810 0.0000 0.0000
# 5 0.0000 0.0000 0.0000 0.0000 15.8156 0.0000
# 6 0.0000 0.0000 0.0000 0.0000 0.0000 -39.8955
#
#
#
# Elastic Compliance Matrix: (Units=1/GPa)
#
#
# Indices 1 2 3 4 5 6 
#
# 1 0.008687 0.001507 0.002108 0.000000 0.000000 0.000000
# 2 0.001507 0.010100 0.000268 0.000000 0.000000 0.000000
# 3 0.002108 0.000268 0.006926 0.000000 0.000000 0.000000
# 4 0.000000 0.000000 0.000000 0.018910 0.000000 0.000000
# 5 0.000000 0.000000 0.000000 0.000000 0.063229 0.000000
# 6 0.000000 0.000000 0.000000 0.000000 0.000000 -0.025065
#
#
# Mechanical properties :
#
#
# Convention : Reuss Voigt Hill
#
# Bulk Modulus (GPa) = 29.86904 30.65817 30.26361
# Shear Modulus (GPa) = 58.01692 35.06694 46.54193
#
# Velocity S-wave (km/s) = 4.90909 3.81657 4.39689
# Velocity P-wave (km/s) = 6.67378 5.67066 6.19256
#
# Compressibility (1/GPa) = 0.03347948
#
# Stress axis : x y z
#
# Youngs Moduli (GPa) = 115.11436 99.00505 144.37446
#
# Poissons Ratio (x) = -0.14921 -0.30430
# Poissons Ratio (y) = -0.17349 -0.03868
# Poissons Ratio (z) = -0.24263 -0.02652
#
# Static dielectric constant tensor:
#      x y z
#    x 2.083430 0.000000 0.000000 
#    y 0.000000 1.952200 0.000000 
#    z 0.000000 0.000000 1.850000 
# 
# From -- ./inp_files/30148.got.cif
#   From: 2010.05.17/outbox.cif.g08.bks.cpg/sg68_16_cif.got.tgz:30148.got - 2010.06.03 18:57:09.
