data_PCOD9508863
_publ_section_title
;
Structure prediction by ZEFSAII (Michael W. Deem and Ramdas Pophale) SiO2 
 PCOD9508863
Probable space group: C C C A
;
_chemical_formula_sum "Si O2"
_cell_formula_units_Z 36
_cell_length_a 5.084734
_cell_length_b 13.795060
_cell_length_c 18.096859
_cell_angle_alpha 90.000000
_cell_angle_beta 90.000000
_cell_angle_gamma 90.000000
_cell_volume 1269.389889
_symmetry_space_group_name_H-M "C C C A"
_symmetry_group_IT_number 68
_space_group.IT_coordinate_system_code '2'
_symmetry_cell_setting 'orthorhombic'
loop_
_space_group_symop_operation_xyz
x,y,z
-x,1/2-y,z
x,1/2-y,1/2-z
-x,y,1/2-z
-x,-y,-z
x,1/2+y,-z
-x,1/2+y,1/2+z
x,-y,1/2+z
1/2+x,1/2+y,z
1/2-x,-y,z
1/2+x,-y,1/2-z
1/2-x,1/2+y,1/2-z
1/2-x,1/2-y,-z
1/2+x,y,-z
1/2-x,y,1/2+z
1/2+x,1/2-y,1/2+z
loop_
_atom_site_type_symbol
_atom_site_label
_atom_site_fract_x
_atom_site_fract_y
_atom_site_fract_z
Si Si1 0.376630 0.402028 0.672852
Si Si2 0.500000 0.250000 0.250000
Si Si3 0.245694 0.383467 0.458205
O O1 0.500000 0.436527 0.750000
O O2 0.250000 0.500000 0.639414
O O3 0.174650 0.320110 0.698557
O O4 0.601941 0.361968 0.618799
O O5 0.250000 0.500000 0.459305
O O6 0.539747 0.351796 0.478022
#
# Coordination Sequence:
#
# PCOD9508863 Si02
#       3
#    16   4  16
#     4  12  25  47  79 109 155 207 260 322 392 463
#     4  12  30  48  72 116 156 204 268 328 378 458
#     4  10  22  42  76 116 153 199 257 318 390 466
#
# _framework density 28.36008
#
# number of rings (size 3 to 8) (size 9 to 14) (size 15 to 20)
#    0.000    0.889    2.222    6.000    6.222    0.000 
#    0.000    2.222    0.000    0.000    0.000    0.000 
#    0.000    0.000    0.000    0.000    0.000    0.000 
#
# Total GULP energy -101094.064202 kJ/mol
# GULP energy per Si atom -5616.336900 kJ/mol
# Density = 2.829553 g / cm^3
# Si number density = 28.360080 Si / 1000 Ang^3
#
#
#
# Elastic Constant Matrix: (Units=GPa)
#
#
# Indices 1 2 3 4 5 6 
#
# 1 163.5934 26.1769 47.2497 0.0000 0.0000 0.0000
# 2 26.1769 183.9973 3.6774 0.0000 0.0000 0.0000
# 3 47.2497 3.6774 164.0005 0.0000 0.0000 0.0000
# 4 0.0000 0.0000 0.0000 -67.5853 0.0000 0.0000
# 5 0.0000 0.0000 0.0000 0.0000 52.5816 0.0000
# 6 0.0000 0.0000 0.0000 0.0000 0.0000 45.4984
#
#
#
# Elastic Compliance Matrix: (Units=1/GPa)
#
#
# Indices 1 2 3 4 5 6 
#
# 1 0.006824 -0.000932 -0.001945 0.000000 0.000000 0.000000
# 2 -0.000932 0.005565 0.000144 0.000000 0.000000 0.000000
# 3 -0.001945 0.000144 0.006655 0.000000 0.000000 0.000000
# 4 0.000000 0.000000 0.000000 -0.014796 0.000000 0.000000
# 5 0.000000 0.000000 0.000000 0.000000 0.019018 0.000000
# 6 0.000000 0.000000 0.000000 0.000000 0.000000 0.021979
#
#
# Mechanical properties :
#
#
# Convention : Reuss Voigt Hill
#
# Bulk Modulus (GPa) = 73.65709 73.97768 73.81738
# Shear Modulus (GPa) = 90.52149 35.06476 62.79312
#
# Velocity S-wave (km/s) = 5.65579 3.52008 4.71057
# Velocity P-wave (km/s) = 8.28728 6.53170 7.46130
#
# Compressibility (1/GPa) = 0.01357643
#
# Stress axis : x y z
#
# Youngs Moduli (GPa) = 146.55016 179.70835 150.26979
#
# Poissons Ratio (x) = 0.16747 0.29228
# Poissons Ratio (y) = 0.13657 -0.02160
# Poissons Ratio (z) = 0.28504 -0.02583
#
# Static dielectric constant tensor:
#      x y z
#    x 2.231440 0.000000 0.000000 
#    y 0.000000 2.162090 0.000000 
#    z 0.000000 0.000000 2.216980 
# 
# From -- ./inp_files/34590.got.cif
#   From: 2010.05.17/outbox.cif.g08.bks.cpg/sg68_18_cif.got.tgz:34590.got - 2010.06.03 18:57:09.
