data_PCOD9508697
_publ_section_title
;
Structure prediction by ZEFSAII (Michael W. Deem and Ramdas Pophale) SiO2 
 PCOD9508697
Probable space group: C C C A
;
_chemical_formula_sum "Si O2"
_cell_formula_units_Z 60
_cell_length_a 25.272291
_cell_length_b 10.154794
_cell_length_c 9.831456
_cell_angle_alpha 90.000000
_cell_angle_beta 90.000000
_cell_angle_gamma 90.000000
_cell_volume 2523.094816
_symmetry_space_group_name_H-M "C C C A"
_symmetry_group_IT_number 68
_space_group.IT_coordinate_system_code '2'
_symmetry_cell_setting 'orthorhombic'
loop_
_space_group_symop_operation_xyz
x,y,z
-x,1/2-y,z
x,1/2-y,1/2-z
-x,y,1/2-z
-x,-y,-z
x,1/2+y,-z
-x,1/2+y,1/2+z
x,-y,1/2+z
1/2+x,1/2+y,z
1/2-x,-y,z
1/2+x,-y,1/2-z
1/2-x,1/2+y,1/2-z
1/2-x,1/2-y,-z
1/2+x,y,-z
1/2-x,y,1/2+z
1/2+x,1/2-y,1/2+z
loop_
_atom_site_type_symbol
_atom_site_label
_atom_site_fract_x
_atom_site_fract_y
_atom_site_fract_z
Si Si1 0.445120 0.424026 0.471114
Si Si2 0.235737 0.133297 0.099563
Si Si3 0.622518 0.313090 0.538621
Si Si4 0.822851 0.750000 0.250000
Si Si5 0.500000 0.250000 0.250000
O O1 0.500000 0.500000 0.500000
O O2 0.417208 0.310916 0.566191
O O3 0.405897 0.546152 0.457183
O O4 0.462079 0.340996 0.339574
O O5 0.280645 0.134947 0.215791
O O6 0.250000 0.000000 0.023277
O O7 0.250000 0.250000 0.000000
O O8 0.174674 0.161244 0.129370
O O9 0.643827 0.283140 0.384537
#
# Coordination Sequence:
#
# PCOD9508697 Si02
#       5
#    16  16  16   8   4
#     4  12  25  47  74 103 144 192 250 311 365 446
#     4  10  22  41  64 102 144 182 236 295 355 442
#     4  11  23  44  73 106 141 200 239 296 379 436
#     4  10  23  42  71 102 147 190 230 299 368 434
#     4  12  26  52  74  98 152 188 234 322 384 394
#
# _framework density 23.780318999999999
#
# number of rings (size 3 to 8) (size 9 to 14) (size 15 to 20)
#    0.000    1.067    2.667    4.000    0.000    6.400 
#    4.800    1.333    0.000    0.000    0.000    0.000 
#    0.000    0.000    0.000    0.000    0.000    0.000 
#
# Total GULP energy -167233.452601 kJ/mol
# GULP energy per Si atom -5574.448420 kJ/mol
# Density = 2.372619 g / cm^3
# Si number density = 23.780319 Si / 1000 Ang^3
#
#
#
# Elastic Constant Matrix: (Units=GPa)
#
#
# Indices 1 2 3 4 5 6 
#
# 1 173.2418 78.2797 33.1050 0.0000 0.0000 0.0000
# 2 78.2797 214.7427 25.9065 0.0000 0.0000 0.0000
# 3 33.1050 25.9065 58.8026 0.0000 0.0000 0.0000
# 4 0.0000 0.0000 0.0000 36.9924 0.0000 0.0000
# 5 0.0000 0.0000 0.0000 0.0000 74.7367 0.0000
# 6 0.0000 0.0000 0.0000 0.0000 0.0000 59.3843
#
#
#
# Elastic Compliance Matrix: (Units=1/GPa)
#
#
# Indices 1 2 3 4 5 6 
#
# 1 0.007427 -0.002326 -0.003156 0.000000 0.000000 0.000000
# 2 -0.002326 0.005647 -0.001178 0.000000 0.000000 0.000000
# 3 -0.003156 -0.001178 0.019302 0.000000 0.000000 0.000000
# 4 0.000000 0.000000 0.000000 0.027033 0.000000 0.000000
# 5 0.000000 0.000000 0.000000 0.000000 0.013380 0.000000
# 6 0.000000 0.000000 0.000000 0.000000 0.000000 0.016839
#
#
# Mechanical properties :
#
#
# Convention : Reuss Voigt Hill
#
# Bulk Modulus (GPa) = 52.48204 80.15218 66.31711
# Shear Modulus (GPa) = 45.74546 54.85574 50.30060
#
# Velocity S-wave (km/s) = 4.39072 4.80810 4.60414
# Velocity P-wave (km/s) = 6.91535 8.03755 7.49747
#
# Compressibility (1/GPa) = 0.01905414
#
# Stress axis : x y z
#
# Youngs Moduli (GPa) = 134.65124 177.08791 51.80831
#
# Poissons Ratio (x) = 0.41199 0.16351
# Poissons Ratio (y) = 0.31326 0.06103
# Poissons Ratio (z) = 0.42497 0.20863
#
# Static dielectric constant tensor:
#      x y z
#    x 2.030610 0.000000 0.000000 
#    y 0.000000 1.836090 0.000000 
#    z 0.000000 0.000000 2.018520 
# 
# From -- ./inp_files/10592.got.cif
#   From: 2010.05.17/outbox.cif.g08.bks.cpg/sg68_6_cif.got.tgz:10592.got - 2010.06.03 18:57:09.
