data_PCOD9508663
_publ_section_title
;
Structure prediction by ZEFSAII (Michael W. Deem and Ramdas Pophale) SiO2 
 PCOD9508663
Probable space group: C C C A
;
_chemical_formula_sum "Si O2"
_cell_formula_units_Z 56
_cell_length_a 9.044021
_cell_length_b 13.487764
_cell_length_c 20.026233
_cell_angle_alpha 90.000000
_cell_angle_beta 90.000000
_cell_angle_gamma 90.000000
_cell_volume 2442.872414
_symmetry_space_group_name_H-M "C C C A"
_symmetry_group_IT_number 68
_space_group.IT_coordinate_system_code '2'
_symmetry_cell_setting 'orthorhombic'
loop_
_space_group_symop_operation_xyz
x,y,z
-x,1/2-y,z
x,1/2-y,1/2-z
-x,y,1/2-z
-x,-y,-z
x,1/2+y,-z
-x,1/2+y,1/2+z
x,-y,1/2+z
1/2+x,1/2+y,z
1/2-x,-y,z
1/2+x,-y,1/2-z
1/2-x,1/2+y,1/2-z
1/2-x,1/2-y,-z
1/2+x,y,-z
1/2-x,y,1/2+z
1/2+x,1/2-y,1/2+z
loop_
_atom_site_type_symbol
_atom_site_label
_atom_site_fract_x
_atom_site_fract_y
_atom_site_fract_z
Si Si1 0.699401 0.725501 0.587722
Si Si2 0.911048 0.453449 0.936438
Si Si3 0.394411 0.565664 0.812857
Si Si4 0.000000 0.750000 0.974742
O O1 0.602428 0.684044 0.524863
O O2 0.657470 0.670026 0.654841
O O3 0.853437 0.660774 0.417602
O O4 0.870373 0.706791 0.570659
O O5 0.750000 0.500000 0.940757
O O6 0.009618 0.482825 0.872458
O O7 0.000000 0.500000 0.000000
O O8 0.500000 0.578414 0.750000
O O9 0.250000 0.500000 0.797868
#
# Coordination Sequence:
#
# PCOD9508663 Si02
#       4
#    16  16  16   8
#     4  11  24  45  75 110 167 198 260 321 411 463
#     4  12  26  43  77 118 155 201 256 328 387 475
#     4  12  29  52  75 108 155 215 267 329 401 489
#     4  10  22  40  73 123 146 196 254 328 386 474
#
# _framework density 22.923832999999998
#
# number of rings (size 3 to 8) (size 9 to 14) (size 15 to 20)
#    0.000    0.571    2.857    3.429   16.000    2.286 
#    0.000    0.000    0.000    0.000    0.000    0.000 
#    0.000    0.000    0.000    0.000    0.000    0.000 
#
# Total GULP energy -155906.677223 kJ/mol
# GULP energy per Si atom -5568.095615 kJ/mol
# Density = 2.287166 g / cm^3
# Si number density = 22.923833 Si / 1000 Ang^3
#
#
#
# Elastic Constant Matrix: (Units=GPa)
#
#
# Indices 1 2 3 4 5 6 
#
# 1 247.2493 67.2326 103.2271 0.0000 0.0000 0.0000
# 2 67.2326 172.7880 62.4536 0.0000 0.0000 0.0000
# 3 103.2271 62.4536 196.8874 0.0000 0.0000 0.0000
# 4 0.0000 0.0000 0.0000 31.5875 0.0000 0.0000
# 5 0.0000 0.0000 0.0000 0.0000 54.4677 0.0000
# 6 0.0000 0.0000 0.0000 0.0000 0.0000 19.7456
#
#
#
# Elastic Compliance Matrix: (Units=1/GPa)
#
#
# Indices 1 2 3 4 5 6 
#
# 1 0.005395 -0.001216 -0.002443 0.000000 0.000000 0.000000
# 2 -0.001216 0.006811 -0.001523 0.000000 0.000000 0.000000
# 3 -0.002443 -0.001523 0.006843 0.000000 0.000000 0.000000
# 4 0.000000 0.000000 0.000000 0.031658 0.000000 0.000000
# 5 0.000000 0.000000 0.000000 0.000000 0.018359 0.000000
# 6 0.000000 0.000000 0.000000 0.000000 0.000000 0.050644
#
#
# Mechanical properties :
#
#
# Convention : Reuss Voigt Hill
#
# Bulk Modulus (GPa) = 115.13835 120.30571 117.72203
# Shear Modulus (GPa) = 37.60254 46.76094 42.18174
#
# Velocity S-wave (km/s) = 4.05449 4.52136 4.29427
# Velocity P-wave (km/s) = 8.50024 8.93596 8.72082
#
# Compressibility (1/GPa) = 0.00868520
#
# Stress axis : x y z
#
# Youngs Moduli (GPa) = 185.35248 146.81855 146.13799
#
# Poissons Ratio (x) = 0.17858 0.35699
# Poissons Ratio (y) = 0.22545 0.22254
# Poissons Ratio (z) = 0.45278 0.22358
#
# Static dielectric constant tensor:
#      x y z
#    x 2.127850 0.000000 0.000000 
#    y 0.000000 2.620680 0.000000 
#    z 0.000000 0.000000 1.855130 
# 
# From -- ./inp_files/35687.got.cif
#   From: 2010.05.17/outbox.cif.g08.bks.cpg/sg68_18_cif.got.tgz:35687.got - 2010.06.03 18:57:09.
