data_PCOD9508951
_publ_section_title
;
Structure prediction by ZEFSAII (Michael W. Deem and Ramdas Pophale) SiO2 
 PCOD9508951
Probable space group: C C C A
;
_chemical_formula_sum "Si O2"
_cell_formula_units_Z 116
_cell_length_a 15.393749
_cell_length_b 26.946252
_cell_length_c 10.533190
_cell_angle_alpha 90.000000
_cell_angle_beta 90.000000
_cell_angle_gamma 90.000000
_cell_volume 4369.207657
_symmetry_space_group_name_H-M "C C C A"
_symmetry_group_IT_number 68
_space_group.IT_coordinate_system_code '2'
_symmetry_cell_setting 'orthorhombic'
loop_
_space_group_symop_operation_xyz
x,y,z
-x,1/2-y,z
x,1/2-y,1/2-z
-x,y,1/2-z
-x,-y,-z
x,1/2+y,-z
-x,1/2+y,1/2+z
x,-y,1/2+z
1/2+x,1/2+y,z
1/2-x,-y,z
1/2+x,-y,1/2-z
1/2-x,1/2+y,1/2-z
1/2-x,1/2-y,-z
1/2+x,y,-z
1/2-x,y,1/2+z
1/2+x,1/2-y,1/2+z
loop_
_atom_site_type_symbol
_atom_site_label
_atom_site_fract_x
_atom_site_fract_y
_atom_site_fract_z
Si Si1 0.317519 0.636755 0.137108
Si Si2 0.837968 0.795401 0.836692
Si Si3 0.029736 0.084069 0.617723
Si Si4 0.833556 0.535571 0.588861
Si Si5 0.638014 0.322940 0.122429
Si Si6 0.893908 0.032932 0.127951
Si Si7 0.138093 0.138984 0.964586
Si Si8 0.000000 0.750000 0.250000
O O1 0.366532 0.655903 0.259310
O O2 0.326813 0.578544 0.121106
O O3 0.358741 0.670580 0.028876
O O4 0.215329 0.646913 0.133987
O O5 0.861148 0.750000 0.750000
O O6 0.733718 0.800535 0.850838
O O7 0.875115 0.806956 0.973178
O O8 0.113096 0.118485 0.649505
O O9 0.040531 0.053993 0.484678
O O10 0.000000 0.058227 0.750000
O O11 0.952166 0.121239 0.587285
O O12 0.750000 0.500000 0.619618
O O13 0.862236 0.514815 0.449454
O O14 0.895480 0.528438 0.715858
O O15 0.824743 0.594020 0.555690
O O16 0.564766 0.286859 0.174653
#
# Coordination Sequence:
#
# PCOD9508951 Si02
#       8
#    16  16  16  16  16  16  16   4
#     4  10  22  44  67 103 138 192 238 307 358 441
#     4  11  23  44  72 106 145 193 253 311 369 440
#     4  11  25  46  68 103 146 198 238 301 377 450
#     4  12  25  46  74 113 139 194 245 310 368 453
#     4  10  23  39  65  99 139 188 238 296 367 435
#     4  11  26  45  74 103 150 187 248 300 377 448
#     4  11  25  43  75 103 147 194 246 311 365 448
#     4  12  20  40  60 100 142 180 230 308 346 456
#
# _framework density 26.549437000000001
#
# number of rings (size 3 to 8) (size 9 to 14) (size 15 to 20)
#    0.000    1.103    4.138    1.241    1.931    4.414 
#    0.000    0.000    0.000    3.310    0.000    0.000 
#    0.000    0.000    0.000    0.000    0.000    0.000 
#
# Total GULP energy -323140.699241 kJ/mol
# GULP energy per Si atom -5571.391366 kJ/mol
# Density = 2.648901 g / cm^3
# Si number density = 26.549437 Si / 1000 Ang^3
#
#
#
# Elastic Constant Matrix: (Units=GPa)
#
#
# Indices 1 2 3 4 5 6 
#
# 1 25.3077 -19.5738 9.6282 0.0000 0.0000 0.0000
# 2 -19.5738 87.9612 24.3553 0.0000 0.0000 0.0000
# 3 9.6282 24.3553 115.1905 0.0000 0.0000 0.0000
# 4 0.0000 0.0000 0.0000 28.7116 0.0000 0.0000
# 5 0.0000 0.0000 0.0000 0.0000 29.6782 0.0000
# 6 0.0000 0.0000 0.0000 0.0000 0.0000 21.6926
#
#
#
# Elastic Compliance Matrix: (Units=1/GPa)
#
#
# Indices 1 2 3 4 5 6 
#
# 1 0.053011 0.013833 -0.007356 0.000000 0.000000 0.000000
# 2 0.013833 0.015685 -0.004473 0.000000 0.000000 0.000000
# 3 -0.007356 -0.004473 0.010242 0.000000 0.000000 0.000000
# 4 0.000000 0.000000 0.000000 0.034829 0.000000 0.000000
# 5 0.000000 0.000000 0.000000 0.000000 0.033695 0.000000
# 6 0.000000 0.000000 0.000000 0.000000 0.000000 0.046099
#
#
# Mechanical properties :
#
#
# Convention : Reuss Voigt Hill
#
# Bulk Modulus (GPa) = 12.05579 28.58652 20.32116
# Shear Modulus (GPa) = 23.02020 30.28646 26.65333
#
# Velocity S-wave (km/s) = 2.94780 3.38117 3.17190
# Velocity P-wave (km/s) = 4.01706 5.10233 4.59187
#
# Compressibility (1/GPa) = 0.08294768
#
# Stress axis : x y z
#
# Youngs Moduli (GPa) = 18.86398 63.75387 97.63935
#
# Poissons Ratio (x) = -0.88192 0.71821
# Poissons Ratio (y) = -0.26095 0.43671
# Poissons Ratio (z) = 0.13876 0.28515
#
# Static dielectric constant tensor:
#      x y z
#    x 2.101960 0.000000 0.000000 
#    y 0.000000 2.125730 0.000000 
#    z 0.000000 0.000000 2.168310 
# 
# From -- ./inp_files/14854.got.cif
#   From: 2010.05.17/outbox.cif.g08.bks.cpg/sg68_8_cif.got.tgz:14854.got - 2010.06.03 18:57:09.
