data_PCOD9508033
_publ_section_title
;
Structure prediction by ZEFSAII (Michael W. Deem and Ramdas Pophale) SiO2 
 PCOD9508033
Probable space group: C C C A
;
_chemical_formula_sum "Si O2"
_cell_formula_units_Z 108
_cell_length_a 13.298746
_cell_length_b 33.140467
_cell_length_c 12.012803
_cell_angle_alpha 90.000000
_cell_angle_beta 90.000000
_cell_angle_gamma 90.000000
_cell_volume 5294.362459
_symmetry_space_group_name_H-M "C C C A"
_symmetry_group_IT_number 68
_space_group.IT_coordinate_system_code '2'
_symmetry_cell_setting 'orthorhombic'
loop_
_space_group_symop_operation_xyz
x,y,z
-x,1/2-y,z
x,1/2-y,1/2-z
-x,y,1/2-z
-x,-y,-z
x,1/2+y,-z
-x,1/2+y,1/2+z
x,-y,1/2+z
1/2+x,1/2+y,z
1/2-x,-y,z
1/2+x,-y,1/2-z
1/2-x,1/2+y,1/2-z
1/2-x,1/2-y,-z
1/2+x,y,-z
1/2-x,y,1/2+z
1/2+x,1/2-y,1/2+z
loop_
_atom_site_type_symbol
_atom_site_label
_atom_site_fract_x
_atom_site_fract_y
_atom_site_fract_z
Si Si1 0.671577 0.462301 0.747024
Si Si2 0.390917 0.678165 0.892386
Si Si3 0.536971 0.608417 0.878170
Si Si4 0.659075 0.750000 0.750000
Si Si5 0.331263 0.302699 0.635687
Si Si6 0.506173 0.958677 0.065440
Si Si7 0.263153 0.377408 0.229751
Si Si8 0.500000 0.250000 0.750000
O O1 0.750000 0.500000 0.745899
O O2 0.609334 0.458228 0.862995
O O3 0.586323 0.461861 0.652043
O O4 0.730220 0.420766 0.729643
O O5 0.491118 0.652142 0.906718
O O6 0.403046 0.718379 0.821351
O O7 0.319887 0.647551 0.824911
O O8 0.338914 0.691013 0.005418
O O9 0.500000 0.597336 0.750000
O O10 0.656243 0.613926 0.867678
O O11 0.505040 0.577070 0.974033
O O12 0.733873 0.777076 0.673422
O O13 0.323395 0.347317 0.688784
O O14 0.427756 0.278270 0.677396
O O15 0.500000 0.000000 0.000000
#
# Coordination Sequence:
#
# PCOD9508033 Si02
#       8
#    16  16  16   8  16  16  16   4
#     4  11  26  46  71 105 137 179 234 289 342 418
#     4  10  21  40  65  93 131 173 217 278 337 411
#     4  10  23  43  65  96 139 177 226 288 342 416
#     4   9  20  41  64  96 126 170 225 277 343 407
#     4  10  21  42  65  92 133 173 226 279 346 407
#     4  11  26  43  71  99 136 184 226 284 352 410
#     4  10  23  41  65  97 133 175 227 278 340 411
#     4  10  24  44  62  98 130 180 218 300 332 420
#
# _framework density 20.399056000000002
#
# number of rings (size 3 to 8) (size 9 to 14) (size 15 to 20)
#    0.000    1.778    0.000    2.222    8.296    4.148 
#   16.000    1.481    0.000    0.000    0.000    0.000 
#    0.000    0.000    0.000    0.000    0.000    0.000 
#
# Total GULP energy -301567.902428 kJ/mol
# GULP energy per Si atom -5584.590786 kJ/mol
# Density = 2.035263 g / cm^3
# Si number density = 20.399056 Si / 1000 Ang^3
#
#
#
# Elastic Constant Matrix: (Units=GPa)
#
#
# Indices 1 2 3 4 5 6 
#
# 1 62.4268 41.4114 13.6573 0.0000 0.0000 0.0000
# 2 41.4114 164.2559 42.5923 0.0000 0.0000 0.0000
# 3 13.6573 42.5923 91.9962 0.0000 0.0000 0.0000
# 4 0.0000 0.0000 0.0000 54.0173 0.0000 0.0000
# 5 0.0000 0.0000 0.0000 0.0000 -41.0055 0.0000
# 6 0.0000 0.0000 0.0000 0.0000 0.0000 30.4987
#
#
#
# Elastic Compliance Matrix: (Units=1/GPa)
#
#
# Indices 1 2 3 4 5 6 
#
# 1 0.019275 -0.004679 -0.000695 0.000000 0.000000 0.000000
# 2 -0.004679 0.008055 -0.003034 0.000000 0.000000 0.000000
# 3 -0.000695 -0.003034 0.012378 0.000000 0.000000 0.000000
# 4 0.000000 0.000000 0.000000 0.018513 0.000000 0.000000
# 5 0.000000 0.000000 0.000000 0.000000 -0.024387 0.000000
# 6 0.000000 0.000000 0.000000 0.000000 0.000000 0.032788
#
#
# Mechanical properties :
#
#
# Convention : Reuss Voigt Hill
#
# Bulk Modulus (GPa) = 43.68715 57.11120 50.39918
# Shear Modulus (GPa) = 54.90345 23.43664 39.17005
#
# Velocity S-wave (km/s) = 5.19357 3.39323 4.38675
# Velocity P-wave (km/s) = 7.57806 6.58861 7.10059
#
# Compressibility (1/GPa) = 0.02289003
#
# Stress axis : x y z
#
# Youngs Moduli (GPa) = 51.88107 124.15242 80.78787
#
# Poissons Ratio (x) = 0.58094 0.05615
# Poissons Ratio (y) = 0.24276 0.24515
# Poissons Ratio (z) = 0.03606 0.37674
#
# Static dielectric constant tensor:
#      x y z
#    x 1.761470 0.000000 0.000000 
#    y 0.000000 1.687520 0.000000 
#    z 0.000000 0.000000 1.756100 
# 
# From -- ./inp_files/13629.got.cif
#   From: 2010.05.17/outbox.cif.g08.bks.cpg/sg68_7_cif.got.tgz:13629.got - 2010.06.03 18:57:09.
