data_PCOD9508978
_publ_section_title
;
Structure prediction by ZEFSAII (Michael W. Deem and Ramdas Pophale) SiO2 
 PCOD9508978
Probable space group: C C C A
;
_chemical_formula_sum "Si O2"
_cell_formula_units_Z 88
_cell_length_a 14.382808
_cell_length_b 22.959586
_cell_length_c 11.094425
_cell_angle_alpha 90.000000
_cell_angle_beta 90.000000
_cell_angle_gamma 90.000000
_cell_volume 3663.637826
_symmetry_space_group_name_H-M "C C C A"
_symmetry_group_IT_number 68
_space_group.IT_coordinate_system_code '2'
_symmetry_cell_setting 'orthorhombic'
loop_
_space_group_symop_operation_xyz
x,y,z
-x,1/2-y,z
x,1/2-y,1/2-z
-x,y,1/2-z
-x,-y,-z
x,1/2+y,-z
-x,1/2+y,1/2+z
x,-y,1/2+z
1/2+x,1/2+y,z
1/2-x,-y,z
1/2+x,-y,1/2-z
1/2-x,1/2+y,1/2-z
1/2-x,1/2-y,-z
1/2+x,y,-z
1/2-x,y,1/2+z
1/2+x,1/2-y,1/2+z
loop_
_atom_site_type_symbol
_atom_site_label
_atom_site_fract_x
_atom_site_fract_y
_atom_site_fract_z
Si Si1 0.618362 0.535508 0.608427
Si Si2 0.106934 0.530569 0.133445
Si Si3 0.107969 0.344883 0.566520
Si Si4 0.967185 0.183023 0.117108
Si Si5 0.878067 0.250000 0.750000
Si Si6 0.302220 0.163507 0.049946
O O1 0.640905 0.500686 0.486905
O O2 0.640387 0.505899 0.738057
O O3 0.505431 0.535719 0.620441
O O4 0.665901 0.598809 0.591425
O O5 0.138019 0.597398 0.134416
O O6 0.023931 0.356143 0.476334
O O7 0.074846 0.295754 0.659171
O O8 0.195710 0.328281 0.485977
O O9 0.000000 0.250000 0.102320
O O10 0.000000 0.165655 0.250000
O O11 0.862202 0.177972 0.070988
O O12 0.823656 0.208287 0.842517
#
# Coordination Sequence:
#
# PCOD9508978 Si02
#       6
#    16  16  16  16   8  16
#     4  10  22  44  71 102 138 182 239 296 356 427
#     4  10  22  44  71 102 138 182 239 296 356 427
#     4  12  26  44  72 105 140 189 236 297 359 423
#     4  11  26  42  65 100 145 184 233 290 363 428
#     4  12  26  45  72 103 146 178 246 295 352 427
#     4  12  26  44  72 105 140 189 236 297 359 423
#
# _framework density 24.019841
#
# number of rings (size 3 to 8) (size 9 to 14) (size 15 to 20)
#    0.000    0.909    5.455    0.545    2.545    3.636 
#    0.000    1.818    0.000    0.000    0.000    0.000 
#    0.000    0.000    0.000    0.000    0.000    0.000 
#
# Total GULP energy -245934.735986 kJ/mol
# GULP energy per Si atom -5589.425818 kJ/mol
# Density = 2.396517 g / cm^3
# Si number density = 24.019841 Si / 1000 Ang^3
#
#
#
# Elastic Constant Matrix: (Units=GPa)
#
#
# Indices 1 2 3 4 5 6 
#
# 1 75.3410 -1.4601 10.6014 0.0000 0.0000 0.0000
# 2 -1.4601 92.1265 61.8343 0.0000 0.0000 0.0000
# 3 10.6014 61.8343 203.7503 0.0000 0.0000 0.0000
# 4 0.0000 0.0000 0.0000 26.9874 0.0000 0.0000
# 5 0.0000 0.0000 0.0000 0.0000 6.5927 0.0000
# 6 0.0000 0.0000 0.0000 0.0000 0.0000 20.1953
#
#
#
# Elastic Compliance Matrix: (Units=1/GPa)
#
#
# Indices 1 2 3 4 5 6 
#
# 1 0.013424 0.000856 -0.000958 0.000000 0.000000 0.000000
# 2 0.000856 0.013686 -0.004198 0.000000 0.000000 0.000000
# 3 -0.000958 -0.004198 0.006232 0.000000 0.000000 0.000000
# 4 0.000000 0.000000 0.000000 0.037054 0.000000 0.000000
# 5 0.000000 0.000000 0.000000 0.000000 0.151684 0.000000
# 6 0.000000 0.000000 0.000000 0.000000 0.000000 0.049516
#
#
# Mechanical properties :
#
#
# Convention : Reuss Voigt Hill
#
# Bulk Modulus (GPa) = 40.41782 57.01877 48.71829
# Shear Modulus (GPa) = 17.33436 30.77122 24.05279
#
# Velocity S-wave (km/s) = 2.68930 3.58309 3.16788
# Velocity P-wave (km/s) = 5.14845 6.39592 5.80579
#
# Compressibility (1/GPa) = 0.02474156
#
# Stress axis : x y z
#
# Youngs Moduli (GPa) = 74.49119 73.06843 160.46693
#
# Poissons Ratio (x) = -0.06254 0.15377
# Poissons Ratio (y) = -0.06376 0.67363
# Poissons Ratio (z) = 0.07138 0.30673
#
# Static dielectric constant tensor:
#      x y z
#    x 2.334630 0.000000 0.000000 
#    y 0.000000 1.977830 0.000000 
#    z 0.000000 0.000000 1.934670 
# 
# From -- ./inp_files/13287.got.cif
#   From: 2010.05.17/outbox.cif.g08.bks.cpg/sg68_7_cif.got.tgz:13287.got - 2010.06.03 18:57:09.
