data_PCOD9508015
_publ_section_title
;
Structure prediction by ZEFSAII (Michael W. Deem and Ramdas Pophale) SiO2 
 PCOD9508015
Probable space group: C C C A
;
_chemical_formula_sum "Si O2"
_cell_formula_units_Z 88
_cell_length_a 19.053483
_cell_length_b 10.337775
_cell_length_c 21.007516
_cell_angle_alpha 90.000000
_cell_angle_beta 90.000000
_cell_angle_gamma 90.000000
_cell_volume 4137.863456
_symmetry_space_group_name_H-M "C C C A"
_symmetry_group_IT_number 68
_space_group.IT_coordinate_system_code '2'
_symmetry_cell_setting 'orthorhombic'
loop_
_space_group_symop_operation_xyz
x,y,z
-x,1/2-y,z
x,1/2-y,1/2-z
-x,y,1/2-z
-x,-y,-z
x,1/2+y,-z
-x,1/2+y,1/2+z
x,-y,1/2+z
1/2+x,1/2+y,z
1/2-x,-y,z
1/2+x,-y,1/2-z
1/2-x,1/2+y,1/2-z
1/2-x,1/2-y,-z
1/2+x,y,-z
1/2-x,y,1/2+z
1/2+x,1/2-y,1/2+z
loop_
_atom_site_type_symbol
_atom_site_label
_atom_site_fract_x
_atom_site_fract_y
_atom_site_fract_z
Si Si1 0.250000 0.500000 0.490809
Si Si2 0.937538 0.101987 0.443485
Si Si3 0.377927 0.097002 0.426172
Si Si4 0.750000 0.500000 0.217031
Si Si5 0.657181 0.123652 0.391215
Si Si6 0.584530 0.836227 0.123769
Si Si7 0.842114 0.250000 0.250000
O O1 0.309252 0.566094 0.532659
O O2 0.283160 0.392166 0.444845
O O3 0.940270 0.094544 0.520167
O O4 0.892063 0.232376 0.429669
O O5 0.005917 0.127167 0.400269
O O6 0.900932 0.976657 0.415520
O O7 0.372271 0.232546 0.391169
O O8 0.381227 0.976421 0.379034
O O9 0.692253 0.427631 0.173020
O O10 0.792745 0.379244 0.248475
O O11 0.606479 0.767677 0.189180
#
# Coordination Sequence:
#
# PCOD9508015 Si02
#       7
#     8  16  16   8  16  16   8
#     4   9  20  33  60  96 142 181 211 266 348 430
#     4  10  21  43  64  99 132 177 219 282 346 423
#     4  11  22  36  67 103 139 173 220 282 356 410
#     4  11  26  45  70  92 136 171 245 282 338 400
#     4  10  21  40  63  97 137 172 219 285 342 402
#     4  11  25  42  67  97 134 182 231 273 346 415
#     4  12  28  49  70 100 131 194 236 288 330 420
#
# _framework density 21.267014
#
# number of rings (size 3 to 8) (size 9 to 14) (size 15 to 20)
#    0.000    1.455    1.818    3.273    5.091    3.636 
#    0.000    0.000    0.000    0.000    0.000    0.000 
#    0.000    0.000    0.000    0.000    0.000    0.000 
#
# Total GULP energy -245266.997909 kJ/mol
# GULP energy per Si atom -5574.249952 kJ/mol
# Density = 2.121861 g / cm^3
# Si number density = 21.267014 Si / 1000 Ang^3
#
#
#
# Elastic Constant Matrix: (Units=GPa)
#
#
# Indices 1 2 3 4 5 6 
#
# 1 73.3823 16.9609 19.5358 0.0000 0.0000 0.0000
# 2 16.9609 155.1985 19.0652 0.0000 0.0000 0.0000
# 3 19.5358 19.0652 60.9495 0.0000 0.0000 0.0000
# 4 0.0000 0.0000 0.0000 5.4243 0.0000 0.0000
# 5 0.0000 0.0000 0.0000 0.0000 20.5012 0.0000
# 6 0.0000 0.0000 0.0000 0.0000 0.0000 21.7576
#
#
#
# Elastic Compliance Matrix: (Units=1/GPa)
#
#
# Indices 1 2 3 4 5 6 
#
# 1 0.015076 -0.001096 -0.004489 0.000000 0.000000 0.000000
# 2 -0.001096 0.006781 -0.001770 0.000000 0.000000 0.000000
# 3 -0.004489 -0.001770 0.018400 0.000000 0.000000 0.000000
# 4 0.000000 0.000000 0.000000 0.184357 0.000000 0.000000
# 5 0.000000 0.000000 0.000000 0.000000 0.048778 0.000000
# 6 0.000000 0.000000 0.000000 0.000000 0.000000 0.045961
#
#
# Mechanical properties :
#
#
# Convention : Reuss Voigt Hill
#
# Bulk Modulus (GPa) = 39.14546 44.51712 41.83129
# Shear Modulus (GPa) = 14.59526 25.13450 19.86488
#
# Velocity S-wave (km/s) = 2.62255 3.44154 3.05957
# Velocity P-wave (km/s) = 5.25518 6.06384 5.67394
#
# Compressibility (1/GPa) = 0.02554575
#
# Stress axis : x y z
#
# Youngs Moduli (GPa) = 66.33173 147.48100 54.34929
#
# Poissons Ratio (x) = 0.16165 0.24399
# Poissons Ratio (y) = 0.07270 0.09618
# Poissons Ratio (z) = 0.29778 0.26099
#
# Static dielectric constant tensor:
#      x y z
#    x 1.901480 0.000000 0.000000 
#    y 0.000000 1.821590 0.000000 
#    z 0.000000 0.000000 1.751250 
# 
# From -- ./inp_files/32839.got.cif
#   From: 2010.05.17/outbox.cif.g08.bks.cpg/sg68_17_cif.got.tgz:32839.got - 2010.06.03 18:57:09.
