data_PCOD9508052
_publ_section_title
;
Structure prediction by ZEFSAII (Michael W. Deem and Ramdas Pophale) SiO2 
 PCOD9508052
Probable space group: C C C A
;
_chemical_formula_sum "Si O2"
_cell_formula_units_Z 64
_cell_length_a 14.413040
_cell_length_b 9.616418
_cell_length_c 21.426910
_cell_angle_alpha 90.000000
_cell_angle_beta 90.000000
_cell_angle_gamma 90.000000
_cell_volume 2969.808665
_symmetry_space_group_name_H-M "C C C A"
_symmetry_group_IT_number 68
_space_group.IT_coordinate_system_code '2'
_symmetry_cell_setting 'orthorhombic'
loop_
_space_group_symop_operation_xyz
x,y,z
-x,1/2-y,z
x,1/2-y,1/2-z
-x,y,1/2-z
-x,-y,-z
x,1/2+y,-z
-x,1/2+y,1/2+z
x,-y,1/2+z
1/2+x,1/2+y,z
1/2-x,-y,z
1/2+x,-y,1/2-z
1/2-x,1/2+y,1/2-z
1/2-x,1/2-y,-z
1/2+x,y,-z
1/2-x,y,1/2+z
1/2+x,1/2-y,1/2+z
loop_
_atom_site_type_symbol
_atom_site_label
_atom_site_fract_x
_atom_site_fract_y
_atom_site_fract_z
Si Si1 0.500000 0.018566 0.250000
Si Si2 0.367744 0.141736 0.042282
Si Si3 0.181203 0.130004 0.207716
Si Si4 0.000000 0.750000 0.144453
Si Si5 0.147909 0.332495 0.432694
O O1 0.507104 0.117604 0.189581
O O2 0.408228 0.927176 0.243701
O O3 0.413902 0.227953 0.098185
O O4 0.257204 0.152098 0.051274
O O5 0.395892 0.981166 0.049315
O O6 0.390292 0.209748 0.975709
O O7 0.226788 0.250000 0.250000
O O8 0.145992 0.187001 0.141331
O O9 0.250000 0.000000 0.196253
#
# Coordination Sequence:
#
# PCOD9508052 Si02
#       5
#     8  16  16   8  16
#     4  11  25  44  68 102 144 178 228 286 334 412
#     4  10  21  40  66  93 131 174 218 282 330 408
#     4  12  26  46  71 100 138 180 230 284 346 411
#     4  11  22  40  72  98 133 180 232 274 347 392
#     4  10  21  43  63  94 134 169 224 274 341 399
#
# _framework density 21.550208999999999
#
# number of rings (size 3 to 8) (size 9 to 14) (size 15 to 20)
#    0.000    1.250    5.000    0.375    7.000    3.000 
#    9.000    0.000    0.000    0.000    0.000    0.000 
#    0.000    0.000    0.000    0.000    0.000    0.000 
#
# Total GULP energy -178969.767340 kJ/mol
# GULP energy per Si atom -5592.805229 kJ/mol
# Density = 2.150116 g / cm^3
# Si number density = 21.550209 Si / 1000 Ang^3
#
#
#
# Elastic Constant Matrix: (Units=GPa)
#
#
# Indices 1 2 3 4 5 6 
#
# 1 46.8700 -4.1444 0.3707 0.0000 0.0000 0.0000
# 2 -4.1444 78.6553 67.6720 0.0000 0.0000 0.0000
# 3 0.3707 67.6720 165.6188 0.0000 0.0000 0.0000
# 4 0.0000 0.0000 0.0000 37.7886 0.0000 0.0000
# 5 0.0000 0.0000 0.0000 0.0000 23.1728 0.0000
# 6 0.0000 0.0000 0.0000 0.0000 0.0000 24.8700
#
#
#
# Elastic Compliance Matrix: (Units=1/GPa)
#
#
# Indices 1 2 3 4 5 6 
#
# 1 0.021502 0.001811 -0.000788 0.000000 0.000000 0.000000
# 2 0.001811 0.019759 -0.008077 0.000000 0.000000 0.000000
# 3 -0.000788 -0.008077 0.009340 0.000000 0.000000 0.000000
# 4 0.000000 0.000000 0.000000 0.026463 0.000000 0.000000
# 5 0.000000 0.000000 0.000000 0.000000 0.043154 0.000000
# 6 0.000000 0.000000 0.000000 0.000000 0.000000 0.040209
#
#
# Mechanical properties :
#
#
# Convention : Reuss Voigt Hill
#
# Bulk Modulus (GPa) = 27.40351 46.54898 36.97624
# Shear Modulus (GPa) = 26.78095 32.31601 29.54848
#
# Velocity S-wave (km/s) = 3.52905 3.87663 3.70692
# Velocity P-wave (km/s) = 5.41750 6.45638 5.95962
#
# Compressibility (1/GPa) = 0.03649168
#
# Stress axis : x y z
#
# Youngs Moduli (GPa) = 46.50739 50.61072 107.06429
#
# Poissons Ratio (x) = -0.09166 0.08438
# Poissons Ratio (y) = -0.08422 0.86481
# Poissons Ratio (z) = 0.03665 0.40881
#
# Static dielectric constant tensor:
#      x y z
#    x 1.784830 0.000000 0.000000 
#    y 0.000000 1.839170 0.000000 
#    z 0.000000 0.000000 1.755290 
# 
# From -- ./inp_files/30492.got.cif
#   From: 2010.05.17/outbox.cif.g08.bks.cpg/sg68_16_cif.got.tgz:30492.got - 2010.06.03 18:57:09.
