data_PCOD9508235
_publ_section_title
;
Structure prediction by ZEFSAII (Michael W. Deem and Ramdas Pophale) SiO2 
 PCOD9508235
Probable space group: C C C A
;
_chemical_formula_sum "Si O2"
_cell_formula_units_Z 112
_cell_length_a 15.156351
_cell_length_b 12.464474
_cell_length_c 30.668130
_cell_angle_alpha 90.000000
_cell_angle_beta 90.000000
_cell_angle_gamma 90.000000
_cell_volume 5793.698698
_symmetry_space_group_name_H-M "C C C A"
_symmetry_group_IT_number 68
_space_group.IT_coordinate_system_code '2'
_symmetry_cell_setting 'orthorhombic'
loop_
_space_group_symop_operation_xyz
x,y,z
-x,1/2-y,z
x,1/2-y,1/2-z
-x,y,1/2-z
-x,-y,-z
x,1/2+y,-z
-x,1/2+y,1/2+z
x,-y,1/2+z
1/2+x,1/2+y,z
1/2-x,-y,z
1/2+x,-y,1/2-z
1/2-x,1/2+y,1/2-z
1/2-x,1/2-y,-z
1/2+x,y,-z
1/2-x,y,1/2+z
1/2+x,1/2-y,1/2+z
loop_
_atom_site_type_symbol
_atom_site_label
_atom_site_fract_x
_atom_site_fract_y
_atom_site_fract_z
Si Si1 0.548549 0.364783 0.808143
Si Si2 0.721624 0.606445 0.472637
Si Si3 0.844928 0.024449 0.121443
Si Si4 0.903177 0.218406 0.633842
Si Si5 0.623124 0.449436 0.718159
Si Si6 0.893569 0.758465 0.463243
Si Si7 0.712451 0.323092 0.207596
O O1 0.500000 0.250000 0.804889
O O2 0.604533 0.386633 0.850844
O O3 0.604827 0.395471 0.765338
O O4 0.468533 0.449196 0.806988
O O5 0.750000 0.500000 0.497557
O O6 0.678855 0.571337 0.426303
O O7 0.815392 0.667199 0.466134
O O8 0.647640 0.662748 0.501240
O O9 0.750000 0.000000 0.142848
O O10 0.893965 0.908799 0.122769
O O11 0.890932 0.282578 0.588381
O O12 0.832617 0.257024 0.669081
O O13 0.000000 0.250000 0.650615
O O14 0.658649 0.569563 0.720659
O O15 0.692721 0.371409 0.694878
O O16 0.000000 0.750000 0.472244
O O17 0.719805 0.250000 0.250000
#
# Coordination Sequence:
#
# PCOD9508235 Si02
#       7
#    16  16  16  16  16  16  16
#     4  11  23  39  63  90 126 165 208 268 322 368
#     4  10  21  43  64  97 126 164 213 262 316 398
#     4  11  23  40  68  93 124 165 215 260 320 385
#     4  11  23  42  63  91 127 165 211 262 318 379
#     4  10  23  40  55  90 129 162 210 262 318 375
#     4  10  22  41  67  91 130 168 205 262 325 377
#     4  11  23  38  64  87 124 171 215 257 315 384
#
# _framework density 19.331347000000001
#
# number of rings (size 3 to 8) (size 9 to 14) (size 15 to 20)
#    0.000    1.429    2.857    3.429    6.000    2.571 
#    2.571    1.429    0.000    0.000    0.000    0.000 
#    0.000    0.000    0.000    0.000    0.000    0.000 
#
# Total GULP energy -311929.089375 kJ/mol
# GULP energy per Si atom -5570.162310 kJ/mol
# Density = 1.928735 g / cm^3
# Si number density = 19.331347 Si / 1000 Ang^3
#
#
#
# Elastic Constant Matrix: (Units=GPa)
#
#
# Indices 1 2 3 4 5 6 
#
# 1 116.2565 33.9166 44.3692 0.0000 0.0000 0.0000
# 2 33.9166 82.8712 42.4475 0.0000 0.0000 0.0000
# 3 44.3692 42.4475 77.0751 0.0000 0.0000 0.0000
# 4 0.0000 0.0000 0.0000 23.6740 0.0000 0.0000
# 5 0.0000 0.0000 0.0000 0.0000 -13.2987 0.0000
# 6 0.0000 0.0000 0.0000 0.0000 0.0000 22.5233
#
#
#
# Elastic Compliance Matrix: (Units=1/GPa)
#
#
# Indices 1 2 3 4 5 6 
#
# 1 0.011210 -0.001787 -0.005469 0.000000 0.000000 0.000000
# 2 -0.001787 0.017093 -0.008385 0.000000 0.000000 0.000000
# 3 -0.005469 -0.008385 0.020741 0.000000 0.000000 0.000000
# 4 0.000000 0.000000 0.000000 0.042240 0.000000 0.000000
# 5 0.000000 0.000000 0.000000 0.000000 -0.075196 0.000000
# 6 0.000000 0.000000 0.000000 0.000000 0.000000 0.044398
#
#
# Mechanical properties :
#
#
# Convention : Reuss Voigt Hill
#
# Bulk Modulus (GPa) = 56.30033 57.51882 56.90958
# Shear Modulus (GPa) = 51.18200 16.94436 34.06318
#
# Velocity S-wave (km/s) = 5.15108 2.96382 4.20226
# Velocity P-wave (km/s) = 8.03525 6.44446 7.28342
#
# Compressibility (1/GPa) = 0.01776189
#
# Stress axis : x y z
#
# Youngs Moduli (GPa) = 89.20384 58.50314 48.21389
#
# Poissons Ratio (x) = 0.10452 0.26370
# Poissons Ratio (y) = 0.15936 0.40429
# Poissons Ratio (z) = 0.48790 0.49056
#
# Static dielectric constant tensor:
#      x y z
#    x 1.724000 0.000000 0.000000 
#    y 0.000000 1.731810 0.000000 
#    z 0.000000 0.000000 1.654630 
# 
# From -- ./inp_files/55282.got.cif
#   From: 2010.05.17/outbox.cif.g08.bks.cpg/sg68_28_cif.got.tgz:55282.got - 2010.06.03 18:57:09.
