data_PCOD9508585
_publ_section_title
;
Structure prediction by ZEFSAII (Michael W. Deem and Ramdas Pophale) SiO2 
 PCOD9508585
Probable space group: C C C A
;
_chemical_formula_sum "Si O2"
_cell_formula_units_Z 88
_cell_length_a 24.475491
_cell_length_b 12.131625
_cell_length_c 13.537897
_cell_angle_alpha 90.000000
_cell_angle_beta 90.000000
_cell_angle_gamma 90.000000
_cell_volume 4019.773620
_symmetry_space_group_name_H-M "C C C A"
_symmetry_group_IT_number 68
_space_group.IT_coordinate_system_code '2'
_symmetry_cell_setting 'orthorhombic'
loop_
_space_group_symop_operation_xyz
x,y,z
-x,1/2-y,z
x,1/2-y,1/2-z
-x,y,1/2-z
-x,-y,-z
x,1/2+y,-z
-x,1/2+y,1/2+z
x,-y,1/2+z
1/2+x,1/2+y,z
1/2-x,-y,z
1/2+x,-y,1/2-z
1/2-x,1/2+y,1/2-z
1/2-x,1/2-y,-z
1/2+x,y,-z
1/2-x,y,1/2+z
1/2+x,1/2-y,1/2+z
loop_
_atom_site_type_symbol
_atom_site_label
_atom_site_fract_x
_atom_site_fract_y
_atom_site_fract_z
Si Si1 0.602251 0.420524 0.801913
Si Si2 0.942377 0.305853 0.481723
Si Si3 0.137676 0.122851 0.926243
Si Si4 0.721804 0.711492 0.603525
Si Si5 0.690070 0.750000 0.250000
Si Si6 0.628306 0.972696 0.902286
O O1 0.559978 0.348739 0.867716
O O2 0.606617 0.538923 0.854662
O O3 0.654345 0.338910 0.809111
O O4 0.603814 0.454147 0.686772
O O5 0.898752 0.214440 0.518286
O O6 0.923304 0.410527 0.546972
O O7 0.000000 0.250000 0.502066
O O8 0.186779 0.179883 0.868621
O O9 0.156820 0.048050 0.015933
O O10 0.750000 0.750000 0.500000
O O11 0.771198 0.686464 0.675297
O O12 0.675826 0.617154 0.614776
#
# Coordination Sequence:
#
# PCOD9508585 Si02
#       6
#    16  16  16  16   8  16
#     4  11  23  41  64  92 129 168 214 271 323 385
#     4  10  23  45  68  92 127 166 214 274 330 389
#     4  10  22  41  61  89 129 167 210 268 327 384
#     4  11  22  36  59  90 127 170 213 260 314 377
#     4  12  24  38  59  94 129 168 218 258 310 384
#     4  10  22  40  63  94 130 170 218 267 322 387
#
# _framework density 21.891777999999999
#
# number of rings (size 3 to 8) (size 9 to 14) (size 15 to 20)
#    0.000    1.455    0.000    6.545    0.000   11.636 
#    0.000    9.545    0.000    0.000    0.000    0.000 
#    0.000    0.000    0.000    0.000    0.000    0.000 
#
# Total GULP energy -245072.261788 kJ/mol
# GULP energy per Si atom -5569.824132 kJ/mol
# Density = 2.184195 g / cm^3
# Si number density = 21.891778 Si / 1000 Ang^3
#
#
#
# Elastic Constant Matrix: (Units=GPa)
#
#
# Indices 1 2 3 4 5 6 
#
# 1 71.7125 17.8430 5.9183 0.0000 0.0000 0.0000
# 2 17.8430 70.3992 -3.9501 0.0000 0.0000 0.0000
# 3 5.9183 -3.9501 58.1934 0.0000 0.0000 0.0000
# 4 0.0000 0.0000 0.0000 38.9607 0.0000 0.0000
# 5 0.0000 0.0000 0.0000 0.0000 19.1931 0.0000
# 6 0.0000 0.0000 0.0000 0.0000 0.0000 3.3771
#
#
#
# Elastic Compliance Matrix: (Units=1/GPa)
#
#
# Indices 1 2 3 4 5 6 
#
# 1 0.015068 -0.003920 -0.001799 0.000000 0.000000 0.000000
# 2 -0.003920 0.015279 0.001436 0.000000 0.000000 0.000000
# 3 -0.001799 0.001436 0.017464 0.000000 0.000000 0.000000
# 4 0.000000 0.000000 0.000000 0.025667 0.000000 0.000000
# 5 0.000000 0.000000 0.000000 0.000000 0.052102 0.000000
# 6 0.000000 0.000000 0.000000 0.000000 0.000000 0.296110
#
#
# Mechanical properties :
#
#
# Convention : Reuss Voigt Hill
#
# Bulk Modulus (GPa) = 25.48031 26.65860 26.06946
# Shear Modulus (GPa) = 11.27807 24.33912 17.80860
#
# Velocity S-wave (km/s) = 2.27221 3.33797 2.85526
# Velocity P-wave (km/s) = 4.30678 5.20192 4.77537
#
# Compressibility (1/GPa) = 0.03924599
#
# Stress axis : x y z
#
# Youngs Moduli (GPa) = 66.36419 65.45009 57.25915
#
# Poissons Ratio (x) = 0.25657 0.10298
# Poissons Ratio (y) = 0.26015 -0.08221
# Poissons Ratio (z) = 0.11936 -0.09397
#
# Static dielectric constant tensor:
#      x y z
#    x 1.775670 0.000000 0.000000 
#    y 0.000000 1.927070 0.000000 
#    z 0.000000 0.000000 1.866840 
# 
# From -- ./inp_files/25272.got.cif
#   From: 2010.05.17/outbox.cif.g08.bks.cpg/sg68_13_cif.got.tgz:25272.got - 2010.06.03 18:57:09.
