data_PCOD9508963
_publ_section_title
;
Structure prediction by ZEFSAII (Michael W. Deem and Ramdas Pophale) SiO2 
 PCOD9508963
Probable space group: C C C A
;
_chemical_formula_sum "Si O2"
_cell_formula_units_Z 68
_cell_length_a 27.536381
_cell_length_b 8.909454
_cell_length_c 13.827511
_cell_angle_alpha 90.000000
_cell_angle_beta 90.000000
_cell_angle_gamma 90.000000
_cell_volume 3392.360241
_symmetry_space_group_name_H-M "C C C A"
_symmetry_group_IT_number 68
_space_group.IT_coordinate_system_code '2'
_symmetry_cell_setting 'orthorhombic'
loop_
_space_group_symop_operation_xyz
x,y,z
-x,1/2-y,z
x,1/2-y,1/2-z
-x,y,1/2-z
-x,-y,-z
x,1/2+y,-z
-x,1/2+y,1/2+z
x,-y,1/2+z
1/2+x,1/2+y,z
1/2-x,-y,z
1/2+x,-y,1/2-z
1/2-x,1/2+y,1/2-z
1/2-x,1/2-y,-z
1/2+x,y,-z
1/2-x,y,1/2+z
1/2+x,1/2-y,1/2+z
loop_
_atom_site_type_symbol
_atom_site_label
_atom_site_fract_x
_atom_site_fract_y
_atom_site_fract_z
Si Si1 0.444735 0.454936 0.602679
Si Si2 0.250000 0.500000 0.251616
Si Si3 0.500000 0.750000 0.250000
Si Si4 0.210025 0.821438 0.071342
Si Si5 0.000000 0.250000 0.552153
Si Si6 0.167784 0.013396 0.904941
O O1 0.466135 0.358934 0.689231
O O2 0.467026 0.623515 0.603749
O O3 0.464306 0.357652 0.511098
O O4 0.386894 0.460771 0.607414
O O5 0.232964 0.625964 0.327995
O O6 0.205182 0.462826 0.179705
O O7 0.171194 0.692887 0.092996
O O8 0.250000 0.750000 0.000000
O O9 0.187061 0.954202 0.008344
#
# Coordination Sequence:
#
# PCOD9508963 Si02
#       6
#    16   8   4  16   8  16
#     4  10  22  44  69 100 125 177 211 282 333 406
#     4  12  24  42  64  94 140 170 220 272 318 386
#     4  10  24  46  64  98 140 152 224 286 344 376
#     4  12  23  44  62  92 138 178 216 272 315 386
#     4   9  20  46  72  89 136 164 224 269 344 394
#     4  12  25  42  70  98 132 177 224 261 337 398
#
# _framework density 20.045041000000001
#
# number of rings (size 3 to 8) (size 9 to 14) (size 15 to 20)
#    0.000    0.941    4.706    2.118    0.000    2.353 
#   21.176    0.000    0.000    0.000    0.000    0.000 
#    0.000    0.000    0.000    0.000    0.000    0.000 
#
# Total GULP energy -189804.944941 kJ/mol
# GULP energy per Si atom -5582.498381 kJ/mol
# Density = 1.999942 g / cm^3
# Si number density = 20.045041 Si / 1000 Ang^3
#
#
#
# Elastic Constant Matrix: (Units=GPa)
#
#
# Indices 1 2 3 4 5 6 
#
# 1 173.1605 50.0832 61.4272 0.0000 0.0000 0.0000
# 2 50.0832 136.5818 49.6115 0.0000 0.0000 0.0000
# 3 61.4272 49.6115 119.3508 0.0000 0.0000 0.0000
# 4 0.0000 0.0000 0.0000 99.8629 0.0000 0.0000
# 5 0.0000 0.0000 0.0000 0.0000 23.8182 0.0000
# 6 0.0000 0.0000 0.0000 0.0000 0.0000 27.6959
#
#
#
# Elastic Compliance Matrix: (Units=1/GPa)
#
#
# Indices 1 2 3 4 5 6 
#
# 1 0.007334 -0.001553 -0.003129 0.000000 0.000000 0.000000
# 2 -0.001553 0.008952 -0.002922 0.000000 0.000000 0.000000
# 3 -0.003129 -0.002922 0.011204 0.000000 0.000000 0.000000
# 4 0.000000 0.000000 0.000000 0.010014 0.000000 0.000000
# 5 0.000000 0.000000 0.000000 0.000000 0.041985 0.000000
# 6 0.000000 0.000000 0.000000 0.000000 0.000000 0.036106
#
#
# Mechanical properties :
#
#
# Convention : Reuss Voigt Hill
#
# Bulk Modulus (GPa) = 81.41901 83.48190 82.45046
# Shear Modulus (GPa) = 37.06510 48.14015 42.60262
#
# Velocity S-wave (km/s) = 4.30477 4.90593 4.61515
# Velocity P-wave (km/s) = 8.08791 8.59235 8.34394
#
# Compressibility (1/GPa) = 0.01228214
#
# Stress axis : x y z
#
# Youngs Moduli (GPa) = 136.34803 111.70165 89.25424
#
# Poissons Ratio (x) = 0.17344 0.27931
# Poissons Ratio (y) = 0.21171 0.26082
# Poissons Ratio (z) = 0.42668 0.32641
#
# Static dielectric constant tensor:
#      x y z
#    x 1.681350 0.000000 0.000000 
#    y 0.000000 1.795080 0.000000 
#    z 0.000000 0.000000 1.721410 
# 
# From -- ./inp_files/19411.got.cif
#   From: 2010.05.17/outbox.cif.g08.bks.cpg/sg68_10_cif.got.tgz:19411.got - 2010.06.03 18:57:09.
