data_PCOD9508796
_publ_section_title
;
Structure prediction by ZEFSAII (Michael W. Deem and Ramdas Pophale) SiO2 
 PCOD9508796
Probable space group: C C C A
;
_chemical_formula_sum "Si O2"
_cell_formula_units_Z 116
_cell_length_a 9.054205
_cell_length_b 25.729008
_cell_length_c 25.393786
_cell_angle_alpha 90.000000
_cell_angle_beta 90.000000
_cell_angle_gamma 90.000000
_cell_volume 5915.627520
_symmetry_space_group_name_H-M "C C C A"
_symmetry_group_IT_number 68
_space_group.IT_coordinate_system_code '2'
_symmetry_cell_setting 'orthorhombic'
loop_
_space_group_symop_operation_xyz
x,y,z
-x,1/2-y,z
x,1/2-y,1/2-z
-x,y,1/2-z
-x,-y,-z
x,1/2+y,-z
-x,1/2+y,1/2+z
x,-y,1/2+z
1/2+x,1/2+y,z
1/2-x,-y,z
1/2+x,-y,1/2-z
1/2-x,1/2+y,1/2-z
1/2-x,1/2-y,-z
1/2+x,y,-z
1/2-x,y,1/2+z
1/2+x,1/2-y,1/2+z
loop_
_atom_site_type_symbol
_atom_site_label
_atom_site_fract_x
_atom_site_fract_y
_atom_site_fract_z
Si Si1 0.500000 0.250000 0.750000
Si Si2 0.178143 0.557815 0.530088
Si Si3 0.809670 0.837804 0.697977
Si Si4 0.992570 0.418651 0.364874
Si Si5 0.589899 0.022779 0.343017
Si Si6 0.767764 0.381569 0.693524
Si Si7 0.483294 0.097225 0.434001
Si Si8 0.000903 0.810931 0.355479
O O1 0.401043 0.286416 0.712526
O O2 0.250000 0.500000 0.524493
O O3 0.057985 0.562257 0.577465
O O4 0.318418 0.592931 0.544292
O O5 0.097829 0.579073 0.478405
O O6 0.881954 0.874822 0.654658
O O7 0.810594 0.870158 0.752109
O O8 0.647216 0.824165 0.677843
O O9 0.997347 0.471494 0.329973
O O10 0.153392 0.393431 0.353912
O O11 0.632271 0.066780 0.301094
O O12 0.505644 0.055445 0.387287
O O13 0.750000 0.000000 0.361822
O O14 0.863980 0.331537 0.679004
O O15 0.505960 0.153302 0.407631
O O16 0.000000 0.750000 0.366310
#
# Coordination Sequence:
#
# PCOD9508796 Si02
#       8
#     4  16  16  16  16  16  16  16
#     4  12  24  40  74  92 128 172 230 284 326 384
#     4  12  24  40  69 100 130 174 216 269 333 416
#     4  12  23  43  67  99 128 173 230 272 331 389
#     4  11  22  41  64  98 135 169 215 269 331 394
#     4   9  20  38  61  92 132 172 207 256 329 393
#     4  10  22  42  66  94 133 177 213 271 324 399
#     4  11  24  41  64  96 128 168 218 273 331 399
#     4  11  25  45  68  92 129 170 227 280 332 389
#
# _framework density 19.609076999999999
#
# number of rings (size 3 to 8) (size 9 to 14) (size 15 to 20)
#    0.000    1.103    4.138    2.069    5.793    0.552 
#    0.000   19.310    1.517    0.000    0.000    0.000 
#    0.000    0.000    0.000    0.000    0.000    0.000 
#
# Total GULP energy -323721.564596 kJ/mol
# GULP energy per Si atom -5581.406286 kJ/mol
# Density = 1.956445 g / cm^3
# Si number density = 19.609077 Si / 1000 Ang^3
#
#
#
# Elastic Constant Matrix: (Units=GPa)
#
#
# Indices 1 2 3 4 5 6 
#
# 1 69.2913 29.4605 21.2915 0.0000 0.0000 0.0000
# 2 29.4605 133.9595 32.4130 0.0000 0.0000 0.0000
# 3 21.2915 32.4130 50.9954 0.0000 0.0000 0.0000
# 4 0.0000 0.0000 0.0000 15.6800 0.0000 0.0000
# 5 0.0000 0.0000 0.0000 0.0000 22.1068 0.0000
# 6 0.0000 0.0000 0.0000 0.0000 0.0000 32.5462
#
#
#
# Elastic Compliance Matrix: (Units=1/GPa)
#
#
# Indices 1 2 3 4 5 6 
#
# 1 0.017193 -0.002416 -0.005643 0.000000 0.000000 0.000000
# 2 -0.002416 0.009161 -0.004814 0.000000 0.000000 0.000000
# 3 -0.005643 -0.004814 0.025026 0.000000 0.000000 0.000000
# 4 0.000000 0.000000 0.000000 0.063775 0.000000 0.000000
# 5 0.000000 0.000000 0.000000 0.000000 0.045235 0.000000
# 6 0.000000 0.000000 0.000000 0.000000 0.000000 0.030726
#
#
# Mechanical properties :
#
#
# Convention : Reuss Voigt Hill
#
# Bulk Modulus (GPa) = 39.01094 46.73069 42.87081
# Shear Modulus (GPa) = 22.18223 25.47202 23.82712
#
# Velocity S-wave (km/s) = 3.36701 3.60806 3.48962
# Velocity P-wave (km/s) = 5.92058 6.42187 6.17631
#
# Compressibility (1/GPa) = 0.02563384
#
# Stress axis : x y z
#
# Youngs Moduli (GPa) = 58.16374 109.15769 39.95908
#
# Poissons Ratio (x) = 0.26369 0.22549
# Poissons Ratio (y) = 0.14051 0.19237
# Poissons Ratio (z) = 0.32821 0.52551
#
# Static dielectric constant tensor:
#      x y z
#    x 1.752160 0.000000 0.000000 
#    y 0.000000 1.688570 0.000000 
#    z 0.000000 0.000000 1.681780 
# 
# From -- ./inp_files/49659.got.cif
#   From: 2010.05.17/outbox.cif.g08.bks.cpg/sg68_25_cif.got.tgz:49659.got - 2010.06.03 18:57:09.
