data_PCOD9508181
_publ_section_title
;
Structure prediction by ZEFSAII (Michael W. Deem and Ramdas Pophale) SiO2 
 PCOD9508181
Probable space group: C C C A
;
_chemical_formula_sum "Si O2"
_cell_formula_units_Z 104
_cell_length_a 29.498536
_cell_length_b 19.201844
_cell_length_c 8.976278
_cell_angle_alpha 90.000000
_cell_angle_beta 90.000000
_cell_angle_gamma 90.000000
_cell_volume 5084.399814
_symmetry_space_group_name_H-M "C C C A"
_symmetry_group_IT_number 68
_space_group.IT_coordinate_system_code '2'
_symmetry_cell_setting 'orthorhombic'
loop_
_space_group_symop_operation_xyz
x,y,z
-x,1/2-y,z
x,1/2-y,1/2-z
-x,y,1/2-z
-x,-y,-z
x,1/2+y,-z
-x,1/2+y,1/2+z
x,-y,1/2+z
1/2+x,1/2+y,z
1/2-x,-y,z
1/2+x,-y,1/2-z
1/2-x,1/2+y,1/2-z
1/2-x,1/2-y,-z
1/2+x,y,-z
1/2-x,y,1/2+z
1/2+x,1/2-y,1/2+z
loop_
_atom_site_type_symbol
_atom_site_label
_atom_site_fract_x
_atom_site_fract_y
_atom_site_fract_z
Si Si1 0.550980 0.006595 0.060329
Si Si2 0.389815 0.560619 0.288146
Si Si3 0.363008 0.304499 0.367341
Si Si4 0.187769 0.550978 0.329504
Si Si5 0.451385 0.344156 0.185992
Si Si6 0.095534 0.288857 0.393642
Si Si7 0.250000 0.000000 0.908224
O O1 0.550995 0.072637 0.170067
O O2 0.575908 0.944133 0.147307
O O3 0.582600 0.027783 0.924720
O O4 0.500000 0.000000 0.000000
O O5 0.346615 0.509954 0.274251
O O6 0.380833 0.640248 0.334599
O O7 0.341787 0.250000 0.250000
O O8 0.337076 0.376899 0.361567
O O9 0.412586 0.321383 0.299597
O O10 0.370636 0.264313 0.522067
O O11 0.211857 0.528648 0.481557
O O12 0.226114 0.555231 0.201688
O O13 0.500000 0.325538 0.250000
O O14 0.439601 0.313003 0.022764
O O15 0.075358 0.250000 0.250000
#
# Coordination Sequence:
#
# PCOD9508181 Si02
#       7
#    16  16  16  16  16  16   8
#     4  11  22  36  60 102 131 169 231 278 320 375
#     4  11  23  40  69  91 132 179 217 276 325 395
#     4  10  23  43  68  95 134 183 221 264 332 411
#     4  11  23  46  73  98 134 166 223 274 345 415
#     4  10  21  42  63  90 132 183 230 268 321 380
#     4  10  25  40  61 101 129 178 227 273 327 387
#     4  10  26  42  74 108 124 162 220 286 348 410
#
# _framework density 20.454725
#
# number of rings (size 3 to 8) (size 9 to 14) (size 15 to 20)
#    0.000    1.538    1.538    2.308    8.615    2.769 
#    0.000    8.462    0.000    0.000    0.000    0.000 
#    0.000    0.000    0.000    0.000    0.000    0.000 
#
# Total GULP energy -290395.314706 kJ/mol
# GULP energy per Si atom -5584.525283 kJ/mol
# Density = 2.040817 g / cm^3
# Si number density = 20.454725 Si / 1000 Ang^3
#
#
#
# Elastic Constant Matrix: (Units=GPa)
#
#
# Indices 1 2 3 4 5 6 
#
# 1 82.7414 46.5928 33.1071 0.0000 0.0000 0.0000
# 2 46.5928 131.6169 50.0473 0.0000 0.0000 0.0000
# 3 33.1071 50.0473 106.3872 0.0000 0.0000 0.0000
# 4 0.0000 0.0000 0.0000 34.1404 0.0000 0.0000
# 5 0.0000 0.0000 0.0000 0.0000 27.6699 0.0000
# 6 0.0000 0.0000 0.0000 0.0000 0.0000 11.7508
#
#
#
# Elastic Compliance Matrix: (Units=1/GPa)
#
#
# Indices 1 2 3 4 5 6 
#
# 1 0.015739 -0.004517 -0.002773 0.000000 0.000000 0.000000
# 2 -0.004517 0.010549 -0.003557 0.000000 0.000000 0.000000
# 3 -0.002773 -0.003557 0.011936 0.000000 0.000000 0.000000
# 4 0.000000 0.000000 0.000000 0.029291 0.000000 0.000000
# 5 0.000000 0.000000 0.000000 0.000000 0.036140 0.000000
# 6 0.000000 0.000000 0.000000 0.000000 0.000000 0.085100
#
#
# Mechanical properties :
#
#
# Convention : Reuss Voigt Hill
#
# Bulk Modulus (GPa) = 60.49574 64.47111 62.48343
# Shear Modulus (GPa) = 23.15242 27.44546 25.29894
#
# Velocity S-wave (km/s) = 3.36800 3.66699 3.52067
# Velocity P-wave (km/s) = 6.69061 7.03679 6.86588
#
# Compressibility (1/GPa) = 0.01653009
#
# Stress axis : x y z
#
# Youngs Moduli (GPa) = 63.53599 94.79128 83.78139
#
# Poissons Ratio (x) = 0.42820 0.23231
# Poissons Ratio (y) = 0.28701 0.29801
# Poissons Ratio (z) = 0.17618 0.33717
#
# Static dielectric constant tensor:
#      x y z
#    x 1.738220 0.000000 0.000000 
#    y 0.000000 1.811990 0.000000 
#    z 0.000000 0.000000 1.764320 
# 
# From -- ./inp_files/9600.got.cif
#   From: 2010.05.17/outbox.cif.g08.bks.cpg/sg68_5_cif.got.tgz:9600.got - 2010.06.03 18:57:09.
