data_PCOD9508666
_publ_section_title
;
Structure prediction by ZEFSAII (Michael W. Deem and Ramdas Pophale) SiO2 
 PCOD9508666
Probable space group: C C C A
;
_chemical_formula_sum "Si O2"
_cell_formula_units_Z 88
_cell_length_a 17.677746
_cell_length_b 28.663744
_cell_length_c 9.194872
_cell_angle_alpha 90.000000
_cell_angle_beta 90.000000
_cell_angle_gamma 90.000000
_cell_volume 4659.137139
_symmetry_space_group_name_H-M "C C C A"
_symmetry_group_IT_number 68
_space_group.IT_coordinate_system_code '2'
_symmetry_cell_setting 'orthorhombic'
loop_
_space_group_symop_operation_xyz
x,y,z
-x,1/2-y,z
x,1/2-y,1/2-z
-x,y,1/2-z
-x,-y,-z
x,1/2+y,-z
-x,1/2+y,1/2+z
x,-y,1/2+z
1/2+x,1/2+y,z
1/2-x,-y,z
1/2+x,-y,1/2-z
1/2-x,1/2+y,1/2-z
1/2-x,1/2-y,-z
1/2+x,y,-z
1/2-x,y,1/2+z
1/2+x,1/2-y,1/2+z
loop_
_atom_site_type_symbol
_atom_site_label
_atom_site_fract_x
_atom_site_fract_y
_atom_site_fract_z
Si Si1 0.777930 0.896156 0.614908
Si Si2 0.691570 0.457738 0.160859
Si Si3 0.581503 0.877210 0.327519
Si Si4 0.316142 0.188812 0.512482
Si Si5 0.727494 0.250000 0.250000
Si Si6 0.053387 0.477495 0.381700
O O1 0.715914 0.919509 0.721167
O O2 0.802033 0.934354 0.496653
O O3 0.851693 0.882032 0.707648
O O4 0.741520 0.852549 0.532057
O O5 0.750000 0.500000 0.173810
O O6 0.612107 0.483777 0.171577
O O7 0.500000 0.869555 0.250000
O O8 0.607071 0.835319 0.432539
O O9 0.586868 0.926454 0.417033
O O10 0.320305 0.220521 0.367835
O O11 0.279758 0.217420 0.646983
O O12 0.000000 0.465020 0.250000
O O13 0.000000 0.500000 0.500000
#
# Coordination Sequence:
#
# PCOD9508666 Si02
#       6
#    16  16  16  16   8  16
#     4  12  22  39  63  95 124 169 223 269 322 387
#     4  12  23  35  61  87 127 170 224 266 301 373
#     4  11  23  41  64  94 134 172 221 268 332 391
#     4  11  21  42  69 101 126 167 210 279 337 404
#     4  10  22  40  75 101 126 154 222 272 344 410
#     4  11  25  41  57  88 133 180 218 261 318 369
#
# _framework density 18.887618
#
# number of rings (size 3 to 8) (size 9 to 14) (size 15 to 20)
#    0.000    0.727    5.455    2.727    5.091    0.000 
#    0.000    0.455    0.000    1.091    0.000    0.000 
#    0.000    0.000    0.000    0.000    0.000    0.000 
#
# Total GULP energy -245627.273710 kJ/mol
# GULP energy per Si atom -5582.438039 kJ/mol
# Density = 1.884463 g / cm^3
# Si number density = 18.887618 Si / 1000 Ang^3
#
#
#
# Elastic Constant Matrix: (Units=GPa)
#
#
# Indices 1 2 3 4 5 6 
#
# 1 105.2964 49.1378 33.2970 0.0000 0.0000 0.0000
# 2 49.1378 108.5207 59.3863 0.0000 0.0000 0.0000
# 3 33.2970 59.3863 104.0413 0.0000 0.0000 0.0000
# 4 0.0000 0.0000 0.0000 55.7223 0.0000 0.0000
# 5 0.0000 0.0000 0.0000 0.0000 21.5054 0.0000
# 6 0.0000 0.0000 0.0000 0.0000 0.0000 27.3527
#
#
#
# Elastic Compliance Matrix: (Units=1/GPa)
#
#
# Indices 1 2 3 4 5 6 
#
# 1 0.012125 -0.004896 -0.001086 0.000000 0.000000 0.000000
# 2 -0.004896 0.015378 -0.007211 0.000000 0.000000 0.000000
# 3 -0.001086 -0.007211 0.014075 0.000000 0.000000 0.000000
# 4 0.000000 0.000000 0.000000 0.017946 0.000000 0.000000
# 5 0.000000 0.000000 0.000000 0.000000 0.046500 0.000000
# 6 0.000000 0.000000 0.000000 0.000000 0.000000 0.036559
#
#
# Mechanical properties :
#
#
# Convention : Reuss Voigt Hill
#
# Bulk Modulus (GPa) = 65.82102 66.83341 66.32722
# Shear Modulus (GPa) = 28.73031 32.65191 30.69111
#
# Velocity S-wave (km/s) = 3.90438 4.16233 4.03542
# Velocity P-wave (km/s) = 7.43304 7.65255 7.54359
#
# Compressibility (1/GPa) = 0.01519271
#
# Stress axis : x y z
#
# Youngs Moduli (GPa) = 82.47311 65.02961 71.04867
#
# Poissons Ratio (x) = 0.31839 0.07715
# Poissons Ratio (y) = 0.40379 0.51230
# Poissons Ratio (z) = 0.08956 0.46890
#
# Static dielectric constant tensor:
#      x y z
#    x 1.692390 0.000000 0.000000 
#    y 0.000000 1.733390 0.000000 
#    z 0.000000 0.000000 1.659100 
# 
# From -- ./inp_files/6395.got.cif
#   From: 2010.05.17/outbox.cif.g08.bks.cpg/sg68_4_cif.got.tgz:6395.got - 2010.06.03 18:57:09.
