data_PCOD9508849
_publ_section_title
;
Structure prediction by ZEFSAII (Michael W. Deem and Ramdas Pophale) SiO2 
 PCOD9508849
Probable space group: C C C A
;
_chemical_formula_sum "Si O2"
_cell_formula_units_Z 36
_cell_length_a 29.062533
_cell_length_b 4.502163
_cell_length_c 10.918639
_cell_angle_alpha 90.000000
_cell_angle_beta 90.000000
_cell_angle_gamma 90.000000
_cell_volume 1428.641248
_symmetry_space_group_name_H-M "C C C A"
_symmetry_group_IT_number 68
_space_group.IT_coordinate_system_code '2'
_symmetry_cell_setting 'orthorhombic'
loop_
_space_group_symop_operation_xyz
x,y,z
-x,1/2-y,z
x,1/2-y,1/2-z
-x,y,1/2-z
-x,-y,-z
x,1/2+y,-z
-x,1/2+y,1/2+z
x,-y,1/2+z
1/2+x,1/2+y,z
1/2-x,-y,z
1/2+x,-y,1/2-z
1/2-x,1/2+y,1/2-z
1/2-x,1/2-y,-z
1/2+x,y,-z
1/2-x,y,1/2+z
1/2+x,1/2-y,1/2+z
loop_
_atom_site_type_symbol
_atom_site_label
_atom_site_fract_x
_atom_site_fract_y
_atom_site_fract_z
Si Si1 0.217879 0.750000 0.250000
Si Si2 0.500000 0.750000 0.750000
Si Si3 0.636942 0.588042 0.915874
Si Si4 0.564528 0.750000 0.250000
O O1 0.250000 0.500000 0.310742
O O2 0.184537 0.573320 0.157443
O O3 0.467172 0.504863 0.815547
O O4 0.596135 0.450160 0.837204
O O5 0.634955 0.431829 0.047806
#
# Coordination Sequence:
#
# PCOD9508849 Si02
#       4
#     8   4  16   8
#     4  12  26  44  67 101 140 177 229 284 328 394
#     4  10  22  42  72  96 136 178 216 286 338 386
#     4  12  25  44  71  98 135 183 224 273 341 403
#     4  11  23  46  67  99 138 175 225 280 335 401
#
# _framework density 25.19877
#
# number of rings (size 3 to 8) (size 9 to 14) (size 15 to 20)
#    0.000    0.444    0.000   10.667    0.000    5.333 
#    0.000   22.222    0.000    0.000    0.000    0.000 
#    0.000    0.000    0.000    0.000    0.000    0.000 
#
# Total GULP energy -100419.707070 kJ/mol
# GULP energy per Si atom -5578.872615 kJ/mol
# Density = 2.514142 g / cm^3
# Si number density = 25.198770 Si / 1000 Ang^3
#
#
#
# Elastic Constant Matrix: (Units=GPa)
#
#
# Indices 1 2 3 4 5 6 
#
# 1 148.3440 81.8815 35.5922 0.0000 0.0000 0.0000
# 2 81.8815 158.5383 19.8701 0.0000 0.0000 0.0000
# 3 35.5922 19.8701 55.2206 0.0000 0.0000 0.0000
# 4 0.0000 0.0000 0.0000 50.7516 0.0000 0.0000
# 5 0.0000 0.0000 0.0000 0.0000 -6.2514 0.0000
# 6 0.0000 0.0000 0.0000 0.0000 0.0000 85.2928
#
#
#
# Elastic Compliance Matrix: (Units=1/GPa)
#
#
# Indices 1 2 3 4 5 6 
#
# 1 0.010651 -0.004860 -0.005116 0.000000 0.000000 0.000000
# 2 -0.004860 0.008823 -0.000042 0.000000 0.000000 0.000000
# 3 -0.005116 -0.000042 0.021422 0.000000 0.000000 0.000000
# 4 0.000000 0.000000 0.000000 0.019704 0.000000 0.000000
# 5 0.000000 0.000000 0.000000 0.000000 -0.159965 0.000000
# 6 0.000000 0.000000 0.000000 0.000000 0.000000 0.011724
#
#
# Mechanical properties :
#
#
# Convention : Reuss Voigt Hill
#
# Bulk Modulus (GPa) = 47.94093 70.75451 59.34772
# Shear Modulus (GPa) = -82.44060 40.94255 -20.74903
#
# Velocity S-wave (km/s) = -5.72601 4.03523 -2.87263
# Velocity P-wave (km/s) = 4.96485 7.06048 3.54969
#
# Compressibility (1/GPa) = 0.02085900
#
# Stress axis : x y z
#
# Youngs Moduli (GPa) = 93.88646 113.34109 46.68045
#
# Poissons Ratio (x) = 0.55082 0.23884
# Poissons Ratio (y) = 0.45627 0.00198
# Poissons Ratio (z) = 0.48037 0.00480
#
# Static dielectric constant tensor:
#      x y z
#    x 2.076080 0.000000 0.000000 
#    y 0.000000 1.958340 0.000000 
#    z 0.000000 0.000000 1.928170 
# 
# From -- ./inp_files/15950.got.cif
#   From: 2010.05.17/outbox.cif.g08.bks.cpg/sg68_8_cif.got.tgz:15950.got - 2010.06.03 18:57:09.
