data_PCOD9508067
_publ_section_title
;
Structure prediction by ZEFSAII (Michael W. Deem and Ramdas Pophale) SiO2 
 PCOD9508067
Probable space group: C C C A
;
_chemical_formula_sum "Si O2"
_cell_formula_units_Z 120
_cell_length_a 24.165186
_cell_length_b 20.608481
_cell_length_c 11.827967
_cell_angle_alpha 90.000000
_cell_angle_beta 90.000000
_cell_angle_gamma 90.000000
_cell_volume 5890.419547
_symmetry_space_group_name_H-M "C C C A"
_symmetry_group_IT_number 68
_space_group.IT_coordinate_system_code '2'
_symmetry_cell_setting 'orthorhombic'
loop_
_space_group_symop_operation_xyz
x,y,z
-x,1/2-y,z
x,1/2-y,1/2-z
-x,y,1/2-z
-x,-y,-z
x,1/2+y,-z
-x,1/2+y,1/2+z
x,-y,1/2+z
1/2+x,1/2+y,z
1/2-x,-y,z
1/2+x,-y,1/2-z
1/2-x,1/2+y,1/2-z
1/2-x,1/2-y,-z
1/2+x,y,-z
1/2-x,y,1/2+z
1/2+x,1/2-y,1/2+z
loop_
_atom_site_type_symbol
_atom_site_label
_atom_site_fract_x
_atom_site_fract_y
_atom_site_fract_z
Si Si1 0.373681 0.067898 0.720563
Si Si2 0.910359 0.220216 0.510780
Si Si3 0.193322 0.364007 0.471332
Si Si4 0.595364 0.367204 0.938921
Si Si5 0.311764 0.637948 0.883877
Si Si6 0.480557 0.116167 0.626238
Si Si7 0.623406 0.250000 0.250000
Si Si8 0.696212 0.457518 0.316596
O O1 0.328631 0.090431 0.630006
O O2 0.378894 0.123884 0.815073
O O3 0.432798 0.064453 0.657219
O O4 0.354728 0.004981 0.789104
O O5 0.848480 0.196209 0.479943
O O6 0.918746 0.292590 0.465529
O O7 0.951212 0.170451 0.449785
O O8 0.912635 0.220828 0.647237
O O9 0.256447 0.343419 0.451237
O O10 0.186971 0.406528 0.584019
O O11 0.537137 0.405384 0.934325
O O12 0.640678 0.386826 0.031189
O O13 0.338406 0.696161 0.810883
O O14 0.294635 0.582047 0.797873
O O15 0.500000 0.141979 0.750000
O O16 0.750000 0.500000 0.345001
#
# Coordination Sequence:
#
# PCOD9508067 Si02
#       8
#    16  16  16  16  16  16   8  16
#     4  10  23  38  65  95 127 165 226 276 320 393
#     4  10  21  40  67  96 132 173 215 278 332 410
#     4  11  24  40  64  96 125 173 224 270 338 404
#     4  10  22  39  66  96 128 169 211 272 338 390
#     4  11  24  40  63  92 132 176 218 277 333 412
#     4   9  20  41  66  97 126 166 225 273 325 397
#     4  10  22  42  59  94 138 168 215 274 350 404
#     4  12  24  41  64  89 128 176 223 268 326 404
#
# _framework density 20.372064000000002
#
# number of rings (size 3 to 8) (size 9 to 14) (size 15 to 20)
#    0.000    1.600    2.667    1.200    3.733    9.600 
#    0.000    6.000    8.800    0.000    0.000    0.000 
#    0.000    0.000    0.000    0.000    0.000    0.000 
#
# Total GULP energy -334943.596190 kJ/mol
# GULP energy per Si atom -5582.393270 kJ/mol
# Density = 2.032570 g / cm^3
# Si number density = 20.372064 Si / 1000 Ang^3
#
#
#
# Elastic Constant Matrix: (Units=GPa)
#
#
# Indices 1 2 3 4 5 6 
#
# 1 127.8813 15.8821 50.8120 0.0000 0.0000 0.0000
# 2 15.8821 21.7013 3.9848 0.0000 0.0000 0.0000
# 3 50.8120 3.9848 87.6331 0.0000 0.0000 0.0000
# 4 0.0000 0.0000 0.0000 22.8823 0.0000 0.0000
# 5 0.0000 0.0000 0.0000 0.0000 27.2102 0.0000
# 6 0.0000 0.0000 0.0000 0.0000 0.0000 18.7667
#
#
#
# Elastic Compliance Matrix: (Units=1/GPa)
#
#
# Indices 1 2 3 4 5 6 
#
# 1 0.011128 -0.007018 -0.006133 0.000000 0.000000 0.000000
# 2 -0.007018 0.050894 0.001755 0.000000 0.000000 0.000000
# 3 -0.006133 0.001755 0.014888 0.000000 0.000000 0.000000
# 4 0.000000 0.000000 0.000000 0.043702 0.000000 0.000000
# 5 0.000000 0.000000 0.000000 0.000000 0.036751 0.000000
# 6 0.000000 0.000000 0.000000 0.000000 0.000000 0.053286
#
#
# Mechanical properties :
#
#
# Convention : Reuss Voigt Hill
#
# Bulk Modulus (GPa) = 18.47835 42.06373 30.27104
# Shear Modulus (GPa) = 19.88220 24.87428 22.37824
#
# Velocity S-wave (km/s) = 3.12742 3.49807 3.31792
# Velocity P-wave (km/s) = 4.70437 6.08341 5.43778
#
# Compressibility (1/GPa) = 0.05411739
#
# Stress axis : x y z
#
# Youngs Moduli (GPa) = 89.86022 19.64859 67.16941
#
# Poissons Ratio (x) = 0.13790 0.41198
# Poissons Ratio (y) = 0.63065 -0.11789
# Poissons Ratio (z) = 0.55115 -0.03448
#
# Static dielectric constant tensor:
#      x y z
#    x 1.765480 0.000000 0.000000 
#    y 0.000000 1.717850 0.000000 
#    z 0.000000 0.000000 1.726310 
# 
# From -- ./inp_files/15802.got.cif
#   From: 2010.05.17/outbox.cif.g08.bks.cpg/sg68_8_cif.got.tgz:15802.got - 2010.06.03 18:57:09.
