data_PCOD9508601
_publ_section_title
;
Structure prediction by ZEFSAII (Michael W. Deem and Ramdas Pophale) SiO2 
 PCOD9508601
Probable space group: C C C A
;
_chemical_formula_sum "Si O2"
_cell_formula_units_Z 72
_cell_length_a 8.264374
_cell_length_b 25.127943
_cell_length_c 15.340918
_cell_angle_alpha 90.000000
_cell_angle_beta 90.000000
_cell_angle_gamma 90.000000
_cell_volume 3185.798104
_symmetry_space_group_name_H-M "C C C A"
_symmetry_group_IT_number 68
_space_group.IT_coordinate_system_code '2'
_symmetry_cell_setting 'orthorhombic'
loop_
_space_group_symop_operation_xyz
x,y,z
-x,1/2-y,z
x,1/2-y,1/2-z
-x,y,1/2-z
-x,-y,-z
x,1/2+y,-z
-x,1/2+y,1/2+z
x,-y,1/2+z
1/2+x,1/2+y,z
1/2-x,-y,z
1/2+x,-y,1/2-z
1/2-x,1/2+y,1/2-z
1/2-x,1/2-y,-z
1/2+x,y,-z
1/2-x,y,1/2+z
1/2+x,1/2-y,1/2+z
loop_
_atom_site_type_symbol
_atom_site_label
_atom_site_fract_x
_atom_site_fract_y
_atom_site_fract_z
Si Si1 0.323731 0.558226 0.562614
Si Si2 0.663471 0.219441 0.422768
Si Si3 0.317615 0.372635 0.717867
Si Si4 0.336801 0.400516 0.399748
Si Si5 0.796245 0.250000 0.250000
O O1 0.250000 0.500000 0.570422
O O2 0.230468 0.596758 0.630201
O O3 0.510742 0.561361 0.588459
O O4 0.302604 0.578329 0.463335
O O5 0.500000 0.250000 0.393776
O O6 0.750000 0.250000 0.500000
O O7 0.618399 0.158222 0.436903
O O8 0.787986 0.220310 0.343157
O O9 0.500000 0.382107 0.750000
O O10 0.207096 0.392785 0.798624
O O11 0.297414 0.309315 0.702636
#
# Coordination Sequence:
#
# PCOD9508601 Si02
#       5
#    16  16  16  16   8
#     4  12  26  45  67  92 127 174 226 281 333 393
#     4  11  22  37  63  94 129 168 210 264 330 404
#     4  11  24  42  67  99 133 172 217 271 334 403
#     4  11  24  43  66  95 130 171 221 275 334 397
#     4  10  22  40  64  94 134 172 210 260 330 406
#
# _framework density 22.600301999999999
#
# number of rings (size 3 to 8) (size 9 to 14) (size 15 to 20)
#    0.000    0.889    0.000    7.333    0.000   11.556 
#    0.000    0.000    0.000    0.000    0.000    0.000 
#    0.000    0.000    0.000    0.000    0.000    0.000 
#
# Total GULP energy -200406.120035 kJ/mol
# GULP energy per Si atom -5566.836668 kJ/mol
# Density = 2.254886 g / cm^3
# Si number density = 22.600302 Si / 1000 Ang^3
#
#
#
# Elastic Constant Matrix: (Units=GPa)
#
#
# Indices 1 2 3 4 5 6 
#
# 1 84.9107 -29.3525 -24.3015 0.0000 0.0000 0.0000
# 2 -29.3525 133.9918 28.0573 0.0000 0.0000 0.0000
# 3 -24.3015 28.0573 81.5253 0.0000 0.0000 0.0000
# 4 0.0000 0.0000 0.0000 22.1460 0.0000 0.0000
# 5 0.0000 0.0000 0.0000 0.0000 21.3757 0.0000
# 6 0.0000 0.0000 0.0000 0.0000 0.0000 11.7447
#
#
#
# Elastic Compliance Matrix: (Units=1/GPa)
#
#
# Indices 1 2 3 4 5 6 
#
# 1 0.013491 0.002277 0.003238 0.000000 0.000000 0.000000
# 2 0.002277 0.008427 -0.002221 0.000000 0.000000 0.000000
# 3 0.003238 -0.002221 0.013996 0.000000 0.000000 0.000000
# 4 0.000000 0.000000 0.000000 0.045155 0.000000 0.000000
# 5 0.000000 0.000000 0.000000 0.000000 0.046782 0.000000
# 6 0.000000 0.000000 0.000000 0.000000 0.000000 0.085145
#
#
# Mechanical properties :
#
#
# Convention : Reuss Voigt Hill
#
# Bulk Modulus (GPa) = 23.52868 27.69271 25.61070
# Shear Modulus (GPa) = 22.66794 32.78822 27.72808
#
# Velocity S-wave (km/s) = 3.17044 3.81305 3.50650
# Velocity P-wave (km/s) = 4.88218 5.62723 5.26789
#
# Compressibility (1/GPa) = 0.04250131
#
# Stress axis : x y z
#
# Youngs Moduli (GPa) = 74.12358 118.66358 71.45024
#
# Poissons Ratio (x) = -0.27024 -0.23133
# Poissons Ratio (y) = -0.16881 0.15872
# Poissons Ratio (z) = -0.23999 0.26360
#
# Static dielectric constant tensor:
#      x y z
#    x 1.925450 0.000000 0.000000 
#    y 0.000000 2.267910 0.000000 
#    z 0.000000 0.000000 1.763590 
# 
# From -- ./inp_files/19443.got.cif
#   From: 2010.05.17/outbox.cif.g08.bks.cpg/sg68_10_cif.got.tgz:19443.got - 2010.06.03 18:57:09.
