data_PCOD9508546
_publ_section_title
;
Structure prediction by ZEFSAII (Michael W. Deem and Ramdas Pophale) SiO2 
 PCOD9508546
Probable space group: C C C A
;
_chemical_formula_sum "Si O2"
_cell_formula_units_Z 80
_cell_length_a 24.013385
_cell_length_b 11.108184
_cell_length_c 13.251326
_cell_angle_alpha 90.000000
_cell_angle_beta 90.000000
_cell_angle_gamma 90.000000
_cell_volume 3534.726266
_symmetry_space_group_name_H-M "C C C A"
_symmetry_group_IT_number 68
_space_group.IT_coordinate_system_code '2'
_symmetry_cell_setting 'orthorhombic'
loop_
_space_group_symop_operation_xyz
x,y,z
-x,1/2-y,z
x,1/2-y,1/2-z
-x,y,1/2-z
-x,-y,-z
x,1/2+y,-z
-x,1/2+y,1/2+z
x,-y,1/2+z
1/2+x,1/2+y,z
1/2-x,-y,z
1/2+x,-y,1/2-z
1/2-x,1/2+y,1/2-z
1/2-x,1/2-y,-z
1/2+x,y,-z
1/2-x,y,1/2+z
1/2+x,1/2-y,1/2+z
loop_
_atom_site_type_symbol
_atom_site_label
_atom_site_fract_x
_atom_site_fract_y
_atom_site_fract_z
Si Si1 0.933762 0.230078 0.417931
Si Si2 0.066232 0.945494 0.760280
Si Si3 0.241260 0.243273 0.639825
Si Si4 0.128453 0.116735 0.900536
Si Si5 0.800371 0.420140 0.490183
O O1 0.919541 0.114216 0.347474
O O2 0.921081 0.342907 0.344687
O O3 0.904400 0.207623 0.525340
O O4 0.000000 0.250000 0.435630
O O5 0.000000 0.964532 0.750000
O O6 0.095250 0.064055 0.804704
O O7 0.265372 0.250000 0.750000
O O8 0.184881 0.321446 0.637115
O O9 0.218079 0.115388 0.602336
O O10 0.290554 0.293633 0.567754
O O11 0.146731 0.000596 0.968467
O O12 0.750000 0.500000 0.448053
#
# Coordination Sequence:
#
# PCOD9508546 Si02
#       5
#    16  16  16  16  16
#     4   9  20  39  59  84 124 159 201 255 297 359
#     4   9  20  39  59  87 119 163 208 243 305 365
#     4  10  22  40  57  90 126 150 197 261 301 357
#     4  11  21  37  63  91 115 162 208 244 306 366
#     4   9  21  40  60  85 120 160 198 244 313 369
#
# _framework density 22.632587000000001
#
# number of rings (size 3 to 8) (size 9 to 14) (size 15 to 20)
#    0.000    2.400    0.000    2.400    2.800    5.600 
#   14.400    0.000    0.000    0.000    0.000    0.000 
#    0.000    0.000    0.000    0.000    0.000    0.000 
#
# Total GULP energy -222820.616368 kJ/mol
# GULP energy per Si atom -5570.515409 kJ/mol
# Density = 2.258107 g / cm^3
# Si number density = 22.632587 Si / 1000 Ang^3
#
#
#
# Elastic Constant Matrix: (Units=GPa)
#
#
# Indices 1 2 3 4 5 6 
#
# 1 57.3558 28.0530 21.9112 0.0000 0.0000 0.0000
# 2 28.0530 53.5233 9.4901 0.0000 0.0000 0.0000
# 3 21.9112 9.4901 62.4093 0.0000 0.0000 0.0000
# 4 0.0000 0.0000 0.0000 22.1390 0.0000 0.0000
# 5 0.0000 0.0000 0.0000 0.0000 30.4318 0.0000
# 6 0.0000 0.0000 0.0000 0.0000 0.0000 22.6044
#
#
#
# Elastic Compliance Matrix: (Units=1/GPa)
#
#
# Indices 1 2 3 4 5 6 
#
# 1 0.026365 -0.012515 -0.007354 0.000000 0.000000 0.000000
# 2 -0.012515 0.025142 0.000571 0.000000 0.000000 0.000000
# 3 -0.007354 0.000571 0.018518 0.000000 0.000000 0.000000
# 4 0.000000 0.000000 0.000000 0.045169 0.000000 0.000000
# 5 0.000000 0.000000 0.000000 0.000000 0.032860 0.000000
# 6 0.000000 0.000000 0.000000 0.000000 0.000000 0.044239
#
#
# Mechanical properties :
#
#
# Convention : Reuss Voigt Hill
#
# Bulk Modulus (GPa) = 31.81698 32.46636 32.14167
# Shear Modulus (GPa) = 20.71542 22.62397 21.66970
#
# Velocity S-wave (km/s) = 3.02866 3.16511 3.09763
# Velocity P-wave (km/s) = 5.13020 5.26624 5.19866
#
# Compressibility (1/GPa) = 0.03142976
#
# Stress axis : x y z
#
# Youngs Moduli (GPa) = 37.92854 39.77458 54.00097
#
# Poissons Ratio (x) = 0.49778 0.39710
# Poissons Ratio (y) = 0.47467 -0.03082
# Poissons Ratio (z) = 0.27891 -0.02270
#
# Static dielectric constant tensor:
#      x y z
#    x 1.831540 0.000000 0.000000 
#    y 0.000000 1.944520 0.000000 
#    z 0.000000 0.000000 1.860650 
# 
# From -- ./inp_files/25146.got.cif
#   From: 2010.05.17/outbox.cif.g08.bks.cpg/sg68_13_cif.got.tgz:25146.got - 2010.06.03 18:57:09.
