data_PCOD9508905
_publ_section_title
;
Structure prediction by ZEFSAII (Michael W. Deem and Ramdas Pophale) SiO2 
 PCOD9508905
Probable space group: C C C A
;
_chemical_formula_sum "Si O2"
_cell_formula_units_Z 64
_cell_length_a 8.603090
_cell_length_b 29.261617
_cell_length_c 10.746892
_cell_angle_alpha 90.000000
_cell_angle_beta 90.000000
_cell_angle_gamma 90.000000
_cell_volume 2705.426080
_symmetry_space_group_name_H-M "C C C A"
_symmetry_group_IT_number 68
_space_group.IT_coordinate_system_code '2'
_symmetry_cell_setting 'orthorhombic'
loop_
_space_group_symop_operation_xyz
x,y,z
-x,1/2-y,z
x,1/2-y,1/2-z
-x,y,1/2-z
-x,-y,-z
x,1/2+y,-z
-x,1/2+y,1/2+z
x,-y,1/2+z
1/2+x,1/2+y,z
1/2-x,-y,z
1/2+x,-y,1/2-z
1/2-x,1/2+y,1/2-z
1/2-x,1/2-y,-z
1/2+x,y,-z
1/2-x,y,1/2+z
1/2+x,1/2-y,1/2+z
loop_
_atom_site_type_symbol
_atom_site_label
_atom_site_fract_x
_atom_site_fract_y
_atom_site_fract_z
Si Si1 0.011514 0.963910 0.111618
Si Si2 0.000000 0.250000 0.941828
Si Si3 0.000000 0.129877 0.250000
Si Si4 0.770985 0.813186 0.599842
Si Si5 0.193710 0.095106 0.036497
O O1 0.000000 0.983608 0.250000
O O2 0.167625 0.934088 0.095337
O O3 0.867667 0.930086 0.086597
O O4 0.000000 0.000000 0.000000
O O5 0.117041 0.215883 0.870867
O O6 0.107268 0.280360 0.031895
O O7 0.855702 0.162254 0.214158
O O8 0.947911 0.099630 0.366453
O O9 0.735251 0.853834 0.503477
#
# Coordination Sequence:
#
# PCOD9508905 Si02
#       5
#    16   8   8  16  16
#     4  12  29  48  79 114 153 196 255 315 384 463
#     4  10  22  43  69 104 150 188 261 311 384 444
#     4  12  24  43  82 104 150 210 252 310 394 457
#     4  11  22  44  71 105 150 199 251 318 378 464
#     4  12  25  49  76 108 152 200 255 310 387 460
#
# _framework density 23.656164
#
# number of rings (size 3 to 8) (size 9 to 14) (size 15 to 20)
#    0.000    0.500    5.000    2.250    1.750    2.500 
#    0.000    1.250    0.000    0.000    0.000    0.000 
#    0.000    0.000    0.000    0.000    0.000    0.000 
#
# Total GULP energy -179266.889863 kJ/mol
# GULP energy per Si atom -5602.090308 kJ/mol
# Density = 2.360232 g / cm^3
# Si number density = 23.656164 Si / 1000 Ang^3
#
#
#
# Elastic Constant Matrix: (Units=GPa)
#
#
# Indices 1 2 3 4 5 6 
#
# 1 114.5151 48.0181 34.5538 0.0000 0.0000 0.0000
# 2 48.0181 129.7495 48.9169 0.0000 0.0000 0.0000
# 3 34.5538 48.9169 138.7470 0.0000 0.0000 0.0000
# 4 0.0000 0.0000 0.0000 25.6260 0.0000 0.0000
# 5 0.0000 0.0000 0.0000 0.0000 41.7193 0.0000
# 6 0.0000 0.0000 0.0000 0.0000 0.0000 19.5250
#
#
#
# Elastic Compliance Matrix: (Units=1/GPa)
#
#
# Indices 1 2 3 4 5 6 
#
# 1 0.010583 -0.003371 -0.001447 0.000000 0.000000 0.000000
# 2 -0.003371 0.009962 -0.002673 0.000000 0.000000 0.000000
# 3 -0.001447 -0.002673 0.008510 0.000000 0.000000 0.000000
# 4 0.000000 0.000000 0.000000 0.039023 0.000000 0.000000
# 5 0.000000 0.000000 0.000000 0.000000 0.023970 0.000000
# 6 0.000000 0.000000 0.000000 0.000000 0.000000 0.051217
#
#
# Mechanical properties :
#
#
# Convention : Reuss Voigt Hill
#
# Bulk Modulus (GPa) = 71.05587 71.77657 71.41622
# Shear Modulus (GPa) = 30.68674 34.14224 32.41449
#
# Velocity S-wave (km/s) = 3.60557 3.80316 3.70568
# Velocity P-wave (km/s) = 6.88736 7.04932 6.96881
#
# Compressibility (1/GPa) = 0.01407343
#
# Stress axis : x y z
#
# Youngs Moduli (GPa) = 94.49496 100.37781 117.50766
#
# Poissons Ratio (x) = 0.33836 0.17004
# Poissons Ratio (y) = 0.31853 0.31408
# Poissons Ratio (z) = 0.13674 0.26830
#
# Static dielectric constant tensor:
#      x y z
#    x 1.934540 0.000000 0.000000 
#    y 0.000000 1.931970 0.000000 
#    z 0.000000 0.000000 1.897830 
# 
# From -- ./inp_files/10789.got.cif
#   From: 2010.05.17/outbox.cif.g08.bks.cpg/sg68_6_cif.got.tgz:10789.got - 2010.06.03 18:57:09.
