data_PCOD9508753
_publ_section_title
;
Structure prediction by ZEFSAII (Michael W. Deem and Ramdas Pophale) SiO2 
 PCOD9508753
Probable space group: C C C A
;
_chemical_formula_sum "Si O2"
_cell_formula_units_Z 108
_cell_length_a 16.002150
_cell_length_b 14.050348
_cell_length_c 21.052210
_cell_angle_alpha 90.000000
_cell_angle_beta 90.000000
_cell_angle_gamma 90.000000
_cell_volume 4733.289977
_symmetry_space_group_name_H-M "C C C A"
_symmetry_group_IT_number 68
_space_group.IT_coordinate_system_code '2'
_symmetry_cell_setting 'orthorhombic'
loop_
_space_group_symop_operation_xyz
x,y,z
-x,1/2-y,z
x,1/2-y,1/2-z
-x,y,1/2-z
-x,-y,-z
x,1/2+y,-z
-x,1/2+y,1/2+z
x,-y,1/2+z
1/2+x,1/2+y,z
1/2-x,-y,z
1/2+x,-y,1/2-z
1/2-x,1/2+y,1/2-z
1/2-x,1/2-y,-z
1/2+x,y,-z
1/2-x,y,1/2+z
1/2+x,1/2-y,1/2+z
loop_
_atom_site_type_symbol
_atom_site_label
_atom_site_fract_x
_atom_site_fract_y
_atom_site_fract_z
Si Si1 0.579108 0.952583 0.702917
Si Si2 0.239054 0.750000 0.250000
Si Si3 0.279662 0.156099 0.962976
Si Si4 0.000000 0.750000 0.750000
Si Si5 0.367467 0.854402 0.335516
Si Si6 0.902159 0.348074 0.919216
Si Si7 0.582505 0.878613 0.942634
Si Si8 0.820694 0.926083 0.323005
O O1 0.500000 0.954870 0.750000
O O2 0.583043 0.862924 0.656476
O O3 0.650838 0.962706 0.754878
O O4 0.600028 0.038889 0.655937
O O5 0.292479 0.828873 0.287767
O O6 0.198713 0.684578 0.305521
O O7 0.336344 0.184165 0.902576
O O8 0.190542 0.115022 0.938249
O O9 0.250000 0.250000 0.000000
O O10 0.343627 0.097334 0.007545
O O11 0.943545 0.808852 0.702345
O O12 0.907717 0.235786 0.934143
O O13 0.983568 0.394219 0.953957
O O14 0.607677 0.926369 0.876030
O O15 0.750000 0.000000 0.345401
#
# Coordination Sequence:
#
# PCOD9508753 Si02
#       8
#    16   8  16   4  16  16  16  16
#     4  12  23  42  65 102 139 179 226 293 361 422
#     4  11  22  39  63  95 128 176 230 285 346 411
#     4  10  22  43  69  98 134 189 239 286 349 432
#     4  10  24  40  68  98 132 192 236 312 360 414
#     4  11  23  42  67  96 135 182 238 284 356 428
#     4  10  22  41  70  97 141 176 232 291 351 427
#     4  10  22  43  65 103 134 181 235 282 355 420
#     4  12  23  40  65  97 138 174 230 290 346 419
#
# _framework density 22.81711
#
# number of rings (size 3 to 8) (size 9 to 14) (size 15 to 20)
#    0.000    1.185    3.704    3.556    0.000    2.370 
#    2.667    2.222    0.000    0.000    0.000    0.000 
#    0.000    0.000    0.000    0.000    0.000    0.000 
#
# Total GULP energy -300873.953412 kJ/mol
# GULP energy per Si atom -5571.739878 kJ/mol
# Density = 2.276518 g / cm^3
# Si number density = 22.817110 Si / 1000 Ang^3
#
#
#
# Elastic Constant Matrix: (Units=GPa)
#
#
# Indices 1 2 3 4 5 6 
#
# 1 111.6638 12.6778 59.9015 0.0000 0.0000 0.0000
# 2 12.6778 55.6584 8.6300 0.0000 0.0000 0.0000
# 3 59.9015 8.6300 107.3149 0.0000 0.0000 0.0000
# 4 0.0000 0.0000 0.0000 27.0287 0.0000 0.0000
# 5 0.0000 0.0000 0.0000 0.0000 44.2172 0.0000
# 6 0.0000 0.0000 0.0000 0.0000 0.0000 25.2130
#
#
#
# Elastic Compliance Matrix: (Units=1/GPa)
#
#
# Indices 1 2 3 4 5 6 
#
# 1 0.012970 -0.001855 -0.007090 0.000000 0.000000 0.000000
# 2 -0.001855 0.018459 -0.000449 0.000000 0.000000 0.000000
# 3 -0.007090 -0.000449 0.013312 0.000000 0.000000 0.000000
# 4 0.000000 0.000000 0.000000 0.036998 0.000000 0.000000
# 5 0.000000 0.000000 0.000000 0.000000 0.022616 0.000000
# 6 0.000000 0.000000 0.000000 0.000000 0.000000 0.039662
#
#
# Mechanical properties :
#
#
# Convention : Reuss Voigt Hill
#
# Bulk Modulus (GPa) = 38.53230 48.56175 43.54702
# Shear Modulus (GPa) = 29.16217 32.18698 30.67457
#
# Velocity S-wave (km/s) = 3.57891 3.75994 3.67054
# Velocity P-wave (km/s) = 5.83114 6.33867 6.09020
#
# Compressibility (1/GPa) = 0.02595226
#
# Stress axis : x y z
#
# Youngs Moduli (GPa) = 77.10357 54.17456 75.11933
#
# Poissons Ratio (x) = 0.10048 0.53261
# Poissons Ratio (y) = 0.14301 0.03373
# Poissons Ratio (z) = 0.54668 0.02433
#
# Static dielectric constant tensor:
#      x y z
#    x 1.878130 0.000000 0.000000 
#    y 0.000000 2.239940 0.000000 
#    z 0.000000 0.000000 1.883750 
# 
# From -- ./inp_files/45565.got.cif
#   From: 2010.05.17/outbox.cif.g08.bks.cpg/sg68_23_cif.got.tgz:45565.got - 2010.06.03 18:57:09.
