data_PCOD9508146
_publ_section_title
;
Structure prediction by ZEFSAII (Michael W. Deem and Ramdas Pophale) SiO2 
 PCOD9508146
Probable space group: C C C A
;
_chemical_formula_sum "Si O2"
_cell_formula_units_Z 80
_cell_length_a 25.486841
_cell_length_b 16.794265
_cell_length_c 10.082167
_cell_angle_alpha 90.000000
_cell_angle_beta 90.000000
_cell_angle_gamma 90.000000
_cell_volume 4315.497786
_symmetry_space_group_name_H-M "C C C A"
_symmetry_group_IT_number 68
_space_group.IT_coordinate_system_code '2'
_symmetry_cell_setting 'orthorhombic'
loop_
_space_group_symop_operation_xyz
x,y,z
-x,1/2-y,z
x,1/2-y,1/2-z
-x,y,1/2-z
-x,-y,-z
x,1/2+y,-z
-x,1/2+y,1/2+z
x,-y,1/2+z
1/2+x,1/2+y,z
1/2-x,-y,z
1/2+x,-y,1/2-z
1/2-x,1/2+y,1/2-z
1/2-x,1/2-y,-z
1/2+x,y,-z
1/2-x,y,1/2+z
1/2+x,1/2-y,1/2+z
loop_
_atom_site_type_symbol
_atom_site_label
_atom_site_fract_x
_atom_site_fract_y
_atom_site_fract_z
Si Si1 0.780352 0.080895 0.789415
Si Si2 0.224814 0.328980 0.058378
Si Si3 0.110990 0.667566 0.680042
Si Si4 0.447056 0.469647 0.567169
Si Si5 0.613330 0.502975 0.189553
O O1 0.757359 0.144671 0.687441
O O2 0.840976 0.057588 0.772559
O O3 0.750000 0.000000 0.761302
O O4 0.771677 0.106596 0.941002
O O5 0.163613 0.317904 0.095436
O O6 0.250000 0.250000 0.000000
O O7 0.096123 0.750000 0.750000
O O8 0.063635 0.624151 0.599255
O O9 0.127196 0.595577 0.780964
O O10 0.500000 0.500000 0.500000
O O11 0.402099 0.491927 0.461950
O O12 0.435005 0.509889 0.708851
#
# Coordination Sequence:
#
# PCOD9508146 Si02
#       5
#    16  16  16  16  16
#     4  12  22  39  60  92 129 173 218 266 318 399
#     4  12  25  38  61  92 136 174 216 260 333 391
#     4  10  22  40  62  95 134 168 217 265 329 395
#     4  10  21  41  67  94 123 166 226 277 324 383
#     4  10  22  38  65  93 126 166 222 272 322 394
#
# _framework density 18.537839000000002
#
# number of rings (size 3 to 8) (size 9 to 14) (size 15 to 20)
#    1.200    0.000    4.000    3.000    2.800    0.000 
#    0.000    2.000    0.000    0.000    0.000    2.800 
#    0.000    0.000    0.000    0.000    0.000    0.000 
#
# Total GULP energy -222818.577743 kJ/mol
# GULP energy per Si atom -5570.464444 kJ/mol
# Density = 1.849565 g / cm^3
# Si number density = 18.537839 Si / 1000 Ang^3
#
#
#
# Elastic Constant Matrix: (Units=GPa)
#
#
# Indices 1 2 3 4 5 6 
#
# 1 68.8111 30.0869 5.1013 0.0000 0.0000 0.0000
# 2 30.0869 76.9530 21.9698 0.0000 0.0000 0.0000
# 3 5.1013 21.9698 77.6489 0.0000 0.0000 0.0000
# 4 0.0000 0.0000 0.0000 42.9907 0.0000 0.0000
# 5 0.0000 0.0000 0.0000 0.0000 33.4824 0.0000
# 6 0.0000 0.0000 0.0000 0.0000 0.0000 21.1169
#
#
#
# Elastic Compliance Matrix: (Units=1/GPa)
#
#
# Indices 1 2 3 4 5 6 
#
# 1 0.017582 -0.007119 0.000859 0.000000 0.000000 0.000000
# 2 -0.007119 0.017020 -0.004348 0.000000 0.000000 0.000000
# 3 0.000859 -0.004348 0.014052 0.000000 0.000000 0.000000
# 4 0.000000 0.000000 0.000000 0.023261 0.000000 0.000000
# 5 0.000000 0.000000 0.000000 0.000000 0.029866 0.000000
# 6 0.000000 0.000000 0.000000 0.000000 0.000000 0.047355
#
#
# Mechanical properties :
#
#
# Convention : Reuss Voigt Hill
#
# Bulk Modulus (GPa) = 36.44601 37.52543 36.98572
# Shear Modulus (GPa) = 27.85545 30.60167 29.22856
#
# Velocity S-wave (km/s) = 3.88058 4.06737 3.97507
# Velocity P-wave (km/s) = 6.30726 6.50727 6.40805
#
# Compressibility (1/GPa) = 0.02743784
#
# Stress axis : x y z
#
# Youngs Moduli (GPa) = 56.87730 58.75529 71.16322
#
# Poissons Ratio (x) = 0.41830 -0.06115
# Poissons Ratio (y) = 0.40493 0.30940
# Poissons Ratio (z) = -0.04887 0.25546
#
# Static dielectric constant tensor:
#      x y z
#    x 1.835410 0.000000 0.000000 
#    y 0.000000 1.654850 0.000000 
#    z 0.000000 0.000000 1.637090 
# 
# From -- ./inp_files/8765.got.cif
#   From: 2010.05.17/outbox.cif.g08.bks.cpg/sg68_5_cif.got.tgz:8765.got - 2010.06.03 18:57:09.
