data_PCOD9508901
_publ_section_title
;
Structure prediction by ZEFSAII (Michael W. Deem and Ramdas Pophale) SiO2 
 PCOD9508901
Probable space group: C C C A
;
_chemical_formula_sum "Si O2"
_cell_formula_units_Z 68
_cell_length_a 27.539062
_cell_length_b 9.012254
_cell_length_c 13.769038
_cell_angle_alpha 90.000000
_cell_angle_beta 90.000000
_cell_angle_gamma 90.000000
_cell_volume 3417.324070
_symmetry_space_group_name_H-M "C C C A"
_symmetry_group_IT_number 68
_space_group.IT_coordinate_system_code '2'
_symmetry_cell_setting 'orthorhombic'
loop_
_space_group_symop_operation_xyz
x,y,z
-x,1/2-y,z
x,1/2-y,1/2-z
-x,y,1/2-z
-x,-y,-z
x,1/2+y,-z
-x,1/2+y,1/2+z
x,-y,1/2+z
1/2+x,1/2+y,z
1/2-x,-y,z
1/2+x,-y,1/2-z
1/2-x,1/2+y,1/2-z
1/2-x,1/2-y,-z
1/2+x,y,-z
1/2-x,y,1/2+z
1/2+x,1/2-y,1/2+z
loop_
_atom_site_type_symbol
_atom_site_label
_atom_site_fract_x
_atom_site_fract_y
_atom_site_fract_z
Si Si1 0.445532 0.461260 0.606468
Si Si2 0.250000 0.500000 0.251804
Si Si3 0.500000 0.750000 0.250000
Si Si4 0.210500 0.673423 0.930503
Si Si5 0.000000 0.250000 0.545084
Si Si6 0.167256 0.976136 0.904128
O O1 0.464469 0.361556 0.694019
O O2 0.473044 0.618563 0.601151
O O3 0.461630 0.349241 0.518428
O O4 0.389197 0.504235 0.609653
O O5 0.234193 0.375283 0.329349
O O6 0.204262 0.530163 0.180594
O O7 0.171852 0.799174 0.907756
O O8 0.250000 0.750000 0.000000
O O9 0.186850 0.543216 0.994264
#
# Coordination Sequence:
#
# PCOD9508901 Si02
#       6
#    16   8   4  16   8  16
#     4  10  22  43  68  99 122 176 208 278 330 403
#     4  12  24  40  64  94 138 170 220 272 316 382
#     4  10  24  42  64  98 136 148 224 282 332 380
#     4  12  23  44  60  92 137 177 217 272 312 386
#     4   9  20  46  70  87 136 160 222 267 338 390
#     4  12  25  41  70  96 132 177 222 260 336 395
#
# _framework density 19.898609
#
# number of rings (size 3 to 8) (size 9 to 14) (size 15 to 20)
#    0.000    0.941    4.706    2.118    3.294    0.471 
#    0.000    2.353    0.000    0.000    0.000    0.000 
#    0.000    0.000    0.000    0.000    0.000    0.000 
#
# Total GULP energy -189589.195792 kJ/mol
# GULP energy per Si atom -5576.152817 kJ/mol
# Density = 1.985332 g / cm^3
# Si number density = 19.898609 Si / 1000 Ang^3
#
#
#
# Elastic Constant Matrix: (Units=GPa)
#
#
# Indices 1 2 3 4 5 6 
#
# 1 159.5526 48.6683 62.1842 0.0000 0.0000 0.0000
# 2 48.6683 148.1972 54.6163 0.0000 0.0000 0.0000
# 3 62.1842 54.6163 115.5844 0.0000 0.0000 0.0000
# 4 0.0000 0.0000 0.0000 48.3933 0.0000 0.0000
# 5 0.0000 0.0000 0.0000 0.0000 15.6611 0.0000
# 6 0.0000 0.0000 0.0000 0.0000 0.0000 32.2758
#
#
#
# Elastic Compliance Matrix: (Units=1/GPa)
#
#
# Indices 1 2 3 4 5 6 
#
# 1 0.008126 -0.001280 -0.003767 0.000000 0.000000 0.000000
# 2 -0.001280 0.008372 -0.003267 0.000000 0.000000 0.000000
# 3 -0.003767 -0.003267 0.012222 0.000000 0.000000 0.000000
# 4 0.000000 0.000000 0.000000 0.020664 0.000000 0.000000
# 5 0.000000 0.000000 0.000000 0.000000 0.063853 0.000000
# 6 0.000000 0.000000 0.000000 0.000000 0.000000 0.030983
#
#
# Mechanical properties :
#
#
# Convention : Reuss Voigt Hill
#
# Bulk Modulus (GPa) = 82.70221 83.80799 83.25510
# Shear Modulus (GPa) = 30.32513 36.45707 33.39110
#
# Velocity S-wave (km/s) = 3.90806 4.28500 4.10086
# Velocity P-wave (km/s) = 7.87502 8.16643 8.02205
#
# Compressibility (1/GPa) = 0.01209158
#
# Stress axis : x y z
#
# Youngs Moduli (GPa) = 123.05891 119.44047 81.81902
#
# Poissons Ratio (x) = 0.15294 0.30820
# Poissons Ratio (y) = 0.15757 0.26732
# Poissons Ratio (z) = 0.46354 0.39024
#
# Static dielectric constant tensor:
#      x y z
#    x 1.748170 0.000000 0.000000 
#    y 0.000000 1.693390 0.000000 
#    z 0.000000 0.000000 1.737500 
# 
# From -- ./inp_files/19422.got.cif
#   From: 2010.05.17/outbox.cif.g08.bks.cpg/sg68_10_cif.got.tgz:19422.got - 2010.06.03 18:57:09.
