data_PCOD9508802
_publ_section_title
;
Structure prediction by ZEFSAII (Michael W. Deem and Ramdas Pophale) SiO2 
 PCOD9508802
Probable space group: C C C A
;
_chemical_formula_sum "Si O2"
_cell_formula_units_Z 84
_cell_length_a 11.484450
_cell_length_b 24.025161
_cell_length_c 12.713463
_cell_angle_alpha 90.000000
_cell_angle_beta 90.000000
_cell_angle_gamma 90.000000
_cell_volume 3507.844809
_symmetry_space_group_name_H-M "C C C A"
_symmetry_group_IT_number 68
_space_group.IT_coordinate_system_code '2'
_symmetry_cell_setting 'orthorhombic'
loop_
_space_group_symop_operation_xyz
x,y,z
-x,1/2-y,z
x,1/2-y,1/2-z
-x,y,1/2-z
-x,-y,-z
x,1/2+y,-z
-x,1/2+y,1/2+z
x,-y,1/2+z
1/2+x,1/2+y,z
1/2-x,-y,z
1/2+x,-y,1/2-z
1/2-x,1/2+y,1/2-z
1/2-x,1/2-y,-z
1/2+x,y,-z
1/2-x,y,1/2+z
1/2+x,1/2-y,1/2+z
loop_
_atom_site_type_symbol
_atom_site_label
_atom_site_fract_x
_atom_site_fract_y
_atom_site_fract_z
Si Si1 0.250000 0.000000 0.671332
Si Si2 0.208218 0.381017 0.351790
Si Si3 0.041142 0.136763 0.589227
Si Si4 0.000000 0.250000 0.250000
Si Si5 0.500000 0.044595 0.250000
Si Si6 0.661715 0.699720 0.970012
Si Si7 0.128395 0.850051 0.861643
O O1 0.223669 0.943588 0.607162
O O2 0.373855 0.985760 0.730970
O O3 0.338503 0.355942 0.347228
O O4 0.146328 0.336243 0.424192
O O5 0.138834 0.385741 0.243374
O O6 0.965141 0.192917 0.581991
O O7 0.075979 0.124464 0.467850
O O8 0.983339 0.084981 0.648448
O O9 0.073413 0.291231 0.175593
O O10 0.740604 0.663552 0.893192
O O11 0.750000 0.750000 0.000000
#
# Coordination Sequence:
#
# PCOD9508802 Si02
#       7
#     8  16  16   4   8  16  16
#     4  10  22  44  70  98 140 194 248 306 380 454
#     4  10  23  42  64  96 137 181 235 301 364 439
#     4  10  22  42  67  97 139 182 235 303 370 440
#     4  12  24  42  68  96 140 186 224 292 356 434
#     4  10  22  45  72 103 146 194 250 324 384 456
#     4  11  22  38  64  98 134 177 231 292 364 451
#     4  11  22  39  63  93 128 177 229 284 362 441
#
# _framework density 23.946327
#
# number of rings (size 3 to 8) (size 9 to 14) (size 15 to 20)
#    0.000    1.524    0.000    5.714    0.000    4.571 
#    0.000   20.000    0.000   18.857    0.000    0.000 
#    0.000    0.000    0.000    0.000    0.000    0.000 
#
# Total GULP energy -233873.145090 kJ/mol
# GULP energy per Si atom -5568.408216 kJ/mol
# Density = 2.389182 g / cm^3
# Si number density = 23.946327 Si / 1000 Ang^3
#
#
#
# Elastic Constant Matrix: (Units=GPa)
#
#
# Indices 1 2 3 4 5 6 
#
# 1 152.3711 46.6558 22.7823 0.0000 0.0000 0.0000
# 2 46.6558 139.4886 46.8782 0.0000 0.0000 0.0000
# 3 22.7823 46.8782 131.4651 0.0000 0.0000 0.0000
# 4 0.0000 0.0000 0.0000 20.8308 0.0000 0.0000
# 5 0.0000 0.0000 0.0000 0.0000 27.5622 0.0000
# 6 0.0000 0.0000 0.0000 0.0000 0.0000 43.6167
#
#
#
# Elastic Compliance Matrix: (Units=1/GPa)
#
#
# Indices 1 2 3 4 5 6 
#
# 1 0.007335 -0.002302 -0.000450 0.000000 0.000000 0.000000
# 2 -0.002302 0.008868 -0.002763 0.000000 0.000000 0.000000
# 3 -0.000450 -0.002763 0.008670 0.000000 0.000000 0.000000
# 4 0.000000 0.000000 0.000000 0.048006 0.000000 0.000000
# 5 0.000000 0.000000 0.000000 0.000000 0.036282 0.000000
# 6 0.000000 0.000000 0.000000 0.000000 0.000000 0.022927
#
#
# Mechanical properties :
#
#
# Convention : Reuss Voigt Hill
#
# Bulk Modulus (GPa) = 72.24534 72.88418 72.56476
# Shear Modulus (GPa) = 33.84508 38.86917 36.35712
#
# Velocity S-wave (km/s) = 3.76356 4.03324 3.90073
# Velocity P-wave (km/s) = 7.00864 7.22440 7.11734
#
# Compressibility (1/GPa) = 0.01384172
#
# Stress axis : x y z
#
# Youngs Moduli (GPa) = 136.32987 112.76940 115.34181
#
# Poissons Ratio (x) = 0.25961 0.05193
# Poissons Ratio (y) = 0.31385 0.31870
# Poissons Ratio (z) = 0.06138 0.31159
#
# Static dielectric constant tensor:
#      x y z
#    x 2.045950 0.000000 0.000000 
#    y 0.000000 1.958220 0.000000 
#    z 0.000000 0.000000 1.997580 
# 
# From -- ./inp_files/21020.got.cif
#   From: 2010.05.17/outbox.cif.g08.bks.cpg/sg68_11_cif.got.tgz:21020.got - 2010.06.03 18:57:09.
