data_PCOD9508523
_publ_section_title
;
Structure prediction by ZEFSAII (Michael W. Deem and Ramdas Pophale) SiO2 
 PCOD9508523
Probable space group: C C C A
;
_chemical_formula_sum "Si O2"
_cell_formula_units_Z 92
_cell_length_a 8.934120
_cell_length_b 20.702550
_cell_length_c 22.693430
_cell_angle_alpha 90.000000
_cell_angle_beta 90.000000
_cell_angle_gamma 90.000000
_cell_volume 4197.355617
_symmetry_space_group_name_H-M "C C C A"
_symmetry_group_IT_number 68
_space_group.IT_coordinate_system_code '2'
_symmetry_cell_setting 'orthorhombic'
loop_
_space_group_symop_operation_xyz
x,y,z
-x,1/2-y,z
x,1/2-y,1/2-z
-x,y,1/2-z
-x,-y,-z
x,1/2+y,-z
-x,1/2+y,1/2+z
x,-y,1/2+z
1/2+x,1/2+y,z
1/2-x,-y,z
1/2+x,-y,1/2-z
1/2-x,1/2+y,1/2-z
1/2-x,1/2-y,-z
1/2+x,y,-z
1/2-x,y,1/2+z
1/2+x,1/2-y,1/2+z
loop_
_atom_site_type_symbol
_atom_site_label
_atom_site_fract_x
_atom_site_fract_y
_atom_site_fract_z
Si Si1 0.964450 0.114742 0.687022
Si Si2 0.250000 0.500000 0.176031
Si Si3 0.857831 0.088116 0.079561
Si Si4 0.409307 0.116297 0.494566
Si Si5 0.658290 0.662758 0.586775
Si Si6 0.708227 0.207968 0.644266
Si Si7 0.500000 0.750000 0.250000
O O1 0.101469 0.114717 0.639832
O O2 0.000000 0.144414 0.750000
O O3 0.868864 0.050205 0.703045
O O4 0.848545 0.163555 0.658128
O O5 0.141691 0.454489 0.137173
O O6 0.692866 0.080171 0.052705
O O7 0.879589 0.164065 0.096291
O O8 0.977685 0.071919 0.030618
O O9 0.514190 0.165946 0.457526
O O10 0.291039 0.141836 0.542610
O O11 0.724699 0.725914 0.618829
O O12 0.608894 0.214422 0.703211
#
# Coordination Sequence:
#
# PCOD9508523 Si02
#       7
#    16   8  16  16  16  16   4
#     4  11  24  46  65  92 128 173 228 273 339 395
#     4  10  22  46  62  88 124 166 228 282 328 388
#     4  10  22  40  60  94 129 171 213 273 323 397
#     4  10  22  39  65  98 137 173 218 263 331 411
#     4  11  22  42  66 104 133 180 213 271 341 406
#     4  11  23  39  63  93 136 167 219 269 327 402
#     4  12  24  40  62 100 128 180 214 276 328 400
#
# _framework density 21.918562999999999
#
# number of rings (size 3 to 8) (size 9 to 14) (size 15 to 20)
#    0.000    1.391    3.478    2.609    0.000    5.565 
#    9.391    0.000    0.000    0.000    0.000    0.000 
#    0.000    0.000    0.000    0.000    0.000    0.000 
#
# Total GULP energy -256212.078043 kJ/mol
# GULP energy per Si atom -5569.827784 kJ/mol
# Density = 2.186868 g / cm^3
# Si number density = 21.918563 Si / 1000 Ang^3
#
#
#
# Elastic Constant Matrix: (Units=GPa)
#
#
# Indices 1 2 3 4 5 6 
#
# 1 100.8401 11.9994 32.5777 0.0000 0.0000 0.0000
# 2 11.9994 37.3373 -5.1312 0.0000 0.0000 0.0000
# 3 32.5777 -5.1312 96.4516 0.0000 0.0000 0.0000
# 4 0.0000 0.0000 0.0000 -10.4347 0.0000 0.0000
# 5 0.0000 0.0000 0.0000 0.0000 55.7543 0.0000
# 6 0.0000 0.0000 0.0000 0.0000 0.0000 17.5880
#
#
#
# Elastic Compliance Matrix: (Units=1/GPa)
#
#
# Indices 1 2 3 4 5 6 
#
# 1 0.011800 -0.004372 -0.004218 0.000000 0.000000 0.000000
# 2 -0.004372 0.028600 0.002998 0.000000 0.000000 0.000000
# 3 -0.004218 0.002998 0.011952 0.000000 0.000000 0.000000
# 4 0.000000 0.000000 0.000000 -0.095834 0.000000 0.000000
# 5 0.000000 0.000000 0.000000 0.000000 0.017936 0.000000
# 6 0.000000 0.000000 0.000000 0.000000 0.000000 0.056857
#
#
# Mechanical properties :
#
#
# Convention : Reuss Voigt Hill
#
# Bulk Modulus (GPa) = 24.29063 34.83566 29.56315
# Shear Modulus (GPa) = 88.94160 25.59371 57.26765
#
# Velocity S-wave (km/s) = 6.37701 3.42083 5.11705
# Velocity P-wave (km/s) = 8.08257 5.61520 6.95911
#
# Compressibility (1/GPa) = 0.04116813
#
# Stress axis : x y z
#
# Youngs Moduli (GPa) = 84.74855 34.96518 83.66734
#
# Poissons Ratio (x) = 0.15286 0.35291
# Poissons Ratio (y) = 0.37051 -0.25085
# Poissons Ratio (z) = 0.35747 -0.10483
#
# Static dielectric constant tensor:
#      x y z
#    x 1.867200 0.000000 0.000000 
#    y 0.000000 1.837150 0.000000 
#    z 0.000000 0.000000 1.771910 
# 
# From -- ./inp_files/49366.got.cif
#   From: 2010.05.17/outbox.cif.g08.bks.cpg/sg68_25_cif.got.tgz:49366.got - 2010.06.03 18:57:09.
