data_PCOD9508747
_publ_section_title
;
Structure prediction by ZEFSAII (Michael W. Deem and Ramdas Pophale) SiO2 
 PCOD9508747
Probable space group: C C C A
;
_chemical_formula_sum "Si O2"
_cell_formula_units_Z 104
_cell_length_a 9.927741
_cell_length_b 19.791624
_cell_length_c 24.691627
_cell_angle_alpha 90.000000
_cell_angle_beta 90.000000
_cell_angle_gamma 90.000000
_cell_volume 4851.561913
_symmetry_space_group_name_H-M "C C C A"
_symmetry_group_IT_number 68
_space_group.IT_coordinate_system_code '2'
_symmetry_cell_setting 'orthorhombic'
loop_
_space_group_symop_operation_xyz
x,y,z
-x,1/2-y,z
x,1/2-y,1/2-z
-x,y,1/2-z
-x,-y,-z
x,1/2+y,-z
-x,1/2+y,1/2+z
x,-y,1/2+z
1/2+x,1/2+y,z
1/2-x,-y,z
1/2+x,-y,1/2-z
1/2-x,1/2+y,1/2-z
1/2-x,1/2-y,-z
1/2+x,y,-z
1/2-x,y,1/2+z
1/2+x,1/2-y,1/2+z
loop_
_atom_site_type_symbol
_atom_site_label
_atom_site_fract_x
_atom_site_fract_y
_atom_site_fract_z
Si Si1 0.834101 0.860500 0.161409
Si Si2 0.101110 0.403523 0.396386
Si Si3 0.550903 0.674071 0.304175
Si Si4 0.500000 0.441903 0.250000
Si Si5 0.207054 0.677418 0.476585
Si Si6 0.500000 0.750000 0.597338
Si Si7 0.250000 0.500000 0.815700
Si Si8 0.326454 0.435397 0.566220
O O1 0.709872 0.831896 0.195565
O O2 0.936246 0.897970 0.201290
O O3 0.901127 0.796632 0.132186
O O4 0.764434 0.911365 0.117762
O O5 0.012058 0.356219 0.357932
O O6 0.178472 0.359805 0.441169
O O7 0.205667 0.440668 0.356877
O O8 0.982663 0.451647 0.419888
O O9 0.500000 0.750000 0.303246
O O10 0.500000 0.638030 0.250000
O O11 0.622832 0.482474 0.222295
O O12 0.250000 0.750000 0.500000
O O13 0.170652 0.627013 0.524953
O O14 0.081795 0.696519 0.438808
O O15 0.250000 0.500000 0.542315
#
# Coordination Sequence:
#
# PCOD9508747 Si02
#       8
#    16  16  16   8  16   8   8  16
#     4  11  25  44  69 105 143 191 237 303 370 445
#     4  11  26  45  73 102 149 185 251 299 371 440
#     4  10  22  41  70 101 136 185 242 297 366 437
#     4  12  28  45  76 104 151 196 250 302 388 440
#     4  12  25  46  73 107 142 195 242 306 373 447
#     4  12  24  45  70 104 152 180 245 302 374 436
#     4  12  28  48  74 110 146 198 248 312 370 460
#     4  11  26  46  72 103 145 192 247 306 370 440
#
# _framework density 21.436395999999998
#
# number of rings (size 3 to 8) (size 9 to 14) (size 15 to 20)
#    0.000    0.769    1.538    4.615    9.692    3.385 
#    0.000    0.000    0.000    0.000    0.000    0.000 
#    0.000    0.000    0.000    0.000    0.000    0.000 
#
# Total GULP energy -290792.208111 kJ/mol
# GULP energy per Si atom -5592.157848 kJ/mol
# Density = 2.138761 g / cm^3
# Si number density = 21.436396 Si / 1000 Ang^3
#
#
#
# Elastic Constant Matrix: (Units=GPa)
#
#
# Indices 1 2 3 4 5 6 
#
# 1 148.1783 38.1460 53.5932 0.0000 0.0000 0.0000
# 2 38.1460 81.8752 20.8774 0.0000 0.0000 0.0000
# 3 53.5932 20.8774 96.9508 0.0000 0.0000 0.0000
# 4 0.0000 0.0000 0.0000 34.9838 0.0000 0.0000
# 5 0.0000 0.0000 0.0000 0.0000 29.1266 0.0000
# 6 0.0000 0.0000 0.0000 0.0000 0.0000 32.8889
#
#
#
# Elastic Compliance Matrix: (Units=1/GPa)
#
#
# Indices 1 2 3 4 5 6 
#
# 1 0.009140 -0.003143 -0.004376 0.000000 0.000000 0.000000
# 2 -0.003143 0.014004 -0.001278 0.000000 0.000000 0.000000
# 3 -0.004376 -0.001278 0.013009 0.000000 0.000000 0.000000
# 4 0.000000 0.000000 0.000000 0.028585 0.000000 0.000000
# 5 0.000000 0.000000 0.000000 0.000000 0.034333 0.000000
# 6 0.000000 0.000000 0.000000 0.000000 0.000000 0.030405
#
#
# Mechanical properties :
#
#
# Convention : Reuss Voigt Hill
#
# Bulk Modulus (GPa) = 53.88217 61.35973 57.62095
# Shear Modulus (GPa) = 32.62513 33.69239 33.15876
#
# Velocity S-wave (km/s) = 3.90545 3.96882 3.93726
# Velocity P-wave (km/s) = 6.74738 7.04899 6.89983
#
# Compressibility (1/GPa) = 0.01855902
#
# Stress axis : x y z
#
# Youngs Moduli (GPa) = 109.40497 71.40877 76.87140
#
# Poissons Ratio (x) = 0.22442 0.33638
# Poissons Ratio (y) = 0.34383 0.09827
# Poissons Ratio (z) = 0.47875 0.09129
#
# Static dielectric constant tensor:
#      x y z
#    x 1.819320 0.000000 0.000000 
#    y 0.000000 1.761660 0.000000 
#    z 0.000000 0.000000 1.953750 
# 
# From -- ./inp_files/49474.got.cif
#   From: 2010.05.17/outbox.cif.g08.bks.cpg/sg68_25_cif.got.tgz:49474.got - 2010.06.03 18:57:09.
