data_PCOD9508106
_publ_section_title
;
Structure prediction by ZEFSAII (Michael W. Deem and Ramdas Pophale) SiO2 
 PCOD9508106
Probable space group: C C C A
;
_chemical_formula_sum "Si O2"
_cell_formula_units_Z 60
_cell_length_a 26.630817
_cell_length_b 19.620982
_cell_length_c 5.403320
_cell_angle_alpha 90.000000
_cell_angle_beta 90.000000
_cell_angle_gamma 90.000000
_cell_volume 2823.357793
_symmetry_space_group_name_H-M "C C C A"
_symmetry_group_IT_number 68
_space_group.IT_coordinate_system_code '2'
_symmetry_cell_setting 'orthorhombic'
loop_
_space_group_symop_operation_xyz
x,y,z
-x,1/2-y,z
x,1/2-y,1/2-z
-x,y,1/2-z
-x,-y,-z
x,1/2+y,-z
-x,1/2+y,1/2+z
x,-y,1/2+z
1/2+x,1/2+y,z
1/2-x,-y,z
1/2+x,-y,1/2-z
1/2-x,1/2+y,1/2-z
1/2-x,1/2-y,-z
1/2+x,y,-z
1/2-x,y,1/2+z
1/2+x,1/2-y,1/2+z
loop_
_atom_site_type_symbol
_atom_site_label
_atom_site_fract_x
_atom_site_fract_y
_atom_site_fract_z
Si Si1 0.109854 0.461821 0.741056
Si Si2 0.000000 0.250000 0.250000
Si Si3 0.783229 0.597301 0.255461
Si Si4 0.217191 0.250000 0.750000
Si Si5 0.443736 0.320545 0.140951
O O1 0.094901 0.508863 0.508405
O O2 0.170143 0.453387 0.740883
O O3 0.086307 0.387914 0.692602
O O4 0.040740 0.302405 0.364285
O O5 0.749908 0.589964 0.505197
O O6 0.806274 0.674617 0.252506
O O7 0.250000 0.250000 0.500000
O O8 0.421391 0.250000 0.250000
O O9 0.500000 0.326552 0.250000
#
# Coordination Sequence:
#
# PCOD9508106 Si02
#       5
#    16   4  16   8  16
#     4  12  28  42  63 103 137 176 224 267 337 397
#     4   8  18  44  74  98 120 172 224 262 346 388
#     4  10  21  41  63  88 129 174 221 271 322 384
#     4   8  16  32  57  86 109 150 215 267 312 358
#     4   9  22  44  72  98 129 173 222 272 336 396
#
# _framework density 21.251293
#
# number of rings (size 3 to 8) (size 9 to 14) (size 15 to 20)
#    0.000    2.400    0.000    1.600    9.333    4.267 
#    0.000    1.333    0.000    0.000    0.000    0.000 
#    0.000    0.000    0.000    0.000    0.000    0.000 
#
# Total GULP energy -167063.427241 kJ/mol
# GULP energy per Si atom -5568.780908 kJ/mol
# Density = 2.120292 g / cm^3
# Si number density = 21.251293 Si / 1000 Ang^3
#
#
#
# Elastic Constant Matrix: (Units=GPa)
#
#
# Indices 1 2 3 4 5 6 
#
# 1 48.8954 32.1655 14.9501 0.0000 0.0000 0.0000
# 2 32.1655 111.9501 31.6891 0.0000 0.0000 0.0000
# 3 14.9501 31.6891 107.5649 0.0000 0.0000 0.0000
# 4 0.0000 0.0000 0.0000 57.6071 0.0000 0.0000
# 5 0.0000 0.0000 0.0000 0.0000 20.0806 0.0000
# 6 0.0000 0.0000 0.0000 0.0000 0.0000 43.1462
#
#
#
# Elastic Compliance Matrix: (Units=1/GPa)
#
#
# Indices 1 2 3 4 5 6 
#
# 1 0.025441 -0.006883 -0.001508 0.000000 0.000000 0.000000
# 2 -0.006883 0.011607 -0.002463 0.000000 0.000000 0.000000
# 3 -0.001508 -0.002463 0.010232 0.000000 0.000000 0.000000
# 4 0.000000 0.000000 0.000000 0.017359 0.000000 0.000000
# 5 0.000000 0.000000 0.000000 0.000000 0.049799 0.000000
# 6 0.000000 0.000000 0.000000 0.000000 0.000000 0.023177
#
#
# Mechanical properties :
#
#
# Convention : Reuss Voigt Hill
#
# Bulk Modulus (GPa) = 39.10508 47.33553 43.22031
# Shear Modulus (GPa) = 29.78901 36.80716 33.29808
#
# Velocity S-wave (km/s) = 3.74806 4.16624 3.96267
# Velocity P-wave (km/s) = 6.09687 6.74285 6.42798
#
# Compressibility (1/GPa) = 0.02557213
#
# Stress axis : x y z
#
# Youngs Moduli (GPa) = 39.30701 86.15292 97.73321
#
# Poissons Ratio (x) = 0.59297 0.14741
# Poissons Ratio (y) = 0.27054 0.24071
# Poissons Ratio (z) = 0.05929 0.21219
#
# Static dielectric constant tensor:
#      x y z
#    x 1.729650 0.000000 0.000000 
#    y 0.000000 1.870630 0.000000 
#    z 0.000000 0.000000 1.623670 
# 
# From -- ./inp_files/1411.got.cif
#   From: 2010.05.17/outbox.cif.g08.bks.cpg/sg68_1_cif.got.tgz:1411.got - 2010.06.03 18:57:09.
