data_PCOD9508081
_publ_section_title
;
Structure prediction by ZEFSAII (Michael W. Deem and Ramdas Pophale) SiO2 
 PCOD9508081
Probable space group: C C C A
;
_chemical_formula_sum "Si O2"
_cell_formula_units_Z 112
_cell_length_a 24.664626
_cell_length_b 15.229280
_cell_length_c 13.429618
_cell_angle_alpha 90.000000
_cell_angle_beta 90.000000
_cell_angle_gamma 90.000000
_cell_volume 5044.493485
_symmetry_space_group_name_H-M "C C C A"
_symmetry_group_IT_number 68
_space_group.IT_coordinate_system_code '2'
_symmetry_cell_setting 'orthorhombic'
loop_
_space_group_symop_operation_xyz
x,y,z
-x,1/2-y,z
x,1/2-y,1/2-z
-x,y,1/2-z
-x,-y,-z
x,1/2+y,-z
-x,1/2+y,1/2+z
x,-y,1/2+z
1/2+x,1/2+y,z
1/2-x,-y,z
1/2+x,-y,1/2-z
1/2-x,1/2+y,1/2-z
1/2-x,1/2-y,-z
1/2+x,y,-z
1/2-x,y,1/2+z
1/2+x,1/2-y,1/2+z
loop_
_atom_site_type_symbol
_atom_site_label
_atom_site_fract_x
_atom_site_fract_y
_atom_site_fract_z
Si Si1 0.580275 0.269103 0.865170
Si Si2 0.090281 0.358103 0.537993
Si Si3 0.309967 0.685915 0.657317
Si Si4 0.805323 0.144846 0.088743
Si Si5 0.978439 0.899754 0.481436
Si Si6 0.869312 0.469302 0.555873
Si Si7 0.308132 0.998886 0.239482
O O1 0.567688 0.250000 0.750000
O O2 0.643212 0.297064 0.879556
O O3 0.542366 0.342467 0.921762
O O4 0.577680 0.180720 0.929254
O O5 0.135825 0.300990 0.592607
O O6 0.114690 0.455807 0.524004
O O7 0.028919 0.358776 0.578687
O O8 0.303764 0.750000 0.750000
O O9 0.254673 0.686183 0.592308
O O10 0.317441 0.591047 0.707573
O O11 0.803926 0.072869 0.175926
O O12 0.822651 0.093467 0.988624
O O13 0.922330 0.911658 0.423712
O O14 0.000000 0.000000 0.500000
O O15 0.851857 0.516868 0.655799
O O16 0.250000 0.000000 0.186486
#
# Coordination Sequence:
#
# PCOD9508081 Si02
#       7
#    16  16  16  16  16  16  16
#     4  11  23  41  70 101 133 168 225 287 346 396
#     4  11  23  41  66  94 135 172 220 277 333 394
#     4  11  25  41  63  95 139 176 217 273 337 405
#     4  10  22  43  64  97 134 171 221 277 332 412
#     4   9  22  43  65  92 133 175 220 276 330 406
#     4  10  21  40  69  91 126 173 222 270 342 383
#     4  10  22  39  65  93 126 169 222 265 324 415
#
# _framework density 22.202428000000001
#
# number of rings (size 3 to 8) (size 9 to 14) (size 15 to 20)
#    0.000    1.714    1.429    1.714    6.000    2.857 
#    0.000    2.143    0.000    0.000    0.000    0.000 
#    0.000    0.000    0.000    0.000    0.000    0.000 
#
# Total GULP energy -312358.137900 kJ/mol
# GULP energy per Si atom -5577.823891 kJ/mol
# Density = 2.215189 g / cm^3
# Si number density = 22.202428 Si / 1000 Ang^3
#
#
#
# Elastic Constant Matrix: (Units=GPa)
#
#
# Indices 1 2 3 4 5 6 
#
# 1 149.6470 29.0264 35.0838 0.0000 0.0000 0.0000
# 2 29.0264 40.5515 9.6993 0.0000 0.0000 0.0000
# 3 35.0838 9.6993 52.8245 0.0000 0.0000 0.0000
# 4 0.0000 0.0000 0.0000 25.8428 0.0000 0.0000
# 5 0.0000 0.0000 0.0000 0.0000 9.0508 0.0000
# 6 0.0000 0.0000 0.0000 0.0000 0.0000 10.6120
#
#
#
# Elastic Compliance Matrix: (Units=1/GPa)
#
#
# Indices 1 2 3 4 5 6 
#
# 1 0.008835 -0.005146 -0.004923 0.000000 0.000000 0.000000
# 2 -0.005146 0.028791 -0.001868 0.000000 0.000000 0.000000
# 3 -0.004923 -0.001868 0.022543 0.000000 0.000000 0.000000
# 4 0.000000 0.000000 0.000000 0.038695 0.000000 0.000000
# 5 0.000000 0.000000 0.000000 0.000000 0.110488 0.000000
# 6 0.000000 0.000000 0.000000 0.000000 0.000000 0.094233
#
#
# Mechanical properties :
#
#
# Convention : Reuss Voigt Hill
#
# Bulk Modulus (GPa) = 27.55305 43.40466 35.47885
# Shear Modulus (GPa) = 14.72506 20.38202 17.55354
#
# Velocity S-wave (km/s) = 2.57810 3.03315 2.81484
# Velocity P-wave (km/s) = 4.61508 5.64435 5.15546
#
# Compressibility (1/GPa) = 0.03629362
#
# Stress axis : x y z
#
# Youngs Moduli (GPa) = 113.18998 34.73354 44.35947
#
# Poissons Ratio (x) = 0.17875 0.21837
# Poissons Ratio (y) = 0.58252 0.08288
# Poissons Ratio (z) = 0.55720 0.06489
#
# Static dielectric constant tensor:
#      x y z
#    x 1.905960 0.000000 0.000000 
#    y 0.000000 1.894170 0.000000 
#    z 0.000000 0.000000 1.520730 
# 
# From -- ./inp_files/25431.got.cif
#   From: 2010.05.17/outbox.cif.g08.bks.cpg/sg68_13_cif.got.tgz:25431.got - 2010.06.03 18:57:09.
