data_PCOD9508637
_publ_section_title
;
Structure prediction by ZEFSAII (Michael W. Deem and Ramdas Pophale) SiO2 
 PCOD9508637
Probable space group: C C C A
;
_chemical_formula_sum "Si O2"
_cell_formula_units_Z 96
_cell_length_a 27.208389
_cell_length_b 19.275199
_cell_length_c 8.407165
_cell_angle_alpha 90.000000
_cell_angle_beta 90.000000
_cell_angle_gamma 90.000000
_cell_volume 4409.113408
_symmetry_space_group_name_H-M "C C C A"
_symmetry_group_IT_number 68
_space_group.IT_coordinate_system_code '2'
_symmetry_cell_setting 'orthorhombic'
loop_
_space_group_symop_operation_xyz
x,y,z
-x,1/2-y,z
x,1/2-y,1/2-z
-x,y,1/2-z
-x,-y,-z
x,1/2+y,-z
-x,1/2+y,1/2+z
x,-y,1/2+z
1/2+x,1/2+y,z
1/2-x,-y,z
1/2+x,-y,1/2-z
1/2-x,1/2+y,1/2-z
1/2-x,1/2-y,-z
1/2+x,y,-z
1/2-x,y,1/2+z
1/2+x,1/2-y,1/2+z
loop_
_atom_site_type_symbol
_atom_site_label
_atom_site_fract_x
_atom_site_fract_y
_atom_site_fract_z
Si Si1 0.586020 0.488470 0.905324
Si Si2 0.848195 0.675221 0.175302
Si Si3 0.149122 0.927689 0.639496
Si Si4 0.223543 0.571502 0.140959
Si Si5 0.049350 0.897939 0.178915
Si Si6 0.809686 0.818471 0.673003
O O1 0.634767 0.462562 0.809184
O O2 0.554175 0.532215 0.784092
O O3 0.605501 0.544873 0.030879
O O4 0.557429 0.427610 0.998834
O O5 0.836798 0.750000 0.250000
O O6 0.815486 0.610546 0.242982
O O7 0.903808 0.651059 0.206518
O O8 0.839023 0.687010 0.989315
O O9 0.196831 0.940581 0.529082
O O10 0.154984 0.848404 0.689152
O O11 0.250000 0.500000 0.189246
O O12 0.267057 0.627226 0.133621
O O13 0.000000 0.864788 0.250000
O O14 0.787294 0.750000 0.750000
#
# Coordination Sequence:
#
# PCOD9508637 Si02
#       6
#    16  16  16  16  16  16
#     4  10  22  40  68 104 137 173 220 291 365 420
#     4  12  27  48  70  99 143 191 239 298 368 425
#     4  11  22  40  64  94 140 181 225 281 357 421
#     4  12  27  43  71 106 140 186 246 297 348 437
#     4  11  23  44  75 106 138 181 236 296 364 438
#     4  12  27  44  65  97 144 189 237 290 356 429
#
# _framework density 21.773085999999999
#
# number of rings (size 3 to 8) (size 9 to 14) (size 15 to 20)
#    0.000    0.667    3.333    4.000    4.667    5.000 
#    0.000    0.000    0.000    0.000    0.000    0.000 
#    0.000    0.000    0.000    0.000    0.000    0.000 
#
# Total GULP energy -267805.356376 kJ/mol
# GULP energy per Si atom -5579.278258 kJ/mol
# Density = 2.172353 g / cm^3
# Si number density = 21.773086 Si / 1000 Ang^3
#
#
#
# Elastic Constant Matrix: (Units=GPa)
#
#
# Indices 1 2 3 4 5 6 
#
# 1 128.6654 48.5801 43.4647 0.0000 0.0000 0.0000
# 2 48.5801 107.2828 42.6052 0.0000 0.0000 0.0000
# 3 43.4647 42.6052 118.1515 0.0000 0.0000 0.0000
# 4 0.0000 0.0000 0.0000 31.5446 0.0000 0.0000
# 5 0.0000 0.0000 0.0000 0.0000 17.4146 0.0000
# 6 0.0000 0.0000 0.0000 0.0000 0.0000 12.6547
#
#
#
# Elastic Compliance Matrix: (Units=1/GPa)
#
#
# Indices 1 2 3 4 5 6 
#
# 1 0.009911 -0.003548 -0.002367 0.000000 0.000000 0.000000
# 2 -0.003548 0.012149 -0.003076 0.000000 0.000000 0.000000
# 3 -0.002367 -0.003076 0.010443 0.000000 0.000000 0.000000
# 4 0.000000 0.000000 0.000000 0.031701 0.000000 0.000000
# 5 0.000000 0.000000 0.000000 0.000000 0.057423 0.000000
# 6 0.000000 0.000000 0.000000 0.000000 0.000000 0.079022
#
#
# Mechanical properties :
#
#
# Convention : Reuss Voigt Hill
#
# Bulk Modulus (GPa) = 68.85664 69.26663 69.06164
# Shear Modulus (GPa) = 22.37413 26.95276 24.66344
#
# Velocity S-wave (km/s) = 3.20911 3.52219 3.36929
# Velocity P-wave (km/s) = 6.73977 6.95867 6.85009
#
# Compressibility (1/GPa) = 0.01452293
#
# Stress axis : x y z
#
# Youngs Moduli (GPa) = 100.89540 82.30907 95.75399
#
# Poissons Ratio (x) = 0.29205 0.22661
# Poissons Ratio (y) = 0.35800 0.29451
# Poissons Ratio (z) = 0.23878 0.25316
#
# Static dielectric constant tensor:
#      x y z
#    x 1.839090 0.000000 0.000000 
#    y 0.000000 1.813490 0.000000 
#    z 0.000000 0.000000 1.851280 
# 
# From -- ./inp_files/8908.got.cif
#   From: 2010.05.17/outbox.cif.g08.bks.cpg/sg68_5_cif.got.tgz:8908.got - 2010.06.03 18:57:09.
