data_PCOD9508142
_publ_section_title
;
Structure prediction by ZEFSAII (Michael W. Deem and Ramdas Pophale) SiO2 
 PCOD9508142
Probable space group: C C C A
;
_chemical_formula_sum "Si O2"
_cell_formula_units_Z 80
_cell_length_a 15.779257
_cell_length_b 11.503042
_cell_length_c 22.749131
_cell_angle_alpha 90.000000
_cell_angle_beta 90.000000
_cell_angle_gamma 90.000000
_cell_volume 4129.182392
_symmetry_space_group_name_H-M "C C C A"
_symmetry_group_IT_number 68
_space_group.IT_coordinate_system_code '2'
_symmetry_cell_setting 'orthorhombic'
loop_
_space_group_symop_operation_xyz
x,y,z
-x,1/2-y,z
x,1/2-y,1/2-z
-x,y,1/2-z
-x,-y,-z
x,1/2+y,-z
-x,1/2+y,1/2+z
x,-y,1/2+z
1/2+x,1/2+y,z
1/2-x,-y,z
1/2+x,-y,1/2-z
1/2-x,1/2+y,1/2-z
1/2-x,1/2-y,-z
1/2+x,y,-z
1/2-x,y,1/2+z
1/2+x,1/2-y,1/2+z
loop_
_atom_site_type_symbol
_atom_site_label
_atom_site_fract_x
_atom_site_fract_y
_atom_site_fract_z
Si Si1 0.808414 0.385693 0.764188
Si Si2 0.952159 0.625901 0.364640
Si Si3 0.373807 0.483762 0.359033
Si Si4 0.305707 0.387017 0.050366
Si Si5 0.268898 0.159938 0.583834
O O1 0.777450 0.250000 0.750000
O O2 0.750000 0.500000 0.781796
O O3 0.885076 0.377026 0.811197
O O4 0.845360 0.429101 0.702110
O O5 0.898952 0.606643 0.423705
O O6 0.000000 0.750000 0.364281
O O7 0.026602 0.531221 0.362630
O O8 0.335743 0.611307 0.369494
O O9 0.319070 0.411834 0.407760
O O10 0.250000 0.500000 0.055617
O O11 0.257941 0.291545 0.089829
O O12 0.304737 0.353288 0.981840
#
# Coordination Sequence:
#
# PCOD9508142 Si02
#       5
#    16  16  16  16  16
#     4  12  24  42  74 103 135 180 232 282 350 414
#     4  12  24  39  66 106 133 171 234 288 325 411
#     4  11  21  42  66  95 134 175 221 280 336 394
#     4  11  22  41  68  96 136 176 234 275 334 415
#     4  10  21  41  66  95 134 183 220 275 349 405
#
# _framework density 19.374295
#
# number of rings (size 3 to 8) (size 9 to 14) (size 15 to 20)
#    0.000    0.800    8.000    1.200    0.000    0.800 
#    0.000    1.000    0.000    1.200    0.000    0.000 
#    0.000    0.000    0.000    0.000    0.000    0.000 
#
# Total GULP energy -222951.548751 kJ/mol
# GULP energy per Si atom -5573.788719 kJ/mol
# Density = 1.933020 g / cm^3
# Si number density = 19.374295 Si / 1000 Ang^3
#
#
#
# Elastic Constant Matrix: (Units=GPa)
#
#
# Indices 1 2 3 4 5 6 
#
# 1 123.1518 39.0682 38.0442 0.0000 0.0000 0.0000
# 2 39.0682 60.1887 -8.4408 0.0000 0.0000 0.0000
# 3 38.0442 -8.4408 73.7257 0.0000 0.0000 0.0000
# 4 0.0000 0.0000 0.0000 -20.3522 0.0000 0.0000
# 5 0.0000 0.0000 0.0000 0.0000 -10.8840 0.0000
# 6 0.0000 0.0000 0.0000 0.0000 0.0000 34.9334
#
#
#
# Elastic Compliance Matrix: (Units=1/GPa)
#
#
# Indices 1 2 3 4 5 6 
#
# 1 0.013951 -0.010229 -0.008370 0.000000 0.000000 0.000000
# 2 -0.010229 0.024386 0.008070 0.000000 0.000000 0.000000
# 3 -0.008370 0.008070 0.018807 0.000000 0.000000 0.000000
# 4 0.000000 0.000000 0.000000 -0.049135 0.000000 0.000000
# 5 0.000000 0.000000 0.000000 0.000000 -0.091878 0.000000
# 6 0.000000 0.000000 0.000000 0.000000 0.000000 0.028626
#
#
# Mechanical properties :
#
#
# Convention : Reuss Voigt Hill
#
# Bulk Modulus (GPa) = 27.71158 43.82329 35.76743
# Shear Modulus (GPa) = -225.66975 13.29907 -106.18534
#
# Velocity S-wave (km/s) = -10.80425 2.62282 -7.41123
# Velocity P-wave (km/s) = 11.88731 5.64275 7.39822
#
# Compressibility (1/GPa) = 0.03608599
#
# Stress axis : x y z
#
# Youngs Moduli (GPa) = 71.68013 41.00718 53.17179
#
# Poissons Ratio (x) = 0.41947 0.44505
# Poissons Ratio (y) = 0.73324 -0.42912
# Poissons Ratio (z) = 0.59997 -0.33095
#
# Static dielectric constant tensor:
#      x y z
#    x 1.656060 0.000000 0.000000 
#    y 0.000000 2.198010 0.000000 
#    z 0.000000 0.000000 1.703250 
# 
# From -- ./inp_files/45197.got.cif
#   From: 2010.05.17/outbox.cif.g08.bks.cpg/sg68_23_cif.got.tgz:45197.got - 2010.06.03 18:57:09.
