data_PCOD9508307
_publ_section_title
;
Structure prediction by ZEFSAII (Michael W. Deem and Ramdas Pophale) SiO2 
 PCOD9508307
Probable space group: C C C A
;
_chemical_formula_sum "Si O2"
_cell_formula_units_Z 64
_cell_length_a 13.135874
_cell_length_b 14.025403
_cell_length_c 12.180890
_cell_angle_alpha 90.000000
_cell_angle_beta 90.000000
_cell_angle_gamma 90.000000
_cell_volume 2244.157556
_symmetry_space_group_name_H-M "C C C A"
_symmetry_group_IT_number 68
_space_group.IT_coordinate_system_code '2'
_symmetry_cell_setting 'orthorhombic'
loop_
_space_group_symop_operation_xyz
x,y,z
-x,1/2-y,z
x,1/2-y,1/2-z
-x,y,1/2-z
-x,-y,-z
x,1/2+y,-z
-x,1/2+y,1/2+z
x,-y,1/2+z
1/2+x,1/2+y,z
1/2-x,-y,z
1/2+x,-y,1/2-z
1/2-x,1/2+y,1/2-z
1/2-x,1/2-y,-z
1/2+x,y,-z
1/2-x,y,1/2+z
1/2+x,1/2-y,1/2+z
loop_
_atom_site_type_symbol
_atom_site_label
_atom_site_fract_x
_atom_site_fract_y
_atom_site_fract_z
Si Si1 0.368321 0.702391 0.431534
Si Si2 0.695772 0.101089 0.339315
Si Si3 0.870810 0.385384 0.302830
Si Si4 0.531102 0.931096 0.599238
O O1 0.248884 0.677010 0.419638
O O2 0.393243 0.809752 0.397353
O O3 0.409147 0.645257 0.319439
O O4 0.412708 0.656588 0.540588
O O5 0.749700 0.122693 0.222908
O O6 0.575289 0.103045 0.347866
O O7 0.750000 0.000000 0.372418
O O8 0.903518 0.491881 0.331053
O O9 0.500000 0.000000 0.500000
#
# Coordination Sequence:
#
# PCOD9508307 Si02
#       4
#    16  16  16  16
#     4   9  22  50  82 115 174 222 288 351 439 521
#     4  10  21  46  76 120 166 217 279 347 439 506
#     4   9  23  50  82 117 173 228 280 361 436 520
#     4  12  23  44  82 124 163 218 295 355 426 523
#
# _framework density 28.518497
#
# number of rings (size 3 to 8) (size 9 to 14) (size 15 to 20)
#    1.500    0.500    2.500    0.000    0.000    5.000 
#    9.000    8.750   16.500    0.000    0.000    0.000 
#    0.000    0.000    0.000    0.000    0.000    0.000 
#
# Total GULP energy -179143.132008 kJ/mol
# GULP energy per Si atom -5598.222875 kJ/mol
# Density = 2.845359 g / cm^3
# Si number density = 28.518497 Si / 1000 Ang^3
#
#
#
# Elastic Constant Matrix: (Units=GPa)
#
#
# Indices 1 2 3 4 5 6 
#
# 1 219.7345 104.1688 99.0536 0.0000 0.0000 0.0000
# 2 104.1688 199.6410 73.7700 0.0000 0.0000 0.0000
# 3 99.0536 73.7700 134.8031 0.0000 0.0000 0.0000
# 4 0.0000 0.0000 0.0000 67.3202 0.0000 0.0000
# 5 0.0000 0.0000 0.0000 0.0000 59.9657 0.0000
# 6 0.0000 0.0000 0.0000 0.0000 0.0000 47.3046
#
#
#
# Elastic Compliance Matrix: (Units=1/GPa)
#
#
# Indices 1 2 3 4 5 6 
#
# 1 0.007617 -0.002390 -0.004290 0.000000 0.000000 0.000000
# 2 -0.002390 0.007028 -0.002090 0.000000 0.000000 0.000000
# 3 -0.004290 -0.002090 0.011714 0.000000 0.000000 0.000000
# 4 0.000000 0.000000 0.000000 0.014854 0.000000 0.000000
# 5 0.000000 0.000000 0.000000 0.000000 0.016676 0.000000
# 6 0.000000 0.000000 0.000000 0.000000 0.000000 0.021140
#
#
# Mechanical properties :
#
#
# Convention : Reuss Voigt Hill
#
# Bulk Modulus (GPa) = 113.36788 123.12925 118.24856
# Shear Modulus (GPa) = 50.24650 53.39715 51.82183
#
# Velocity S-wave (km/s) = 4.20204 4.33178 4.26741
# Velocity P-wave (km/s) = 7.96126 8.26366 8.11387
#
# Compressibility (1/GPa) = 0.00882084
#
# Stress axis : x y z
#
# Youngs Moduli (GPa) = 131.27674 142.28377 85.36664
#
# Poissons Ratio (x) = 0.34000 0.36620
# Poissons Ratio (y) = 0.31370 0.17844
# Poissons Ratio (z) = 0.56313 0.29741
#
# Static dielectric constant tensor:
#      x y z
#    x 0.639980 0.000000 0.000000 
#    y 0.000000 2.159690 0.000000 
#    z 0.000000 0.000000 2.343750 
# 
# From -- ./inp_files/12835.got.cif
#   From: 2010.05.17/outbox.cif.g08.bks.cpg/sg68_7_cif.got.tgz:12835.got - 2010.06.03 18:57:09.
