data_PCOD9508042
_publ_section_title
;
Structure prediction by ZEFSAII (Michael W. Deem and Ramdas Pophale) SiO2 
 PCOD9508042
Probable space group: C C C A
;
_chemical_formula_sum "Si O2"
_cell_formula_units_Z 104
_cell_length_a 24.822709
_cell_length_b 21.782817
_cell_length_c 9.173828
_cell_angle_alpha 90.000000
_cell_angle_beta 90.000000
_cell_angle_gamma 90.000000
_cell_volume 4960.367030
_symmetry_space_group_name_H-M "C C C A"
_symmetry_group_IT_number 68
_space_group.IT_coordinate_system_code '2'
_symmetry_cell_setting 'orthorhombic'
loop_
_space_group_symop_operation_xyz
x,y,z
-x,1/2-y,z
x,1/2-y,1/2-z
-x,y,1/2-z
-x,-y,-z
x,1/2+y,-z
-x,1/2+y,1/2+z
x,-y,1/2+z
1/2+x,1/2+y,z
1/2-x,-y,z
1/2+x,-y,1/2-z
1/2-x,1/2+y,1/2-z
1/2-x,1/2-y,-z
1/2+x,y,-z
1/2-x,y,1/2+z
1/2+x,1/2-y,1/2+z
loop_
_atom_site_type_symbol
_atom_site_label
_atom_site_fract_x
_atom_site_fract_y
_atom_site_fract_z
Si Si1 0.500000 0.354926 0.750000
Si Si2 0.112611 0.750000 0.250000
Si Si3 0.861544 0.750000 0.750000
Si Si4 0.694564 0.134694 0.889775
Si Si5 0.939996 0.306424 0.488591
Si Si6 0.809772 0.631389 0.265562
Si Si7 0.604391 0.936345 0.916872
Si Si8 0.899281 0.945733 0.751493
O O1 0.494424 0.315178 0.603307
O O2 0.447814 0.397301 0.758869
O O3 0.073091 0.742781 0.387755
O O4 0.152949 0.807837 0.251377
O O5 0.828489 0.797940 0.848069
O O6 0.896904 0.790113 0.638257
O O7 0.752464 0.133978 0.813205
O O8 0.652817 0.084491 0.827111
O O9 0.698553 0.123627 0.062199
O O10 0.928809 0.373001 0.563284
O O11 0.843565 0.580145 0.179382
O O12 0.579672 0.993323 0.831181
O O13 0.615146 0.956699 0.082573
#
# Coordination Sequence:
#
# PCOD9508042 Si02
#       8
#     8   8   8  16  16  16  16  16
#     4  10  22  43  72 100 128 187 230 284 352 428
#     4  10  21  40  66 100 139 173 220 293 332 416
#     4  12  21  41  66  93 141 180 228 284 336 420
#     4  12  24  39  65 100 135 185 226 281 341 424
#     4  10  22  41  69 102 136 179 235 283 356 410
#     4  11  24  39  65  99 138 178 226 273 354 405
#     4  10  22  43  65  97 134 176 224 295 340 429
#     4  11  23  43  68  96 135 175 235 285 353 406
#
# _framework density 20.966190000000001
#
# number of rings (size 3 to 8) (size 9 to 14) (size 15 to 20)
#    0.000    1.231    4.615    2.308    2.154    4.615 
#    0.000    3.077    0.000   24.000    0.000    0.000 
#    0.000    0.000    0.000    0.000    0.000    0.000 
#
# Total GULP energy -290341.843854 kJ/mol
# GULP energy per Si atom -5583.496997 kJ/mol
# Density = 2.091847 g / cm^3
# Si number density = 20.966190 Si / 1000 Ang^3
#
#
#
# Elastic Constant Matrix: (Units=GPa)
#
#
# Indices 1 2 3 4 5 6 
#
# 1 73.9903 26.6467 65.7215 0.0000 0.0000 0.0000
# 2 26.6467 79.7149 27.8353 0.0000 0.0000 0.0000
# 3 65.7215 27.8353 185.4293 0.0000 0.0000 0.0000
# 4 0.0000 0.0000 0.0000 -10.4338 0.0000 0.0000
# 5 0.0000 0.0000 0.0000 0.0000 39.5566 0.0000
# 6 0.0000 0.0000 0.0000 0.0000 0.0000 7.4509
#
#
#
# Elastic Compliance Matrix: (Units=1/GPa)
#
#
# Indices 1 2 3 4 5 6 
#
# 1 0.021291 -0.004730 -0.006836 0.000000 0.000000 0.000000
# 2 -0.004730 0.014289 -0.000469 0.000000 0.000000 0.000000
# 3 -0.006836 -0.000469 0.007886 0.000000 0.000000 0.000000
# 4 0.000000 0.000000 0.000000 -0.095843 0.000000 0.000000
# 5 0.000000 0.000000 0.000000 0.000000 0.025280 0.000000
# 6 0.000000 0.000000 0.000000 0.000000 0.000000 0.134212
#
#
# Mechanical properties :
#
#
# Convention : Reuss Voigt Hill
#
# Bulk Modulus (GPa) = 51.55387 64.39352 57.97369
# Shear Modulus (GPa) = 36.32387 21.91016 29.11702
#
# Velocity S-wave (km/s) = 4.16684 3.23619 3.73065
# Velocity P-wave (km/s) = 6.91322 6.68907 6.80206
#
# Compressibility (1/GPa) = 0.01939719
#
# Stress axis : x y z
#
# Youngs Moduli (GPa) = 46.96866 69.98182 126.80495
#
# Poissons Ratio (x) = 0.33101 0.86684
# Poissons Ratio (y) = 0.22216 0.05942
# Poissons Ratio (z) = 0.32108 0.03279
#
# Static dielectric constant tensor:
#      x y z
#    x 1.739520 0.000000 0.000000 
#    y 0.000000 1.845360 0.000000 
#    z 0.000000 0.000000 1.745360 
# 
# From -- ./inp_files/9049.got.cif
#   From: 2010.05.17/outbox.cif.g08.bks.cpg/sg68_5_cif.got.tgz:9049.got - 2010.06.03 18:57:09.
