data_PCOD9508744
_publ_section_title
;
Structure prediction by ZEFSAII (Michael W. Deem and Ramdas Pophale) SiO2 
 PCOD9508744
Probable space group: C C C A
;
_chemical_formula_sum "Si O2"
_cell_formula_units_Z 92
_cell_length_a 14.647181
_cell_length_b 18.925689
_cell_length_c 14.256160
_cell_angle_alpha 90.000000
_cell_angle_beta 90.000000
_cell_angle_gamma 90.000000
_cell_volume 3951.921492
_symmetry_space_group_name_H-M "C C C A"
_symmetry_group_IT_number 68
_space_group.IT_coordinate_system_code '2'
_symmetry_cell_setting 'orthorhombic'
loop_
_space_group_symop_operation_xyz
x,y,z
-x,1/2-y,z
x,1/2-y,1/2-z
-x,y,1/2-z
-x,-y,-z
x,1/2+y,-z
-x,1/2+y,1/2+z
x,-y,1/2+z
1/2+x,1/2+y,z
1/2-x,-y,z
1/2+x,-y,1/2-z
1/2-x,1/2+y,1/2-z
1/2-x,1/2-y,-z
1/2+x,y,-z
1/2-x,y,1/2+z
1/2+x,1/2-y,1/2+z
loop_
_atom_site_type_symbol
_atom_site_label
_atom_site_fract_x
_atom_site_fract_y
_atom_site_fract_z
Si Si1 0.457161 0.086951 0.160130
Si Si2 0.250000 0.500000 0.640539
Si Si3 0.703555 0.648253 0.759087
Si Si4 0.635970 0.831255 0.384058
Si Si5 0.500000 0.750000 0.250000
Si Si6 0.394607 0.015702 0.523026
Si Si7 0.912224 0.799724 0.084486
O O1 0.500000 0.045877 0.250000
O O2 0.395189 0.144984 0.209966
O O3 0.537322 0.123434 0.100041
O O4 0.382706 0.043837 0.102425
O O5 0.263093 0.571606 0.700830
O O6 0.334914 0.499294 0.568117
O O7 0.776328 0.671241 0.682399
O O8 0.675603 0.696274 0.847924
O O9 0.557593 0.801429 0.316841
O O10 0.624537 0.910706 0.424810
O O11 0.626672 0.787378 0.480506
O O12 0.500000 0.000000 0.500000
O O13 0.000000 0.750000 0.100047
#
# Coordination Sequence:
#
# PCOD9508744 Si02
#       7
#    16   8  16  16   4  16  16
#     4  10  22  41  69 111 143 192 247 300 380 457
#     4  12  24  44  70 116 154 192 260 320 404 462
#     4  11  25  44  75 109 149 197 249 323 384 461
#     4  12  26  49  71 108 150 193 263 315 396 458
#     4  12  32  48  72 104 144 208 254 324 384 464
#     4  12  23  41  76 105 150 205 246 316 404 471
#     4  11  24  50  77 106 152 205 261 315 385 479
#
# _framework density 23.279814999999999
#
# number of rings (size 3 to 8) (size 9 to 14) (size 15 to 20)
#    0.000    0.696    4.348    3.130    3.652    4.522 
#    0.000    1.739    0.000    0.000    0.000    0.000 
#    0.000    0.000    0.000    0.000    0.000    0.000 
#
# Total GULP energy -256694.999936 kJ/mol
# GULP energy per Si atom -5580.326086 kJ/mol
# Density = 2.322683 g / cm^3
# Si number density = 23.279815 Si / 1000 Ang^3
#
#
#
# Elastic Constant Matrix: (Units=GPa)
#
#
# Indices 1 2 3 4 5 6 
#
# 1 147.8999 37.7810 85.1614 0.0000 0.0000 0.0000
# 2 37.7810 91.1758 45.6444 0.0000 0.0000 0.0000
# 3 85.1614 45.6444 170.3819 0.0000 0.0000 0.0000
# 4 0.0000 0.0000 0.0000 0.1065 0.0000 0.0000
# 5 0.0000 0.0000 0.0000 0.0000 49.8525 0.0000
# 6 0.0000 0.0000 0.0000 0.0000 0.0000 34.9471
#
#
#
# Elastic Compliance Matrix: (Units=1/GPa)
#
#
# Indices 1 2 3 4 5 6 
#
# 1 0.009756 -0.001850 -0.004381 0.000000 0.000000 0.000000
# 2 -0.001850 0.013017 -0.002563 0.000000 0.000000 0.000000
# 3 -0.004381 -0.002563 0.008745 0.000000 0.000000 0.000000
# 4 0.000000 0.000000 0.000000 9.390273 0.000000 0.000000
# 5 0.000000 0.000000 0.000000 0.000000 0.020059 0.000000
# 6 0.000000 0.000000 0.000000 0.000000 0.000000 0.028615
#
#
# Mechanical properties :
#
#
# Convention : Reuss Voigt Hill
#
# Bulk Modulus (GPa) = 71.77546 82.95906 77.36726
# Shear Modulus (GPa) = 0.52672 33.03927 16.78299
#
# Velocity S-wave (km/s) = 0.47618 3.77135 2.68792
# Velocity P-wave (km/s) = 5.58578 7.39439 6.55278
#
# Compressibility (1/GPa) = 0.01393234
#
# Stress axis : x y z
#
# Youngs Moduli (GPa) = 102.49661 76.82134 114.34489
#
# Poissons Ratio (x) = 0.14209 0.50095
# Poissons Ratio (y) = 0.18958 0.29304
# Poissons Ratio (z) = 0.44904 0.19688
#
# Static dielectric constant tensor:
#      x y z
#    x 1.891090 0.000000 0.000000 
#    y 0.000000 2.043720 0.000000 
#    z 0.000000 0.000000 2.061100 
# 
# From -- ./inp_files/22424.got.cif
#   From: 2010.05.17/outbox.cif.g08.bks.cpg/sg68_12_cif.got.tgz:22424.got - 2010.06.03 18:57:09.
