data_PCOD9508710
_publ_section_title
;
Structure prediction by ZEFSAII (Michael W. Deem and Ramdas Pophale) SiO2 
 PCOD9508710
Probable space group: C C C A
;
_chemical_formula_sum "Si O2"
_cell_formula_units_Z 64
_cell_length_a 26.131492
_cell_length_b 8.394548
_cell_length_c 13.267640
_cell_angle_alpha 90.000000
_cell_angle_beta 90.000000
_cell_angle_gamma 90.000000
_cell_volume 2910.416894
_symmetry_space_group_name_H-M "C C C A"
_symmetry_group_IT_number 68
_space_group.IT_coordinate_system_code '2'
_symmetry_cell_setting 'orthorhombic'
loop_
_space_group_symop_operation_xyz
x,y,z
-x,1/2-y,z
x,1/2-y,1/2-z
-x,y,1/2-z
-x,-y,-z
x,1/2+y,-z
-x,1/2+y,1/2+z
x,-y,1/2+z
1/2+x,1/2+y,z
1/2-x,-y,z
1/2+x,-y,1/2-z
1/2-x,1/2+y,1/2-z
1/2-x,1/2-y,-z
1/2+x,y,-z
1/2-x,y,1/2+z
1/2+x,1/2-y,1/2+z
loop_
_atom_site_type_symbol
_atom_site_label
_atom_site_fract_x
_atom_site_fract_y
_atom_site_fract_z
Si Si1 0.711197 0.869492 0.441484
Si Si2 0.961658 0.881030 0.945335
Si Si3 0.871445 0.154231 0.601588
Si Si4 0.128778 0.504875 0.812207
O O1 0.750000 0.750000 0.500000
O O2 0.672835 0.916973 0.531430
O O3 0.750000 0.000000 0.402039
O O4 0.669817 0.861932 0.349585
O O5 0.000000 0.750000 0.903436
O O6 0.925742 0.950938 0.859206
O O7 0.921809 0.826097 0.032666
O O8 0.000000 0.000000 0.000000
O O9 0.877084 0.034654 0.694844
O O10 0.856727 0.331196 0.639898
#
# Coordination Sequence:
#
# PCOD9508710 Si02
#       4
#    16  16  16  16
#     4  11  22  41  66  95 133 175 217 273 338 399
#     4  11  22  41  66  94 131 174 218 275 338 396
#     4  10  22  41  65  95 131 169 225 274 330 393
#     4  10  22  41  65  96 129 174 222 274 326 397
#
# _framework density 21.989975000000001
#
# number of rings (size 3 to 8) (size 9 to 14) (size 15 to 20)
#    0.000    1.500    5.000    0.000    0.000    2.000 
#    0.000    5.000    0.000    0.000    0.000    0.000 
#    0.000    0.000    0.000    0.000    0.000    0.000 
#
# Total GULP energy -178257.407413 kJ/mol
# GULP energy per Si atom -5570.543982 kJ/mol
# Density = 2.193993 g / cm^3
# Si number density = 21.989975 Si / 1000 Ang^3
#
#
#
# Elastic Constant Matrix: (Units=GPa)
#
#
# Indices 1 2 3 4 5 6 
#
# 1 156.8628 28.1154 54.9938 0.0000 0.0000 0.0000
# 2 28.1154 41.3536 21.2297 0.0000 0.0000 0.0000
# 3 54.9938 21.2297 137.2519 0.0000 0.0000 0.0000
# 4 0.0000 0.0000 0.0000 33.9261 0.0000 0.0000
# 5 0.0000 0.0000 0.0000 0.0000 9.2065 0.0000
# 6 0.0000 0.0000 0.0000 0.0000 0.0000 50.3276
#
#
#
# Elastic Compliance Matrix: (Units=1/GPa)
#
#
# Indices 1 2 3 4 5 6 
#
# 1 0.008017 -0.004130 -0.002574 0.000000 0.000000 0.000000
# 2 -0.004130 0.028395 -0.002737 0.000000 0.000000 0.000000
# 3 -0.002574 -0.002737 0.008740 0.000000 0.000000 0.000000
# 4 0.000000 0.000000 0.000000 0.029476 0.000000 0.000000
# 5 0.000000 0.000000 0.000000 0.000000 0.108619 0.000000
# 6 0.000000 0.000000 0.000000 0.000000 0.000000 0.019870
#
#
# Mechanical properties :
#
#
# Convention : Reuss Voigt Hill
#
# Bulk Modulus (GPa) = 38.06442 60.46069 49.26255
# Shear Modulus (GPa) = 21.66791 34.10065 27.88428
#
# Velocity S-wave (km/s) = 3.14244 3.94221 3.56483
# Velocity P-wave (km/s) = 5.52395 6.94807 6.27653
#
# Compressibility (1/GPa) = 0.02627126
#
# Stress axis : x y z
#
# Youngs Moduli (GPa) = 124.72764 35.21800 114.41015
#
# Poissons Ratio (x) = 0.14544 0.29445
# Poissons Ratio (y) = 0.51508 0.31318
# Poissons Ratio (z) = 0.32101 0.09640
#
# Static dielectric constant tensor:
#      x y z
#    x 1.818530 0.000000 0.000000 
#    y 0.000000 1.860740 0.000000 
#    z 0.000000 0.000000 1.548810 
# 
# From -- ./inp_files/19196.got.cif
#   From: 2010.05.17/outbox.cif.g08.bks.cpg/sg68_10_cif.got.tgz:19196.got - 2010.06.03 18:57:09.
