data_PCOD9508035
_publ_section_title
;
Structure prediction by ZEFSAII (Michael W. Deem and Ramdas Pophale) SiO2 
 PCOD9508035
Probable space group: C C C A
;
_chemical_formula_sum "Si O2"
_cell_formula_units_Z 44
_cell_length_a 15.015023
_cell_length_b 4.737617
_cell_length_c 27.354131
_cell_angle_alpha 90.000000
_cell_angle_beta 90.000000
_cell_angle_gamma 90.000000
_cell_volume 1945.847822
_symmetry_space_group_name_H-M "C C C A"
_symmetry_group_IT_number 68
_space_group.IT_coordinate_system_code '2'
_symmetry_cell_setting 'orthorhombic'
loop_
_space_group_symop_operation_xyz
x,y,z
-x,1/2-y,z
x,1/2-y,1/2-z
-x,y,1/2-z
-x,-y,-z
x,1/2+y,-z
-x,1/2+y,1/2+z
x,-y,1/2+z
1/2+x,1/2+y,z
1/2-x,-y,z
1/2+x,-y,1/2-z
1/2-x,1/2+y,1/2-z
1/2-x,1/2-y,-z
1/2+x,y,-z
1/2-x,y,1/2+z
1/2+x,1/2-y,1/2+z
loop_
_atom_site_type_symbol
_atom_site_label
_atom_site_fract_x
_atom_site_fract_y
_atom_site_fract_z
Si Si1 0.603667 0.278876 0.466585
Si Si2 0.118211 0.750000 0.250000
Si Si3 0.750000 0.500000 0.829220
Si Si4 0.750000 0.000000 0.397177
Si Si5 0.500000 0.750000 0.250000
O O1 0.500000 0.250000 0.451415
O O2 0.616923 0.599926 0.483232
O O3 0.674077 0.154737 0.428904
O O4 0.175746 0.622771 0.206613
O O5 0.064225 0.485810 0.273554
O O6 0.786788 0.751194 0.862783
#
# Coordination Sequence:
#
# PCOD9508035 Si02
#       5
#    16   8   8   8   4
#     4  10  21  40  65  93 135 182 222 270 341 417
#     4  11  23  46  67  97 132 188 224 283 347 432
#     4  12  25  43  70  94 140 174 230 279 349 400
#     4  12  23  39  64 106 130 182 222 293 333 410
#     4  10  22  42  74  94 120 172 248 266 346 414
#
# _framework density 22.61225
#
# number of rings (size 3 to 8) (size 9 to 14) (size 15 to 20)
#    0.000    1.091    0.000    7.636    0.000    0.000 
#   13.091    0.000    4.000    0.000    0.000    0.000 
#    0.000    0.000    0.000    0.000    0.000    0.000 
#
# Total GULP energy -122855.239051 kJ/mol
# GULP energy per Si atom -5584.329048 kJ/mol
# Density = 2.256078 g / cm^3
# Si number density = 22.612250 Si / 1000 Ang^3
#
#
#
# Elastic Constant Matrix: (Units=GPa)
#
#
# Indices 1 2 3 4 5 6 
#
# 1 128.2360 61.3591 65.9660 0.0000 0.0000 0.0000
# 2 61.3591 148.0113 29.0352 0.0000 0.0000 0.0000
# 3 65.9660 29.0352 85.5645 0.0000 0.0000 0.0000
# 4 0.0000 0.0000 0.0000 18.7376 0.0000 0.0000
# 5 0.0000 0.0000 0.0000 0.0000 8.3984 0.0000
# 6 0.0000 0.0000 0.0000 0.0000 0.0000 56.9290
#
#
#
# Elastic Compliance Matrix: (Units=1/GPa)
#
#
# Indices 1 2 3 4 5 6 
#
# 1 0.015064 -0.004249 -0.010171 0.000000 0.000000 0.000000
# 2 -0.004249 0.008437 0.000413 0.000000 0.000000 0.000000
# 3 -0.010171 0.000413 0.019389 0.000000 0.000000 0.000000
# 4 0.000000 0.000000 0.000000 0.053369 0.000000 0.000000
# 5 0.000000 0.000000 0.000000 0.000000 0.119070 0.000000
# 6 0.000000 0.000000 0.000000 0.000000 0.000000 0.017566
#
#
# Mechanical properties :
#
#
# Convention : Reuss Voigt Hill
#
# Bulk Modulus (GPa) = 67.23245 74.94804 71.09024
# Shear Modulus (GPa) = 18.80643 30.50977 24.65810
#
# Velocity S-wave (km/s) = 2.88704 3.67721 3.30582
# Velocity P-wave (km/s) = 6.39614 7.15863 6.78810
#
# Compressibility (1/GPa) = 0.01487377
#
# Stress axis : x y z
#
# Youngs Moduli (GPa) = 66.38483 118.52805 51.57691
#
# Poissons Ratio (x) = 0.50368 0.52461
# Poissons Ratio (y) = 0.28210 -0.02131
# Poissons Ratio (z) = 0.67522 -0.04897
#
# Static dielectric constant tensor:
#      x y z
#    x 1.904300 0.000000 0.000000 
#    y 0.000000 1.816150 0.000000 
#    z 0.000000 0.000000 1.822310 
# 
# From -- ./inp_files/50558.got.cif
#   From: 2010.05.17/outbox.cif.g08.bks.cpg/sg68_26_cif.got.tgz:50558.got - 2010.06.03 18:57:09.
