data_PCOD9508923
_publ_section_title
;
Structure prediction by ZEFSAII (Michael W. Deem and Ramdas Pophale) SiO2 
 PCOD9508923
Probable space group: C C C A
;
_chemical_formula_sum "Si O2"
_cell_formula_units_Z 64
_cell_length_a 10.735849
_cell_length_b 10.593041
_cell_length_c 23.146357
_cell_angle_alpha 90.000000
_cell_angle_beta 90.000000
_cell_angle_gamma 90.000000
_cell_volume 2632.326130
_symmetry_space_group_name_H-M "C C C A"
_symmetry_group_IT_number 68
_space_group.IT_coordinate_system_code '2'
_symmetry_cell_setting 'orthorhombic'
loop_
_space_group_symop_operation_xyz
x,y,z
-x,1/2-y,z
x,1/2-y,1/2-z
-x,y,1/2-z
-x,-y,-z
x,1/2+y,-z
-x,1/2+y,1/2+z
x,-y,1/2+z
1/2+x,1/2+y,z
1/2-x,-y,z
1/2+x,-y,1/2-z
1/2-x,1/2+y,1/2-z
1/2-x,1/2-y,-z
1/2+x,y,-z
1/2-x,y,1/2+z
1/2+x,1/2-y,1/2+z
loop_
_atom_site_type_symbol
_atom_site_label
_atom_site_fract_x
_atom_site_fract_y
_atom_site_fract_z
Si Si1 0.918777 0.501371 0.139921
Si Si2 0.071576 0.625852 0.976610
Si Si3 0.326173 0.117925 0.405783
Si Si4 0.218269 0.701436 0.814165
O O1 0.869666 0.437086 0.080181
O O2 0.908051 0.380399 0.181451
O O3 0.830294 0.606560 0.167566
O O4 0.050106 0.567505 0.126432
O O5 0.000000 0.750000 0.954190
O O6 0.136976 0.683653 0.034118
O O7 0.000000 0.500000 0.000000
O O8 0.237805 0.189401 0.361259
O O9 0.250000 0.000000 0.428576
O O10 0.236500 0.750000 0.750000
#
# Coordination Sequence:
#
# PCOD9508923 Si02
#       4
#    16  16  16  16
#     4  10  25  47  71 103 146 183 248 315 370 455
#     4  10  22  43  71 107 151 197 239 309 391 452
#     4  11  25  42  73 109 143 193 243 296 386 451
#     4  11  26  48  73 101 141 199 251 304 384 439
#
# _framework density 24.313099000000001
#
# number of rings (size 3 to 8) (size 9 to 14) (size 15 to 20)
#    0.000    1.500    0.000    3.750   14.000    3.000 
#    0.000    1.250    0.000    0.000    0.000    0.000 
#    0.000    0.000    0.000    0.000    0.000    0.000 
#
# Total GULP energy -178556.116584 kJ/mol
# GULP energy per Si atom -5579.878643 kJ/mol
# Density = 2.425776 g / cm^3
# Si number density = 24.313099 Si / 1000 Ang^3
#
#
#
# Elastic Constant Matrix: (Units=GPa)
#
#
# Indices 1 2 3 4 5 6 
#
# 1 42.8710 19.6354 5.6637 0.0000 0.0000 0.0000
# 2 19.6354 88.6735 40.4880 0.0000 0.0000 0.0000
# 3 5.6637 40.4880 152.7484 0.0000 0.0000 0.0000
# 4 0.0000 0.0000 0.0000 46.7335 0.0000 0.0000
# 5 0.0000 0.0000 0.0000 0.0000 25.6107 0.0000
# 6 0.0000 0.0000 0.0000 0.0000 0.0000 48.2650
#
#
#
# Elastic Compliance Matrix: (Units=1/GPa)
#
#
# Indices 1 2 3 4 5 6 
#
# 1 0.026013 -0.006052 0.000640 0.000000 0.000000 0.000000
# 2 -0.006052 0.014238 -0.003550 0.000000 0.000000 0.000000
# 3 0.000640 -0.003550 0.007464 0.000000 0.000000 0.000000
# 4 0.000000 0.000000 0.000000 0.021398 0.000000 0.000000
# 5 0.000000 0.000000 0.000000 0.000000 0.039046 0.000000
# 6 0.000000 0.000000 0.000000 0.000000 0.000000 0.020719
#
#
# Mechanical properties :
#
#
# Convention : Reuss Voigt Hill
#
# Bulk Modulus (GPa) = 33.56726 46.20746 39.88736
# Shear Modulus (GPa) = 31.90132 38.68889 35.29510
#
# Velocity S-wave (km/s) = 3.62623 3.99341 3.81424
# Velocity P-wave (km/s) = 5.60080 6.34898 5.98659
#
# Compressibility (1/GPa) = 0.02979093
#
# Stress axis : x y z
#
# Youngs Moduli (GPa) = 38.44189 70.23325 133.97866
#
# Poissons Ratio (x) = 0.42507 -0.08571
# Poissons Ratio (y) = 0.23266 0.47558
# Poissons Ratio (z) = -0.02459 0.24930
#
# Static dielectric constant tensor:
#      x y z
#    x 1.865950 0.000000 0.000000 
#    y 0.000000 1.974940 0.000000 
#    z 0.000000 0.000000 1.917060 
# 
# From -- ./inp_files/37033.got.cif
#   From: 2010.05.17/outbox.cif.g08.bks.cpg/sg68_19_cif.got.tgz:37033.got - 2010.06.03 18:57:09.
