data_PCOD9508356
_publ_section_title
;
Structure prediction by ZEFSAII (Michael W. Deem and Ramdas Pophale) SiO2 
 PCOD9508356
Probable space group: C C C A
;
_chemical_formula_sum "Si O2"
_cell_formula_units_Z 96
_cell_length_a 18.495136
_cell_length_b 10.191748
_cell_length_c 28.697800
_cell_angle_alpha 90.000000
_cell_angle_beta 90.000000
_cell_angle_gamma 90.000000
_cell_volume 5409.471170
_symmetry_space_group_name_H-M "C C C A"
_symmetry_group_IT_number 68
_space_group.IT_coordinate_system_code '2'
_symmetry_cell_setting 'orthorhombic'
loop_
_space_group_symop_operation_xyz
x,y,z
-x,1/2-y,z
x,1/2-y,1/2-z
-x,y,1/2-z
-x,-y,-z
x,1/2+y,-z
-x,1/2+y,1/2+z
x,-y,1/2+z
1/2+x,1/2+y,z
1/2-x,-y,z
1/2+x,-y,1/2-z
1/2-x,1/2+y,1/2-z
1/2-x,1/2-y,-z
1/2+x,y,-z
1/2-x,y,1/2+z
1/2+x,1/2-y,1/2+z
loop_
_atom_site_type_symbol
_atom_site_label
_atom_site_fract_x
_atom_site_fract_y
_atom_site_fract_z
Si Si1 0.419644 0.244934 0.805537
Si Si2 0.078991 0.496759 0.023986
Si Si3 0.637356 0.446453 0.877908
Si Si4 0.280376 0.215696 0.379197
Si Si5 0.829322 0.266469 0.522532
Si Si6 0.224068 0.857319 0.708365
O O1 0.500000 0.250000 0.825749
O O2 0.426810 0.250000 0.750000
O O3 0.388854 0.114096 0.829271
O O4 0.357842 0.354816 0.812547
O O5 0.081109 0.460856 0.079401
O O6 0.122342 0.634176 0.018586
O O7 0.126915 0.385175 0.999625
O O8 0.000000 0.500000 0.000000
O O9 0.670992 0.588551 0.869388
O O10 0.702372 0.347688 0.892820
O O11 0.313926 0.289357 0.422937
O O12 0.272104 0.304389 0.334003
O O13 0.750000 0.250000 0.500000
O O14 0.226418 0.750000 0.750000
O O15 0.250000 0.000000 0.723942
#
# Coordination Sequence:
#
# PCOD9508356 Si02
#       6
#    16  16  16  16  16  16
#     4   9  19  35  58  85 114 152 193 235 290 362
#     4  11  23  38  58  87 119 154 198 245 297 347
#     4   9  18  36  59  82 111 159 193 235 301 347
#     4   9  19  36  59  81 116 151 196 239 287 352
#     4  11  21  39  60  84 113 158 197 237 288 350
#     4  10  22  36  60  93 116 146 193 250 295 342
#
# _framework density 17.746651
#
# number of rings (size 3 to 8) (size 9 to 14) (size 15 to 20)
#    0.000    2.167    1.667    1.000    7.000    2.667 
#    3.000    0.000    0.000    0.000    0.000    0.000 
#    0.000    0.000    0.000    0.000    0.000    0.000 
#
# Total GULP energy -267208.458653 kJ/mol
# GULP energy per Si atom -5566.842889 kJ/mol
# Density = 1.770626 g / cm^3
# Si number density = 17.746651 Si / 1000 Ang^3
#
#
#
# Elastic Constant Matrix: (Units=GPa)
#
#
# Indices 1 2 3 4 5 6 
#
# 1 105.8690 33.3036 41.9933 0.0000 0.0000 0.0000
# 2 33.3036 71.9388 41.9937 0.0000 0.0000 0.0000
# 3 41.9933 41.9937 97.8100 0.0000 0.0000 0.0000
# 4 0.0000 0.0000 0.0000 32.9434 0.0000 0.0000
# 5 0.0000 0.0000 0.0000 0.0000 26.3760 0.0000
# 6 0.0000 0.0000 0.0000 0.0000 0.0000 16.7912
#
#
#
# Elastic Compliance Matrix: (Units=1/GPa)
#
#
# Indices 1 2 3 4 5 6 
#
# 1 0.011974 -0.003393 -0.003684 0.000000 0.000000 0.000000
# 2 -0.003393 0.019511 -0.006920 0.000000 0.000000 0.000000
# 3 -0.003684 -0.006920 0.014777 0.000000 0.000000 0.000000
# 4 0.000000 0.000000 0.000000 0.030355 0.000000 0.000000
# 5 0.000000 0.000000 0.000000 0.000000 0.037913 0.000000
# 6 0.000000 0.000000 0.000000 0.000000 0.000000 0.059555
#
#
# Mechanical properties :
#
#
# Convention : Reuss Voigt Hill
#
# Bulk Modulus (GPa) = 54.74191 56.68876 55.71534
# Shear Modulus (GPa) = 24.01891 25.77725 24.89808
#
# Velocity S-wave (km/s) = 3.68289 3.81532 3.74969
# Velocity P-wave (km/s) = 6.99987 7.17089 7.08590
#
# Compressibility (1/GPa) = 0.01826754
#
# Stress axis : x y z
#
# Youngs Moduli (GPa) = 83.51211 51.25325 67.67338
#
# Poissons Ratio (x) = 0.17389 0.24933
# Poissons Ratio (y) = 0.28333 0.46831
# Poissons Ratio (z) = 0.30769 0.35468
#
# Static dielectric constant tensor:
#      x y z
#    x 1.653060 0.000000 0.000000 
#    y 0.000000 1.579670 0.000000 
#    z 0.000000 0.000000 1.621400 
# 
# From -- ./inp_files/51749.got.cif
#   From: 2010.05.17/outbox.cif.g08.bks.cpg/sg68_26_cif.got.tgz:51749.got - 2010.06.03 18:57:09.
