data_PCOD9508258
_publ_section_title
;
Structure prediction by ZEFSAII (Michael W. Deem and Ramdas Pophale) SiO2 
 PCOD9508258
Probable space group: C C C A
;
_chemical_formula_sum "Si O2"
_cell_formula_units_Z 60
_cell_length_a 11.959489
_cell_length_b 9.366241
_cell_length_c 24.474408
_cell_angle_alpha 90.000000
_cell_angle_beta 90.000000
_cell_angle_gamma 90.000000
_cell_volume 2741.511978
_symmetry_space_group_name_H-M "C C C A"
_symmetry_group_IT_number 68
_space_group.IT_coordinate_system_code '2'
_symmetry_cell_setting 'orthorhombic'
loop_
_space_group_symop_operation_xyz
x,y,z
-x,1/2-y,z
x,1/2-y,1/2-z
-x,y,1/2-z
-x,-y,-z
x,1/2+y,-z
-x,1/2+y,1/2+z
x,-y,1/2+z
1/2+x,1/2+y,z
1/2-x,-y,z
1/2+x,-y,1/2-z
1/2-x,1/2+y,1/2-z
1/2-x,1/2-y,-z
1/2+x,y,-z
1/2-x,y,1/2+z
1/2+x,1/2-y,1/2+z
loop_
_atom_site_type_symbol
_atom_site_label
_atom_site_fract_x
_atom_site_fract_y
_atom_site_fract_z
Si Si1 0.500000 0.250000 0.396841
Si Si2 0.734231 0.829186 0.942668
Si Si3 0.584215 0.087731 0.198502
Si Si4 0.000000 0.250000 0.250000
Si Si5 0.685550 0.222789 0.673639
O O1 0.392442 0.287105 0.430315
O O2 0.516475 0.380822 0.356004
O O3 0.803672 0.769670 0.889585
O O4 0.750000 0.000000 0.946348
O O5 0.750000 0.750000 0.000000
O O6 0.500000 0.094770 0.250000
O O7 0.686845 0.203230 0.195424
O O8 0.636354 0.933348 0.187132
O O9 0.906040 0.183901 0.292559
#
# Coordination Sequence:
#
# PCOD9508258 Si02
#       5
#     8  16  16   4  16
#     4  10  25  43  72 104 143 191 244 300 376 448
#     4  11  28  49  77 104 144 196 258 317 382 446
#     4  10  21  43  69 101 148 190 237 296 367 453
#     4  12  24  42  66 110 150 188 228 308 362 452
#     4  10  25  42  68 105 145 190 246 297 373 443
#
# _framework density 21.885732999999998
#
# number of rings (size 3 to 8) (size 9 to 14) (size 15 to 20)
#    0.000    1.600    1.333    0.400   18.667    2.133 
#    0.000    0.000    0.000    0.000    0.000    0.000 
#    0.000    0.000    0.000    0.000    0.000    0.000 
#
# Total GULP energy -167003.799464 kJ/mol
# GULP energy per Si atom -5566.793315 kJ/mol
# Density = 2.183592 g / cm^3
# Si number density = 21.885733 Si / 1000 Ang^3
#
#
#
# Elastic Constant Matrix: (Units=GPa)
#
#
# Indices 1 2 3 4 5 6 
#
# 1 171.0439 38.3593 120.4870 0.0000 0.0000 0.0000
# 2 38.3593 103.0913 86.2209 0.0000 0.0000 0.0000
# 3 120.4870 86.2209 251.5148 0.0000 0.0000 0.0000
# 4 0.0000 0.0000 0.0000 30.6680 0.0000 0.0000
# 5 0.0000 0.0000 0.0000 0.0000 -98.0960 0.0000
# 6 0.0000 0.0000 0.0000 0.0000 0.0000 28.1304
#
#
#
# Elastic Compliance Matrix: (Units=1/GPa)
#
#
# Indices 1 2 3 4 5 6 
#
# 1 0.008833 0.000354 -0.004353 0.000000 0.000000 0.000000
# 2 0.000354 0.013613 -0.004836 0.000000 0.000000 0.000000
# 3 -0.004353 -0.004836 0.007719 0.000000 0.000000 0.000000
# 4 0.000000 0.000000 0.000000 0.032607 0.000000 0.000000
# 5 0.000000 0.000000 0.000000 0.000000 -0.010194 0.000000
# 6 0.000000 0.000000 0.000000 0.000000 0.000000 0.035549
#
#
# Mechanical properties :
#
#
# Convention : Reuss Voigt Hill
#
# Bulk Modulus (GPa) = 80.03173 112.86490 96.44832
# Shear Modulus (GPa) = 45.46979 10.84600 28.15789
#
# Velocity S-wave (km/s) = 4.56301 2.22856 3.59079
# Velocity P-wave (km/s) = 8.02551 7.63571 7.83303
#
# Compressibility (1/GPa) = 0.01249504
#
# Stress axis : x y z
#
# Youngs Moduli (GPa) = 113.20725 73.45767 129.55077
#
# Poissons Ratio (x) = -0.02598 0.56391
# Poissons Ratio (y) = -0.04004 0.62653
# Poissons Ratio (z) = 0.49277 0.35525
#
# Static dielectric constant tensor:
#      x y z
#    x 1.868210 0.000000 0.000000 
#    y 0.000000 1.842070 0.000000 
#    z 0.000000 0.000000 1.793340 
# 
# From -- ./inp_files/37071.got.cif
#   From: 2010.05.17/outbox.cif.g08.bks.cpg/sg68_19_cif.got.tgz:37071.got - 2010.06.03 18:57:09.
