data_PCOD9508974
_publ_section_title
;
Structure prediction by ZEFSAII (Michael W. Deem and Ramdas Pophale) SiO2 
 PCOD9508974
Probable space group: C C C A
;
_chemical_formula_sum "Si O2"
_cell_formula_units_Z 92
_cell_length_a 8.516483
_cell_length_b 24.294685
_cell_length_c 22.316867
_cell_angle_alpha 90.000000
_cell_angle_beta 90.000000
_cell_angle_gamma 90.000000
_cell_volume 4617.477432
_symmetry_space_group_name_H-M "C C C A"
_symmetry_group_IT_number 68
_space_group.IT_coordinate_system_code '2'
_symmetry_cell_setting 'orthorhombic'
loop_
_space_group_symop_operation_xyz
x,y,z
-x,1/2-y,z
x,1/2-y,1/2-z
-x,y,1/2-z
-x,-y,-z
x,1/2+y,-z
-x,1/2+y,1/2+z
x,-y,1/2+z
1/2+x,1/2+y,z
1/2-x,-y,z
1/2+x,-y,1/2-z
1/2-x,1/2+y,1/2-z
1/2-x,1/2-y,-z
1/2+x,y,-z
1/2-x,y,1/2+z
1/2+x,1/2-y,1/2+z
loop_
_atom_site_type_symbol
_atom_site_label
_atom_site_fract_x
_atom_site_fract_y
_atom_site_fract_z
Si Si1 0.750000 0.000000 0.388934
Si Si2 0.006313 0.578674 0.821887
Si Si3 0.560918 0.093102 0.464516
Si Si4 0.127465 0.198281 0.165022
Si Si5 0.721122 0.935981 0.079555
Si Si6 0.161008 0.218249 0.553590
Si Si7 0.500000 0.250000 0.750000
O O1 0.879436 0.031353 0.348445
O O2 0.660456 0.046426 0.428906
O O3 0.070473 0.637263 0.846435
O O4 0.000000 0.576161 0.750000
O O5 0.836357 0.573365 0.853142
O O6 0.579401 0.079191 0.534570
O O7 0.382301 0.092981 0.440803
O O8 0.630904 0.154146 0.459298
O O9 0.245282 0.218062 0.115592
O O10 0.000000 0.250000 0.168499
O O11 0.142497 0.201785 0.236110
O O12 0.750000 0.000000 0.070973
O O13 0.250000 0.250000 0.500000
O O14 0.000000 0.250000 0.561178
#
# Coordination Sequence:
#
# PCOD9508974 Si02
#       7
#     8  16  16  16  16  16   4
#     4  12  24  44  70 104 142 182 234 286 356 420
#     4  12  26  45  72 100 141 187 238 290 346 419
#     4  12  25  43  69 103 139 181 229 284 357 427
#     4  10  22  44  70  95 131 184 236 282 343 413
#     4  12  25  42  67 100 136 182 227 283 345 419
#     4  12  27  43  67 107 141 177 226 298 359 413
#     4   8  20  40  74  88 124 184 238 266 342 408
#
# _framework density 19.924299000000001
#
# number of rings (size 3 to 8) (size 9 to 14) (size 15 to 20)
#    0.522    0.000    5.217    3.130    8.522    0.000 
#    0.000    0.435    0.000    0.000    0.000    0.000 
#    0.000    0.000    0.000    0.000    0.000    0.000 
#
# Total GULP energy -256177.740535 kJ/mol
# GULP energy per Si atom -5569.081316 kJ/mol
# Density = 1.987895 g / cm^3
# Si number density = 19.924299 Si / 1000 Ang^3
#
#
#
# Elastic Constant Matrix: (Units=GPa)
#
#
# Indices 1 2 3 4 5 6 
#
# 1 103.9427 45.8769 74.8107 0.0000 0.0000 0.0000
# 2 45.8769 145.6196 47.4835 0.0000 0.0000 0.0000
# 3 74.8107 47.4835 150.7553 0.0000 0.0000 0.0000
# 4 0.0000 0.0000 0.0000 24.0318 0.0000 0.0000
# 5 0.0000 0.0000 0.0000 0.0000 36.8483 0.0000
# 6 0.0000 0.0000 0.0000 0.0000 0.0000 27.0519
#
#
#
# Elastic Compliance Matrix: (Units=1/GPa)
#
#
# Indices 1 2 3 4 5 6 
#
# 1 0.015871 -0.002710 -0.007022 0.000000 0.000000 0.000000
# 2 -0.002710 0.008116 -0.001211 0.000000 0.000000 0.000000
# 3 -0.007022 -0.001211 0.010499 0.000000 0.000000 0.000000
# 4 0.000000 0.000000 0.000000 0.041612 0.000000 0.000000
# 5 0.000000 0.000000 0.000000 0.000000 0.027138 0.000000
# 6 0.000000 0.000000 0.000000 0.000000 0.000000 0.036966
#
#
# Mechanical properties :
#
#
# Convention : Reuss Voigt Hill
#
# Bulk Modulus (GPa) = 79.37198 81.85106 80.61152
# Shear Modulus (GPa) = 30.06804 33.06284 31.56544
#
# Velocity S-wave (km/s) = 3.88895 4.07802 3.98461
# Velocity P-wave (km/s) = 7.75167 7.95889 7.85596
#
# Compressibility (1/GPa) = 0.01259890
#
# Stress axis : x y z
#
# Youngs Moduli (GPa) = 63.00818 123.21218 95.24301
#
# Poissons Ratio (x) = 0.33394 0.66881
# Poissons Ratio (y) = 0.17077 0.11537
# Poissons Ratio (z) = 0.44245 0.14925
#
# Static dielectric constant tensor:
#      x y z
#    x 1.729810 0.000000 0.000000 
#    y 0.000000 1.754330 0.000000 
#    z 0.000000 0.000000 1.684000 
# 
# From -- ./inp_files/36322.got.cif
#   From: 2010.05.17/outbox.cif.g08.bks.cpg/sg68_19_cif.got.tgz:36322.got - 2010.06.03 18:57:09.
