data_PCOD9508169
_publ_section_title
;
Structure prediction by ZEFSAII (Michael W. Deem and Ramdas Pophale) SiO2 
 PCOD9508169
Probable space group: C C C A
;
_chemical_formula_sum "Si O2"
_cell_formula_units_Z 52
_cell_length_a 13.060374
_cell_length_b 16.787366
_cell_length_c 9.637918
_cell_angle_alpha 90.000000
_cell_angle_beta 90.000000
_cell_angle_gamma 90.000000
_cell_volume 2113.106567
_symmetry_space_group_name_H-M "C C C A"
_symmetry_group_IT_number 68
_space_group.IT_coordinate_system_code '2'
_symmetry_cell_setting 'orthorhombic'
loop_
_space_group_symop_operation_xyz
x,y,z
-x,1/2-y,z
x,1/2-y,1/2-z
-x,y,1/2-z
-x,-y,-z
x,1/2+y,-z
-x,1/2+y,1/2+z
x,-y,1/2+z
1/2+x,1/2+y,z
1/2-x,-y,z
1/2+x,-y,1/2-z
1/2-x,1/2+y,1/2-z
1/2-x,1/2-y,-z
1/2+x,y,-z
1/2-x,y,1/2+z
1/2+x,1/2-y,1/2+z
loop_
_atom_site_type_symbol
_atom_site_label
_atom_site_fract_x
_atom_site_fract_y
_atom_site_fract_z
Si Si1 0.500000 0.250000 0.750000
Si Si2 0.554495 0.398456 0.934397
Si Si3 0.695428 0.302454 0.121191
Si Si4 0.340743 0.441016 0.827604
O O1 0.549082 0.313365 0.854676
O O2 0.619258 0.453921 0.829162
O O3 0.610654 0.367428 0.071301
O O4 0.560279 0.565501 0.072116
O O5 0.656561 0.250000 0.250000
O O6 0.788724 0.355248 0.174683
O O7 0.750000 0.250000 0.000000
O O8 0.250000 0.500000 0.867477
#
# Coordination Sequence:
#
# PCOD9508169 Si02
#       4
#     4  16  16  16
#     4   8  16  40  70  92 132 194 224 292 400 432
#     4  10  21  41  73 100 145 197 250 312 386 464
#     4  12  23  43  74 113 148 196 257 324 389 468
#     4  10  23  43  71 102 148 206 251 310 401 467
#
# _framework density 24.608318000000001
#
# number of rings (size 3 to 8) (size 9 to 14) (size 15 to 20)
#    0.000    1.846    3.077    3.692    2.154    2.462 
#    0.000   10.000   13.538    0.000    0.000    0.000 
#    0.000    0.000    0.000    0.000    0.000    0.000 
#
# Total GULP energy -145024.155854 kJ/mol
# GULP energy per Si atom -5577.852148 kJ/mol
# Density = 2.455231 g / cm^3
# Si number density = 24.608318 Si / 1000 Ang^3
#
#
#
# Elastic Constant Matrix: (Units=GPa)
#
#
# Indices 1 2 3 4 5 6 
#
# 1 194.4289 60.2120 70.3318 0.0000 0.0000 0.0000
# 2 60.2120 70.9488 35.5264 0.0000 0.0000 0.0000
# 3 70.3318 35.5264 110.6223 0.0000 0.0000 0.0000
# 4 0.0000 0.0000 0.0000 44.0362 0.0000 0.0000
# 5 0.0000 0.0000 0.0000 0.0000 26.4919 0.0000
# 6 0.0000 0.0000 0.0000 0.0000 0.0000 53.2092
#
#
#
# Elastic Compliance Matrix: (Units=1/GPa)
#
#
# Indices 1 2 3 4 5 6 
#
# 1 0.007940 -0.005018 -0.003437 0.000000 0.000000 0.000000
# 2 -0.005018 0.019967 -0.003222 0.000000 0.000000 0.000000
# 3 -0.003437 -0.003222 0.012260 0.000000 0.000000 0.000000
# 4 0.000000 0.000000 0.000000 0.022709 0.000000 0.000000
# 5 0.000000 0.000000 0.000000 0.000000 0.037747 0.000000
# 6 0.000000 0.000000 0.000000 0.000000 0.000000 0.018794
#
#
# Mechanical properties :
#
#
# Convention : Reuss Voigt Hill
#
# Bulk Modulus (GPa) = 59.47745 78.68228 69.07987
# Shear Modulus (GPa) = 33.69853 38.74278 36.22065
#
# Velocity S-wave (km/s) = 3.70455 3.97215 3.84068
# Velocity P-wave (km/s) = 6.52076 7.28564 6.91379
#
# Compressibility (1/GPa) = 0.01681309
#
# Stress axis : x y z
#
# Youngs Moduli (GPa) = 125.93672 50.08382 81.56829
#
# Poissons Ratio (x) = 0.25131 0.28035
# Poissons Ratio (y) = 0.63193 0.26281
# Poissons Ratio (z) = 0.43284 0.16137
#
# Static dielectric constant tensor:
#      x y z
#    x 1.941730 0.000000 0.000000 
#    y 0.000000 1.983320 0.000000 
#    z 0.000000 0.000000 2.189460 
# 
# From -- ./inp_files/5573.got.cif
#   From: 2010.05.17/outbox.cif.g08.bks.cpg/sg68_3_cif.got.tgz:5573.got - 2010.06.03 18:57:09.
