data_PCOD9508566
_publ_section_title
;
Structure prediction by ZEFSAII (Michael W. Deem and Ramdas Pophale) SiO2 
 PCOD9508566
Probable space group: C C C A
;
_chemical_formula_sum "Si O2"
_cell_formula_units_Z 48
_cell_length_a 5.010888
_cell_length_b 16.089464
_cell_length_c 27.958933
_cell_angle_alpha 90.000000
_cell_angle_beta 90.000000
_cell_angle_gamma 90.000000
_cell_volume 2254.119134
_symmetry_space_group_name_H-M "C C C A"
_symmetry_group_IT_number 68
_space_group.IT_coordinate_system_code '2'
_symmetry_cell_setting 'orthorhombic'
loop_
_space_group_symop_operation_xyz
x,y,z
-x,1/2-y,z
x,1/2-y,1/2-z
-x,y,1/2-z
-x,-y,-z
x,1/2+y,-z
-x,1/2+y,1/2+z
x,-y,1/2+z
1/2+x,1/2+y,z
1/2-x,-y,z
1/2+x,-y,1/2-z
1/2-x,1/2+y,1/2-z
1/2-x,1/2-y,-z
1/2+x,y,-z
1/2-x,y,1/2+z
1/2+x,1/2-y,1/2+z
loop_
_atom_site_type_symbol
_atom_site_label
_atom_site_fract_x
_atom_site_fract_y
_atom_site_fract_z
Si Si1 0.758296 0.195880 0.124486
Si Si2 0.996002 0.059479 0.193490
Si Si3 0.259223 0.900186 0.969691
O O1 0.500000 0.250000 0.140995
O O2 0.916997 0.141595 0.164186
O O3 0.664548 0.137702 0.081159
O O4 0.000000 0.250000 0.103790
O O5 0.000000 0.079669 0.250000
O O6 0.750000 0.000000 0.184459
O O7 0.250000 0.000000 0.181771
O O8 0.250000 0.000000 0.964781
O O9 0.472303 0.875714 0.009899
#
# Coordination Sequence:
#
# PCOD9508566 Si02
#       3
#    16  16  16
#     4  12  25  39  62  96 131 163 198 256 325 377
#     4  10  22  43  68  90 118 164 217 261 305 371
#     4  10  22  40  62  87 119 164 212 253 297 363
#
# _framework density 21.294349
#
# number of rings (size 3 to 8) (size 9 to 14) (size 15 to 20)
#    0.000    1.333    0.000    5.000    0.000    8.667 
#    0.000    1.667    0.000    0.000    0.000    0.000 
#    0.000    0.000    0.000    0.000    0.000    0.000 
#
# Total GULP energy -133902.137749 kJ/mol
# GULP energy per Si atom -5579.255740 kJ/mol
# Density = 2.124588 g / cm^3
# Si number density = 21.294349 Si / 1000 Ang^3
#
#
#
# Elastic Constant Matrix: (Units=GPa)
#
#
# Indices 1 2 3 4 5 6 
#
# 1 151.5870 48.5724 34.0845 0.0000 0.0000 0.0000
# 2 48.5724 74.3494 57.6103 0.0000 0.0000 0.0000
# 3 34.0845 57.6103 66.4435 0.0000 0.0000 0.0000
# 4 0.0000 0.0000 0.0000 -430.6135 0.0000 0.0000
# 5 0.0000 0.0000 0.0000 0.0000 28.6587 0.0000
# 6 0.0000 0.0000 0.0000 0.0000 0.0000 46.6457
#
#
#
# Elastic Compliance Matrix: (Units=1/GPa)
#
#
# Indices 1 2 3 4 5 6 
#
# 1 0.008384 -0.006536 0.001366 0.000000 0.000000 0.000000
# 2 -0.006536 0.046082 -0.036603 0.000000 0.000000 0.000000
# 3 0.001366 -0.036603 0.046086 0.000000 0.000000 0.000000
# 4 0.000000 0.000000 0.000000 -0.002322 0.000000 0.000000
# 5 0.000000 0.000000 0.000000 0.000000 0.034893 0.000000
# 6 0.000000 0.000000 0.000000 0.000000 0.000000 0.021438
#
#
# Mechanical properties :
#
#
# Convention : Reuss Voigt Hill
#
# Bulk Modulus (GPa) = 58.79912 63.65713 61.22812
# Shear Modulus (GPa) = 20.51069 -60.92098 -20.20514
#
# Velocity S-wave (km/s) = 3.10691 -5.35454 -3.08368
# Velocity P-wave (km/s) = 6.36734 2.87564 4.01707
#
# Compressibility (1/GPa) = 0.01700706
#
# Stress axis : x y z
#
# Youngs Moduli (GPa) = 119.27582 21.70058 21.69841
#
# Poissons Ratio (x) = 0.14183 -0.02964
# Poissons Ratio (y) = 0.77954 0.79422
# Poissons Ratio (z) = -0.16292 0.79430
#
# Static dielectric constant tensor:
#      x y z
#    x 1.738730 0.000000 0.000000 
#    y 0.000000 1.784850 0.000000 
#    z 0.000000 0.000000 1.611610 
# 
# From -- ./inp_files/45767.got.cif
#   From: 2010.05.17/outbox.cif.g08.bks.cpg/sg68_23_cif.got.tgz:45767.got - 2010.06.03 18:57:09.
