data_PCOD9508992
_publ_section_title
;
Structure prediction by ZEFSAII (Michael W. Deem and Ramdas Pophale) SiO2 
 PCOD9508992
Probable space group: C C C A
;
_chemical_formula_sum "Si O2"
_cell_formula_units_Z 92
_cell_length_a 21.304779
_cell_length_b 9.887129
_cell_length_c 18.887556
_cell_angle_alpha 90.000000
_cell_angle_beta 90.000000
_cell_angle_gamma 90.000000
_cell_volume 3978.533315
_symmetry_space_group_name_H-M "C C C A"
_symmetry_group_IT_number 68
_space_group.IT_coordinate_system_code '2'
_symmetry_cell_setting 'orthorhombic'
loop_
_space_group_symop_operation_xyz
x,y,z
-x,1/2-y,z
x,1/2-y,1/2-z
-x,y,1/2-z
-x,-y,-z
x,1/2+y,-z
-x,1/2+y,1/2+z
x,-y,1/2+z
1/2+x,1/2+y,z
1/2-x,-y,z
1/2+x,-y,1/2-z
1/2-x,1/2+y,1/2-z
1/2-x,1/2-y,-z
1/2+x,y,-z
1/2-x,y,1/2+z
1/2+x,1/2-y,1/2+z
loop_
_atom_site_type_symbol
_atom_site_label
_atom_site_fract_x
_atom_site_fract_y
_atom_site_fract_z
Si Si1 0.750000 0.500000 0.031921
Si Si2 0.708818 0.617563 0.270278
Si Si3 0.147884 0.182874 0.601715
Si Si4 0.655040 0.982701 0.595541
Si Si5 0.597528 0.585125 0.163453
Si Si6 0.000000 0.250000 0.250000
Si Si7 0.573157 0.710317 0.455355
O O1 0.694892 0.540067 0.976320
O O2 0.784795 0.615596 0.078765
O O3 0.745953 0.750000 0.250000
O O4 0.750000 0.500000 0.241131
O O5 0.691353 0.583375 0.350733
O O6 0.647685 0.622615 0.222552
O O7 0.151392 0.335412 0.631445
O O8 0.107100 0.204806 0.530474
O O9 0.109534 0.071114 0.646062
O O10 0.590537 0.063303 0.578638
O O11 0.535197 0.646479 0.197719
O O12 0.605127 0.673374 0.092465
O O13 0.500000 0.750000 0.461181
#
# Coordination Sequence:
#
# PCOD9508992 Si02
#       7
#     8  16  16  16  16   4  16
#     4  10  22  44  74 110 160 200 230 302 390 464
#     4  12  27  46  73 106 146 197 248 298 363 447
#     4  11  27  42  74 117 146 187 249 316 377 435
#     4  11  23  45  72 106 152 193 247 299 379 439
#     4  12  26  48  77 106 142 199 255 297 374 443
#     4  12  24  56  80  94 148 216 254 292 360 468
#     4  11  23  48  76 101 145 195 249 303 370 453
#
# _framework density 23.124099999999999
#
# number of rings (size 3 to 8) (size 9 to 14) (size 15 to 20)
#    0.000    0.696    4.348    2.609    3.652    4.174 
#    0.000    0.000    3.826    0.000    0.000    0.000 
#    0.000    0.000    0.000    0.000    0.000    0.000 
#
# Total GULP energy -256923.624846 kJ/mol
# GULP energy per Si atom -5585.296192 kJ/mol
# Density = 2.307147 g / cm^3
# Si number density = 23.124100 Si / 1000 Ang^3
#
#
#
# Elastic Constant Matrix: (Units=GPa)
#
#
# Indices 1 2 3 4 5 6 
#
# 1 113.1359 53.4790 25.2525 0.0000 0.0000 0.0000
# 2 53.4790 199.4603 22.0562 0.0000 0.0000 0.0000
# 3 25.2525 22.0562 76.2908 0.0000 0.0000 0.0000
# 4 0.0000 0.0000 0.0000 47.9455 0.0000 0.0000
# 5 0.0000 0.0000 0.0000 0.0000 -14.2528 0.0000
# 6 0.0000 0.0000 0.0000 0.0000 0.0000 36.4227
#
#
#
# Elastic Compliance Matrix: (Units=1/GPa)
#
#
# Indices 1 2 3 4 5 6 
#
# 1 0.010669 -0.002552 -0.002794 0.000000 0.000000 0.000000
# 2 -0.002552 0.005789 -0.000829 0.000000 0.000000 0.000000
# 3 -0.002794 -0.000829 0.014272 0.000000 0.000000 0.000000
# 4 0.000000 0.000000 0.000000 0.020857 0.000000 0.000000
# 5 0.000000 0.000000 0.000000 0.000000 -0.070162 0.000000
# 6 0.000000 0.000000 0.000000 0.000000 0.000000 0.027455
#
#
# Mechanical properties :
#
#
# Convention : Reuss Voigt Hill
#
# Bulk Modulus (GPa) = 54.40292 65.60690 60.00491
# Shear Modulus (GPa) = 182.77085 33.22969 108.00027
#
# Velocity S-wave (km/s) = 8.90004 3.79491 6.84149
# Velocity P-wave (km/s) = 11.36626 6.90181 9.40284
#
# Compressibility (1/GPa) = 0.01838136
#
# Stress axis : x y z
#
# Youngs Moduli (GPa) = 93.73314 172.73160 70.06637
#
# Poissons Ratio (x) = 0.44073 0.19574
# Poissons Ratio (y) = 0.23916 0.05810
# Poissons Ratio (z) = 0.26186 0.14322
#
# Static dielectric constant tensor:
#      x y z
#    x 1.818290 0.000000 0.000000 
#    y 0.000000 2.136170 0.000000 
#    z 0.000000 0.000000 1.879410 
# 
# From -- ./inp_files/46525.got.cif
#   From: 2010.05.17/outbox.cif.g08.bks.cpg/sg68_24_cif.got.tgz:46525.got - 2010.06.03 18:57:09.
