data_PCOD9508669
_publ_section_title
;
Structure prediction by ZEFSAII (Michael W. Deem and Ramdas Pophale) SiO2 
 PCOD9508669
Probable space group: C C C A
;
_chemical_formula_sum "Si O2"
_cell_formula_units_Z 88
_cell_length_a 29.300172
_cell_length_b 17.927470
_cell_length_c 8.345703
_cell_angle_alpha 90.000000
_cell_angle_beta 90.000000
_cell_angle_gamma 90.000000
_cell_volume 4383.813801
_symmetry_space_group_name_H-M "C C C A"
_symmetry_group_IT_number 68
_space_group.IT_coordinate_system_code '2'
_symmetry_cell_setting 'orthorhombic'
loop_
_space_group_symop_operation_xyz
x,y,z
-x,1/2-y,z
x,1/2-y,1/2-z
-x,y,1/2-z
-x,-y,-z
x,1/2+y,-z
-x,1/2+y,1/2+z
x,-y,1/2+z
1/2+x,1/2+y,z
1/2-x,-y,z
1/2+x,-y,1/2-z
1/2-x,1/2+y,1/2-z
1/2-x,1/2-y,-z
1/2+x,y,-z
1/2-x,y,1/2+z
1/2+x,1/2-y,1/2+z
loop_
_atom_site_type_symbol
_atom_site_label
_atom_site_fract_x
_atom_site_fract_y
_atom_site_fract_z
Si Si1 0.632770 0.328092 0.335899
Si Si2 0.788017 0.942188 0.735117
Si Si3 0.500000 0.975880 0.250000
Si Si4 0.211788 0.704167 0.905568
Si Si5 0.066341 0.441525 0.509072
Si Si6 0.349370 0.050538 0.061039
O O1 0.622092 0.250000 0.250000
O O2 0.673125 0.315901 0.465035
O O3 0.592021 0.368541 0.430222
O O4 0.645144 0.386406 0.194976
O O5 0.767863 0.870999 0.826073
O O6 0.822728 0.919876 0.594309
O O7 0.750000 0.000000 0.674811
O O8 0.817860 0.986798 0.863182
O O9 0.536499 0.929262 0.350857
O O10 0.469586 0.028332 0.362344
O O11 0.194687 0.750000 0.750000
O O12 0.250000 0.750000 0.000000
O O13 0.103583 0.507823 0.481791
#
# Coordination Sequence:
#
# PCOD9508669 Si02
#       6
#    16  16   8  16  16  16
#     4  12  26  47  70 103 145 191 239 294 372 437
#     4  12  26  40  67 101 135 187 253 306 346 421
#     4  10  22  40  79 115 142 168 248 296 360 444
#     4  12  29  47  66  95 143 192 242 302 365 419
#     4  11  21  44  75 111 141 188 230 303 365 438
#     4  12  23  45  72 101 141 189 245 296 363 436
#
# _framework density 20.073846
#
# number of rings (size 3 to 8) (size 9 to 14) (size 15 to 20)
#    0.000    0.364    5.455    2.182   10.182    0.000 
#    0.000    0.455    0.000    1.091    0.000    0.000 
#    0.000    0.000    0.000    0.000    0.000    0.000 
#
# Total GULP energy -246149.905466 kJ/mol
# GULP energy per Si atom -5594.316033 kJ/mol
# Density = 2.002816 g / cm^3
# Si number density = 20.073846 Si / 1000 Ang^3
#
#
#
# Elastic Constant Matrix: (Units=GPa)
#
#
# Indices 1 2 3 4 5 6 
#
# 1 124.1512 49.2030 62.4421 0.0000 0.0000 0.0000
# 2 49.2030 131.7678 60.1635 0.0000 0.0000 0.0000
# 3 62.4421 60.1635 126.6689 0.0000 0.0000 0.0000
# 4 0.0000 0.0000 0.0000 35.3148 0.0000 0.0000
# 5 0.0000 0.0000 0.0000 0.0000 43.4467 0.0000
# 6 0.0000 0.0000 0.0000 0.0000 0.0000 30.2211
#
#
#
# Elastic Compliance Matrix: (Units=1/GPa)
#
#
# Indices 1 2 3 4 5 6 
#
# 1 0.011152 -0.002112 -0.004494 0.000000 0.000000 0.000000
# 2 -0.002112 0.010091 -0.003752 0.000000 0.000000 0.000000
# 3 -0.004494 -0.003752 0.011892 0.000000 0.000000 0.000000
# 4 0.000000 0.000000 0.000000 0.028317 0.000000 0.000000
# 5 0.000000 0.000000 0.000000 0.000000 0.023017 0.000000
# 6 0.000000 0.000000 0.000000 0.000000 0.000000 0.033089
#
#
# Mechanical properties :
#
#
# Convention : Reuss Voigt Hill
#
# Bulk Modulus (GPa) = 80.52345 80.68945 80.60645
# Shear Modulus (GPa) = 35.10903 35.84848 35.47876
#
# Velocity S-wave (km/s) = 4.18663 4.23049 4.20862
# Velocity P-wave (km/s) = 7.97316 8.00914 7.99117
#
# Compressibility (1/GPa) = 0.01241874
#
# Stress axis : x y z
#
# Youngs Moduli (GPa) = 89.66815 99.10077 84.09075
#
# Poissons Ratio (x) = 0.20933 0.37793
# Poissons Ratio (y) = 0.18940 0.31547
# Poissons Ratio (z) = 0.40299 0.37178
#
# Static dielectric constant tensor:
#      x y z
#    x 1.704300 0.000000 0.000000 
#    y 0.000000 1.725650 0.000000 
#    z 0.000000 0.000000 1.752270 
# 
# From -- ./inp_files/9513.got.cif
#   From: 2010.05.17/outbox.cif.g08.bks.cpg/sg68_5_cif.got.tgz:9513.got - 2010.06.03 18:57:09.
