data_PCOD9508677
_publ_section_title
;
Structure prediction by ZEFSAII (Michael W. Deem and Ramdas Pophale) SiO2 
 PCOD9508677
Probable space group: C C C A
;
_chemical_formula_sum "Si O2"
_cell_formula_units_Z 116
_cell_length_a 9.245913
_cell_length_b 26.273027
_cell_length_c 25.073947
_cell_angle_alpha 90.000000
_cell_angle_beta 90.000000
_cell_angle_gamma 90.000000
_cell_volume 6090.916114
_symmetry_space_group_name_H-M "C C C A"
_symmetry_group_IT_number 68
_space_group.IT_coordinate_system_code '2'
_symmetry_cell_setting 'orthorhombic'
loop_
_space_group_symop_operation_xyz
x,y,z
-x,1/2-y,z
x,1/2-y,1/2-z
-x,y,1/2-z
-x,-y,-z
x,1/2+y,-z
-x,1/2+y,1/2+z
x,-y,1/2+z
1/2+x,1/2+y,z
1/2-x,-y,z
1/2+x,-y,1/2-z
1/2-x,1/2+y,1/2-z
1/2-x,1/2-y,-z
1/2+x,y,-z
1/2-x,y,1/2+z
1/2+x,1/2-y,1/2+z
loop_
_atom_site_type_symbol
_atom_site_label
_atom_site_fract_x
_atom_site_fract_y
_atom_site_fract_z
Si Si1 0.752447 0.168218 0.384865
Si Si2 0.809438 0.115019 0.485965
Si Si3 0.500000 0.250000 0.250000
Si Si4 0.214219 0.447767 0.145896
Si Si5 0.970665 0.646420 0.812656
Si Si6 0.441218 0.628876 0.601227
Si Si7 0.054288 0.047122 0.464028
Si Si8 0.211363 0.281389 0.659792
O O1 0.785731 0.163609 0.448286
O O2 0.607692 0.133897 0.382233
O O3 0.720317 0.225032 0.364277
O O4 0.884784 0.149639 0.348211
O O5 0.902567 0.124898 0.538931
O O6 0.668742 0.083384 0.504687
O O7 0.909931 0.078164 0.451219
O O8 0.391701 0.219152 0.288216
O O9 0.250000 0.500000 0.176042
O O10 0.115502 0.405511 0.174170
O O11 0.359496 0.417708 0.129458
O O12 0.132070 0.464795 0.091487
O O13 0.866478 0.693959 0.827527
O O14 0.000000 0.649112 0.750000
O O15 0.364576 0.680694 0.619117
O O16 0.000000 0.000000 0.500000
#
# Coordination Sequence:
#
# PCOD9508677 Si02
#       8
#    16  16   4  16  16  16  16  16
#     4  12  22  42  63  95 133 168 223 272 324 393
#     4  11  22  36  61  91 131 171 215 267 328 399
#     4  12  20  40  70  96 120 160 230 264 318 388
#     4  10  22  42  64  91 130 169 212 268 328 392
#     4  11  25  45  68  93 128 168 214 281 331 381
#     4  10  22  41  61  93 133 174 216 262 329 402
#     4  11  20  37  61  93 123 172 219 271 322 387
#     4  11  24  40  66  94 127 167 221 270 328 388
#
# _framework density 19.044754999999999
#
# number of rings (size 3 to 8) (size 9 to 14) (size 15 to 20)
#    0.000    1.103    4.138    3.310    0.000    1.103 
#    0.000    3.448    0.000    0.000    0.000    0.000 
#    0.000    0.000    0.000    0.000    0.000    0.000 
#
# Total GULP energy -323546.159873 kJ/mol
# GULP energy per Si atom -5578.382067 kJ/mol
# Density = 1.900141 g / cm^3
# Si number density = 19.044755 Si / 1000 Ang^3
#
#
#
# Elastic Constant Matrix: (Units=GPa)
#
#
# Indices 1 2 3 4 5 6 
#
# 1 136.4825 34.0617 37.2646 0.0000 0.0000 0.0000
# 2 34.0617 89.8843 14.7466 0.0000 0.0000 0.0000
# 3 37.2646 14.7466 57.1116 0.0000 0.0000 0.0000
# 4 0.0000 0.0000 0.0000 16.0249 0.0000 0.0000
# 5 0.0000 0.0000 0.0000 0.0000 10.9009 0.0000
# 6 0.0000 0.0000 0.0000 0.0000 0.0000 18.3961
#
#
#
# Elastic Compliance Matrix: (Units=1/GPa)
#
#
# Indices 1 2 3 4 5 6 
#
# 1 0.009503 -0.002698 -0.005504 0.000000 0.000000 0.000000
# 2 -0.002698 0.012384 -0.001437 0.000000 0.000000 0.000000
# 3 -0.005504 -0.001437 0.021472 0.000000 0.000000 0.000000
# 4 0.000000 0.000000 0.000000 0.062403 0.000000 0.000000
# 5 0.000000 0.000000 0.000000 0.000000 0.091736 0.000000
# 6 0.000000 0.000000 0.000000 0.000000 0.000000 0.054359
#
#
# Mechanical properties :
#
#
# Convention : Reuss Voigt Hill
#
# Bulk Modulus (GPa) = 41.52769 50.62489 46.07629
# Shear Modulus (GPa) = 17.91078 22.22476 20.06777
#
# Velocity S-wave (km/s) = 3.07001 3.41981 3.24962
# Velocity P-wave (km/s) = 5.86680 6.49871 6.19082
#
# Compressibility (1/GPa) = 0.02408032
#
# Stress axis : x y z
#
# Youngs Moduli (GPa) = 105.22869 80.75163 46.57255
#
# Poissons Ratio (x) = 0.21789 0.25633
# Poissons Ratio (y) = 0.28393 0.06692
# Poissons Ratio (z) = 0.57917 0.11604
#
# Static dielectric constant tensor:
#      x y z
#    x 1.745830 0.000000 0.000000 
#    y 0.000000 1.701510 0.000000 
#    z 0.000000 0.000000 1.693640 
# 
# From -- ./inp_files/43533.got.cif
#   From: 2010.05.17/outbox.cif.g08.bks.cpg/sg68_22_cif.got.tgz:43533.got - 2010.06.03 18:57:09.
