data_PCOD9508955
_publ_section_title
;
Structure prediction by ZEFSAII (Michael W. Deem and Ramdas Pophale) SiO2 
 PCOD9508955
Probable space group: C C C A
;
_chemical_formula_sum "Si O2"
_cell_formula_units_Z 84
_cell_length_a 20.230083
_cell_length_b 8.677675
_cell_length_c 20.150843
_cell_angle_alpha 90.000000
_cell_angle_beta 90.000000
_cell_angle_gamma 90.000000
_cell_volume 3537.482211
_symmetry_space_group_name_H-M "C C C A"
_symmetry_group_IT_number 68
_space_group.IT_coordinate_system_code '2'
_symmetry_cell_setting 'orthorhombic'
loop_
_space_group_symop_operation_xyz
x,y,z
-x,1/2-y,z
x,1/2-y,1/2-z
-x,y,1/2-z
-x,-y,-z
x,1/2+y,-z
-x,1/2+y,1/2+z
x,-y,1/2+z
1/2+x,1/2+y,z
1/2-x,-y,z
1/2+x,-y,1/2-z
1/2-x,1/2+y,1/2-z
1/2-x,1/2-y,-z
1/2+x,y,-z
1/2-x,y,1/2+z
1/2+x,1/2-y,1/2+z
loop_
_atom_site_type_symbol
_atom_site_label
_atom_site_fract_x
_atom_site_fract_y
_atom_site_fract_z
Si Si1 0.615146 0.689309 0.347031
Si Si2 0.109877 0.410652 0.469460
Si Si3 0.500000 0.250000 0.750000
Si Si4 0.718122 0.250000 0.750000
Si Si5 0.250000 0.000000 0.475981
Si Si6 0.430643 0.788039 0.595166
Si Si7 0.812674 0.138166 0.643344
O O1 0.606836 0.770886 0.417292
O O2 0.550061 0.668466 0.301829
O O3 0.665803 0.800989 0.306300
O O4 0.647847 0.522466 0.355725
O O5 0.182894 0.487356 0.481575
O O6 0.083851 0.338878 0.537876
O O7 0.066591 0.547067 0.439443
O O8 0.768203 0.150139 0.707479
O O9 0.265602 0.137689 0.422555
O O10 0.500000 0.750000 0.628496
O O11 0.366328 0.773069 0.640741
#
# Coordination Sequence:
#
# PCOD9508955 Si02
#       7
#    16  16   4   8   8  16  16
#     4  11  25  47  72 102 139 192 238 295 349 443
#     4  11  25  41  77  99 144 182 235 298 367 433
#     4  10  28  44  68  98 146 188 250 272 366 416
#     4  11  24  45  71 104 141 186 230 296 359 418
#     4  10  22  44  68 110 136 174 232 306 370 414
#     4  11  26  43  66 106 138 187 231 294 361 426
#     4  11  24  44  74  98 148 176 242 299 357 429
#
# _framework density 23.745701
#
# number of rings (size 3 to 8) (size 9 to 14) (size 15 to 20)
#    0.000    1.143    1.905    2.857    6.667    6.857 
#    0.000    0.000    0.000    0.000    0.000    0.000 
#    0.000    0.000    0.000    0.000    0.000    0.000 
#
# Total GULP energy -234378.228695 kJ/mol
# GULP energy per Si atom -5580.434017 kJ/mol
# Density = 2.369165 g / cm^3
# Si number density = 23.745701 Si / 1000 Ang^3
#
#
#
# Elastic Constant Matrix: (Units=GPa)
#
#
# Indices 1 2 3 4 5 6 
#
# 1 95.9621 20.1847 35.1106 0.0000 0.0000 0.0000
# 2 20.1847 64.5420 6.9546 0.0000 0.0000 0.0000
# 3 35.1106 6.9546 84.2339 0.0000 0.0000 0.0000
# 4 0.0000 0.0000 0.0000 -1.9898 0.0000 0.0000
# 5 0.0000 0.0000 0.0000 0.0000 15.7651 0.0000
# 6 0.0000 0.0000 0.0000 0.0000 0.0000 25.8492
#
#
#
# Elastic Compliance Matrix: (Units=1/GPa)
#
#
# Indices 1 2 3 4 5 6 
#
# 1 0.013045 -0.003525 -0.005147 0.000000 0.000000 0.000000
# 2 -0.003525 0.016585 0.000100 0.000000 0.000000 0.000000
# 3 -0.005147 0.000100 0.014009 0.000000 0.000000 0.000000
# 4 0.000000 0.000000 0.000000 -0.502571 0.000000 0.000000
# 5 0.000000 0.000000 0.000000 0.000000 0.063431 0.000000
# 6 0.000000 0.000000 0.000000 0.000000 0.000000 0.038686
#
#
# Mechanical properties :
#
#
# Convention : Reuss Voigt Hill
#
# Bulk Modulus (GPa) = 37.74152 41.02642 39.38397
# Shear Modulus (GPa) = -15.11309 20.09078 2.48884
#
# Velocity S-wave (km/s) = -2.52554 2.91190 1.02489
# Velocity P-wave (km/s) = 2.72471 5.34981 4.24526
#
# Compressibility (1/GPa) = 0.02649602
#
# Stress axis : x y z
#
# Youngs Moduli (GPa) = 76.65607 60.29379 71.38458
#
# Poissons Ratio (x) = 0.21255 0.36738
# Poissons Ratio (y) = 0.27023 -0.00714
# Poissons Ratio (z) = 0.39451 -0.00603
#
# Static dielectric constant tensor:
#      x y z
#    x 1.852950 0.000000 0.000000 
#    y 0.000000 1.970940 0.000000 
#    z 0.000000 0.000000 1.901720 
# 
# From -- ./inp_files/46455.got.cif
#   From: 2010.05.17/outbox.cif.g08.bks.cpg/sg68_24_cif.got.tgz:46455.got - 2010.06.03 18:57:09.
