data_PCOD9508709
_publ_section_title
;
Structure prediction by ZEFSAII (Michael W. Deem and Ramdas Pophale) SiO2 
 PCOD9508709
Probable space group: C C C A
;
_chemical_formula_sum "Si O2"
_cell_formula_units_Z 60
_cell_length_a 5.284840
_cell_length_b 16.146838
_cell_length_c 34.897926
_cell_angle_alpha 90.000000
_cell_angle_beta 90.000000
_cell_angle_gamma 90.000000
_cell_volume 2977.960610
_symmetry_space_group_name_H-M "C C C A"
_symmetry_group_IT_number 68
_space_group.IT_coordinate_system_code '2'
_symmetry_cell_setting 'orthorhombic'
loop_
_space_group_symop_operation_xyz
x,y,z
-x,1/2-y,z
x,1/2-y,1/2-z
-x,y,1/2-z
-x,-y,-z
x,1/2+y,-z
-x,1/2+y,1/2+z
x,-y,1/2+z
1/2+x,1/2+y,z
1/2-x,-y,z
1/2+x,-y,1/2-z
1/2-x,1/2+y,1/2-z
1/2-x,1/2-y,-z
1/2+x,y,-z
1/2-x,y,1/2+z
1/2+x,1/2-y,1/2+z
loop_
_atom_site_type_symbol
_atom_site_label
_atom_site_fract_x
_atom_site_fract_y
_atom_site_fract_z
Si Si1 0.744708 0.304368 0.901434
Si Si2 0.500000 0.750000 0.250000
Si Si3 0.244868 0.099546 0.978015
Si Si4 0.250000 0.000000 0.275649
Si Si5 0.680393 0.167807 0.184931
O O1 0.500000 0.250000 0.910604
O O2 0.766110 0.372826 0.934139
O O3 0.709571 0.336372 0.857911
O O4 0.000000 0.250000 0.902618
O O5 0.346660 0.694077 0.220989
O O6 0.250000 0.000000 0.979644
O O7 0.498471 0.129862 0.999064
O O8 0.500000 0.976419 0.250000
O O9 0.371596 0.073325 0.302235
O O10 0.500000 0.250000 0.182943
#
# Coordination Sequence:
#
# PCOD9508709 Si02
#       5
#    16   4  16   8  16
#     4  11  24  41  64  97 129 167 220 267 331 394
#     4  12  18  44  68  82 138 176 214 288 330 396
#     4  10  22  41  65  93 128 170 211 262 330 392
#     4  12  26  44  68 102 130 178 244 278 342 426
#     4  11  25  42  67  98 135 181 223 287 343 400
#
# _framework density 20.148015999999998
#
# number of rings (size 3 to 8) (size 9 to 14) (size 15 to 20)
#    0.000    1.067    2.667    3.600    1.867    3.200 
#    0.000    0.000    0.000    0.000    0.000    0.000 
#    0.000    0.000    0.000    0.000    0.000    0.000 
#
# Total GULP energy -167016.830743 kJ/mol
# GULP energy per Si atom -5567.227691 kJ/mol
# Density = 2.010216 g / cm^3
# Si number density = 20.148016 Si / 1000 Ang^3
#
#
#
# Elastic Constant Matrix: (Units=GPa)
#
#
# Indices 1 2 3 4 5 6 
#
# 1 110.9357 18.3228 38.4163 0.0000 0.0000 0.0000
# 2 18.3228 76.8832 29.5036 0.0000 0.0000 0.0000
# 3 38.4163 29.5036 163.7400 0.0000 0.0000 0.0000
# 4 0.0000 0.0000 0.0000 -174.9514 0.0000 0.0000
# 5 0.0000 0.0000 0.0000 0.0000 42.5824 0.0000
# 6 0.0000 0.0000 0.0000 0.0000 0.0000 -97.6970
#
#
#
# Elastic Compliance Matrix: (Units=1/GPa)
#
#
# Indices 1 2 3 4 5 6 
#
# 1 0.009989 -0.001591 -0.002057 0.000000 0.000000 0.000000
# 2 -0.001591 0.014226 -0.002190 0.000000 0.000000 0.000000
# 3 -0.002057 -0.002190 0.006984 0.000000 0.000000 0.000000
# 4 0.000000 0.000000 0.000000 -0.005716 0.000000 0.000000
# 5 0.000000 0.000000 0.000000 0.000000 0.023484 0.000000
# 6 0.000000 0.000000 0.000000 0.000000 0.000000 -0.010236
#
#
# Mechanical properties :
#
#
# Convention : Reuss Voigt Hill
#
# Bulk Modulus (GPa) = 51.22003 58.22714 54.72359
# Shear Modulus (GPa) = 87.84719 -28.32545 29.76087
#
# Velocity S-wave (km/s) = 6.61026 -3.75356 3.84749
# Velocity P-wave (km/s) = 9.15084 3.19011 6.85254
#
# Compressibility (1/GPa) = 0.01952361
#
# Stress axis : x y z
#
# Youngs Moduli (GPa) = 100.10646 70.29179 143.17509
#
# Poissons Ratio (x) = 0.11186 0.29450
# Poissons Ratio (y) = 0.15930 0.31356
# Poissons Ratio (z) = 0.20591 0.15394
#
# Static dielectric constant tensor:
#      x y z
#    x 1.760890 0.000000 0.000000 
#    y 0.000000 1.806550 0.000000 
#    z 0.000000 0.000000 2.925520 
# 
# From -- ./inp_files/48030.got.cif
#   From: 2010.05.17/outbox.cif.g08.bks.cpg/sg68_25_cif.got.tgz:48030.got - 2010.06.03 18:57:09.
