data_PCOD9508437
_publ_section_title
;
Structure prediction by ZEFSAII (Michael W. Deem and Ramdas Pophale) SiO2 
 PCOD9508437
Probable space group: C C C A
;
_chemical_formula_sum "Si O2"
_cell_formula_units_Z 72
_cell_length_a 27.250138
_cell_length_b 10.035089
_cell_length_c 11.978295
_cell_angle_alpha 90.000000
_cell_angle_beta 90.000000
_cell_angle_gamma 90.000000
_cell_volume 3275.555325
_symmetry_space_group_name_H-M "C C C A"
_symmetry_group_IT_number 68
_space_group.IT_coordinate_system_code '2'
_symmetry_cell_setting 'orthorhombic'
loop_
_space_group_symop_operation_xyz
x,y,z
-x,1/2-y,z
x,1/2-y,1/2-z
-x,y,1/2-z
-x,-y,-z
x,1/2+y,-z
-x,1/2+y,1/2+z
x,-y,1/2+z
1/2+x,1/2+y,z
1/2-x,-y,z
1/2+x,-y,1/2-z
1/2-x,1/2+y,1/2-z
1/2-x,1/2-y,-z
1/2+x,y,-z
1/2-x,y,1/2+z
1/2+x,1/2-y,1/2+z
loop_
_atom_site_type_symbol
_atom_site_label
_atom_site_fract_x
_atom_site_fract_y
_atom_site_fract_z
Si Si1 0.809072 0.250000 0.750000
Si Si2 0.143886 0.375713 0.967457
Si Si3 0.664810 0.859161 0.385671
Si Si4 0.923865 0.750000 0.750000
Si Si5 0.032118 0.128357 0.468827
Si Si6 0.750000 0.000000 0.244016
O O1 0.839411 0.179407 0.847871
O O2 0.778832 0.373194 0.806291
O O3 0.157059 0.529812 0.979581
O O4 0.169981 0.285667 0.060646
O O5 0.085630 0.368804 0.977560
O O6 0.614139 0.847104 0.315518
O O7 0.710054 0.916019 0.316258
O O8 0.955073 0.836300 0.661348
O O9 0.000000 0.250000 0.511469
O O10 0.000000 0.000000 0.500000
#
# Coordination Sequence:
#
# PCOD9508437 Si02
#       6
#     8  16  16   8  16   8
#     4  10  23  40  59  89 126 159 209 256 315 378
#     4  10  23  40  59  89 123 160 199 260 317 369
#     4  10  22  40  63  88 125 163 206 254 320 380
#     4  10  22  42  66  93 130 169 204 268 330 376
#     4  11  23  41  66  93 123 165 216 262 321 394
#     4  10  22  38  62  92 118 168 210 252 312 388
#
# _framework density 21.981006000000001
#
# number of rings (size 3 to 8) (size 9 to 14) (size 15 to 20)
#    0.000    1.778    0.000    3.667    0.000   16.889 
#    0.000    2.778    0.000    0.000    0.000    0.000 
#    0.000    0.000    0.000    0.000    0.000    0.000 
#
# Total GULP energy -200820.356149 kJ/mol
# GULP energy per Si atom -5578.343226 kJ/mol
# Density = 2.193098 g / cm^3
# Si number density = 21.981006 Si / 1000 Ang^3
#
#
#
# Elastic Constant Matrix: (Units=GPa)
#
#
# Indices 1 2 3 4 5 6 
#
# 1 114.3571 58.6852 46.7187 0.0000 0.0000 0.0000
# 2 58.6852 175.4699 38.4726 0.0000 0.0000 0.0000
# 3 46.7187 38.4726 61.5981 0.0000 0.0000 0.0000
# 4 0.0000 0.0000 0.0000 23.9256 0.0000 0.0000
# 5 0.0000 0.0000 0.0000 0.0000 22.5369 0.0000
# 6 0.0000 0.0000 0.0000 0.0000 0.0000 43.9113
#
#
#
# Elastic Compliance Matrix: (Units=1/GPa)
#
#
# Indices 1 2 3 4 5 6 
#
# 1 0.013666 -0.002663 -0.008702 0.000000 0.000000 0.000000
# 2 -0.002663 0.007122 -0.002429 0.000000 0.000000 0.000000
# 3 -0.008702 -0.002429 0.024351 0.000000 0.000000 0.000000
# 4 0.000000 0.000000 0.000000 0.041796 0.000000 0.000000
# 5 0.000000 0.000000 0.000000 0.000000 0.044372 0.000000
# 6 0.000000 0.000000 0.000000 0.000000 0.000000 0.022773
#
#
# Mechanical properties :
#
#
# Convention : Reuss Voigt Hill
#
# Bulk Modulus (GPa) = 56.97178 71.01980 63.99579
# Shear Modulus (GPa) = 26.66420 31.91134 29.28777
#
# Velocity S-wave (km/s) = 3.48667 3.81434 3.65418
# Velocity P-wave (km/s) = 6.49493 7.19574 6.85430
#
# Compressibility (1/GPa) = 0.01755255
#
# Stress axis : x y z
#
# Youngs Moduli (GPa) = 73.17480 140.41008 41.06592
#
# Poissons Ratio (x) = 0.37385 0.35735
# Poissons Ratio (y) = 0.19483 0.09974
# Poissons Ratio (z) = 0.63676 0.34103
#
# Static dielectric constant tensor:
#      x y z
#    x 1.784290 0.000000 0.000000 
#    y 0.000000 1.868440 0.000000 
#    z 0.000000 0.000000 1.871390 
# 
# From -- ./inp_files/25879.got.cif
#   From: 2010.05.17/outbox.cif.g08.bks.cpg/sg68_13_cif.got.tgz:25879.got - 2010.06.03 18:57:09.
