data_PCOD9508161
_publ_section_title
;
Structure prediction by ZEFSAII (Michael W. Deem and Ramdas Pophale) SiO2 
 PCOD9508161
Probable space group: C C C A
;
_chemical_formula_sum "Si O2"
_cell_formula_units_Z 88
_cell_length_a 15.257605
_cell_length_b 23.988557
_cell_length_c 11.229546
_cell_angle_alpha 90.000000
_cell_angle_beta 90.000000
_cell_angle_gamma 90.000000
_cell_volume 4110.102855
_symmetry_space_group_name_H-M "C C C A"
_symmetry_group_IT_number 68
_space_group.IT_coordinate_system_code '2'
_symmetry_cell_setting 'orthorhombic'
loop_
_space_group_symop_operation_xyz
x,y,z
-x,1/2-y,z
x,1/2-y,1/2-z
-x,y,1/2-z
-x,-y,-z
x,1/2+y,-z
-x,1/2+y,1/2+z
x,-y,1/2+z
1/2+x,1/2+y,z
1/2-x,-y,z
1/2+x,-y,1/2-z
1/2-x,1/2+y,1/2-z
1/2-x,1/2-y,-z
1/2+x,y,-z
1/2-x,y,1/2+z
1/2+x,1/2-y,1/2+z
loop_
_atom_site_type_symbol
_atom_site_label
_atom_site_fract_x
_atom_site_fract_y
_atom_site_fract_z
Si Si1 0.182762 0.620481 0.402400
Si Si2 0.410498 0.143626 0.318583
Si Si3 0.804765 0.245715 0.879602
Si Si4 0.000000 0.551054 0.750000
Si Si5 0.378715 0.911687 0.058747
Si Si6 0.346596 0.980113 0.423354
O O1 0.151752 0.606293 0.268363
O O2 0.152345 0.684982 0.399652
O O3 0.287823 0.618597 0.412661
O O4 0.154356 0.580369 0.510615
O O5 0.500000 0.151339 0.250000
O O6 0.369575 0.202506 0.359972
O O7 0.422279 0.110839 0.440047
O O8 0.755421 0.250000 0.750000
O O9 0.750000 0.250000 0.000000
O O10 0.943681 0.590266 0.666148
O O11 0.927235 0.518578 0.830126
O O12 0.360672 0.976473 0.030815
O O13 0.250000 0.000000 0.375313
#
# Coordination Sequence:
#
# PCOD9508161 Si02
#       6
#    16  16  16   8  16  16
#     4  10  23  44  71  96 139 183 235 286 354 429
#     4  11  24  43  72 105 139 182 237 297 353 430
#     4  10  21  41  70 101 135 183 238 286 355 424
#     4  12  26  42  68 103 144 175 240 292 342 426
#     4  11  25  41  68 100 138 188 229 291 357 415
#     4  10  25  43  67 100 140 190 233 291 358 424
#
# _framework density 21.410657
#
# number of rings (size 3 to 8) (size 9 to 14) (size 15 to 20)
#    0.000    1.455    1.818    1.636    8.909    4.000 
#    0.000    0.000    0.000    1.091    0.000    0.000 
#    0.000    0.000    0.000    0.000    0.000    0.000 
#
# Total GULP energy -245284.649900 kJ/mol
# GULP energy per Si atom -5574.651134 kJ/mol
# Density = 2.136192 g / cm^3
# Si number density = 21.410657 Si / 1000 Ang^3
#
#
#
# Elastic Constant Matrix: (Units=GPa)
#
#
# Indices 1 2 3 4 5 6 
#
# 1 112.5276 31.0235 55.1548 0.0000 0.0000 0.0000
# 2 31.0235 94.9767 32.8580 0.0000 0.0000 0.0000
# 3 55.1548 32.8580 106.3970 0.0000 0.0000 0.0000
# 4 0.0000 0.0000 0.0000 96.7484 0.0000 0.0000
# 5 0.0000 0.0000 0.0000 0.0000 51.9564 0.0000
# 6 0.0000 0.0000 0.0000 0.0000 0.0000 8.5263
#
#
#
# Elastic Compliance Matrix: (Units=1/GPa)
#
#
# Indices 1 2 3 4 5 6 
#
# 1 0.012251 -0.002020 -0.005727 0.000000 0.000000 0.000000
# 2 -0.002020 0.012122 -0.002696 0.000000 0.000000 0.000000
# 3 -0.005727 -0.002696 0.013200 0.000000 0.000000 0.000000
# 4 0.000000 0.000000 0.000000 0.010336 0.000000 0.000000
# 5 0.000000 0.000000 0.000000 0.000000 0.019247 0.000000
# 6 0.000000 0.000000 0.000000 0.000000 0.000000 0.117284
#
#
# Mechanical properties :
#
#
# Convention : Reuss Voigt Hill
#
# Bulk Modulus (GPa) = 59.93061 61.33044 60.63052
# Shear Modulus (GPa) = 23.70935 44.43721 34.07328
#
# Velocity S-wave (km/s) = 3.33132 4.56068 3.99358
# Velocity P-wave (km/s) = 6.54589 7.51266 7.04587
#
# Compressibility (1/GPa) = 0.01668596
#
# Stress axis : x y z
#
# Youngs Moduli (GPa) = 81.62873 82.49741 75.75776
#
# Poissons Ratio (x) = 0.16668 0.43383
# Poissons Ratio (y) = 0.16492 0.20425
# Poissons Ratio (z) = 0.46745 0.22242
#
# Static dielectric constant tensor:
#      x y z
#    x 1.808470 0.000000 0.000000 
#    y 0.000000 1.855380 0.000000 
#    z 0.000000 0.000000 1.848680 
# 
# From -- ./inp_files/13329.got.cif
#   From: 2010.05.17/outbox.cif.g08.bks.cpg/sg68_7_cif.got.tgz:13329.got - 2010.06.03 18:57:09.
