data_PCOD9508321
_publ_section_title
;
Structure prediction by ZEFSAII (Michael W. Deem and Ramdas Pophale) SiO2 
 PCOD9508321
Probable space group: C C C A
;
_chemical_formula_sum "Si O2"
_cell_formula_units_Z 72
_cell_length_a 28.688351
_cell_length_b 5.604600
_cell_length_c 22.032467
_cell_angle_alpha 90.000000
_cell_angle_beta 90.000000
_cell_angle_gamma 90.000000
_cell_volume 3542.528367
_symmetry_space_group_name_H-M "C C C A"
_symmetry_group_IT_number 68
_space_group.IT_coordinate_system_code '2'
_symmetry_cell_setting 'orthorhombic'
loop_
_space_group_symop_operation_xyz
x,y,z
-x,1/2-y,z
x,1/2-y,1/2-z
-x,y,1/2-z
-x,-y,-z
x,1/2+y,-z
-x,1/2+y,1/2+z
x,-y,1/2+z
1/2+x,1/2+y,z
1/2-x,-y,z
1/2+x,-y,1/2-z
1/2-x,1/2+y,1/2-z
1/2-x,1/2-y,-z
1/2+x,y,-z
1/2-x,y,1/2+z
1/2+x,1/2-y,1/2+z
loop_
_atom_site_type_symbol
_atom_site_label
_atom_site_fract_x
_atom_site_fract_y
_atom_site_fract_z
Si Si1 0.049115 0.648978 0.181254
Si Si2 0.806722 0.012041 0.466475
Si Si3 0.766284 0.743255 0.319033
Si Si4 0.091807 0.250000 0.250000
Si Si5 0.361896 0.093417 0.154092
O O1 0.053270 0.750000 0.250000
O O2 0.058882 0.375129 0.198865
O O3 0.091452 0.755575 0.142709
O O4 0.000000 0.750000 0.158427
O O5 0.818126 0.255494 0.502697
O O6 0.750000 0.000000 0.461740
O O7 0.837762 0.019814 0.404956
O O8 0.748113 0.750000 0.250000
O O9 0.750000 0.500000 0.350519
O O10 0.821673 0.734535 0.320768
O O11 0.750000 0.000000 0.342525
O O12 0.124831 0.413732 0.291723
#
# Coordination Sequence:
#
# PCOD9508321 Si02
#       5
#    16  16  16   8  16
#     4   9  20  37  59  93 130 168 209 254 328 407
#     4  10  24  45  67  90 122 174 230 272 318 379
#     4  10  22  34  51  81 124 166 194 240 315 387
#     4  10  22  37  66  98 134 174 212 270 343 408
#     4  11  23  37  63  93 127 163 219 270 327 391
#
# _framework density 20.324468
#
# number of rings (size 3 to 8) (size 9 to 14) (size 15 to 20)
#    0.000    2.000    0.000    2.667   10.889    9.778 
#    0.000    0.000    0.000    1.333    0.000    0.000 
#    0.000    0.000    0.000    0.000    0.000    0.000 
#
# Total GULP energy -200405.436846 kJ/mol
# GULP energy per Si atom -5566.817690 kJ/mol
# Density = 2.027821 g / cm^3
# Si number density = 20.324468 Si / 1000 Ang^3
#
#
#
# Elastic Constant Matrix: (Units=GPa)
#
#
# Indices 1 2 3 4 5 6 
#
# 1 160.9041 63.8134 25.4935 0.0000 0.0000 0.0000
# 2 63.8134 138.9081 35.3818 0.0000 0.0000 0.0000
# 3 25.4935 35.3818 62.4984 0.0000 0.0000 0.0000
# 4 0.0000 0.0000 0.0000 10.1443 0.0000 0.0000
# 5 0.0000 0.0000 0.0000 0.0000 13.0965 0.0000
# 6 0.0000 0.0000 0.0000 0.0000 0.0000 24.7333
#
#
#
# Elastic Compliance Matrix: (Units=1/GPa)
#
#
# Indices 1 2 3 4 5 6 
#
# 1 0.007693 -0.003196 -0.001329 0.000000 0.000000 0.000000
# 2 -0.003196 0.009739 -0.004210 0.000000 0.000000 0.000000
# 3 -0.001329 -0.004210 0.018926 0.000000 0.000000 0.000000
# 4 0.000000 0.000000 0.000000 0.098578 0.000000 0.000000
# 5 0.000000 0.000000 0.000000 0.000000 0.076356 0.000000
# 6 0.000000 0.000000 0.000000 0.000000 0.000000 0.040431
#
#
# Mechanical properties :
#
#
# Convention : Reuss Voigt Hill
#
# Bulk Modulus (GPa) = 52.94117 67.96533 60.45325
# Shear Modulus (GPa) = 18.14954 25.43628 21.79291
#
# Velocity S-wave (km/s) = 2.99153 3.54151 3.27808
# Velocity P-wave (km/s) = 6.16741 7.08772 6.64352
#
# Compressibility (1/GPa) = 0.01888889
#
# Stress axis : x y z
#
# Youngs Moduli (GPa) = 129.99262 102.67574 52.83749
#
# Poissons Ratio (x) = 0.32810 0.07021
# Poissons Ratio (y) = 0.41539 0.22246
# Poissons Ratio (z) = 0.17274 0.43229
#
# Static dielectric constant tensor:
#      x y z
#    x 1.758970 0.000000 0.000000 
#    y 0.000000 1.935740 0.000000 
#    z 0.000000 0.000000 1.738710 
# 
# From -- ./inp_files/47135.got.cif
#   From: 2010.05.17/outbox.cif.g08.bks.cpg/sg68_24_cif.got.tgz:47135.got - 2010.06.03 18:57:09.
