data_PCOD9508752
_publ_section_title
;
Structure prediction by ZEFSAII (Michael W. Deem and Ramdas Pophale) SiO2 
 PCOD9508752
Probable space group: C C C A
;
_chemical_formula_sum "Si O2"
_cell_formula_units_Z 120
_cell_length_a 21.946920
_cell_length_b 11.773522
_cell_length_c 22.152586
_cell_angle_alpha 90.000000
_cell_angle_beta 90.000000
_cell_angle_gamma 90.000000
_cell_volume 5724.063085
_symmetry_space_group_name_H-M "C C C A"
_symmetry_group_IT_number 68
_space_group.IT_coordinate_system_code '2'
_symmetry_cell_setting 'orthorhombic'
loop_
_space_group_symop_operation_xyz
x,y,z
-x,1/2-y,z
x,1/2-y,1/2-z
-x,y,1/2-z
-x,-y,-z
x,1/2+y,-z
-x,1/2+y,1/2+z
x,-y,1/2+z
1/2+x,1/2+y,z
1/2-x,-y,z
1/2+x,-y,1/2-z
1/2-x,1/2+y,1/2-z
1/2-x,1/2-y,-z
1/2+x,y,-z
1/2-x,y,1/2+z
1/2+x,1/2-y,1/2+z
loop_
_atom_site_type_symbol
_atom_site_label
_atom_site_fract_x
_atom_site_fract_y
_atom_site_fract_z
Si Si1 0.719007 0.623352 0.503511
Si Si2 0.557442 0.550001 0.623699
Si Si3 0.903533 0.276518 0.543707
Si Si4 0.669159 0.116963 0.630899
Si Si5 0.250000 0.500000 0.223111
Si Si6 0.570085 0.209272 0.905803
Si Si7 0.078535 0.591388 0.148667
Si Si8 0.141809 0.634847 0.269969
O O1 0.750000 0.500000 0.521423
O O2 0.750000 0.750000 0.500000
O O3 0.660198 0.654320 0.543538
O O4 0.698207 0.605872 0.434893
O O5 0.549971 0.625887 0.563590
O O6 0.575901 0.422935 0.608558
O O7 0.490279 0.550136 0.650534
O O8 0.604693 0.611488 0.669005
O O9 0.916115 0.231826 0.476697
O O10 0.908348 0.179360 0.594342
O O11 0.722717 0.098916 0.679476
O O12 0.623199 0.223955 0.630527
O O13 0.624408 0.011186 0.638767
O O14 0.193078 0.539656 0.262465
O O15 0.500000 0.250000 0.893582
O O16 0.093606 0.635441 0.215070
O O17 0.175928 0.750000 0.250000
#
# Coordination Sequence:
#
# PCOD9508752 Si02
#       8
#    16  16  16  16   8  16  16  16
#     4  11  24  41  64  97 142 187 238 284 341 423
#     4  12  25  43  69 106 140 179 236 291 353 418
#     4  11  26  38  67 106 139 185 226 285 352 412
#     4  10  22  41  70  95 136 187 231 278 359 425
#     4  10  24  46  74  96 130 190 230 296 356 434
#     4  11  24  42  66 105 148 185 225 287 348 431
#     4  11  22  44  70  97 140 184 229 283 358 425
#     4  11  25  45  72 102 132 177 239 292 348 408
#
# _framework density 20.964130999999998
#
# number of rings (size 3 to 8) (size 9 to 14) (size 15 to 20)
#    0.000    1.067    3.333    2.400    9.333    2.667 
#    1.200    2.000    0.000    0.000    0.000    0.000 
#    0.000    0.000    0.000    0.000    0.000    0.000 
#
# Total GULP energy -334462.958407 kJ/mol
# GULP energy per Si atom -5574.382640 kJ/mol
# Density = 2.091642 g / cm^3
# Si number density = 20.964131 Si / 1000 Ang^3
#
#
#
# Elastic Constant Matrix: (Units=GPa)
#
#
# Indices 1 2 3 4 5 6 
#
# 1 87.1538 23.4859 37.4436 0.0000 0.0000 0.0000
# 2 23.4859 112.2966 26.3522 0.0000 0.0000 0.0000
# 3 37.4436 26.3522 53.2137 0.0000 0.0000 0.0000
# 4 0.0000 0.0000 0.0000 22.2922 0.0000 0.0000
# 5 0.0000 0.0000 0.0000 0.0000 90.9229 0.0000
# 6 0.0000 0.0000 0.0000 0.0000 0.0000 18.2807
#
#
#
# Elastic Compliance Matrix: (Units=1/GPa)
#
#
# Indices 1 2 3 4 5 6 
#
# 1 0.016512 -0.000822 -0.011212 0.000000 0.000000 0.000000
# 2 -0.000822 0.010117 -0.004431 0.000000 0.000000 0.000000
# 3 -0.011212 -0.004431 0.028876 0.000000 0.000000 0.000000
# 4 0.000000 0.000000 0.000000 0.044859 0.000000 0.000000
# 5 0.000000 0.000000 0.000000 0.000000 0.010998 0.000000
# 6 0.000000 0.000000 0.000000 0.000000 0.000000 0.054703
#
#
# Mechanical properties :
#
#
# Convention : Reuss Voigt Hill
#
# Bulk Modulus (GPa) = 44.29842 47.46972 45.88407
# Shear Modulus (GPa) = 24.21071 37.32463 30.76767
#
# Velocity S-wave (km/s) = 3.40202 4.22406 3.83513
# Velocity P-wave (km/s) = 6.05046 6.81782 6.44557
#
# Compressibility (1/GPa) = 0.02257417
#
# Stress axis : x y z
#
# Youngs Moduli (GPa) = 60.56057 98.84469 34.63127
#
# Poissons Ratio (x) = 0.08129 0.38827
# Poissons Ratio (y) = 0.04981 0.15346
# Poissons Ratio (z) = 0.67898 0.43801
#
# Static dielectric constant tensor:
#      x y z
#    x 1.933580 0.000000 0.000000 
#    y 0.000000 1.871030 0.000000 
#    z 0.000000 0.000000 1.691320 
# 
# From -- ./inp_files/46724.got.cif
#   From: 2010.05.17/outbox.cif.g08.bks.cpg/sg68_24_cif.got.tgz:46724.got - 2010.06.03 18:57:09.
