data_PCOD9508274
_publ_section_title
;
Structure prediction by ZEFSAII (Michael W. Deem and Ramdas Pophale) SiO2 
 PCOD9508274
Probable space group: C C C A
;
_chemical_formula_sum "Si O2"
_cell_formula_units_Z 104
_cell_length_a 28.235749
_cell_length_b 9.080933
_cell_length_c 19.862205
_cell_angle_alpha 90.000000
_cell_angle_beta 90.000000
_cell_angle_gamma 90.000000
_cell_volume 5092.807303
_symmetry_space_group_name_H-M "C C C A"
_symmetry_group_IT_number 68
_space_group.IT_coordinate_system_code '2'
_symmetry_cell_setting 'orthorhombic'
loop_
_space_group_symop_operation_xyz
x,y,z
-x,1/2-y,z
x,1/2-y,1/2-z
-x,y,1/2-z
-x,-y,-z
x,1/2+y,-z
-x,1/2+y,1/2+z
x,-y,1/2+z
1/2+x,1/2+y,z
1/2-x,-y,z
1/2+x,-y,1/2-z
1/2-x,1/2+y,1/2-z
1/2-x,1/2-y,-z
1/2+x,y,-z
1/2-x,y,1/2+z
1/2+x,1/2-y,1/2+z
loop_
_atom_site_type_symbol
_atom_site_label
_atom_site_fract_x
_atom_site_fract_y
_atom_site_fract_z
Si Si1 0.597431 0.836646 0.002546
Si Si2 0.035374 0.915434 0.450972
Si Si3 0.250000 0.500000 0.327529
Si Si4 0.148610 0.582598 0.367869
Si Si5 0.604001 0.750000 0.750000
Si Si6 0.116307 0.258283 0.352098
Si Si7 0.803954 0.250000 0.250000
Si Si8 0.959457 0.519719 0.804008
O O1 0.618544 0.755802 0.067367
O O2 0.583141 0.992192 0.035002
O O3 0.551671 0.747007 0.973109
O O4 0.630426 0.864584 0.939596
O O5 0.021203 0.947431 0.373965
O O6 0.000000 0.000000 0.500000
O O7 0.204368 0.551101 0.369210
O O8 0.228872 0.374268 0.280330
O O9 0.136055 0.703819 0.312640
O O10 0.120315 0.434805 0.343471
O O11 0.572330 0.610698 0.772432
O O12 0.160665 0.197252 0.309511
O O13 0.070986 0.165239 0.325295
O O14 0.000000 0.555378 0.750000
#
# Coordination Sequence:
#
# PCOD9508274 Si02
#       8
#    16  16   8  16   8  16   8  16
#     4  11  22  43  66  94 131 177 220 269 335 404
#     4  11  24  40  64  93 131 174 223 271 325 386
#     4  10  22  40  68 100 124 172 216 288 326 412
#     4  11  23  44  69  95 135 169 227 270 348 401
#     4  12  24  40  68  97 132 181 208 288 332 390
#     4  10  23  44  68  93 133 183 210 277 337 402
#     4  10  21  44  65  97 132 163 225 268 347 396
#     4  11  25  41  64  98 132 174 229 268 328 393
#
# _framework density 20.420957999999999
#
# number of rings (size 3 to 8) (size 9 to 14) (size 15 to 20)
#    0.000    1.231    3.077    3.000    2.154    2.462 
#    0.000   12.692    0.000    0.000    0.000    0.000 
#    0.000    0.000    0.000    0.000    0.000    0.000 
#
# Total GULP energy -290337.515452 kJ/mol
# GULP energy per Si atom -5583.413759 kJ/mol
# Density = 2.037448 g / cm^3
# Si number density = 20.420958 Si / 1000 Ang^3
#
#
#
# Elastic Constant Matrix: (Units=GPa)
#
#
# Indices 1 2 3 4 5 6 
#
# 1 106.8274 52.4391 66.1873 0.0000 0.0000 0.0000
# 2 52.4391 88.0870 39.7569 0.0000 0.0000 0.0000
# 3 66.1873 39.7569 163.2849 0.0000 0.0000 0.0000
# 4 0.0000 0.0000 0.0000 24.7843 0.0000 0.0000
# 5 0.0000 0.0000 0.0000 0.0000 24.0392 0.0000
# 6 0.0000 0.0000 0.0000 0.0000 0.0000 30.9140
#
#
#
# Elastic Compliance Matrix: (Units=1/GPa)
#
#
# Indices 1 2 3 4 5 6 
#
# 1 0.015830 -0.007334 -0.004631 0.000000 0.000000 0.000000
# 2 -0.007334 0.016151 -0.000960 0.000000 0.000000 0.000000
# 3 -0.004631 -0.000960 0.008235 0.000000 0.000000 0.000000
# 4 0.000000 0.000000 0.000000 0.040348 0.000000 0.000000
# 5 0.000000 0.000000 0.000000 0.000000 0.041599 0.000000
# 6 0.000000 0.000000 0.000000 0.000000 0.000000 0.032348
#
#
# Mechanical properties :
#
#
# Convention : Reuss Voigt Hill
#
# Bulk Modulus (GPa) = 69.60175 74.99622 72.29898
# Shear Modulus (GPa) = 27.00514 29.26856 28.13685
#
# Velocity S-wave (km/s) = 3.64046 3.78995 3.71596
# Velocity P-wave (km/s) = 7.19917 7.48041 7.34114
#
# Compressibility (1/GPa) = 0.01436746
#
# Stress axis : x y z
#
# Youngs Moduli (GPa) = 63.17067 61.91392 121.42998
#
# Poissons Ratio (x) = 0.45406 0.56236
# Poissons Ratio (y) = 0.46327 0.11656
# Poissons Ratio (z) = 0.29255 0.05943
#
# Static dielectric constant tensor:
#      x y z
#    x 1.727230 0.000000 0.000000 
#    y 0.000000 1.831930 0.000000 
#    z 0.000000 0.000000 1.716470 
# 
# From -- ./inp_files/41360.got.cif
#   From: 2010.05.17/outbox.cif.g08.bks.cpg/sg68_21_cif.got.tgz:41360.got - 2010.06.03 18:57:09.
