data_PCOD9508991
_publ_section_title
;
Structure prediction by ZEFSAII (Michael W. Deem and Ramdas Pophale) SiO2 
 PCOD9508991
Probable space group: C C C A
;
_chemical_formula_sum "Si O2"
_cell_formula_units_Z 112
_cell_length_a 11.759028
_cell_length_b 13.849097
_cell_length_c 29.786173
_cell_angle_alpha 90.000000
_cell_angle_beta 90.000000
_cell_angle_gamma 90.000000
_cell_volume 4850.735445
_symmetry_space_group_name_H-M "C C C A"
_symmetry_group_IT_number 68
_space_group.IT_coordinate_system_code '2'
_symmetry_cell_setting 'orthorhombic'
loop_
_space_group_symop_operation_xyz
x,y,z
-x,1/2-y,z
x,1/2-y,1/2-z
-x,y,1/2-z
-x,-y,-z
x,1/2+y,-z
-x,1/2+y,1/2+z
x,-y,1/2+z
1/2+x,1/2+y,z
1/2-x,-y,z
1/2+x,-y,1/2-z
1/2-x,1/2+y,1/2-z
1/2-x,1/2-y,-z
1/2+x,y,-z
1/2-x,y,1/2+z
1/2+x,1/2-y,1/2+z
loop_
_atom_site_type_symbol
_atom_site_label
_atom_site_fract_x
_atom_site_fract_y
_atom_site_fract_z
Si Si1 0.455415 0.642177 0.193909
Si Si2 0.800859 0.225128 0.548409
Si Si3 0.121415 0.465023 0.789381
Si Si4 0.339090 0.423652 0.609538
Si Si5 0.112625 0.034500 0.974129
Si Si6 0.121125 0.204904 0.636776
Si Si7 0.297421 0.837505 0.784175
O O1 0.500000 0.750000 0.202047
O O2 0.542955 0.558031 0.204720
O O3 0.423586 0.628494 0.142306
O O4 0.332854 0.630074 0.217093
O O5 0.750000 0.250000 0.500000
O O6 0.720862 0.154261 0.577810
O O7 0.896778 0.149587 0.532304
O O8 0.826610 0.305880 0.586550
O O9 0.250000 0.500000 0.795702
O O10 0.105971 0.385575 0.829404
O O11 0.121269 0.415971 0.739289
O O12 0.250000 0.500000 0.632742
O O13 0.402846 0.492368 0.575337
O O14 0.250000 0.000000 0.986783
O O15 0.000000 0.000000 0.000000
O O16 0.180973 0.289611 0.667209
O O17 0.000000 0.250000 0.627364
O O18 0.310027 0.750000 0.750000
#
# Coordination Sequence:
#
# PCOD9508991 Si02
#       7
#    16  16  16  16  16  16  16
#     4  12  25  46  79 105 147 203 251 307 385 468
#     4  10  22  44  74 105 146 204 260 316 394 464
#     4  11  28  47  69 116 147 191 250 314 379 451
#     4   9  22  43  69 100 143 199 257 309 388 457
#     4   9  21  43  68 104 145 193 263 319 389 459
#     4  11  25  45  74 108 152 195 249 310 382 457
#     4  10  24  48  71 101 155 192 248 311 372 460
#
# _framework density 23.089282999999998
#
# number of rings (size 3 to 8) (size 9 to 14) (size 15 to 20)
#    0.000    2.000    1.429    1.714    4.000   10.857 
#    0.000    0.714    0.000    0.000    0.000    0.000 
#    0.000    0.000    0.000    0.000    0.000    0.000 
#
# Total GULP energy -312077.308075 kJ/mol
# GULP energy per Si atom -5572.809073 kJ/mol
# Density = 2.303673 g / cm^3
# Si number density = 23.089283 Si / 1000 Ang^3
#
#
#
# Elastic Constant Matrix: (Units=GPa)
#
#
# Indices 1 2 3 4 5 6 
#
# 1 108.0798 54.7391 44.6523 0.0000 0.0000 0.0000
# 2 54.7391 142.7380 59.0845 0.0000 0.0000 0.0000
# 3 44.6523 59.0845 162.1437 0.0000 0.0000 0.0000
# 4 0.0000 0.0000 0.0000 15.7446 0.0000 0.0000
# 5 0.0000 0.0000 0.0000 0.0000 23.2018 0.0000
# 6 0.0000 0.0000 0.0000 0.0000 0.0000 34.7605
#
#
#
# Elastic Compliance Matrix: (Units=1/GPa)
#
#
# Indices 1 2 3 4 5 6 
#
# 1 0.011965 -0.003797 -0.001911 0.000000 0.000000 0.000000
# 2 -0.003797 0.009455 -0.002400 0.000000 0.000000 0.000000
# 3 -0.001911 -0.002400 0.007568 0.000000 0.000000 0.000000
# 4 0.000000 0.000000 0.000000 0.063514 0.000000 0.000000
# 5 0.000000 0.000000 0.000000 0.000000 0.043100 0.000000
# 6 0.000000 0.000000 0.000000 0.000000 0.000000 0.028768
#
#
# Mechanical properties :
#
#
# Convention : Reuss Voigt Hill
#
# Bulk Modulus (GPa) = 78.29673 81.10147 79.69910
# Shear Modulus (GPa) = 27.04956 31.70708 29.37832
#
# Velocity S-wave (km/s) = 3.42646 3.70974 3.57091
# Velocity P-wave (km/s) = 7.04544 7.31785 7.18294
#
# Compressibility (1/GPa) = 0.01277192
#
# Stress axis : x y z
#
# Youngs Moduli (GPa) = 83.57443 105.75856 132.13198
#
# Poissons Ratio (x) = 0.40162 0.25255
# Poissons Ratio (y) = 0.31737 0.31709
# Poissons Ratio (z) = 0.15974 0.25380
#
# Static dielectric constant tensor:
#      x y z
#    x 3.389440 0.000000 0.000000 
#    y 0.000000 2.009370 0.000000 
#    z 0.000000 0.000000 1.947150 
# 
# From -- ./inp_files/54819.got.cif
#   From: 2010.05.17/outbox.cif.g08.bks.cpg/sg68_28_cif.got.tgz:54819.got - 2010.06.03 18:57:09.
