data_PCOD9508155
_publ_section_title
;
Structure prediction by ZEFSAII (Michael W. Deem and Ramdas Pophale) SiO2 
 PCOD9508155
Probable space group: C C C A
;
_chemical_formula_sum "Si O2"
_cell_formula_units_Z 64
_cell_length_a 8.710391
_cell_length_b 10.654256
_cell_length_c 26.223369
_cell_angle_alpha 90.000000
_cell_angle_beta 90.000000
_cell_angle_gamma 90.000000
_cell_volume 2433.600379
_symmetry_space_group_name_H-M "C C C A"
_symmetry_group_IT_number 68
_space_group.IT_coordinate_system_code '2'
_symmetry_cell_setting 'orthorhombic'
loop_
_space_group_symop_operation_xyz
x,y,z
-x,1/2-y,z
x,1/2-y,1/2-z
-x,y,1/2-z
-x,-y,-z
x,1/2+y,-z
-x,1/2+y,1/2+z
x,-y,1/2+z
1/2+x,1/2+y,z
1/2-x,-y,z
1/2+x,-y,1/2-z
1/2-x,1/2+y,1/2-z
1/2-x,1/2-y,-z
1/2+x,y,-z
1/2-x,y,1/2+z
1/2+x,1/2-y,1/2+z
loop_
_atom_site_type_symbol
_atom_site_label
_atom_site_fract_x
_atom_site_fract_y
_atom_site_fract_z
Si Si1 0.433941 0.497673 0.805771
Si Si2 0.852644 0.625048 0.495161
Si Si3 0.848803 0.630295 0.604309
Si Si4 0.141495 0.376958 0.616329
O O1 0.500000 0.481578 0.750000
O O2 0.250000 0.500000 0.798099
O O3 0.455520 0.386953 0.846822
O O4 0.522856 0.608504 0.836697
O O5 0.750000 0.500000 0.494801
O O6 0.750000 0.750000 0.500000
O O7 0.935156 0.628562 0.549995
O O8 0.935115 0.623784 0.440503
O O9 0.750000 0.500000 0.602997
O O10 0.742745 0.750662 0.614014
O O11 0.250000 0.500000 0.619173
#
# Coordination Sequence:
#
# PCOD9508155 Si02
#       4
#    16  16  16  16
#     4  11  25  46  69  97 135 187 242 295 351 415
#     4   8  15  32  62  99 134 170 212 270 342 417
#     4   9  20  40  67 100 135 176 226 279 345 421
#     4  10  21  41  69 103 140 174 221 286 352 420
#
# _framework density 26.298483999999998
#
# number of rings (size 3 to 8) (size 9 to 14) (size 15 to 20)
#    0.000    2.500    0.000    0.750    0.000    6.000 
#    0.000   20.000    0.000   28.500    0.000    0.000 
#    0.000    0.000    0.000    0.000    0.000    0.000 
#
# Total GULP energy -178725.190412 kJ/mol
# GULP energy per Si atom -5585.162200 kJ/mol
# Density = 2.623863 g / cm^3
# Si number density = 26.298484 Si / 1000 Ang^3
#
#
#
# Elastic Constant Matrix: (Units=GPa)
#
#
# Indices 1 2 3 4 5 6 
#
# 1 123.4893 72.6566 83.1436 0.0000 0.0000 0.0000
# 2 72.6566 235.0600 22.3706 0.0000 0.0000 0.0000
# 3 83.1436 22.3706 313.9809 0.0000 0.0000 0.0000
# 4 0.0000 0.0000 0.0000 193.0862 0.0000 0.0000
# 5 0.0000 0.0000 0.0000 0.0000 -86.5092 0.0000
# 6 0.0000 0.0000 0.0000 0.0000 0.0000 78.9360
#
#
#
# Elastic Compliance Matrix: (Units=1/GPa)
#
#
# Indices 1 2 3 4 5 6 
#
# 1 0.012136 -0.003469 -0.002967 0.000000 0.000000 0.000000
# 2 -0.003469 0.005275 0.000543 0.000000 0.000000 0.000000
# 3 -0.002967 0.000543 0.003932 0.000000 0.000000 0.000000
# 4 0.000000 0.000000 0.000000 0.005179 0.000000 0.000000
# 5 0.000000 0.000000 0.000000 0.000000 -0.011559 0.000000
# 6 0.000000 0.000000 0.000000 0.000000 0.000000 0.012668
#
#
# Mechanical properties :
#
#
# Convention : Reuss Voigt Hill
#
# Bulk Modulus (GPa) = 104.63162 114.31909 109.47536
# Shear Modulus (GPa) = 117.36481 70.05990 93.71235
#
# Velocity S-wave (km/s) = 6.68766 5.16702 5.97591
# Velocity P-wave (km/s) = 9.97525 8.89729 9.45165
#
# Compressibility (1/GPa) = 0.00955734
#
# Stress axis : x y z
#
# Youngs Moduli (GPa) = 82.39790 189.57978 254.33655
#
# Poissons Ratio (x) = 0.65764 0.75451
# Poissons Ratio (y) = 0.28583 -0.13805
# Poissons Ratio (z) = 0.24444 -0.10290
#
# Static dielectric constant tensor:
#      x y z
#    x 2.343780 0.000000 0.000000 
#    y 0.000000 2.104160 0.000000 
#    z 0.000000 0.000000 2.089580 
# 
# From -- ./inp_files/53780.got.cif
#   From: 2010.05.17/outbox.cif.g08.bks.cpg/sg68_27_cif.got.tgz:53780.got - 2010.06.03 18:57:09.
