data_PCOD9508097
_publ_section_title
;
Structure prediction by ZEFSAII (Michael W. Deem and Ramdas Pophale) SiO2 
 PCOD9508097
Probable space group: C C C A
;
_chemical_formula_sum "Si O2"
_cell_formula_units_Z 52
_cell_length_a 12.894668
_cell_length_b 17.885493
_cell_length_c 8.886127
_cell_angle_alpha 90.000000
_cell_angle_beta 90.000000
_cell_angle_gamma 90.000000
_cell_volume 2049.385204
_symmetry_space_group_name_H-M "C C C A"
_symmetry_group_IT_number 68
_space_group.IT_coordinate_system_code '2'
_symmetry_cell_setting 'orthorhombic'
loop_
_space_group_symop_operation_xyz
x,y,z
-x,1/2-y,z
x,1/2-y,1/2-z
-x,y,1/2-z
-x,-y,-z
x,1/2+y,-z
-x,1/2+y,1/2+z
x,-y,1/2+z
1/2+x,1/2+y,z
1/2-x,-y,z
1/2+x,-y,1/2-z
1/2-x,1/2+y,1/2-z
1/2-x,1/2-y,-z
1/2+x,y,-z
1/2-x,y,1/2+z
1/2+x,1/2-y,1/2+z
loop_
_atom_site_type_symbol
_atom_site_label
_atom_site_fract_x
_atom_site_fract_y
_atom_site_fract_z
Si Si1 0.500000 0.750000 0.250000
Si Si2 0.307834 0.623692 0.798825
Si Si3 0.892137 0.534200 0.673198
Si Si4 0.856372 0.166809 0.496064
O O1 0.426670 0.706216 0.370009
O O2 0.202687 0.578580 0.743317
O O3 0.375862 0.553441 0.847312
O O4 0.262107 0.671004 0.936580
O O5 0.358179 0.675377 0.673319
O O6 0.885780 0.577979 0.516035
O O7 0.000000 0.549146 0.750000
#
# Coordination Sequence:
#
# PCOD9508097 Si02
#       4
#     4  16  16  16
#     4  12  24  44  64  78 126 176 220 228 308 380
#     4   9  21  36  62  91 124 153 205 252 314 353
#     4   9  19  36  62  96 127 155 193 254 315 367
#     4  10  21  41  60  92 119 171 198 252 301 368
#
# _framework density 25.373462
#
# number of rings (size 3 to 8) (size 9 to 14) (size 15 to 20)
#    1.846    0.615    1.538    0.000    8.615    2.462 
#    5.538    0.000    0.000    1.846    0.000    0.000 
#    0.000    0.000    0.000    0.000    0.000    0.000 
#
# Total GULP energy -144844.609668 kJ/mol
# GULP energy per Si atom -5570.946526 kJ/mol
# Density = 2.531571 g / cm^3
# Si number density = 25.373462 Si / 1000 Ang^3
#
#
#
# Elastic Constant Matrix: (Units=GPa)
#
#
# Indices 1 2 3 4 5 6 
#
# 1 60.3793 3.7078 -0.3298 0.0000 0.0000 0.0000
# 2 3.7078 106.2219 58.2998 0.0000 0.0000 0.0000
# 3 -0.3298 58.2998 82.3879 0.0000 0.0000 0.0000
# 4 0.0000 0.0000 0.0000 25.7581 0.0000 0.0000
# 5 0.0000 0.0000 0.0000 0.0000 19.8719 0.0000
# 6 0.0000 0.0000 0.0000 0.0000 0.0000 34.9496
#
#
#
# Elastic Compliance Matrix: (Units=1/GPa)
#
#
# Indices 1 2 3 4 5 6 
#
# 1 0.016628 -0.001009 0.000780 0.000000 0.000000 0.000000
# 2 -0.001009 0.015454 -0.010939 0.000000 0.000000 0.000000
# 3 0.000780 -0.010939 0.019882 0.000000 0.000000 0.000000
# 4 0.000000 0.000000 0.000000 0.038823 0.000000 0.000000
# 5 0.000000 0.000000 0.000000 0.000000 0.050322 0.000000
# 6 0.000000 0.000000 0.000000 0.000000 0.000000 0.028613
#
#
# Mechanical properties :
#
#
# Convention : Reuss Voigt Hill
#
# Bulk Modulus (GPa) = 33.75181 41.37166 37.56174
# Shear Modulus (GPa) = 24.76072 28.60333 26.68203
#
# Velocity S-wave (km/s) = 3.12725 3.36116 3.24631
# Velocity P-wave (km/s) = 5.13522 5.60390 5.37467
#
# Compressibility (1/GPa) = 0.02962804
#
# Stress axis : x y z
#
# Youngs Moduli (GPa) = 60.13893 64.71011 50.29720
#
# Poissons Ratio (x) = 0.06528 -0.03925
# Poissons Ratio (y) = 0.06066 0.55022
# Poissons Ratio (z) = -0.04693 0.70789
#
# Static dielectric constant tensor:
#      x y z
#    x 2.030630 0.000000 0.000000 
#    y 0.000000 2.099760 0.000000 
#    z 0.000000 0.000000 2.018610 
# 
# From -- ./inp_files/6592.got.cif
#   From: 2010.05.17/outbox.cif.g08.bks.cpg/sg68_4_cif.got.tgz:6592.got - 2010.06.03 18:57:09.
