data_PCOD9508373
_publ_section_title
;
Structure prediction by ZEFSAII (Michael W. Deem and Ramdas Pophale) SiO2 
 PCOD9508373
Probable space group: C C C A
;
_chemical_formula_sum "Si O2"
_cell_formula_units_Z 108
_cell_length_a 12.212478
_cell_length_b 14.280060
_cell_length_c 29.821449
_cell_angle_alpha 90.000000
_cell_angle_beta 90.000000
_cell_angle_gamma 90.000000
_cell_volume 5200.709171
_symmetry_space_group_name_H-M "C C C A"
_symmetry_group_IT_number 68
_space_group.IT_coordinate_system_code '2'
_symmetry_cell_setting 'orthorhombic'
loop_
_space_group_symop_operation_xyz
x,y,z
-x,1/2-y,z
x,1/2-y,1/2-z
-x,y,1/2-z
-x,-y,-z
x,1/2+y,-z
-x,1/2+y,1/2+z
x,-y,1/2+z
1/2+x,1/2+y,z
1/2-x,-y,z
1/2+x,-y,1/2-z
1/2-x,1/2+y,1/2-z
1/2-x,1/2-y,-z
1/2+x,y,-z
1/2-x,y,1/2+z
1/2+x,1/2-y,1/2+z
loop_
_atom_site_type_symbol
_atom_site_label
_atom_site_fract_x
_atom_site_fract_y
_atom_site_fract_z
Si Si1 0.380529 0.081824 0.346002
Si Si2 0.869017 0.991157 0.461686
Si Si3 0.134779 0.373594 0.180622
Si Si4 0.107490 0.487744 0.060809
Si Si5 0.690215 0.287103 0.045386
Si Si6 0.500000 0.250000 0.750000
Si Si7 0.386599 0.214243 0.914943
Si Si8 0.000000 0.750000 0.385734
O O1 0.268327 0.121741 0.323939
O O2 0.475693 0.159578 0.353701
O O3 0.405064 0.982398 0.321592
O O4 0.356177 0.045672 0.396567
O O5 0.869115 0.032479 0.512188
O O6 0.875897 0.879921 0.467444
O O7 0.750000 0.000000 0.440466
O O8 0.975907 0.023368 0.436317
O O9 0.098433 0.318078 0.135953
O O10 0.079709 0.316988 0.220814
O O11 0.152734 0.382883 0.062943
O O12 0.796636 0.293364 0.077433
O O13 0.602344 0.242636 0.079689
O O14 0.750000 0.250000 0.000000
O O15 0.500000 0.250000 0.934856
#
# Coordination Sequence:
#
# PCOD9508373 Si02
#       8
#    16  16  16  16  16   4  16   8
#     4  10  22  44  70 100 132 190 233 269 353 424
#     4  11  23  35  51  82 127 187 234 307 339 366
#     4  10  23  42  76 103 135 176 215 274 360 448
#     4  10  22  37  56  84 129 179 243 284 340 401
#     4  12  25  35  55  90 128 182 235 293 338 374
#     4  12  24  52  78 120 144 152 212 290 374 446
#     4  11  21  38  60  90 122 173 224 279 339 422
#     4  12  24  42  63  89 138 184 246 294 322 406
#
# _framework density 20.766397000000001
#
# number of rings (size 3 to 8) (size 9 to 14) (size 15 to 20)
#    0.000    1.185    5.185    0.889    7.259    0.000 
#    0.000    2.963    0.000    0.000    0.000    0.000 
#    0.000    0.000    0.000    0.000    0.000    0.000 
#
# Total GULP energy -300626.322119 kJ/mol
# GULP energy per Si atom -5567.154113 kJ/mol
# Density = 2.071913 g / cm^3
# Si number density = 20.766397 Si / 1000 Ang^3
#
#
#
# Elastic Constant Matrix: (Units=GPa)
#
#
# Indices 1 2 3 4 5 6 
#
# 1 134.9075 28.8192 28.0900 0.0000 0.0000 0.0000
# 2 28.8192 111.5965 44.3314 0.0000 0.0000 0.0000
# 3 28.0900 44.3314 81.2685 0.0000 0.0000 0.0000
# 4 0.0000 0.0000 0.0000 18.0298 0.0000 0.0000
# 5 0.0000 0.0000 0.0000 0.0000 25.5167 0.0000
# 6 0.0000 0.0000 0.0000 0.0000 0.0000 35.2548
#
#
#
# Elastic Compliance Matrix: (Units=1/GPa)
#
#
# Indices 1 2 3 4 5 6 
#
# 1 0.008123 -0.001254 -0.002123 0.000000 0.000000 0.000000
# 2 -0.001254 0.011633 -0.005912 0.000000 0.000000 0.000000
# 3 -0.002123 -0.005912 0.016264 0.000000 0.000000 0.000000
# 4 0.000000 0.000000 0.000000 0.055464 0.000000 0.000000
# 5 0.000000 0.000000 0.000000 0.000000 0.039190 0.000000
# 6 0.000000 0.000000 0.000000 0.000000 0.000000 0.028365
#
#
# Mechanical properties :
#
#
# Convention : Reuss Voigt Hill
#
# Bulk Modulus (GPa) = 57.33930 58.91708 58.12819
# Shear Modulus (GPa) = 27.25805 30.86239 29.06022
#
# Velocity S-wave (km/s) = 3.62692 3.85927 3.74490
# Velocity P-wave (km/s) = 6.72390 6.94921 6.83749
#
# Compressibility (1/GPa) = 0.01744005
#
# Stress axis : x y z
#
# Youngs Moduli (GPa) = 123.11460 85.95919 61.48528
#
# Poissons Ratio (x) = 0.10780 0.13056
# Poissons Ratio (y) = 0.15440 0.36353
# Poissons Ratio (z) = 0.26142 0.50823
#
# Static dielectric constant tensor:
#      x y z
#    x 1.832210 0.000000 0.000000 
#    y 0.000000 1.964270 0.000000 
#    z 0.000000 0.000000 1.763190 
# 
# From -- ./inp_files/54864.got.cif
#   From: 2010.05.17/outbox.cif.g08.bks.cpg/sg68_28_cif.got.tgz:54864.got - 2010.06.03 18:57:09.
