data_PCOD9508918
_publ_section_title
;
Structure prediction by ZEFSAII (Michael W. Deem and Ramdas Pophale) SiO2 
 PCOD9508918
Probable space group: C C C A
;
_chemical_formula_sum "Si O2"
_cell_formula_units_Z 112
_cell_length_a 25.546301
_cell_length_b 12.171841
_cell_length_c 14.496852
_cell_angle_alpha 90.000000
_cell_angle_beta 90.000000
_cell_angle_gamma 90.000000
_cell_volume 4507.731095
_symmetry_space_group_name_H-M "C C C A"
_symmetry_group_IT_number 68
_space_group.IT_coordinate_system_code '2'
_symmetry_cell_setting 'orthorhombic'
loop_
_space_group_symop_operation_xyz
x,y,z
-x,1/2-y,z
x,1/2-y,1/2-z
-x,y,1/2-z
-x,-y,-z
x,1/2+y,-z
-x,1/2+y,1/2+z
x,-y,1/2+z
1/2+x,1/2+y,z
1/2-x,-y,z
1/2+x,-y,1/2-z
1/2-x,1/2+y,1/2-z
1/2-x,1/2-y,-z
1/2+x,y,-z
1/2-x,y,1/2+z
1/2+x,1/2-y,1/2+z
loop_
_atom_site_type_symbol
_atom_site_label
_atom_site_fract_x
_atom_site_fract_y
_atom_site_fract_z
Si Si1 0.448427 0.812442 0.895242
Si Si2 0.097452 0.468183 0.108088
Si Si3 0.443357 0.724481 0.386879
Si Si4 0.132416 0.960848 0.592481
Si Si5 0.160890 0.806710 0.153765
Si Si6 0.204818 0.081738 0.319378
Si Si7 0.723953 0.182043 0.885145
O O1 0.500000 0.750000 0.859546
O O2 0.392414 0.755722 0.874490
O O3 0.443987 0.938599 0.862860
O O4 0.452103 0.808190 0.006123
O O5 0.083091 0.342247 0.119722
O O6 0.151473 0.481448 0.161353
O O7 0.106357 0.489712 0.999259
O O8 0.500000 0.750000 0.346537
O O9 0.405275 0.626239 0.355110
O O10 0.183756 0.893312 0.558478
O O11 0.146407 0.065339 0.653758
O O12 0.176764 0.750000 0.250000
O O13 0.214461 0.807393 0.093595
O O14 0.217422 0.122218 0.215307
O O15 0.203506 0.194610 0.376318
O O16 0.250000 0.000000 0.349033
#
# Coordination Sequence:
#
# PCOD9508918 Si02
#       7
#    16  16  16  16  16  16  16
#     4  10  24  41  66  96 132 174 222 279 339 400
#     4  11  23  42  67 103 134 170 225 285 338 405
#     4  10  22  43  70  97 128 178 222 275 348 400
#     4  11  24  42  68 101 137 173 225 289 335 404
#     4  12  24  42  67  96 133 183 228 272 332 411
#     4  11  22  41  67  97 129 180 220 268 334 410
#     4  11  24  42  67  96 135 182 224 268 344 409
#
# _framework density 24.846202999999999
#
# number of rings (size 3 to 8) (size 9 to 14) (size 15 to 20)
#    0.000    1.143    4.286    2.143    4.000    3.143 
#    0.000    2.857    0.000    1.714    0.000    0.000 
#    0.000    0.000    0.000    0.000    0.000    0.000 
#
# Total GULP energy -313267.351936 kJ/mol
# GULP energy per Si atom -5594.059856 kJ/mol
# Density = 2.478965 g / cm^3
# Si number density = 24.846203 Si / 1000 Ang^3
#
#
#
# Elastic Constant Matrix: (Units=GPa)
#
#
# Indices 1 2 3 4 5 6 
#
# 1 138.3971 44.4225 6.9731 0.0000 0.0000 0.0000
# 2 44.4225 151.6421 3.7544 0.0000 0.0000 0.0000
# 3 6.9731 3.7544 52.3079 0.0000 0.0000 0.0000
# 4 0.0000 0.0000 0.0000 -63.9570 0.0000 0.0000
# 5 0.0000 0.0000 0.0000 0.0000 29.6864 0.0000
# 6 0.0000 0.0000 0.0000 0.0000 0.0000 42.7600
#
#
#
# Elastic Compliance Matrix: (Units=1/GPa)
#
#
# Indices 1 2 3 4 5 6 
#
# 1 0.008018 -0.002326 -0.000902 0.000000 0.000000 0.000000
# 2 -0.002326 0.007281 -0.000212 0.000000 0.000000 0.000000
# 3 -0.000902 -0.000212 0.019253 0.000000 0.000000 0.000000
# 4 0.000000 0.000000 0.000000 -0.015636 0.000000 0.000000
# 5 0.000000 0.000000 0.000000 0.000000 0.033685 0.000000
# 6 0.000000 0.000000 0.000000 0.000000 0.000000 0.023386
#
#
# Mechanical properties :
#
#
# Convention : Reuss Voigt Hill
#
# Bulk Modulus (GPa) = 36.13953 50.29414 43.21684
# Shear Modulus (GPa) = 54.29271 20.84434 37.56852
#
# Velocity S-wave (km/s) = 4.67963 2.89958 3.89272
# Velocity P-wave (km/s) = 6.61630 5.61215 6.13481
#
# Compressibility (1/GPa) = 0.02767053
#
# Stress axis : x y z
#
# Youngs Moduli (GPa) = 124.72321 137.33922 51.93980
#
# Poissons Ratio (x) = 0.31951 0.04684
# Poissons Ratio (y) = 0.29016 0.01104
# Poissons Ratio (z) = 0.11248 0.02918
#
# Static dielectric constant tensor:
#      x y z
#    x 2.075680 0.000000 0.000000 
#    y 0.000000 1.921000 0.000000 
#    z 0.000000 0.000000 2.035530 
# 
# From -- ./inp_files/40911.got.cif
#   From: 2010.05.17/outbox.cif.g08.bks.cpg/sg68_21_cif.got.tgz:40911.got - 2010.06.03 18:57:09.
