data_PCOD9508777
_publ_section_title
;
Structure prediction by ZEFSAII (Michael W. Deem and Ramdas Pophale) SiO2 
 PCOD9508777
Probable space group: C C C A
;
_chemical_formula_sum "Si O2"
_cell_formula_units_Z 88
_cell_length_a 18.495117
_cell_length_b 17.677704
_cell_length_c 13.787545
_cell_angle_alpha 90.000000
_cell_angle_beta 90.000000
_cell_angle_gamma 90.000000
_cell_volume 4507.854435
_symmetry_space_group_name_H-M "C C C A"
_symmetry_group_IT_number 68
_space_group.IT_coordinate_system_code '2'
_symmetry_cell_setting 'orthorhombic'
loop_
_space_group_symop_operation_xyz
x,y,z
-x,1/2-y,z
x,1/2-y,1/2-z
-x,y,1/2-z
-x,-y,-z
x,1/2+y,-z
-x,1/2+y,1/2+z
x,-y,1/2+z
1/2+x,1/2+y,z
1/2-x,-y,z
1/2+x,-y,1/2-z
1/2-x,1/2+y,1/2-z
1/2-x,1/2-y,-z
1/2+x,y,-z
1/2-x,y,1/2+z
1/2+x,1/2-y,1/2+z
loop_
_atom_site_type_symbol
_atom_site_label
_atom_site_fract_x
_atom_site_fract_y
_atom_site_fract_z
Si Si1 0.813745 0.059286 0.584263
Si Si2 0.277249 0.816057 0.072505
Si Si3 0.626024 0.750000 0.250000
Si Si4 0.531084 0.501659 0.395495
Si Si5 0.000000 0.629780 0.750000
Si Si6 0.665929 0.335769 0.229720
Si Si7 0.000000 0.871175 0.250000
O O1 0.814940 0.119374 0.494714
O O2 0.809112 0.109160 0.683283
O O3 0.750000 0.000000 0.571665
O O4 0.883199 0.005709 0.597493
O O5 0.328134 0.777291 0.155523
O O6 0.208756 0.853036 0.130163
O O7 0.250000 0.750000 0.000000
O O8 0.570679 0.819418 0.233123
O O9 0.500000 0.500000 0.500000
O O10 0.498115 0.572935 0.340151
O O11 0.509227 0.425664 0.340942
O O12 0.688084 0.250000 0.250000
O O13 0.578222 0.334221 0.230980
#
# Coordination Sequence:
#
# PCOD9508777 Si02
#       7
#    16  16   8  16   8  16   8
#     4  11  26  42  67 105 134 181 229 280 352 412
#     4  12  24  42  67 100 139 177 226 284 341 413
#     4  11  24  44  68  97 134 174 230 273 350 400
#     4  10  22  42  64  93 135 168 225 278 334 407
#     4  10  24  43  71  94 128 184 218 286 334 406
#     4  11  22  44  67  96 134 175 225 288 340 411
#     4   9  23  39  63  95 127 176 220 276 348 400
#
# _framework density 19.521481000000001
#
# number of rings (size 3 to 8) (size 9 to 14) (size 15 to 20)
#    0.000    1.273    2.727    1.364    7.636    0.727 
#    0.000    1.818    0.000    0.000    0.000    0.000 
#    0.000    0.000    0.000    0.000    0.000    0.000 
#
# Total GULP energy -245201.686567 kJ/mol
# GULP energy per Si atom -5572.765604 kJ/mol
# Density = 1.947705 g / cm^3
# Si number density = 19.521481 Si / 1000 Ang^3
#
#
#
# Elastic Constant Matrix: (Units=GPa)
#
#
# Indices 1 2 3 4 5 6 
#
# 1 57.2015 45.3054 47.9286 0.0000 0.0000 0.0000
# 2 45.3054 60.9005 20.5953 0.0000 0.0000 0.0000
# 3 47.9286 20.5953 125.9099 0.0000 0.0000 0.0000
# 4 0.0000 0.0000 0.0000 35.3179 0.0000 0.0000
# 5 0.0000 0.0000 0.0000 0.0000 -60.7544 0.0000
# 6 0.0000 0.0000 0.0000 0.0000 0.0000 25.0854
#
#
#
# Elastic Compliance Matrix: (Units=1/GPa)
#
#
# Indices 1 2 3 4 5 6 
#
# 1 0.068687 -0.044730 -0.018830 0.000000 0.000000 0.000000
# 2 -0.044730 0.046511 0.009419 0.000000 0.000000 0.000000
# 3 -0.018830 0.009419 0.013569 0.000000 0.000000 0.000000
# 4 0.000000 0.000000 0.000000 0.028314 0.000000 0.000000
# 5 0.000000 0.000000 0.000000 0.000000 -0.016460 0.000000
# 6 0.000000 0.000000 0.000000 0.000000 0.000000 0.039864
#
#
# Mechanical properties :
#
#
# Convention : Reuss Voigt Hill
#
# Bulk Modulus (GPa) = 48.81531 52.40782 50.61157
# Shear Modulus (GPa) = 16.91503 8.60864 12.76184
#
# Velocity S-wave (km/s) = 2.94680 2.10224 2.55959
# Velocity P-wave (km/s) = 6.05297 5.72687 5.89218
#
# Compressibility (1/GPa) = 0.02048537
#
# Stress axis : x y z
#
# Youngs Moduli (GPa) = 14.55881 21.50041 73.69656
#
# Poissons Ratio (x) = 0.96172 1.38768
# Poissons Ratio (y) = 0.65122 -0.69415
# Poissons Ratio (z) = 0.27414 -0.20251
#
# Static dielectric constant tensor:
#      x y z
#    x 1.759260 0.000000 0.000000 
#    y 0.000000 1.689520 0.000000 
#    z 0.000000 0.000000 1.681150 
# 
# From -- ./inp_files/14517.got.cif
#   From: 2010.05.17/outbox.cif.g08.bks.cpg/sg68_8_cif.got.tgz:14517.got - 2010.06.03 18:57:09.
