data_PCOD9508143
_publ_section_title
;
Structure prediction by ZEFSAII (Michael W. Deem and Ramdas Pophale) SiO2 
 PCOD9508143
Probable space group: C C C A
;
_chemical_formula_sum "Si O2"
_cell_formula_units_Z 88
_cell_length_a 24.024111
_cell_length_b 17.864706
_cell_length_c 9.618994
_cell_angle_alpha 90.000000
_cell_angle_beta 90.000000
_cell_angle_gamma 90.000000
_cell_volume 4128.315242
_symmetry_space_group_name_H-M "C C C A"
_symmetry_group_IT_number 68
_space_group.IT_coordinate_system_code '2'
_symmetry_cell_setting 'orthorhombic'
loop_
_space_group_symop_operation_xyz
x,y,z
-x,1/2-y,z
x,1/2-y,1/2-z
-x,y,1/2-z
-x,-y,-z
x,1/2+y,-z
-x,1/2+y,1/2+z
x,-y,1/2+z
1/2+x,1/2+y,z
1/2-x,-y,z
1/2+x,-y,1/2-z
1/2-x,1/2+y,1/2-z
1/2-x,1/2-y,-z
1/2+x,y,-z
1/2-x,y,1/2+z
1/2+x,1/2-y,1/2+z
loop_
_atom_site_type_symbol
_atom_site_label
_atom_site_fract_x
_atom_site_fract_y
_atom_site_fract_z
Si Si1 0.780493 0.200704 0.112973
Si Si2 0.553442 0.876964 0.316357
Si Si3 0.368402 0.506916 0.923950
Si Si4 0.296193 0.057675 0.325890
Si Si5 0.000000 0.250000 0.990018
Si Si6 0.402633 0.156732 0.972145
O O1 0.793040 0.250000 0.250000
O O2 0.737559 0.134177 0.152158
O O3 0.837101 0.173951 0.037296
O O4 0.750000 0.250000 0.000000
O O5 0.500000 0.918015 0.250000
O O6 0.530514 0.817286 0.426483
O O7 0.578819 0.832203 0.187099
O O8 0.597420 0.935267 0.373659
O O9 0.342447 0.552189 0.793764
O O10 0.322888 0.475420 0.032668
O O11 0.407012 0.568602 0.997112
O O12 0.250000 0.000000 0.275377
O O13 0.945015 0.205508 0.932894
#
# Coordination Sequence:
#
# PCOD9508143 Si02
#       6
#    16  16  16  16   8  16
#     4  12  27  43  66 102 142 183 230 282 353 423
#     4  10  21  41  66  98 128 178 233 288 338 415
#     4  12  24  43  70 101 139 180 235 288 351 414
#     4  12  26  44  70 100 143 186 230 286 349 420
#     4  10  23  40  70  97 134 177 238 287 348 419
#     4  11  22  42  67  98 130 180 228 282 344 412
#
# _framework density 21.316202000000001
#
# number of rings (size 3 to 8) (size 9 to 14) (size 15 to 20)
#    0.000    0.727    3.636    5.182    7.636    2.909 
#    0.000    0.000    0.000    1.091    0.000    0.000 
#    0.000    0.000    0.000    0.000    0.000    0.000 
#
# Total GULP energy -245402.010028 kJ/mol
# GULP energy per Si atom -5577.318410 kJ/mol
# Density = 2.126769 g / cm^3
# Si number density = 21.316202 Si / 1000 Ang^3
#
#
#
# Elastic Constant Matrix: (Units=GPa)
#
#
# Indices 1 2 3 4 5 6 
#
# 1 93.0738 29.7717 10.2256 0.0000 0.0000 0.0000
# 2 29.7717 109.3013 9.0037 0.0000 0.0000 0.0000
# 3 10.2256 9.0037 42.6473 0.0000 0.0000 0.0000
# 4 0.0000 0.0000 0.0000 125.5437 0.0000 0.0000
# 5 0.0000 0.0000 0.0000 0.0000 12.9731 0.0000
# 6 0.0000 0.0000 0.0000 0.0000 0.0000 41.6690
#
#
#
# Elastic Compliance Matrix: (Units=1/GPa)
#
#
# Indices 1 2 3 4 5 6 
#
# 1 0.011973 -0.003078 -0.002221 0.000000 0.000000 0.000000
# 2 -0.003078 0.010102 -0.001395 0.000000 0.000000 0.000000
# 3 -0.002221 -0.001395 0.024275 0.000000 0.000000 0.000000
# 4 0.000000 0.000000 0.000000 0.007965 0.000000 0.000000
# 5 0.000000 0.000000 0.000000 0.000000 0.077082 0.000000
# 6 0.000000 0.000000 0.000000 0.000000 0.000000 0.023999
#
#
# Mechanical properties :
#
#
# Convention : Reuss Voigt Hill
#
# Bulk Modulus (GPa) = 30.33740 38.11383 34.22562
# Shear Modulus (GPa) = 27.81304 49.10526 38.45915
#
# Velocity S-wave (km/s) = 3.61610 4.80485 4.25222
# Velocity P-wave (km/s) = 5.63009 6.97862 6.34031
#
# Compressibility (1/GPa) = 0.03296261
#
# Stress axis : x y z
#
# Youngs Moduli (GPa) = 83.52267 98.98676 41.19443
#
# Poissons Ratio (x) = 0.30470 0.09149
# Poissons Ratio (y) = 0.25710 0.05746
# Poissons Ratio (z) = 0.18549 0.13806
#
# Static dielectric constant tensor:
#      x y z
#    x 1.814360 0.000000 0.000000 
#    y 0.000000 1.549930 0.000000 
#    z 0.000000 0.000000 1.789240 
# 
# From -- ./inp_files/15436.got.cif
#   From: 2010.05.17/outbox.cif.g08.bks.cpg/sg68_8_cif.got.tgz:15436.got - 2010.06.03 18:57:09.
