data_PCOD9508200
_publ_section_title
;
Structure prediction by ZEFSAII (Michael W. Deem and Ramdas Pophale) SiO2 
 PCOD9508200
Probable space group: C C C A
;
_chemical_formula_sum "Si O2"
_cell_formula_units_Z 92
_cell_length_a 13.170607
_cell_length_b 16.371123
_cell_length_c 17.809394
_cell_angle_alpha 90.000000
_cell_angle_beta 90.000000
_cell_angle_gamma 90.000000
_cell_volume 3840.019276
_symmetry_space_group_name_H-M "C C C A"
_symmetry_group_IT_number 68
_space_group.IT_coordinate_system_code '2'
_symmetry_cell_setting 'orthorhombic'
loop_
_space_group_symop_operation_xyz
x,y,z
-x,1/2-y,z
x,1/2-y,1/2-z
-x,y,1/2-z
-x,-y,-z
x,1/2+y,-z
-x,1/2+y,1/2+z
x,-y,1/2+z
1/2+x,1/2+y,z
1/2-x,-y,z
1/2+x,-y,1/2-z
1/2-x,1/2+y,1/2-z
1/2-x,1/2-y,-z
1/2+x,y,-z
1/2-x,y,1/2+z
1/2+x,1/2-y,1/2+z
loop_
_atom_site_type_symbol
_atom_site_label
_atom_site_fract_x
_atom_site_fract_y
_atom_site_fract_z
Si Si1 0.329483 0.846636 0.717895
Si Si2 0.636620 0.343561 0.634447
Si Si3 0.434490 0.399921 0.433143
Si Si4 0.500000 0.750000 0.750000
Si Si5 0.964692 0.535360 0.833051
Si Si6 0.750000 0.500000 0.300114
Si Si7 0.000000 0.250000 0.032600
Si Si8 0.250000 0.500000 0.942861
O O1 0.219211 0.812441 0.694262
O O2 0.390021 0.852308 0.639709
O O3 0.409905 0.810326 0.778708
O O4 0.303035 0.934571 0.747965
O O5 0.529334 0.381520 0.660497
O O6 0.601500 0.271498 0.579631
O O7 0.691201 0.425558 0.600337
O O8 0.503104 0.470169 0.396196
O O9 0.484571 0.331941 0.484261
O O10 0.343315 0.447890 0.475777
O O11 0.843822 0.544169 0.839608
O O12 0.000000 0.505323 0.750000
#
# Coordination Sequence:
#
# PCOD9508200 Si02
#       8
#    16  16  16   4  16   8   8   8
#     4  11  21  40  64  97 135 183 225 290 371 424
#     4  10  23  44  67  98 139 195 236 288 370 442
#     4  10  21  42  66  98 136 189 236 299 360 426
#     4  12  26  36  64 110 152 172 228 300 380 460
#     4  11  20  40  72 106 137 186 249 307 361 450
#     4  12  21  38  73 106 140 177 236 309 366 436
#     4  12  27  44  66  98 156 193 236 296 364 444
#     4   8  19  40  71  90 120 181 244 287 346 414
#
# _framework density 23.958212
#
# number of rings (size 3 to 8) (size 9 to 14) (size 15 to 20)
#    0.000    1.391    3.478    3.652    0.000    6.957 
#    0.000    6.957    0.000    0.000    0.000    0.000 
#    0.000    0.000    0.000    0.000    0.000    0.000 
#
# Total GULP energy -256098.350909 kJ/mol
# GULP energy per Si atom -5567.355455 kJ/mol
# Density = 2.390368 g / cm^3
# Si number density = 23.958212 Si / 1000 Ang^3
#
#
#
# Elastic Constant Matrix: (Units=GPa)
#
#
# Indices 1 2 3 4 5 6 
#
# 1 162.2743 34.9106 31.9030 0.0000 0.0000 0.0000
# 2 34.9106 82.5454 35.2838 0.0000 0.0000 0.0000
# 3 31.9030 35.2838 61.2084 0.0000 0.0000 0.0000
# 4 0.0000 0.0000 0.0000 25.5244 0.0000 0.0000
# 5 0.0000 0.0000 0.0000 0.0000 20.4923 0.0000
# 6 0.0000 0.0000 0.0000 0.0000 0.0000 30.5272
#
#
#
# Elastic Compliance Matrix: (Units=1/GPa)
#
#
# Indices 1 2 3 4 5 6 
#
# 1 0.007079 -0.001880 -0.002606 0.000000 0.000000 0.000000
# 2 -0.001880 0.016575 -0.008575 0.000000 0.000000 0.000000
# 3 -0.002606 -0.008575 0.022639 0.000000 0.000000 0.000000
# 4 0.000000 0.000000 0.000000 0.039178 0.000000 0.000000
# 5 0.000000 0.000000 0.000000 0.000000 0.048799 0.000000
# 6 0.000000 0.000000 0.000000 0.000000 0.000000 0.032758
#
#
# Mechanical properties :
#
#
# Convention : Reuss Voigt Hill
#
# Bulk Modulus (GPa) = 49.57533 56.69143 53.13338
# Shear Modulus (GPa) = 25.01587 28.90418 26.96002
#
# Velocity S-wave (km/s) = 3.23483 3.47715 3.35818
# Velocity P-wave (km/s) = 5.88978 6.31148 6.10427
#
# Compressibility (1/GPa) = 0.02017132
#
# Stress axis : x y z
#
# Youngs Moduli (GPa) = 141.25865 60.33215 44.17170
#
# Poissons Ratio (x) = 0.11343 0.11511
# Poissons Ratio (y) = 0.26557 0.37876
# Poissons Ratio (z) = 0.36813 0.51733
#
# Static dielectric constant tensor:
#      x y z
#    x 1.955720 0.000000 0.000000 
#    y 0.000000 1.977000 0.000000 
#    z 0.000000 0.000000 2.049220 
# 
# From -- ./inp_files/37525.got.cif
#   From: 2010.05.17/outbox.cif.g08.bks.cpg/sg68_19_cif.got.tgz:37525.got - 2010.06.03 18:57:09.
