data_PCOD9508976
_publ_section_title
;
Structure prediction by ZEFSAII (Michael W. Deem and Ramdas Pophale) SiO2 
 PCOD9508976
Probable space group: C C C A
;
_chemical_formula_sum "Si O2"
_cell_formula_units_Z 56
_cell_length_a 5.154845
_cell_length_b 25.018779
_cell_length_c 17.652781
_cell_angle_alpha 90.000000
_cell_angle_beta 90.000000
_cell_angle_gamma 90.000000
_cell_volume 2276.642586
_symmetry_space_group_name_H-M "C C C A"
_symmetry_group_IT_number 68
_space_group.IT_coordinate_system_code '2'
_symmetry_cell_setting 'orthorhombic'
loop_
_space_group_symop_operation_xyz
x,y,z
-x,1/2-y,z
x,1/2-y,1/2-z
-x,y,1/2-z
-x,-y,-z
x,1/2+y,-z
-x,1/2+y,1/2+z
x,-y,1/2+z
1/2+x,1/2+y,z
1/2-x,-y,z
1/2+x,-y,1/2-z
1/2-x,1/2+y,1/2-z
1/2-x,1/2-y,-z
1/2+x,y,-z
1/2-x,y,1/2+z
1/2+x,1/2-y,1/2+z
loop_
_atom_site_type_symbol
_atom_site_label
_atom_site_fract_x
_atom_site_fract_y
_atom_site_fract_z
Si Si1 0.750000 0.500000 0.947265
Si Si2 0.907414 0.808813 0.967667
Si Si3 0.930591 0.049165 0.836025
Si Si4 0.251434 0.333118 0.302862
O O1 0.684735 0.548003 0.888717
O O2 0.500000 0.500000 0.000000
O O3 0.807149 0.803297 0.881766
O O4 0.000000 0.750000 0.995583
O O5 0.687168 0.836364 0.019070
O O6 0.797780 0.106498 0.832384
O O7 0.000000 0.037130 0.750000
O O8 0.750000 0.000000 0.860210
O O9 0.500000 0.318355 0.250000
O O10 0.000000 0.329602 0.250000
#
# Coordination Sequence:
#
# PCOD9508976 Si02
#       4
#     8  16  16  16
#     4  12  26  40  60  96 128 168 230 288 328 380
#     4  10  22  44  70  96 134 180 219 270 351 421
#     4  11  23  42  69  89 134 186 228 269 338 409
#     4  11  25  41  68 104 136 175 233 288 335 397
#
# _framework density 24.597624
#
# number of rings (size 3 to 8) (size 9 to 14) (size 15 to 20)
#    0.000    1.143    2.857    2.571    4.000    2.857 
#    0.000    1.429    0.000    0.000    0.000    0.000 
#    0.000    0.000    0.000    0.000    0.000    0.000 
#
# Total GULP energy -156299.860162 kJ/mol
# GULP energy per Si atom -5582.137863 kJ/mol
# Density = 2.454164 g / cm^3
# Si number density = 24.597624 Si / 1000 Ang^3
#
#
#
# Elastic Constant Matrix: (Units=GPa)
#
#
# Indices 1 2 3 4 5 6 
#
# 1 219.7173 22.4308 89.2068 0.0000 0.0000 0.0000
# 2 22.4308 40.7240 28.6700 0.0000 0.0000 0.0000
# 3 89.2068 28.6700 193.0600 0.0000 0.0000 0.0000
# 4 0.0000 0.0000 0.0000 -1.6282 0.0000 0.0000
# 5 0.0000 0.0000 0.0000 0.0000 42.8070 0.0000
# 6 0.0000 0.0000 0.0000 0.0000 0.0000 13.7078
#
#
#
# Elastic Compliance Matrix: (Units=1/GPa)
#
#
# Indices 1 2 3 4 5 6 
#
# 1 0.005676 -0.001429 -0.002410 0.000000 0.000000 0.000000
# 2 -0.001429 0.027782 -0.003465 0.000000 0.000000 0.000000
# 3 -0.002410 -0.003465 0.006808 0.000000 0.000000 0.000000
# 4 0.000000 0.000000 0.000000 -0.614194 0.000000 0.000000
# 5 0.000000 0.000000 0.000000 0.000000 0.023361 0.000000
# 6 0.000000 0.000000 0.000000 0.000000 0.000000 0.072951
#
#
# Mechanical properties :
#
#
# Convention : Reuss Voigt Hill
#
# Bulk Modulus (GPa) = 38.97676 81.56849 60.27262
# Shear Modulus (GPa) = -11.00222 31.85691 10.42735
#
# Velocity S-wave (km/s) = -2.11721 3.60268 2.06116
# Velocity P-wave (km/s) = 3.14696 7.10907 5.49737
#
# Compressibility (1/GPa) = 0.02565632
#
# Stress axis : x y z
#
# Youngs Moduli (GPa) = 176.18511 35.99398 146.88389
#
# Poissons Ratio (x) = 0.05145 0.35404
# Poissons Ratio (y) = 0.25183 0.50900
# Poissons Ratio (z) = 0.42467 0.12473
#
# Static dielectric constant tensor:
#      x y z
#    x 2.268960 0.000000 0.000000 
#    y 0.000000 1.944960 0.000000 
#    z 0.000000 0.000000 1.933570 
# 
# From -- ./inp_files/27088.got.cif
#   From: 2010.05.17/outbox.cif.g08.bks.cpg/sg68_14_cif.got.tgz:27088.got - 2010.06.03 18:57:09.
