data_PCOD9508765
_publ_section_title
;
Structure prediction by ZEFSAII (Michael W. Deem and Ramdas Pophale) SiO2 
 PCOD9508765
Probable space group: C C C A
;
_chemical_formula_sum "Si O2"
_cell_formula_units_Z 60
_cell_length_a 22.045262
_cell_length_b 8.797996
_cell_length_c 13.976613
_cell_angle_alpha 90.000000
_cell_angle_beta 90.000000
_cell_angle_gamma 90.000000
_cell_volume 2710.821771
_symmetry_space_group_name_H-M "C C C A"
_symmetry_group_IT_number 68
_space_group.IT_coordinate_system_code '2'
_symmetry_cell_setting 'orthorhombic'
loop_
_space_group_symop_operation_xyz
x,y,z
-x,1/2-y,z
x,1/2-y,1/2-z
-x,y,1/2-z
-x,-y,-z
x,1/2+y,-z
-x,1/2+y,1/2+z
x,-y,1/2+z
1/2+x,1/2+y,z
1/2-x,-y,z
1/2+x,-y,1/2-z
1/2-x,1/2+y,1/2-z
1/2-x,1/2-y,-z
1/2+x,y,-z
1/2-x,y,1/2+z
1/2+x,1/2-y,1/2+z
loop_
_atom_site_type_symbol
_atom_site_label
_atom_site_fract_x
_atom_site_fract_y
_atom_site_fract_z
Si Si1 0.228037 0.332370 0.654695
Si Si2 0.000000 0.250000 0.750000
Si Si3 0.809010 0.605108 0.545885
Si Si4 0.500000 0.250000 0.949727
Si Si5 0.431509 0.044758 0.102964
O O1 0.205396 0.250000 0.750000
O O2 0.250000 0.500000 0.681804
O O3 0.181817 0.342698 0.564542
O O4 0.286808 0.243276 0.612204
O O5 0.955087 0.142252 0.809196
O O6 0.750000 0.500000 0.539646
O O7 0.862690 0.506264 0.588652
O O8 0.465408 0.381885 0.894407
O O9 0.453498 0.151142 0.014617
#
# Coordination Sequence:
#
# PCOD9508765 Si02
#       5
#    16   4  16   8  16
#     4  10  22  42  63 103 146 189 240 284 367 447
#     4  10  24  50  72 106 140 192 264 312 356 434
#     4  10  23  43  71 101 146 190 230 301 379 432
#     4   9  22  42  72  95 136 192 244 295 369 429
#     4  10  22  46  73 104 138 191 247 304 366 442
#
# _framework density 22.133507999999999
#
# number of rings (size 3 to 8) (size 9 to 14) (size 15 to 20)
#    0.000    2.133    0.000    0.800   11.200    1.600 
#   12.000    0.000    0.000    0.000    0.000    0.000 
#    0.000    0.000    0.000    0.000    0.000    0.000 
#
# Total GULP energy -167643.952779 kJ/mol
# GULP energy per Si atom -5588.131759 kJ/mol
# Density = 2.208313 g / cm^3
# Si number density = 22.133508 Si / 1000 Ang^3
#
#
#
# Elastic Constant Matrix: (Units=GPa)
#
#
# Indices 1 2 3 4 5 6 
#
# 1 131.2377 57.1519 56.3340 0.0000 0.0000 0.0000
# 2 57.1519 192.6464 67.4418 0.0000 0.0000 0.0000
# 3 56.3340 67.4418 126.7359 0.0000 0.0000 0.0000
# 4 0.0000 0.0000 0.0000 217.0546 0.0000 0.0000
# 5 0.0000 0.0000 0.0000 0.0000 18.6390 0.0000
# 6 0.0000 0.0000 0.0000 0.0000 0.0000 34.7995
#
#
#
# Elastic Compliance Matrix: (Units=1/GPa)
#
#
# Indices 1 2 3 4 5 6 
#
# 1 0.009854 -0.001708 -0.003471 0.000000 0.000000 0.000000
# 2 -0.001708 0.006675 -0.002793 0.000000 0.000000 0.000000
# 3 -0.003471 -0.002793 0.010920 0.000000 0.000000 0.000000
# 4 0.000000 0.000000 0.000000 0.004607 0.000000 0.000000
# 5 0.000000 0.000000 0.000000 0.000000 0.053651 0.000000
# 6 0.000000 0.000000 0.000000 0.000000 0.000000 0.028736
#
#
# Mechanical properties :
#
#
# Convention : Reuss Voigt Hill
#
# Bulk Modulus (GPa) = 86.92371 90.27503 88.59937
# Shear Modulus (GPa) = 37.25185 72.07810 54.66497
#
# Velocity S-wave (km/s) = 4.10695 5.71278 4.97508
# Velocity P-wave (km/s) = 7.86429 9.18638 8.55093
#
# Compressibility (1/GPa) = 0.01150434
#
# Stress axis : x y z
#
# Youngs Moduli (GPa) = 101.48666 149.80425 91.57910
#
# Poissons Ratio (x) = 0.25588 0.31786
# Poissons Ratio (y) = 0.17335 0.25578
# Poissons Ratio (z) = 0.35225 0.41840
#
# Static dielectric constant tensor:
#      x y z
#    x 1.778380 0.000000 0.000000 
#    y 0.000000 1.876710 0.000000 
#    z 0.000000 0.000000 1.867610 
# 
# From -- ./inp_files/24950.got.cif
#   From: 2010.05.17/outbox.cif.g08.bks.cpg/sg68_13_cif.got.tgz:24950.got - 2010.06.03 18:57:09.
