data_PCOD9508728
_publ_section_title
;
Structure prediction by ZEFSAII (Michael W. Deem and Ramdas Pophale) SiO2 
 PCOD9508728
Probable space group: C C C A
;
_chemical_formula_sum "Si O2"
_cell_formula_units_Z 88
_cell_length_a 14.335243
_cell_length_b 10.164251
_cell_length_c 30.298299
_cell_angle_alpha 90.000000
_cell_angle_beta 90.000000
_cell_angle_gamma 90.000000
_cell_volume 4414.674495
_symmetry_space_group_name_H-M "C C C A"
_symmetry_group_IT_number 68
_space_group.IT_coordinate_system_code '2'
_symmetry_cell_setting 'orthorhombic'
loop_
_space_group_symop_operation_xyz
x,y,z
-x,1/2-y,z
x,1/2-y,1/2-z
-x,y,1/2-z
-x,-y,-z
x,1/2+y,-z
-x,1/2+y,1/2+z
x,-y,1/2+z
1/2+x,1/2+y,z
1/2-x,-y,z
1/2+x,-y,1/2-z
1/2-x,1/2+y,1/2-z
1/2-x,1/2-y,-z
1/2+x,y,-z
1/2-x,y,1/2+z
1/2+x,1/2-y,1/2+z
loop_
_atom_site_type_symbol
_atom_site_label
_atom_site_fract_x
_atom_site_fract_y
_atom_site_fract_z
Si Si1 0.915386 0.546896 0.863037
Si Si2 0.750000 0.500000 0.295902
Si Si3 0.101882 0.580804 0.043074
Si Si4 0.250000 0.500000 0.394117
Si Si5 0.176863 0.750000 0.750000
Si Si6 0.620679 0.121267 0.468560
Si Si7 0.392297 0.841879 0.157534
O O1 0.843155 0.500037 0.825820
O O2 0.890493 0.465300 0.906498
O O3 0.903220 0.704404 0.868790
O O4 0.024963 0.551980 0.849769
O O5 0.760429 0.369977 0.266845
O O6 0.142642 0.723401 0.030203
O O7 0.990480 0.600522 0.036723
O O8 0.141024 0.465562 0.011861
O O9 0.326674 0.438679 0.426668
O O10 0.297615 0.602519 0.361686
O O11 0.115827 0.698942 0.791306
#
# Coordination Sequence:
#
# PCOD9508728 Si02
#       7
#    16   8  16   8   8  16  16
#     4  10  22  41  67  94 125 178 216 266 320 394
#     4  10  23  39  68  96 128 168 212 267 333 388
#     4  10  22  43  60  95 131 175 215 269 313 386
#     4  12  23  41  62 106 124 178 216 277 325 390
#     4  10  22  45  64  99 126 170 214 279 324 397
#     4  10  24  38  66  89 136 173 219 264 324 376
#     4  10  23  40  69  92 131 169 223 268 327 395
#
# _framework density 19.933517999999999
#
# number of rings (size 3 to 8) (size 9 to 14) (size 15 to 20)
#    0.000    1.818    1.818    0.545    7.636    8.727 
#    0.000    0.000    0.000    6.545    0.000    0.000 
#    0.000    0.000    0.000    0.000    0.000    0.000 
#
# Total GULP energy -245434.652466 kJ/mol
# GULP energy per Si atom -5578.060283 kJ/mol
# Density = 1.988815 g / cm^3
# Si number density = 19.933518 Si / 1000 Ang^3
#
#
#
# Elastic Constant Matrix: (Units=GPa)
#
#
# Indices 1 2 3 4 5 6 
#
# 1 46.3005 24.9904 20.6178 0.0000 0.0000 0.0000
# 2 24.9904 129.4724 76.7306 0.0000 0.0000 0.0000
# 3 20.6178 76.7306 118.9623 0.0000 0.0000 0.0000
# 4 0.0000 0.0000 0.0000 48.9132 0.0000 0.0000
# 5 0.0000 0.0000 0.0000 0.0000 185.9928 0.0000
# 6 0.0000 0.0000 0.0000 0.0000 0.0000 26.0791
#
#
#
# Elastic Compliance Matrix: (Units=1/GPa)
#
#
# Indices 1 2 3 4 5 6 
#
# 1 0.024380 -0.003564 -0.001927 0.000000 0.000000 0.000000
# 2 -0.003564 0.013024 -0.007783 0.000000 0.000000 0.000000
# 3 -0.001927 -0.007783 0.013760 0.000000 0.000000 0.000000
# 4 0.000000 0.000000 0.000000 0.020444 0.000000 0.000000
# 5 0.000000 0.000000 0.000000 0.000000 0.005377 0.000000
# 6 0.000000 0.000000 0.000000 0.000000 0.000000 0.038345
#
#
# Mechanical properties :
#
#
# Convention : Reuss Voigt Hill
#
# Bulk Modulus (GPa) = 40.62272 59.93478 50.27875
# Shear Modulus (GPa) = 33.31531 63.69010 48.50270
#
# Velocity S-wave (km/s) = 4.09261 5.65868 4.93812
# Velocity P-wave (km/s) = 6.53881 8.53386 7.60206
#
# Compressibility (1/GPa) = 0.02461676
#
# Stress axis : x y z
#
# Youngs Moduli (GPa) = 41.01802 76.78179 72.67542
#
# Poissons Ratio (x) = 0.27364 0.14002
# Poissons Ratio (y) = 0.14618 0.56562
# Poissons Ratio (z) = 0.07903 0.59757
#
# Static dielectric constant tensor:
#      x y z
#    x 1.761990 0.000000 0.000000 
#    y 0.000000 1.696840 0.000000 
#    z 0.000000 0.000000 1.685980 
# 
# From -- ./inp_files/50892.got.cif
#   From: 2010.05.17/outbox.cif.g08.bks.cpg/sg68_26_cif.got.tgz:50892.got - 2010.06.03 18:57:09.
