data_PCOD9508544
_publ_section_title
;
Structure prediction by ZEFSAII (Michael W. Deem and Ramdas Pophale) SiO2 
 PCOD9508544
Probable space group: C C C A
;
_chemical_formula_sum "Si O2"
_cell_formula_units_Z 60
_cell_length_a 21.463030
_cell_length_b 6.356050
_cell_length_c 21.432310
_cell_angle_alpha 90.000000
_cell_angle_beta 90.000000
_cell_angle_gamma 90.000000
_cell_volume 2923.797698
_symmetry_space_group_name_H-M "C C C A"
_symmetry_group_IT_number 68
_space_group.IT_coordinate_system_code '2'
_symmetry_cell_setting 'orthorhombic'
loop_
_space_group_symop_operation_xyz
x,y,z
-x,1/2-y,z
x,1/2-y,1/2-z
-x,y,1/2-z
-x,-y,-z
x,1/2+y,-z
-x,1/2+y,1/2+z
x,-y,1/2+z
1/2+x,1/2+y,z
1/2-x,-y,z
1/2+x,-y,1/2-z
1/2-x,1/2+y,1/2-z
1/2-x,1/2-y,-z
1/2+x,y,-z
1/2-x,y,1/2+z
1/2+x,1/2-y,1/2+z
loop_
_atom_site_type_symbol
_atom_site_label
_atom_site_fract_x
_atom_site_fract_y
_atom_site_fract_z
Si Si1 0.578944 0.095364 0.636959
Si Si2 0.315033 0.121893 0.419639
Si Si3 0.000000 0.250000 0.250000
Si Si4 0.618205 0.987615 0.449503
Si Si5 0.000000 0.250000 0.937265
O O1 0.546441 0.132553 0.702706
O O2 0.591763 0.307199 0.596459
O O3 0.645740 0.984905 0.635428
O O4 0.534212 0.928829 0.602648
O O5 0.329661 0.370207 0.414172
O O6 0.347223 0.080818 0.487411
O O7 0.250000 0.000000 0.422280
O O8 0.557063 0.125091 0.469030
#
# Coordination Sequence:
#
# PCOD9508544 Si02
#       5
#    16  16   4  16   8
#     4  11  24  42  66  91 130 173 213 272 325 391
#     4  11  24  40  64  97 134 167 214 261 333 398
#     4  12  24  48  64  88 128 164 220 266 320 376
#     4  11  21  38  64  98 131 169 204 270 329 397
#     4  10  22  40  56  96 125 163 216 262 332 388
#
# _framework density 20.521256000000001
#
# number of rings (size 3 to 8) (size 9 to 14) (size 15 to 20)
#    0.000    1.067    5.333    0.800    0.000    5.867 
#    0.000    0.000    5.867    0.000    0.000    0.000 
#    0.000    0.000    0.000    0.000    0.000    0.000 
#
# Total GULP energy -167183.242048 kJ/mol
# GULP energy per Si atom -5572.774735 kJ/mol
# Density = 2.047455 g / cm^3
# Si number density = 20.521256 Si / 1000 Ang^3
#
#
#
# Elastic Constant Matrix: (Units=GPa)
#
#
# Indices 1 2 3 4 5 6 
#
# 1 145.7908 47.1737 45.7094 0.0000 0.0000 0.0000
# 2 47.1737 116.4010 42.9960 0.0000 0.0000 0.0000
# 3 45.7094 42.9960 106.9078 0.0000 0.0000 0.0000
# 4 0.0000 0.0000 0.0000 11.1012 0.0000 0.0000
# 5 0.0000 0.0000 0.0000 0.0000 25.6323 0.0000
# 6 0.0000 0.0000 0.0000 0.0000 0.0000 36.2322
#
#
#
# Elastic Compliance Matrix: (Units=1/GPa)
#
#
# Indices 1 2 3 4 5 6 
#
# 1 0.008483 -0.002464 -0.002636 0.000000 0.000000 0.000000
# 2 -0.002464 0.010806 -0.003292 0.000000 0.000000 0.000000
# 3 -0.002636 -0.003292 0.011805 0.000000 0.000000 0.000000
# 4 0.000000 0.000000 0.000000 0.090080 0.000000 0.000000
# 5 0.000000 0.000000 0.000000 0.000000 0.039013 0.000000
# 6 0.000000 0.000000 0.000000 0.000000 0.000000 0.027600
#
#
# Mechanical properties :
#
#
# Convention : Reuss Voigt Hill
#
# Bulk Modulus (GPa) = 69.88667 71.20644 70.54655
# Shear Modulus (GPa) = 23.88444 30.14118 27.01281
#
# Velocity S-wave (km/s) = 3.41528 3.83662 3.63207
# Velocity P-wave (km/s) = 7.04854 7.37566 7.21396
#
# Compressibility (1/GPa) = 0.01430888
#
# Stress axis : x y z
#
# Youngs Moduli (GPa) = 117.88399 92.54337 84.71049
#
# Poissons Ratio (x) = 0.22805 0.22329
# Poissons Ratio (y) = 0.29049 0.27889
# Poissons Ratio (z) = 0.31073 0.30467
#
# Static dielectric constant tensor:
#      x y z
#    x 1.801470 0.000000 0.000000 
#    y 0.000000 1.915400 0.000000 
#    z 0.000000 0.000000 1.694040 
# 
# From -- ./inp_files/46345.got.cif
#   From: 2010.05.17/outbox.cif.g08.bks.cpg/sg68_24_cif.got.tgz:46345.got - 2010.06.03 18:57:09.
