data_PCOD9508972
_publ_section_title
;
Structure prediction by ZEFSAII (Michael W. Deem and Ramdas Pophale) SiO2 
 PCOD9508972
Probable space group: C C C A
;
_chemical_formula_sum "Si O2"
_cell_formula_units_Z 48
_cell_length_a 7.985934
_cell_length_b 20.825463
_cell_length_c 12.579074
_cell_angle_alpha 90.000000
_cell_angle_beta 90.000000
_cell_angle_gamma 90.000000
_cell_volume 2092.035521
_symmetry_space_group_name_H-M "C C C A"
_symmetry_group_IT_number 68
_space_group.IT_coordinate_system_code '2'
_symmetry_cell_setting 'orthorhombic'
loop_
_space_group_symop_operation_xyz
x,y,z
-x,1/2-y,z
x,1/2-y,1/2-z
-x,y,1/2-z
-x,-y,-z
x,1/2+y,-z
-x,1/2+y,1/2+z
x,-y,1/2+z
1/2+x,1/2+y,z
1/2-x,-y,z
1/2+x,-y,1/2-z
1/2-x,1/2+y,1/2-z
1/2-x,1/2-y,-z
1/2+x,y,-z
1/2-x,y,1/2+z
1/2+x,1/2-y,1/2+z
loop_
_atom_site_type_symbol
_atom_site_label
_atom_site_fract_x
_atom_site_fract_y
_atom_site_fract_z
Si Si1 0.500000 0.905133 0.250000
Si Si2 0.566503 0.877198 0.870955
Si Si3 0.250000 0.500000 0.850117
Si Si4 0.583711 0.819558 0.432401
O O1 0.472344 0.861316 0.351764
O O2 0.349182 0.951343 0.223536
O O3 0.500000 0.878485 0.750000
O O4 0.625719 0.949333 0.906506
O O5 0.727994 0.829901 0.887457
O O6 0.428449 0.850664 0.951616
O O7 0.500000 0.750000 0.433879
#
# Coordination Sequence:
#
# PCOD9508972 Si02
#       4
#     8  16   8  16
#     4  10  23  42  72 100 145 186 234 304 356 436
#     4  11  26  47  74 111 144 195 241 307 364 437
#     4  10  22  44  70 108 146 180 250 290 378 430
#     4  11  26  47  74 105 149 192 245 297 368 436
#
# _framework density 22.944163
#
# number of rings (size 3 to 8) (size 9 to 14) (size 15 to 20)
#    0.000    1.333    1.667    1.500    9.333    7.333 
#   12.000    0.000    0.000    0.000    0.000    0.000 
#    0.000    0.000    0.000    0.000    0.000    0.000 
#
# Total GULP energy -134046.601958 kJ/mol
# GULP energy per Si atom -5585.275082 kJ/mol
# Density = 2.289194 g / cm^3
# Si number density = 22.944163 Si / 1000 Ang^3
#
#
#
# Elastic Constant Matrix: (Units=GPa)
#
#
# Indices 1 2 3 4 5 6 
#
# 1 86.8984 48.5329 22.5135 0.0000 0.0000 0.0000
# 2 48.5329 151.7409 76.1530 0.0000 0.0000 0.0000
# 3 22.5135 76.1530 103.1728 0.0000 0.0000 0.0000
# 4 0.0000 0.0000 0.0000 20.2894 0.0000 0.0000
# 5 0.0000 0.0000 0.0000 0.0000 18.6003 0.0000
# 6 0.0000 0.0000 0.0000 0.0000 0.0000 22.6389
#
#
#
# Elastic Compliance Matrix: (Units=1/GPa)
#
#
# Indices 1 2 3 4 5 6 
#
# 1 0.014021 -0.004684 0.000398 0.000000 0.000000 0.000000
# 2 -0.004684 0.012033 -0.007859 0.000000 0.000000 0.000000
# 3 0.000398 -0.007859 0.015407 0.000000 0.000000 0.000000
# 4 0.000000 0.000000 0.000000 0.049287 0.000000 0.000000
# 5 0.000000 0.000000 0.000000 0.000000 0.053763 0.000000
# 6 0.000000 0.000000 0.000000 0.000000 0.000000 0.044172
#
#
# Mechanical properties :
#
#
# Convention : Reuss Voigt Hill
#
# Bulk Modulus (GPa) = 58.24437 70.69009 64.46723
# Shear Modulus (GPa) = 22.86288 25.27990 24.07139
#
# Velocity S-wave (km/s) = 3.16010 3.32294 3.24254
# Velocity P-wave (km/s) = 6.22538 6.75271 6.49440
#
# Compressibility (1/GPa) = 0.01716904
#
# Stress axis : x y z
#
# Youngs Moduli (GPa) = 71.32326 83.10746 64.90690
#
# Poissons Ratio (x) = 0.38928 -0.02583
# Poissons Ratio (y) = 0.33408 0.51012
# Poissons Ratio (z) = -0.02838 0.65317
#
# Static dielectric constant tensor:
#      x y z
#    x 2.110560 0.000000 0.000000 
#    y 0.000000 1.890730 0.000000 
#    z 0.000000 0.000000 1.845370 
# 
# From -- ./inp_files/10451.got.cif
#   From: 2010.05.17/outbox.cif.g08.bks.cpg/sg68_6_cif.got.tgz:10451.got - 2010.06.03 18:57:09.
