data_PCOD9508397
_publ_section_title
;
Structure prediction by ZEFSAII (Michael W. Deem and Ramdas Pophale) SiO2 
 PCOD9508397
Probable space group: C C C A
;
_chemical_formula_sum "Si O2"
_cell_formula_units_Z 48
_cell_length_a 17.754752
_cell_length_b 4.619717
_cell_length_c 22.380750
_cell_angle_alpha 90.000000
_cell_angle_beta 90.000000
_cell_angle_gamma 90.000000
_cell_volume 1835.712302
_symmetry_space_group_name_H-M "C C C A"
_symmetry_group_IT_number 68
_space_group.IT_coordinate_system_code '2'
_symmetry_cell_setting 'orthorhombic'
loop_
_space_group_symop_operation_xyz
x,y,z
-x,1/2-y,z
x,1/2-y,1/2-z
-x,y,1/2-z
-x,-y,-z
x,1/2+y,-z
-x,1/2+y,1/2+z
x,-y,1/2+z
1/2+x,1/2+y,z
1/2-x,-y,z
1/2+x,-y,1/2-z
1/2-x,1/2+y,1/2-z
1/2-x,1/2-y,-z
1/2+x,y,-z
1/2-x,y,1/2+z
1/2+x,1/2-y,1/2+z
loop_
_atom_site_type_symbol
_atom_site_label
_atom_site_fract_x
_atom_site_fract_y
_atom_site_fract_z
Si Si1 0.898124 0.218586 0.344601
Si Si2 0.336943 0.935501 0.540880
Si Si3 0.750000 0.000000 0.208607
Si Si4 0.000000 0.250000 0.676334
O O1 0.816672 0.341083 0.326374
O O2 0.949195 0.501351 0.353206
O O3 0.888239 0.042830 0.405862
O O4 0.936959 0.983801 0.298948
O O5 0.348154 0.607214 0.521365
O O6 0.250000 0.000000 0.557540
O O7 0.716220 0.250000 0.250000
#
# Coordination Sequence:
#
# PCOD9508397 Si02
#       4
#    16  16   8   8
#     4  11  24  46  70 100 146 180 226 289 337 411
#     4  10  22  37  65 105 136 180 230 279 336 395
#     4  12  28  46  76 110 128 172 244 304 352 404
#     4  10  24  44  69 100 142 196 214 264 369 412
#
# _framework density 26.147888999999999
#
# number of rings (size 3 to 8) (size 9 to 14) (size 15 to 20)
#    0.000    1.333    0.000    4.000   14.000    0.000 
#    0.000   29.167    0.000    0.000    0.000    0.000 
#    0.000    0.000    0.000    0.000    0.000    0.000 
#
# Total GULP energy -134077.180547 kJ/mol
# GULP energy per Si atom -5586.549189 kJ/mol
# Density = 2.608838 g / cm^3
# Si number density = 26.147889 Si / 1000 Ang^3
#
#
#
# Elastic Constant Matrix: (Units=GPa)
#
#
# Indices 1 2 3 4 5 6 
#
# 1 158.1725 64.0284 43.0861 0.0000 0.0000 0.0000
# 2 64.0284 191.1991 31.8596 0.0000 0.0000 0.0000
# 3 43.0861 31.8596 69.8125 0.0000 0.0000 0.0000
# 4 0.0000 0.0000 0.0000 41.5486 0.0000 0.0000
# 5 0.0000 0.0000 0.0000 0.0000 23.4553 0.0000
# 6 0.0000 0.0000 0.0000 0.0000 0.0000 72.3580
#
#
#
# Elastic Compliance Matrix: (Units=1/GPa)
#
#
# Indices 1 2 3 4 5 6 
#
# 1 0.008303 -0.002085 -0.004173 0.000000 0.000000 0.000000
# 2 -0.002085 0.006184 -0.001535 0.000000 0.000000 0.000000
# 3 -0.004173 -0.001535 0.017600 0.000000 0.000000 0.000000
# 4 0.000000 0.000000 0.000000 0.024068 0.000000 0.000000
# 5 0.000000 0.000000 0.000000 0.000000 0.042634 0.000000
# 6 0.000000 0.000000 0.000000 0.000000 0.000000 0.013820
#
#
# Mechanical properties :
#
#
# Convention : Reuss Voigt Hill
#
# Bulk Modulus (GPa) = 60.60331 77.45914 69.03123
# Shear Modulus (GPa) = 37.39811 46.15305 41.77558
#
# Velocity S-wave (km/s) = 3.78597 4.20584 4.00142
# Velocity P-wave (km/s) = 6.50683 7.29885 6.91419
#
# Compressibility (1/GPa) = 0.01650075
#
# Stress axis : x y z
#
# Youngs Moduli (GPa) = 120.43931 161.70071 56.81807
#
# Poissons Ratio (x) = 0.33717 0.23709
# Poissons Ratio (y) = 0.25114 0.08724
# Poissons Ratio (z) = 0.50256 0.24827
#
# Static dielectric constant tensor:
#      x y z
#    x 2.120750 0.000000 0.000000 
#    y 0.000000 1.974220 0.000000 
#    z 0.000000 0.000000 2.142150 
# 
# From -- ./inp_files/50593.got.cif
#   From: 2010.05.17/outbox.cif.g08.bks.cpg/sg68_26_cif.got.tgz:50593.got - 2010.06.03 18:57:09.
