data_PCOD9508717
_publ_section_title
;
Structure prediction by ZEFSAII (Michael W. Deem and Ramdas Pophale) SiO2 
 PCOD9508717
Probable space group: C C C A
;
_chemical_formula_sum "Si O2"
_cell_formula_units_Z 56
_cell_length_a 10.383717
_cell_length_b 16.863871
_cell_length_c 16.462815
_cell_angle_alpha 90.000000
_cell_angle_beta 90.000000
_cell_angle_gamma 90.000000
_cell_volume 2882.798003
_symmetry_space_group_name_H-M "C C C A"
_symmetry_group_IT_number 68
_space_group.IT_coordinate_system_code '2'
_symmetry_cell_setting 'orthorhombic'
loop_
_space_group_symop_operation_xyz
x,y,z
-x,1/2-y,z
x,1/2-y,1/2-z
-x,y,1/2-z
-x,-y,-z
x,1/2+y,-z
-x,1/2+y,1/2+z
x,-y,1/2+z
1/2+x,1/2+y,z
1/2-x,-y,z
1/2+x,-y,1/2-z
1/2-x,1/2+y,1/2-z
1/2-x,1/2-y,-z
1/2+x,y,-z
1/2-x,y,1/2+z
1/2+x,1/2-y,1/2+z
loop_
_atom_site_type_symbol
_atom_site_label
_atom_site_fract_x
_atom_site_fract_y
_atom_site_fract_z
Si Si1 0.868653 0.300788 0.532777
Si Si2 0.773231 0.088883 0.349312
Si Si3 0.462407 0.057963 0.925911
Si Si4 0.250000 0.000000 0.808476
O O1 0.750000 0.250000 0.500000
O O2 0.820911 0.346292 0.613629
O O3 0.887864 0.370070 0.467132
O O4 0.000000 0.250000 0.542053
O O5 0.920092 0.098767 0.377030
O O6 0.750000 0.000000 0.384963
O O7 0.751959 0.074369 0.253690
O O8 0.374870 0.007970 0.864158
O O9 0.500000 0.000000 0.000000
#
# Coordination Sequence:
#
# PCOD9508717 Si02
#       4
#    16  16  16   8
#     4  12  25  42  70 104 144 183 233 287 357 425
#     4  10  22  41  66 100 134 181 237 289 343 410
#     4  12  21  41  73  97 130 183 246 284 338 421
#     4  10  24  40  72 100 134 174 252 296 338 406
#
# _framework density 19.42557
#
# number of rings (size 3 to 8) (size 9 to 14) (size 15 to 20)
#    0.857    0.000    5.714    2.571    0.000    0.000 
#    0.000    1.429    6.286    0.000    0.000    0.000 
#    0.000    0.000    0.000    0.000    0.000    0.000 
#
# Total GULP energy -156091.441964 kJ/mol
# GULP energy per Si atom -5574.694356 kJ/mol
# Density = 1.938136 g / cm^3
# Si number density = 19.425570 Si / 1000 Ang^3
#
#
#
# Elastic Constant Matrix: (Units=GPa)
#
#
# Indices 1 2 3 4 5 6 
#
# 1 130.3826 50.9309 72.8494 0.0000 0.0000 0.0000
# 2 50.9309 92.1264 50.2906 0.0000 0.0000 0.0000
# 3 72.8494 50.2906 150.8965 0.0000 0.0000 0.0000
# 4 0.0000 0.0000 0.0000 15.9826 0.0000 0.0000
# 5 0.0000 0.0000 0.0000 0.0000 31.8389 0.0000
# 6 0.0000 0.0000 0.0000 0.0000 0.0000 50.2952
#
#
#
# Elastic Compliance Matrix: (Units=1/GPa)
#
#
# Indices 1 2 3 4 5 6 
#
# 1 0.011657 -0.004122 -0.004254 0.000000 0.000000 0.000000
# 2 -0.004122 0.014726 -0.002918 0.000000 0.000000 0.000000
# 3 -0.004254 -0.002918 0.009653 0.000000 0.000000 0.000000
# 4 0.000000 0.000000 0.000000 0.062568 0.000000 0.000000
# 5 0.000000 0.000000 0.000000 0.000000 0.031408 0.000000
# 6 0.000000 0.000000 0.000000 0.000000 0.000000 0.019883
#
#
# Mechanical properties :
#
#
# Convention : Reuss Voigt Hill
#
# Bulk Modulus (GPa) = 74.35735 80.17191 77.26463
# Shear Modulus (GPa) = 28.25410 32.91231 30.58321
#
# Velocity S-wave (km/s) = 3.81790 4.12063 3.97215
# Velocity P-wave (km/s) = 7.60239 8.00002 7.80374
#
# Compressibility (1/GPa) = 0.01344857
#
# Stress axis : x y z
#
# Youngs Moduli (GPa) = 85.78757 67.90535 103.59313
#
# Poissons Ratio (x) = 0.27992 0.44066
# Poissons Ratio (y) = 0.35363 0.30227
# Poissons Ratio (z) = 0.36492 0.19814
#
# Static dielectric constant tensor:
#      x y z
#    x 1.717380 0.000000 0.000000 
#    y 0.000000 1.671640 0.000000 
#    z 0.000000 0.000000 1.691030 
# 
# From -- ./inp_files/27670.got.cif
#   From: 2010.05.17/outbox.cif.g08.bks.cpg/sg68_14_cif.got.tgz:27670.got - 2010.06.03 18:57:09.
