data_PCOD9508627
_publ_section_title
;
Structure prediction by ZEFSAII (Michael W. Deem and Ramdas Pophale) SiO2 
 PCOD9508627
Probable space group: C C C A
;
_chemical_formula_sum "Si O2"
_cell_formula_units_Z 64
_cell_length_a 17.747810
_cell_length_b 8.872210
_cell_length_c 15.921323
_cell_angle_alpha 90.000000
_cell_angle_beta 90.000000
_cell_angle_gamma 90.000000
_cell_volume 2507.008097
_symmetry_space_group_name_H-M "C C C A"
_symmetry_group_IT_number 68
_space_group.IT_coordinate_system_code '2'
_symmetry_cell_setting 'orthorhombic'
loop_
_space_group_symop_operation_xyz
x,y,z
-x,1/2-y,z
x,1/2-y,1/2-z
-x,y,1/2-z
-x,-y,-z
x,1/2+y,-z
-x,1/2+y,1/2+z
x,-y,1/2+z
1/2+x,1/2+y,z
1/2-x,-y,z
1/2+x,-y,1/2-z
1/2-x,1/2+y,1/2-z
1/2-x,1/2-y,-z
1/2+x,y,-z
1/2-x,y,1/2+z
1/2+x,1/2-y,1/2+z
loop_
_atom_site_type_symbol
_atom_site_label
_atom_site_fract_x
_atom_site_fract_y
_atom_site_fract_z
Si Si1 0.073246 0.843711 0.475929
Si Si2 0.455793 0.593086 0.327017
Si Si3 0.786497 0.156856 0.321576
Si Si4 0.177281 0.401304 0.040563
O O1 0.863286 0.787158 0.476761
O O2 0.000000 0.750000 0.447911
O O3 0.943069 0.081478 0.430406
O O4 0.111578 0.984025 0.428452
O O5 0.500000 0.750000 0.330271
O O6 0.500000 0.506493 0.250000
O O7 0.370814 0.609623 0.294674
O O8 0.744225 0.250000 0.250000
O O9 0.796442 0.281708 0.391665
O O10 0.750000 0.000000 0.343723
O O11 0.250000 0.500000 0.017042
#
# Coordination Sequence:
#
# PCOD9508627 Si02
#       4
#    16  16  16  16
#     4  10  22  40  67 102 140 186 239 291 366 438
#     4   9  17  37  67  94 125 182 234 288 361 422
#     4  11  23  42  69 103 138 189 249 305 375 438
#     4  11  24  42  66 103 148 187 233 304 363 441
#
# _framework density 25.528437
#
# number of rings (size 3 to 8) (size 9 to 14) (size 15 to 20)
#    0.000    1.750    2.500    2.250    0.000    8.000 
#    0.000    0.000    0.000    0.750    0.000    0.000 
#    0.000    0.000    0.000    0.000    0.000    0.000 
#
# Total GULP energy -178237.529667 kJ/mol
# GULP energy per Si atom -5569.922802 kJ/mol
# Density = 2.547033 g / cm^3
# Si number density = 25.528437 Si / 1000 Ang^3
#
#
#
# Elastic Constant Matrix: (Units=GPa)
#
#
# Indices 1 2 3 4 5 6 
#
# 1 147.3679 81.8912 42.0199 0.0000 0.0000 0.0000
# 2 81.8912 212.7659 55.0986 0.0000 0.0000 0.0000
# 3 42.0199 55.0986 73.1793 0.0000 0.0000 0.0000
# 4 0.0000 0.0000 0.0000 24.4722 0.0000 0.0000
# 5 0.0000 0.0000 0.0000 0.0000 23.5255 0.0000
# 6 0.0000 0.0000 0.0000 0.0000 0.0000 44.2144
#
#
#
# Elastic Compliance Matrix: (Units=1/GPa)
#
#
# Indices 1 2 3 4 5 6 
#
# 1 0.009217 -0.002704 -0.003256 0.000000 0.000000 0.000000
# 2 -0.002704 0.006632 -0.003440 0.000000 0.000000 0.000000
# 3 -0.003256 -0.003440 0.018125 0.000000 0.000000 0.000000
# 4 0.000000 0.000000 0.000000 0.040863 0.000000 0.000000
# 5 0.000000 0.000000 0.000000 0.000000 0.042507 0.000000
# 6 0.000000 0.000000 0.000000 0.000000 0.000000 0.022617
#
#
# Mechanical properties :
#
#
# Convention : Reuss Voigt Hill
#
# Bulk Modulus (GPa) = 65.91102 87.92583 76.91843
# Shear Modulus (GPa) = 30.52127 35.39598 32.95863
#
# Velocity S-wave (km/s) = 3.46147 3.72766 3.59702
# Velocity P-wave (km/s) = 6.46919 7.28315 6.88820
#
# Compressibility (1/GPa) = 0.01517197
#
# Stress axis : x y z
#
# Youngs Moduli (GPa) = 108.49566 150.78901 55.17160
#
# Poissons Ratio (x) = 0.40777 0.17966
# Poissons Ratio (y) = 0.29340 0.18982
# Poissons Ratio (z) = 0.35330 0.51878
#
# Static dielectric constant tensor:
#      x y z
#    x 2.066820 0.000000 0.000000 
#    y 0.000000 1.809670 0.000000 
#    z 0.000000 0.000000 2.264360 
# 
# From -- ./inp_files/39121.got.cif
#   From: 2010.05.17/outbox.cif.g08.bks.cpg/sg68_20_cif.got.tgz:39121.got - 2010.06.03 18:57:09.
