data_PCOD9508561
_publ_section_title
;
Structure prediction by ZEFSAII (Michael W. Deem and Ramdas Pophale) SiO2 
 PCOD9508561
Probable space group: C C C A
;
_chemical_formula_sum "Si O2"
_cell_formula_units_Z 72
_cell_length_a 19.063224
_cell_length_b 10.729009
_cell_length_c 16.892195
_cell_angle_alpha 90.000000
_cell_angle_beta 90.000000
_cell_angle_gamma 90.000000
_cell_volume 3454.952229
_symmetry_space_group_name_H-M "C C C A"
_symmetry_group_IT_number 68
_space_group.IT_coordinate_system_code '2'
_symmetry_cell_setting 'orthorhombic'
loop_
_space_group_symop_operation_xyz
x,y,z
-x,1/2-y,z
x,1/2-y,1/2-z
-x,y,1/2-z
-x,-y,-z
x,1/2+y,-z
-x,1/2+y,1/2+z
x,-y,1/2+z
1/2+x,1/2+y,z
1/2-x,-y,z
1/2+x,-y,1/2-z
1/2-x,1/2+y,1/2-z
1/2-x,1/2-y,-z
1/2+x,y,-z
1/2-x,y,1/2+z
1/2+x,1/2-y,1/2+z
loop_
_atom_site_type_symbol
_atom_site_label
_atom_site_fract_x
_atom_site_fract_y
_atom_site_fract_z
Si Si1 0.826834 0.308626 0.020231
Si Si2 0.915978 0.264009 0.625468
Si Si3 0.750000 0.500000 0.437760
Si Si4 0.326947 0.315575 0.676454
Si Si5 0.915807 0.460078 0.755187
O O1 0.850701 0.284865 0.110123
O O2 0.750000 0.250000 0.000000
O O3 0.880470 0.247203 0.959228
O O4 0.812570 0.450438 0.993421
O O5 0.896182 0.390123 0.672966
O O6 0.895835 0.143737 0.678793
O O7 0.000000 0.250000 0.619206
O O8 0.723003 0.602121 0.376891
O O9 0.289862 0.250000 0.750000
O O10 0.382566 0.409287 0.717325
O O11 0.000000 0.472877 0.750000
#
# Coordination Sequence:
#
# PCOD9508561 Si02
#       5
#    16  16   8  16  16
#     4  10  22  40  61  90 126 170 212 263 314 386
#     4   9  18  39  70  93 118 171 219 259 322 395
#     4  10  22  42  64  84 132 168 216 264 316 398
#     4  11  24  38  60  94 125 163 211 264 329 370
#     4   9  19  39  65  94 126 160 211 267 324 387
#
# _framework density 20.839652999999998
#
# number of rings (size 3 to 8) (size 9 to 14) (size 15 to 20)
#    0.000    2.222    2.222    1.333    0.000    8.444 
#    4.000    2.222    0.000    0.000    0.000    0.000 
#    0.000    0.000    0.000    0.000    0.000    0.000 
#
# Total GULP energy -200524.758465 kJ/mol
# GULP energy per Si atom -5570.132180 kJ/mol
# Density = 2.079222 g / cm^3
# Si number density = 20.839653 Si / 1000 Ang^3
#
#
#
# Elastic Constant Matrix: (Units=GPa)
#
#
# Indices 1 2 3 4 5 6 
#
# 1 40.1409 19.8482 32.6447 0.0000 0.0000 0.0000
# 2 19.8482 81.6586 63.4892 0.0000 0.0000 0.0000
# 3 32.6447 63.4892 185.3073 0.0000 0.0000 0.0000
# 4 0.0000 0.0000 0.0000 33.5005 0.0000 0.0000
# 5 0.0000 0.0000 0.0000 0.0000 28.0357 0.0000
# 6 0.0000 0.0000 0.0000 0.0000 0.0000 12.8934
#
#
#
# Elastic Compliance Matrix: (Units=1/GPa)
#
#
# Indices 1 2 3 4 5 6 
#
# 1 0.030178 -0.004364 -0.003821 0.000000 0.000000 0.000000
# 2 -0.004364 0.017324 -0.005167 0.000000 0.000000 0.000000
# 3 -0.003821 -0.005167 0.007840 0.000000 0.000000 0.000000
# 4 0.000000 0.000000 0.000000 0.029850 0.000000 0.000000
# 5 0.000000 0.000000 0.000000 0.000000 0.035669 0.000000
# 6 0.000000 0.000000 0.000000 0.000000 0.000000 0.077559
#
#
# Mechanical properties :
#
#
# Convention : Reuss Voigt Hill
#
# Bulk Modulus (GPa) = 34.91919 59.89676 47.40798
# Shear Modulus (GPa) = 21.30663 27.62758 24.46711
#
# Velocity S-wave (km/s) = 3.20098 3.64500 3.43018
# Velocity P-wave (km/s) = 5.51853 6.82047 6.20375
#
# Compressibility (1/GPa) = 0.02863755
#
# Stress axis : x y z
#
# Youngs Moduli (GPa) = 33.13714 57.72370 127.55551
#
# Poissons Ratio (x) = 0.25192 0.48739
# Poissons Ratio (y) = 0.14462 0.65903
# Poissons Ratio (z) = 0.12662 0.29824
#
# Static dielectric constant tensor:
#      x y z
#    x 1.735210 0.000000 0.000000 
#    y 0.000000 2.142850 0.000000 
#    z 0.000000 0.000000 1.727760 
# 
# From -- ./inp_files/32686.got.cif
#   From: 2010.05.17/outbox.cif.g08.bks.cpg/sg68_17_cif.got.tgz:32686.got - 2010.06.03 18:57:09.
