data_PCOD9508554
_publ_section_title
;
Structure prediction by ZEFSAII (Michael W. Deem and Ramdas Pophale) SiO2 
 PCOD9508554
Probable space group: C C C A
;
_chemical_formula_sum "Si O2"
_cell_formula_units_Z 112
_cell_length_a 16.916991
_cell_length_b 13.122501
_cell_length_c 23.275684
_cell_angle_alpha 90.000000
_cell_angle_beta 90.000000
_cell_angle_gamma 90.000000
_cell_volume 5167.044302
_symmetry_space_group_name_H-M "C C C A"
_symmetry_group_IT_number 68
_space_group.IT_coordinate_system_code '2'
_symmetry_cell_setting 'orthorhombic'
loop_
_space_group_symop_operation_xyz
x,y,z
-x,1/2-y,z
x,1/2-y,1/2-z
-x,y,1/2-z
-x,-y,-z
x,1/2+y,-z
-x,1/2+y,1/2+z
x,-y,1/2+z
1/2+x,1/2+y,z
1/2-x,-y,z
1/2+x,-y,1/2-z
1/2-x,1/2+y,1/2-z
1/2-x,1/2-y,-z
1/2+x,y,-z
1/2-x,y,1/2+z
1/2+x,1/2-y,1/2+z
loop_
_atom_site_type_symbol
_atom_site_label
_atom_site_fract_x
_atom_site_fract_y
_atom_site_fract_z
Si Si1 0.911418 0.263572 0.819227
Si Si2 0.914903 0.512635 0.285206
Si Si3 0.167710 0.948339 0.170285
Si Si4 0.889256 0.063499 0.096980
Si Si5 0.650569 0.828622 0.991936
Si Si6 0.936013 0.999563 0.431749
Si Si7 0.320011 0.397272 0.018253
O O1 0.916593 0.250000 0.750000
O O2 0.901243 0.384569 0.822835
O O3 0.849158 0.174397 0.836097
O O4 0.000000 0.250000 0.843905
O O5 0.850462 0.518975 0.235300
O O6 0.898341 0.428587 0.334356
O O7 0.000000 0.512281 0.250000
O O8 0.250000 0.000000 0.152719
O O9 0.100148 0.997173 0.131259
O O10 0.974291 0.029178 0.073346
O O11 0.832017 0.975220 0.070918
O O12 0.866438 0.164508 0.060509
O O13 0.662349 0.718887 0.965162
O O14 0.582551 0.889681 0.959432
O O15 0.733774 0.889710 0.988385
O O16 0.885159 0.073741 0.471342
#
# Coordination Sequence:
#
# PCOD9508554 Si02
#       7
#    16  16  16  16  16  16  16
#     4   9  15  32  56  84 117 150 203 257 310 367
#     4  11  20  39  61  92 126 163 209 272 321 371
#     4  11  22  35  59  90 128 165 203 262 332 384
#     4  11  22  36  65  92 122 165 212 256 319 389
#     4  10  22  40  60  89 126 160 205 262 324 384
#     4  11  21  37  60  88 122 161 205 256 319 384
#     4  10  22  40  60  87 125 162 205 263 318 379
#
# _framework density 21.675834999999999
#
# number of rings (size 3 to 8) (size 9 to 14) (size 15 to 20)
#    0.000    1.571    4.286    4.286    2.000    3.429 
#    0.000    0.000    3.143    0.000    0.000    0.000 
#    0.000    0.000    0.000    0.000    0.000    0.000 
#
# Total GULP energy -312008.730826 kJ/mol
# GULP energy per Si atom -5571.584479 kJ/mol
# Density = 2.162650 g / cm^3
# Si number density = 21.675835 Si / 1000 Ang^3
#
#
#
# Elastic Constant Matrix: (Units=GPa)
#
#
# Indices 1 2 3 4 5 6 
#
# 1 92.8956 20.1310 11.8898 0.0000 0.0000 0.0000
# 2 20.1310 34.4988 5.5122 0.0000 0.0000 0.0000
# 3 11.8898 5.5122 94.9873 0.0000 0.0000 0.0000
# 4 0.0000 0.0000 0.0000 19.8197 0.0000 0.0000
# 5 0.0000 0.0000 0.0000 0.0000 7.9967 0.0000
# 6 0.0000 0.0000 0.0000 0.0000 0.0000 6.9641
#
#
#
# Elastic Compliance Matrix: (Units=1/GPa)
#
#
# Indices 1 2 3 4 5 6 
#
# 1 0.012446 -0.007079 -0.001147 0.000000 0.000000 0.000000
# 2 -0.007079 0.033284 -0.001045 0.000000 0.000000 0.000000
# 3 -0.001147 -0.001045 0.010732 0.000000 0.000000 0.000000
# 4 0.000000 0.000000 0.000000 0.050455 0.000000 0.000000
# 5 0.000000 0.000000 0.000000 0.000000 0.125052 0.000000
# 6 0.000000 0.000000 0.000000 0.000000 0.000000 0.143595
#
#
# Mechanical properties :
#
#
# Convention : Reuss Voigt Hill
#
# Bulk Modulus (GPa) = 26.37210 33.04976 29.71093
# Shear Modulus (GPa) = 12.29267 19.27933 15.78600
#
# Velocity S-wave (km/s) = 2.38400 2.98558 2.70159
# Velocity P-wave (km/s) = 4.44645 5.21204 4.84439
#
# Compressibility (1/GPa) = 0.03791886
#
# Stress axis : x y z
#
# Youngs Moduli (GPa) = 80.34918 30.04412 93.17958
#
# Poissons Ratio (x) = 0.21269 0.10688
# Poissons Ratio (y) = 0.56880 0.09741
# Poissons Ratio (z) = 0.09216 0.03141
#
# Static dielectric constant tensor:
#      x y z
#    x 1.805070 0.000000 0.000000 
#    y 0.000000 1.895060 0.000000 
#    z 0.000000 0.000000 1.828080 
# 
# From -- ./inp_files/45556.got.cif
#   From: 2010.05.17/outbox.cif.g08.bks.cpg/sg68_23_cif.got.tgz:45556.got - 2010.06.03 18:57:09.
