data_PCOD9508202
_publ_section_title
;
Structure prediction by ZEFSAII (Michael W. Deem and Ramdas Pophale) SiO2 
 PCOD9508202
Probable space group: C C C A
;
_chemical_formula_sum "Si O2"
_cell_formula_units_Z 112
_cell_length_a 10.747135
_cell_length_b 15.770319
_cell_length_c 31.678673
_cell_angle_alpha 90.000000
_cell_angle_beta 90.000000
_cell_angle_gamma 90.000000
_cell_volume 5369.083566
_symmetry_space_group_name_H-M "C C C A"
_symmetry_group_IT_number 68
_space_group.IT_coordinate_system_code '2'
_symmetry_cell_setting 'orthorhombic'
loop_
_space_group_symop_operation_xyz
x,y,z
-x,1/2-y,z
x,1/2-y,1/2-z
-x,y,1/2-z
-x,-y,-z
x,1/2+y,-z
-x,1/2+y,1/2+z
x,-y,1/2+z
1/2+x,1/2+y,z
1/2-x,-y,z
1/2+x,-y,1/2-z
1/2-x,1/2+y,1/2-z
1/2-x,1/2-y,-z
1/2+x,y,-z
1/2-x,y,1/2+z
1/2+x,1/2-y,1/2+z
loop_
_atom_site_type_symbol
_atom_site_label
_atom_site_fract_x
_atom_site_fract_y
_atom_site_fract_z
Si Si1 0.615623 0.010591 0.220016
Si Si2 0.368095 0.790959 0.795978
Si Si3 0.876609 0.695612 0.934842
Si Si4 0.779169 0.801293 0.863328
Si Si5 0.026309 0.085951 0.359180
Si Si6 0.375167 0.942448 0.507244
Si Si7 0.371061 0.440113 0.397884
O O1 0.500000 0.994390 0.250000
O O2 0.612212 0.108614 0.206427
O O3 0.750000 0.000000 0.241457
O O4 0.399110 0.944369 0.318369
O O5 0.500000 0.750000 0.808714
O O6 0.339150 0.750000 0.750000
O O7 0.260089 0.766315 0.828597
O O8 0.788901 0.763762 0.911060
O O9 0.854038 0.635135 0.974730
O O10 0.000000 0.750000 0.944554
O O11 0.898772 0.632694 0.895595
O O12 0.907287 0.851066 0.852022
O O13 0.668065 0.868451 0.865522
O O14 0.977239 0.999324 0.379945
O O15 0.394233 0.909191 0.554847
O O16 0.500000 0.000000 0.500000
O O17 0.250000 0.000000 0.505022
O O18 0.250000 0.500000 0.401335
#
# Coordination Sequence:
#
# PCOD9508202 Si02
#       7
#    16  16  16  16  16  16  16
#     4  12  27  43  68  99 131 173 227 276 332 405
#     4  11  23  43  63  94 138 171 209 283 346 391
#     4  10  22  42  65  94 135 168 215 281 333 375
#     4  10  22  40  67  92 127 177 218 270 334 398
#     4  10  21  42  67  91 124 173 224 269 321 400
#     4  11  23  43  68  97 136 178 222 272 330 393
#     4   9  19  37  65  94 127 175 221 257 324 405
#
# _framework density 20.860171000000001
#
# number of rings (size 3 to 8) (size 9 to 14) (size 15 to 20)
#    0.000    1.571    2.857    1.714    4.000    2.857 
#    2.571    0.000    0.000    0.000    0.000    0.000 
#    0.000    0.000    0.000    0.000    0.000    0.000 
#
# Total GULP energy -312387.960279 kJ/mol
# GULP energy per Si atom -5578.356434 kJ/mol
# Density = 2.081269 g / cm^3
# Si number density = 20.860171 Si / 1000 Ang^3
#
#
#
# Elastic Constant Matrix: (Units=GPa)
#
#
# Indices 1 2 3 4 5 6 
#
# 1 73.2416 12.9876 17.8308 0.0000 0.0000 0.0000
# 2 12.9876 73.6982 2.5936 0.0000 0.0000 0.0000
# 3 17.8308 2.5936 61.3587 0.0000 0.0000 0.0000
# 4 0.0000 0.0000 0.0000 59.7464 0.0000 0.0000
# 5 0.0000 0.0000 0.0000 0.0000 -0.2793 0.0000
# 6 0.0000 0.0000 0.0000 0.0000 0.0000 18.9081
#
#
#
# Elastic Compliance Matrix: (Units=1/GPa)
#
#
# Indices 1 2 3 4 5 6 
#
# 1 0.015146 -0.002518 -0.004295 0.000000 0.000000 0.000000
# 2 -0.002518 0.014008 0.000140 0.000000 0.000000 0.000000
# 3 -0.004295 0.000140 0.017540 0.000000 0.000000 0.000000
# 4 0.000000 0.000000 0.000000 0.016737 0.000000 0.000000
# 5 0.000000 0.000000 0.000000 0.000000 -3.580697 0.000000
# 6 0.000000 0.000000 0.000000 0.000000 0.000000 0.052887
#
#
# Mechanical properties :
#
#
# Convention : Reuss Voigt Hill
#
# Bulk Modulus (GPa) = 29.98801 30.56918 30.27860
# Shear Modulus (GPa) = -1.45352 27.33416 12.94032
#
# Velocity S-wave (km/s) = -0.83565 3.62381 2.49336
# Velocity P-wave (km/s) = 3.67095 5.67410 4.77867
#
# Compressibility (1/GPa) = 0.03334666
#
# Stress axis : x y z
#
# Youngs Moduli (GPa) = 66.02616 71.38952 57.01324
#
# Poissons Ratio (x) = 0.17975 0.24486
# Poissons Ratio (y) = 0.16625 -0.00796
# Poissons Ratio (z) = 0.28357 -0.00997
#
# Static dielectric constant tensor:
#      x y z
#    x 1.789860 0.000000 0.000000 
#    y 0.000000 1.399680 0.000000 
#    z 0.000000 0.000000 1.736690 
# 
# From -- ./inp_files/54820.got.cif
#   From: 2010.05.17/outbox.cif.g08.bks.cpg/sg68_28_cif.got.tgz:54820.got - 2010.06.03 18:57:09.
