data_PCOD9508341
_publ_section_title
;
Structure prediction by ZEFSAII (Michael W. Deem and Ramdas Pophale) SiO2 
 PCOD9508341
Probable space group: C C C A
;
_chemical_formula_sum "Si O2"
_cell_formula_units_Z 80
_cell_length_a 22.122694
_cell_length_b 12.617722
_cell_length_c 13.534618
_cell_angle_alpha 90.000000
_cell_angle_beta 90.000000
_cell_angle_gamma 90.000000
_cell_volume 3778.026237
_symmetry_space_group_name_H-M "C C C A"
_symmetry_group_IT_number 68
_space_group.IT_coordinate_system_code '2'
_symmetry_cell_setting 'orthorhombic'
loop_
_space_group_symop_operation_xyz
x,y,z
-x,1/2-y,z
x,1/2-y,1/2-z
-x,y,1/2-z
-x,-y,-z
x,1/2+y,-z
-x,1/2+y,1/2+z
x,-y,1/2+z
1/2+x,1/2+y,z
1/2-x,-y,z
1/2+x,-y,1/2-z
1/2-x,1/2+y,1/2-z
1/2-x,1/2-y,-z
1/2+x,y,-z
1/2-x,y,1/2+z
1/2+x,1/2-y,1/2+z
loop_
_atom_site_type_symbol
_atom_site_label
_atom_site_fract_x
_atom_site_fract_y
_atom_site_fract_z
Si Si1 0.416905 0.571906 0.990364
Si Si2 0.429418 0.523157 0.278115
Si Si3 0.869374 0.250000 0.250000
Si Si4 0.679922 0.746767 0.473408
Si Si5 0.500000 0.750000 0.928139
Si Si6 0.394730 0.615265 0.626271
O O1 0.423691 0.501189 0.893592
O O2 0.469561 0.659165 0.993061
O O3 0.354677 0.638148 0.996733
O O4 0.421429 0.491048 0.078737
O O5 0.500000 0.505493 0.250000
O O6 0.408693 0.642023 0.250868
O O7 0.382670 0.434261 0.232808
O O8 0.832904 0.242971 0.355001
O O9 0.750000 0.750000 0.500000
O O10 0.650722 0.836421 0.545791
O O11 0.446614 0.797919 0.864243
#
# Coordination Sequence:
#
# PCOD9508341 Si02
#       6
#    16  16   8  16   8  16
#     4  11  23  42  65 102 139 181 229 281 351 405
#     4  12  25  41  70 107 143 183 228 276 357 422
#     4  12  25  48  70 106 134 181 236 284 340 430
#     4  11  27  48  73  98 138 184 240 291 339 395
#     4  10  22  35  64  93 142 178 216 279 340 421
#     4  11  23  42  65 102 139 181 229 281 351 405
#
# _framework density 21.175077000000002
#
# number of rings (size 3 to 8) (size 9 to 14) (size 15 to 20)
#    0.000    0.800    6.000    0.900    0.000    6.400 
#    0.000    2.000    0.000    0.000    0.000    0.000 
#    0.000    0.000    0.000    0.000    0.000    0.000 
#
# Total GULP energy -223133.361619 kJ/mol
# GULP energy per Si atom -5578.334040 kJ/mol
# Density = 2.112688 g / cm^3
# Si number density = 21.175077 Si / 1000 Ang^3
#
#
#
# Elastic Constant Matrix: (Units=GPa)
#
#
# Indices 1 2 3 4 5 6 
#
# 1 113.8491 44.8429 53.7490 0.0000 0.0000 0.0000
# 2 44.8429 97.4295 13.8064 0.0000 0.0000 0.0000
# 3 53.7490 13.8064 79.0109 0.0000 0.0000 0.0000
# 4 0.0000 0.0000 0.0000 39.4403 0.0000 0.0000
# 5 0.0000 0.0000 0.0000 0.0000 13.3115 0.0000
# 6 0.0000 0.0000 0.0000 0.0000 0.0000 15.9472
#
#
#
# Elastic Compliance Matrix: (Units=1/GPa)
#
#
# Indices 1 2 3 4 5 6 
#
# 1 0.015611 -0.005824 -0.009602 0.000000 0.000000 0.000000
# 2 -0.005824 0.012697 0.001743 0.000000 0.000000 0.000000
# 3 -0.009602 0.001743 0.018884 0.000000 0.000000 0.000000
# 4 0.000000 0.000000 0.000000 0.025355 0.000000 0.000000
# 5 0.000000 0.000000 0.000000 0.000000 0.075123 0.000000
# 6 0.000000 0.000000 0.000000 0.000000 0.000000 0.062707
#
#
# Mechanical properties :
#
#
# Convention : Reuss Voigt Hill
#
# Bulk Modulus (GPa) = 50.43793 57.23180 53.83487
# Shear Modulus (GPa) = 20.46239 25.59922 23.03081
#
# Velocity S-wave (km/s) = 3.11198 3.48074 3.30151
# Velocity P-wave (km/s) = 6.06496 6.57576 6.32552
#
# Compressibility (1/GPa) = 0.01982635
#
# Stress axis : x y z
#
# Youngs Moduli (GPa) = 64.05845 78.75569 52.95578
#
# Poissons Ratio (x) = 0.45870 0.50847
# Poissons Ratio (y) = 0.37310 -0.09232
# Poissons Ratio (z) = 0.61508 -0.13730
#
# Static dielectric constant tensor:
#      x y z
#    x 1.735910 0.000000 0.000000 
#    y 0.000000 1.787410 0.000000 
#    z 0.000000 0.000000 1.821820 
# 
# From -- ./inp_files/25186.got.cif
#   From: 2010.05.17/outbox.cif.g08.bks.cpg/sg68_13_cif.got.tgz:25186.got - 2010.06.03 18:57:09.
