data_PCOD9508900
_publ_section_title
;
Structure prediction by ZEFSAII (Michael W. Deem and Ramdas Pophale) SiO2 
 PCOD9508900
Probable space group: C C C A
;
_chemical_formula_sum "Si O2"
_cell_formula_units_Z 88
_cell_length_a 18.656697
_cell_length_b 11.795101
_cell_length_c 19.221136
_cell_angle_alpha 90.000000
_cell_angle_beta 90.000000
_cell_angle_gamma 90.000000
_cell_volume 4229.757546
_symmetry_space_group_name_H-M "C C C A"
_symmetry_group_IT_number 68
_space_group.IT_coordinate_system_code '2'
_symmetry_cell_setting 'orthorhombic'
loop_
_space_group_symop_operation_xyz
x,y,z
-x,1/2-y,z
x,1/2-y,1/2-z
-x,y,1/2-z
-x,-y,-z
x,1/2+y,-z
-x,1/2+y,1/2+z
x,-y,1/2+z
1/2+x,1/2+y,z
1/2-x,-y,z
1/2+x,-y,1/2-z
1/2-x,1/2+y,1/2-z
1/2-x,1/2-y,-z
1/2+x,y,-z
1/2-x,y,1/2+z
1/2+x,1/2-y,1/2+z
loop_
_atom_site_type_symbol
_atom_site_label
_atom_site_fract_x
_atom_site_fract_y
_atom_site_fract_z
Si Si1 0.148343 0.909242 0.390252
Si Si2 0.487273 0.552659 0.925979
Si Si3 0.250000 0.000000 0.013005
Si Si4 0.345826 0.846241 0.614417
Si Si5 0.333556 0.507250 0.260369
Si Si6 0.542697 0.131204 0.813129
O O1 0.063226 0.901753 0.400585
O O2 0.189183 0.953268 0.459461
O O3 0.176425 0.783039 0.375348
O O4 0.157945 0.986979 0.321859
O O5 0.422246 0.640739 0.924243
O O6 0.464363 0.444674 0.880026
O O7 0.500000 0.500000 0.000000
O O8 0.288288 0.089416 0.065133
O O9 0.360309 0.906191 0.688974
O O10 0.250000 0.500000 0.274738
O O11 0.375193 0.620021 0.287026
O O12 0.500000 0.250000 0.822188
O O13 0.500000 0.071793 0.750000
#
# Coordination Sequence:
#
# PCOD9508900 Si02
#       6
#    16  16   8  16  16  16
#     4  12  24  44  68  98 131 181 223 273 345 398
#     4  11  23  44  65  97 136 169 229 273 323 414
#     4  12  24  46  64 100 146 164 220 290 330 420
#     4  11  25  44  68  96 134 180 219 278 342 401
#     4  11  23  46  67 100 140 173 231 283 336 414
#     4  10  22  43  68  98 134 177 223 287 344 395
#
# _framework density 20.804974999999999
#
# number of rings (size 3 to 8) (size 9 to 14) (size 15 to 20)
#    0.000    0.909    5.455    1.636    0.000    1.455 
#    9.818    1.818    0.000    0.000    0.000    0.000 
#    0.000    0.000    0.000    0.000    0.000    0.000 
#
# Total GULP energy -245322.541506 kJ/mol
# GULP energy per Si atom -5575.512307 kJ/mol
# Density = 2.075762 g / cm^3
# Si number density = 20.804975 Si / 1000 Ang^3
#
#
#
# Elastic Constant Matrix: (Units=GPa)
#
#
# Indices 1 2 3 4 5 6 
#
# 1 123.0054 18.8306 5.6411 0.0000 0.0000 0.0000
# 2 18.8306 88.2354 18.0787 0.0000 0.0000 0.0000
# 3 5.6411 18.0787 106.3640 0.0000 0.0000 0.0000
# 4 0.0000 0.0000 0.0000 14.5471 0.0000 0.0000
# 5 0.0000 0.0000 0.0000 0.0000 30.8381 0.0000
# 6 0.0000 0.0000 0.0000 0.0000 0.0000 20.8872
#
#
#
# Elastic Compliance Matrix: (Units=1/GPa)
#
#
# Indices 1 2 3 4 5 6 
#
# 1 0.008406 -0.001764 -0.000146 0.000000 0.000000 0.000000
# 2 -0.001764 0.012112 -0.001965 0.000000 0.000000 0.000000
# 3 -0.000146 -0.001965 0.009743 0.000000 0.000000 0.000000
# 4 0.000000 0.000000 0.000000 0.068742 0.000000 0.000000
# 5 0.000000 0.000000 0.000000 0.000000 0.032427 0.000000
# 6 0.000000 0.000000 0.000000 0.000000 0.000000 0.047876
#
#
# Mechanical properties :
#
#
# Convention : Reuss Voigt Hill
#
# Bulk Modulus (GPa) = 44.42126 44.74506 44.58316
# Shear Modulus (GPa) = 25.69862 31.59143 28.64503
#
# Velocity S-wave (km/s) = 3.51838 3.90096 3.71460
# Velocity P-wave (km/s) = 6.15653 6.46866 6.31453
#
# Compressibility (1/GPa) = 0.02251174
#
# Stress axis : x y z
#
# Youngs Moduli (GPa) = 118.95577 82.55959 102.63309
#
# Poissons Ratio (x) = 0.14565 0.01498
# Poissons Ratio (y) = 0.20985 0.20169
# Poissons Ratio (z) = 0.01737 0.16225
#
# Static dielectric constant tensor:
#      x y z
#    x 1.649630 0.000000 0.000000 
#    y 0.000000 1.751140 0.000000 
#    z 0.000000 0.000000 1.727470 
# 
# From -- ./inp_files/39440.got.cif
#   From: 2010.05.17/outbox.cif.g08.bks.cpg/sg68_20_cif.got.tgz:39440.got - 2010.06.03 18:57:09.
