data_PCOD9508818
_publ_section_title
;
Structure prediction by ZEFSAII (Michael W. Deem and Ramdas Pophale) SiO2 
 PCOD9508818
Probable space group: C C C A
;
_chemical_formula_sum "Si O2"
_cell_formula_units_Z 64
_cell_length_a 9.147521
_cell_length_b 14.112018
_cell_length_c 20.918121
_cell_angle_alpha 90.000000
_cell_angle_beta 90.000000
_cell_angle_gamma 90.000000
_cell_volume 2700.319843
_symmetry_space_group_name_H-M "C C C A"
_symmetry_group_IT_number 68
_space_group.IT_coordinate_system_code '2'
_symmetry_cell_setting 'orthorhombic'
loop_
_space_group_symop_operation_xyz
x,y,z
-x,1/2-y,z
x,1/2-y,1/2-z
-x,y,1/2-z
-x,-y,-z
x,1/2+y,-z
-x,1/2+y,1/2+z
x,-y,1/2+z
1/2+x,1/2+y,z
1/2-x,-y,z
1/2+x,-y,1/2-z
1/2-x,1/2+y,1/2-z
1/2-x,1/2-y,-z
1/2+x,y,-z
1/2-x,y,1/2+z
1/2+x,1/2-y,1/2+z
loop_
_atom_site_type_symbol
_atom_site_label
_atom_site_fract_x
_atom_site_fract_y
_atom_site_fract_z
Si Si1 0.836136 0.350756 0.930614
Si Si2 0.342508 0.372242 0.451201
Si Si3 0.750000 0.000000 0.844593
Si Si4 0.000000 0.015145 0.250000
Si Si5 0.141802 0.808960 0.814133
O O1 0.851035 0.241001 0.951064
O O2 0.773377 0.333619 0.860475
O O3 0.991411 0.402709 0.936600
O O4 0.720570 0.396368 0.979414
O O5 0.238153 0.412948 0.395022
O O6 0.881773 0.030464 0.797248
O O7 0.913279 0.088013 0.205404
O O8 0.182189 0.750000 0.750000
O O9 0.000000 0.750000 0.840951
#
# Coordination Sequence:
#
# PCOD9508818 Si02
#       5
#    16  16   8   8  16
#     4  10  22  42  68  98 126 175 224 285 322 402
#     4  10  24  41  66  96 134 171 224 276 339 402
#     4  12  26  46  60 100 134 182 220 284 350 414
#     4  10  25  40  64  85 134 172 214 274 336 407
#     4   9  19  39  68  95 121 175 222 271 332 408
#
# _framework density 23.700897000000001
#
# number of rings (size 3 to 8) (size 9 to 14) (size 15 to 20)
#    0.000    2.250    0.000    3.000   14.000    1.000 
#    0.000    1.250    0.000    0.000    0.000    0.000 
#    0.000    0.000    0.000    0.000    0.000    0.000 
#
# Total GULP energy -178396.776688 kJ/mol
# GULP energy per Si atom -5574.899272 kJ/mol
# Density = 2.364695 g / cm^3
# Si number density = 23.700897 Si / 1000 Ang^3
#
#
#
# Elastic Constant Matrix: (Units=GPa)
#
#
# Indices 1 2 3 4 5 6 
#
# 1 114.1033 -1.9899 73.8192 0.0000 0.0000 0.0000
# 2 -1.9899 47.1298 -6.9167 0.0000 0.0000 0.0000
# 3 73.8192 -6.9167 81.0921 0.0000 0.0000 0.0000
# 4 0.0000 0.0000 0.0000 3.7591 0.0000 0.0000
# 5 0.0000 0.0000 0.0000 0.0000 516.3583 0.0000
# 6 0.0000 0.0000 0.0000 0.0000 0.0000 16.6493
#
#
#
# Elastic Compliance Matrix: (Units=1/GPa)
#
#
# Indices 1 2 3 4 5 6 
#
# 1 0.021502 -0.001990 -0.019744 0.000000 0.000000 0.000000
# 2 -0.001990 0.021671 0.003660 0.000000 0.000000 0.000000
# 3 -0.019744 0.003660 0.030617 0.000000 0.000000 0.000000
# 4 0.000000 0.000000 0.000000 0.266024 0.000000 0.000000
# 5 0.000000 0.000000 0.000000 0.000000 0.001937 0.000000
# 6 0.000000 0.000000 0.000000 0.000000 0.000000 0.060063
#
#
# Mechanical properties :
#
#
# Convention : Reuss Voigt Hill
#
# Bulk Modulus (GPa) = 26.56545 41.35005 33.95775
# Shear Modulus (GPa) = 11.09856 119.18084 65.13970
#
# Velocity S-wave (km/s) = 2.16632 7.09891 5.24821
# Velocity P-wave (km/s) = 4.18213 9.20202 7.14729
#
# Compressibility (1/GPa) = 0.03764287
#
# Stress axis : x y z
#
# Youngs Moduli (GPa) = 46.50626 46.14444 32.66186
#
# Poissons Ratio (x) = 0.09181 0.64487
# Poissons Ratio (y) = 0.09253 -0.11953
# Poissons Ratio (z) = 0.91821 -0.16887
#
# Static dielectric constant tensor:
#      x y z
#    x 2.000060 0.000000 0.000000 
#    y 0.000000 1.905160 0.000000 
#    z 0.000000 0.000000 2.880770 
# 
# From -- ./inp_files/35791.got.cif
#   From: 2010.05.17/outbox.cif.g08.bks.cpg/sg68_18_cif.got.tgz:35791.got - 2010.06.03 18:57:09.
