data_PCOD9508966
_publ_section_title
;
Structure prediction by ZEFSAII (Michael W. Deem and Ramdas Pophale) SiO2 
 PCOD9508966
Probable space group: C C C A
;
_chemical_formula_sum "Si O2"
_cell_formula_units_Z 64
_cell_length_a 5.909561
_cell_length_b 20.206079
_cell_length_c 25.637467
_cell_angle_alpha 90.000000
_cell_angle_beta 90.000000
_cell_angle_gamma 90.000000
_cell_volume 3061.345744
_symmetry_space_group_name_H-M "C C C A"
_symmetry_group_IT_number 68
_space_group.IT_coordinate_system_code '2'
_symmetry_cell_setting 'orthorhombic'
loop_
_space_group_symop_operation_xyz
x,y,z
-x,1/2-y,z
x,1/2-y,1/2-z
-x,y,1/2-z
-x,-y,-z
x,1/2+y,-z
-x,1/2+y,1/2+z
x,-y,1/2+z
1/2+x,1/2+y,z
1/2-x,-y,z
1/2+x,-y,1/2-z
1/2-x,1/2+y,1/2-z
1/2-x,1/2-y,-z
1/2+x,y,-z
1/2-x,y,1/2+z
1/2+x,1/2-y,1/2+z
loop_
_atom_site_type_symbol
_atom_site_label
_atom_site_fract_x
_atom_site_fract_y
_atom_site_fract_z
Si Si1 0.000000 0.250000 0.897461
Si Si2 0.750000 0.000000 0.028144
Si Si3 0.716236 0.879247 0.605725
Si Si4 0.887487 0.815160 0.826628
Si Si5 0.883813 0.064648 0.804248
O O1 0.109114 0.185286 0.923014
O O2 0.191142 0.282535 0.861346
O O3 0.740336 0.935512 0.064365
O O4 0.500000 0.000000 0.000000
O O5 0.553851 0.909978 0.650864
O O6 0.936563 0.852840 0.635889
O O7 0.776558 0.872260 0.791935
O O8 0.000000 0.750000 0.802767
O O9 0.000000 0.045583 0.750000
O O10 0.750000 0.000000 0.823499
#
# Coordination Sequence:
#
# PCOD9508966 Si02
#       5
#     8   8  16  16  16
#     4   8  18  38  71  96 126 174 220 270 357 400
#     4  12  30  46  72 106 134 182 238 288 358 420
#     4  10  22  44  69  93 136 175 218 291 338 414
#     4   9  19  40  67  93 130 177 221 276 347 407
#     4  11  25  38  63  97 134 178 230 274 343 417
#
# _framework density 20.905836999999998
#
# number of rings (size 3 to 8) (size 9 to 14) (size 15 to 20)
#    0.000    2.000    0.000    1.500   14.000    0.000 
#    0.000   30.000    0.000    0.000    0.000    0.000 
#    0.000    0.000    0.000    0.000    0.000    0.000 
#
# Total GULP energy -178404.080036 kJ/mol
# GULP energy per Si atom -5575.127501 kJ/mol
# Density = 2.085825 g / cm^3
# Si number density = 20.905837 Si / 1000 Ang^3
#
#
#
# Elastic Constant Matrix: (Units=GPa)
#
#
# Indices 1 2 3 4 5 6 
#
# 1 132.9380 69.9622 48.2191 0.0000 0.0000 0.0000
# 2 69.9622 174.5307 48.7570 0.0000 0.0000 0.0000
# 3 48.2191 48.7570 70.0440 0.0000 0.0000 0.0000
# 4 0.0000 0.0000 0.0000 -55.3116 0.0000 0.0000
# 5 0.0000 0.0000 0.0000 0.0000 -63.6232 0.0000
# 6 0.0000 0.0000 0.0000 0.0000 0.0000 59.8788
#
#
#
# Elastic Compliance Matrix: (Units=1/GPa)
#
#
# Indices 1 2 3 4 5 6 
#
# 1 0.011072 -0.002866 -0.005627 0.000000 0.000000 0.000000
# 2 -0.002866 0.007855 -0.003494 0.000000 0.000000 0.000000
# 3 -0.005627 -0.003494 0.020583 0.000000 0.000000 0.000000
# 4 0.000000 0.000000 0.000000 -0.018079 0.000000 0.000000
# 5 0.000000 0.000000 0.000000 0.000000 -0.015718 0.000000
# 6 0.000000 0.000000 0.000000 0.000000 0.000000 0.016700
#
#
# Mechanical properties :
#
#
# Convention : Reuss Voigt Hill
#
# Bulk Modulus (GPa) = 64.37372 79.04324 71.70848
# Shear Modulus (GPa) = 96.96380 2.22710 49.59545
#
# Velocity S-wave (km/s) = 6.81776 1.03325 4.87594
# Velocity P-wave (km/s) = 9.63509 6.27015 8.12864
#
# Compressibility (1/GPa) = 0.01553429
#
# Stress axis : x y z
#
# Youngs Moduli (GPa) = 90.32066 127.30970 48.58461
#
# Poissons Ratio (x) = 0.36491 0.27337
# Poissons Ratio (y) = 0.25889 0.16978
# Poissons Ratio (z) = 0.50820 0.44488
#
# Static dielectric constant tensor:
#      x y z
#    x 1.817500 0.000000 0.000000 
#    y 0.000000 1.721490 0.000000 
#    z 0.000000 0.000000 1.676740 
# 
# From -- ./inp_files/48137.got.cif
#   From: 2010.05.17/outbox.cif.g08.bks.cpg/sg68_25_cif.got.tgz:48137.got - 2010.06.03 18:57:09.
