data_PCOD9508430
_publ_section_title
;
Structure prediction by ZEFSAII (Michael W. Deem and Ramdas Pophale) SiO2 
 PCOD9508430
Probable space group: C C C A
;
_chemical_formula_sum "Si O2"
_cell_formula_units_Z 80
_cell_length_a 8.981539
_cell_length_b 27.492957
_cell_length_c 12.493124
_cell_angle_alpha 90.000000
_cell_angle_beta 90.000000
_cell_angle_gamma 90.000000
_cell_volume 3084.915435
_symmetry_space_group_name_H-M "C C C A"
_symmetry_group_IT_number 68
_space_group.IT_coordinate_system_code '2'
_symmetry_cell_setting 'orthorhombic'
loop_
_space_group_symop_operation_xyz
x,y,z
-x,1/2-y,z
x,1/2-y,1/2-z
-x,y,1/2-z
-x,-y,-z
x,1/2+y,-z
-x,1/2+y,1/2+z
x,-y,1/2+z
1/2+x,1/2+y,z
1/2-x,-y,z
1/2+x,-y,1/2-z
1/2-x,1/2+y,1/2-z
1/2-x,1/2-y,-z
1/2+x,y,-z
1/2-x,y,1/2+z
1/2+x,1/2-y,1/2+z
loop_
_atom_site_type_symbol
_atom_site_label
_atom_site_fract_x
_atom_site_fract_y
_atom_site_fract_z
Si Si1 0.959240 0.677467 0.115407
Si Si2 0.750000 0.000000 0.400942
Si Si3 0.330488 0.904173 0.865854
Si Si4 0.250174 0.250000 0.250000
Si Si5 0.085279 0.088463 0.491708
Si Si6 0.500000 0.750000 0.073740
Si Si7 0.000000 0.009229 0.750000
O O1 0.096847 0.646824 0.167021
O O2 0.861659 0.714355 0.184547
O O3 0.862609 0.632478 0.069903
O O4 0.021563 0.705590 0.010109
O O5 0.658192 0.038249 0.471098
O O6 0.612496 0.980860 0.326891
O O7 0.412210 0.911483 0.981603
O O8 0.388539 0.951397 0.805023
O O9 0.155429 0.901330 0.877569
O O10 0.136700 0.263594 0.152747
#
# Coordination Sequence:
#
# PCOD9508430 Si02
#       7
#    16   8  16   8  16   8   8
#     4  10  23  43  67 100 140 180 236 298 354 426
#     4  10  22  42  60  96 132 182 228 284 348 418
#     4   9  21  39  64  94 130 176 220 287 345 413
#     4  11  24  43  72 100 140 191 233 298 366 439
#     4   9  21  41  65  93 135 177 232 283 352 421
#     4  11  24  43  68 104 140 181 246 287 368 430
#     4  10  22  38  60  95 132 165 232 278 336 416
#
# _framework density 25.932639000000002
#
# number of rings (size 3 to 8) (size 9 to 14) (size 15 to 20)
#    1.200    1.000    0.000    1.800    0.000    9.200 
#    0.000    2.000    0.000    0.000    0.000    0.000 
#    0.000    0.000    0.000    0.000    0.000    0.000 
#
# Total GULP energy -222840.917369 kJ/mol
# GULP energy per Si atom -5571.022934 kJ/mol
# Density = 2.587362 g / cm^3
# Si number density = 25.932639 Si / 1000 Ang^3
#
#
#
# Elastic Constant Matrix: (Units=GPa)
#
#
# Indices 1 2 3 4 5 6 
#
# 1 84.0240 8.7791 19.2098 0.0000 0.0000 0.0000
# 2 8.7791 80.8211 28.7504 0.0000 0.0000 0.0000
# 3 19.2098 28.7504 71.2288 0.0000 0.0000 0.0000
# 4 0.0000 0.0000 0.0000 42.4028 0.0000 0.0000
# 5 0.0000 0.0000 0.0000 0.0000 45.1530 0.0000
# 6 0.0000 0.0000 0.0000 0.0000 0.0000 10.5053
#
#
#
# Elastic Compliance Matrix: (Units=1/GPa)
#
#
# Indices 1 2 3 4 5 6 
#
# 1 0.012686 -0.000188 -0.003345 0.000000 0.000000 0.000000
# 2 -0.000188 0.014450 -0.005782 0.000000 0.000000 0.000000
# 3 -0.003345 -0.005782 0.017275 0.000000 0.000000 0.000000
# 4 0.000000 0.000000 0.000000 0.023583 0.000000 0.000000
# 5 0.000000 0.000000 0.000000 0.000000 0.022147 0.000000
# 6 0.000000 0.000000 0.000000 0.000000 0.000000 0.095190
#
#
# Mechanical properties :
#
#
# Convention : Reuss Voigt Hill
#
# Bulk Modulus (GPa) = 38.78855 38.83918 38.81387
# Shear Modulus (GPa) = 23.52322 31.56787 27.54555
#
# Velocity S-wave (km/s) = 3.01506 3.49277 3.26267
# Velocity P-wave (km/s) = 5.20679 5.59244 5.40306
#
# Compressibility (1/GPa) = 0.02578080
#
# Stress axis : x y z
#
# Youngs Moduli (GPa) = 78.82807 69.20312 57.88615
#
# Poissons Ratio (x) = 0.01300 0.19365
# Poissons Ratio (y) = 0.01481 0.33469
# Poissons Ratio (z) = 0.26371 0.40013
#
# Static dielectric constant tensor:
#      x y z
#    x 2.018790 0.000000 0.000000 
#    y 0.000000 2.109450 0.000000 
#    z 0.000000 0.000000 2.185630 
# 
# From -- ./inp_files/12004.got.cif
#   From: 2010.05.17/outbox.cif.g08.bks.cpg/sg68_7_cif.got.tgz:12004.got - 2010.06.03 18:57:09.
