data_PCOD9508617
_publ_section_title
;
Structure prediction by ZEFSAII (Michael W. Deem and Ramdas Pophale) SiO2 
 PCOD9508617
Probable space group: C C C A
;
_chemical_formula_sum "Si O2"
_cell_formula_units_Z 104
_cell_length_a 19.675170
_cell_length_b 20.626484
_cell_length_c 13.339984
_cell_angle_alpha 90.000000
_cell_angle_beta 90.000000
_cell_angle_gamma 90.000000
_cell_volume 5413.760093
_symmetry_space_group_name_H-M "C C C A"
_symmetry_group_IT_number 68
_space_group.IT_coordinate_system_code '2'
_symmetry_cell_setting 'orthorhombic'
loop_
_space_group_symop_operation_xyz
x,y,z
-x,1/2-y,z
x,1/2-y,1/2-z
-x,y,1/2-z
-x,-y,-z
x,1/2+y,-z
-x,1/2+y,1/2+z
x,-y,1/2+z
1/2+x,1/2+y,z
1/2-x,-y,z
1/2+x,-y,1/2-z
1/2-x,1/2+y,1/2-z
1/2-x,1/2-y,-z
1/2+x,y,-z
1/2-x,y,1/2+z
1/2+x,1/2-y,1/2+z
loop_
_atom_site_type_symbol
_atom_site_label
_atom_site_fract_x
_atom_site_fract_y
_atom_site_fract_z
Si Si1 0.297201 0.058541 0.241531
Si Si2 0.334462 0.334197 0.099596
Si Si3 0.755397 0.250000 0.750000
Si Si4 0.010154 0.672168 0.044218
Si Si5 0.040579 0.087598 0.145525
Si Si6 0.947794 0.443797 0.658560
Si Si7 0.691712 0.362838 0.629591
O O1 0.306735 0.106399 0.334980
O O2 0.372299 0.046217 0.200818
O O3 0.254319 0.089640 0.150538
O O4 0.250000 0.000000 0.275956
O O5 0.303920 0.273296 0.159398
O O6 0.416150 0.336651 0.096513
O O7 0.311451 0.338694 0.984554
O O8 0.707202 0.305024 0.705865
O O9 0.000000 0.750000 0.042794
O O10 0.956912 0.624048 0.099479
O O11 0.014573 0.640748 0.933692
O O12 0.120423 0.103664 0.156394
O O13 0.000000 0.091781 0.250000
O O14 0.034603 0.013087 0.106785
O O15 0.000000 0.438780 0.750000
#
# Coordination Sequence:
#
# PCOD9508617 Si02
#       7
#    16  16   8  16  16  16  16
#     4  11  22  42  65  94 126 172 220 270 332 387
#     4  10  23  41  62  95 131 167 218 268 326 392
#     4  10  22  40  66  88 132 174 208 268 328 388
#     4  11  25  40  65 100 132 172 217 269 333 396
#     4  10  23  44  65  91 131 174 222 271 320 389
#     4  11  22  43  68  94 129 168 221 274 330 387
#     4  10  22  41  62  95 127 171 216 272 320 394
#
# _framework density 19.210308000000001
#
# number of rings (size 3 to 8) (size 9 to 14) (size 15 to 20)
#    0.000    1.538    3.077    0.923    4.308    3.692 
#    5.538    0.000    0.000    0.000    0.000    0.000 
#    0.000    0.000    0.000    0.000    0.000    0.000 
#
# Total GULP energy -289901.357336 kJ/mol
# GULP energy per Si atom -5575.026103 kJ/mol
# Density = 1.916658 g / cm^3
# Si number density = 19.210308 Si / 1000 Ang^3
#
#
#
# Elastic Constant Matrix: (Units=GPa)
#
#
# Indices 1 2 3 4 5 6 
#
# 1 105.1160 33.7636 49.0483 0.0000 0.0000 0.0000
# 2 33.7636 127.9659 33.6732 0.0000 0.0000 0.0000
# 3 49.0483 33.6732 76.8487 0.0000 0.0000 0.0000
# 4 0.0000 0.0000 0.0000 16.2338 0.0000 0.0000
# 5 0.0000 0.0000 0.0000 0.0000 24.5694 0.0000
# 6 0.0000 0.0000 0.0000 0.0000 0.0000 57.6311
#
#
#
# Elastic Compliance Matrix: (Units=1/GPa)
#
#
# Indices 1 2 3 4 5 6 
#
# 1 0.013797 -0.001496 -0.008150 0.000000 0.000000 0.000000
# 2 -0.001496 0.008995 -0.002987 0.000000 0.000000 0.000000
# 3 -0.008150 -0.002987 0.019523 0.000000 0.000000 0.000000
# 4 0.000000 0.000000 0.000000 0.061600 0.000000 0.000000
# 5 0.000000 0.000000 0.000000 0.000000 0.040701 0.000000
# 6 0.000000 0.000000 0.000000 0.000000 0.000000 0.017352
#
#
# Mechanical properties :
#
#
# Convention : Reuss Voigt Hill
#
# Bulk Modulus (GPa) = 58.65273 60.32228 59.48751
# Shear Modulus (GPa) = 25.91795 32.58324 29.25060
#
# Velocity S-wave (km/s) = 3.67709 4.12288 3.90635
# Velocity P-wave (km/s) = 6.97325 7.35754 7.16797
#
# Compressibility (1/GPa) = 0.01704951
#
# Stress axis : x y z
#
# Youngs Moduli (GPa) = 72.48095 111.17081 51.22079
#
# Poissons Ratio (x) = 0.16626 0.41747
# Poissons Ratio (y) = 0.10840 0.15299
# Poissons Ratio (z) = 0.59075 0.33206
#
# Static dielectric constant tensor:
#      x y z
#    x 1.664100 0.000000 0.000000 
#    y 0.000000 1.732470 0.000000 
#    z 0.000000 0.000000 1.641490 
# 
# From -- ./inp_files/23802.got.cif
#   From: 2010.05.17/outbox.cif.g08.bks.cpg/sg68_12_cif.got.tgz:23802.got - 2010.06.03 18:57:09.
