data_PCOD9508658
_publ_section_title
;
Structure prediction by ZEFSAII (Michael W. Deem and Ramdas Pophale) SiO2 
 PCOD9508658
Probable space group: C C C A
;
_chemical_formula_sum "Si O2"
_cell_formula_units_Z 120
_cell_length_a 11.395990
_cell_length_b 30.125030
_cell_length_c 14.264042
_cell_angle_alpha 90.000000
_cell_angle_beta 90.000000
_cell_angle_gamma 90.000000
_cell_volume 4896.910386
_symmetry_space_group_name_H-M "C C C A"
_symmetry_group_IT_number 68
_space_group.IT_coordinate_system_code '2'
_symmetry_cell_setting 'orthorhombic'
loop_
_space_group_symop_operation_xyz
x,y,z
-x,1/2-y,z
x,1/2-y,1/2-z
-x,y,1/2-z
-x,-y,-z
x,1/2+y,-z
-x,1/2+y,1/2+z
x,-y,1/2+z
1/2+x,1/2+y,z
1/2-x,-y,z
1/2+x,-y,1/2-z
1/2-x,1/2+y,1/2-z
1/2-x,1/2-y,-z
1/2+x,y,-z
1/2-x,y,1/2+z
1/2+x,1/2-y,1/2+z
loop_
_atom_site_type_symbol
_atom_site_label
_atom_site_fract_x
_atom_site_fract_y
_atom_site_fract_z
Si Si1 0.120230 0.714348 0.814484
Si Si2 0.106399 0.536389 0.039320
Si Si3 0.242377 0.381275 0.110311
Si Si4 0.006113 0.535785 0.856954
Si Si5 0.164029 0.112258 0.180951
Si Si6 0.610887 0.601400 0.568413
Si Si7 0.500000 0.250000 0.508704
Si Si8 0.534962 0.677708 0.852212
O O1 0.189379 0.750000 0.750000
O O2 0.164741 0.665198 0.834547
O O3 0.099811 0.737822 0.914605
O O4 0.000000 0.706888 0.750000
O O5 0.191924 0.574661 0.073436
O O6 0.103064 0.491640 0.099870
O O7 0.980678 0.562592 0.046622
O O8 0.107882 0.522086 0.930866
O O9 0.187047 0.393503 0.209454
O O10 0.332460 0.340516 0.129499
O O11 0.149733 0.373378 0.027135
O O12 0.045006 0.587710 0.849612
O O13 0.000000 0.520713 0.750000
O O14 0.270608 0.091055 0.123598
O O15 0.542466 0.633789 0.637687
O O16 0.504267 0.209228 0.437084
O O17 0.500000 0.696252 0.750000
#
# Coordination Sequence:
#
# PCOD9508658 Si02
#       8
#    16  16  16  16  16  16   8  16
#     4   9  22  42  66 100 138 179 233 298 345 406
#     4  10  25  46  65 100 144 177 233 288 360 416
#     4  11  24  44  71 100 140 186 237 290 356 434
#     4  11  24  44  70  98 133 182 228 293 345 422
#     4  12  23  42  70 103 134 183 240 285 354 431
#     4  11  24  42  69  96 133 185 227 290 345 430
#     4  10  22  40  70  92 138 188 228 296 352 420
#     4  11  23  44  67  99 141 187 231 289 366 431
#
# _framework density 24.505248000000002
#
# number of rings (size 3 to 8) (size 9 to 14) (size 15 to 20)
#    0.000    1.467    2.667    2.200    7.467    0.533 
#    2.400    2.667    0.000    0.000    0.000    0.000 
#    0.000    0.000    0.000    0.000    0.000    0.000 
#
# Total GULP energy -334454.137453 kJ/mol
# GULP energy per Si atom -5574.235624 kJ/mol
# Density = 2.444947 g / cm^3
# Si number density = 24.505248 Si / 1000 Ang^3
#
#
#
# Elastic Constant Matrix: (Units=GPa)
#
#
# Indices 1 2 3 4 5 6 
#
# 1 71.1077 25.0155 29.5855 0.0000 0.0000 0.0000
# 2 25.0155 112.7543 38.1839 0.0000 0.0000 0.0000
# 3 29.5855 38.1839 193.7640 0.0000 0.0000 0.0000
# 4 0.0000 0.0000 0.0000 19.1227 0.0000 0.0000
# 5 0.0000 0.0000 0.0000 0.0000 26.8189 0.0000
# 6 0.0000 0.0000 0.0000 0.0000 0.0000 14.4872
#
#
#
# Elastic Compliance Matrix: (Units=1/GPa)
#
#
# Indices 1 2 3 4 5 6 
#
# 1 0.015850 -0.002890 -0.001851 0.000000 0.000000 0.000000
# 2 -0.002890 0.010030 -0.001535 0.000000 0.000000 0.000000
# 3 -0.001851 -0.001535 0.005746 0.000000 0.000000 0.000000
# 4 0.000000 0.000000 0.000000 0.052294 0.000000 0.000000
# 5 0.000000 0.000000 0.000000 0.000000 0.037287 0.000000
# 6 0.000000 0.000000 0.000000 0.000000 0.000000 0.069027
#
#
# Mechanical properties :
#
#
# Convention : Reuss Voigt Hill
#
# Bulk Modulus (GPa) = 52.42624 62.57732 57.50178
# Shear Modulus (GPa) = 23.90712 31.07515 27.49114
#
# Velocity S-wave (km/s) = 3.12684 3.56491 3.35303
# Velocity P-wave (km/s) = 5.87167 6.52200 6.20536
#
# Compressibility (1/GPa) = 0.01907442
#
# Stress axis : x y z
#
# Youngs Moduli (GPa) = 63.09258 99.70217 174.03298
#
# Poissons Ratio (x) = 0.28811 0.32207
# Poissons Ratio (y) = 0.18232 0.26719
# Poissons Ratio (z) = 0.11676 0.15307
#
# Static dielectric constant tensor:
#      x y z
#    x 2.052010 0.000000 0.000000 
#    y 0.000000 1.997860 0.000000 
#    z 0.000000 0.000000 1.957750 
# 
# From -- ./inp_files/22842.got.cif
#   From: 2010.05.17/outbox.cif.g08.bks.cpg/sg68_12_cif.got.tgz:22842.got - 2010.06.03 18:57:09.
