data_PCOD9508883
_publ_section_title
;
Structure prediction by ZEFSAII (Michael W. Deem and Ramdas Pophale) SiO2 
 PCOD9508883
Probable space group: C C C A
;
_chemical_formula_sum "Si O2"
_cell_formula_units_Z 48
_cell_length_a 5.072105
_cell_length_b 14.447284
_cell_length_c 31.524734
_cell_angle_alpha 90.000000
_cell_angle_beta 90.000000
_cell_angle_gamma 90.000000
_cell_volume 2310.073916
_symmetry_space_group_name_H-M "C C C A"
_symmetry_group_IT_number 68
_space_group.IT_coordinate_system_code '2'
_symmetry_cell_setting 'orthorhombic'
loop_
_space_group_symop_operation_xyz
x,y,z
-x,1/2-y,z
x,1/2-y,1/2-z
-x,y,1/2-z
-x,-y,-z
x,1/2+y,-z
-x,1/2+y,1/2+z
x,-y,1/2+z
1/2+x,1/2+y,z
1/2-x,-y,z
1/2+x,-y,1/2-z
1/2-x,1/2+y,1/2-z
1/2-x,1/2-y,-z
1/2+x,y,-z
1/2-x,y,1/2+z
1/2+x,1/2-y,1/2+z
loop_
_atom_site_type_symbol
_atom_site_label
_atom_site_fract_x
_atom_site_fract_y
_atom_site_fract_z
Si Si1 0.241350 0.184981 0.913799
Si Si2 0.750000 0.500000 0.469513
Si Si3 0.243652 0.686564 0.183769
Si Si4 0.500000 0.549527 0.250000
O O1 0.500000 0.250000 0.915912
O O2 0.260086 0.092452 0.941084
O O3 0.189050 0.156800 0.864569
O O4 0.000000 0.250000 0.927827
O O5 0.500000 0.500000 0.500000
O O6 0.500000 0.750000 0.181937
O O7 0.330303 0.607133 0.215832
O O8 0.000000 0.750000 0.198454
O O9 0.250000 0.500000 0.273000
#
# Coordination Sequence:
#
# PCOD9508883 Si02
#       4
#    16   8  16   8
#     4  10  23  44  68  97 131 177 220 269 328 398
#     4  12  26  42  68 104 132 170 214 274 340 400
#     4  10  22  43  66  88 128 180 221 263 328 395
#     4  12  25  38  61 104 132 168 220 284 333 384
#
# _framework density 20.778556999999999
#
# number of rings (size 3 to 8) (size 9 to 14) (size 15 to 20)
#    0.000    1.333    0.000    4.500    2.333    5.333 
#    3.000    0.000    0.000    0.000    0.000    0.000 
#    0.000    0.000    0.000    0.000    0.000    0.000 
#
# Total GULP energy -134076.911731 kJ/mol
# GULP energy per Si atom -5586.537989 kJ/mol
# Density = 2.073126 g / cm^3
# Si number density = 20.778557 Si / 1000 Ang^3
#
#
#
# Elastic Constant Matrix: (Units=GPa)
#
#
# Indices 1 2 3 4 5 6 
#
# 1 184.8504 66.8752 50.3316 0.0000 0.0000 0.0000
# 2 66.8752 132.7551 84.3490 0.0000 0.0000 0.0000
# 3 50.3316 84.3490 108.1000 0.0000 0.0000 0.0000
# 4 0.0000 0.0000 0.0000 49.9727 0.0000 0.0000
# 5 0.0000 0.0000 0.0000 0.0000 28.3118 0.0000
# 6 0.0000 0.0000 0.0000 0.0000 0.0000 40.0071
#
#
#
# Elastic Compliance Matrix: (Units=1/GPa)
#
#
# Indices 1 2 3 4 5 6 
#
# 1 0.006665 -0.002748 -0.000959 0.000000 0.000000 0.000000
# 2 -0.002748 0.016072 -0.011261 0.000000 0.000000 0.000000
# 3 -0.000959 -0.011261 0.018484 0.000000 0.000000 0.000000
# 4 0.000000 0.000000 0.000000 0.020011 0.000000 0.000000
# 5 0.000000 0.000000 0.000000 0.000000 0.035321 0.000000
# 6 0.000000 0.000000 0.000000 0.000000 0.000000 0.024996
#
#
# Mechanical properties :
#
#
# Convention : Reuss Voigt Hill
#
# Bulk Modulus (GPa) = 88.61624 92.09080 90.35352
# Shear Modulus (GPa) = 32.20657 38.60164 35.40411
#
# Velocity S-wave (km/s) = 3.94126 4.31485 4.13228
# Velocity P-wave (km/s) = 7.96567 8.32107 8.14531
#
# Compressibility (1/GPa) = 0.01128461
#
# Stress axis : x y z
#
# Youngs Moduli (GPa) = 150.03416 62.21867 54.10014
#
# Poissons Ratio (x) = 0.17100 0.05187
# Poissons Ratio (y) = 0.41235 0.60924
# Poissons Ratio (z) = 0.14385 0.70067
#
# Static dielectric constant tensor:
#      x y z
#    x 1.746500 0.000000 0.000000 
#    y 0.000000 1.789190 0.000000 
#    z 0.000000 0.000000 1.779560 
# 
# From -- ./inp_files/47879.got.cif
#   From: 2010.05.17/outbox.cif.g08.bks.cpg/sg68_24_cif.got.tgz:47879.got - 2010.06.03 18:57:09.
