data_PCOD9508170
_publ_section_title
;
Structure prediction by ZEFSAII (Michael W. Deem and Ramdas Pophale) SiO2 
 PCOD9508170
Probable space group: C C C A
;
_chemical_formula_sum "Si O2"
_cell_formula_units_Z 88
_cell_length_a 10.741641
_cell_length_b 15.254644
_cell_length_c 22.829366
_cell_angle_alpha 90.000000
_cell_angle_beta 90.000000
_cell_angle_gamma 90.000000
_cell_volume 3740.817845
_symmetry_space_group_name_H-M "C C C A"
_symmetry_group_IT_number 68
_space_group.IT_coordinate_system_code '2'
_symmetry_cell_setting 'orthorhombic'
loop_
_space_group_symop_operation_xyz
x,y,z
-x,1/2-y,z
x,1/2-y,1/2-z
-x,y,1/2-z
-x,-y,-z
x,1/2+y,-z
-x,1/2+y,1/2+z
x,-y,1/2+z
1/2+x,1/2+y,z
1/2-x,-y,z
1/2+x,-y,1/2-z
1/2-x,1/2+y,1/2-z
1/2-x,1/2-y,-z
1/2+x,y,-z
1/2-x,y,1/2+z
1/2+x,1/2-y,1/2+z
loop_
_atom_site_type_symbol
_atom_site_label
_atom_site_fract_x
_atom_site_fract_y
_atom_site_fract_z
Si Si1 0.086707 0.095848 0.202037
Si Si2 0.258624 0.750000 0.750000
Si Si3 0.898896 0.075436 0.999442
Si Si4 0.250000 0.000000 0.894175
Si Si5 0.215789 0.192013 0.873404
Si Si6 0.250000 0.500000 0.393995
Si Si7 0.500000 0.250000 0.874107
Si Si8 0.500000 0.750000 0.960841
O O1 0.178568 0.161404 0.237259
O O2 0.004638 0.163239 0.165209
O O3 0.000000 0.048510 0.250000
O O4 0.151100 0.039414 0.151483
O O5 0.323239 0.764484 0.811864
O O6 0.815592 0.065987 0.940624
O O7 0.962494 0.168646 0.000349
O O8 0.830674 0.055119 0.059250
O O9 0.000000 0.000000 0.000000
O O10 0.297508 0.913973 0.860943
O O11 0.350697 0.236734 0.892146
O O12 0.115596 0.217536 0.922326
#
# Coordination Sequence:
#
# PCOD9508170 Si02
#       8
#    16   8  16   8  16   8   8   8
#     4  11  19  43  70 101 142 195 250 310 369 472
#     4  10  21  43  70 106 144 192 264 290 378 476
#     4  11  25  51  72 106 151 197 258 330 393 471
#     4  11  26  47  74 108 146 199 266 317 382 470
#     4  11  24  44  75 110 150 197 256 319 380 480
#     4  11  28  43  68 112 154 189 262 335 392 462
#     4  10  21  41  74  99 140 195 255 286 365 474
#     4  12  26  50  76 109 154 198 247 328 410 448
#
# _framework density 23.524267999999999
#
# number of rings (size 3 to 8) (size 9 to 14) (size 15 to 20)
#    0.000    1.091    5.455    2.182    2.545    2.545 
#    6.545    0.000    0.000    0.000    0.000    0.000 
#    0.000    0.000    0.000    0.000    0.000    0.000 
#
# Total GULP energy -245142.546901 kJ/mol
# GULP energy per Si atom -5571.421520 kJ/mol
# Density = 2.347073 g / cm^3
# Si number density = 23.524268 Si / 1000 Ang^3
#
#
#
# Elastic Constant Matrix: (Units=GPa)
#
#
# Indices 1 2 3 4 5 6 
#
# 1 72.5418 26.0549 28.3049 0.0000 0.0000 0.0000
# 2 26.0549 130.7334 19.7089 0.0000 0.0000 0.0000
# 3 28.3049 19.7089 84.0201 0.0000 0.0000 0.0000
# 4 0.0000 0.0000 0.0000 -54.7048 0.0000 0.0000
# 5 0.0000 0.0000 0.0000 0.0000 35.5566 0.0000
# 6 0.0000 0.0000 0.0000 0.0000 0.0000 -11.7497
#
#
#
# Elastic Compliance Matrix: (Units=1/GPa)
#
#
# Indices 1 2 3 4 5 6 
#
# 1 0.016662 -0.002565 -0.005011 0.000000 0.000000 0.000000
# 2 -0.002565 0.008324 -0.001089 0.000000 0.000000 0.000000
# 3 -0.005011 -0.001089 0.013845 0.000000 0.000000 0.000000
# 4 0.000000 0.000000 0.000000 -0.018280 0.000000 0.000000
# 5 0.000000 0.000000 0.000000 0.000000 0.028124 0.000000
# 6 0.000000 0.000000 0.000000 0.000000 0.000000 -0.085109
#
#
# Mechanical properties :
#
#
# Convention : Reuss Voigt Hill
#
# Bulk Modulus (GPa) = 46.50802 48.38144 47.44473
# Shear Modulus (GPa) = -418.92859 8.03552 -205.44654
#
# Velocity S-wave (km/s) = -13.35927 1.85021 -9.35540
# Velocity P-wave (km/s) = 14.76980 5.01753 9.82272
#
# Compressibility (1/GPa) = 0.02150167
#
# Stress axis : x y z
#
# Youngs Moduli (GPa) = 60.01734 120.12743 72.22569
#
# Poissons Ratio (x) = 0.30815 0.36195
# Poissons Ratio (y) = 0.15396 0.07862
# Poissons Ratio (z) = 0.30077 0.13076
#
# Static dielectric constant tensor:
#      x y z
#    x 1.776210 0.000000 0.000000 
#    y 0.000000 1.859790 0.000000 
#    z 0.000000 0.000000 1.799350 
# 
# From -- ./inp_files/44310.got.cif
#   From: 2010.05.17/outbox.cif.g08.bks.cpg/sg68_23_cif.got.tgz:44310.got - 2010.06.03 18:57:09.
