data_PCOD9508107
_publ_section_title
;
Structure prediction by ZEFSAII (Michael W. Deem and Ramdas Pophale) SiO2 
 PCOD9508107
Probable space group: C C C A
;
_chemical_formula_sum "Si O2"
_cell_formula_units_Z 60
_cell_length_a 26.616465
_cell_length_b 5.399596
_cell_length_c 19.606734
_cell_angle_alpha 90.000000
_cell_angle_beta 90.000000
_cell_angle_gamma 90.000000
_cell_volume 2817.843694
_symmetry_space_group_name_H-M "C C C A"
_symmetry_group_IT_number 68
_space_group.IT_coordinate_system_code '2'
_symmetry_cell_setting 'orthorhombic'
loop_
_space_group_symop_operation_xyz
x,y,z
-x,1/2-y,z
x,1/2-y,1/2-z
-x,y,1/2-z
-x,-y,-z
x,1/2+y,-z
-x,1/2+y,1/2+z
x,-y,1/2+z
1/2+x,1/2+y,z
1/2-x,-y,z
1/2+x,-y,1/2-z
1/2-x,1/2+y,1/2-z
1/2-x,1/2-y,-z
1/2+x,y,-z
1/2-x,y,1/2+z
1/2+x,1/2-y,1/2+z
loop_
_atom_site_type_symbol
_atom_site_label
_atom_site_fract_x
_atom_site_fract_y
_atom_site_fract_z
Si Si1 0.609730 0.754433 0.038132
Si Si2 0.500000 0.250000 0.250000
Si Si3 0.056312 0.141058 0.320581
Si Si4 0.783280 0.750071 0.597184
Si Si5 0.217136 0.250000 0.250000
O O1 0.586278 0.806014 0.111995
O O2 0.670058 0.753982 0.046473
O O3 0.594735 0.486048 0.009398
O O4 0.540795 0.364105 0.302483
O O5 0.078716 0.250000 0.250000
O O6 0.000000 0.250000 0.326462
O O7 0.750000 0.500000 0.589503
O O8 0.806335 0.748707 0.674557
O O9 0.750000 0.000000 0.590181
O O10 0.250000 0.500000 0.249726
#
# Coordination Sequence:
#
# PCOD9508107 Si02
#       5
#    16   4  16  16   8
#     4  12  28  42  63 103 137 176 224 267 337 396
#     4   8  18  44  74  98 124 176 228 262 358 388
#     4   9  22  44  72  98 130 173 222 275 335 402
#     4  10  21  41  63  88 129 174 222 272 325 387
#     4   8  16  32  57  86 109 150 215 269 314 362
#
# _framework density 21.292876
#
# number of rings (size 3 to 8) (size 9 to 14) (size 15 to 20)
#    0.000    2.400    0.000    1.600    9.333    4.267 
#    0.000    1.333    0.000    0.000    0.000    0.000 
#    0.000    0.000    0.000    0.000    0.000    0.000 
#
# Total GULP energy -167063.157210 kJ/mol
# GULP energy per Si atom -5568.771907 kJ/mol
# Density = 2.124441 g / cm^3
# Si number density = 21.292876 Si / 1000 Ang^3
#
#
#
# Elastic Constant Matrix: (Units=GPa)
#
#
# Indices 1 2 3 4 5 6 
#
# 1 51.2798 18.8316 36.3772 0.0000 0.0000 0.0000
# 2 18.8316 113.8955 38.7413 0.0000 0.0000 0.0000
# 3 36.3772 38.7413 120.1703 0.0000 0.0000 0.0000
# 4 0.0000 0.0000 0.0000 56.5603 0.0000 0.0000
# 5 0.0000 0.0000 0.0000 0.0000 40.8009 0.0000
# 6 0.0000 0.0000 0.0000 0.0000 0.0000 19.3430
#
#
#
# Elastic Compliance Matrix: (Units=1/GPa)
#
#
# Indices 1 2 3 4 5 6 
#
# 1 0.025144 -0.001761 -0.007044 0.000000 0.000000 0.000000
# 2 -0.001761 0.009985 -0.002686 0.000000 0.000000 0.000000
# 3 -0.007044 -0.002686 0.011320 0.000000 0.000000 0.000000
# 4 0.000000 0.000000 0.000000 0.017680 0.000000 0.000000
# 5 0.000000 0.000000 0.000000 0.000000 0.024509 0.000000
# 6 0.000000 0.000000 0.000000 0.000000 0.000000 0.051698
#
#
# Mechanical properties :
#
#
# Convention : Reuss Voigt Hill
#
# Bulk Modulus (GPa) = 42.61310 52.58287 47.59799
# Shear Modulus (GPa) = 29.21572 36.10054 32.65813
#
# Velocity S-wave (km/s) = 3.70819 4.12202 3.92057
# Velocity P-wave (km/s) = 6.19601 6.88502 6.54958
#
# Compressibility (1/GPa) = 0.02346696
#
# Stress axis : x y z
#
# Youngs Moduli (GPa) = 39.77024 100.15255 88.34239
#
# Poissons Ratio (x) = 0.17642 0.62226
# Poissons Ratio (y) = 0.07006 0.23726
# Poissons Ratio (z) = 0.28013 0.26898
#
# Static dielectric constant tensor:
#      x y z
#    x 1.732900 0.000000 0.000000 
#    y 0.000000 1.615740 0.000000 
#    z 0.000000 0.000000 1.861800 
# 
# From -- ./inp_files/34960.got.cif
#   From: 2010.05.17/outbox.cif.g08.bks.cpg/sg68_18_cif.got.tgz:34960.got - 2010.06.03 18:57:09.
