data_PCOD9508036
_publ_section_title
;
Structure prediction by ZEFSAII (Michael W. Deem and Ramdas Pophale) SiO2 
 PCOD9508036
Probable space group: C C C A
;
_chemical_formula_sum "Si O2"
_cell_formula_units_Z 80
_cell_length_a 17.369190
_cell_length_b 8.928742
_cell_length_c 25.737735
_cell_angle_alpha 90.000000
_cell_angle_beta 90.000000
_cell_angle_gamma 90.000000
_cell_volume 3991.537051
_symmetry_space_group_name_H-M "C C C A"
_symmetry_group_IT_number 68
_space_group.IT_coordinate_system_code '2'
_symmetry_cell_setting 'orthorhombic'
loop_
_space_group_symop_operation_xyz
x,y,z
-x,1/2-y,z
x,1/2-y,1/2-z
-x,y,1/2-z
-x,-y,-z
x,1/2+y,-z
-x,1/2+y,1/2+z
x,-y,1/2+z
1/2+x,1/2+y,z
1/2-x,-y,z
1/2+x,-y,1/2-z
1/2-x,1/2+y,1/2-z
1/2-x,1/2-y,-z
1/2+x,y,-z
1/2-x,y,1/2+z
1/2+x,1/2-y,1/2+z
loop_
_atom_site_type_symbol
_atom_site_label
_atom_site_fract_x
_atom_site_fract_y
_atom_site_fract_z
Si Si1 0.407823 0.245356 0.046383
Si Si2 0.232770 0.661082 0.850998
Si Si3 0.166564 0.921343 0.358470
Si Si4 0.822932 0.566953 0.537804
Si Si5 0.081842 0.696291 0.690293
O O1 0.500000 0.250000 0.044725
O O2 0.377756 0.357866 0.091362
O O3 0.376873 0.074601 0.053371
O O4 0.371308 0.312682 0.993844
O O5 0.250000 0.500000 0.829157
O O6 0.299836 0.771129 0.832670
O O7 0.220395 0.644577 0.913325
O O8 0.150096 0.710796 0.833807
O O9 0.250000 0.000000 0.370815
O O10 0.110396 0.027664 0.324495
O O11 0.750000 0.500000 0.505990
O O12 0.080564 0.750000 0.750000
O O13 0.000000 0.750000 0.667888
#
# Coordination Sequence:
#
# PCOD9508036 Si02
#       5
#    16  16  16  16  16
#     4  12  25  38  60  95 133 175 221 268 322 375
#     4  10  21  40  65  94 129 166 221 262 317 388
#     4  10  22  41  65  91 124 172 211 262 324 384
#     4  11  23  40  60  91 133 178 224 262 312 384
#     4  10  24  43  67  95 126 163 209 271 343 398
#
# _framework density 20.042404999999999
#
# number of rings (size 3 to 8) (size 9 to 14) (size 15 to 20)
#    0.000    1.400    4.000    1.800    8.400    3.200 
#    0.000    0.000    0.000    2.400    0.000    0.000 
#    0.000    0.000    0.000    0.000    0.000    0.000 
#
# Total GULP energy -222744.770853 kJ/mol
# GULP energy per Si atom -5568.619271 kJ/mol
# Density = 1.999679 g / cm^3
# Si number density = 20.042405 Si / 1000 Ang^3
#
#
#
# Elastic Constant Matrix: (Units=GPa)
#
#
# Indices 1 2 3 4 5 6 
#
# 1 147.6539 49.7235 16.7322 0.0000 0.0000 0.0000
# 2 49.7235 136.8227 20.2138 0.0000 0.0000 0.0000
# 3 16.7322 20.2138 34.6185 0.0000 0.0000 0.0000
# 4 0.0000 0.0000 0.0000 17.7365 0.0000 0.0000
# 5 0.0000 0.0000 0.0000 0.0000 28.5695 0.0000
# 6 0.0000 0.0000 0.0000 0.0000 0.0000 22.9536
#
#
#
# Elastic Compliance Matrix: (Units=1/GPa)
#
#
# Indices 1 2 3 4 5 6 
#
# 1 0.007887 -0.002520 -0.002340 0.000000 0.000000 0.000000
# 2 -0.002520 0.008804 -0.003923 0.000000 0.000000 0.000000
# 3 -0.002340 -0.003923 0.032308 0.000000 0.000000 0.000000
# 4 0.000000 0.000000 0.000000 0.056381 0.000000 0.000000
# 5 0.000000 0.000000 0.000000 0.000000 0.035002 0.000000
# 6 0.000000 0.000000 0.000000 0.000000 0.000000 0.043566
#
#
# Mechanical properties :
#
#
# Convention : Reuss Voigt Hill
#
# Bulk Modulus (GPa) = 31.81446 54.71489 43.26467
# Shear Modulus (GPa) = 23.58582 29.34695 26.46639
#
# Velocity S-wave (km/s) = 3.43417 3.83069 3.63784
# Velocity P-wave (km/s) = 5.62430 6.85014 6.26726
#
# Compressibility (1/GPa) = 0.03143225
#
# Stress axis : x y z
#
# Youngs Moduli (GPa) = 126.79837 113.58244 30.95227
#
# Poissons Ratio (x) = 0.28627 0.07243
# Poissons Ratio (y) = 0.31958 0.12141
# Poissons Ratio (z) = 0.29673 0.44554
#
# Static dielectric constant tensor:
#      x y z
#    x 1.682420 0.000000 0.000000 
#    y 0.000000 1.810450 0.000000 
#    z 0.000000 0.000000 1.850330 
# 
# From -- ./inp_files/49130.got.cif
#   From: 2010.05.17/outbox.cif.g08.bks.cpg/sg68_25_cif.got.tgz:49130.got - 2010.06.03 18:57:09.
