data_PCOD9508172
_publ_section_title
;
Structure prediction by ZEFSAII (Michael W. Deem and Ramdas Pophale) SiO2 
 PCOD9508172
Probable space group: C C C A
;
_chemical_formula_sum "Si O2"
_cell_formula_units_Z 68
_cell_length_a 16.234908
_cell_length_b 20.744663
_cell_length_c 8.014924
_cell_angle_alpha 90.000000
_cell_angle_beta 90.000000
_cell_angle_gamma 90.000000
_cell_volume 2699.327782
_symmetry_space_group_name_H-M "C C C A"
_symmetry_group_IT_number 68
_space_group.IT_coordinate_system_code '2'
_symmetry_cell_setting 'orthorhombic'
loop_
_space_group_symop_operation_xyz
x,y,z
-x,1/2-y,z
x,1/2-y,1/2-z
-x,y,1/2-z
-x,-y,-z
x,1/2+y,-z
-x,1/2+y,1/2+z
x,-y,1/2+z
1/2+x,1/2+y,z
1/2-x,-y,z
1/2+x,-y,1/2-z
1/2-x,1/2+y,1/2-z
1/2-x,1/2-y,-z
1/2+x,y,-z
1/2-x,y,1/2+z
1/2+x,1/2-y,1/2+z
loop_
_atom_site_type_symbol
_atom_site_label
_atom_site_fract_x
_atom_site_fract_y
_atom_site_fract_z
Si Si1 0.870856 0.325085 0.515040
Si Si2 0.000000 0.250000 0.750000
Si Si3 0.794604 0.648940 0.687866
Si Si4 0.809741 0.446946 0.917733
Si Si5 0.057804 0.455048 0.106909
O O1 0.852186 0.313883 0.318071
O O2 0.781396 0.314683 0.600607
O O3 0.899916 0.399611 0.502286
O O4 0.939184 0.288964 0.624536
O O5 0.841983 0.606675 0.548420
O O6 0.745417 0.595788 0.796265
O O7 0.750000 0.500000 0.001872
O O8 0.876289 0.492131 0.829407
O O9 0.000000 0.426085 0.250000
O O10 0.000000 0.500000 0.000000
#
# Coordination Sequence:
#
# PCOD9508172 Si02
#       5
#    16   4  16  16  16
#     4  11  26  49  75 102 145 195 254 313 365 444
#     4  12  32  56  70 104 148 198 258 330 384 436
#     4  10  21  41  77 106 140 195 249 296 366 442
#     4  11  20  36  68 110 156 185 229 293 365 460
#     4  12  25  37  67 115 158 191 226 292 389 452
#
# _framework density 25.191457
#
# number of rings (size 3 to 8) (size 9 to 14) (size 15 to 20)
#    0.000    0.941    4.706    3.529    4.941    0.941 
#    0.000    0.588    0.000    0.000    0.000    0.000 
#    0.000    0.000    0.000    0.000    0.000    0.000 
#
# Total GULP energy -189883.028065 kJ/mol
# GULP energy per Si atom -5584.794943 kJ/mol
# Density = 2.513412 g / cm^3
# Si number density = 25.191457 Si / 1000 Ang^3
#
#
#
# Elastic Constant Matrix: (Units=GPa)
#
#
# Indices 1 2 3 4 5 6 
#
# 1 95.1609 48.3044 21.0989 0.0000 0.0000 0.0000
# 2 48.3044 110.8300 50.6794 0.0000 0.0000 0.0000
# 3 21.0989 50.6794 80.6309 0.0000 0.0000 0.0000
# 4 0.0000 0.0000 0.0000 33.6987 0.0000 0.0000
# 5 0.0000 0.0000 0.0000 0.0000 45.8151 0.0000
# 6 0.0000 0.0000 0.0000 0.0000 0.0000 23.3966
#
#
#
# Elastic Compliance Matrix: (Units=1/GPa)
#
#
# Indices 1 2 3 4 5 6 
#
# 1 0.013497 -0.005989 0.000232 0.000000 0.000000 0.000000
# 2 -0.005989 0.015319 -0.008062 0.000000 0.000000 0.000000
# 3 0.000232 -0.008062 0.017408 0.000000 0.000000 0.000000
# 4 0.000000 0.000000 0.000000 0.029675 0.000000 0.000000
# 5 0.000000 0.000000 0.000000 0.000000 0.021827 0.000000
# 6 0.000000 0.000000 0.000000 0.000000 0.000000 0.042741
#
#
# Mechanical properties :
#
#
# Convention : Reuss Voigt Hill
#
# Bulk Modulus (GPa) = 53.79641 58.53192 56.16417
# Shear Modulus (GPa) = 28.68616 31.68469 30.18543
#
# Velocity S-wave (km/s) = 3.37816 3.55033 3.46532
# Velocity P-wave (km/s) = 6.05123 6.33180 6.19311
#
# Compressibility (1/GPa) = 0.01858860
#
# Stress axis : x y z
#
# Youngs Moduli (GPa) = 74.09074 65.27672 57.44337
#
# Poissons Ratio (x) = 0.39093 -0.01335
# Poissons Ratio (y) = 0.44372 0.46309
# Poissons Ratio (z) = -0.01722 0.52624
#
# Static dielectric constant tensor:
#      x y z
#    x 2.087230 0.000000 0.000000 
#    y 0.000000 1.996740 0.000000 
#    z 0.000000 0.000000 2.049170 
# 
# From -- ./inp_files/5950.got.cif
#   From: 2010.05.17/outbox.cif.g08.bks.cpg/sg68_3_cif.got.tgz:5950.got - 2010.06.03 18:57:09.
