data_PCOD9508891
_publ_section_title
;
Structure prediction by ZEFSAII (Michael W. Deem and Ramdas Pophale) SiO2 
 PCOD9508891
Probable space group: C C C A
;
_chemical_formula_sum "Si O2"
_cell_formula_units_Z 88
_cell_length_a 8.150942
_cell_length_b 28.948645
_cell_length_c 17.797003
_cell_angle_alpha 90.000000
_cell_angle_beta 90.000000
_cell_angle_gamma 90.000000
_cell_volume 4199.358161
_symmetry_space_group_name_H-M "C C C A"
_symmetry_group_IT_number 68
_space_group.IT_coordinate_system_code '2'
_symmetry_cell_setting 'orthorhombic'
loop_
_space_group_symop_operation_xyz
x,y,z
-x,1/2-y,z
x,1/2-y,1/2-z
-x,y,1/2-z
-x,-y,-z
x,1/2+y,-z
-x,1/2+y,1/2+z
x,-y,1/2+z
1/2+x,1/2+y,z
1/2-x,-y,z
1/2+x,-y,1/2-z
1/2-x,1/2+y,1/2-z
1/2-x,1/2-y,-z
1/2+x,y,-z
1/2-x,y,1/2+z
1/2+x,1/2-y,1/2+z
loop_
_atom_site_type_symbol
_atom_site_label
_atom_site_fract_x
_atom_site_fract_y
_atom_site_fract_z
Si Si1 0.000000 0.331509 0.750000
Si Si2 0.639422 0.886351 0.603307
Si Si3 0.189209 0.051129 0.779950
Si Si4 0.000000 0.879613 0.750000
Si Si5 0.884042 0.655432 0.005719
Si Si6 0.702538 0.188179 0.848591
Si Si7 0.500000 0.750000 0.438710
O O1 0.928625 0.360101 0.821957
O O2 0.845681 0.306298 0.712572
O O3 0.673895 0.937468 0.631736
O O4 0.795095 0.860959 0.568853
O O5 0.511592 0.881753 0.536122
O O6 0.337231 0.087245 0.756936
O O7 0.000000 0.055937 0.750000
O O8 0.250000 0.000000 0.762283
O O9 0.058442 0.843361 0.685877
O O10 0.767618 0.661975 0.077583
O O11 0.962088 0.705564 0.989126
O O12 0.645624 0.236701 0.882440
#
# Coordination Sequence:
#
# PCOD9508891 Si02
#       7
#     8  16  16   8  16  16   8
#     4  10  22  43  67  96 139 185 240 296 361 417
#     4  11  22  45  69 100 135 189 231 291 363 426
#     4  12  24  45  75 111 140 181 238 294 363 444
#     4  12  24  46  76 104 145 187 234 301 369 418
#     4  11  24  43  70  93 143 193 236 286 355 437
#     4  11  24  43  69 100 139 193 235 301 351 432
#     4  12  24  43  64 101 138 190 252 282 356 421
#
# _framework density 20.955583000000001
#
# number of rings (size 3 to 8) (size 9 to 14) (size 15 to 20)
#    0.000    0.727    5.455    2.727    0.000    0.364 
#    0.000    1.818    2.000    0.000    0.000    0.000 
#    0.000    0.000    0.000    0.000    0.000    0.000 
#
# Total GULP energy -245126.875143 kJ/mol
# GULP energy per Si atom -5571.065344 kJ/mol
# Density = 2.090789 g / cm^3
# Si number density = 20.955583 Si / 1000 Ang^3
#
#
#
# Elastic Constant Matrix: (Units=GPa)
#
#
# Indices 1 2 3 4 5 6 
#
# 1 113.1664 12.2175 49.2017 0.0000 0.0000 0.0000
# 2 12.2175 36.6896 21.3856 0.0000 0.0000 0.0000
# 3 49.2017 21.3856 102.8451 0.0000 0.0000 0.0000
# 4 0.0000 0.0000 0.0000 22.3215 0.0000 0.0000
# 5 0.0000 0.0000 0.0000 0.0000 42.4891 0.0000
# 6 0.0000 0.0000 0.0000 0.0000 0.0000 24.6458
#
#
#
# Elastic Compliance Matrix: (Units=1/GPa)
#
#
# Indices 1 2 3 4 5 6 
#
# 1 0.011172 -0.000688 -0.005202 0.000000 0.000000 0.000000
# 2 -0.000688 0.031057 -0.006129 0.000000 0.000000 0.000000
# 3 -0.005202 -0.006129 0.013486 0.000000 0.000000 0.000000
# 4 0.000000 0.000000 0.000000 0.044800 0.000000 0.000000
# 5 0.000000 0.000000 0.000000 0.000000 0.023535 0.000000
# 6 0.000000 0.000000 0.000000 0.000000 0.000000 0.040575
#
#
# Mechanical properties :
#
#
# Convention : Reuss Voigt Hill
#
# Bulk Modulus (GPa) = 31.56745 46.47896 39.02320
# Shear Modulus (GPa) = 25.09745 29.21770 27.15758
#
# Velocity S-wave (km/s) = 3.46446 3.73804 3.60385
# Velocity P-wave (km/s) = 5.57674 6.39207 5.99827
#
# Compressibility (1/GPa) = 0.03167820
#
# Stress axis : x y z
#
# Youngs Moduli (GPa) = 89.50563 32.19868 74.14902
#
# Poissons Ratio (x) = 0.02216 0.38571
# Poissons Ratio (y) = 0.06161 0.45444
# Poissons Ratio (z) = 0.46559 0.19734
#
# Static dielectric constant tensor:
#      x y z
#    x 1.909140 0.000000 0.000000 
#    y 0.000000 1.747040 0.000000 
#    z 0.000000 0.000000 1.737750 
# 
# From -- ./inp_files/28548.got.cif
#   From: 2010.05.17/outbox.cif.g08.bks.cpg/sg68_15_cif.got.tgz:28548.got - 2010.06.03 18:57:09.
