data_PCOD9508588
_publ_section_title
;
Structure prediction by ZEFSAII (Michael W. Deem and Ramdas Pophale) SiO2 
 PCOD9508588
Probable space group: C C C A
;
_chemical_formula_sum "Si O2"
_cell_formula_units_Z 64
_cell_length_a 4.748807
_cell_length_b 23.560303
_cell_length_c 22.296915
_cell_angle_alpha 90.000000
_cell_angle_beta 90.000000
_cell_angle_gamma 90.000000
_cell_volume 2494.653139
_symmetry_space_group_name_H-M "C C C A"
_symmetry_group_IT_number 68
_space_group.IT_coordinate_system_code '2'
_symmetry_cell_setting 'orthorhombic'
loop_
_space_group_symop_operation_xyz
x,y,z
-x,1/2-y,z
x,1/2-y,1/2-z
-x,y,1/2-z
-x,-y,-z
x,1/2+y,-z
-x,1/2+y,1/2+z
x,-y,1/2+z
1/2+x,1/2+y,z
1/2-x,-y,z
1/2+x,-y,1/2-z
1/2-x,1/2+y,1/2-z
1/2-x,1/2-y,-z
1/2+x,y,-z
1/2-x,y,1/2+z
1/2+x,1/2-y,1/2+z
loop_
_atom_site_type_symbol
_atom_site_label
_atom_site_fract_x
_atom_site_fract_y
_atom_site_fract_z
Si Si1 0.500000 0.037210 0.750000
Si Si2 0.653722 0.692798 0.152505
Si Si3 0.693976 0.567565 0.963715
Si Si4 0.362667 0.885005 0.839376
Si Si5 0.500000 0.250000 0.452296
O O1 0.309715 0.073834 0.795157
O O2 0.250000 0.000000 0.718942
O O3 0.500000 0.750000 0.178354
O O4 0.380013 0.657117 0.137678
O O5 0.848908 0.708741 0.096515
O O6 0.872935 0.650839 0.186968
O O7 0.750000 0.500000 0.965404
O O8 0.560421 0.581232 0.899680
O O9 0.497047 0.590204 0.017064
O O10 0.250000 0.250000 0.500000
#
# Coordination Sequence:
#
# PCOD9508588 Si02
#       5
#     8  16  16  16   8
#     4  12  28  52  79 116 151 194 258 334 398 466
#     4  12  24  45  67 104 151 191 253 312 369 458
#     4  10  22  40  63  99 142 186 238 299 371 454
#     4  12  25  44  77 105 148 200 256 309 391 465
#     4  12  22  40  66 101 150 203 250 310 368 434
#
# _framework density 25.654866999999999
#
# number of rings (size 3 to 8) (size 9 to 14) (size 15 to 20)
#    0.000    0.500    3.750    3.750    0.000    9.000 
#    0.000    0.625    5.500    0.000    0.000    0.000 
#    0.000    0.000    0.000    0.000    0.000    0.000 
#
# Total GULP energy -178273.612092 kJ/mol
# GULP energy per Si atom -5571.050378 kJ/mol
# Density = 2.559648 g / cm^3
# Si number density = 25.654867 Si / 1000 Ang^3
#
#
#
# Elastic Constant Matrix: (Units=GPa)
#
#
# Indices 1 2 3 4 5 6 
#
# 1 225.6064 53.1949 32.1794 0.0000 0.0000 0.0000
# 2 53.1949 75.2765 32.1694 0.0000 0.0000 0.0000
# 3 32.1794 32.1694 99.1232 0.0000 0.0000 0.0000
# 4 0.0000 0.0000 0.0000 13.1245 0.0000 0.0000
# 5 0.0000 0.0000 0.0000 0.0000 41.2637 0.0000
# 6 0.0000 0.0000 0.0000 0.0000 0.0000 68.6921
#
#
#
# Elastic Compliance Matrix: (Units=1/GPa)
#
#
# Indices 1 2 3 4 5 6 
#
# 1 0.005348 -0.003527 -0.000592 0.000000 0.000000 0.000000
# 2 -0.003527 0.017749 -0.004615 0.000000 0.000000 0.000000
# 3 -0.000592 -0.004615 0.011778 0.000000 0.000000 0.000000
# 4 0.000000 0.000000 0.000000 0.076194 0.000000 0.000000
# 5 0.000000 0.000000 0.000000 0.000000 0.024234 0.000000
# 6 0.000000 0.000000 0.000000 0.000000 0.000000 0.014558
#
#
# Mechanical properties :
#
#
# Convention : Reuss Voigt Hill
#
# Bulk Modulus (GPa) = 57.44405 70.56595 64.00500
# Shear Modulus (GPa) = 28.87976 43.44688 36.16332
#
# Velocity S-wave (km/s) = 3.35879 4.11970 3.75855
# Velocity P-wave (km/s) = 6.12223 7.08483 6.62104
#
# Compressibility (1/GPa) = 0.01740824
#
# Stress axis : x y z
#
# Youngs Moduli (GPa) = 186.97046 56.34167 84.90097
#
# Poissons Ratio (x) = 0.19870 0.05024
# Poissons Ratio (y) = 0.65938 0.39185
# Poissons Ratio (z) = 0.11065 0.26003
#
# Static dielectric constant tensor:
#      x y z
#    x 1.900770 0.000000 0.000000 
#    y 0.000000 2.197060 0.000000 
#    z 0.000000 0.000000 1.943530 
# 
# From -- ./inp_files/42173.got.cif
#   From: 2010.05.17/outbox.cif.g08.bks.cpg/sg68_22_cif.got.tgz:42173.got - 2010.06.03 18:57:09.
