data_PCOD9508017
_publ_section_title
;
Structure prediction by ZEFSAII (Michael W. Deem and Ramdas Pophale) SiO2 
 PCOD9508017
Probable space group: C C C A
;
_chemical_formula_sum "Si O2"
_cell_formula_units_Z 64
_cell_length_a 16.717167
_cell_length_b 14.733552
_cell_length_c 12.154231
_cell_angle_alpha 90.000000
_cell_angle_beta 90.000000
_cell_angle_gamma 90.000000
_cell_volume 2993.626588
_symmetry_space_group_name_H-M "C C C A"
_symmetry_group_IT_number 68
_space_group.IT_coordinate_system_code '2'
_symmetry_cell_setting 'orthorhombic'
loop_
_space_group_symop_operation_xyz
x,y,z
-x,1/2-y,z
x,1/2-y,1/2-z
-x,y,1/2-z
-x,-y,-z
x,1/2+y,-z
-x,1/2+y,1/2+z
x,-y,1/2+z
1/2+x,1/2+y,z
1/2-x,-y,z
1/2+x,-y,1/2-z
1/2-x,1/2+y,1/2-z
1/2-x,1/2-y,-z
1/2+x,y,-z
1/2-x,y,1/2+z
1/2+x,1/2-y,1/2+z
loop_
_atom_site_type_symbol
_atom_site_label
_atom_site_fract_x
_atom_site_fract_y
_atom_site_fract_z
Si Si1 0.649229 0.351631 0.990582
Si Si2 0.303222 0.315936 0.856862
Si Si3 0.589798 0.653507 0.713550
Si Si4 0.403145 0.040843 0.776022
O O1 0.650661 0.252537 0.936935
O O2 0.627396 0.421117 0.893711
O O3 0.729515 0.354082 0.068659
O O4 0.583887 0.358468 0.083739
O O5 0.286170 0.250000 0.750000
O O6 0.357647 0.397074 0.812890
O O7 0.625229 0.750000 0.750000
O O8 0.500000 0.655018 0.750000
O O9 0.626578 0.562921 0.765013
O O10 0.500000 0.045870 0.750000
#
# Coordination Sequence:
#
# PCOD9508017 Si02
#       4
#    16  16  16  16
#     4  10  21  40  64  89 126 166 199 259 320 365
#     4   9  20  40  64  93 126 163 211 255 310 382
#     4  10  23  40  60  90 126 165 212 258 313 380
#     4  10  23  41  64  95 125 162 216 261 307 376
#
# _framework density 21.378753
#
# number of rings (size 3 to 8) (size 9 to 14) (size 15 to 20)
#    0.000    2.250    0.000    0.750    0.000   15.500 
#    0.000    7.500    0.000    0.000    0.000    0.000 
#    0.000    0.000    0.000    0.000    0.000    0.000 
#
# Total GULP energy -178189.274009 kJ/mol
# GULP energy per Si atom -5568.414813 kJ/mol
# Density = 2.133009 g / cm^3
# Si number density = 21.378753 Si / 1000 Ang^3
#
#
#
# Elastic Constant Matrix: (Units=GPa)
#
#
# Indices 1 2 3 4 5 6 
#
# 1 66.7639 59.5931 41.2428 0.0000 0.0000 0.0000
# 2 59.5931 195.6310 84.6890 0.0000 0.0000 0.0000
# 3 41.2428 84.6890 167.5571 0.0000 0.0000 0.0000
# 4 0.0000 0.0000 0.0000 17.3638 0.0000 0.0000
# 5 0.0000 0.0000 0.0000 0.0000 10.3207 0.0000
# 6 0.0000 0.0000 0.0000 0.0000 0.0000 31.6812
#
#
#
# Elastic Compliance Matrix: (Units=1/GPa)
#
#
# Indices 1 2 3 4 5 6 
#
# 1 0.021373 -0.005419 -0.002522 0.000000 0.000000 0.000000
# 2 -0.005419 0.007917 -0.002668 0.000000 0.000000 0.000000
# 3 -0.002522 -0.002668 0.007937 0.000000 0.000000 0.000000
# 4 0.000000 0.000000 0.000000 0.057591 0.000000 0.000000
# 5 0.000000 0.000000 0.000000 0.000000 0.096893 0.000000
# 6 0.000000 0.000000 0.000000 0.000000 0.000000 0.031564
#
#
# Mechanical properties :
#
#
# Convention : Reuss Voigt Hill
#
# Bulk Modulus (GPa) = 62.46005 89.00021 75.73013
# Shear Modulus (GPa) = 20.01363 28.16827 24.09095
#
# Velocity S-wave (km/s) = 3.06297 3.63379 3.36052
# Velocity P-wave (km/s) = 6.46440 7.70237 7.11038
#
# Compressibility (1/GPa) = 0.01601023
#
# Stress axis : x y z
#
# Youngs Moduli (GPa) = 46.78823 126.30591 125.98790
#
# Poissons Ratio (x) = 0.68444 0.31772
# Poissons Ratio (y) = 0.25354 0.33612
# Poissons Ratio (z) = 0.11799 0.33696
#
# Static dielectric constant tensor:
#      x y z
#    x 1.820420 0.000000 0.000000 
#    y 0.000000 1.788790 0.000000 
#    z 0.000000 0.000000 1.754380 
# 
# From -- ./inp_files/12776.got.cif
#   From: 2010.05.17/outbox.cif.g08.bks.cpg/sg68_7_cif.got.tgz:12776.got - 2010.06.03 18:57:09.
