data_PCOD9508898
_publ_section_title
;
Structure prediction by ZEFSAII (Michael W. Deem and Ramdas Pophale) SiO2 
 PCOD9508898
Probable space group: C C C A
;
_chemical_formula_sum "Si O2"
_cell_formula_units_Z 80
_cell_length_a 26.653792
_cell_length_b 8.676602
_cell_length_c 15.899963
_cell_angle_alpha 90.000000
_cell_angle_beta 90.000000
_cell_angle_gamma 90.000000
_cell_volume 3677.094528
_symmetry_space_group_name_H-M "C C C A"
_symmetry_group_IT_number 68
_space_group.IT_coordinate_system_code '2'
_symmetry_cell_setting 'orthorhombic'
loop_
_space_group_symop_operation_xyz
x,y,z
-x,1/2-y,z
x,1/2-y,1/2-z
-x,y,1/2-z
-x,-y,-z
x,1/2+y,-z
-x,1/2+y,1/2+z
x,-y,1/2+z
1/2+x,1/2+y,z
1/2-x,-y,z
1/2+x,-y,1/2-z
1/2-x,1/2+y,1/2-z
1/2-x,1/2-y,-z
1/2+x,y,-z
1/2-x,y,1/2+z
1/2+x,1/2-y,1/2+z
loop_
_atom_site_type_symbol
_atom_site_label
_atom_site_fract_x
_atom_site_fract_y
_atom_site_fract_z
Si Si1 0.412052 0.963890 0.120217
Si Si2 0.693586 0.554826 0.900100
Si Si3 0.106302 0.912216 0.288203
Si Si4 0.986655 0.430482 0.908038
Si Si5 0.136540 0.210042 0.493098
O O1 0.400423 0.820617 0.059536
O O2 0.388084 0.966845 0.212256
O O3 0.470145 0.984332 0.143686
O O4 0.391723 0.111737 0.065812
O O5 0.750000 0.500000 0.888574
O O6 0.662354 0.613965 0.821089
O O7 0.662472 0.407849 0.931102
O O8 0.681258 0.685741 0.968823
O O9 0.086981 0.750000 0.250000
O O10 0.067433 0.952453 0.364157
O O11 0.000000 0.250000 0.910042
O O12 0.000000 0.500000 0.000000
#
# Coordination Sequence:
#
# PCOD9508898 Si02
#       5
#    16  16  16  16  16
#     4  11  22  41  66  97 133 178 217 278 346 410
#     4  11  23  44  68  96 130 178 230 283 349 408
#     4  12  24  42  64  97 137 173 230 281 344 410
#     4  12  23  39  68  97 131 179 224 270 340 423
#     4  10  22  43  68  97 135 171 230 286 336 420
#
# _framework density 21.756305999999999
#
# number of rings (size 3 to 8) (size 9 to 14) (size 15 to 20)
#    0.000    0.800    4.000    4.800    0.000    0.800 
#    3.600    1.000    0.000    3.600    0.000    0.000 
#    0.000    0.000    0.000    0.000    0.000    0.000 
#
# Total GULP energy -223285.357654 kJ/mol
# GULP energy per Si atom -5582.133941 kJ/mol
# Density = 2.170679 g / cm^3
# Si number density = 21.756306 Si / 1000 Ang^3
#
#
#
# Elastic Constant Matrix: (Units=GPa)
#
#
# Indices 1 2 3 4 5 6 
#
# 1 151.8387 32.5413 33.4032 0.0000 0.0000 0.0000
# 2 32.5413 84.1727 34.2128 0.0000 0.0000 0.0000
# 3 33.4032 34.2128 98.1942 0.0000 0.0000 0.0000
# 4 0.0000 0.0000 0.0000 12.1583 0.0000 0.0000
# 5 0.0000 0.0000 0.0000 0.0000 26.1862 0.0000
# 6 0.0000 0.0000 0.0000 0.0000 0.0000 17.8868
#
#
#
# Elastic Compliance Matrix: (Units=1/GPa)
#
#
# Indices 1 2 3 4 5 6 
#
# 1 0.007439 -0.002152 -0.001781 0.000000 0.000000 0.000000
# 2 -0.002152 0.014463 -0.004307 0.000000 0.000000 0.000000
# 3 -0.001781 -0.004307 0.012290 0.000000 0.000000 0.000000
# 4 0.000000 0.000000 0.000000 0.082248 0.000000 0.000000
# 5 0.000000 0.000000 0.000000 0.000000 0.038188 0.000000
# 6 0.000000 0.000000 0.000000 0.000000 0.000000 0.055907
#
#
# Mechanical properties :
#
#
# Convention : Reuss Voigt Hill
#
# Bulk Modulus (GPa) = 56.45755 59.39115 57.92435
# Shear Modulus (GPa) = 21.46665 26.84949 24.15807
#
# Velocity S-wave (km/s) = 3.14456 3.51679 3.33587
# Velocity P-wave (km/s) = 6.26025 6.62178 6.44355
#
# Compressibility (1/GPa) = 0.01771242
#
# Stress axis : x y z
#
# Youngs Moduli (GPa) = 134.42846 69.14189 81.36478
#
# Poissons Ratio (x) = 0.14880 0.14489
# Poissons Ratio (y) = 0.28931 0.35045
# Poissons Ratio (z) = 0.23937 0.29780
#
# Static dielectric constant tensor:
#      x y z
#    x 1.818390 0.000000 0.000000 
#    y 0.000000 1.859510 0.000000 
#    z 0.000000 0.000000 1.910800 
# 
# From -- ./inp_files/33971.got.cif
#   From: 2010.05.17/outbox.cif.g08.bks.cpg/sg68_17_cif.got.tgz:33971.got - 2010.06.03 18:57:09.
