data_PCOD9508903
_publ_section_title
;
Structure prediction by ZEFSAII (Michael W. Deem and Ramdas Pophale) SiO2 
 PCOD9508903
Probable space group: C C C A
;
_chemical_formula_sum "Si O2"
_cell_formula_units_Z 72
_cell_length_a 10.452715
_cell_length_b 21.370284
_cell_length_c 14.996687
_cell_angle_alpha 90.000000
_cell_angle_beta 90.000000
_cell_angle_gamma 90.000000
_cell_volume 3349.922272
_symmetry_space_group_name_H-M "C C C A"
_symmetry_group_IT_number 68
_space_group.IT_coordinate_system_code '2'
_symmetry_cell_setting 'orthorhombic'
loop_
_space_group_symop_operation_xyz
x,y,z
-x,1/2-y,z
x,1/2-y,1/2-z
-x,y,1/2-z
-x,-y,-z
x,1/2+y,-z
-x,1/2+y,1/2+z
x,-y,1/2+z
1/2+x,1/2+y,z
1/2-x,-y,z
1/2+x,-y,1/2-z
1/2-x,1/2+y,1/2-z
1/2-x,1/2-y,-z
1/2+x,y,-z
1/2-x,y,1/2+z
1/2+x,1/2-y,1/2+z
loop_
_atom_site_type_symbol
_atom_site_label
_atom_site_fract_x
_atom_site_fract_y
_atom_site_fract_z
Si Si1 0.605067 0.481531 0.427293
Si Si2 0.210244 0.250000 0.750000
Si Si3 0.673868 0.156438 0.110068
Si Si4 0.952367 0.104134 0.154560
Si Si5 0.119083 0.201913 0.081761
O O1 0.500000 0.500000 0.500000
O O2 0.750000 0.500000 0.457242
O O3 0.600916 0.409313 0.399922
O O4 0.573508 0.530548 0.348855
O O5 0.134403 0.197307 0.804719
O O6 0.293356 0.280723 0.832177
O O7 0.820700 0.136866 0.127600
O O8 0.670688 0.196802 0.019295
O O9 0.000000 0.124777 0.250000
O O10 0.063526 0.131556 0.093178
O O11 0.000000 0.250000 0.083729
#
# Coordination Sequence:
#
# PCOD9508903 Si02
#       5
#    16   8  16  16  16
#     4  10  22  43  69 103 137 184 246 299 362 443
#     4  12  23  40  65 108 142 188 241 302 369 452
#     4  11  24  41  69 104 141 184 245 298 367 441
#     4  11  21  42  70  99 136 186 243 297 366 440
#     4  12  22  40  70  98 139 189 240 296 371 441
#
# _framework density 21.493034999999999
#
# number of rings (size 3 to 8) (size 9 to 14) (size 15 to 20)
#    0.000    0.889    6.667    1.000    0.000    0.000 
#    0.000   10.556    0.000    0.000    0.000    0.000 
#    0.000    0.000    0.000    0.000    0.000    0.000 
#
# Total GULP energy -200758.207697 kJ/mol
# GULP energy per Si atom -5576.616880 kJ/mol
# Density = 2.144412 g / cm^3
# Si number density = 21.493035 Si / 1000 Ang^3
#
#
#
# Elastic Constant Matrix: (Units=GPa)
#
#
# Indices 1 2 3 4 5 6 
#
# 1 60.0853 31.5059 48.6060 0.0000 0.0000 0.0000
# 2 31.5059 164.0691 56.0555 0.0000 0.0000 0.0000
# 3 48.6060 56.0555 159.5511 0.0000 0.0000 0.0000
# 4 0.0000 0.0000 0.0000 35.1255 0.0000 0.0000
# 5 0.0000 0.0000 0.0000 0.0000 41.1453 0.0000
# 6 0.0000 0.0000 0.0000 0.0000 0.0000 20.7105
#
#
#
# Elastic Compliance Matrix: (Units=1/GPa)
#
#
# Indices 1 2 3 4 5 6 
#
# 1 0.022812 -0.002280 -0.006149 0.000000 0.000000 0.000000
# 2 -0.002280 0.007154 -0.001819 0.000000 0.000000 0.000000
# 3 -0.006149 -0.001819 0.008780 0.000000 0.000000 0.000000
# 4 0.000000 0.000000 0.000000 0.028469 0.000000 0.000000
# 5 0.000000 0.000000 0.000000 0.000000 0.024304 0.000000
# 6 0.000000 0.000000 0.000000 0.000000 0.000000 0.048285
#
#
# Mechanical properties :
#
#
# Convention : Reuss Voigt Hill
#
# Bulk Modulus (GPa) = 54.79013 72.89336 63.84174
# Shear Modulus (GPa) = 30.05110 35.89882 32.97496
#
# Velocity S-wave (km/s) = 3.74328 4.09131 3.92116
# Velocity P-wave (km/s) = 6.65058 7.50379 7.09003
#
# Compressibility (1/GPa) = 0.01825146
#
# Stress axis : x y z
#
# Youngs Moduli (GPa) = 43.83583 139.77674 113.89816
#
# Poissons Ratio (x) = 0.31868 0.70032
# Poissons Ratio (y) = 0.09994 0.20718
# Poissons Ratio (z) = 0.26953 0.25425
#
# Static dielectric constant tensor:
#      x y z
#    x 1.809460 0.000000 0.000000 
#    y 0.000000 1.887610 0.000000 
#    z 0.000000 0.000000 1.806980 
# 
# From -- ./inp_files/20788.got.cif
#   From: 2010.05.17/outbox.cif.g08.bks.cpg/sg68_11_cif.got.tgz:20788.got - 2010.06.03 18:57:09.
