data_PCOD9508367
_publ_section_title
;
Structure prediction by ZEFSAII (Michael W. Deem and Ramdas Pophale) SiO2 
 PCOD9508367
Probable space group: C C C A
;
_chemical_formula_sum "Si O2"
_cell_formula_units_Z 68
_cell_length_a 8.008338
_cell_length_b 13.292067
_cell_length_c 26.919718
_cell_angle_alpha 90.000000
_cell_angle_beta 90.000000
_cell_angle_gamma 90.000000
_cell_volume 2865.533054
_symmetry_space_group_name_H-M "C C C A"
_symmetry_group_IT_number 68
_space_group.IT_coordinate_system_code '2'
_symmetry_cell_setting 'orthorhombic'
loop_
_space_group_symop_operation_xyz
x,y,z
-x,1/2-y,z
x,1/2-y,1/2-z
-x,y,1/2-z
-x,-y,-z
x,1/2+y,-z
-x,1/2+y,1/2+z
x,-y,1/2+z
1/2+x,1/2+y,z
1/2-x,-y,z
1/2+x,-y,1/2-z
1/2-x,1/2+y,1/2-z
1/2-x,1/2-y,-z
1/2+x,y,-z
1/2-x,y,1/2+z
1/2+x,1/2-y,1/2+z
loop_
_atom_site_type_symbol
_atom_site_label
_atom_site_fract_x
_atom_site_fract_y
_atom_site_fract_z
Si Si1 0.894608 0.918465 0.181364
Si Si2 0.500000 0.750000 0.750000
Si Si3 0.750000 0.500000 0.004654
Si Si4 0.750000 0.500000 0.173735
Si Si5 0.250195 0.837933 0.918718
Si Si6 0.371837 0.626982 0.412776
O O1 0.874018 0.879386 0.123865
O O2 0.886103 0.819721 0.215130
O O3 0.071980 0.969596 0.195720
O O4 0.750000 0.000000 0.189143
O O5 0.746560 0.594373 0.967645
O O6 0.616031 0.538383 0.045913
O O7 0.713297 0.592161 0.137214
O O8 0.243763 0.719279 0.931675
O O9 0.061608 0.850169 0.898707
#
# Coordination Sequence:
#
# PCOD9508367 Si02
#       6
#    16   4   8   8  16  16
#     4  12  26  52  80 111 151 190 252 314 395 464
#     4  12  32  52  82 122 140 194 252 324 406 478
#     4  11  20  36  61 108 156 202 253 302 358 437
#     4  11  22  46  75 108 144 198 239 300 374 453
#     4  11  21  42  65 100 149 203 245 312 371 440
#     4  10  22  36  66 105 149 201 256 295 360 441
#
# _framework density 23.730315000000001
#
# number of rings (size 3 to 8) (size 9 to 14) (size 15 to 20)
#    0.000    0.941    3.529    2.824    1.647    1.882 
#    0.000    3.529    0.000    0.000    0.000    0.000 
#    0.000    0.000    0.000    0.000    0.000    0.000 
#
# Total GULP energy -189594.904946 kJ/mol
# GULP energy per Si atom -5576.320734 kJ/mol
# Density = 2.367630 g / cm^3
# Si number density = 23.730315 Si / 1000 Ang^3
#
#
#
# Elastic Constant Matrix: (Units=GPa)
#
#
# Indices 1 2 3 4 5 6 
#
# 1 100.6524 13.9810 43.0585 0.0000 0.0000 0.0000
# 2 13.9810 107.1359 49.3158 0.0000 0.0000 0.0000
# 3 43.0585 49.3158 97.2595 0.0000 0.0000 0.0000
# 4 0.0000 0.0000 0.0000 57.5192 0.0000 0.0000
# 5 0.0000 0.0000 0.0000 0.0000 2.0653 0.0000
# 6 0.0000 0.0000 0.0000 0.0000 0.0000 27.0376
#
#
#
# Elastic Compliance Matrix: (Units=1/GPa)
#
#
# Indices 1 2 3 4 5 6 
#
# 1 0.012370 0.001183 -0.006076 0.000000 0.000000 0.000000
# 2 0.001183 0.012289 -0.006755 0.000000 0.000000 0.000000
# 3 -0.006076 -0.006755 0.016397 0.000000 0.000000 0.000000
# 4 0.000000 0.000000 0.000000 0.017386 0.000000 0.000000
# 5 0.000000 0.000000 0.000000 0.000000 0.484180 0.000000
# 6 0.000000 0.000000 0.000000 0.000000 0.000000 0.036986
#
#
# Mechanical properties :
#
#
# Convention : Reuss Voigt Hill
#
# Bulk Modulus (GPa) = 56.30808 57.52872 56.91840
# Shear Modulus (GPa) = 8.21256 30.57059 19.39158
#
# Velocity S-wave (km/s) = 1.86234 3.59311 2.86171
# Velocity P-wave (km/s) = 5.32956 6.44277 5.91243
#
# Compressibility (1/GPa) = 0.01775944
#
# Stress axis : x y z
#
# Youngs Moduli (GPa) = 80.83900 81.37453 60.98749
#
# Poissons Ratio (x) = -0.09624 0.37057
# Poissons Ratio (y) = -0.09560 0.41195
# Poissons Ratio (z) = 0.49119 0.54966
#
# Static dielectric constant tensor:
#      x y z
#    x 1.973760 0.000000 0.000000 
#    y 0.000000 2.031200 0.000000 
#    z 0.000000 0.000000 1.878730 
# 
# From -- ./inp_files/48878.got.cif
#   From: 2010.05.17/outbox.cif.g08.bks.cpg/sg68_25_cif.got.tgz:48878.got - 2010.06.03 18:57:09.
