data_PCOD9508611
_publ_section_title
;
Structure prediction by ZEFSAII (Michael W. Deem and Ramdas Pophale) SiO2 
 PCOD9508611
Probable space group: C C C A
;
_chemical_formula_sum "Si O2"
_cell_formula_units_Z 64
_cell_length_a 13.167050
_cell_length_b 13.017226
_cell_length_c 15.602143
_cell_angle_alpha 90.000000
_cell_angle_beta 90.000000
_cell_angle_gamma 90.000000
_cell_volume 2674.183370
_symmetry_space_group_name_H-M "C C C A"
_symmetry_group_IT_number 68
_space_group.IT_coordinate_system_code '2'
_symmetry_cell_setting 'orthorhombic'
loop_
_space_group_symop_operation_xyz
x,y,z
-x,1/2-y,z
x,1/2-y,1/2-z
-x,y,1/2-z
-x,-y,-z
x,1/2+y,-z
-x,1/2+y,1/2+z
x,-y,1/2+z
1/2+x,1/2+y,z
1/2-x,-y,z
1/2+x,-y,1/2-z
1/2-x,1/2+y,1/2-z
1/2-x,1/2-y,-z
1/2+x,y,-z
1/2-x,y,1/2+z
1/2+x,1/2-y,1/2+z
loop_
_atom_site_type_symbol
_atom_site_label
_atom_site_fract_x
_atom_site_fract_y
_atom_site_fract_z
Si Si1 0.103486 0.704094 0.843779
Si Si2 0.824090 0.765610 0.353283
Si Si3 0.080754 0.487903 0.885002
Si Si4 0.140031 0.546481 0.078875
O O1 0.103742 0.750000 0.750000
O O2 0.208234 0.735269 0.887650
O O3 0.118006 0.582439 0.829009
O O4 0.000000 0.750000 0.885739
O O5 0.825623 0.750000 0.250000
O O6 0.878440 0.874318 0.368839
O O7 0.869721 0.666848 0.399883
O O8 0.959434 0.498199 0.875651
O O9 0.118264 0.520821 0.979716
O O10 0.250000 0.500000 0.103145
#
# Coordination Sequence:
#
# PCOD9508611 Si02
#       4
#    16  16  16  16
#     4  10  22  40  65  97 134 173 219 271 329 394
#     4  11  25  44  68  98 133 175 221 272 333 396
#     4  11  25  44  67  97 133 172 220 276 331 397
#     4  11  25  44  68  95 130 174 221 272 333 398
#
# _framework density 23.932539999999999
#
# number of rings (size 3 to 8) (size 9 to 14) (size 15 to 20)
#    0.000    1.250    0.000    4.500    0.000   18.000 
#    0.000    0.000    0.000    0.000    0.000    0.000 
#    0.000    0.000    0.000    0.000    0.000    0.000 
#
# Total GULP energy -178771.794180 kJ/mol
# GULP energy per Si atom -5586.618568 kJ/mol
# Density = 2.387807 g / cm^3
# Si number density = 23.932540 Si / 1000 Ang^3
#
#
#
# Elastic Constant Matrix: (Units=GPa)
#
#
# Indices 1 2 3 4 5 6 
#
# 1 105.3491 -5.3601 -1.0187 0.0000 0.0000 0.0000
# 2 -5.3601 154.9441 35.6708 0.0000 0.0000 0.0000
# 3 -1.0187 35.6708 46.1011 0.0000 0.0000 0.0000
# 4 0.0000 0.0000 0.0000 43.3208 0.0000 0.0000
# 5 0.0000 0.0000 0.0000 0.0000 19.2766 0.0000
# 6 0.0000 0.0000 0.0000 0.0000 0.0000 41.9838
#
#
#
# Elastic Compliance Matrix: (Units=1/GPa)
#
#
# Indices 1 2 3 4 5 6 
#
# 1 0.009509 0.000341 -0.000054 0.000000 0.000000 0.000000
# 2 0.000341 0.007865 -0.006078 0.000000 0.000000 0.000000
# 3 -0.000054 -0.006078 0.026393 0.000000 0.000000 0.000000
# 4 0.000000 0.000000 0.000000 0.023084 0.000000 0.000000
# 5 0.000000 0.000000 0.000000 0.000000 0.051876 0.000000
# 6 0.000000 0.000000 0.000000 0.000000 0.000000 0.023819
#
#
# Mechanical properties :
#
#
# Convention : Reuss Voigt Hill
#
# Bulk Modulus (GPa) = 31.06946 40.55315 35.81131
# Shear Modulus (GPa) = 30.32952 39.38972 34.85962
#
# Velocity S-wave (km/s) = 3.56377 4.06133 3.82066
# Velocity P-wave (km/s) = 5.47213 6.24292 5.87019
#
# Compressibility (1/GPa) = 0.03218594
#
# Stress axis : x y z
#
# Youngs Moduli (GPa) = 105.16243 127.14529 37.88858
#
# Poissons Ratio (x) = -0.04341 0.00205
# Poissons Ratio (y) = -0.03590 0.23029
# Poissons Ratio (z) = 0.00568 0.77279
#
# Static dielectric constant tensor:
#      x y z
#    x 2.001760 0.000000 0.000000 
#    y 0.000000 1.876420 0.000000 
#    z 0.000000 0.000000 1.901440 
# 
# From -- ./inp_files/30585.got.cif
#   From: 2010.05.17/outbox.cif.g08.bks.cpg/sg68_16_cif.got.tgz:30585.got - 2010.06.03 18:57:09.
