data_PCOD9508061
_publ_section_title
;
Structure prediction by ZEFSAII (Michael W. Deem and Ramdas Pophale) SiO2 
 PCOD9508061
Probable space group: C C C A
;
_chemical_formula_sum "Si O2"
_cell_formula_units_Z 104
_cell_length_a 19.154946
_cell_length_b 29.552218
_cell_length_c 8.512443
_cell_angle_alpha 90.000000
_cell_angle_beta 90.000000
_cell_angle_gamma 90.000000
_cell_volume 4818.648313
_symmetry_space_group_name_H-M "C C C A"
_symmetry_group_IT_number 68
_space_group.IT_coordinate_system_code '2'
_symmetry_cell_setting 'orthorhombic'
loop_
_space_group_symop_operation_xyz
x,y,z
-x,1/2-y,z
x,1/2-y,1/2-z
-x,y,1/2-z
-x,-y,-z
x,1/2+y,-z
-x,1/2+y,1/2+z
x,-y,1/2+z
1/2+x,1/2+y,z
1/2-x,-y,z
1/2+x,-y,1/2-z
1/2-x,1/2+y,1/2-z
1/2-x,1/2-y,-z
1/2+x,y,-z
1/2-x,y,1/2+z
1/2+x,1/2-y,1/2+z
loop_
_atom_site_type_symbol
_atom_site_label
_atom_site_fract_x
_atom_site_fract_y
_atom_site_fract_z
Si Si1 0.919623 0.868614 0.277106
Si Si2 0.500000 0.972937 0.250000
Si Si3 0.317932 0.428534 0.444963
Si Si4 0.100024 0.079729 0.049082
Si Si5 0.701664 0.852929 0.377328
Si Si6 0.307490 0.300665 0.187718
Si Si7 0.650794 0.991444 0.655459
O O1 0.890880 0.901218 0.414688
O O2 0.871886 0.824326 0.277137
O O3 0.000000 0.857872 0.250000
O O4 0.902945 0.895537 0.117141
O O5 0.470974 0.941012 0.112412
O O6 0.431619 0.001077 0.300766
O O7 0.257529 0.390589 0.440183
O O8 0.320157 0.460107 0.598912
O O9 0.314298 0.462125 0.293075
O O10 0.134340 0.116886 0.161248
O O11 0.149551 0.037605 0.006032
O O12 0.684357 0.814061 0.505414
O O13 0.738143 0.827750 0.235821
O O14 0.302102 0.250000 0.250000
#
# Coordination Sequence:
#
# PCOD9508061 Si02
#       7
#    16   8  16  16  16  16  16
#     4   9  19  37  59  85 121 150 192 241 296 345
#     4  12  22  34  54  80 115 158 213 234 282 322
#     4  10  22  37  57  80 119 162 202 240 285 333
#     4  10  22  36  54  82 118 158 199 247 277 344
#     4  10  23  42  58  88 119 150 194 244 303 352
#     4  10  21  40  67  90 114 146 188 242 304 373
#     4  11  22  37  53  80 114 162 202 243 273 331
#
# _framework density 21.582816000000001
#
# number of rings (size 3 to 8) (size 9 to 14) (size 15 to 20)
#    0.000    1.846    1.538    2.769    6.462    0.923 
#    2.769    0.000    0.000    0.000    0.000    0.000 
#    0.000    0.000    0.000    0.000    0.000    0.000 
#
# Total GULP energy -290205.311930 kJ/mol
# GULP energy per Si atom -5580.871383 kJ/mol
# Density = 2.153369 g / cm^3
# Si number density = 21.582816 Si / 1000 Ang^3
#
#
#
# Elastic Constant Matrix: (Units=GPa)
#
#
# Indices 1 2 3 4 5 6 
#
# 1 74.9891 22.2774 8.3807 0.0000 0.0000 0.0000
# 2 22.2774 102.6738 37.2543 0.0000 0.0000 0.0000
# 3 8.3807 37.2543 47.2651 0.0000 0.0000 0.0000
# 4 0.0000 0.0000 0.0000 26.2476 0.0000 0.0000
# 5 0.0000 0.0000 0.0000 0.0000 27.6315 0.0000
# 6 0.0000 0.0000 0.0000 0.0000 0.0000 18.3516
#
#
#
# Elastic Compliance Matrix: (Units=1/GPa)
#
#
# Indices 1 2 3 4 5 6 
#
# 1 0.014255 -0.003047 -0.000126 0.000000 0.000000 0.000000
# 2 -0.003047 0.014292 -0.010725 0.000000 0.000000 0.000000
# 3 -0.000126 -0.010725 0.029633 0.000000 0.000000 0.000000
# 4 0.000000 0.000000 0.000000 0.038099 0.000000 0.000000
# 5 0.000000 0.000000 0.000000 0.000000 0.036191 0.000000
# 6 0.000000 0.000000 0.000000 0.000000 0.000000 0.054491
#
#
# Mechanical properties :
#
#
# Convention : Reuss Voigt Hill
#
# Bulk Modulus (GPa) = 32.91189 40.08365 36.49777
# Shear Modulus (GPa) = 22.23374 24.91383 23.57379
#
# Velocity S-wave (km/s) = 3.21309 3.40124 3.30850
# Velocity P-wave (km/s) = 5.38957 5.83412 5.61624
#
# Compressibility (1/GPa) = 0.03038416
#
# Stress axis : x y z
#
# Youngs Moduli (GPa) = 70.15293 69.96851 33.74642
#
# Poissons Ratio (x) = 0.21321 0.00424
# Poissons Ratio (y) = 0.21377 0.36192
# Poissons Ratio (z) = 0.00882 0.75039
#
# Static dielectric constant tensor:
#      x y z
#    x 1.839670 0.000000 0.000000 
#    y 0.000000 1.789560 0.000000 
#    z 0.000000 0.000000 1.838510 
# 
# From -- ./inp_files/7374.got.cif
#   From: 2010.05.17/outbox.cif.g08.bks.cpg/sg68_4_cif.got.tgz:7374.got - 2010.06.03 18:57:09.
