data_PCOD9508743
_publ_section_title
;
Structure prediction by ZEFSAII (Michael W. Deem and Ramdas Pophale) SiO2 
 PCOD9508743
Probable space group: C C C A
;
_chemical_formula_sum "Si O2"
_cell_formula_units_Z 52
_cell_length_a 24.665561
_cell_length_b 9.575900
_cell_length_c 9.761508
_cell_angle_alpha 90.000000
_cell_angle_beta 90.000000
_cell_angle_gamma 90.000000
_cell_volume 2305.618851
_symmetry_space_group_name_H-M "C C C A"
_symmetry_group_IT_number 68
_space_group.IT_coordinate_system_code '2'
_symmetry_cell_setting 'orthorhombic'
loop_
_space_group_symop_operation_xyz
x,y,z
-x,1/2-y,z
x,1/2-y,1/2-z
-x,y,1/2-z
-x,-y,-z
x,1/2+y,-z
-x,1/2+y,1/2+z
x,-y,1/2+z
1/2+x,1/2+y,z
1/2-x,-y,z
1/2+x,-y,1/2-z
1/2-x,1/2+y,1/2-z
1/2-x,1/2-y,-z
1/2+x,y,-z
1/2-x,y,1/2+z
1/2+x,1/2-y,1/2+z
loop_
_atom_site_type_symbol
_atom_site_label
_atom_site_fract_x
_atom_site_fract_y
_atom_site_fract_z
Si Si1 0.500000 0.250000 0.250000
Si Si2 0.373671 0.950927 0.011807
Si Si3 0.304740 0.584048 0.749756
Si Si4 0.054794 0.813315 0.980075
O O1 0.538699 0.326836 0.141465
O O2 0.349817 0.032291 0.141836
O O3 0.423699 0.035351 0.942630
O O4 0.326452 0.947998 0.901187
O O5 0.397324 0.798023 0.042280
O O6 0.296073 0.750000 0.750000
O O7 0.250000 0.500000 0.778668
O O8 0.000000 0.750000 0.916046
#
# Coordination Sequence:
#
# PCOD9508743 Si02
#       4
#     4  16  16  16
#     4   8  20  40  68  96 156 184 236 280 360 392
#     4  12  24  48  74 108 144 192 240 298 370 426
#     4  12  29  49  75 105 145 189 246 312 366 430
#     4  10  22  41  69 106 144 191 228 290 353 429
#
# _framework density 22.553598999999998
#
# number of rings (size 3 to 8) (size 9 to 14) (size 15 to 20)
#    0.923    0.000    3.077    3.692    4.308    2.462 
#    0.000    1.538    0.000    0.000    0.000    0.000 
#    0.000    0.000    0.000    0.000    0.000    0.000 
#
# Total GULP energy -145227.548906 kJ/mol
# GULP energy per Si atom -5585.674958 kJ/mol
# Density = 2.250227 g / cm^3
# Si number density = 22.553599 Si / 1000 Ang^3
#
#
#
# Elastic Constant Matrix: (Units=GPa)
#
#
# Indices 1 2 3 4 5 6 
#
# 1 73.8507 -19.3184 22.5647 0.0000 0.0000 0.0000
# 2 -19.3184 54.4750 27.1581 0.0000 0.0000 0.0000
# 3 22.5647 27.1581 66.6650 0.0000 0.0000 0.0000
# 4 0.0000 0.0000 0.0000 -3.5342 0.0000 0.0000
# 5 0.0000 0.0000 0.0000 0.0000 -4.2193 0.0000
# 6 0.0000 0.0000 0.0000 0.0000 0.0000 33.4132
#
#
#
# Elastic Compliance Matrix: (Units=1/GPa)
#
#
# Indices 1 2 3 4 5 6 
#
# 1 0.021058 0.013830 -0.012762 0.000000 0.000000 0.000000
# 2 0.013830 0.032118 -0.017766 0.000000 0.000000 0.000000
# 3 -0.012762 -0.017766 0.026557 0.000000 0.000000 0.000000
# 4 0.000000 0.000000 0.000000 -0.282952 0.000000 0.000000
# 5 0.000000 0.000000 0.000000 0.000000 -0.237006 0.000000
# 6 0.000000 0.000000 0.000000 0.000000 0.000000 0.029928
#
#
# Mechanical properties :
#
#
# Convention : Reuss Voigt Hill
#
# Bulk Modulus (GPa) = 21.58012 28.42216 25.00114
# Shear Modulus (GPa) = -13.83299 16.10437 1.13569
#
# Velocity S-wave (km/s) = -2.47925 2.67507 0.71038
# Velocity P-wave (km/s) = 1.18048 4.70858 3.43251
#
# Compressibility (1/GPa) = 0.04633894
#
# Stress axis : x y z
#
# Youngs Moduli (GPa) = 47.48825 31.13473 37.65442
#
# Poissons Ratio (x) = -0.43059 0.48053
# Poissons Ratio (y) = -0.65676 0.66895
# Poissons Ratio (z) = 0.60603 0.55313
#
# Static dielectric constant tensor:
#      x y z
#    x 1.814140 0.000000 0.000000 
#    y 0.000000 1.803570 0.000000 
#    z 0.000000 0.000000 1.796590 
# 
# From -- ./inp_files/3818.got.cif
#   From: 2010.05.17/outbox.cif.g08.bks.cpg/sg68_2_cif.got.tgz:3818.got - 2010.06.03 18:57:09.
