data_PCOD9508857
_publ_section_title
;
Structure prediction by ZEFSAII (Michael W. Deem and Ramdas Pophale) SiO2 
 PCOD9508857
Probable space group: C C C A
;
_chemical_formula_sum "Si O2"
_cell_formula_units_Z 64
_cell_length_a 28.138709
_cell_length_b 8.372454
_cell_length_c 12.545520
_cell_angle_alpha 90.000000
_cell_angle_beta 90.000000
_cell_angle_gamma 90.000000
_cell_volume 2955.599643
_symmetry_space_group_name_H-M "C C C A"
_symmetry_group_IT_number 68
_space_group.IT_coordinate_system_code '2'
_symmetry_cell_setting 'orthorhombic'
loop_
_space_group_symop_operation_xyz
x,y,z
-x,1/2-y,z
x,1/2-y,1/2-z
-x,y,1/2-z
-x,-y,-z
x,1/2+y,-z
-x,1/2+y,1/2+z
x,-y,1/2+z
1/2+x,1/2+y,z
1/2-x,-y,z
1/2+x,-y,1/2-z
1/2-x,1/2+y,1/2-z
1/2-x,1/2-y,-z
1/2+x,y,-z
1/2-x,y,1/2+z
1/2+x,1/2-y,1/2+z
loop_
_atom_site_type_symbol
_atom_site_label
_atom_site_fract_x
_atom_site_fract_y
_atom_site_fract_z
Si Si1 0.000000 0.250000 0.028943
Si Si2 0.617799 0.250000 0.250000
Si Si3 0.811088 0.669394 0.413482
Si Si4 0.199495 0.301949 0.132985
Si Si5 0.960469 0.027116 0.657005
O O1 0.034964 0.351193 0.105750
O O2 0.028280 0.137107 0.946411
O O3 0.653051 0.220553 0.348126
O O4 0.585577 0.398796 0.286344
O O5 0.815703 0.483925 0.385321
O O6 0.819731 0.694526 0.537817
O O7 0.756869 0.710611 0.381414
O O8 0.185878 0.250000 0.250000
O O9 0.000000 0.040275 0.750000
#
# Coordination Sequence:
#
# PCOD9508857 Si02
#       5
#     8   8  16  16  16
#     4  10  22  42  74  96 128 194 226 264 370 446
#     4  12  23  42  68 106 144 178 240 310 345 412
#     4  10  24  39  69  98 139 187 242 301 353 421
#     4  10  22  44  67  94 138 198 241 283 370 425
#     4  11  22  45  70 100 139 184 223 291 362 427
#
# _framework density 21.65381
#
# number of rings (size 3 to 8) (size 9 to 14) (size 15 to 20)
#    0.000    1.500    3.750    0.375    3.500    4.000 
#    0.000    2.500    0.000    0.000    0.000    0.000 
#    0.000    0.000    0.000    0.000    0.000    0.000 
#
# Total GULP energy -178698.097071 kJ/mol
# GULP energy per Si atom -5584.315533 kJ/mol
# Density = 2.160453 g / cm^3
# Si number density = 21.653810 Si / 1000 Ang^3
#
#
#
# Elastic Constant Matrix: (Units=GPa)
#
#
# Indices 1 2 3 4 5 6 
#
# 1 65.4738 34.0920 47.5937 0.0000 0.0000 0.0000
# 2 34.0920 82.7827 76.6364 0.0000 0.0000 0.0000
# 3 47.5937 76.6364 214.8142 0.0000 0.0000 0.0000
# 4 0.0000 0.0000 0.0000 42.6529 0.0000 0.0000
# 5 0.0000 0.0000 0.0000 0.0000 22.8974 0.0000
# 6 0.0000 0.0000 0.0000 0.0000 0.0000 4.4224
#
#
#
# Elastic Compliance Matrix: (Units=1/GPa)
#
#
# Indices 1 2 3 4 5 6 
#
# 1 0.020142 -0.006217 -0.002245 0.000000 0.000000 0.000000
# 2 -0.006217 0.019956 -0.005742 0.000000 0.000000 0.000000
# 3 -0.002245 -0.005742 0.007201 0.000000 0.000000 0.000000
# 4 0.000000 0.000000 0.000000 0.023445 0.000000 0.000000
# 5 0.000000 0.000000 0.000000 0.000000 0.043673 0.000000
# 6 0.000000 0.000000 0.000000 0.000000 0.000000 0.226119
#
#
# Mechanical properties :
#
#
# Convention : Reuss Voigt Hill
#
# Bulk Modulus (GPa) = 52.93348 75.52387 64.22868
# Shear Modulus (GPa) = 13.32478 27.64446 20.48462
#
# Velocity S-wave (km/s) = 2.48333 3.57691 3.07906
# Velocity P-wave (km/s) = 5.72022 7.21198 6.50898
#
# Compressibility (1/GPa) = 0.01889163
#
# Stress axis : x y z
#
# Youngs Moduli (GPa) = 49.64715 50.11082 138.87001
#
# Poissons Ratio (x) = 0.31154 0.31172
# Poissons Ratio (y) = 0.30866 0.79738
# Poissons Ratio (z) = 0.11144 0.28773
#
# Static dielectric constant tensor:
#      x y z
#    x 1.820660 0.000000 0.000000 
#    y 0.000000 1.815390 0.000000 
#    z 0.000000 0.000000 1.769470 
# 
# From -- ./inp_files/17478.got.cif
#   From: 2010.05.17/outbox.cif.g08.bks.cpg/sg68_9_cif.got.tgz:17478.got - 2010.06.03 18:57:09.
