data_PCOD9508372
_publ_section_title
;
Structure prediction by ZEFSAII (Michael W. Deem and Ramdas Pophale) SiO2 
 PCOD9508372
Probable space group: C C C A
;
_chemical_formula_sum "Si O2"
_cell_formula_units_Z 112
_cell_length_a 13.211466
_cell_length_b 25.160804
_cell_length_c 15.369540
_cell_angle_alpha 90.000000
_cell_angle_beta 90.000000
_cell_angle_gamma 90.000000
_cell_volume 5109.005799
_symmetry_space_group_name_H-M "C C C A"
_symmetry_group_IT_number 68
_space_group.IT_coordinate_system_code '2'
_symmetry_cell_setting 'orthorhombic'
loop_
_space_group_symop_operation_xyz
x,y,z
-x,1/2-y,z
x,1/2-y,1/2-z
-x,y,1/2-z
-x,-y,-z
x,1/2+y,-z
-x,1/2+y,1/2+z
x,-y,1/2+z
1/2+x,1/2+y,z
1/2-x,-y,z
1/2+x,-y,1/2-z
1/2-x,1/2+y,1/2-z
1/2-x,1/2-y,-z
1/2+x,y,-z
1/2-x,y,1/2+z
1/2+x,1/2-y,1/2+z
loop_
_atom_site_type_symbol
_atom_site_label
_atom_site_fract_x
_atom_site_fract_y
_atom_site_fract_z
Si Si1 0.632105 0.561402 0.330369
Si Si2 0.479226 0.334186 0.646809
Si Si3 0.293836 0.836003 0.080195
Si Si4 0.909590 0.967142 0.041785
Si Si5 0.690066 0.946454 0.355406
Si Si6 0.678071 0.372429 0.388019
Si Si7 0.273894 0.771971 0.345442
O O1 0.556101 0.605283 0.368831
O O2 0.629788 0.507935 0.385395
O O3 0.614810 0.555504 0.227102
O O4 0.741863 0.588448 0.342733
O O5 0.500000 0.327244 0.750000
O O6 0.585819 0.326665 0.598857
O O7 0.381431 0.298139 0.625030
O O8 0.263135 0.886901 0.139191
O O9 0.243687 0.779590 0.099339
O O10 0.279898 0.853506 0.981659
O O11 0.918101 0.909642 0.089226
O O12 0.844641 0.955626 0.954934
O O13 0.000000 0.000000 0.000000
O O14 0.750000 0.000000 0.334378
O O15 0.686401 0.316648 0.338757
O O16 0.295126 0.750000 0.250000
#
# Coordination Sequence:
#
# PCOD9508372 Si02
#       7
#    16  16  16  16  16  16  16
#     4  11  21  38  59  83 124 161 204 261 323 386
#     4  11  20  35  60  93 122 160 207 267 320 385
#     4  11  20  35  56  85 126 157 207 262 321 384
#     4  11  23  37  59  86 121 162 213 268 323 393
#     4  11  22  37  60  87 120 164 205 262 325 393
#     4  10  22  37  53  85 122 162 205 259 326 392
#     4  11  21  34  59  88 124 164 210 263 323 388
#
# _framework density 21.922073999999999
#
# number of rings (size 3 to 8) (size 9 to 14) (size 15 to 20)
#    0.000    1.143    2.857    6.429    0.000    0.000 
#    0.000    0.000    0.000    0.000    0.000    2.000 
#    0.000   11.429    0.000    0.000    0.000    0.000 
#
# Total GULP energy -312074.524373 kJ/mol
# GULP energy per Si atom -5572.759364 kJ/mol
# Density = 2.187218 g / cm^3
# Si number density = 21.922074 Si / 1000 Ang^3
#
#
#
# Elastic Constant Matrix: (Units=GPa)
#
#
# Indices 1 2 3 4 5 6 
#
# 1 30.8851 27.6954 -5.1051 0.0000 0.0000 0.0000
# 2 27.6954 195.2156 21.9149 0.0000 0.0000 0.0000
# 3 -5.1051 21.9149 79.7435 0.0000 0.0000 0.0000
# 4 0.0000 0.0000 0.0000 33.2041 0.0000 0.0000
# 5 0.0000 0.0000 0.0000 0.0000 19.5834 0.0000
# 6 0.0000 0.0000 0.0000 0.0000 0.0000 33.0923
#
#
#
# Elastic Compliance Matrix: (Units=1/GPa)
#
#
# Indices 1 2 3 4 5 6 
#
# 1 0.038339 -0.005897 0.004075 0.000000 0.000000 0.000000
# 2 -0.005897 0.006193 -0.002079 0.000000 0.000000 0.000000
# 3 0.004075 -0.002079 0.013373 0.000000 0.000000 0.000000
# 4 0.000000 0.000000 0.000000 0.030117 0.000000 0.000000
# 5 0.000000 0.000000 0.000000 0.000000 0.051064 0.000000
# 6 0.000000 0.000000 0.000000 0.000000 0.000000 0.030219
#
#
# Mechanical properties :
#
#
# Convention : Reuss Voigt Hill
#
# Bulk Modulus (GPa) = 19.95917 43.87272 31.91594
# Shear Modulus (GPa) = 25.79900 34.59858 30.19879
#
# Velocity S-wave (km/s) = 3.43425 3.97703 3.71556
# Velocity P-wave (km/s) = 4.98495 6.41448 5.74436
#
# Compressibility (1/GPa) = 0.05010229
#
# Stress axis : x y z
#
# Youngs Moduli (GPa) = 26.08289 161.48491 74.78027
#
# Poissons Ratio (x) = 0.95222 -0.30473
# Poissons Ratio (y) = 0.15380 0.15549
# Poissons Ratio (z) = -0.10629 0.33578
#
# Static dielectric constant tensor:
#      x y z
#    x 1.860390 0.000000 0.000000 
#    y 0.000000 1.914070 0.000000 
#    z 0.000000 0.000000 1.824060 
# 
# From -- ./inp_files/22576.got.cif
#   From: 2010.05.17/outbox.cif.g08.bks.cpg/sg68_12_cif.got.tgz:22576.got - 2010.06.03 18:57:09.
