data_PCOD9508471
_publ_section_title
;
Structure prediction by ZEFSAII (Michael W. Deem and Ramdas Pophale) SiO2 
 PCOD9508471
Probable space group: C C C A
;
_chemical_formula_sum "Si O2"
_cell_formula_units_Z 60
_cell_length_a 22.298555
_cell_length_b 24.131461
_cell_length_c 5.228280
_cell_angle_alpha 90.000000
_cell_angle_beta 90.000000
_cell_angle_gamma 90.000000
_cell_volume 2813.320269
_symmetry_space_group_name_H-M "C C C A"
_symmetry_group_IT_number 68
_space_group.IT_coordinate_system_code '2'
_symmetry_cell_setting 'orthorhombic'
loop_
_space_group_symop_operation_xyz
x,y,z
-x,1/2-y,z
x,1/2-y,1/2-z
-x,y,1/2-z
-x,-y,-z
x,1/2+y,-z
-x,1/2+y,1/2+z
x,-y,1/2+z
1/2+x,1/2+y,z
1/2-x,-y,z
1/2+x,-y,1/2-z
1/2-x,1/2+y,1/2-z
1/2-x,1/2-y,-z
1/2+x,y,-z
1/2-x,y,1/2+z
1/2+x,1/2-y,1/2+z
loop_
_atom_site_type_symbol
_atom_site_label
_atom_site_fract_x
_atom_site_fract_y
_atom_site_fract_z
Si Si1 0.438867 0.643911 0.140507
Si Si2 0.791374 0.750000 0.250000
Si Si3 0.000000 0.250000 0.250000
Si Si4 0.682776 0.522927 0.957133
Si Si5 0.137038 0.861881 0.343900
O O1 0.500000 0.616567 0.250000
O O2 0.459782 0.707693 0.088451
O O3 0.394081 0.645562 0.380757
O O4 0.409853 0.622653 0.880583
O O5 0.750000 0.750000 0.500000
O O6 0.830832 0.694429 0.260630
O O7 0.653098 0.487311 0.731449
O O8 0.750000 0.500000 0.995085
O O9 0.681988 0.586550 0.876084
#
# Coordination Sequence:
#
# PCOD9508471 Si02
#       5
#    16   8   4  16  16
#     4  10  22  38  67  96 134 167 220 264 316 407
#     4  12  28  39  61  96 143 174 203 278 342 406
#     4   8  20  36  64  94 136 166 222 238 332 380
#     4  10  23  40  67  88 122 171 232 269 308 385
#     4  12  23  42  67  96 137 174 219 267 341 385
#
# _framework density 21.327114000000002
#
# number of rings (size 3 to 8) (size 9 to 14) (size 15 to 20)
#    0.800    0.533    0.000    5.600    7.467    1.067 
#    0.000    0.000    0.000   16.000    0.000    0.000 
#    0.000    0.000    0.000    0.000    0.000    0.000 
#
# Total GULP energy -167384.626524 kJ/mol
# GULP energy per Si atom -5579.487551 kJ/mol
# Density = 2.127857 g / cm^3
# Si number density = 21.327114 Si / 1000 Ang^3
#
#
#
# Elastic Constant Matrix: (Units=GPa)
#
#
# Indices 1 2 3 4 5 6 
#
# 1 61.0985 30.5911 12.9263 0.0000 0.0000 0.0000
# 2 30.5911 89.1904 -1.2516 0.0000 0.0000 0.0000
# 3 12.9263 -1.2516 132.4391 0.0000 0.0000 0.0000
# 4 0.0000 0.0000 0.0000 22.2393 0.0000 0.0000
# 5 0.0000 0.0000 0.0000 0.0000 28.5178 0.0000
# 6 0.0000 0.0000 0.0000 0.0000 0.0000 24.8821
#
#
#
# Elastic Compliance Matrix: (Units=1/GPa)
#
#
# Indices 1 2 3 4 5 6 
#
# 1 0.020301 -0.006992 -0.002047 0.000000 0.000000 0.000000
# 2 -0.006992 0.013621 0.000811 0.000000 0.000000 0.000000
# 3 -0.002047 0.000811 0.007758 0.000000 0.000000 0.000000
# 4 0.000000 0.000000 0.000000 0.044966 0.000000 0.000000
# 5 0.000000 0.000000 0.000000 0.000000 0.035066 0.000000
# 6 0.000000 0.000000 0.000000 0.000000 0.000000 0.040190
#
#
# Mechanical properties :
#
#
# Convention : Reuss Voigt Hill
#
# Bulk Modulus (GPa) = 39.64419 40.80661 40.22540
# Shear Modulus (GPa) = 26.77157 31.15864 28.96511
#
# Velocity S-wave (km/s) = 3.54684 3.82643 3.68929
# Velocity P-wave (km/s) = 5.94999 6.22072 6.08686
#
# Compressibility (1/GPa) = 0.02522438
#
# Stress axis : x y z
#
# Youngs Moduli (GPa) = 49.25919 73.41401 128.89681
#
# Poissons Ratio (x) = 0.51328 0.26391
# Poissons Ratio (y) = 0.34440 -0.10455
# Poissons Ratio (z) = 0.10086 -0.05955
#
# Static dielectric constant tensor:
#      x y z
#    x 1.756470 0.000000 0.000000 
#    y 0.000000 1.779950 0.000000 
#    z 0.000000 0.000000 1.824120 
# 
# From -- ./inp_files/1421.got.cif
#   From: 2010.05.17/outbox.cif.g08.bks.cpg/sg68_1_cif.got.tgz:1421.got - 2010.06.03 18:57:09.
