data_PCOD9508731
_publ_section_title
;
Structure prediction by ZEFSAII (Michael W. Deem and Ramdas Pophale) SiO2 
 PCOD9508731
Probable space group: C C C A
;
_chemical_formula_sum "Si O2"
_cell_formula_units_Z 68
_cell_length_a 14.493983
_cell_length_b 18.735702
_cell_length_c 10.793313
_cell_angle_alpha 90.000000
_cell_angle_beta 90.000000
_cell_angle_gamma 90.000000
_cell_volume 2930.977532
_symmetry_space_group_name_H-M "C C C A"
_symmetry_group_IT_number 68
_space_group.IT_coordinate_system_code '2'
_symmetry_cell_setting 'orthorhombic'
loop_
_space_group_symop_operation_xyz
x,y,z
-x,1/2-y,z
x,1/2-y,1/2-z
-x,y,1/2-z
-x,-y,-z
x,1/2+y,-z
-x,1/2+y,1/2+z
x,-y,1/2+z
1/2+x,1/2+y,z
1/2-x,-y,z
1/2+x,-y,1/2-z
1/2-x,1/2+y,1/2-z
1/2-x,1/2-y,-z
1/2+x,y,-z
1/2-x,y,1/2+z
1/2+x,1/2-y,1/2+z
loop_
_atom_site_type_symbol
_atom_site_label
_atom_site_fract_x
_atom_site_fract_y
_atom_site_fract_z
Si Si1 0.341045 0.701005 0.131651
Si Si2 0.899004 0.449989 0.368600
Si Si3 0.389219 0.033066 0.595692
Si Si4 0.137756 0.823586 0.434746
Si Si5 0.500000 0.750000 0.750000
O O1 0.352351 0.750000 0.250000
O O2 0.409320 0.634979 0.130911
O O3 0.238053 0.668306 0.128039
O O4 0.355545 0.751862 0.015722
O O5 0.852578 0.475813 0.496249
O O6 0.852496 0.468077 0.236670
O O7 0.002015 0.481231 0.378894
O O8 0.379667 0.108987 0.524530
O O9 0.062003 0.803339 0.333045
#
# Coordination Sequence:
#
# PCOD9508731 Si02
#       5
#    16  16  16  16   4
#     4  11  22  44  66  95 132 178 225 284 340 419
#     4  10  22  41  67  94 132 175 224 279 337 415
#     4  10  22  42  64  97 129 175 222 280 337 409
#     4  11  24  40  67  96 134 173 226 281 349 406
#     4  12  24  40  62 108 128 178 214 298 336 412
#
# _framework density 23.200451000000001
#
# number of rings (size 3 to 8) (size 9 to 14) (size 15 to 20)
#    0.000    1.412    3.529    1.412    0.000    6.588 
#    0.000    2.353    0.000    0.000    0.000    0.000 
#    0.000    0.000    0.000    0.000    0.000    0.000 
#
# Total GULP energy -189947.403161 kJ/mol
# GULP energy per Si atom -5586.688328 kJ/mol
# Density = 2.314765 g / cm^3
# Si number density = 23.200451 Si / 1000 Ang^3
#
#
#
# Elastic Constant Matrix: (Units=GPa)
#
#
# Indices 1 2 3 4 5 6 
#
# 1 50.9293 4.8745 20.0484 0.0000 0.0000 0.0000
# 2 4.8745 72.6235 77.4224 0.0000 0.0000 0.0000
# 3 20.0484 77.4224 172.7477 0.0000 0.0000 0.0000
# 4 0.0000 0.0000 0.0000 47.1986 0.0000 0.0000
# 5 0.0000 0.0000 0.0000 0.0000 -7.8947 0.0000
# 6 0.0000 0.0000 0.0000 0.0000 0.0000 22.4654
#
#
#
# Elastic Compliance Matrix: (Units=1/GPa)
#
#
# Indices 1 2 3 4 5 6 
#
# 1 0.020765 0.002251 -0.003419 0.000000 0.000000 0.000000
# 2 0.002251 0.026612 -0.012188 0.000000 0.000000 0.000000
# 3 -0.003419 -0.012188 0.011648 0.000000 0.000000 0.000000
# 4 0.000000 0.000000 0.000000 0.021187 0.000000 0.000000
# 5 0.000000 0.000000 0.000000 0.000000 -0.126668 0.000000
# 6 0.000000 0.000000 0.000000 0.000000 0.000000 0.044513
#
#
# Mechanical properties :
#
#
# Convention : Reuss Voigt Hill
#
# Bulk Modulus (GPa) = 30.94690 55.66568 43.30629
# Shear Modulus (GPa) = 140.67865 25.28420 82.98143
#
# Velocity S-wave (km/s) = 7.79537 3.30482 5.98705
# Velocity P-wave (km/s) = 9.71554 6.21352 8.15474
#
# Compressibility (1/GPa) = 0.03231341
#
# Stress axis : x y z
#
# Youngs Moduli (GPa) = 48.15702 37.57640 85.85011
#
# Poissons Ratio (x) = -0.08458 0.29350
# Poissons Ratio (y) = -0.10840 1.04638
# Poissons Ratio (z) = 0.16464 0.45800
#
# Static dielectric constant tensor:
#      x y z
#    x 1.953460 0.000000 0.000000 
#    y 0.000000 1.836930 0.000000 
#    z 0.000000 0.000000 2.126630 
# 
# From -- ./inp_files/5967.got.cif
#   From: 2010.05.17/outbox.cif.g08.bks.cpg/sg68_3_cif.got.tgz:5967.got - 2010.06.03 18:57:09.
