data_PCOD9508308
_publ_section_title
;
Structure prediction by ZEFSAII (Michael W. Deem and Ramdas Pophale) SiO2 
 PCOD9508308
Probable space group: C C C A
;
_chemical_formula_sum "Si O2"
_cell_formula_units_Z 116
_cell_length_a 12.470291
_cell_length_b 27.127726
_cell_length_c 11.636403
_cell_angle_alpha 90.000000
_cell_angle_beta 90.000000
_cell_angle_gamma 90.000000
_cell_volume 3936.486188
_symmetry_space_group_name_H-M "C C C A"
_symmetry_group_IT_number 68
_space_group.IT_coordinate_system_code '2'
_symmetry_cell_setting 'orthorhombic'
loop_
_space_group_symop_operation_xyz
x,y,z
-x,1/2-y,z
x,1/2-y,1/2-z
-x,y,1/2-z
-x,-y,-z
x,1/2+y,-z
-x,1/2+y,1/2+z
x,-y,1/2+z
1/2+x,1/2+y,z
1/2-x,-y,z
1/2+x,-y,1/2-z
1/2-x,1/2+y,1/2-z
1/2-x,1/2-y,-z
1/2+x,y,-z
1/2-x,y,1/2+z
1/2+x,1/2-y,1/2+z
loop_
_atom_site_type_symbol
_atom_site_label
_atom_site_fract_x
_atom_site_fract_y
_atom_site_fract_z
Si Si1 0.471412 0.325571 0.919149
Si Si2 0.336966 0.410451 0.996381
Si Si3 0.874490 0.045495 0.932023
Si Si4 0.109010 0.647652 0.326043
Si Si5 0.346259 0.243501 0.413587
Si Si6 0.716439 0.339657 0.837285
Si Si7 0.377573 0.990701 0.826472
Si Si8 0.500000 0.750000 0.250000
O O1 0.406445 0.331448 0.626021
O O2 0.428393 0.285701 0.827034
O O3 0.417481 0.378845 0.919156
O O4 0.433168 0.294029 0.030060
O O5 0.264233 0.368974 0.054989
O O6 0.389324 0.439774 0.103034
O O7 0.255801 0.448727 0.937927
O O8 0.910093 0.102138 0.911614
O O9 0.910139 0.016250 0.812025
O O10 0.907572 0.027825 0.063046
O O11 0.120335 0.701692 0.381022
O O12 0.225320 0.632821 0.269390
O O13 0.000000 0.649219 0.250000
O O14 0.250000 0.250000 0.500000
O O15 0.286440 0.209454 0.322881
O O16 0.250000 0.000000 0.814989
#
# Coordination Sequence:
#
# PCOD9508308 Si02
#       8
#    16  16  16  16  16  16  16   4
#     4  11  27  46  76 118 171 231 297 369 445 547
#     4  10  23  47  80 120 168 223 290 373 453 539
#     4  11  24  47  85 130 171 234 296 386 462 559
#     4  12  28  50  83 124 175 232 304 376 462 552
#     4  11  26  49  73 117 171 232 292 364 447 535
#     4  11  25  46  82 119 172 227 296 371 445 542
#     4  10  21  46  85 124 171 219 301 374 472 547
#     4  12  28  40  68 104 172 224 292 356 424 538
#
# _framework density 29.467904999999998
#
# number of rings (size 3 to 8) (size 9 to 14) (size 15 to 20)
#    0.000    1.103    1.379    4.138    5.793    8.828 
#    0.000    2.069    4.552    2.483    0.000    0.000 
#    0.000    0.000    0.000    0.000    0.000    0.000 
#
# Total GULP energy -323609.262318 kJ/mol
# GULP energy per Si atom -5579.470040 kJ/mol
# Density = 2.940083 g / cm^3
# Si number density = 29.467905 Si / 1000 Ang^3
#
#
#
# Elastic Constant Matrix: (Units=GPa)
#
#
# Indices 1 2 3 4 5 6 
#
# 1 199.8320 75.2861 101.2357 0.0000 0.0000 0.0000
# 2 75.2861 211.6258 84.6084 0.0000 0.0000 0.0000
# 3 101.2357 84.6084 190.4335 0.0000 0.0000 0.0000
# 4 0.0000 0.0000 0.0000 74.2182 0.0000 0.0000
# 5 0.0000 0.0000 0.0000 0.0000 60.3267 0.0000
# 6 0.0000 0.0000 0.0000 0.0000 0.0000 43.9517
#
#
#
# Elastic Compliance Matrix: (Units=1/GPa)
#
#
# Indices 1 2 3 4 5 6 
#
# 1 0.007105 -0.001237 -0.003228 0.000000 0.000000 0.000000
# 2 -0.001237 0.005961 -0.001991 0.000000 0.000000 0.000000
# 3 -0.003228 -0.001991 0.007851 0.000000 0.000000 0.000000
# 4 0.000000 0.000000 0.000000 0.013474 0.000000 0.000000
# 5 0.000000 0.000000 0.000000 0.000000 0.016576 0.000000
# 6 0.000000 0.000000 0.000000 0.000000 0.000000 0.022752
#
#
# Mechanical properties :
#
#
# Convention : Reuss Voigt Hill
#
# Bulk Modulus (GPa) = 124.89292 124.90574 124.89933
# Shear Modulus (GPa) = 55.99018 58.41673 57.20346
#
# Velocity S-wave (km/s) = 4.36367 4.45723 4.41070
# Velocity P-wave (km/s) = 8.23793 8.30471 8.27139
#
# Compressibility (1/GPa) = 0.00800686
#
# Stress axis : x y z
#
# Youngs Moduli (GPa) = 140.73645 167.74392 127.36457
#
# Poissons Ratio (x) = 0.20757 0.41108
# Poissons Ratio (y) = 0.17415 0.25356
# Poissons Ratio (z) = 0.45423 0.33395
#
# Static dielectric constant tensor:
#      x y z
#    x 2.400920 0.000000 0.000000 
#    y 0.000000 2.482820 0.000000 
#    z 0.000000 0.000000 3.254850 
# 
# From -- ./inp_files/14920.got.cif
#   From: 2010.05.17/outbox.cif.g08.bks.cpg/sg68_8_cif.got.tgz:14920.got - 2010.06.03 18:57:09.
