data_PCOD9508858
_publ_section_title
;
Structure prediction by ZEFSAII (Michael W. Deem and Ramdas Pophale) SiO2 
 PCOD9508858
Probable space group: C C C A
;
_chemical_formula_sum "Si O2"
_cell_formula_units_Z 64
_cell_length_a 11.095876
_cell_length_b 31.921555
_cell_length_c 8.477566
_cell_angle_alpha 90.000000
_cell_angle_beta 90.000000
_cell_angle_gamma 90.000000
_cell_volume 3002.733667
_symmetry_space_group_name_H-M "C C C A"
_symmetry_group_IT_number 68
_space_group.IT_coordinate_system_code '2'
_symmetry_cell_setting 'orthorhombic'
loop_
_space_group_symop_operation_xyz
x,y,z
-x,1/2-y,z
x,1/2-y,1/2-z
-x,y,1/2-z
-x,-y,-z
x,1/2+y,-z
-x,1/2+y,1/2+z
x,-y,1/2+z
1/2+x,1/2+y,z
1/2-x,-y,z
1/2+x,-y,1/2-z
1/2-x,1/2+y,1/2-z
1/2-x,1/2-y,-z
1/2+x,y,-z
1/2-x,y,1/2+z
1/2+x,1/2-y,1/2+z
loop_
_atom_site_type_symbol
_atom_site_label
_atom_site_fract_x
_atom_site_fract_y
_atom_site_fract_z
Si Si1 0.924442 0.357545 0.084960
Si Si2 0.252587 0.781743 0.142906
Si Si3 0.619680 0.047495 0.849970
Si Si4 0.500000 0.679460 0.750000
Si Si5 0.250000 0.500000 0.104271
O O1 0.816176 0.324833 0.102359
O O2 0.882006 0.405595 0.085333
O O3 0.000000 0.352990 0.250000
O O4 0.984695 0.346253 0.915373
O O5 0.330141 0.750000 0.250000
O O6 0.122644 0.793868 0.218458
O O7 0.250000 0.750000 0.000000
O O8 0.500000 0.040053 0.750000
O O9 0.721565 0.038651 0.718908
O O10 0.643722 0.014704 0.989113
#
# Coordination Sequence:
#
# PCOD9508858 Si02
#       5
#    16  16  16   8   8
#     4  11  27  46  70 105 140 188 239 290 353 425
#     4  12  25  43  71 100 140 184 239 291 350 416
#     4  10  23  44  67 104 138 178 232 281 355 423
#     4  12  27  46  72 102 142 192 232 302 354 408
#     4  10  22  42  74  98 140 178 222 290 352 426
#
# _framework density 21.313911000000001
#
# number of rings (size 3 to 8) (size 9 to 14) (size 15 to 20)
#    0.000    1.000    2.500    2.625    3.500    4.500 
#   11.250    0.000    0.000    0.000    0.000    0.000 
#    0.000    0.000    0.000    0.000    0.000    0.000 
#
# Total GULP energy -178171.647664 kJ/mol
# GULP energy per Si atom -5567.863989 kJ/mol
# Density = 2.126540 g / cm^3
# Si number density = 21.313911 Si / 1000 Ang^3
#
#
#
# Elastic Constant Matrix: (Units=GPa)
#
#
# Indices 1 2 3 4 5 6 
#
# 1 65.3442 45.3290 28.5599 0.0000 0.0000 0.0000
# 2 45.3290 139.4842 71.6780 0.0000 0.0000 0.0000
# 3 28.5599 71.6780 156.5059 0.0000 0.0000 0.0000
# 4 0.0000 0.0000 0.0000 37.0997 0.0000 0.0000
# 5 0.0000 0.0000 0.0000 0.0000 29.4026 0.0000
# 6 0.0000 0.0000 0.0000 0.0000 0.0000 64.5127
#
#
#
# Elastic Compliance Matrix: (Units=1/GPa)
#
#
# Indices 1 2 3 4 5 6 
#
# 1 0.019849 -0.006001 -0.000873 0.000000 0.000000 0.000000
# 2 -0.006001 0.011190 -0.004030 0.000000 0.000000 0.000000
# 3 -0.000873 -0.004030 0.008395 0.000000 0.000000 0.000000
# 4 0.000000 0.000000 0.000000 0.026954 0.000000 0.000000
# 5 0.000000 0.000000 0.000000 0.000000 0.034011 0.000000
# 6 0.000000 0.000000 0.000000 0.000000 0.000000 0.015501
#
#
# Mechanical properties :
#
#
# Convention : Reuss Voigt Hill
#
# Bulk Modulus (GPa) = 56.74105 72.49645 64.61875
# Shear Modulus (GPa) = 34.82288 40.58751 37.70520
#
# Velocity S-wave (km/s) = 4.04643 4.36853 4.21056
# Velocity P-wave (km/s) = 6.96497 7.71576 7.34996
#
# Compressibility (1/GPa) = 0.01762392
#
# Stress axis : x y z
#
# Youngs Moduli (GPa) = 50.38157 89.36151 119.12415
#
# Poissons Ratio (x) = 0.53630 0.10405
# Poissons Ratio (y) = 0.30236 0.48006
# Poissons Ratio (z) = 0.04401 0.36012
#
# Static dielectric constant tensor:
#      x y z
#    x 1.821920 0.000000 0.000000 
#    y 0.000000 1.722620 0.000000 
#    z 0.000000 0.000000 1.745880 
# 
# From -- ./inp_files/4092.got.cif
#   From: 2010.05.17/outbox.cif.g08.bks.cpg/sg68_3_cif.got.tgz:4092.got - 2010.06.03 18:57:09.
