data_PCOD9508065
_publ_section_title
;
Structure prediction by ZEFSAII (Michael W. Deem and Ramdas Pophale) SiO2 
 PCOD9508065
Probable space group: C C C A
;
_chemical_formula_sum "Si O2"
_cell_formula_units_Z 40
_cell_length_a 10.135082
_cell_length_b 14.392291
_cell_length_c 11.855131
_cell_angle_alpha 90.000000
_cell_angle_beta 90.000000
_cell_angle_gamma 90.000000
_cell_volume 1729.272980
_symmetry_space_group_name_H-M "C C C A"
_symmetry_group_IT_number 68
_space_group.IT_coordinate_system_code '2'
_symmetry_cell_setting 'orthorhombic'
loop_
_space_group_symop_operation_xyz
x,y,z
-x,1/2-y,z
x,1/2-y,1/2-z
-x,y,1/2-z
-x,-y,-z
x,1/2+y,-z
-x,1/2+y,1/2+z
x,-y,1/2+z
1/2+x,1/2+y,z
1/2-x,-y,z
1/2+x,-y,1/2-z
1/2-x,1/2+y,1/2-z
1/2-x,1/2-y,-z
1/2+x,y,-z
1/2-x,y,1/2+z
1/2+x,1/2-y,1/2+z
loop_
_atom_site_type_symbol
_atom_site_label
_atom_site_fract_x
_atom_site_fract_y
_atom_site_fract_z
Si Si1 0.712716 0.750000 0.250000
Si Si2 0.879389 0.811509 0.523846
Si Si3 0.629466 0.429336 0.173632
O O1 0.624674 0.693686 0.340833
O O2 0.810901 0.670429 0.206605
O O3 0.750000 0.750000 0.500000
O O4 0.891218 0.910117 0.461108
O O5 0.000000 0.750000 0.482047
O O6 0.500000 0.449075 0.250000
O O7 0.750000 0.500000 0.189685
#
# Coordination Sequence:
#
# PCOD9508065 Si02
#       3
#     8  16  16
#     4  10  22  44  70  98 134 184 236 290 348 414
#     4  10  21  40  67  95 130 179 229 282 344 406
#     4  11  24  43  68 102 142 186 233 286 345 415
#
# _framework density 23.131108000000001
#
# number of rings (size 3 to 8) (size 9 to 14) (size 15 to 20)
#    0.000    1.600    0.000    6.000    0.000    8.000 
#    0.000   12.000    0.000    0.000    0.000    2.800 
#    0.000    0.000    0.000    0.000    0.000    0.000 
#
# Total GULP energy -111392.172857 kJ/mol
# GULP energy per Si atom -5569.608643 kJ/mol
# Density = 2.307846 g / cm^3
# Si number density = 23.131108 Si / 1000 Ang^3
#
#
#
# Elastic Constant Matrix: (Units=GPa)
#
#
# Indices 1 2 3 4 5 6 
#
# 1 180.7322 57.2216 59.6203 0.0000 0.0000 0.0000
# 2 57.2216 97.9145 34.6466 0.0000 0.0000 0.0000
# 3 59.6203 34.6466 133.1961 0.0000 0.0000 0.0000
# 4 0.0000 0.0000 0.0000 2.8047 0.0000 0.0000
# 5 0.0000 0.0000 0.0000 0.0000 26.2337 0.0000
# 6 0.0000 0.0000 0.0000 0.0000 0.0000 43.1176
#
#
#
# Elastic Compliance Matrix: (Units=1/GPa)
#
#
# Indices 1 2 3 4 5 6 
#
# 1 0.007436 -0.003489 -0.002421 0.000000 0.000000 0.000000
# 2 -0.003489 0.012885 -0.001790 0.000000 0.000000 0.000000
# 3 -0.002421 -0.001790 0.009057 0.000000 0.000000 0.000000
# 4 0.000000 0.000000 0.000000 0.356543 0.000000 0.000000
# 5 0.000000 0.000000 0.000000 0.000000 0.038119 0.000000
# 6 0.000000 0.000000 0.000000 0.000000 0.000000 0.023192
#
#
# Mechanical properties :
#
#
# Convention : Reuss Voigt Hill
#
# Bulk Modulus (GPa) = 71.53813 79.42445 75.48129
# Shear Modulus (GPa) = 10.69992 31.78815 21.24403
#
# Velocity S-wave (km/s) = 2.15309 3.71112 3.03383
# Velocity P-wave (km/s) = 6.09717 7.26460 6.70634
#
# Compressibility (1/GPa) = 0.01397856
#
# Stress axis : x y z
#
# Youngs Moduli (GPa) = 134.47331 77.60695 110.41175
#
# Poissons Ratio (x) = 0.27079 0.26731
# Poissons Ratio (y) = 0.46920 0.19763
# Poissons Ratio (z) = 0.32557 0.13891
#
# Static dielectric constant tensor:
#      x y z
#    x 1.903370 0.000000 0.000000 
#    y 0.000000 1.771080 0.000000 
#    z 0.000000 0.000000 2.267530 
# 
# From -- ./inp_files/11112.got.cif
#   From: 2010.05.17/outbox.cif.g08.bks.cpg/sg68_6_cif.got.tgz:11112.got - 2010.06.03 18:57:09.
