data_PCOD9508480
_publ_section_title
;
Structure prediction by ZEFSAII (Michael W. Deem and Ramdas Pophale) SiO2 
 PCOD9508480
Probable space group: C C C A
;
_chemical_formula_sum "Si O2"
_cell_formula_units_Z 64
_cell_length_a 16.181516
_cell_length_b 17.276939
_cell_length_c 9.378891
_cell_angle_alpha 90.000000
_cell_angle_beta 90.000000
_cell_angle_gamma 90.000000
_cell_volume 2622.029029
_symmetry_space_group_name_H-M "C C C A"
_symmetry_group_IT_number 68
_space_group.IT_coordinate_system_code '2'
_symmetry_cell_setting 'orthorhombic'
loop_
_space_group_symop_operation_xyz
x,y,z
-x,1/2-y,z
x,1/2-y,1/2-z
-x,y,1/2-z
-x,-y,-z
x,1/2+y,-z
-x,1/2+y,1/2+z
x,-y,1/2+z
1/2+x,1/2+y,z
1/2-x,-y,z
1/2+x,-y,1/2-z
1/2-x,1/2+y,1/2-z
1/2-x,1/2-y,-z
1/2+x,y,-z
1/2-x,y,1/2+z
1/2+x,1/2-y,1/2+z
loop_
_atom_site_type_symbol
_atom_site_label
_atom_site_fract_x
_atom_site_fract_y
_atom_site_fract_z
Si Si1 0.747537 0.750000 0.250000
Si Si2 0.828915 0.654242 0.006658
Si Si3 0.424264 0.051703 0.350365
Si Si4 0.496480 0.879991 0.408879
Si Si5 0.750000 0.500000 0.387239
O O1 0.798925 0.807904 0.348404
O O2 0.697263 0.798443 0.134151
O O3 0.927444 0.660332 0.001955
O O4 0.789454 0.569487 0.980214
O O5 0.500000 0.080419 0.250000
O O6 0.423589 0.104203 0.494064
O O7 0.329775 0.035792 0.304050
O O8 0.457468 0.965644 0.386041
O O9 0.500000 0.846645 0.250000
#
# Coordination Sequence:
#
# PCOD9508480 Si02
#       5
#     8  16  16  16   8
#     4  10  24  44  63  93 150 188 240 302 375 441
#     4  10  23  42  68  96 138 191 246 304 365 440
#     4   9  19  36  59 100 143 169 228 308 357 420
#     4   9  19  37  60  93 134 171 222 306 357 416
#     4  10  22  38  74 108 130 198 246 300 378 418
#
# _framework density 24.408577999999999
#
# number of rings (size 3 to 8) (size 9 to 14) (size 15 to 20)
#    0.000    2.500    0.000    0.000    7.000    1.000 
#    0.000    0.625    0.000    1.500    0.000    0.000 
#    0.000    0.000    0.000    0.000    0.000    0.000 
#
# Total GULP energy -178459.941874 kJ/mol
# GULP energy per Si atom -5576.873184 kJ/mol
# Density = 2.435302 g / cm^3
# Si number density = 24.408578 Si / 1000 Ang^3
#
#
#
# Elastic Constant Matrix: (Units=GPa)
#
#
# Indices 1 2 3 4 5 6 
#
# 1 148.2179 14.4573 59.7805 0.0000 0.0000 0.0000
# 2 14.4573 76.7866 39.5169 0.0000 0.0000 0.0000
# 3 59.7805 39.5169 129.1258 0.0000 0.0000 0.0000
# 4 0.0000 0.0000 0.0000 30.7599 0.0000 0.0000
# 5 0.0000 0.0000 0.0000 0.0000 90.7974 0.0000
# 6 0.0000 0.0000 0.0000 0.0000 0.0000 9.0861
#
#
#
# Elastic Compliance Matrix: (Units=1/GPa)
#
#
# Indices 1 2 3 4 5 6 
#
# 1 0.008312 0.000493 -0.003999 0.000000 0.000000 0.000000
# 2 0.000493 0.015487 -0.004968 0.000000 0.000000 0.000000
# 3 -0.003999 -0.004968 0.011116 0.000000 0.000000 0.000000
# 4 0.000000 0.000000 0.000000 0.032510 0.000000 0.000000
# 5 0.000000 0.000000 0.000000 0.000000 0.011014 0.000000
# 6 0.000000 0.000000 0.000000 0.000000 0.000000 0.110058
#
#
# Mechanical properties :
#
#
# Convention : Reuss Voigt Hill
#
# Bulk Modulus (GPa) = 55.65663 64.62663 60.14163
# Shear Modulus (GPa) = 23.64822 42.15372 32.90097
#
# Velocity S-wave (km/s) = 3.11601 4.16023 3.67539
# Velocity P-wave (km/s) = 5.98311 7.04352 6.53486
#
# Compressibility (1/GPa) = 0.01796731
#
# Stress axis : x y z
#
# Youngs Moduli (GPa) = 120.31407 64.57087 89.96034
#
# Poissons Ratio (x) = -0.03184 0.35974
# Poissons Ratio (y) = -0.05932 0.44690
# Poissons Ratio (z) = 0.48112 0.32077
#
# Static dielectric constant tensor:
#      x y z
#    x 1.976690 0.000000 0.000000 
#    y 0.000000 1.975100 0.000000 
#    z 0.000000 0.000000 2.034620 
# 
# From -- ./inp_files/5854.got.cif
#   From: 2010.05.17/outbox.cif.g08.bks.cpg/sg68_3_cif.got.tgz:5854.got - 2010.06.03 18:57:09.
