data_PCOD9508364
_publ_section_title
;
Structure prediction by ZEFSAII (Michael W. Deem and Ramdas Pophale) SiO2 
 PCOD9508364
Probable space group: C C C A
;
_chemical_formula_sum "Si O2"
_cell_formula_units_Z 52
_cell_length_a 5.543630
_cell_length_b 25.217139
_cell_length_c 17.812505
_cell_angle_alpha 90.000000
_cell_angle_beta 90.000000
_cell_angle_gamma 90.000000
_cell_volume 2490.090021
_symmetry_space_group_name_H-M "C C C A"
_symmetry_group_IT_number 68
_space_group.IT_coordinate_system_code '2'
_symmetry_cell_setting 'orthorhombic'
loop_
_space_group_symop_operation_xyz
x,y,z
-x,1/2-y,z
x,1/2-y,1/2-z
-x,y,1/2-z
-x,-y,-z
x,1/2+y,-z
-x,1/2+y,1/2+z
x,-y,1/2+z
1/2+x,1/2+y,z
1/2-x,-y,z
1/2+x,-y,1/2-z
1/2-x,1/2+y,1/2-z
1/2-x,1/2-y,-z
1/2+x,y,-z
1/2-x,y,1/2+z
1/2+x,1/2-y,1/2+z
loop_
_atom_site_type_symbol
_atom_site_label
_atom_site_fract_x
_atom_site_fract_y
_atom_site_fract_z
Si Si1 0.750000 0.000000 0.625410
Si Si2 0.805456 0.839088 0.696500
Si Si3 0.000000 0.566640 0.250000
Si Si4 0.080254 0.396728 0.044745
Si Si5 0.000000 0.750000 0.250000
O O1 0.946550 0.029354 0.678905
O O2 0.613543 0.043565 0.576222
O O3 0.718395 0.891337 0.743479
O O4 0.893552 0.858849 0.616686
O O5 0.609804 0.793326 0.692311
O O6 0.000000 0.813119 0.750000
O O7 0.319738 0.389064 0.993414
#
# Coordination Sequence:
#
# PCOD9508364 Si02
#       5
#     8  16   8  16   4
#     4  10  22  36  64  92 140 184 236 266 324 390
#     4  10  23  43  71  95 132 168 229 285 340 403
#     4   9  22  35  60 100 126 177 230 277 316 378
#     4  11  26  43  64  97 143 183 221 274 336 400
#     4  10  22  44  76 102 112 168 228 290 346 410
#
# _framework density 20.882781000000001
#
# number of rings (size 3 to 8) (size 9 to 14) (size 15 to 20)
#    0.000    1.846    0.000    1.385   21.538    0.000 
#    0.000    1.538    0.000    0.000    0.000    0.000 
#    0.000    0.000    0.000    0.000    0.000    0.000 
#
# Total GULP energy -144838.251250 kJ/mol
# GULP energy per Si atom -5570.701971 kJ/mol
# Density = 2.083525 g / cm^3
# Si number density = 20.882781 Si / 1000 Ang^3
#
#
#
# Elastic Constant Matrix: (Units=GPa)
#
#
# Indices 1 2 3 4 5 6 
#
# 1 57.9875 16.2729 30.0079 0.0000 0.0000 0.0000
# 2 16.2729 113.8912 43.9163 0.0000 0.0000 0.0000
# 3 30.0079 43.9163 85.8037 0.0000 0.0000 0.0000
# 4 0.0000 0.0000 0.0000 23.4846 0.0000 0.0000
# 5 0.0000 0.0000 0.0000 0.0000 38.8825 0.0000
# 6 0.0000 0.0000 0.0000 0.0000 0.0000 -9.4397
#
#
#
# Elastic Compliance Matrix: (Units=1/GPa)
#
#
# Indices 1 2 3 4 5 6 
#
# 1 0.021060 -0.000211 -0.007257 0.000000 0.000000 0.000000
# 2 -0.000211 0.010941 -0.005526 0.000000 0.000000 0.000000
# 3 -0.007257 -0.005526 0.017021 0.000000 0.000000 0.000000
# 4 0.000000 0.000000 0.000000 0.042581 0.000000 0.000000
# 5 0.000000 0.000000 0.000000 0.000000 0.025719 0.000000
# 6 0.000000 0.000000 0.000000 0.000000 0.000000 -0.105936
#
#
# Mechanical properties :
#
#
# Convention : Reuss Voigt Hill
#
# Bulk Modulus (GPa) = 43.41493 48.67517 46.04505
# Shear Modulus (GPa) = 110.98033 21.75117 66.36575
#
# Velocity S-wave (km/s) = 7.29793 3.23086 5.64350
# Velocity P-wave (km/s) = 9.58374 6.10551 8.03509
#
# Compressibility (1/GPa) = 0.02303355
#
# Stress axis : x y z
#
# Youngs Moduli (GPa) = 47.48383 91.39617 58.75041
#
# Poissons Ratio (x) = 0.01925 0.42637
# Poissons Ratio (y) = 0.01000 0.32468
# Poissons Ratio (z) = 0.34461 0.50509
#
# Static dielectric constant tensor:
#      x y z
#    x 2.326350 0.000000 0.000000 
#    y 0.000000 1.712810 0.000000 
#    z 0.000000 0.000000 1.750850 
# 
# From -- ./inp_files/18381.got.cif
#   From: 2010.05.17/outbox.cif.g08.bks.cpg/sg68_10_cif.got.tgz:18381.got - 2010.06.03 18:57:09.
