data_PCOD9508775
_publ_section_title
;
Structure prediction by ZEFSAII (Michael W. Deem and Ramdas Pophale) SiO2 
 PCOD9508775
Probable space group: C C C A
;
_chemical_formula_sum "Si O2"
_cell_formula_units_Z 96
_cell_length_a 19.609074
_cell_length_b 21.677747
_cell_length_c 11.230569
_cell_angle_alpha 90.000000
_cell_angle_beta 90.000000
_cell_angle_gamma 90.000000
_cell_volume 4773.896392
_symmetry_space_group_name_H-M "C C C A"
_symmetry_group_IT_number 68
_space_group.IT_coordinate_system_code '2'
_symmetry_cell_setting 'orthorhombic'
loop_
_space_group_symop_operation_xyz
x,y,z
-x,1/2-y,z
x,1/2-y,1/2-z
-x,y,1/2-z
-x,-y,-z
x,1/2+y,-z
-x,1/2+y,1/2+z
x,-y,1/2+z
1/2+x,1/2+y,z
1/2-x,-y,z
1/2+x,-y,1/2-z
1/2-x,1/2+y,1/2-z
1/2-x,1/2-y,-z
1/2+x,y,-z
1/2-x,y,1/2+z
1/2+x,1/2-y,1/2+z
loop_
_atom_site_type_symbol
_atom_site_label
_atom_site_fract_x
_atom_site_fract_y
_atom_site_fract_z
Si Si1 0.500000 0.750000 0.054097
Si Si2 0.500000 0.043496 0.250000
Si Si3 0.216114 0.367664 0.914222
Si Si4 0.101153 0.750000 0.750000
Si Si5 0.940818 0.624299 0.046251
Si Si6 0.250000 0.500000 0.497042
Si Si7 0.622476 0.466600 0.853438
Si Si8 0.707043 0.348688 0.816685
O O1 0.444361 0.777763 0.145382
O O2 0.528420 0.809066 0.985274
O O3 0.487481 0.087162 0.137363
O O4 0.569210 0.003955 0.227146
O O5 0.134905 0.363637 0.904146
O O6 0.247389 0.336122 0.798570
O O7 0.236237 0.439624 0.919621
O O8 0.236549 0.346005 0.048770
O O9 0.146440 0.800503 0.812773
O O10 0.924904 0.576208 0.938949
O O11 0.320486 0.506863 0.574374
O O12 0.672510 0.415553 0.796784
#
# Coordination Sequence:
#
# PCOD9508775 Si02
#       8
#     8   8  16   8  16   8  16  16
#     4  11  22  45  68  86 134 177 236 275 336 409
#     4  12  26  37  66  95 144 170 226 282 344 414
#     4  10  22  42  64 100 130 169 222 274 340 410
#     4  11  22  42  70  90 118 177 228 290 326 401
#     4  10  24  44  61  98 134 179 226 278 346 409
#     4   8  20  38  64  86 138 172 212 266 350 406
#     4  10  23  41  62 102 128 177 223 280 338 418
#     4  10  23  40  66  98 129 168 226 278 344 401
#
# _framework density 20.109359999999999
#
# number of rings (size 3 to 8) (size 9 to 14) (size 15 to 20)
#    0.000    2.167    3.333    0.500   11.667    3.000 
#    0.000    0.000    0.000    0.000    0.000    0.000 
#    0.000    0.000    0.000    0.000    0.000    0.000 
#
# Total GULP energy -267402.328708 kJ/mol
# GULP energy per Si atom -5570.881848 kJ/mol
# Density = 2.006359 g / cm^3
# Si number density = 20.109360 Si / 1000 Ang^3
#
#
#
# Elastic Constant Matrix: (Units=GPa)
#
#
# Indices 1 2 3 4 5 6 
#
# 1 52.6052 22.0505 25.6598 0.0000 0.0000 0.0000
# 2 22.0505 49.9193 16.5532 0.0000 0.0000 0.0000
# 3 25.6598 16.5532 82.2628 0.0000 0.0000 0.0000
# 4 0.0000 0.0000 0.0000 15.7641 0.0000 0.0000
# 5 0.0000 0.0000 0.0000 0.0000 16.1076 0.0000
# 6 0.0000 0.0000 0.0000 0.0000 0.0000 2.0223
#
#
#
# Elastic Compliance Matrix: (Units=1/GPa)
#
#
# Indices 1 2 3 4 5 6 
#
# 1 0.025987 -0.009420 -0.006211 0.000000 0.000000 0.000000
# 2 -0.009420 0.024879 -0.002068 0.000000 0.000000 0.000000
# 3 -0.006211 -0.002068 0.014510 0.000000 0.000000 0.000000
# 4 0.000000 0.000000 0.000000 0.063435 0.000000 0.000000
# 5 0.000000 0.000000 0.000000 0.000000 0.062083 0.000000
# 6 0.000000 0.000000 0.000000 0.000000 0.000000 0.494491
#
#
# Mechanical properties :
#
#
# Convention : Reuss Voigt Hill
#
# Bulk Modulus (GPa) = 33.35648 34.81268 34.08458
# Shear Modulus (GPa) = 6.84205 14.81372 10.82789
#
# Velocity S-wave (km/s) = 1.84657 2.71709 2.32297
# Velocity P-wave (km/s) = 4.60108 5.21466 4.91745
#
# Compressibility (1/GPa) = 0.02997918
#
# Stress axis : x y z
#
# Youngs Moduli (GPa) = 38.48012 40.19455 68.92018
#
# Poissons Ratio (x) = 0.37862 0.42804
# Poissons Ratio (y) = 0.36247 0.14253
# Poissons Ratio (z) = 0.23899 0.08312
#
# Static dielectric constant tensor:
#      x y z
#    x 1.739070 0.000000 0.000000 
#    y 0.000000 1.651690 0.000000 
#    z 0.000000 0.000000 1.742440 
# 
# From -- ./inp_files/14696.got.cif
#   From: 2010.05.17/outbox.cif.g08.bks.cpg/sg68_8_cif.got.tgz:14696.got - 2010.06.03 18:57:09.
