data_PCOD9508108
_publ_section_title
;
Structure prediction by ZEFSAII (Michael W. Deem and Ramdas Pophale) SiO2 
 PCOD9508108
Probable space group: C C C A
;
_chemical_formula_sum "Si O2"
_cell_formula_units_Z 60
_cell_length_a 19.738223
_cell_length_b 5.390623
_cell_length_c 26.515609
_cell_angle_alpha 90.000000
_cell_angle_beta 90.000000
_cell_angle_gamma 90.000000
_cell_volume 2821.295769
_symmetry_space_group_name_H-M "C C C A"
_symmetry_group_IT_number 68
_space_group.IT_coordinate_system_code '2'
_symmetry_cell_setting 'orthorhombic'
loop_
_space_group_symop_operation_xyz
x,y,z
-x,1/2-y,z
x,1/2-y,1/2-z
-x,y,1/2-z
-x,-y,-z
x,1/2+y,-z
-x,1/2+y,1/2+z
x,-y,1/2+z
1/2+x,1/2+y,z
1/2-x,-y,z
1/2+x,-y,1/2-z
1/2-x,1/2+y,1/2-z
1/2-x,1/2-y,-z
1/2+x,y,-z
1/2-x,y,1/2+z
1/2+x,1/2-y,1/2+z
loop_
_atom_site_type_symbol
_atom_site_label
_atom_site_fract_x
_atom_site_fract_y
_atom_site_fract_z
Si Si1 0.000000 0.750000 0.250000
Si Si2 0.651999 0.746562 0.033479
Si Si3 0.289150 0.749928 0.358968
Si Si4 0.430254 0.645072 0.193256
Si Si5 0.500000 0.250000 0.966920
O O1 0.052306 0.634368 0.208783
O O2 0.702078 0.743727 0.080501
O O3 0.659546 0.497319 0.999781
O O4 0.575077 0.749172 0.056421
O O5 0.250000 0.500000 0.343141
O O6 0.363433 0.780480 0.335343
O O7 0.250000 0.000000 0.344738
O O8 0.500000 0.750000 0.169678
O O9 0.426352 0.750000 0.250000
O O10 0.500000 0.500000 0.000000
#
# Coordination Sequence:
#
# PCOD9508108 Si02
#       5
#     4  16  16  16   8
#     4   8  18  44  78 102 120 176 232 266 366 392
#     4  10  21  41  63  89 131 177 225 275 325 388
#     4  12  28  42  64 104 139 180 227 269 340 401
#     4   9  22  44  73  98 131 173 222 279 340 409
#     4   8  16  32  57  86 111 154 221 273 318 364
#
# _framework density 21.266824
#
# number of rings (size 3 to 8) (size 9 to 14) (size 15 to 20)
#    0.000    2.400    0.000    1.600    9.333    4.267 
#    0.000    1.333    0.000    0.000    0.000    0.000 
#    0.000    0.000    0.000    0.000    0.000    0.000 
#
# Total GULP energy -167013.108491 kJ/mol
# GULP energy per Si atom -5567.103616 kJ/mol
# Density = 2.121842 g / cm^3
# Si number density = 21.266824 Si / 1000 Ang^3
#
#
#
# Elastic Constant Matrix: (Units=GPa)
#
#
# Indices 1 2 3 4 5 6 
#
# 1 164.2872 72.7458 47.5375 0.0000 0.0000 0.0000
# 2 72.7458 148.1132 29.6638 0.0000 0.0000 0.0000
# 3 47.5375 29.6638 56.4046 0.0000 0.0000 0.0000
# 4 0.0000 0.0000 0.0000 8.3285 0.0000 0.0000
# 5 0.0000 0.0000 0.0000 0.0000 22.8113 0.0000
# 6 0.0000 0.0000 0.0000 0.0000 0.0000 52.8889
#
#
#
# Elastic Compliance Matrix: (Units=1/GPa)
#
#
# Indices 1 2 3 4 5 6 
#
# 1 0.009344 -0.003367 -0.006105 0.000000 0.000000 0.000000
# 2 -0.003367 0.008760 -0.001769 0.000000 0.000000 0.000000
# 3 -0.006105 -0.001769 0.023804 0.000000 0.000000 0.000000
# 4 0.000000 0.000000 0.000000 0.120070 0.000000 0.000000
# 5 0.000000 0.000000 0.000000 0.000000 0.043838 0.000000
# 6 0.000000 0.000000 0.000000 0.000000 0.000000 0.018908
#
#
# Mechanical properties :
#
#
# Convention : Reuss Voigt Hill
#
# Bulk Modulus (GPa) = 51.47495 74.29992 62.88743
# Shear Modulus (GPa) = 19.70984 31.39625 25.55305
#
# Velocity S-wave (km/s) = 3.04762 3.84644 3.47009
# Velocity P-wave (km/s) = 6.05317 7.39862 6.75946
#
# Compressibility (1/GPa) = 0.01942693
#
# Stress axis : x y z
#
# Youngs Moduli (GPa) = 107.01981 114.16174 42.00905
#
# Poissons Ratio (x) = 0.38435 0.25645
# Poissons Ratio (y) = 0.36031 0.07432
# Poissons Ratio (z) = 0.65331 0.20198
#
# Static dielectric constant tensor:
#      x y z
#    x 1.843100 0.000000 0.000000 
#    y 0.000000 1.390770 0.000000 
#    z 0.000000 0.000000 1.730150 
# 
# From -- ./inp_files/42047.got.cif
#   From: 2010.05.17/outbox.cif.g08.bks.cpg/sg68_22_cif.got.tgz:42047.got - 2010.06.03 18:57:09.
