data_PCOD9508009
_publ_section_title
;
Structure prediction by ZEFSAII (Michael W. Deem and Ramdas Pophale) SiO2 
 PCOD9508009
Probable space group: C C C A
;
_chemical_formula_sum "Si O2"
_cell_formula_units_Z 96
_cell_length_a 14.002913
_cell_length_b 20.434176
_cell_length_c 14.503508
_cell_angle_alpha 90.000000
_cell_angle_beta 90.000000
_cell_angle_gamma 90.000000
_cell_volume 4150.004609
_symmetry_space_group_name_H-M "C C C A"
_symmetry_group_IT_number 68
_space_group.IT_coordinate_system_code '2'
_symmetry_cell_setting 'orthorhombic'
loop_
_space_group_symop_operation_xyz
x,y,z
-x,1/2-y,z
x,1/2-y,1/2-z
-x,y,1/2-z
-x,-y,-z
x,1/2+y,-z
-x,1/2+y,1/2+z
x,-y,1/2+z
1/2+x,1/2+y,z
1/2-x,-y,z
1/2+x,-y,1/2-z
1/2-x,1/2+y,1/2-z
1/2-x,1/2-y,-z
1/2+x,y,-z
1/2-x,y,1/2+z
1/2+x,1/2-y,1/2+z
loop_
_atom_site_type_symbol
_atom_site_label
_atom_site_fract_x
_atom_site_fract_y
_atom_site_fract_z
Si Si1 0.152341 0.974910 0.589939
Si Si2 0.177138 0.441920 0.224188
Si Si3 0.110765 0.767231 0.922152
Si Si4 0.421840 0.592908 0.029564
Si Si5 0.133149 0.135185 0.976787
Si Si6 0.281050 0.685771 0.704053
O O1 0.107305 0.953152 0.687740
O O2 0.196351 0.922912 0.516271
O O3 0.250000 0.000000 0.634636
O O4 0.101720 0.034333 0.539259
O O5 0.250000 0.500000 0.193506
O O6 0.116711 0.424556 0.131600
O O7 0.238686 0.377468 0.255464
O O8 0.112708 0.832117 0.986042
O O9 0.185999 0.783657 0.843338
O O10 0.000000 0.750000 0.895574
O O11 0.147398 0.703537 0.973558
O O12 0.535140 0.603566 0.015205
O O13 0.149122 0.152213 0.871132
O O14 0.327174 0.750000 0.750000
#
# Coordination Sequence:
#
# PCOD9508009 Si02
#       6
#    16  16  16  16  16  16
#     4  11  22  38  63  91 124 167 213 268 329 386
#     4  10  22  39  62  93 124 163 217 270 326 390
#     4   9  20  38  63  90 118 158 210 264 321 378
#     4  10  21  40  63  90 127 165 210 268 322 388
#     4  11  22  38  63  91 123 168 210 258 326 388
#     4  11  22  37  60  92 129 167 211 265 318 387
#
# _framework density 23.132504999999998
#
# number of rings (size 3 to 8) (size 9 to 14) (size 15 to 20)
#    0.000    1.667    0.000    5.500    0.000    3.667 
#    0.000    6.667    0.000   22.500    0.000    0.000 
#    0.000    0.000    0.000    0.000    0.000    0.000 
#
# Total GULP energy -267254.390541 kJ/mol
# GULP energy per Si atom -5567.799803 kJ/mol
# Density = 2.307985 g / cm^3
# Si number density = 23.132505 Si / 1000 Ang^3
#
#
#
# Elastic Constant Matrix: (Units=GPa)
#
#
# Indices 1 2 3 4 5 6 
#
# 1 34.8673 17.6920 23.6221 0.0000 0.0000 0.0000
# 2 17.6920 164.5361 61.7696 0.0000 0.0000 0.0000
# 3 23.6221 61.7696 114.9751 0.0000 0.0000 0.0000
# 4 0.0000 0.0000 0.0000 128.7827 0.0000 0.0000
# 5 0.0000 0.0000 0.0000 0.0000 12.5784 0.0000
# 6 0.0000 0.0000 0.0000 0.0000 0.0000 22.0927
#
#
#
# Elastic Compliance Matrix: (Units=1/GPa)
#
#
# Indices 1 2 3 4 5 6 
#
# 1 0.033531 -0.001277 -0.006203 0.000000 0.000000 0.000000
# 2 -0.001277 0.007662 -0.003854 0.000000 0.000000 0.000000
# 3 -0.006203 -0.003854 0.012043 0.000000 0.000000 0.000000
# 4 0.000000 0.000000 0.000000 0.007765 0.000000 0.000000
# 5 0.000000 0.000000 0.000000 0.000000 0.079502 0.000000
# 6 0.000000 0.000000 0.000000 0.000000 0.000000 0.045264
#
#
# Mechanical properties :
#
#
# Convention : Reuss Voigt Hill
#
# Bulk Modulus (GPa) = 32.71464 57.83843 45.27654
# Shear Modulus (GPa) = 22.87054 46.77706 34.82380
#
# Velocity S-wave (km/s) = 3.14773 4.50169 3.88416
# Velocity P-wave (km/s) = 5.23297 7.21649 6.30324
#
# Compressibility (1/GPa) = 0.03056735
#
# Stress axis : x y z
#
# Youngs Moduli (GPa) = 29.82359 130.51753 83.03923
#
# Poissons Ratio (x) = 0.16663 0.51510
# Poissons Ratio (y) = 0.03807 0.32003
# Poissons Ratio (z) = 0.18500 0.50301
#
# Static dielectric constant tensor:
#      x y z
#    x 4.283010 0.000000 0.000000 
#    y 0.000000 3.759280 0.000000 
#    z 0.000000 0.000000 1.905840 
# 
# From -- ./inp_files/22379.got.cif
#   From: 2010.05.17/outbox.cif.g08.bks.cpg/sg68_12_cif.got.tgz:22379.got - 2010.06.03 18:57:09.
