data_PCOD9508922
_publ_section_title
;
Structure prediction by ZEFSAII (Michael W. Deem and Ramdas Pophale) SiO2 
 PCOD9508922
Probable space group: C C C A
;
_chemical_formula_sum "Si O2"
_cell_formula_units_Z 116
_cell_length_a 26.983895
_cell_length_b 9.777600
_cell_length_c 18.259353
_cell_angle_alpha 90.000000
_cell_angle_beta 90.000000
_cell_angle_gamma 90.000000
_cell_volume 4817.506279
_symmetry_space_group_name_H-M "C C C A"
_symmetry_group_IT_number 68
_space_group.IT_coordinate_system_code '2'
_symmetry_cell_setting 'orthorhombic'
loop_
_space_group_symop_operation_xyz
x,y,z
-x,1/2-y,z
x,1/2-y,1/2-z
-x,y,1/2-z
-x,-y,-z
x,1/2+y,-z
-x,1/2+y,1/2+z
x,-y,1/2+z
1/2+x,1/2+y,z
1/2-x,-y,z
1/2+x,-y,1/2-z
1/2-x,1/2+y,1/2-z
1/2-x,1/2-y,-z
1/2+x,y,-z
1/2-x,y,1/2+z
1/2+x,1/2-y,1/2+z
loop_
_atom_site_type_symbol
_atom_site_label
_atom_site_fract_x
_atom_site_fract_y
_atom_site_fract_z
Si Si1 0.646806 0.804575 0.133726
Si Si2 0.500000 0.750000 0.250000
Si Si3 0.691453 0.004994 0.351620
Si Si4 0.096442 0.833516 0.510054
Si Si5 0.617517 0.041405 0.243500
Si Si6 0.540215 0.540040 0.138388
Si Si7 0.955157 0.659929 0.364274
Si Si8 0.690891 0.979630 0.012882
O O1 0.668025 0.651143 0.148944
O O2 0.606187 0.783609 0.069756
O O3 0.627352 0.897138 0.200236
O O4 0.685833 0.890424 0.085891
O O5 0.533520 0.666287 0.193712
O O6 0.668604 0.078718 0.281811
O O7 0.750000 0.000000 0.345138
O O8 0.678566 0.073016 0.430141
O O9 0.064799 0.937755 0.559939
O O10 0.063552 0.789234 0.442192
O O11 0.149274 0.898517 0.483558
O O12 0.579308 0.041944 0.311760
O O13 0.592305 0.138098 0.184978
O O14 0.484971 0.482504 0.129347
O O15 0.000000 0.750000 0.334301
O O16 0.750000 0.000000 0.007132
#
# Coordination Sequence:
#
# PCOD9508922 Si02
#       8
#    16   4  16  16  16  16  16  16
#     4  11  23  43  79 102 143 184 250 296 361 428
#     4  12  24  40  74 104 128 180 250 306 364 432
#     4  10  24  43  75 110 147 186 240 311 373 438
#     4  11  25  43  69 104 137 187 241 304 359 419
#     4  12  23  47  73 101 144 190 249 296 363 444
#     4  12  25  43  70 102 137 183 245 300 366 427
#     4  12  29  46  68 102 151 192 236 297 374 451
#     4  10  22  43  71 106 143 184 235 295 360 434
#
# _framework density 24.078847
#
# number of rings (size 3 to 8) (size 9 to 14) (size 15 to 20)
#    0.000    0.828    5.517    1.655    2.897    6.621 
#    0.000    0.000   12.138    0.000    0.000    0.000 
#    0.000    0.000    0.000    0.000    0.000    0.000 
#
# Total GULP energy -323687.165533 kJ/mol
# GULP energy per Si atom -5580.813199 kJ/mol
# Density = 2.402404 g / cm^3
# Si number density = 24.078847 Si / 1000 Ang^3
#
#
#
# Elastic Constant Matrix: (Units=GPa)
#
#
# Indices 1 2 3 4 5 6 
#
# 1 105.3693 18.8503 46.2403 0.0000 0.0000 0.0000
# 2 18.8503 51.7759 11.0995 0.0000 0.0000 0.0000
# 3 46.2403 11.0995 103.9006 0.0000 0.0000 0.0000
# 4 0.0000 0.0000 0.0000 13.8854 0.0000 0.0000
# 5 0.0000 0.0000 0.0000 0.0000 32.4339 0.0000
# 6 0.0000 0.0000 0.0000 0.0000 0.0000 21.0342
#
#
#
# Elastic Compliance Matrix: (Units=1/GPa)
#
#
# Indices 1 2 3 4 5 6 
#
# 1 0.012351 -0.003396 -0.005134 0.000000 0.000000 0.000000
# 2 -0.003396 0.020700 -0.000700 0.000000 0.000000 0.000000
# 3 -0.005134 -0.000700 0.011984 0.000000 0.000000 0.000000
# 4 0.000000 0.000000 0.000000 0.072018 0.000000 0.000000
# 5 0.000000 0.000000 0.000000 0.000000 0.030832 0.000000
# 6 0.000000 0.000000 0.000000 0.000000 0.000000 0.047542
#
#
# Mechanical properties :
#
#
# Convention : Reuss Voigt Hill
#
# Bulk Modulus (GPa) = 37.62843 45.93622 41.78232
# Shear Modulus (GPa) = 22.44711 25.79442 24.12076
#
# Velocity S-wave (km/s) = 3.05656 3.27654 3.16846
# Velocity P-wave (km/s) = 5.30263 5.78214 5.54757
#
# Compressibility (1/GPa) = 0.02657565
#
# Stress axis : x y z
#
# Youngs Moduli (GPa) = 80.96542 48.30801 83.44339
#
# Poissons Ratio (x) = 0.16406 0.42839
# Poissons Ratio (y) = 0.27497 0.05841
# Poissons Ratio (z) = 0.41567 0.03381
#
# Static dielectric constant tensor:
#      x y z
#    x 1.939100 0.000000 0.000000 
#    y 0.000000 2.138710 0.000000 
#    z 0.000000 0.000000 1.888460 
# 
# From -- ./inp_files/34161.got.cif
#   From: 2010.05.17/outbox.cif.g08.bks.cpg/sg68_18_cif.got.tgz:34161.got - 2010.06.03 18:57:09.
