data_PCOD9508363
_publ_section_title
;
Structure prediction by ZEFSAII (Michael W. Deem and Ramdas Pophale) SiO2 
 PCOD9508363
Probable space group: C C C A
;
_chemical_formula_sum "Si O2"
_cell_formula_units_Z 104
_cell_length_a 9.239112
_cell_length_b 20.366195
_cell_length_c 26.855742
_cell_angle_alpha 90.000000
_cell_angle_beta 90.000000
_cell_angle_gamma 90.000000
_cell_volume 5053.325642
_symmetry_space_group_name_H-M "C C C A"
_symmetry_group_IT_number 68
_space_group.IT_coordinate_system_code '2'
_symmetry_cell_setting 'orthorhombic'
loop_
_space_group_symop_operation_xyz
x,y,z
-x,1/2-y,z
x,1/2-y,1/2-z
-x,y,1/2-z
-x,-y,-z
x,1/2+y,-z
-x,1/2+y,1/2+z
x,-y,1/2+z
1/2+x,1/2+y,z
1/2-x,-y,z
1/2+x,-y,1/2-z
1/2-x,1/2+y,1/2-z
1/2-x,1/2-y,-z
1/2+x,y,-z
1/2-x,y,1/2+z
1/2+x,1/2-y,1/2+z
loop_
_atom_site_type_symbol
_atom_site_label
_atom_site_fract_x
_atom_site_fract_y
_atom_site_fract_z
Si Si1 0.206021 0.098449 0.077230
Si Si2 0.888650 0.899344 0.573012
Si Si3 0.175895 0.325716 0.751051
Si Si4 0.629575 0.202113 0.481180
Si Si5 0.250000 0.000000 0.490275
Si Si6 0.158875 0.438454 0.825110
Si Si7 0.686979 0.926583 0.664401
O O1 0.298227 0.162091 0.063263
O O2 0.194480 0.057611 0.025964
O O3 0.301359 0.062614 0.117360
O O4 0.044749 0.106536 0.098494
O O5 0.898751 0.846206 0.528177
O O6 0.753607 0.899157 0.611699
O O7 0.870640 0.969103 0.545250
O O8 0.227862 0.250000 0.750000
O O9 0.209282 0.370769 0.799072
O O10 0.226638 0.370662 0.704756
O O11 0.000000 0.322410 0.750000
O O12 0.500000 0.250000 0.466564
O O13 0.750000 0.250000 0.500000
O O14 0.250000 0.500000 0.802712
O O15 0.984604 0.438632 0.825863
O O16 0.750000 0.000000 0.670387
#
# Coordination Sequence:
#
# PCOD9508363 Si02
#       7
#    16  16  16  16   8  16  16
#     4  11  23  39  63  92 128 168 218 269 317 383
#     4  11  23  39  63  91 129 170 214 271 318 387
#     4   9  21  44  67  96 128 167 215 272 330 399
#     4  11  24  43  60  87 132 177 220 265 326 385
#     4  10  22  36  64  88 130 164 216 254 326 364
#     4  11  23  40  67  98 130 167 219 271 329 396
#     4  11  23  40  68  97 129 172 214 268 336 391
#
# _framework density 20.580507000000001
#
# number of rings (size 3 to 8) (size 9 to 14) (size 15 to 20)
#    0.000    1.385    3.077    1.846    2.154    2.462 
#    2.769    2.308    0.000    3.692    0.000    0.000 
#    0.000    0.000    0.000    0.000    0.000    0.000 
#
# Total GULP energy -289667.099407 kJ/mol
# GULP energy per Si atom -5570.521142 kJ/mol
# Density = 2.053367 g / cm^3
# Si number density = 20.580507 Si / 1000 Ang^3
#
#
#
# Elastic Constant Matrix: (Units=GPa)
#
#
# Indices 1 2 3 4 5 6 
#
# 1 95.9154 42.0186 7.8913 0.0000 0.0000 0.0000
# 2 42.0186 150.8888 33.9621 0.0000 0.0000 0.0000
# 3 7.8913 33.9621 64.7841 0.0000 0.0000 0.0000
# 4 0.0000 0.0000 0.0000 23.0942 0.0000 0.0000
# 5 0.0000 0.0000 0.0000 0.0000 11.6779 0.0000
# 6 0.0000 0.0000 0.0000 0.0000 0.0000 32.6406
#
#
#
# Elastic Compliance Matrix: (Units=1/GPa)
#
#
# Indices 1 2 3 4 5 6 
#
# 1 0.011881 -0.003382 0.000326 0.000000 0.000000 0.000000
# 2 -0.003382 0.008477 -0.004032 0.000000 0.000000 0.000000
# 3 0.000326 -0.004032 0.017510 0.000000 0.000000 0.000000
# 4 0.000000 0.000000 0.000000 0.043301 0.000000 0.000000
# 5 0.000000 0.000000 0.000000 0.000000 0.085632 0.000000
# 6 0.000000 0.000000 0.000000 0.000000 0.000000 0.030637
#
#
# Mechanical properties :
#
#
# Convention : Reuss Voigt Hill
#
# Bulk Modulus (GPa) = 42.20976 53.25917 47.73446
# Shear Modulus (GPa) = 22.77810 28.66365 25.72087
#
# Velocity S-wave (km/s) = 3.33044 3.73601 3.53904
# Velocity P-wave (km/s) = 5.94502 6.67421 6.32014
#
# Compressibility (1/GPa) = 0.02369120
#
# Stress axis : x y z
#
# Youngs Moduli (GPa) = 84.17143 117.97192 57.11079
#
# Poissons Ratio (x) = 0.39895 -0.01860
# Poissons Ratio (y) = 0.28464 0.23026
# Poissons Ratio (z) = -0.02741 0.47564
#
# Static dielectric constant tensor:
#      x y z
#    x 1.749090 0.000000 0.000000 
#    y 0.000000 1.737870 0.000000 
#    z 0.000000 0.000000 1.649920 
# 
# From -- ./inp_files/49417.got.cif
#   From: 2010.05.17/outbox.cif.g08.bks.cpg/sg68_25_cif.got.tgz:49417.got - 2010.06.03 18:57:09.
