data_PCOD9508508
_publ_section_title
;
Structure prediction by ZEFSAII (Michael W. Deem and Ramdas Pophale) SiO2 
 PCOD9508508
Probable space group: C C C A
;
_chemical_formula_sum "Si O2"
_cell_formula_units_Z 104
_cell_length_a 8.896545
_cell_length_b 24.488677
_cell_length_c 24.244974
_cell_angle_alpha 90.000000
_cell_angle_beta 90.000000
_cell_angle_gamma 90.000000
_cell_volume 5282.121973
_symmetry_space_group_name_H-M "C C C A"
_symmetry_group_IT_number 68
_space_group.IT_coordinate_system_code '2'
_symmetry_cell_setting 'orthorhombic'
loop_
_space_group_symop_operation_xyz
x,y,z
-x,1/2-y,z
x,1/2-y,1/2-z
-x,y,1/2-z
-x,-y,-z
x,1/2+y,-z
-x,1/2+y,1/2+z
x,-y,1/2+z
1/2+x,1/2+y,z
1/2-x,-y,z
1/2+x,-y,1/2-z
1/2-x,1/2+y,1/2-z
1/2-x,1/2-y,-z
1/2+x,y,-z
1/2-x,y,1/2+z
1/2+x,1/2-y,1/2+z
loop_
_atom_site_type_symbol
_atom_site_label
_atom_site_fract_x
_atom_site_fract_y
_atom_site_fract_z
Si Si1 0.757261 0.750000 0.250000
Si Si2 0.500000 0.750000 0.842681
Si Si3 0.408765 0.837127 0.566774
Si Si4 0.935094 0.189888 0.453605
Si Si5 0.074232 0.504769 0.692030
Si Si6 0.500000 0.167558 0.750000
Si Si7 0.982609 0.107071 0.357219
Si Si8 0.831888 0.058144 0.870892
O O1 0.861716 0.762954 0.198011
O O2 0.642921 0.797134 0.267698
O O3 0.465730 0.698086 0.881266
O O4 0.244509 0.813172 0.551806
O O5 0.515061 0.826649 0.514801
O O6 0.391994 0.901295 0.581680
O O7 0.995969 0.145550 0.409725
O O8 0.000000 0.250000 0.441255
O O9 0.250000 0.500000 0.702838
O O10 0.000000 0.522935 0.750000
O O11 0.059759 0.548328 0.642262
O O12 0.967978 0.455392 0.670837
O O13 0.548898 0.135067 0.696534
O O14 0.806533 0.093295 0.346231
O O15 0.750000 0.000000 0.886139
#
# Coordination Sequence:
#
# PCOD9508508 Si02
#       8
#     8   8  16  16  16   8  16  16
#     4  10  24  38  58  90 128 174 212 270 316 390
#     4  11  24  44  58  90 136 167 222 260 334 385
#     4  11  24  43  65  94 126 172 217 269 328 389
#     4  11  24  41  66  93 128 169 215 266 324 388
#     4  11  22  40  63  93 125 167 213 262 320 386
#     4  11  22  38  64  90 128 168 218 257 326 388
#     4  10  22  39  63  92 125 167 212 261 319 384
#     4   9  21  43  64  89 129 166 213 269 326 387
#
# _framework density 19.689056999999998
#
# number of rings (size 3 to 8) (size 9 to 14) (size 15 to 20)
#    0.000    1.538    1.538    3.692    4.308    2.462 
#    2.769    7.692    0.000    0.000    0.000    0.000 
#    0.000    0.000    0.000    0.000    0.000    0.000 
#
# Total GULP energy -289961.918379 kJ/mol
# GULP energy per Si atom -5576.190738 kJ/mol
# Density = 1.964424 g / cm^3
# Si number density = 19.689057 Si / 1000 Ang^3
#
#
#
# Elastic Constant Matrix: (Units=GPa)
#
#
# Indices 1 2 3 4 5 6 
#
# 1 111.6421 33.8450 43.5642 0.0000 0.0000 0.0000
# 2 33.8450 87.4883 36.9083 0.0000 0.0000 0.0000
# 3 43.5642 36.9083 100.2011 0.0000 0.0000 0.0000
# 4 0.0000 0.0000 0.0000 30.7787 0.0000 0.0000
# 5 0.0000 0.0000 0.0000 0.0000 27.5251 0.0000
# 6 0.0000 0.0000 0.0000 0.0000 0.0000 14.6562
#
#
#
# Elastic Compliance Matrix: (Units=1/GPa)
#
#
# Indices 1 2 3 4 5 6 
#
# 1 0.011310 -0.002724 -0.003914 0.000000 0.000000 0.000000
# 2 -0.002724 0.014189 -0.004042 0.000000 0.000000 0.000000
# 3 -0.003914 -0.004042 0.013170 0.000000 0.000000 0.000000
# 4 0.000000 0.000000 0.000000 0.032490 0.000000 0.000000
# 5 0.000000 0.000000 0.000000 0.000000 0.036330 0.000000
# 6 0.000000 0.000000 0.000000 0.000000 0.000000 0.068231
#
#
# Mechanical properties :
#
#
# Convention : Reuss Voigt Hill
#
# Bulk Modulus (GPa) = 57.77178 58.66294 58.21736
# Shear Modulus (GPa) = 24.64860 26.92627 25.78743
#
# Velocity S-wave (km/s) = 3.54205 3.70209 3.62295
# Velocity P-wave (km/s) = 6.79220 6.93782 6.86539
#
# Compressibility (1/GPa) = 0.01730949
#
# Stress axis : x y z
#
# Youngs Moduli (GPa) = 88.41467 70.47617 75.92766
#
# Poissons Ratio (x) = 0.19200 0.29717
# Poissons Ratio (y) = 0.24087 0.30690
# Poissons Ratio (z) = 0.34605 0.28487
#
# Static dielectric constant tensor:
#      x y z
#    x 1.965210 0.000000 0.000000 
#    y 0.000000 1.752510 0.000000 
#    z 0.000000 0.000000 1.664050 
# 
# From -- ./inp_files/43485.got.cif
#   From: 2010.05.17/outbox.cif.g08.bks.cpg/sg68_22_cif.got.tgz:43485.got - 2010.06.03 18:57:09.
