data_PCOD9508830
_publ_section_title
;
Structure prediction by ZEFSAII (Michael W. Deem and Ramdas Pophale) SiO2 
 PCOD9508830
Probable space group: C C C A
;
_chemical_formula_sum "Si O2"
_cell_formula_units_Z 64
_cell_length_a 21.139698
_cell_length_b 8.847018
_cell_length_c 16.396617
_cell_angle_alpha 90.000000
_cell_angle_beta 90.000000
_cell_angle_gamma 90.000000
_cell_volume 3066.549235
_symmetry_space_group_name_H-M "C C C A"
_symmetry_group_IT_number 68
_space_group.IT_coordinate_system_code '2'
_symmetry_cell_setting 'orthorhombic'
loop_
_space_group_symop_operation_xyz
x,y,z
-x,1/2-y,z
x,1/2-y,1/2-z
-x,y,1/2-z
-x,-y,-z
x,1/2+y,-z
-x,1/2+y,1/2+z
x,-y,1/2+z
1/2+x,1/2+y,z
1/2-x,-y,z
1/2+x,-y,1/2-z
1/2-x,1/2+y,1/2-z
1/2-x,1/2-y,-z
1/2+x,y,-z
1/2-x,y,1/2+z
1/2+x,1/2-y,1/2+z
loop_
_atom_site_type_symbol
_atom_site_label
_atom_site_fract_x
_atom_site_fract_y
_atom_site_fract_z
Si Si1 0.414426 0.577729 0.220456
Si Si2 0.824553 0.510071 0.908348
Si Si3 0.403688 0.251846 0.007582
Si Si4 0.036209 0.996973 0.613821
O O1 0.424669 0.750000 0.250000
O O2 0.346287 0.551416 0.182719
O O3 0.533839 0.535558 0.349810
O O4 0.425242 0.483428 0.302283
O O5 0.750000 0.500000 0.918258
O O6 0.862129 0.359847 0.934938
O O7 0.854134 0.642864 0.962890
O O8 0.561841 0.143060 0.940060
O O9 0.450484 0.141881 0.057844
#
# Coordination Sequence:
#
# PCOD9508830 Si02
#       4
#    16  16  16  16
#     4  11  23  43  66  94 131 173 212 272 340 391
#     4  11  24  43  65  96 135 177 222 263 323 394
#     4  10  23  42  68 100 128 171 220 273 327 387
#     4  10  22  42  69  95 132 163 216 276 334 390
#
# _framework density 20.870363000000001
#
# number of rings (size 3 to 8) (size 9 to 14) (size 15 to 20)
#    0.000    1.500    2.500    2.250    0.000    8.000 
#    4.500    3.750    0.000    0.000    0.000    0.000 
#    0.000    0.000    0.000    0.000    0.000    0.000 
#
# Total GULP energy -178919.020337 kJ/mol
# GULP energy per Si atom -5591.219386 kJ/mol
# Density = 2.082286 g / cm^3
# Si number density = 20.870363 Si / 1000 Ang^3
#
#
#
# Elastic Constant Matrix: (Units=GPa)
#
#
# Indices 1 2 3 4 5 6 
#
# 1 128.4189 80.4949 82.1199 0.0000 0.0000 0.0000
# 2 80.4949 133.9630 59.3006 0.0000 0.0000 0.0000
# 3 82.1199 59.3006 127.8781 0.0000 0.0000 0.0000
# 4 0.0000 0.0000 0.0000 19.7904 0.0000 0.0000
# 5 0.0000 0.0000 0.0000 0.0000 31.8008 0.0000
# 6 0.0000 0.0000 0.0000 0.0000 0.0000 -4.9517
#
#
#
# Elastic Compliance Matrix: (Units=1/GPa)
#
#
# Indices 1 2 3 4 5 6 
#
# 1 0.017011 -0.006777 -0.007781 0.000000 0.000000 0.000000
# 2 -0.006777 0.012093 -0.001256 0.000000 0.000000 0.000000
# 3 -0.007781 -0.001256 0.013399 0.000000 0.000000 0.000000
# 4 0.000000 0.000000 0.000000 0.050530 0.000000 0.000000
# 5 0.000000 0.000000 0.000000 0.000000 0.031446 0.000000
# 6 0.000000 0.000000 0.000000 0.000000 0.000000 -0.201949
#
#
# Mechanical properties :
#
#
# Convention : Reuss Voigt Hill
#
# Bulk Modulus (GPa) = 91.95523 92.67675 92.31599
# Shear Modulus (GPa) = -118.43163 20.55086 -48.94039
#
# Velocity S-wave (km/s) = -7.54119 3.14138 -4.84774
# Velocity P-wave (km/s) = 5.62763 7.59342 3.60485
#
# Compressibility (1/GPa) = 0.01087486
#
# Stress axis : x y z
#
# Youngs Moduli (GPa) = 58.78668 82.69480 74.63151
#
# Poissons Ratio (x) = 0.56041 0.58072
# Poissons Ratio (y) = 0.39839 0.09372
# Poissons Ratio (z) = 0.45743 0.10385
#
# Static dielectric constant tensor:
#      x y z
#    x 1.728450 0.000000 0.000000 
#    y 0.000000 1.778480 0.000000 
#    z 0.000000 0.000000 1.778400 
# 
# From -- ./inp_files/15282.got.cif
#   From: 2010.05.17/outbox.cif.g08.bks.cpg/sg68_8_cif.got.tgz:15282.got - 2010.06.03 18:57:09.
