data_PCOD9508304
_publ_section_title
;
Structure prediction by ZEFSAII (Michael W. Deem and Ramdas Pophale) SiO2 
 PCOD9508304
Probable space group: C C C A
;
_chemical_formula_sum "Si O2"
_cell_formula_units_Z 68
_cell_length_a 13.226644
_cell_length_b 10.543175
_cell_length_c 19.290495
_cell_angle_alpha 90.000000
_cell_angle_beta 90.000000
_cell_angle_gamma 90.000000
_cell_volume 2690.075391
_symmetry_space_group_name_H-M "C C C A"
_symmetry_group_IT_number 68
_space_group.IT_coordinate_system_code '2'
_symmetry_cell_setting 'orthorhombic'
loop_
_space_group_symop_operation_xyz
x,y,z
-x,1/2-y,z
x,1/2-y,1/2-z
-x,y,1/2-z
-x,-y,-z
x,1/2+y,-z
-x,1/2+y,1/2+z
x,-y,1/2+z
1/2+x,1/2+y,z
1/2-x,-y,z
1/2+x,-y,1/2-z
1/2-x,1/2+y,1/2-z
1/2-x,1/2-y,-z
1/2+x,y,-z
1/2-x,y,1/2+z
1/2+x,1/2-y,1/2+z
loop_
_atom_site_type_symbol
_atom_site_label
_atom_site_fract_x
_atom_site_fract_y
_atom_site_fract_z
Si Si1 0.266296 0.359085 0.308405
Si Si2 0.856846 0.023939 0.041059
Si Si3 0.000000 0.750000 0.250000
Si Si4 0.613965 0.796867 0.432961
Si Si5 0.514008 0.880381 0.876546
O O1 0.271448 0.250000 0.250000
O O2 0.250000 0.500000 0.278078
O O3 0.546077 0.347408 0.305390
O O4 0.370880 0.382249 0.351780
O O5 0.850948 0.171991 0.024054
O O6 0.750000 0.000000 0.077786
O O7 0.953946 0.990407 0.087174
O O8 0.867711 0.924531 0.977956
O O9 0.500000 0.750000 0.415096
O O10 0.680380 0.817864 0.363710
O O11 0.500000 0.750000 0.919589
#
# Coordination Sequence:
#
# PCOD9508304 Si02
#       5
#    16  16   4  16  16
#     4  12  27  51  79 114 155 205 267 331 399 478
#     4  12  26  46  77 111 157 200 261 319 398 468
#     4   8  20  40  76  96 140 184 266 312 374 460
#     4  12  28  49  74 114 160 208 259 329 396 475
#     4  10  21  45  75 108 142 203 263 315 389 473
#
# _framework density 25.278102000000001
#
# number of rings (size 3 to 8) (size 9 to 14) (size 15 to 20)
#    0.706    0.000    1.176    5.647    0.000    8.941 
#    0.000    0.000    0.000    0.000    0.000    0.000 
#    0.000    0.000    0.000    0.000    0.000    0.000 
#
# Total GULP energy -189583.141265 kJ/mol
# GULP energy per Si atom -5575.974743 kJ/mol
# Density = 2.522057 g / cm^3
# Si number density = 25.278102 Si / 1000 Ang^3
#
#
#
# Elastic Constant Matrix: (Units=GPa)
#
#
# Indices 1 2 3 4 5 6 
#
# 1 179.7097 59.4957 51.5772 0.0000 0.0000 0.0000
# 2 59.4957 241.1829 82.3330 0.0000 0.0000 0.0000
# 3 51.5772 82.3330 134.0055 0.0000 0.0000 0.0000
# 4 0.0000 0.0000 0.0000 38.1212 0.0000 0.0000
# 5 0.0000 0.0000 0.0000 0.0000 39.5481 0.0000
# 6 0.0000 0.0000 0.0000 0.0000 0.0000 37.5481
#
#
#
# Elastic Compliance Matrix: (Units=1/GPa)
#
#
# Indices 1 2 3 4 5 6 
#
# 1 0.006418 -0.000936 -0.001895 0.000000 0.000000 0.000000
# 2 -0.000936 0.005383 -0.002947 0.000000 0.000000 0.000000
# 3 -0.001895 -0.002947 0.010002 0.000000 0.000000 0.000000
# 4 0.000000 0.000000 0.000000 0.026232 0.000000 0.000000
# 5 0.000000 0.000000 0.000000 0.000000 0.025286 0.000000
# 6 0.000000 0.000000 0.000000 0.000000 0.000000 0.026632
#
#
# Mechanical properties :
#
#
# Convention : Reuss Voigt Hill
#
# Bulk Modulus (GPa) = 97.58868 104.63443 101.11156
# Shear Modulus (GPa) = 43.50582 47.14297 45.32440
#
# Velocity S-wave (km/s) = 4.15310 4.32322 4.23901
# Velocity P-wave (km/s) = 7.85414 8.14883 8.00284
#
# Compressibility (1/GPa) = 0.01024709
#
# Stress axis : x y z
#
# Youngs Moduli (GPa) = 155.80144 185.76064 99.97555
#
# Poissons Ratio (x) = 0.17395 0.18946
# Poissons Ratio (y) = 0.14589 0.29464
# Poissons Ratio (z) = 0.29525 0.54745
#
# Static dielectric constant tensor:
#      x y z
#    x 2.321790 0.000000 0.000000 
#    y 0.000000 2.107180 0.000000 
#    z 0.000000 0.000000 2.010310 
# 
# From -- ./inp_files/50670.got.cif
#   From: 2010.05.17/outbox.cif.g08.bks.cpg/sg68_26_cif.got.tgz:50670.got - 2010.06.03 18:57:09.
