data_PCOD9508755
_publ_section_title
;
Structure prediction by ZEFSAII (Michael W. Deem and Ramdas Pophale) SiO2 
 PCOD9508755
Probable space group: C C C A
;
_chemical_formula_sum "Si O2"
_cell_formula_units_Z 104
_cell_length_a 18.819785
_cell_length_b 16.903582
_cell_length_c 14.218271
_cell_angle_alpha 90.000000
_cell_angle_beta 90.000000
_cell_angle_gamma 90.000000
_cell_volume 4523.141664
_symmetry_space_group_name_H-M "C C C A"
_symmetry_group_IT_number 68
_space_group.IT_coordinate_system_code '2'
_symmetry_cell_setting 'orthorhombic'
loop_
_space_group_symop_operation_xyz
x,y,z
-x,1/2-y,z
x,1/2-y,1/2-z
-x,y,1/2-z
-x,-y,-z
x,1/2+y,-z
-x,1/2+y,1/2+z
x,-y,1/2+z
1/2+x,1/2+y,z
1/2-x,-y,z
1/2+x,-y,1/2-z
1/2-x,1/2+y,1/2-z
1/2-x,1/2-y,-z
1/2+x,y,-z
1/2-x,y,1/2+z
1/2+x,1/2-y,1/2+z
loop_
_atom_site_type_symbol
_atom_site_label
_atom_site_fract_x
_atom_site_fract_y
_atom_site_fract_z
Si Si1 0.625199 0.266497 0.959850
Si Si2 0.045961 0.328332 0.864785
Si Si3 0.250000 0.000000 0.330335
Si Si4 0.500728 0.497075 0.612432
Si Si5 0.384349 0.569232 0.253232
Si Si6 0.661136 0.250000 0.250000
Si Si7 0.279174 0.661648 0.574102
Si Si8 0.885270 0.750000 0.750000
O O1 0.700114 0.313842 0.957201
O O2 0.587976 0.255247 0.858957
O O3 0.575485 0.314123 0.030479
O O4 0.655488 0.184642 0.005202
O O5 0.005373 0.410625 0.856811
O O6 0.111860 0.318943 0.793681
O O7 0.000000 0.250000 0.848279
O O8 0.184948 0.019347 0.263256
O O9 0.274688 0.071649 0.396022
O O10 0.500000 0.500000 0.500000
O O11 0.570276 0.454697 0.655893
O O12 0.436065 0.451576 0.664315
O O13 0.357920 0.659879 0.255023
O O14 0.706458 0.285174 0.333900
#
# Coordination Sequence:
#
# PCOD9508755 Si02
#       8
#    16  16   8  16  16   8  16   8
#     4  10  23  44  67 103 137 194 232 287 349 442
#     4  11  25  42  75 104 142 185 242 293 370 435
#     4  12  24  44  72 112 146 184 236 316 364 438
#     4  11  27  50  69 105 145 187 241 303 362 434
#     4  11  28  46  77 104 146 190 243 303 367 438
#     4  10  22  42  74 104 139 189 228 302 346 452
#     4  10  22  41  71 100 146 181 235 287 362 420
#     4  12  23  49  68 100 142 194 250 288 362 440
#
# _framework density 22.99287
#
# number of rings (size 3 to 8) (size 9 to 14) (size 15 to 20)
#    0.000    1.231    1.538    2.538   10.769    1.231 
#    2.769    0.769    0.000    0.000    0.000    0.000 
#    0.000    0.000    0.000    0.000    0.000    0.000 
#
# Total GULP energy -290316.347043 kJ/mol
# GULP energy per Si atom -5583.006674 kJ/mol
# Density = 2.294054 g / cm^3
# Si number density = 22.992870 Si / 1000 Ang^3
#
#
#
# Elastic Constant Matrix: (Units=GPa)
#
#
# Indices 1 2 3 4 5 6 
#
# 1 83.5093 33.3352 28.5645 0.0000 0.0000 0.0000
# 2 33.3352 110.9228 -0.4443 0.0000 0.0000 0.0000
# 3 28.5645 -0.4443 162.0878 0.0000 0.0000 0.0000
# 4 0.0000 0.0000 0.0000 27.9469 0.0000 0.0000
# 5 0.0000 0.0000 0.0000 0.0000 22.9945 0.0000
# 6 0.0000 0.0000 0.0000 0.0000 0.0000 1.7253
#
#
#
# Elastic Compliance Matrix: (Units=1/GPa)
#
#
# Indices 1 2 3 4 5 6 
#
# 1 0.014618 -0.004403 -0.002588 0.000000 0.000000 0.000000
# 2 -0.004403 0.010342 0.000804 0.000000 0.000000 0.000000
# 3 -0.002588 0.000804 0.006628 0.000000 0.000000 0.000000
# 4 0.000000 0.000000 0.000000 0.035782 0.000000 0.000000
# 5 0.000000 0.000000 0.000000 0.000000 0.043489 0.000000
# 6 0.000000 0.000000 0.000000 0.000000 0.000000 0.579610
#
#
# Mechanical properties :
#
#
# Convention : Reuss Voigt Hill
#
# Bulk Modulus (GPa) = 52.04799 53.27009 52.65904
# Shear Modulus (GPa) = 7.04973 30.20430 18.62702
#
# Velocity S-wave (km/s) = 1.75291 3.62835 2.84935
# Velocity P-wave (km/s) = 5.17520 6.38526 5.81181
#
# Compressibility (1/GPa) = 0.01921304
#
# Stress axis : x y z
#
# Youngs Moduli (GPa) = 68.41015 96.69473 150.87963
#
# Poissons Ratio (x) = 0.42578 0.39050
# Poissons Ratio (y) = 0.30124 -0.12136
# Poissons Ratio (z) = 0.17705 -0.07778
#
# Static dielectric constant tensor:
#      x y z
#    x -17.453900 0.000000 0.000000 
#    y 0.000000 1.834160 0.000000 
#    z 0.000000 0.000000 1.896390 
# 
# From -- ./inp_files/24677.got.cif
#   From: 2010.05.17/outbox.cif.g08.bks.cpg/sg68_13_cif.got.tgz:24677.got - 2010.06.03 18:57:09.
