data_PCOD9508675
_publ_section_title
;
Structure prediction by ZEFSAII (Michael W. Deem and Ramdas Pophale) SiO2 
 PCOD9508675
Probable space group: C C C A
;
_chemical_formula_sum "Si O2"
_cell_formula_units_Z 120
_cell_length_a 25.404269
_cell_length_b 21.250640
_cell_length_c 11.779877
_cell_angle_alpha 90.000000
_cell_angle_beta 90.000000
_cell_angle_gamma 90.000000
_cell_volume 6359.448763
_symmetry_space_group_name_H-M "C C C A"
_symmetry_group_IT_number 68
_space_group.IT_coordinate_system_code '2'
_symmetry_cell_setting 'orthorhombic'
loop_
_space_group_symop_operation_xyz
x,y,z
-x,1/2-y,z
x,1/2-y,1/2-z
-x,y,1/2-z
-x,-y,-z
x,1/2+y,-z
-x,1/2+y,1/2+z
x,-y,1/2+z
1/2+x,1/2+y,z
1/2-x,-y,z
1/2+x,-y,1/2-z
1/2-x,1/2+y,1/2-z
1/2-x,1/2-y,-z
1/2+x,y,-z
1/2-x,y,1/2+z
1/2+x,1/2-y,1/2+z
loop_
_atom_site_type_symbol
_atom_site_label
_atom_site_fract_x
_atom_site_fract_y
_atom_site_fract_z
Si Si1 0.000000 0.878842 0.750000
Si Si2 0.697193 0.572827 0.669927
Si Si3 0.678397 0.925389 0.362874
Si Si4 0.872244 0.590373 0.388714
Si Si5 0.384641 0.870007 0.525461
Si Si6 0.109754 0.322468 0.227359
Si Si7 0.049219 0.977050 0.927602
Si Si8 0.558588 0.175710 0.249675
O O1 0.949173 0.835795 0.776734
O O2 0.976030 0.926963 0.658479
O O3 0.676370 0.501049 0.653869
O O4 0.759401 0.582857 0.660291
O O5 0.672784 0.589241 0.792406
O O6 0.673299 0.615503 0.570063
O O7 0.655151 0.911453 0.488478
O O8 0.646127 0.878148 0.280470
O O9 0.914120 0.532452 0.377498
O O10 0.907942 0.650313 0.356401
O O11 0.389320 0.832323 0.408755
O O12 0.411666 0.936958 0.504334
O O13 0.414184 0.841249 0.632345
O O14 0.125293 0.250000 0.250000
O O15 0.000000 0.000000 0.000000
O O16 0.555179 0.250000 0.250000
O O17 0.500000 0.147606 0.250000
#
# Coordination Sequence:
#
# PCOD9508675 Si02
#       8
#     8  16  16  16  16  16  16  16
#     4  10  23  38  60  92 129 168 206 256 324 388
#     4  10  23  41  66  95 129 161 220 277 338 379
#     4  11  24  40  69  95 127 174 215 272 329 396
#     4  11  23  39  65  97 130 169 218 272 333 391
#     4  10  22  41  61  91 128 164 207 282 319 377
#     4  11  25  44  64  93 133 176 219 258 324 401
#     4  11  21  34  63  96 132 160 206 266 333 389
#     4  10  23  42  63  91 127 175 218 258 320 401
#
# _framework density 18.86956
#
# number of rings (size 3 to 8) (size 9 to 14) (size 15 to 20)
#    0.000    1.467    1.333    3.400    8.400    2.133 
#    4.800    3.333    0.000    0.000    0.000    0.000 
#    0.000    0.000    0.000    0.000    0.000    0.000 
#
# Total GULP energy -334332.668396 kJ/mol
# GULP energy per Si atom -5572.211140 kJ/mol
# Density = 1.882661 g / cm^3
# Si number density = 18.869560 Si / 1000 Ang^3
#
#
#
# Elastic Constant Matrix: (Units=GPa)
#
#
# Indices 1 2 3 4 5 6 
#
# 1 108.3467 29.5189 27.1847 0.0000 0.0000 0.0000
# 2 29.5189 69.6344 5.1504 0.0000 0.0000 0.0000
# 3 27.1847 5.1504 46.4633 0.0000 0.0000 0.0000
# 4 0.0000 0.0000 0.0000 22.2433 0.0000 0.0000
# 5 0.0000 0.0000 0.0000 0.0000 26.6553 0.0000
# 6 0.0000 0.0000 0.0000 0.0000 0.0000 26.8596
#
#
#
# Elastic Compliance Matrix: (Units=1/GPa)
#
#
# Indices 1 2 3 4 5 6 
#
# 1 0.012155 -0.004665 -0.006595 0.000000 0.000000 0.000000
# 2 -0.004665 0.016270 0.000926 0.000000 0.000000 0.000000
# 3 -0.006595 0.000926 0.025278 0.000000 0.000000 0.000000
# 4 0.000000 0.000000 0.000000 0.044957 0.000000 0.000000
# 5 0.000000 0.000000 0.000000 0.000000 0.037516 0.000000
# 6 0.000000 0.000000 0.000000 0.000000 0.000000 0.037231
#
#
# Mechanical properties :
#
#
# Convention : Reuss Voigt Hill
#
# Bulk Modulus (GPa) = 30.27033 38.68359 34.47696
# Shear Modulus (GPa) = 24.37994 25.99098 25.18546
#
# Velocity S-wave (km/s) = 3.59837 3.71536 3.65734
# Velocity P-wave (km/s) = 5.77418 6.24102 6.01213
#
# Compressibility (1/GPa) = 0.03303564
#
# Stress axis : x y z
#
# Youngs Moduli (GPa) = 82.26910 61.46360 39.55987
#
# Poissons Ratio (x) = 0.28673 0.26088
# Poissons Ratio (y) = 0.38378 -0.03663
# Poissons Ratio (z) = 0.54254 -0.05691
#
# Static dielectric constant tensor:
#      x y z
#    x 2.263110 0.000000 0.000000 
#    y 0.000000 1.633180 0.000000 
#    z 0.000000 0.000000 1.581540 
# 
# From -- ./inp_files/16616.got.cif
#   From: 2010.05.17/outbox.cif.g08.bks.cpg/sg68_9_cif.got.tgz:16616.got - 2010.06.03 18:57:09.
