data_PCOD9508291
_publ_section_title
;
Structure prediction by ZEFSAII (Michael W. Deem and Ramdas Pophale) SiO2 
 PCOD9508291
Probable space group: C C C A
;
_chemical_formula_sum "Si O2"
_cell_formula_units_Z 88
_cell_length_a 15.062447
_cell_length_b 13.651456
_cell_length_c 17.326227
_cell_angle_alpha 90.000000
_cell_angle_beta 90.000000
_cell_angle_gamma 90.000000
_cell_volume 3562.693861
_symmetry_space_group_name_H-M "C C C A"
_symmetry_group_IT_number 68
_space_group.IT_coordinate_system_code '2'
_symmetry_cell_setting 'orthorhombic'
loop_
_space_group_symop_operation_xyz
x,y,z
-x,1/2-y,z
x,1/2-y,1/2-z
-x,y,1/2-z
-x,-y,-z
x,1/2+y,-z
-x,1/2+y,1/2+z
x,-y,1/2+z
1/2+x,1/2+y,z
1/2-x,-y,z
1/2+x,-y,1/2-z
1/2-x,1/2+y,1/2-z
1/2-x,1/2-y,-z
1/2+x,y,-z
1/2-x,y,1/2+z
1/2+x,1/2-y,1/2+z
loop_
_atom_site_type_symbol
_atom_site_label
_atom_site_fract_x
_atom_site_fract_y
_atom_site_fract_z
Si Si1 0.209837 0.094292 0.834612
Si Si2 0.595364 0.777029 0.545390
Si Si3 0.710357 0.395324 0.068556
Si Si4 0.906405 0.648968 0.619450
Si Si5 0.919666 0.546547 0.202952
Si Si6 0.161990 0.750000 0.750000
O O1 0.152605 0.158743 0.894820
O O2 0.273292 0.165815 0.784946
O O3 0.250000 0.000000 0.877357
O O4 0.151263 0.038660 0.770525
O O5 0.500000 0.750000 0.581441
O O6 0.661350 0.687943 0.517796
O O7 0.565800 0.835667 0.468213
O O8 0.750000 0.500000 0.040167
O O9 0.798930 0.360574 0.110967
O O10 0.633331 0.405144 0.132804
O O11 0.947000 0.555864 0.663347
O O12 0.905270 0.736204 0.678696
O O13 0.000000 0.595008 0.250000
#
# Coordination Sequence:
#
# PCOD9508291 Si02
#       6
#    16  16  16  16  16   8
#     4  12  23  44  75 113 139 198 263 311 374 463
#     4  12  27  47  73 117 159 195 247 326 400 446
#     4  10  21  44  73 106 146 202 253 311 369 461
#     4  11  24  45  69 100 148 200 250 297 375 461
#     4  11  22  42  71 108 148 193 242 321 384 442
#     4  12  22  44  78 100 140 194 266 308 352 452
#
# _framework density 24.700410999999999
#
# number of rings (size 3 to 8) (size 9 to 14) (size 15 to 20)
#    0.000    0.727    5.455    2.182    0.000    3.636 
#    0.000    6.364    0.000    0.000    0.000    0.000 
#    0.000    0.000    0.000    0.000    0.000    0.000 
#
# Total GULP energy -245136.810280 kJ/mol
# GULP energy per Si atom -5571.291143 kJ/mol
# Density = 2.464419 g / cm^3
# Si number density = 24.700411 Si / 1000 Ang^3
#
#
#
# Elastic Constant Matrix: (Units=GPa)
#
#
# Indices 1 2 3 4 5 6 
#
# 1 109.2636 45.8271 19.6101 0.0000 0.0000 0.0000
# 2 45.8271 101.2529 33.4384 0.0000 0.0000 0.0000
# 3 19.6101 33.4384 127.8365 0.0000 0.0000 0.0000
# 4 0.0000 0.0000 0.0000 29.5941 0.0000 0.0000
# 5 0.0000 0.0000 0.0000 0.0000 175.7802 0.0000
# 6 0.0000 0.0000 0.0000 0.0000 0.0000 25.8170
#
#
#
# Elastic Compliance Matrix: (Units=1/GPa)
#
#
# Indices 1 2 3 4 5 6 
#
# 1 0.011319 -0.004980 -0.000434 0.000000 0.000000 0.000000
# 2 -0.004980 0.013001 -0.002637 0.000000 0.000000 0.000000
# 3 -0.000434 -0.002637 0.008579 0.000000 0.000000 0.000000
# 4 0.000000 0.000000 0.000000 0.033791 0.000000 0.000000
# 5 0.000000 0.000000 0.000000 0.000000 0.005689 0.000000
# 6 0.000000 0.000000 0.000000 0.000000 0.000000 0.038734
#
#
# Mechanical properties :
#
#
# Convention : Reuss Voigt Hill
#
# Bulk Modulus (GPa) = 59.53115 59.56713 59.54914
# Shear Modulus (GPa) = 37.64745 62.20342 49.92543
#
# Velocity S-wave (km/s) = 3.90829 5.02373 4.50070
# Velocity P-wave (km/s) = 6.67232 7.60386 7.15327
#
# Compressibility (1/GPa) = 0.01679793
#
# Stress axis : x y z
#
# Youngs Moduli (GPa) = 88.35068 76.91842 116.56728
#
# Poissons Ratio (x) = 0.38302 0.05056
# Poissons Ratio (y) = 0.43994 0.30736
# Poissons Ratio (z) = 0.03832 0.20282
#
# Static dielectric constant tensor:
#      x y z
#    x 2.046010 0.000000 0.000000 
#    y 0.000000 2.018080 0.000000 
#    z 0.000000 0.000000 1.933280 
# 
# From -- ./inp_files/31879.got.cif
#   From: 2010.05.17/outbox.cif.g08.bks.cpg/sg68_16_cif.got.tgz:31879.got - 2010.06.03 18:57:09.
