data_PCOD9508071
_publ_section_title
;
Structure prediction by ZEFSAII (Michael W. Deem and Ramdas Pophale) SiO2 
 PCOD9508071
Probable space group: C C C A
;
_chemical_formula_sum "Si O2"
_cell_formula_units_Z 96
_cell_length_a 17.310194
_cell_length_b 17.458442
_cell_length_c 14.541303
_cell_angle_alpha 90.000000
_cell_angle_beta 90.000000
_cell_angle_gamma 90.000000
_cell_volume 4394.512899
_symmetry_space_group_name_H-M "C C C A"
_symmetry_group_IT_number 68
_space_group.IT_coordinate_system_code '2'
_symmetry_cell_setting 'orthorhombic'
loop_
_space_group_symop_operation_xyz
x,y,z
-x,1/2-y,z
x,1/2-y,1/2-z
-x,y,1/2-z
-x,-y,-z
x,1/2+y,-z
-x,1/2+y,1/2+z
x,-y,1/2+z
1/2+x,1/2+y,z
1/2-x,-y,z
1/2+x,-y,1/2-z
1/2-x,1/2+y,1/2-z
1/2-x,1/2-y,-z
1/2+x,y,-z
1/2-x,y,1/2+z
1/2+x,1/2-y,1/2+z
loop_
_atom_site_type_symbol
_atom_site_label
_atom_site_fract_x
_atom_site_fract_y
_atom_site_fract_z
Si Si1 0.837311 0.073287 0.124219
Si Si2 0.332484 0.472681 0.304178
Si Si3 0.587698 0.277838 0.849699
Si Si4 0.915259 0.027076 0.475501
Si Si5 0.803748 0.174852 0.697104
Si Si6 0.082894 0.794703 0.468141
O O1 0.907274 0.131628 0.140711
O O2 0.837530 0.014610 0.207161
O O3 0.738060 0.872392 0.139731
O O4 0.852973 0.023019 0.034202
O O5 0.250000 0.500000 0.344394
O O6 0.396924 0.504928 0.371158
O O7 0.332930 0.383817 0.276430
O O8 0.500000 0.250000 0.853487
O O9 0.616081 0.250000 0.750000
O O10 0.624130 0.246436 0.944513
O O11 0.917489 0.116737 0.499390
O O12 0.000000 0.000000 0.500000
O O13 0.775310 0.250000 0.750000
O O14 0.869242 0.202334 0.626078
O O15 0.000000 0.750000 0.454959
#
# Coordination Sequence:
#
# PCOD9508071 Si02
#       6
#    16  16  16  16  16  16
#     4  11  24  47  72 106 140 190 255 294 369 448
#     4  10  25  47  73 105 144 191 248 307 369 438
#     4  10  21  40  67  99 141 180 233 301 369 434
#     4  12  26  44  74 108 148 194 245 306 378 453
#     4  11  26  47  73 105 148 198 251 310 372 447
#     4  11  25  45  70 105 149 193 241 310 380 449
#
# _framework density 21.845424000000001
#
# number of rings (size 3 to 8) (size 9 to 14) (size 15 to 20)
#    0.000    1.167    1.667    3.500    7.000    4.333 
#    0.000    0.000    0.000    0.000    0.000    0.000 
#    0.000    0.000    0.000    0.000    0.000    0.000 
#
# Total GULP energy -267855.515858 kJ/mol
# GULP energy per Si atom -5580.323247 kJ/mol
# Density = 2.179570 g / cm^3
# Si number density = 21.845424 Si / 1000 Ang^3
#
#
#
# Elastic Constant Matrix: (Units=GPa)
#
#
# Indices 1 2 3 4 5 6 
#
# 1 70.5830 32.5250 38.5396 0.0000 0.0000 0.0000
# 2 32.5250 157.6726 30.4829 0.0000 0.0000 0.0000
# 3 38.5396 30.4829 104.1586 0.0000 0.0000 0.0000
# 4 0.0000 0.0000 0.0000 32.5825 0.0000 0.0000
# 5 0.0000 0.0000 0.0000 0.0000 18.2135 0.0000
# 6 0.0000 0.0000 0.0000 0.0000 0.0000 31.9125
#
#
#
# Elastic Compliance Matrix: (Units=1/GPa)
#
#
# Indices 1 2 3 4 5 6 
#
# 1 0.018766 -0.002680 -0.006159 0.000000 0.000000 0.000000
# 2 -0.002680 0.007105 -0.001088 0.000000 0.000000 0.000000
# 3 -0.006159 -0.001088 0.012198 0.000000 0.000000 0.000000
# 4 0.000000 0.000000 0.000000 0.030691 0.000000 0.000000
# 5 0.000000 0.000000 0.000000 0.000000 0.054904 0.000000
# 6 0.000000 0.000000 0.000000 0.000000 0.000000 0.031336
#
#
# Mechanical properties :
#
#
# Convention : Reuss Voigt Hill
#
# Bulk Modulus (GPa) = 54.89989 59.50102 57.20046
# Shear Modulus (GPa) = 27.63555 31.93283 29.78419
#
# Velocity S-wave (km/s) = 3.56061 3.82745 3.69644
# Velocity P-wave (km/s) = 6.48765 6.84316 6.66778
#
# Compressibility (1/GPa) = 0.01821497
#
# Stress axis : x y z
#
# Youngs Moduli (GPa) = 53.28847 140.73711 81.98070
#
# Poissons Ratio (x) = 0.37722 0.50493
# Poissons Ratio (y) = 0.14283 0.08917
# Poissons Ratio (z) = 0.32821 0.15308
#
# Static dielectric constant tensor:
#      x y z
#    x 1.862660 0.000000 0.000000 
#    y 0.000000 1.833980 0.000000 
#    z 0.000000 0.000000 1.793460 
# 
# From -- ./inp_files/24461.got.cif
#   From: 2010.05.17/outbox.cif.g08.bks.cpg/sg68_13_cif.got.tgz:24461.got - 2010.06.03 18:57:09.
