data_PCOD9508478
_publ_section_title
;
Structure prediction by ZEFSAII (Michael W. Deem and Ramdas Pophale) SiO2 
 PCOD9508478
Probable space group: C C C A
;
_chemical_formula_sum "Si O2"
_cell_formula_units_Z 56
_cell_length_a 15.836971
_cell_length_b 16.949566
_cell_length_c 8.819427
_cell_angle_alpha 90.000000
_cell_angle_beta 90.000000
_cell_angle_gamma 90.000000
_cell_volume 2367.396895
_symmetry_space_group_name_H-M "C C C A"
_symmetry_group_IT_number 68
_space_group.IT_coordinate_system_code '2'
_symmetry_cell_setting 'orthorhombic'
loop_
_space_group_symop_operation_xyz
x,y,z
-x,1/2-y,z
x,1/2-y,1/2-z
-x,y,1/2-z
-x,-y,-z
x,1/2+y,-z
-x,1/2+y,1/2+z
x,-y,1/2+z
1/2+x,1/2+y,z
1/2-x,-y,z
1/2+x,-y,1/2-z
1/2-x,1/2+y,1/2-z
1/2-x,1/2-y,-z
1/2+x,y,-z
1/2-x,y,1/2+z
1/2+x,1/2-y,1/2+z
loop_
_atom_site_type_symbol
_atom_site_label
_atom_site_fract_x
_atom_site_fract_y
_atom_site_fract_z
Si Si1 0.000000 0.750000 0.487780
Si Si2 0.190439 0.922905 0.228411
Si Si3 0.907089 0.516952 0.938888
Si Si4 0.500000 0.874650 0.250000
Si Si5 0.653375 0.250000 0.250000
O O1 0.010500 0.822965 0.601315
O O2 0.914871 0.755518 0.388050
O O3 0.209730 0.829747 0.240350
O O4 0.250000 0.000000 0.245638
O O5 0.130275 0.936658 0.373759
O O6 0.146195 0.939156 0.066638
O O7 0.920329 0.571002 0.790051
O O8 0.000000 0.500000 0.000000
#
# Coordination Sequence:
#
# PCOD9508478 Si02
#       5
#     8  16  16   8   8
#     4  10  22  38  72 120 144 182 262 318 376 434
#     4  12  27  47  71 109 153 203 248 310 386 450
#     4  12  23  44  74 105 143 199 259 307 369 448
#     4  11  20  38  70 113 144 178 246 327 364 435
#     4  11  24  44  74 106 155 202 246 312 371 464
#
# _framework density 23.654674
#
# number of rings (size 3 to 8) (size 9 to 14) (size 15 to 20)
#    0.000    0.571    5.714    2.571    4.000    0.000 
#    0.000    8.571    0.000    0.000    0.000    0.000 
#    0.000    0.000    0.000    0.000    0.000    0.000 
#
# Total GULP energy -156334.444410 kJ/mol
# GULP energy per Si atom -5583.373015 kJ/mol
# Density = 2.360083 g / cm^3
# Si number density = 23.654674 Si / 1000 Ang^3
#
#
#
# Elastic Constant Matrix: (Units=GPa)
#
#
# Indices 1 2 3 4 5 6 
#
# 1 48.6808 33.9594 14.0591 0.0000 0.0000 0.0000
# 2 33.9594 192.5313 45.9465 0.0000 0.0000 0.0000
# 3 14.0591 45.9465 108.4010 0.0000 0.0000 0.0000
# 4 0.0000 0.0000 0.0000 45.1523 0.0000 0.0000
# 5 0.0000 0.0000 0.0000 0.0000 7.7905 0.0000
# 6 0.0000 0.0000 0.0000 0.0000 0.0000 32.3662
#
#
#
# Elastic Compliance Matrix: (Units=1/GPa)
#
#
# Indices 1 2 3 4 5 6 
#
# 1 0.023626 -0.003823 -0.001444 0.000000 0.000000 0.000000
# 2 -0.003823 0.006397 -0.002216 0.000000 0.000000 0.000000
# 3 -0.001444 -0.002216 0.010351 0.000000 0.000000 0.000000
# 4 0.000000 0.000000 0.000000 0.022147 0.000000 0.000000
# 5 0.000000 0.000000 0.000000 0.000000 0.128361 0.000000
# 6 0.000000 0.000000 0.000000 0.000000 0.000000 0.030896
#
#
# Mechanical properties :
#
#
# Convention : Reuss Voigt Hill
#
# Bulk Modulus (GPa) = 39.35507 59.72703 49.54105
# Shear Modulus (GPa) = 20.39047 34.10500 27.24774
#
# Velocity S-wave (km/s) = 2.93918 3.80121 3.39764
# Velocity P-wave (km/s) = 5.30960 6.67607 6.03166
#
# Compressibility (1/GPa) = 0.02540969
#
# Stress axis : x y z
#
# Youngs Moduli (GPa) = 42.32698 156.32449 96.60547
#
# Poissons Ratio (x) = 0.59757 0.13949
# Poissons Ratio (y) = 0.16180 0.21404
# Poissons Ratio (z) = 0.06112 0.34636
#
# Static dielectric constant tensor:
#      x y z
#    x 1.972890 0.000000 0.000000 
#    y 0.000000 1.986240 0.000000 
#    z 0.000000 0.000000 2.158710 
# 
# From -- ./inp_files/4805.got.cif
#   From: 2010.05.17/outbox.cif.g08.bks.cpg/sg68_3_cif.got.tgz:4805.got - 2010.06.03 18:57:09.
