data_PCOD9508232
_publ_section_title
;
Structure prediction by ZEFSAII (Michael W. Deem and Ramdas Pophale) SiO2 
 PCOD9508232
Probable space group: C C C A
;
_chemical_formula_sum "Si O2"
_cell_formula_units_Z 104
_cell_length_a 15.914310
_cell_length_b 17.138605
_cell_length_c 18.618520
_cell_angle_alpha 90.000000
_cell_angle_beta 90.000000
_cell_angle_gamma 90.000000
_cell_volume 5078.184069
_symmetry_space_group_name_H-M "C C C A"
_symmetry_group_IT_number 68
_space_group.IT_coordinate_system_code '2'
_symmetry_cell_setting 'orthorhombic'
loop_
_space_group_symop_operation_xyz
x,y,z
-x,1/2-y,z
x,1/2-y,1/2-z
-x,y,1/2-z
-x,-y,-z
x,1/2+y,-z
-x,1/2+y,1/2+z
x,-y,1/2+z
1/2+x,1/2+y,z
1/2-x,-y,z
1/2+x,-y,1/2-z
1/2-x,1/2+y,1/2-z
1/2-x,1/2-y,-z
1/2+x,y,-z
1/2-x,y,1/2+z
1/2+x,1/2-y,1/2+z
loop_
_atom_site_type_symbol
_atom_site_label
_atom_site_fract_x
_atom_site_fract_y
_atom_site_fract_z
Si Si1 0.321268 0.842321 0.234895
Si Si2 0.068072 0.932562 0.629922
Si Si3 0.272697 0.187633 0.439993
Si Si4 0.500000 0.448879 0.250000
Si Si5 0.138772 0.674418 0.211016
Si Si6 0.842612 0.530736 0.491251
Si Si7 0.613445 0.901879 0.119055
O O1 0.339681 0.750000 0.250000
O O2 0.360453 0.875491 0.161860
O O3 0.221407 0.851728 0.243709
O O4 0.363026 0.894437 0.297591
O O5 0.097654 0.977188 0.558997
O O6 0.984368 0.883255 0.612312
O O7 0.040891 0.995800 0.689519
O O8 0.250000 0.250000 0.500000
O O9 0.321997 0.203021 0.365257
O O10 0.329973 0.120970 0.474804
O O11 0.182020 0.153294 0.417564
O O12 0.429376 0.393929 0.213060
O O13 0.102325 0.750000 0.250000
O O14 0.750000 0.500000 0.510068
O O15 0.871914 0.484417 0.420488
#
# Coordination Sequence:
#
# PCOD9508232 Si02
#       7
#    16  16  16   8  16  16  16
#     4  10  23  42  69  98 132 173 229 276 347 404
#     4  12  24  40  67 101 131 177 226 281 338 409
#     4  10  23  43  69  94 132 178 231 275 347 411
#     4  12  25  42  65 100 140 170 230 278 347 412
#     4  10  24  43  69  95 135 177 222 284 341 409
#     4  10  24  41  64  92 134 175 225 274 337 417
#     4  10  21  43  62  95 134 173 211 285 342 401
#
# _framework density 20.479762000000001
#
# number of rings (size 3 to 8) (size 9 to 14) (size 15 to 20)
#    0.000    1.538    1.538    1.615    8.615    3.692 
#    0.000    1.538    0.000    0.000    0.000    0.000 
#    0.000    0.000    0.000    0.000    0.000    0.000 
#
# Total GULP energy -290199.919440 kJ/mol
# GULP energy per Si atom -5580.767682 kJ/mol
# Density = 2.043315 g / cm^3
# Si number density = 20.479762 Si / 1000 Ang^3
#
#
#
# Elastic Constant Matrix: (Units=GPa)
#
#
# Indices 1 2 3 4 5 6 
#
# 1 87.8469 18.3784 34.8112 0.0000 0.0000 0.0000
# 2 18.3784 89.9780 59.1815 0.0000 0.0000 0.0000
# 3 34.8112 59.1815 109.4059 0.0000 0.0000 0.0000
# 4 0.0000 0.0000 0.0000 28.8936 0.0000 0.0000
# 5 0.0000 0.0000 0.0000 0.0000 30.7966 0.0000
# 6 0.0000 0.0000 0.0000 0.0000 0.0000 13.3267
#
#
#
# Elastic Compliance Matrix: (Units=1/GPa)
#
#
# Indices 1 2 3 4 5 6 
#
# 1 0.013026 0.000102 -0.004200 0.000000 0.000000 0.000000
# 2 0.000102 0.017253 -0.009365 0.000000 0.000000 0.000000
# 3 -0.004200 -0.009365 0.015542 0.000000 0.000000 0.000000
# 4 0.000000 0.000000 0.000000 0.034610 0.000000 0.000000
# 5 0.000000 0.000000 0.000000 0.000000 0.032471 0.000000
# 6 0.000000 0.000000 0.000000 0.000000 0.000000 0.075037
#
#
# Mechanical properties :
#
#
# Convention : Reuss Voigt Hill
#
# Bulk Modulus (GPa) = 52.92304 56.88589 54.90447
# Shear Modulus (GPa) = 22.60765 26.26071 24.43418
#
# Velocity S-wave (km/s) = 3.32611 3.58477 3.45786
# Velocity P-wave (km/s) = 6.37561 6.70605 6.54291
#
# Compressibility (1/GPa) = 0.01889536
#
# Stress axis : x y z
#
# Youngs Moduli (GPa) = 76.76704 57.96202 64.34022
#
# Poissons Ratio (x) = -0.00589 0.27021
# Poissons Ratio (y) = -0.00780 0.60254
# Poissons Ratio (z) = 0.32240 0.54281
#
# Static dielectric constant tensor:
#      x y z
#    x 1.730270 0.000000 0.000000 
#    y 0.000000 1.748680 0.000000 
#    z 0.000000 0.000000 1.741670 
# 
# From -- ./inp_files/32090.got.cif
#   From: 2010.05.17/outbox.cif.g08.bks.cpg/sg68_17_cif.got.tgz:32090.got - 2010.06.03 18:57:09.
