data_PCOD9508352
_publ_section_title
;
Structure prediction by ZEFSAII (Michael W. Deem and Ramdas Pophale) SiO2 
 PCOD9508352
Probable space group: C C C A
;
_chemical_formula_sum "Si O2"
_cell_formula_units_Z 96
_cell_length_a 8.855002
_cell_length_b 21.127190
_cell_length_c 23.613369
_cell_angle_alpha 90.000000
_cell_angle_beta 90.000000
_cell_angle_gamma 90.000000
_cell_volume 4417.619999
_symmetry_space_group_name_H-M "C C C A"
_symmetry_group_IT_number 68
_space_group.IT_coordinate_system_code '2'
_symmetry_cell_setting 'orthorhombic'
loop_
_space_group_symop_operation_xyz
x,y,z
-x,1/2-y,z
x,1/2-y,1/2-z
-x,y,1/2-z
-x,-y,-z
x,1/2+y,-z
-x,1/2+y,1/2+z
x,-y,1/2+z
1/2+x,1/2+y,z
1/2-x,-y,z
1/2+x,-y,1/2-z
1/2-x,1/2+y,1/2-z
1/2-x,1/2-y,-z
1/2+x,y,-z
1/2-x,y,1/2+z
1/2+x,1/2-y,1/2+z
loop_
_atom_site_type_symbol
_atom_site_label
_atom_site_fract_x
_atom_site_fract_y
_atom_site_fract_z
Si Si1 0.510156 0.892598 0.443431
Si Si2 0.647617 0.782268 0.089121
Si Si3 0.369810 0.450532 0.793293
Si Si4 0.255184 0.658726 0.868924
Si Si5 0.916910 0.011681 0.612405
Si Si6 0.049211 0.652069 0.066400
O O1 0.415657 0.851770 0.397006
O O2 0.679959 0.878505 0.422986
O O3 0.483761 0.862440 0.504348
O O4 0.454030 0.963582 0.438983
O O5 0.500000 0.750000 0.058890
O O6 0.681439 0.728384 0.135257
O O7 0.807933 0.800563 0.061045
O O8 0.500000 0.431296 0.750000
O O9 0.250000 0.500000 0.768297
O O10 0.282786 0.389501 0.818680
O O11 0.454711 0.490960 0.842925
O O12 0.425197 0.672764 0.887869
O O13 0.911648 0.082565 0.589969
O O14 0.750000 0.000000 0.635466
#
# Coordination Sequence:
#
# PCOD9508352 Si02
#       6
#    16  16  16  16  16  16
#     4  10  22  36  58  92 136 186 222 267 319 396
#     4  10  22  39  56  86 129 181 223 261 315 383
#     4  11  23  45  70 102 126 161 217 285 357 414
#     4  10  23  38  62  95 131 169 223 276 320 396
#     4  11  22  39  62  96 131 174 221 281 342 393
#     4  12  21  37  61  93 137 182 224 268 325 388
#
# _framework density 21.731157
#
# number of rings (size 3 to 8) (size 9 to 14) (size 15 to 20)
#    0.000    1.333    3.333    2.500    0.000    7.333 
#    0.000    0.000    0.000   12.500    0.000    1.167 
#    0.000    0.000    0.000    0.000    0.000    0.000 
#
# Total GULP energy -267214.277700 kJ/mol
# GULP energy per Si atom -5566.964119 kJ/mol
# Density = 2.168170 g / cm^3
# Si number density = 21.731157 Si / 1000 Ang^3
#
#
#
# Elastic Constant Matrix: (Units=GPa)
#
#
# Indices 1 2 3 4 5 6 
#
# 1 122.4823 38.9592 19.2009 0.0000 0.0000 0.0000
# 2 38.9592 122.0696 29.2807 0.0000 0.0000 0.0000
# 3 19.2009 29.2807 54.9524 0.0000 0.0000 0.0000
# 4 0.0000 0.0000 0.0000 16.7887 0.0000 0.0000
# 5 0.0000 0.0000 0.0000 0.0000 18.5517 0.0000
# 6 0.0000 0.0000 0.0000 0.0000 0.0000 41.3081
#
#
#
# Elastic Compliance Matrix: (Units=1/GPa)
#
#
# Indices 1 2 3 4 5 6 
#
# 1 0.009257 -0.002498 -0.001904 0.000000 0.000000 0.000000
# 2 -0.002498 0.010067 -0.004491 0.000000 0.000000 0.000000
# 3 -0.001904 -0.004491 0.021256 0.000000 0.000000 0.000000
# 4 0.000000 0.000000 0.000000 0.059564 0.000000 0.000000
# 5 0.000000 0.000000 0.000000 0.000000 0.053904 0.000000
# 6 0.000000 0.000000 0.000000 0.000000 0.000000 0.024208
#
#
# Mechanical properties :
#
#
# Convention : Reuss Voigt Hill
#
# Bulk Modulus (GPa) = 43.87029 52.70954 48.28991
# Shear Modulus (GPa) = 24.55327 29.46725 27.01026
#
# Velocity S-wave (km/s) = 3.36499 3.68637 3.52934
# Velocity P-wave (km/s) = 5.94383 6.51361 6.23523
#
# Compressibility (1/GPa) = 0.02279447
#
# Stress axis : x y z
#
# Youngs Moduli (GPa) = 108.02165 99.33902 47.04614
#
# Poissons Ratio (x) = 0.24814 0.08956
# Poissons Ratio (y) = 0.26983 0.21129
# Poissons Ratio (z) = 0.20563 0.44614
#
# Static dielectric constant tensor:
#      x y z
#    x 1.919180 0.000000 0.000000 
#    y 0.000000 1.819980 0.000000 
#    z 0.000000 0.000000 1.773810 
# 
# From -- ./inp_files/49294.got.cif
#   From: 2010.05.17/outbox.cif.g08.bks.cpg/sg68_25_cif.got.tgz:49294.got - 2010.06.03 18:57:09.
