data_PCOD9508885
_publ_section_title
;
Structure prediction by ZEFSAII (Michael W. Deem and Ramdas Pophale) SiO2 
 PCOD9508885
Probable space group: C C C A
;
_chemical_formula_sum "Si O2"
_cell_formula_units_Z 64
_cell_length_a 18.383712
_cell_length_b 13.361537
_cell_length_c 12.329858
_cell_angle_alpha 90.000000
_cell_angle_beta 90.000000
_cell_angle_gamma 90.000000
_cell_volume 3028.640331
_symmetry_space_group_name_H-M "C C C A"
_symmetry_group_IT_number 68
_space_group.IT_coordinate_system_code '2'
_symmetry_cell_setting 'orthorhombic'
loop_
_space_group_symop_operation_xyz
x,y,z
-x,1/2-y,z
x,1/2-y,1/2-z
-x,y,1/2-z
-x,-y,-z
x,1/2+y,-z
-x,1/2+y,1/2+z
x,-y,1/2+z
1/2+x,1/2+y,z
1/2-x,-y,z
1/2+x,-y,1/2-z
1/2-x,1/2+y,1/2-z
1/2-x,1/2-y,-z
1/2+x,y,-z
1/2-x,y,1/2+z
1/2+x,1/2-y,1/2+z
loop_
_atom_site_type_symbol
_atom_site_label
_atom_site_fract_x
_atom_site_fract_y
_atom_site_fract_z
Si Si1 0.072221 0.968146 0.933388
Si Si2 0.899914 0.250000 0.750000
Si Si3 0.000000 0.918135 0.250000
Si Si4 0.664431 0.208272 0.627449
Si Si5 0.685999 0.864781 0.561016
O O1 0.095131 0.853399 0.917613
O O2 0.141517 0.035046 0.967345
O O3 0.051969 0.010758 0.815914
O O4 0.000000 0.000000 0.000000
O O5 0.947665 0.162761 0.808005
O O6 0.856161 0.195769 0.655668
O O7 0.657241 0.250000 0.750000
O O8 0.683282 0.299757 0.548271
O O9 0.732901 0.132804 0.610304
#
# Coordination Sequence:
#
# PCOD9508885 Si02
#       5
#    16   8   8  16  16
#     4  11  24  41  62  97 135 176 216 271 339 406
#     4   9  16  38  64  86 120 171 220 268 322 407
#     4   9  20  34  59  88 122 166 213 262 327 392
#     4  11  24  43  67  98 132 174 228 288 333 398
#     4  10  22  43  66  93 129 176 224 274 337 402
#
# _framework density 21.131594
#
# number of rings (size 3 to 8) (size 9 to 14) (size 15 to 20)
#    0.000    1.750    1.250    2.250    3.500    3.000 
#    0.000    2.500    0.000    0.000    0.000    0.000 
#    0.000    0.000    0.000    0.000    0.000    0.000 
#
# Total GULP energy -178174.158886 kJ/mol
# GULP energy per Si atom -5567.942465 kJ/mol
# Density = 2.108350 g / cm^3
# Si number density = 21.131594 Si / 1000 Ang^3
#
#
#
# Elastic Constant Matrix: (Units=GPa)
#
#
# Indices 1 2 3 4 5 6 
#
# 1 82.2680 32.2358 14.9429 0.0000 0.0000 0.0000
# 2 32.2358 60.4397 22.7281 0.0000 0.0000 0.0000
# 3 14.9429 22.7281 83.8273 0.0000 0.0000 0.0000
# 4 0.0000 0.0000 0.0000 10.0482 0.0000 0.0000
# 5 0.0000 0.0000 0.0000 0.0000 5.9992 0.0000
# 6 0.0000 0.0000 0.0000 0.0000 0.0000 140.2075
#
#
#
# Elastic Compliance Matrix: (Units=1/GPa)
#
#
# Indices 1 2 3 4 5 6 
#
# 1 0.015392 -0.007992 -0.000577 0.000000 0.000000 0.000000
# 2 -0.007992 0.022574 -0.004696 0.000000 0.000000 0.000000
# 3 -0.000577 -0.004696 0.013305 0.000000 0.000000 0.000000
# 4 0.000000 0.000000 0.000000 0.099520 0.000000 0.000000
# 5 0.000000 0.000000 0.000000 0.000000 0.166689 0.000000
# 6 0.000000 0.000000 0.000000 0.000000 0.000000 0.007132
#
#
# Mechanical properties :
#
#
# Convention : Reuss Voigt Hill
#
# Bulk Modulus (GPa) = 40.41832 40.70541 40.56186
# Shear Modulus (GPa) = 13.91247 41.69286 27.80267
#
# Velocity S-wave (km/s) = 2.56866 4.44668 3.63118
# Velocity P-wave (km/s) = 5.28827 6.75785 6.06772
#
# Compressibility (1/GPa) = 0.02474126
#
# Stress axis : x y z
#
# Youngs Moduli (GPa) = 64.96912 44.29861 75.15825
#
# Poissons Ratio (x) = 0.35406 0.04335
# Poissons Ratio (y) = 0.51926 0.35293
# Poissons Ratio (z) = 0.03747 0.20802
#
# Static dielectric constant tensor:
#      x y z
#    x 1.864440 0.000000 0.000000 
#    y 0.000000 1.554680 0.000000 
#    z 0.000000 0.000000 1.778770 
# 
# From -- ./inp_files/14032.got.cif
#   From: 2010.05.17/outbox.cif.g08.bks.cpg/sg68_8_cif.got.tgz:14032.got - 2010.06.03 18:57:09.
