data_PCOD9508845
_publ_section_title
;
Structure prediction by ZEFSAII (Michael W. Deem and Ramdas Pophale) SiO2 
 PCOD9508845
Probable space group: C C C A
;
_chemical_formula_sum "Si O2"
_cell_formula_units_Z 112
_cell_length_a 12.000450
_cell_length_b 15.388717
_cell_length_c 27.880490
_cell_angle_alpha 90.000000
_cell_angle_beta 90.000000
_cell_angle_gamma 90.000000
_cell_volume 5148.732715
_symmetry_space_group_name_H-M "C C C A"
_symmetry_group_IT_number 68
_space_group.IT_coordinate_system_code '2'
_symmetry_cell_setting 'orthorhombic'
loop_
_space_group_symop_operation_xyz
x,y,z
-x,1/2-y,z
x,1/2-y,1/2-z
-x,y,1/2-z
-x,-y,-z
x,1/2+y,-z
-x,1/2+y,1/2+z
x,-y,1/2+z
1/2+x,1/2+y,z
1/2-x,-y,z
1/2+x,-y,1/2-z
1/2-x,1/2+y,1/2-z
1/2-x,1/2-y,-z
1/2+x,y,-z
1/2-x,y,1/2+z
1/2+x,1/2-y,1/2+z
loop_
_atom_site_type_symbol
_atom_site_label
_atom_site_fract_x
_atom_site_fract_y
_atom_site_fract_z
Si Si1 0.748619 0.906912 0.952169
Si Si2 0.029066 0.340584 0.429311
Si Si3 0.882734 0.988323 0.279296
Si Si4 0.125963 0.254741 0.593914
Si Si5 0.844470 0.708617 0.199391
Si Si6 0.208139 0.907264 0.937703
Si Si7 0.094134 0.680871 0.821147
O O1 0.878984 0.887939 0.960210
O O2 0.687673 0.833160 0.922412
O O3 0.750000 0.000000 0.926745
O O4 0.694814 0.911456 0.004645
O O5 0.087598 0.319150 0.378829
O O6 0.000000 0.250000 0.453852
O O7 0.914313 0.387768 0.418075
O O8 0.874542 0.893777 0.304581
O O9 0.000000 0.978917 0.250000
O O10 0.750000 0.000000 0.260568
O O11 0.908273 0.079403 0.306307
O O12 0.118947 0.258544 0.651621
O O13 0.202944 0.333124 0.575230
O O14 0.000000 0.250000 0.575128
O O15 0.880404 0.750000 0.250000
O O16 0.711147 0.715081 0.197171
O O17 0.250000 0.000000 0.920218
O O18 0.000000 0.750000 0.805306
#
# Coordination Sequence:
#
# PCOD9508845 Si02
#       7
#    16  16  16  16  16  16  16
#     4  11  26  43  73 102 140 189 234 285 360 419
#     4  11  22  44  72  97 142 184 233 289 335 424
#     4  10  25  44  69 104 139 181 241 293 359 428
#     4  12  27  45  70 103 141 186 234 291 359 429
#     4  11  26  46  68 100 144 184 236 296 358 427
#     4  11  27  46  67 109 143 183 235 296 353 417
#     4  10  22  42  72 103 134 183 243 289 348 416
#
# _framework density 21.752927
#
# number of rings (size 3 to 8) (size 9 to 14) (size 15 to 20)
#    0.000    1.143    2.857    1.286   12.000    1.143 
#    0.000    0.000    0.000    0.000    0.000    0.000 
#    0.000    0.000    0.000    0.000    0.000    0.000 
#
# Total GULP energy -312371.550961 kJ/mol
# GULP energy per Si atom -5578.063410 kJ/mol
# Density = 2.170342 g / cm^3
# Si number density = 21.752927 Si / 1000 Ang^3
#
#
#
# Elastic Constant Matrix: (Units=GPa)
#
#
# Indices 1 2 3 4 5 6 
#
# 1 134.6068 45.0498 5.5898 0.0000 0.0000 0.0000
# 2 45.0498 134.5496 8.2084 0.0000 0.0000 0.0000
# 3 5.5898 8.2084 66.3604 0.0000 0.0000 0.0000
# 4 0.0000 0.0000 0.0000 -11.3382 0.0000 0.0000
# 5 0.0000 0.0000 0.0000 0.0000 32.4124 0.0000
# 6 0.0000 0.0000 0.0000 0.0000 0.0000 34.7091
#
#
#
# Elastic Compliance Matrix: (Units=1/GPa)
#
#
# Indices 1 2 3 4 5 6 
#
# 1 0.008375 -0.002782 -0.000361 0.000000 0.000000 0.000000
# 2 -0.002782 0.008413 -0.000806 0.000000 0.000000 0.000000
# 3 -0.000361 -0.000806 0.015199 0.000000 0.000000 0.000000
# 4 0.000000 0.000000 0.000000 -0.088197 0.000000 0.000000
# 5 0.000000 0.000000 0.000000 0.000000 0.030852 0.000000
# 6 0.000000 0.000000 0.000000 0.000000 0.000000 0.028811
#
#
# Mechanical properties :
#
#
# Convention : Reuss Voigt Hill
#
# Bulk Modulus (GPa) = 41.51448 50.35698 45.93573
# Shear Modulus (GPa) = 257.96866 29.60123 143.78495
#
# Velocity S-wave (km/s) = 10.90173 3.69289 8.13896
# Velocity P-wave (km/s) = 13.32628 6.43297 10.46357
#
# Compressibility (1/GPa) = 0.02408798
#
# Stress axis : x y z
#
# Youngs Moduli (GPa) = 119.40060 118.86504 65.79209
#
# Poissons Ratio (x) = 0.33070 0.02377
# Poissons Ratio (y) = 0.33219 0.05305
# Poissons Ratio (z) = 0.04314 0.09584
#
# Static dielectric constant tensor:
#      x y z
#    x 1.797240 0.000000 0.000000 
#    y 0.000000 1.837440 0.000000 
#    z 0.000000 0.000000 1.796020 
# 
# From -- ./inp_files/54833.got.cif
#   From: 2010.05.17/outbox.cif.g08.bks.cpg/sg68_28_cif.got.tgz:54833.got - 2010.06.03 18:57:09.
