data_PCOD9508514
_publ_section_title
;
Structure prediction by ZEFSAII (Michael W. Deem and Ramdas Pophale) SiO2 
 PCOD9508514
Probable space group: C C C A
;
_chemical_formula_sum "Si O2"
_cell_formula_units_Z 92
_cell_length_a 13.939710
_cell_length_b 19.333322
_cell_length_c 16.934042
_cell_angle_alpha 90.000000
_cell_angle_beta 90.000000
_cell_angle_gamma 90.000000
_cell_volume 4563.739594
_symmetry_space_group_name_H-M "C C C A"
_symmetry_group_IT_number 68
_space_group.IT_coordinate_system_code '2'
_symmetry_cell_setting 'orthorhombic'
loop_
_space_group_symop_operation_xyz
x,y,z
-x,1/2-y,z
x,1/2-y,1/2-z
-x,y,1/2-z
-x,-y,-z
x,1/2+y,-z
-x,1/2+y,1/2+z
x,-y,1/2+z
1/2+x,1/2+y,z
1/2-x,-y,z
1/2+x,-y,1/2-z
1/2-x,1/2+y,1/2-z
1/2-x,1/2-y,-z
1/2+x,y,-z
1/2-x,y,1/2+z
1/2+x,1/2-y,1/2+z
loop_
_atom_site_type_symbol
_atom_site_label
_atom_site_fract_x
_atom_site_fract_y
_atom_site_fract_z
Si Si1 0.662891 0.694635 0.320034
Si Si2 0.100477 0.716841 0.968376
Si Si3 0.000000 0.250000 0.750000
Si Si4 0.637171 0.012004 0.057389
Si Si5 0.364900 0.658101 0.634211
Si Si6 0.949083 0.933765 0.905214
Si Si7 0.000000 0.400849 0.250000
O O1 0.672634 0.750000 0.250000
O O2 0.646186 0.733568 0.402956
O O3 0.761292 0.652705 0.325431
O O4 0.572206 0.648233 0.297505
O O5 0.078392 0.644697 0.925045
O O6 0.000000 0.750000 0.992035
O O7 0.149664 0.699977 0.051667
O O8 0.935446 0.200457 0.692682
O O9 0.604658 0.081462 0.104788
O O10 0.750000 0.000000 0.071680
O O11 0.560351 0.952670 0.077483
O O12 0.617614 0.023658 0.964341
O O13 0.939396 0.944841 0.812200
#
# Coordination Sequence:
#
# PCOD9508514 Si02
#       7
#    16  16   4  16  16  16   8
#     4  12  21  37  62 102 132 162 208 274 332 375
#     4  11  20  38  64  97 125 173 209 265 329 381
#     4  12  24  46  64  96 134 172 218 276 320 402
#     4  10  23  46  64  89 129 175 218 262 313 397
#     4  11  25  42  67  92 134 175 217 264 332 390
#     4  10  22  39  64  92 122 170 215 257 325 381
#     4  12  21  37  64  95 132 155 210 276 324 375
#
# _framework density 20.158906999999999
#
# number of rings (size 3 to 8) (size 9 to 14) (size 15 to 20)
#    0.000    1.043    5.217    1.826    0.000    0.696 
#    0.000    7.826    0.000    0.000    0.000    0.000 
#    0.000    0.000    0.000    0.000    0.000    0.000 
#
# Total GULP energy -256547.496794 kJ/mol
# GULP energy per Si atom -5577.119496 kJ/mol
# Density = 2.011302 g / cm^3
# Si number density = 20.158907 Si / 1000 Ang^3
#
#
#
# Elastic Constant Matrix: (Units=GPa)
#
#
# Indices 1 2 3 4 5 6 
#
# 1 101.4976 22.0074 29.4373 0.0000 0.0000 0.0000
# 2 22.0074 49.3595 34.7641 0.0000 0.0000 0.0000
# 3 29.4373 34.7641 130.6404 0.0000 0.0000 0.0000
# 4 0.0000 0.0000 0.0000 109.7465 0.0000 0.0000
# 5 0.0000 0.0000 0.0000 0.0000 -15.7662 0.0000
# 6 0.0000 0.0000 0.0000 0.0000 0.0000 16.0236
#
#
#
# Elastic Compliance Matrix: (Units=1/GPa)
#
#
# Indices 1 2 3 4 5 6 
#
# 1 0.011129 -0.003933 -0.001461 0.000000 0.000000 0.000000
# 2 -0.003933 0.026322 -0.006118 0.000000 0.000000 0.000000
# 3 -0.001461 -0.006118 0.009612 0.000000 0.000000 0.000000
# 4 0.000000 0.000000 0.000000 0.009112 0.000000 0.000000
# 5 0.000000 0.000000 0.000000 0.000000 -0.063427 0.000000
# 6 0.000000 0.000000 0.000000 0.000000 0.000000 0.062408
#
#
# Mechanical properties :
#
#
# Convention : Reuss Voigt Hill
#
# Bulk Modulus (GPa) = 41.59994 50.43503 46.01749
# Shear Modulus (GPa) = 58.00924 35.02003 46.51464
#
# Velocity S-wave (km/s) = 5.37014 4.17249 4.80875
# Velocity P-wave (km/s) = 7.68974 6.94881 7.32864
#
# Compressibility (1/GPa) = 0.02403849
#
# Stress axis : x y z
#
# Youngs Moduli (GPa) = 89.85547 37.99082 104.03724
#
# Poissons Ratio (x) = 0.14941 0.15201
# Poissons Ratio (y) = 0.35339 0.63653
# Poissons Ratio (z) = 0.13129 0.23244
#
# Static dielectric constant tensor:
#      x y z
#    x 1.695800 0.000000 0.000000 
#    y 0.000000 1.711830 0.000000 
#    z 0.000000 0.000000 1.751460 
# 
# From -- ./inp_files/29696.got.cif
#   From: 2010.05.17/outbox.cif.g08.bks.cpg/sg68_15_cif.got.tgz:29696.got - 2010.06.03 18:57:09.
