data_PCOD9508410
_publ_section_title
;
Structure prediction by ZEFSAII (Michael W. Deem and Ramdas Pophale) SiO2 
 PCOD9508410
Probable space group: C C C A
;
_chemical_formula_sum "Si O2"
_cell_formula_units_Z 116
_cell_length_a 21.560805
_cell_length_b 26.791503
_cell_length_c 9.164893
_cell_angle_alpha 90.000000
_cell_angle_beta 90.000000
_cell_angle_gamma 90.000000
_cell_volume 5294.067190
_symmetry_space_group_name_H-M "C C C A"
_symmetry_group_IT_number 68
_space_group.IT_coordinate_system_code '2'
_symmetry_cell_setting 'orthorhombic'
loop_
_space_group_symop_operation_xyz
x,y,z
-x,1/2-y,z
x,1/2-y,1/2-z
-x,y,1/2-z
-x,-y,-z
x,1/2+y,-z
-x,1/2+y,1/2+z
x,-y,1/2+z
1/2+x,1/2+y,z
1/2-x,-y,z
1/2+x,-y,1/2-z
1/2-x,1/2+y,1/2-z
1/2-x,1/2-y,-z
1/2+x,y,-z
1/2-x,y,1/2+z
1/2+x,1/2-y,1/2+z
loop_
_atom_site_type_symbol
_atom_site_label
_atom_site_fract_x
_atom_site_fract_y
_atom_site_fract_z
Si Si1 0.428650 0.527004 0.583471
Si Si2 0.074385 0.442959 0.890454
Si Si3 0.000000 0.750000 0.250000
Si Si4 0.827313 0.220287 0.032639
Si Si5 0.551333 0.114850 0.871101
Si Si6 0.674407 0.839733 0.440860
Si Si7 0.054759 0.670042 0.462134
Si Si8 0.278037 0.827905 0.759212
O O1 0.398378 0.541273 0.736254
O O2 0.502872 0.536598 0.608516
O O3 0.403922 0.473521 0.531198
O O4 0.422872 0.565989 0.452257
O O5 0.077862 0.383619 0.903875
O O6 0.959133 0.787374 0.345562
O O7 0.893010 0.194280 0.063390
O O8 0.813421 0.205849 0.862023
O O9 0.828599 0.279334 0.054309
O O10 0.773435 0.199569 0.138260
O O11 0.500000 0.100034 0.750000
O O12 0.615252 0.143005 0.849877
O O13 0.510229 0.153326 0.967083
O O14 0.678888 0.852421 0.615070
O O15 0.734830 0.858912 0.353021
#
# Coordination Sequence:
#
# PCOD9508410 Si02
#       8
#    16  16   4  16  16  16  16  16
#     4   9  19  34  57  83 117 153 195 254 292 352
#     4   9  19  35  57  84 114 155 208 243 294 354
#     4  12  24  40  50  84 128 164 196 226 290 382
#     4  11  21  36  60  82 118 156 204 254 295 353
#     4  11  24  38  57  92 128 159 192 243 317 379
#     4  11  21  38  59  83 118 159 205 251 298 353
#     4  11  24  36  58  87 125 164 197 232 305 382
#     4  10  22  38  58  84 109 156 215 264 292 331
#
# _framework density 21.91132
#
# number of rings (size 3 to 8) (size 9 to 14) (size 15 to 20)
#    0.000    1.655    0.000    6.621   11.586    0.000 
#    0.000    2.414    0.000    0.000    0.000    5.793 
#    0.000    0.000    0.000    0.000    0.000    0.000 
#
# Total GULP energy -322970.068088 kJ/mol
# GULP energy per Si atom -5568.449450 kJ/mol
# Density = 2.186145 g / cm^3
# Si number density = 21.911320 Si / 1000 Ang^3
#
#
#
# Elastic Constant Matrix: (Units=GPa)
#
#
# Indices 1 2 3 4 5 6 
#
# 1 51.4061 10.4771 -0.0310 0.0000 0.0000 0.0000
# 2 10.4771 95.6664 29.9561 0.0000 0.0000 0.0000
# 3 -0.0310 29.9561 100.7970 0.0000 0.0000 0.0000
# 4 0.0000 0.0000 0.0000 -101.6438 0.0000 0.0000
# 5 0.0000 0.0000 0.0000 0.0000 -3.3160 0.0000
# 6 0.0000 0.0000 0.0000 0.0000 0.0000 9.4929
#
#
#
# Elastic Compliance Matrix: (Units=1/GPa)
#
#
# Indices 1 2 3 4 5 6 
#
# 1 0.019945 -0.002411 0.000723 0.000000 0.000000 0.000000
# 2 -0.002411 0.011817 -0.003513 0.000000 0.000000 0.000000
# 3 0.000723 -0.003513 0.010965 0.000000 0.000000 0.000000
# 4 0.000000 0.000000 0.000000 -0.009838 0.000000 0.000000
# 5 0.000000 0.000000 0.000000 0.000000 -0.301568 0.000000
# 6 0.000000 0.000000 0.000000 0.000000 0.000000 0.105342
#
#
# Mechanical properties :
#
#
# Convention : Reuss Voigt Hill
#
# Bulk Modulus (GPa) = 30.93544 36.51932 33.72738
# Shear Modulus (GPa) = -35.17138 -5.26222 -20.21680
#
# Velocity S-wave (km/s) = -4.01080 -1.55139 -3.04084
# Velocity P-wave (km/s) = 2.70178 3.67341 1.75988
#
# Compressibility (1/GPa) = 0.03232538
#
# Stress axis : x y z
#
# Youngs Moduli (GPa) = 50.13867 84.62453 91.19867
#
# Poissons Ratio (x) = 0.20399 -0.06589
# Poissons Ratio (y) = 0.12086 0.32035
# Poissons Ratio (z) = -0.03623 0.29725
#
# Static dielectric constant tensor:
#      x y z
#    x 2.067480 0.000000 0.000000 
#    y 0.000000 1.813130 0.000000 
#    z 0.000000 0.000000 1.892460 
# 
# From -- ./inp_files/8373.got.cif
#   From: 2010.05.17/outbox.cif.g08.bks.cpg/sg68_5_cif.got.tgz:8373.got - 2010.06.03 18:57:09.
