data_PCOD9508949
_publ_section_title
;
Structure prediction by ZEFSAII (Michael W. Deem and Ramdas Pophale) SiO2 
 PCOD9508949
Probable space group: C C C A
;
_chemical_formula_sum "Si O2"
_cell_formula_units_Z 84
_cell_length_a 21.025096
_cell_length_b 13.519007
_cell_length_c 14.756055
_cell_angle_alpha 90.000000
_cell_angle_beta 90.000000
_cell_angle_gamma 90.000000
_cell_volume 4194.237759
_symmetry_space_group_name_H-M "C C C A"
_symmetry_group_IT_number 68
_space_group.IT_coordinate_system_code '2'
_symmetry_cell_setting 'orthorhombic'
loop_
_space_group_symop_operation_xyz
x,y,z
-x,1/2-y,z
x,1/2-y,1/2-z
-x,y,1/2-z
-x,-y,-z
x,1/2+y,-z
-x,1/2+y,1/2+z
x,-y,1/2+z
1/2+x,1/2+y,z
1/2-x,-y,z
1/2+x,-y,1/2-z
1/2-x,1/2+y,1/2-z
1/2-x,1/2-y,-z
1/2+x,y,-z
1/2-x,y,1/2+z
1/2+x,1/2-y,1/2+z
loop_
_atom_site_type_symbol
_atom_site_label
_atom_site_fract_x
_atom_site_fract_y
_atom_site_fract_z
Si Si1 0.633799 0.548307 0.628525
Si Si2 0.321298 0.231439 0.028877
Si Si3 0.494870 0.368576 0.083213
Si Si4 0.500000 0.250000 0.750000
Si Si5 0.878799 0.848884 0.195164
Si Si6 0.083303 0.344057 0.406828
O O1 0.672549 0.618495 0.561490
O O2 0.560890 0.582970 0.609825
O O3 0.651725 0.579771 0.730561
O O4 0.632617 0.432418 0.611957
O O5 0.337697 0.304715 0.113044
O O6 0.250000 0.250000 0.000000
O O7 0.375441 0.257289 0.954375
O O8 0.500000 0.250000 0.094185
O O9 0.439411 0.401470 0.151043
O O10 0.468661 0.380607 0.981251
O O11 0.454463 0.188041 0.682535
O O12 0.898881 0.750000 0.250000
#
# Coordination Sequence:
#
# PCOD9508949 Si02
#       6
#    16  16  16   4  16  16
#     4  11  21  36  65  96 122 158 214 254 320 384
#     4  10  22  44  66  83 124 167 218 272 315 362
#     4  11  17  34  60  91 126 156 199 253 321 371
#     4  12  24  44  56  96 148 160 204 246 352 388
#     4   9  18  32  60  94 117 149 204 263 308 364
#     4  11  24  40  60  93 130 172 198 258 321 405
#
# _framework density 20.027477999999999
#
# number of rings (size 3 to 8) (size 9 to 14) (size 15 to 20)
#    0.000    1.524    6.667    1.143    2.667    0.762 
#    8.571    0.000    0.000    0.000    0.000    0.000 
#    0.000    0.000    0.000    0.000    0.000    0.000 
#
# Total GULP energy -234440.606015 kJ/mol
# GULP energy per Si atom -5581.919191 kJ/mol
# Density = 1.998189 g / cm^3
# Si number density = 20.027478 Si / 1000 Ang^3
#
#
#
# Elastic Constant Matrix: (Units=GPa)
#
#
# Indices 1 2 3 4 5 6 
#
# 1 88.7896 -0.6716 38.9374 0.0000 0.0000 0.0000
# 2 -0.6716 61.4818 24.0365 0.0000 0.0000 0.0000
# 3 38.9374 24.0365 121.2249 0.0000 0.0000 0.0000
# 4 0.0000 0.0000 0.0000 7.0079 0.0000 0.0000
# 5 0.0000 0.0000 0.0000 0.0000 7.6449 0.0000
# 6 0.0000 0.0000 0.0000 0.0000 0.0000 12.8575
#
#
#
# Elastic Compliance Matrix: (Units=1/GPa)
#
#
# Indices 1 2 3 4 5 6 
#
# 1 0.013326 0.001972 -0.004671 0.000000 0.000000 0.000000
# 2 0.001972 0.017924 -0.004187 0.000000 0.000000 0.000000
# 3 -0.004671 -0.004187 0.010580 0.000000 0.000000 0.000000
# 4 0.000000 0.000000 0.000000 0.142696 0.000000 0.000000
# 5 0.000000 0.000000 0.000000 0.000000 0.130806 0.000000
# 6 0.000000 0.000000 0.000000 0.000000 0.000000 0.077776
#
#
# Mechanical properties :
#
#
# Convention : Reuss Voigt Hill
#
# Bulk Modulus (GPa) = 35.64305 44.01120 39.82712
# Shear Modulus (GPa) = 12.01252 19.44832 15.73042
#
# Velocity S-wave (km/s) = 2.45174 3.11960 2.80561
# Velocity P-wave (km/s) = 5.08433 5.91599 5.51586
#
# Compressibility (1/GPa) = 0.02805596
#
# Stress axis : x y z
#
# Youngs Moduli (GPa) = 75.04110 55.79257 94.51977
#
# Poissons Ratio (x) = -0.11001 0.44153
# Poissons Ratio (y) = -0.14797 0.39578
# Poissons Ratio (z) = 0.35054 0.23362
#
# Static dielectric constant tensor:
#      x y z
#    x 1.694080 0.000000 0.000000 
#    y 0.000000 1.754990 0.000000 
#    z 0.000000 0.000000 1.755110 
# 
# From -- ./inp_files/24379.got.cif
#   From: 2010.05.17/outbox.cif.g08.bks.cpg/sg68_13_cif.got.tgz:24379.got - 2010.06.03 18:57:09.
