data_PCOD9508091
_publ_section_title
;
Structure prediction by ZEFSAII (Michael W. Deem and Ramdas Pophale) SiO2 
 PCOD9508091
Probable space group: C C C A
;
_chemical_formula_sum "Si O2"
_cell_formula_units_Z 56
_cell_length_a 18.331682
_cell_length_b 7.888453
_cell_length_c 17.058018
_cell_angle_alpha 90.000000
_cell_angle_beta 90.000000
_cell_angle_gamma 90.000000
_cell_volume 2466.736304
_symmetry_space_group_name_H-M "C C C A"
_symmetry_group_IT_number 68
_space_group.IT_coordinate_system_code '2'
_symmetry_cell_setting 'orthorhombic'
loop_
_space_group_symop_operation_xyz
x,y,z
-x,1/2-y,z
x,1/2-y,1/2-z
-x,y,1/2-z
-x,-y,-z
x,1/2+y,-z
-x,1/2+y,1/2+z
x,-y,1/2+z
1/2+x,1/2+y,z
1/2-x,-y,z
1/2+x,-y,1/2-z
1/2-x,1/2+y,1/2-z
1/2-x,1/2-y,-z
1/2+x,y,-z
1/2-x,y,1/2+z
1/2+x,1/2-y,1/2+z
loop_
_atom_site_type_symbol
_atom_site_label
_atom_site_fract_x
_atom_site_fract_y
_atom_site_fract_z
Si Si1 0.452393 0.410313 0.566671
Si Si2 0.081296 0.430181 0.718863
Si Si3 0.287287 0.319826 0.577686
Si Si4 0.683926 0.750000 0.250000
O O1 0.500000 0.250000 0.598145
O O2 0.500000 0.500000 0.500000
O O3 0.432014 0.560174 0.626611
O O4 0.372387 0.332705 0.552991
O O5 0.107483 0.250000 0.750000
O O6 0.134221 0.582818 0.740760
O O7 0.000000 0.460545 0.750000
O O8 0.250000 0.500000 0.591918
O O9 0.250000 0.250000 0.500000
O O10 0.279348 0.232138 0.663728
#
# Coordination Sequence:
#
# PCOD9508091 Si02
#       4
#    16  16  16   8
#     4  11  24  44  73 106 146 187 243 302 372 439
#     4  10  21  40  71 106 141 189 245 301 369 437
#     4  11  25  49  71 107 147 194 244 304 377 441
#     4  10  23  48  72  98 149 200 248 306 370 452
#
# _framework density 22.702062000000002
#
# number of rings (size 3 to 8) (size 9 to 14) (size 15 to 20)
#    0.000    1.429    0.000    5.571    4.000    1.143 
#   20.571    0.000    0.000    0.000    0.000    0.000 
#    0.000    0.000    0.000    0.000    0.000    0.000 
#
# Total GULP energy -156274.950977 kJ/mol
# GULP energy per Si atom -5581.248249 kJ/mol
# Density = 2.265039 g / cm^3
# Si number density = 22.702062 Si / 1000 Ang^3
#
#
#
# Elastic Constant Matrix: (Units=GPa)
#
#
# Indices 1 2 3 4 5 6 
#
# 1 127.4932 15.8437 57.8368 0.0000 0.0000 0.0000
# 2 15.8437 116.1199 64.0221 0.0000 0.0000 0.0000
# 3 57.8368 64.0221 212.8454 0.0000 0.0000 0.0000
# 4 0.0000 0.0000 0.0000 23.0189 0.0000 0.0000
# 5 0.0000 0.0000 0.0000 0.0000 36.7069 0.0000
# 6 0.0000 0.0000 0.0000 0.0000 0.0000 58.9654
#
#
#
# Elastic Compliance Matrix: (Units=1/GPa)
#
#
# Indices 1 2 3 4 5 6 
#
# 1 0.008948 0.000143 -0.002475 0.000000 0.000000 0.000000
# 2 0.000143 0.010326 -0.003145 0.000000 0.000000 0.000000
# 3 -0.002475 -0.003145 0.006317 0.000000 0.000000 0.000000
# 4 0.000000 0.000000 0.000000 0.043443 0.000000 0.000000
# 5 0.000000 0.000000 0.000000 0.000000 0.027243 0.000000
# 6 0.000000 0.000000 0.000000 0.000000 0.000000 0.016959
#
#
# Mechanical properties :
#
#
# Convention : Reuss Voigt Hill
#
# Bulk Modulus (GPa) = 68.31180 81.31821 74.81500
# Shear Modulus (GPa) = 38.73930 44.98863 41.86397
#
# Velocity S-wave (km/s) = 4.13537 4.45646 4.29891
# Velocity P-wave (km/s) = 7.27720 7.89794 7.59392
#
# Compressibility (1/GPa) = 0.01463876
#
# Stress axis : x y z
#
# Youngs Moduli (GPa) = 111.75220 96.84105 158.31055
#
# Poissons Ratio (x) = -0.01389 0.39177
# Poissons Ratio (y) = -0.01603 0.49789
# Poissons Ratio (z) = 0.27655 0.30457
#
# Static dielectric constant tensor:
#      x y z
#    x 1.867170 0.000000 0.000000 
#    y 0.000000 1.850030 0.000000 
#    z 0.000000 0.000000 2.161330 
# 
# From -- ./inp_files/24134.got.cif
#   From: 2010.05.17/outbox.cif.g08.bks.cpg/sg68_13_cif.got.tgz:24134.got - 2010.06.03 18:57:09.
