data_PCOD9508502
_publ_section_title
;
Structure prediction by ZEFSAII (Michael W. Deem and Ramdas Pophale) SiO2 
 PCOD9508502
Probable space group: C C C A
;
_chemical_formula_sum "Si O2"
_cell_formula_units_Z 80
_cell_length_a 25.390392
_cell_length_b 11.337135
_cell_length_c 13.349078
_cell_angle_alpha 90.000000
_cell_angle_beta 90.000000
_cell_angle_gamma 90.000000
_cell_volume 3842.589527
_symmetry_space_group_name_H-M "C C C A"
_symmetry_group_IT_number 68
_space_group.IT_coordinate_system_code '2'
_symmetry_cell_setting 'orthorhombic'
loop_
_space_group_symop_operation_xyz
x,y,z
-x,1/2-y,z
x,1/2-y,1/2-z
-x,y,1/2-z
-x,-y,-z
x,1/2+y,-z
-x,1/2+y,1/2+z
x,-y,1/2+z
1/2+x,1/2+y,z
1/2-x,-y,z
1/2+x,-y,1/2-z
1/2-x,1/2+y,1/2-z
1/2-x,1/2-y,-z
1/2+x,y,-z
1/2-x,y,1/2+z
1/2+x,1/2-y,1/2+z
loop_
_atom_site_type_symbol
_atom_site_label
_atom_site_fract_x
_atom_site_fract_y
_atom_site_fract_z
Si Si1 0.500000 0.750000 0.084053
Si Si2 0.131692 0.368685 0.808049
Si Si3 0.556452 0.557208 0.523954
Si Si4 0.279852 0.874095 0.521664
Si Si5 0.926337 0.750000 0.750000
Si Si6 0.138997 0.950071 0.861430
O O1 0.542465 0.811798 0.014511
O O2 0.537259 0.685091 0.165957
O O3 0.116106 0.250000 0.750000
O O4 0.177443 0.350628 0.890424
O O5 0.151927 0.454855 0.721650
O O6 0.082965 0.427740 0.868360
O O7 0.500000 0.500000 0.500000
O O8 0.599070 0.502539 0.447495
O O9 0.250000 0.750000 0.500000
O O10 0.311195 0.902468 0.420094
O O11 0.250000 0.000000 0.545082
O O12 0.891417 0.654993 0.805915
#
# Coordination Sequence:
#
# PCOD9508502 Si02
#       6
#     8  16  16  16   8  16
#     4   9  18  34  57  90 124 172 217 256 315 392
#     4  11  25  43  67  99 136 178 226 285 344 415
#     4  10  22  39  62  93 137 177 216 271 330 398
#     4  11  26  47  71  99 135 176 230 298 359 419
#     4   9  18  36  64  88 124 174 218 264 327 400
#     4  10  23  42  64  96 131 170 224 277 338 408
#
# _framework density 20.819292999999998
#
# number of rings (size 3 to 8) (size 9 to 14) (size 15 to 20)
#    0.000    1.800    0.000    2.400    5.600    4.800 
#    0.000    0.000    0.000    0.000    0.000    0.000 
#    0.000    0.000    0.000    0.000    0.000    0.000 
#
# Total GULP energy -222777.419563 kJ/mol
# GULP energy per Si atom -5569.435489 kJ/mol
# Density = 2.077191 g / cm^3
# Si number density = 20.819293 Si / 1000 Ang^3
#
#
#
# Elastic Constant Matrix: (Units=GPa)
#
#
# Indices 1 2 3 4 5 6 
#
# 1 91.4069 44.1783 43.8338 0.0000 0.0000 0.0000
# 2 44.1783 84.9780 52.1046 0.0000 0.0000 0.0000
# 3 43.8338 52.1046 131.3329 0.0000 0.0000 0.0000
# 4 0.0000 0.0000 0.0000 17.8024 0.0000 0.0000
# 5 0.0000 0.0000 0.0000 0.0000 49.6194 0.0000
# 6 0.0000 0.0000 0.0000 0.0000 0.0000 17.4810
#
#
#
# Elastic Compliance Matrix: (Units=1/GPa)
#
#
# Indices 1 2 3 4 5 6 
#
# 1 0.015240 -0.006348 -0.002568 0.000000 0.000000 0.000000
# 2 -0.006348 0.018195 -0.005100 0.000000 0.000000 0.000000
# 3 -0.002568 -0.005100 0.010495 0.000000 0.000000 0.000000
# 4 0.000000 0.000000 0.000000 0.056172 0.000000 0.000000
# 5 0.000000 0.000000 0.000000 0.000000 0.020153 0.000000
# 6 0.000000 0.000000 0.000000 0.000000 0.000000 0.057205
#
#
# Mechanical properties :
#
#
# Convention : Reuss Voigt Hill
#
# Bulk Modulus (GPa) = 62.90333 65.32792 64.11562
# Shear Modulus (GPa) = 23.72017 28.15398 25.93707
#
# Velocity S-wave (km/s) = 3.37907 3.68136 3.53345
# Velocity P-wave (km/s) = 6.74564 7.03680 6.89276
#
# Compressibility (1/GPa) = 0.01589741
#
# Stress axis : x y z
#
# Youngs Moduli (GPa) = 65.61797 54.95980 95.28747
#
# Poissons Ratio (x) = 0.34891 0.24468
# Poissons Ratio (y) = 0.41657 0.48595
# Poissons Ratio (z) = 0.16849 0.28029
#
# Static dielectric constant tensor:
#      x y z
#    x 1.761180 0.000000 0.000000 
#    y 0.000000 1.909360 0.000000 
#    z 0.000000 0.000000 1.735170 
# 
# From -- ./inp_files/25200.got.cif
#   From: 2010.05.17/outbox.cif.g08.bks.cpg/sg68_13_cif.got.tgz:25200.got - 2010.06.03 18:57:09.
