data_PCOD9508623
_publ_section_title
;
Structure prediction by ZEFSAII (Michael W. Deem and Ramdas Pophale) SiO2 
 PCOD9508623
Probable space group: C C C A
;
_chemical_formula_sum "Si O2"
_cell_formula_units_Z 84
_cell_length_a 15.180709
_cell_length_b 24.000633
_cell_length_c 9.882484
_cell_angle_alpha 90.000000
_cell_angle_beta 90.000000
_cell_angle_gamma 90.000000
_cell_volume 3600.649696
_symmetry_space_group_name_H-M "C C C A"
_symmetry_group_IT_number 68
_space_group.IT_coordinate_system_code '2'
_symmetry_cell_setting 'orthorhombic'
loop_
_space_group_symop_operation_xyz
x,y,z
-x,1/2-y,z
x,1/2-y,1/2-z
-x,y,1/2-z
-x,-y,-z
x,1/2+y,-z
-x,1/2+y,1/2+z
x,-y,1/2+z
1/2+x,1/2+y,z
1/2-x,-y,z
1/2+x,-y,1/2-z
1/2-x,1/2+y,1/2-z
1/2-x,1/2-y,-z
1/2+x,y,-z
1/2-x,y,1/2+z
1/2+x,1/2-y,1/2+z
loop_
_atom_site_type_symbol
_atom_site_label
_atom_site_fract_x
_atom_site_fract_y
_atom_site_fract_z
Si Si1 0.587314 0.064263 0.546991
Si Si2 0.500000 0.750000 0.250000
Si Si3 0.156364 0.184989 0.395714
Si Si4 0.841888 0.775707 0.123861
Si Si5 0.150110 0.981001 0.237965
Si Si6 0.562582 0.616867 0.882003
O O1 0.643267 0.120516 0.570923
O O2 0.622595 0.030302 0.416500
O O3 0.492370 0.085855 0.497680
O O4 0.593117 0.026363 0.679556
O O5 0.568511 0.709548 0.327574
O O6 0.169022 0.223525 0.526822
O O7 0.249610 0.197533 0.323237
O O8 0.892035 0.750000 0.250000
O O9 0.896807 0.826304 0.062557
O O10 0.135901 0.924015 0.321243
O O11 0.250000 0.000000 0.242966
O O12 0.500000 0.626994 0.750000
#
# Coordination Sequence:
#
# PCOD9508623 Si02
#       6
#    16   4  16  16  16  16
#     4  11  24  45  67 103 139 190 239 297 357 430
#     4  12  24  52  66 112 146 180 232 286 374 432
#     4  11  25  43  72 104 145 184 231 293 362 430
#     4  11  22  43  72 107 142 185 236 294 358 437
#     4  11  23  43  69  99 140 185 244 297 359 422
#     4  10  22  40  66  98 137 183 239 289 353 425
#
# _framework density 23.329124
#
# number of rings (size 3 to 8) (size 9 to 14) (size 15 to 20)
#    0.000    1.143    0.952    5.714    0.000    1.905 
#   12.000    0.000    0.000    0.000    0.000    0.000 
#    0.000    0.000    0.000    0.000    0.000    0.000 
#
# Total GULP energy -234902.741123 kJ/mol
# GULP energy per Si atom -5592.922408 kJ/mol
# Density = 2.327603 g / cm^3
# Si number density = 23.329124 Si / 1000 Ang^3
#
#
#
# Elastic Constant Matrix: (Units=GPa)
#
#
# Indices 1 2 3 4 5 6 
#
# 1 97.8752 30.1480 29.4922 0.0000 0.0000 0.0000
# 2 30.1480 151.4682 54.6121 0.0000 0.0000 0.0000
# 3 29.4922 54.6121 86.8022 0.0000 0.0000 0.0000
# 4 0.0000 0.0000 0.0000 35.6966 0.0000 0.0000
# 5 0.0000 0.0000 0.0000 0.0000 17.1325 0.0000
# 6 0.0000 0.0000 0.0000 0.0000 0.0000 -18.4577
#
#
#
# Elastic Compliance Matrix: (Units=1/GPa)
#
#
# Indices 1 2 3 4 5 6 
#
# 1 0.011533 -0.001142 -0.003200 0.000000 0.000000 0.000000
# 2 -0.001142 0.008652 -0.005056 0.000000 0.000000 0.000000
# 3 -0.003200 -0.005056 0.015789 0.000000 0.000000 0.000000
# 4 0.000000 0.000000 0.000000 0.028014 0.000000 0.000000
# 5 0.000000 0.000000 0.000000 0.000000 0.058369 0.000000
# 6 0.000000 0.000000 0.000000 0.000000 0.000000 -0.054178
#
#
# Mechanical properties :
#
#
# Convention : Reuss Voigt Hill
#
# Bulk Modulus (GPa) = 58.21174 62.73892 60.47533
# Shear Modulus (GPa) = 53.93769 21.66716 37.80243
#
# Velocity S-wave (km/s) = 4.81358 3.05086 4.02978
# Velocity P-wave (km/s) = 7.47667 6.27389 6.90153
#
# Compressibility (1/GPa) = 0.01717867
#
# Stress axis : x y z
#
# Youngs Moduli (GPa) = 86.70722 115.57895 63.33716
#
# Poissons Ratio (x) = 0.13195 0.20269
# Poissons Ratio (y) = 0.09899 0.32021
# Poissons Ratio (z) = 0.27748 0.58432
#
# Static dielectric constant tensor:
#      x y z
#    x 1.940160 0.000000 0.000000 
#    y 0.000000 1.854090 0.000000 
#    z 0.000000 0.000000 1.906490 
# 
# From -- ./inp_files/13336.got.cif
#   From: 2010.05.17/outbox.cif.g08.bks.cpg/sg68_7_cif.got.tgz:13336.got - 2010.06.03 18:57:09.
