data_PCOD9508455
_publ_section_title
;
Structure prediction by ZEFSAII (Michael W. Deem and Ramdas Pophale) SiO2 
 PCOD9508455
Probable space group: C C C A
;
_chemical_formula_sum "Si O2"
_cell_formula_units_Z 96
_cell_length_a 13.544618
_cell_length_b 14.299765
_cell_length_c 22.139709
_cell_angle_alpha 90.000000
_cell_angle_beta 90.000000
_cell_angle_gamma 90.000000
_cell_volume 4288.126314
_symmetry_space_group_name_H-M "C C C A"
_symmetry_group_IT_number 68
_space_group.IT_coordinate_system_code '2'
_symmetry_cell_setting 'orthorhombic'
loop_
_space_group_symop_operation_xyz
x,y,z
-x,1/2-y,z
x,1/2-y,1/2-z
-x,y,1/2-z
-x,-y,-z
x,1/2+y,-z
-x,1/2+y,1/2+z
x,-y,1/2+z
1/2+x,1/2+y,z
1/2-x,-y,z
1/2+x,-y,1/2-z
1/2-x,1/2+y,1/2-z
1/2-x,1/2-y,-z
1/2+x,y,-z
1/2-x,y,1/2+z
1/2+x,1/2-y,1/2+z
loop_
_atom_site_type_symbol
_atom_site_label
_atom_site_fract_x
_atom_site_fract_y
_atom_site_fract_z
Si Si1 0.656211 0.072213 0.854729
Si Si2 0.545313 0.853288 0.140480
Si Si3 0.115020 0.913686 0.987204
Si Si4 0.396836 0.226489 0.084516
Si Si5 0.342472 0.116236 0.503791
Si Si6 0.264600 0.239276 0.814661
O O1 0.536265 0.066045 0.842981
O O2 0.680304 0.161445 0.814707
O O3 0.750000 0.000000 0.847360
O O4 0.662105 0.107591 0.924283
O O5 0.500000 0.750000 0.150093
O O6 0.561884 0.865839 0.068688
O O7 0.653400 0.842067 0.172545
O O8 0.231390 0.893141 0.979873
O O9 0.100471 0.024372 0.982592
O O10 0.098512 0.876421 0.055411
O O11 0.500000 0.250000 0.114598
O O12 0.385762 0.290953 0.024814
O O13 0.310381 0.252933 0.129640
O O14 0.211828 0.250000 0.750000
#
# Coordination Sequence:
#
# PCOD9508455 Si02
#       6
#    16  16  16  16  16  16
#     4  11  21  39  63  97 127 162 202 260 328 388
#     4  10  22  38  65  94 125 163 210 260 317 388
#     4  11  20  38  61  95 130 164 203 252 321 402
#     4  12  23  38  64  92 127 171 212 266 328 387
#     4  11  21  36  63  93 132 167 200 249 328 394
#     4  11  24  44  65  86 123 170 226 275 315 378
#
# _framework density 22.387401000000001
#
# number of rings (size 3 to 8) (size 9 to 14) (size 15 to 20)
#    0.000    1.000    5.000    4.000    0.000    7.333 
#    0.000    1.667    0.000    4.000    0.000    0.000 
#    0.000    0.000    0.000    0.000    0.000    0.000 
#
# Total GULP energy -267400.521396 kJ/mol
# GULP energy per Si atom -5570.844196 kJ/mol
# Density = 2.233645 g / cm^3
# Si number density = 22.387401 Si / 1000 Ang^3
#
#
#
# Elastic Constant Matrix: (Units=GPa)
#
#
# Indices 1 2 3 4 5 6 
#
# 1 140.0408 25.2580 8.1980 0.0000 0.0000 0.0000
# 2 25.2580 51.3574 19.2004 0.0000 0.0000 0.0000
# 3 8.1980 19.2004 50.5835 0.0000 0.0000 0.0000
# 4 0.0000 0.0000 0.0000 5.2232 0.0000 0.0000
# 5 0.0000 0.0000 0.0000 0.0000 6.6407 0.0000
# 6 0.0000 0.0000 0.0000 0.0000 0.0000 31.2109
#
#
#
# Elastic Compliance Matrix: (Units=1/GPa)
#
#
# Indices 1 2 3 4 5 6 
#
# 1 0.007838 -0.003939 0.000225 0.000000 0.000000 0.000000
# 2 -0.003939 0.024671 -0.008726 0.000000 0.000000 0.000000
# 3 0.000225 -0.008726 0.023045 0.000000 0.000000 0.000000
# 4 0.000000 0.000000 0.000000 0.191455 0.000000 0.000000
# 5 0.000000 0.000000 0.000000 0.000000 0.150587 0.000000
# 6 0.000000 0.000000 0.000000 0.000000 0.000000 0.032040
#
#
# Mechanical properties :
#
#
# Convention : Reuss Voigt Hill
#
# Bulk Modulus (GPa) = 32.60132 38.58828 35.59480
# Shear Modulus (GPa) = 10.75866 21.23664 15.99765
#
# Velocity S-wave (km/s) = 2.19456 3.08327 2.67607
# Velocity P-wave (km/s) = 4.58426 5.47261 5.04801
#
# Compressibility (1/GPa) = 0.03067361
#
# Stress axis : x y z
#
# Youngs Moduli (GPa) = 127.58293 40.53358 43.39318
#
# Poissons Ratio (x) = 0.15966 -0.00976
# Poissons Ratio (y) = 0.50253 0.37866
# Poissons Ratio (z) = -0.02868 0.35370
#
# Static dielectric constant tensor:
#      x y z
#    x 1.996620 0.000000 0.000000 
#    y 0.000000 1.852490 0.000000 
#    z 0.000000 0.000000 1.833870 
# 
# From -- ./inp_files/38592.got.cif
#   From: 2010.05.17/outbox.cif.g08.bks.cpg/sg68_20_cif.got.tgz:38592.got - 2010.06.03 18:57:09.
