data_PCOD9508116
_publ_section_title
;
Structure prediction by ZEFSAII (Michael W. Deem and Ramdas Pophale) SiO2 
 PCOD9508116
Probable space group: C C C A
;
_chemical_formula_sum "Si O2"
_cell_formula_units_Z 48
_cell_length_a 5.578282
_cell_length_b 18.321925
_cell_length_c 18.029304
_cell_angle_alpha 90.000000
_cell_angle_beta 90.000000
_cell_angle_gamma 90.000000
_cell_volume 1842.682571
_symmetry_space_group_name_H-M "C C C A"
_symmetry_group_IT_number 68
_space_group.IT_coordinate_system_code '2'
_symmetry_cell_setting 'orthorhombic'
loop_
_space_group_symop_operation_xyz
x,y,z
-x,1/2-y,z
x,1/2-y,1/2-z
-x,y,1/2-z
-x,-y,-z
x,1/2+y,-z
-x,1/2+y,1/2+z
x,-y,1/2+z
1/2+x,1/2+y,z
1/2-x,-y,z
1/2+x,-y,1/2-z
1/2-x,1/2+y,1/2-z
1/2-x,1/2-y,-z
1/2+x,y,-z
1/2-x,y,1/2+z
1/2+x,1/2-y,1/2+z
loop_
_atom_site_type_symbol
_atom_site_label
_atom_site_fract_x
_atom_site_fract_y
_atom_site_fract_z
Si Si1 0.750000 0.500000 0.793690
Si Si2 0.000000 0.750000 0.405747
Si Si3 0.881137 0.655599 0.830281
Si Si4 0.938457 0.887199 0.982548
O O1 0.500000 0.493338 0.750000
O O2 0.728821 0.579613 0.831171
O O3 0.215978 0.775753 0.351812
O O4 0.980714 0.682928 0.464059
O O5 0.064144 0.639496 0.897530
O O6 0.000000 0.663253 0.750000
O O7 0.192079 0.925363 0.996685
#
# Coordination Sequence:
#
# PCOD9508116 Si02
#       4
#     8   8  16  16
#     4  10  24  46  66  96 142 186 234 294 346 408
#     4  10  22  44  66 100 144 176 220 296 359 410
#     4  10  22  43  70 100 138 188 237 286 348 422
#     4  10  21  41  64  92 137 178 214 279 353 408
#
# _framework density 26.048978000000002
#
# number of rings (size 3 to 8) (size 9 to 14) (size 15 to 20)
#    0.000    2.000    0.000    4.000    0.000   10.667 
#    0.000   35.000    0.000    2.000    0.000    0.000 
#    0.000    0.000    0.000    0.000    0.000    0.000 
#
# Total GULP energy -133974.669531 kJ/mol
# GULP energy per Si atom -5582.277897 kJ/mol
# Density = 2.598969 g / cm^3
# Si number density = 26.048978 Si / 1000 Ang^3
#
#
#
# Elastic Constant Matrix: (Units=GPa)
#
#
# Indices 1 2 3 4 5 6 
#
# 1 135.8257 2.9097 46.9528 0.0000 0.0000 0.0000
# 2 2.9097 130.4276 9.6525 0.0000 0.0000 0.0000
# 3 46.9528 9.6525 207.7364 0.0000 0.0000 0.0000
# 4 0.0000 0.0000 0.0000 -114.9728 0.0000 0.0000
# 5 0.0000 0.0000 0.0000 0.0000 47.5312 0.0000
# 6 0.0000 0.0000 0.0000 0.0000 0.0000 -2.8789
#
#
#
# Elastic Compliance Matrix: (Units=1/GPa)
#
#
# Indices 1 2 3 4 5 6 
#
# 1 0.007987 -0.000045 -0.001803 0.000000 0.000000 0.000000
# 2 -0.000045 0.007694 -0.000347 0.000000 0.000000 0.000000
# 3 -0.001803 -0.000347 0.005237 0.000000 0.000000 0.000000
# 4 0.000000 0.000000 0.000000 -0.008698 0.000000 0.000000
# 5 0.000000 0.000000 0.000000 0.000000 0.021039 0.000000
# 6 0.000000 0.000000 0.000000 0.000000 0.000000 -0.347358
#
#
# Mechanical properties :
#
#
# Convention : Reuss Voigt Hill
#
# Bulk Modulus (GPa) = 60.50515 65.89108 63.19811
# Shear Modulus (GPa) = -16.43656 13.56756 -1.43450
#
# Velocity S-wave (km/s) = -2.51467 2.28469 -0.74289
# Velocity P-wave (km/s) = 3.85311 5.68416 4.85573
#
# Compressibility (1/GPa) = 0.01652752
#
# Stress axis : x y z
#
# Youngs Moduli (GPa) = 125.20928 129.97490 190.93207
#
# Poissons Ratio (x) = 0.00581 0.34426
# Poissons Ratio (y) = 0.00560 0.06633
# Poissons Ratio (z) = 0.22576 0.04515
#
# Static dielectric constant tensor:
#      x y z
#    x 2.193360 0.000000 0.000000 
#    y 0.000000 2.094090 0.000000 
#    z 0.000000 0.000000 2.023400 
# 
# From -- ./inp_files/26888.got.cif
#   From: 2010.05.17/outbox.cif.g08.bks.cpg/sg68_14_cif.got.tgz:26888.got - 2010.06.03 18:57:09.
