data_PCOD9508044
_publ_section_title
;
Structure prediction by ZEFSAII (Michael W. Deem and Ramdas Pophale) SiO2 
 PCOD9508044
Probable space group: C C C A
;
_chemical_formula_sum "Si O2"
_cell_formula_units_Z 80
_cell_length_a 11.434438
_cell_length_b 11.416099
_cell_length_c 26.613744
_cell_angle_alpha 90.000000
_cell_angle_beta 90.000000
_cell_angle_gamma 90.000000
_cell_volume 3474.069683
_symmetry_space_group_name_H-M "C C C A"
_symmetry_group_IT_number 68
_space_group.IT_coordinate_system_code '2'
_symmetry_cell_setting 'orthorhombic'
loop_
_space_group_symop_operation_xyz
x,y,z
-x,1/2-y,z
x,1/2-y,1/2-z
-x,y,1/2-z
-x,-y,-z
x,1/2+y,-z
-x,1/2+y,1/2+z
x,-y,1/2+z
1/2+x,1/2+y,z
1/2-x,-y,z
1/2+x,-y,1/2-z
1/2-x,1/2+y,1/2-z
1/2-x,1/2-y,-z
1/2+x,y,-z
1/2-x,y,1/2+z
1/2+x,1/2-y,1/2+z
loop_
_atom_site_type_symbol
_atom_site_label
_atom_site_fract_x
_atom_site_fract_y
_atom_site_fract_z
Si Si1 0.362738 0.789220 0.533697
Si Si2 0.328143 0.386195 0.121007
Si Si3 0.000000 0.250000 0.388713
Si Si4 0.250000 0.500000 0.832237
Si Si5 0.296848 0.750802 0.194600
Si Si6 0.559317 0.994533 0.415605
O O1 0.500000 0.750000 0.524583
O O2 0.250000 0.750000 0.500000
O O3 0.321322 0.730256 0.586455
O O4 0.377524 0.929793 0.541253
O O5 0.250000 0.500000 0.107389
O O6 0.297387 0.346467 0.177420
O O7 0.456146 0.429241 0.107463
O O8 0.107702 0.233975 0.349872
O O9 0.013756 0.363491 0.424121
O O10 0.235931 0.377922 0.804651
O O11 0.355946 0.478738 0.869235
O O12 0.351058 0.750000 0.250000
#
# Coordination Sequence:
#
# PCOD9508044 Si02
#       6
#    16  16   8   8  16  16
#     4  10  23  48  74 106 142 181 248 310 368 448
#     4  11  22  44  68  96 139 189 228 292 371 425
#     4  10  21  40  66 102 136 198 230 294 360 443
#     4  10  22  40  62 100 132 186 240 276 354 426
#     4  11  23  39  65 101 142 185 242 295 353 433
#     4  10  21  42  72  96 140 188 235 291 367 443
#
# _framework density 23.027747999999999
#
# number of rings (size 3 to 8) (size 9 to 14) (size 15 to 20)
#    0.000    1.600    4.000    0.300    1.400    0.000 
#    7.200    4.000    0.000    3.600    0.000    0.000 
#    0.000    0.000    0.000    0.000    0.000    0.000 
#
# Total GULP energy -222831.412557 kJ/mol
# GULP energy per Si atom -5570.785314 kJ/mol
# Density = 2.297534 g / cm^3
# Si number density = 23.027748 Si / 1000 Ang^3
#
#
#
# Elastic Constant Matrix: (Units=GPa)
#
#
# Indices 1 2 3 4 5 6 
#
# 1 99.4785 29.6848 35.1687 0.0000 0.0000 0.0000
# 2 29.6848 161.4087 37.5425 0.0000 0.0000 0.0000
# 3 35.1687 37.5425 89.3307 0.0000 0.0000 0.0000
# 4 0.0000 0.0000 0.0000 5.9010 0.0000 0.0000
# 5 0.0000 0.0000 0.0000 0.0000 5.5469 0.0000
# 6 0.0000 0.0000 0.0000 0.0000 0.0000 32.2997
#
#
#
# Elastic Compliance Matrix: (Units=1/GPa)
#
#
# Indices 1 2 3 4 5 6 
#
# 1 0.011890 -0.001217 -0.004169 0.000000 0.000000 0.000000
# 2 -0.001217 0.006991 -0.002459 0.000000 0.000000 0.000000
# 3 -0.004169 -0.002459 0.013869 0.000000 0.000000 0.000000
# 4 0.000000 0.000000 0.000000 0.169462 0.000000 0.000000
# 5 0.000000 0.000000 0.000000 0.000000 0.180282 0.000000
# 6 0.000000 0.000000 0.000000 0.000000 0.000000 0.030960
#
#
# Mechanical properties :
#
#
# Convention : Reuss Voigt Hill
#
# Bulk Modulus (GPa) = 58.61890 61.66777 60.14334
# Shear Modulus (GPa) = 11.49872 25.27100 18.38486
#
# Velocity S-wave (km/s) = 2.23702 3.31632 2.82862
# Velocity P-wave (km/s) = 5.67304 6.44219 6.06981
#
# Compressibility (1/GPa) = 0.01705935
#
# Stress axis : x y z
#
# Youngs Moduli (GPa) = 84.10750 143.03677 72.10175
#
# Poissons Ratio (x) = 0.17405 0.30062
# Poissons Ratio (y) = 0.10234 0.17731
# Poissons Ratio (z) = 0.35068 0.35174
#
# Static dielectric constant tensor:
#      x y z
#    x 1.935590 0.000000 0.000000 
#    y 0.000000 2.035430 0.000000 
#    z 0.000000 0.000000 1.858540 
# 
# From -- ./inp_files/54541.got.cif
#   From: 2010.05.17/outbox.cif.g08.bks.cpg/sg68_28_cif.got.tgz:54541.got - 2010.06.03 18:57:09.
