data_PCOD9508227
_publ_section_title
;
Structure prediction by ZEFSAII (Michael W. Deem and Ramdas Pophale) SiO2 
 PCOD9508227
Probable space group: C C C A
;
_chemical_formula_sum "Si O2"
_cell_formula_units_Z 80
_cell_length_a 16.484644
_cell_length_b 9.368966
_cell_length_c 24.110632
_cell_angle_alpha 90.000000
_cell_angle_beta 90.000000
_cell_angle_gamma 90.000000
_cell_volume 3723.744116
_symmetry_space_group_name_H-M "C C C A"
_symmetry_group_IT_number 68
_space_group.IT_coordinate_system_code '2'
_symmetry_cell_setting 'orthorhombic'
loop_
_space_group_symop_operation_xyz
x,y,z
-x,1/2-y,z
x,1/2-y,1/2-z
-x,y,1/2-z
-x,-y,-z
x,1/2+y,-z
-x,1/2+y,1/2+z
x,-y,1/2+z
1/2+x,1/2+y,z
1/2-x,-y,z
1/2+x,-y,1/2-z
1/2-x,1/2+y,1/2-z
1/2-x,1/2-y,-z
1/2+x,y,-z
1/2-x,y,1/2+z
1/2+x,1/2-y,1/2+z
loop_
_atom_site_type_symbol
_atom_site_label
_atom_site_fract_x
_atom_site_fract_y
_atom_site_fract_z
Si Si1 0.170494 0.429500 0.120626
Si Si2 0.994580 0.578821 0.813844
Si Si3 0.408961 0.569289 0.908010
Si Si4 0.916705 0.865165 0.050623
Si Si5 0.315359 0.320749 0.956478
O O1 0.250000 0.500000 0.145467
O O2 0.092686 0.451849 0.158869
O O3 0.148408 0.513426 0.063727
O O4 0.186454 0.270163 0.099691
O O5 0.000000 0.750000 0.816694
O O6 0.000000 0.534148 0.750000
O O7 0.063895 0.505107 0.851066
O O8 0.493968 0.572578 0.942380
O O9 0.396280 0.739271 0.905364
O O10 0.335115 0.484799 0.936825
O O11 0.898787 0.797878 0.991171
O O12 0.250000 0.250000 0.000000
#
# Coordination Sequence:
#
# PCOD9508227 Si02
#       5
#    16  16  16  16  16
#     4  11  22  40  61  94 131 166 209 264 321 386
#     4  10  21  42  72  90 115 164 222 277 318 375
#     4  10  22  39  58  91 122 165 219 263 307 382
#     4  10  22  36  58  89 133 167 208 257 311 382
#     4  12  22  36  58  90 130 176 202 253 317 390
#
# _framework density 21.483751999999999
#
# number of rings (size 3 to 8) (size 9 to 14) (size 15 to 20)
#    0.000    1.400    4.000    1.800    0.000    4.800 
#    0.000    8.000   13.200    0.000    0.000    0.000 
#    0.000    0.000    0.000    0.000    0.000    0.000 
#
# Total GULP energy -222898.223444 kJ/mol
# GULP energy per Si atom -5572.455586 kJ/mol
# Density = 2.143485 g / cm^3
# Si number density = 21.483752 Si / 1000 Ang^3
#
#
#
# Elastic Constant Matrix: (Units=GPa)
#
#
# Indices 1 2 3 4 5 6 
#
# 1 128.9192 25.4738 34.6150 0.0000 0.0000 0.0000
# 2 25.4738 95.5785 15.2187 0.0000 0.0000 0.0000
# 3 34.6150 15.2187 106.1193 0.0000 0.0000 0.0000
# 4 0.0000 0.0000 0.0000 24.7950 0.0000 0.0000
# 5 0.0000 0.0000 0.0000 0.0000 20.1455 0.0000
# 6 0.0000 0.0000 0.0000 0.0000 0.0000 28.7651
#
#
#
# Elastic Compliance Matrix: (Units=1/GPa)
#
#
# Indices 1 2 3 4 5 6 
#
# 1 0.008840 -0.001941 -0.002605 0.000000 0.000000 0.000000
# 2 -0.001941 0.011133 -0.000963 0.000000 0.000000 0.000000
# 3 -0.002605 -0.000963 0.010411 0.000000 0.000000 0.000000
# 4 0.000000 0.000000 0.000000 0.040331 0.000000 0.000000
# 5 0.000000 0.000000 0.000000 0.000000 0.049639 0.000000
# 6 0.000000 0.000000 0.000000 0.000000 0.000000 0.034764
#
#
# Mechanical properties :
#
#
# Convention : Reuss Voigt Hill
#
# Bulk Modulus (GPa) = 51.63946 53.47021 52.55483
# Shear Modulus (GPa) = 28.96992 31.76177 30.36584
#
# Velocity S-wave (km/s) = 3.67612 3.84918 3.76364
# Velocity P-wave (km/s) = 6.48900 6.68563 6.58805
#
# Compressibility (1/GPa) = 0.01936503
#
# Stress axis : x y z
#
# Youngs Moduli (GPa) = 113.12431 89.81996 96.04970
#
# Poissons Ratio (x) = 0.17436 0.25022
# Poissons Ratio (y) = 0.21960 0.09254
# Poissons Ratio (z) = 0.29470 0.08654
#
# Static dielectric constant tensor:
#      x y z
#    x 1.816630 0.000000 0.000000 
#    y 0.000000 1.906590 0.000000 
#    z 0.000000 0.000000 1.749700 
# 
# From -- ./inp_files/51312.got.cif
#   From: 2010.05.17/outbox.cif.g08.bks.cpg/sg68_26_cif.got.tgz:51312.got - 2010.06.03 18:57:09.
