data_PCOD9508756
_publ_section_title
;
Structure prediction by ZEFSAII (Michael W. Deem and Ramdas Pophale) SiO2 
 PCOD9508756
Probable space group: C C C A
;
_chemical_formula_sum "Si O2"
_cell_formula_units_Z 116
_cell_length_a 28.050044
_cell_length_b 22.734261
_cell_length_c 9.606042
_cell_angle_alpha 90.000000
_cell_angle_beta 90.000000
_cell_angle_gamma 90.000000
_cell_volume 6125.744370
_symmetry_space_group_name_H-M "C C C A"
_symmetry_group_IT_number 68
_space_group.IT_coordinate_system_code '2'
_symmetry_cell_setting 'orthorhombic'
loop_
_space_group_symop_operation_xyz
x,y,z
-x,1/2-y,z
x,1/2-y,1/2-z
-x,y,1/2-z
-x,-y,-z
x,1/2+y,-z
-x,1/2+y,1/2+z
x,-y,1/2+z
1/2+x,1/2+y,z
1/2-x,-y,z
1/2+x,-y,1/2-z
1/2-x,1/2+y,1/2-z
1/2-x,1/2-y,-z
1/2+x,y,-z
1/2-x,y,1/2+z
1/2+x,1/2-y,1/2+z
loop_
_atom_site_type_symbol
_atom_site_label
_atom_site_fract_x
_atom_site_fract_y
_atom_site_fract_z
Si Si1 0.500000 0.250000 0.250000
Si Si2 0.280746 0.929869 0.733527
Si Si3 0.692189 0.463984 0.552346
Si Si4 0.065721 0.339609 0.922720
Si Si5 0.945349 0.180023 0.237633
Si Si6 0.492651 0.945709 0.901166
Si Si7 0.344163 0.180582 0.264257
Si Si8 0.602954 0.116093 0.993111
O O1 0.466716 0.210695 0.150455
O O2 0.228160 0.933032 0.664069
O O3 0.300125 0.863659 0.742929
O O4 0.309197 0.970618 0.620268
O O5 0.288040 0.955988 0.891984
O O6 0.640782 0.434055 0.547073
O O7 0.034323 0.397810 0.910769
O O8 0.115736 0.337966 0.846240
O O9 0.073663 0.331528 0.084968
O O10 0.945672 0.250000 0.250000
O O11 0.916282 0.149038 0.358344
O O12 0.000000 0.158930 0.250000
O O13 0.500000 0.971811 0.750000
O O14 0.442402 0.912665 0.927906
O O15 0.500000 0.000000 0.000000
O O16 0.334070 0.250000 0.250000
O O17 0.369246 0.162781 0.409912
#
# Coordination Sequence:
#
# PCOD9508756 Si02
#       8
#     4  16  16  16  16  16  16  16
#     4  12  20  40  66  88 120 176 238 258 316 392
#     4  10  22  42  67 101 123 169 213 273 332 392
#     4  10  22  41  71  92 132 163 218 273 325 406
#     4  12  23  38  64  87 125 176 215 272 316 397
#     4  11  23  36  57  90 122 163 210 263 314 375
#     4  12  27  42  59  88 131 171 219 266 330 392
#     4  11  23  42  67  94 128 171 225 269 322 403
#     4  11  24  44  61  92 132 168 217 267 330 394
#
# _framework density 18.936475000000002
#
# number of rings (size 3 to 8) (size 9 to 14) (size 15 to 20)
#    0.000    0.966    4.138    3.310    3.862    2.207 
#    0.000    3.448    0.000    0.000    0.000    0.000 
#    0.000    0.000    0.000    0.000    0.000    0.000 
#
# Total GULP energy -323664.891432 kJ/mol
# GULP energy per Si atom -5580.429163 kJ/mol
# Density = 1.889337 g / cm^3
# Si number density = 18.936475 Si / 1000 Ang^3
#
#
#
# Elastic Constant Matrix: (Units=GPa)
#
#
# Indices 1 2 3 4 5 6 
#
# 1 52.6326 35.7072 28.1931 0.0000 0.0000 0.0000
# 2 35.7072 127.4606 40.5111 0.0000 0.0000 0.0000
# 3 28.1931 40.5111 147.9635 0.0000 0.0000 0.0000
# 4 0.0000 0.0000 0.0000 18.3206 0.0000 0.0000
# 5 0.0000 0.0000 0.0000 0.0000 8.7954 0.0000
# 6 0.0000 0.0000 0.0000 0.0000 0.0000 37.5371
#
#
#
# Elastic Compliance Matrix: (Units=1/GPa)
#
#
# Indices 1 2 3 4 5 6 
#
# 1 0.024674 -0.005934 -0.003077 0.000000 0.000000 0.000000
# 2 -0.005934 0.010021 -0.001613 0.000000 0.000000 0.000000
# 3 -0.003077 -0.001613 0.007786 0.000000 0.000000 0.000000
# 4 0.000000 0.000000 0.000000 0.054583 0.000000 0.000000
# 5 0.000000 0.000000 0.000000 0.000000 0.113696 0.000000
# 6 0.000000 0.000000 0.000000 0.000000 0.000000 0.026640
#
#
# Mechanical properties :
#
#
# Convention : Reuss Voigt Hill
#
# Bulk Modulus (GPa) = 47.09643 59.65327 53.37485
# Shear Modulus (GPa) = 18.81644 27.84031 23.32838
#
# Velocity S-wave (km/s) = 3.15566 3.83847 3.51369
# Velocity P-wave (km/s) = 6.18080 7.15649 6.68647
#
# Compressibility (1/GPa) = 0.02123303
#
# Stress axis : x y z
#
# Youngs Moduli (GPa) = 40.52915 99.79412 128.43212
#
# Poissons Ratio (x) = 0.59221 0.39513
# Poissons Ratio (y) = 0.24051 0.20714
# Poissons Ratio (z) = 0.12469 0.16095
#
# Static dielectric constant tensor:
#      x y z
#    x 1.650980 0.000000 0.000000 
#    y 0.000000 1.640630 0.000000 
#    z 0.000000 0.000000 1.637340 
# 
# From -- ./inp_files/9171.got.cif
#   From: 2010.05.17/outbox.cif.g08.bks.cpg/sg68_5_cif.got.tgz:9171.got - 2010.06.03 18:57:09.
