data_PCOD9508301
_publ_section_title
;
Structure prediction by ZEFSAII (Michael W. Deem and Ramdas Pophale) SiO2 
 PCOD9508301
Probable space group: C C C A
;
_chemical_formula_sum "Si O2"
_cell_formula_units_Z 92
_cell_length_a 19.982385
_cell_length_b 9.476195
_cell_length_c 19.687125
_cell_angle_alpha 90.000000
_cell_angle_beta 90.000000
_cell_angle_gamma 90.000000
_cell_volume 3727.894472
_symmetry_space_group_name_H-M "C C C A"
_symmetry_group_IT_number 68
_space_group.IT_coordinate_system_code '2'
_symmetry_cell_setting 'orthorhombic'
loop_
_space_group_symop_operation_xyz
x,y,z
-x,1/2-y,z
x,1/2-y,1/2-z
-x,y,1/2-z
-x,-y,-z
x,1/2+y,-z
-x,1/2+y,1/2+z
x,-y,1/2+z
1/2+x,1/2+y,z
1/2-x,-y,z
1/2+x,-y,1/2-z
1/2-x,1/2+y,1/2-z
1/2-x,1/2-y,-z
1/2+x,y,-z
1/2-x,y,1/2+z
1/2+x,1/2-y,1/2+z
loop_
_atom_site_type_symbol
_atom_site_label
_atom_site_fract_x
_atom_site_fract_y
_atom_site_fract_z
Si Si1 0.337728 0.750000 0.750000
Si Si2 0.500000 0.750000 0.250000
Si Si3 0.485631 0.920115 0.103188
Si Si4 0.600201 0.070455 0.031637
Si Si5 0.179408 0.198159 0.472914
Si Si6 0.602183 0.458071 0.737802
Si Si7 0.777107 0.648128 0.656578
O O1 0.383068 0.613899 0.737771
O O2 0.287946 0.774539 0.686345
O O3 0.444755 0.643977 0.217322
O O4 0.500000 0.750000 0.099774
O O5 0.440451 0.958997 0.168093
O O6 0.550782 0.017525 0.090413
O O7 0.439531 0.952465 0.038142
O O8 0.663544 0.965800 0.032263
O O9 0.625645 0.229837 0.023655
O O10 0.250000 0.250000 0.500000
O O11 0.179913 0.264556 0.397262
O O12 0.674304 0.394774 0.718751
O O13 0.750000 0.500000 0.626178
#
# Coordination Sequence:
#
# PCOD9508301 Si02
#       7
#     8   4  16  16  16  16  16
#     4  10  25  45  76 103 135 186 258 320 350 422
#     4  12  26  42  72 100 138 186 232 294 364 456
#     4  11  21  43  75  99 142 192 233 286 358 445
#     4  11  23  41  67 105 141 185 238 285 354 434
#     4  12  24  41  68 105 146 189 235 294 359 427
#     4  11  23  46  74  99 135 187 241 297 367 430
#     4  10  21  45  72  96 141 189 234 299 363 424
#
# _framework density 24.678811
#
# number of rings (size 3 to 8) (size 9 to 14) (size 15 to 20)
#    0.000    1.043    4.348    2.087    2.435    0.348 
#    3.130    6.957    0.000    0.000    0.000    0.000 
#    0.000    0.000    0.000    0.000    0.000    0.000 
#
# Total GULP energy -257182.710634 kJ/mol
# GULP energy per Si atom -5590.928492 kJ/mol
# Density = 2.462264 g / cm^3
# Si number density = 24.678811 Si / 1000 Ang^3
#
#
#
# Elastic Constant Matrix: (Units=GPa)
#
#
# Indices 1 2 3 4 5 6 
#
# 1 110.0677 38.4646 10.7027 0.0000 0.0000 0.0000
# 2 38.4646 145.4944 29.9187 0.0000 0.0000 0.0000
# 3 10.7027 29.9187 75.1803 0.0000 0.0000 0.0000
# 4 0.0000 0.0000 0.0000 31.5277 0.0000 0.0000
# 5 0.0000 0.0000 0.0000 0.0000 41.1539 0.0000
# 6 0.0000 0.0000 0.0000 0.0000 0.0000 63.0465
#
#
#
# Elastic Compliance Matrix: (Units=1/GPa)
#
#
# Indices 1 2 3 4 5 6 
#
# 1 0.010021 -0.002566 -0.000405 0.000000 0.000000 0.000000
# 2 -0.002566 0.008143 -0.002875 0.000000 0.000000 0.000000
# 3 -0.000405 -0.002875 0.014503 0.000000 0.000000 0.000000
# 4 0.000000 0.000000 0.000000 0.031718 0.000000 0.000000
# 5 0.000000 0.000000 0.000000 0.000000 0.024299 0.000000
# 6 0.000000 0.000000 0.000000 0.000000 0.000000 0.015861
#
#
# Mechanical properties :
#
#
# Convention : Reuss Voigt Hill
#
# Bulk Modulus (GPa) = 47.67779 54.32383 51.00081
# Shear Modulus (GPa) = 40.57430 43.92272 42.24851
#
# Velocity S-wave (km/s) = 4.05914 4.22331 4.14204
# Velocity P-wave (km/s) = 6.42885 6.77067 6.60197
#
# Compressibility (1/GPa) = 0.02097412
#
# Stress axis : x y z
#
# Youngs Moduli (GPa) = 99.78577 122.80882 68.94988
#
# Poissons Ratio (x) = 0.31513 0.02796
# Poissons Ratio (y) = 0.25605 0.19824
# Poissons Ratio (z) = 0.04046 0.35310
#
# Static dielectric constant tensor:
#      x y z
#    x 1.953120 0.000000 0.000000 
#    y 0.000000 1.961420 0.000000 
#    z 0.000000 0.000000 2.121870 
# 
# From -- ./inp_files/46531.got.cif
#   From: 2010.05.17/outbox.cif.g08.bks.cpg/sg68_24_cif.got.tgz:46531.got - 2010.06.03 18:57:09.
