data_PCOD9508560
_publ_section_title
;
Structure prediction by ZEFSAII (Michael W. Deem and Ramdas Pophale) SiO2 
 PCOD9508560
Probable space group: C C C A
;
_chemical_formula_sum "Si O2"
_cell_formula_units_Z 104
_cell_length_a 21.283083
_cell_length_b 24.631864
_cell_length_c 10.049112
_cell_angle_alpha 90.000000
_cell_angle_beta 90.000000
_cell_angle_gamma 90.000000
_cell_volume 5268.166633
_symmetry_space_group_name_H-M "C C C A"
_symmetry_group_IT_number 68
_space_group.IT_coordinate_system_code '2'
_symmetry_cell_setting 'orthorhombic'
loop_
_space_group_symop_operation_xyz
x,y,z
-x,1/2-y,z
x,1/2-y,1/2-z
-x,y,1/2-z
-x,-y,-z
x,1/2+y,-z
-x,1/2+y,1/2+z
x,-y,1/2+z
1/2+x,1/2+y,z
1/2-x,-y,z
1/2+x,-y,1/2-z
1/2-x,1/2+y,1/2-z
1/2-x,1/2-y,-z
1/2+x,y,-z
1/2-x,y,1/2+z
1/2+x,1/2-y,1/2+z
loop_
_atom_site_type_symbol
_atom_site_label
_atom_site_fract_x
_atom_site_fract_y
_atom_site_fract_z
Si Si1 0.399107 0.836881 0.532401
Si Si2 0.160077 0.187888 0.799745
Si Si3 0.500000 0.750000 0.441800
Si Si4 0.101458 0.665508 0.916974
Si Si5 0.303404 0.188924 0.805787
Si Si6 0.572834 0.956529 0.392964
Si Si7 0.075829 0.954774 0.905424
O O1 0.377682 0.843397 0.684626
O O2 0.455755 0.793118 0.520482
O O3 0.340329 0.814362 0.445101
O O4 0.416411 0.894463 0.465553
O O5 0.160522 0.250000 0.750000
O O6 0.232127 0.168839 0.813833
O O7 0.128197 0.185646 0.943066
O O8 0.451029 0.709093 0.369783
O O9 0.154329 0.660179 0.804924
O O10 0.076446 0.605411 0.940152
O O11 0.300902 0.250000 0.750000
O O12 0.600928 0.959483 0.244624
O O13 0.498206 0.966801 0.388756
O O14 0.601743 0.000123 0.493621
#
# Coordination Sequence:
#
# PCOD9508560 Si02
#       7
#    16  16   8  16  16  16  16
#     4  12  23  39  63  92 131 159 200 261 303 370
#     4  11  24  40  59  90 127 173 210 241 300 368
#     4  12  24  38  60 102 130 164 188 250 328 366
#     4  12  23  39  63  92 131 159 200 261 303 370
#     4  11  22  40  63  88 121 169 214 249 296 362
#     4  10  22  40  61  90 123 164 206 247 307 375
#     4  10  22  40  61  90 123 164 206 247 307 375
#
# _framework density 19.741212000000001
#
# number of rings (size 3 to 8) (size 9 to 14) (size 15 to 20)
#    0.000    0.923    6.154    0.923    2.154    4.923 
#    0.000    0.000    0.000    5.538    0.000    0.000 
#    0.000    0.000    0.000    0.000    0.000    0.000 
#
# Total GULP energy -290230.987204 kJ/mol
# GULP energy per Si atom -5581.365139 kJ/mol
# Density = 1.969628 g / cm^3
# Si number density = 19.741212 Si / 1000 Ang^3
#
#
#
# Elastic Constant Matrix: (Units=GPa)
#
#
# Indices 1 2 3 4 5 6 
#
# 1 63.3605 23.3340 45.2077 0.0000 0.0000 0.0000
# 2 23.3340 112.7960 40.2264 0.0000 0.0000 0.0000
# 3 45.2077 40.2264 121.3787 0.0000 0.0000 0.0000
# 4 0.0000 0.0000 0.0000 32.9916 0.0000 0.0000
# 5 0.0000 0.0000 0.0000 0.0000 16.7284 0.0000
# 6 0.0000 0.0000 0.0000 0.0000 0.0000 2.2126
#
#
#
# Elastic Compliance Matrix: (Units=1/GPa)
#
#
# Indices 1 2 3 4 5 6 
#
# 1 0.021824 -0.001832 -0.007521 0.000000 0.000000 0.000000
# 2 -0.001832 0.010208 -0.002700 0.000000 0.000000 0.000000
# 3 -0.007521 -0.002700 0.011935 0.000000 0.000000 0.000000
# 4 0.000000 0.000000 0.000000 0.030311 0.000000 0.000000
# 5 0.000000 0.000000 0.000000 0.000000 0.059779 0.000000
# 6 0.000000 0.000000 0.000000 0.000000 0.000000 0.451967
#
#
# Mechanical properties :
#
#
# Convention : Reuss Voigt Hill
#
# Bulk Modulus (GPa) = 50.35627 57.23016 53.79321
# Shear Modulus (GPa) = 8.10701 22.97099 15.53900
#
# Velocity S-wave (km/s) = 2.02868 3.41487 2.80864
# Velocity P-wave (km/s) = 5.57234 6.67844 6.15031
#
# Compressibility (1/GPa) = 0.01985850
#
# Stress axis : x y z
#
# Youngs Moduli (GPa) = 45.82159 97.96525 83.78823
#
# Poissons Ratio (x) = 0.17952 0.63017
# Poissons Ratio (y) = 0.08397 0.22627
# Poissons Ratio (z) = 0.34462 0.26455
#
# Static dielectric constant tensor:
#      x y z
#    x 1.711110 0.000000 0.000000 
#    y 0.000000 1.712370 0.000000 
#    z 0.000000 0.000000 1.736900 
# 
# From -- ./inp_files/7373.got.cif
#   From: 2010.05.17/outbox.cif.g08.bks.cpg/sg68_4_cif.got.tgz:7373.got - 2010.06.03 18:57:09.
