data_PCOD9508222
_publ_section_title
;
Structure prediction by ZEFSAII (Michael W. Deem and Ramdas Pophale) SiO2 
 PCOD9508222
Probable space group: C C C A
;
_chemical_formula_sum "Si O2"
_cell_formula_units_Z 56
_cell_length_a 13.313787
_cell_length_b 10.203381
_cell_length_c 18.703895
_cell_angle_alpha 90.000000
_cell_angle_beta 90.000000
_cell_angle_gamma 90.000000
_cell_volume 2540.842611
_symmetry_space_group_name_H-M "C C C A"
_symmetry_group_IT_number 68
_space_group.IT_coordinate_system_code '2'
_symmetry_cell_setting 'orthorhombic'
loop_
_space_group_symop_operation_xyz
x,y,z
-x,1/2-y,z
x,1/2-y,1/2-z
-x,y,1/2-z
-x,-y,-z
x,1/2+y,-z
-x,1/2+y,1/2+z
x,-y,1/2+z
1/2+x,1/2+y,z
1/2-x,-y,z
1/2+x,-y,1/2-z
1/2-x,1/2+y,1/2-z
1/2-x,1/2-y,-z
1/2+x,y,-z
1/2-x,y,1/2+z
1/2+x,1/2-y,1/2+z
loop_
_atom_site_type_symbol
_atom_site_label
_atom_site_fract_x
_atom_site_fract_y
_atom_site_fract_z
Si Si1 0.000000 0.750000 0.935731
Si Si2 0.120793 0.140008 0.193114
Si Si3 0.861061 0.147135 0.810210
Si Si4 0.676295 0.367244 0.026030
O O1 0.928007 0.831339 0.882978
O O2 0.923666 0.650412 0.976400
O O3 0.094760 0.250000 0.250000
O O4 0.240364 0.145244 0.190425
O O5 0.097181 0.992510 0.213340
O O6 0.892046 0.250000 0.750000
O O7 0.872605 0.160785 0.895666
O O8 0.750000 0.500000 0.025077
O O9 0.750000 0.250000 0.000000
#
# Coordination Sequence:
#
# PCOD9508222 Si02
#       4
#     8  16  16  16
#     4  12  25  44  77 104 146 192 234 300 361 432
#     4  10  21  42  71 105 137 183 241 283 349 429
#     4  10  21  44  71 100 142 185 231 294 350 417
#     4  12  25  47  70 106 146 185 239 294 362 432
#
# _framework density 22.039933999999999
#
# number of rings (size 3 to 8) (size 9 to 14) (size 15 to 20)
#    0.000    1.143    5.714    0.429    0.000    6.857 
#    0.000    3.571    0.000    0.000    0.000    0.000 
#    0.000    0.000    0.000    0.000    0.000    0.000 
#
# Total GULP energy -155907.395006 kJ/mol
# GULP energy per Si atom -5568.121250 kJ/mol
# Density = 2.198977 g / cm^3
# Si number density = 22.039934 Si / 1000 Ang^3
#
#
#
# Elastic Constant Matrix: (Units=GPa)
#
#
# Indices 1 2 3 4 5 6 
#
# 1 139.6293 39.6986 71.6315 0.0000 0.0000 0.0000
# 2 39.6986 187.5427 109.4486 0.0000 0.0000 0.0000
# 3 71.6315 109.4486 164.5408 0.0000 0.0000 0.0000
# 4 0.0000 0.0000 0.0000 24.3656 0.0000 0.0000
# 5 0.0000 0.0000 0.0000 0.0000 28.1792 0.0000
# 6 0.0000 0.0000 0.0000 0.0000 0.0000-1126.8337
#
#
#
# Elastic Compliance Matrix: (Units=1/GPa)
#
#
# Indices 1 2 3 4 5 6 
#
# 1 0.009268 0.000642 -0.004462 0.000000 0.000000 0.000000
# 2 0.000642 0.008760 -0.006106 0.000000 0.000000 0.000000
# 3 -0.004462 -0.006106 0.012082 0.000000 0.000000 0.000000
# 4 0.000000 0.000000 0.000000 0.041042 0.000000 0.000000
# 5 0.000000 0.000000 0.000000 0.000000 0.035487 0.000000
# 6 0.000000 0.000000 0.000000 0.000000 0.000000 -0.000887
#
#
# Mechanical properties :
#
#
# Convention : Reuss Voigt Hill
#
# Bulk Modulus (GPa) = 97.49014 103.69670 100.59342
# Shear Modulus (GPa) = 38.75279 -196.79553 -79.02137
#
# Velocity S-wave (km/s) = 4.19776 -9.45961 -5.99429
# Velocity P-wave (km/s) = 8.23555 8.49475 1.47249
#
# Compressibility (1/GPa) = 0.01025745
#
# Stress axis : x y z
#
# Youngs Moduli (GPa) = 107.89436 114.15743 82.76901
#
# Poissons Ratio (x) = -0.07330 0.36931
# Poissons Ratio (y) = -0.06928 0.50542
# Poissons Ratio (z) = 0.48142 0.69709
#
# Static dielectric constant tensor:
#      x y z
#    x 1.854650 0.000000 0.000000 
#    y 0.000000 1.671350 0.000000 
#    z 0.000000 0.000000 1.802960 
# 
# From -- ./inp_files/29022.got.cif
#   From: 2010.05.17/outbox.cif.g08.bks.cpg/sg68_15_cif.got.tgz:29022.got - 2010.06.03 18:57:09.
