data_PCOD9508358
_publ_section_title
;
Structure prediction by ZEFSAII (Michael W. Deem and Ramdas Pophale) SiO2 
 PCOD9508358
Probable space group: C C C A
;
_chemical_formula_sum "Si O2"
_cell_formula_units_Z 80
_cell_length_a 5.093961
_cell_length_b 23.574530
_cell_length_c 29.531787
_cell_angle_alpha 90.000000
_cell_angle_beta 90.000000
_cell_angle_gamma 90.000000
_cell_volume 3546.405453
_symmetry_space_group_name_H-M "C C C A"
_symmetry_group_IT_number 68
_space_group.IT_coordinate_system_code '2'
_symmetry_cell_setting 'orthorhombic'
loop_
_space_group_symop_operation_xyz
x,y,z
-x,1/2-y,z
x,1/2-y,1/2-z
-x,y,1/2-z
-x,-y,-z
x,1/2+y,-z
-x,1/2+y,1/2+z
x,-y,1/2+z
1/2+x,1/2+y,z
1/2-x,-y,z
1/2+x,-y,1/2-z
1/2-x,1/2+y,1/2-z
1/2-x,1/2-y,-z
1/2+x,y,-z
1/2-x,y,1/2+z
1/2+x,1/2-y,1/2+z
loop_
_atom_site_type_symbol
_atom_site_label
_atom_site_fract_x
_atom_site_fract_y
_atom_site_fract_z
Si Si1 0.983916 0.963630 0.620369
Si Si2 0.248537 0.313277 0.271061
Si Si3 0.757456 0.579975 0.474258
Si Si4 0.613320 0.311149 0.427748
Si Si5 0.115358 0.161552 0.130177
O O1 0.861309 0.944706 0.571711
O O2 0.042645 0.902961 0.642553
O O3 0.750000 0.000000 0.642376
O O4 0.250000 0.000000 0.616398
O O5 0.250157 0.250000 0.250000
O O6 0.500000 0.342377 0.250000
O O7 0.221963 0.308982 0.324620
O O8 0.000000 0.343435 0.250000
O O9 0.552535 0.563540 0.513138
O O10 0.776547 0.647931 0.466719
O O11 0.500000 0.250000 0.441237
O O12 0.359135 0.340392 0.404675
O O13 0.856768 0.309510 0.392019
#
# Coordination Sequence:
#
# PCOD9508358 Si02
#       5
#    16  16  16  16  16
#     4  11  23  41  65  91 120 168 220 263 326 373
#     4  10  22  36  60  95 131 162 190 248 311 374
#     4  11  23  40  60  90 128 159 216 279 320 372
#     4  11  24  38  62  90 126 181 211 247 316 396
#     4  11  23  41  62  93 134 163 211 263 305 381
#
# _framework density 22.558050999999999
#
# number of rings (size 3 to 8) (size 9 to 14) (size 15 to 20)
#    0.000    1.200    0.000    7.800    8.400    3.200 
#    0.000    0.000    0.000    2.400    0.000    0.000 
#    0.000    0.000    0.000    0.000    0.000    0.000 
#
# Total GULP energy -223475.346790 kJ/mol
# GULP energy per Si atom -5586.883670 kJ/mol
# Density = 2.250671 g / cm^3
# Si number density = 22.558051 Si / 1000 Ang^3
#
#
#
# Elastic Constant Matrix: (Units=GPa)
#
#
# Indices 1 2 3 4 5 6 
#
# 1 193.3922 27.5446 15.7519 0.0000 0.0000 0.0000
# 2 27.5446 131.2951 10.7245 0.0000 0.0000 0.0000
# 3 15.7519 10.7245 47.1417 0.0000 0.0000 0.0000
# 4 0.0000 0.0000 0.0000 14.3983 0.0000 0.0000
# 5 0.0000 0.0000 0.0000 0.0000 29.7948 0.0000
# 6 0.0000 0.0000 0.0000 0.0000 0.0000 36.3753
#
#
#
# Elastic Compliance Matrix: (Units=1/GPa)
#
#
# Indices 1 2 3 4 5 6 
#
# 1 0.005444 -0.001012 -0.001589 0.000000 0.000000 0.000000
# 2 -0.001012 0.007949 -0.001470 0.000000 0.000000 0.000000
# 3 -0.001589 -0.001470 0.022078 0.000000 0.000000 0.000000
# 4 0.000000 0.000000 0.000000 0.069453 0.000000 0.000000
# 5 0.000000 0.000000 0.000000 0.000000 0.033563 0.000000
# 6 0.000000 0.000000 0.000000 0.000000 0.000000 0.027491
#
#
# Mechanical properties :
#
#
# Convention : Reuss Voigt Hill
#
# Bulk Modulus (GPa) = 36.59168 53.31902 44.95535
# Shear Modulus (GPa) = 27.28805 37.30087 32.29446
#
# Velocity S-wave (km/s) = 3.48182 4.07080 3.78777
# Velocity P-wave (km/s) = 5.69389 6.76630 6.25313
#
# Compressibility (1/GPa) = 0.02732862
#
# Stress axis : x y z
#
# Youngs Moduli (GPa) = 183.67314 125.80349 45.29400
#
# Poissons Ratio (x) = 0.12737 0.07197
# Poissons Ratio (y) = 0.18595 0.06658
# Poissons Ratio (z) = 0.29184 0.18494
#
# Static dielectric constant tensor:
#      x y z
#    x 1.855660 0.000000 0.000000 
#    y 0.000000 1.900680 0.000000 
#    z 0.000000 0.000000 1.848010 
# 
# From -- ./inp_files/53175.got.cif
#   From: 2010.05.17/outbox.cif.g08.bks.cpg/sg68_27_cif.got.tgz:53175.got - 2010.06.03 18:57:09.
