data_PCOD9508273
_publ_section_title
;
Structure prediction by ZEFSAII (Michael W. Deem and Ramdas Pophale) SiO2 
 PCOD9508273
Probable space group: C C C A
;
_chemical_formula_sum "Si O2"
_cell_formula_units_Z 96
_cell_length_a 15.831557
_cell_length_b 10.653486
_cell_length_c 25.942855
_cell_angle_alpha 90.000000
_cell_angle_beta 90.000000
_cell_angle_gamma 90.000000
_cell_volume 4375.554894
_symmetry_space_group_name_H-M "C C C A"
_symmetry_group_IT_number 68
_space_group.IT_coordinate_system_code '2'
_symmetry_cell_setting 'orthorhombic'
loop_
_space_group_symop_operation_xyz
x,y,z
-x,1/2-y,z
x,1/2-y,1/2-z
-x,y,1/2-z
-x,-y,-z
x,1/2+y,-z
-x,1/2+y,1/2+z
x,-y,1/2+z
1/2+x,1/2+y,z
1/2-x,-y,z
1/2+x,-y,1/2-z
1/2-x,1/2+y,1/2-z
1/2-x,1/2-y,-z
1/2+x,y,-z
1/2-x,y,1/2+z
1/2+x,1/2-y,1/2+z
loop_
_atom_site_type_symbol
_atom_site_label
_atom_site_fract_x
_atom_site_fract_y
_atom_site_fract_z
Si Si1 0.250000 0.000000 0.984597
Si Si2 0.842340 0.680863 0.541093
Si Si3 0.500000 0.250000 0.033533
Si Si4 0.052590 0.872782 0.698315
Si Si5 0.635925 0.580040 0.400031
Si Si6 0.750000 0.500000 0.807782
Si Si7 0.953699 0.992756 0.401061
Si Si8 0.711152 0.250000 0.750000
O O1 0.243152 0.127364 0.016068
O O2 0.328678 0.995108 0.946233
O O3 0.828945 0.783993 0.585142
O O4 0.878704 0.556622 0.568287
O O5 0.917660 0.724768 0.502578
O O6 0.477049 0.135913 0.071624
O O7 0.144913 0.818453 0.711342
O O8 0.000000 0.750000 0.678344
O O9 0.000000 0.907103 0.750000
O O10 0.061465 0.989419 0.659830
O O11 0.671045 0.527601 0.346286
O O12 0.536867 0.578526 0.406260
O O13 0.759114 0.369286 0.775856
#
# Coordination Sequence:
#
# PCOD9508273 Si02
#       8
#     8  16   8  16  16   8  16   8
#     4  11  24  38  59  94 140 172 213 270 327 390
#     4  12  22  42  65  93 131 180 221 271 321 398
#     4  12  24  38  63  98 137 170 220 272 334 390
#     4   9  19  40  74  94 117 161 225 278 326 404
#     4  11  22  40  65  93 128 175 222 261 333 393
#     4  11  24  42  65  96 130 172 219 278 335 416
#     4  12  22  40  66  95 125 171 223 272 324 395
#     4  10  21  44  64  94 125 164 218 278 350 387
#
# _framework density 21.940075
#
# number of rings (size 3 to 8) (size 9 to 14) (size 15 to 20)
#    0.000    1.167    3.333    6.000    0.000    0.000 
#    3.000    2.083    0.000    0.000    0.000    0.000 
#    0.000    0.000    0.000    0.000    0.000    0.000 
#
# Total GULP energy -267783.522795 kJ/mol
# GULP energy per Si atom -5578.823392 kJ/mol
# Density = 2.189014 g / cm^3
# Si number density = 21.940075 Si / 1000 Ang^3
#
#
#
# Elastic Constant Matrix: (Units=GPa)
#
#
# Indices 1 2 3 4 5 6 
#
# 1 41.4063 8.4413 19.1363 0.0000 0.0000 0.0000
# 2 8.4413 134.1332 75.4016 0.0000 0.0000 0.0000
# 3 19.1363 75.4016 114.0299 0.0000 0.0000 0.0000
# 4 0.0000 0.0000 0.0000 459.9110 0.0000 0.0000
# 5 0.0000 0.0000 0.0000 0.0000 -4.6796 0.0000
# 6 0.0000 0.0000 0.0000 0.0000 0.0000 24.2951
#
#
#
# Elastic Compliance Matrix: (Units=1/GPa)
#
#
# Indices 1 2 3 4 5 6 
#
# 1 0.026327 0.001316 -0.005288 0.000000 0.000000 0.000000
# 2 0.001316 0.011932 -0.008111 0.000000 0.000000 0.000000
# 3 -0.005288 -0.008111 0.015020 0.000000 0.000000 0.000000
# 4 0.000000 0.000000 0.000000 0.002174 0.000000 0.000000
# 5 0.000000 0.000000 0.000000 0.000000 -0.213694 0.000000
# 6 0.000000 0.000000 0.000000 0.000000 0.000000 0.041161
#
#
# Mechanical properties :
#
#
# Convention : Reuss Voigt Hill
#
# Bulk Modulus (GPa) = 34.34925 55.05867 44.70396
# Shear Modulus (GPa) = -60.08880 108.34465 24.12792
#
# Velocity S-wave (km/s) = -5.23900 7.03486 3.31980
# Velocity P-wave (km/s) = 4.57234 9.54648 5.92575
#
# Compressibility (1/GPa) = 0.02911272
#
# Stress axis : x y z
#
# Youngs Moduli (GPa) = 37.98430 83.80969 66.57688
#
# Poissons Ratio (x) = -0.11029 0.35208
# Poissons Ratio (y) = -0.04999 0.53998
# Poissons Ratio (z) = 0.20087 0.67975
#
# Static dielectric constant tensor:
#      x y z
#    x 1.972680 0.000000 0.000000 
#    y 0.000000 1.864030 0.000000 
#    z 0.000000 0.000000 1.885560 
# 
# From -- ./inp_files/46056.got.cif
#   From: 2010.05.17/outbox.cif.g08.bks.cpg/sg68_24_cif.got.tgz:46056.got - 2010.06.03 18:57:09.
