data_PCOD9508115
_publ_section_title
;
Structure prediction by ZEFSAII (Michael W. Deem and Ramdas Pophale) SiO2 
 PCOD9508115
Probable space group: C C C A
;
_chemical_formula_sum "Si O2"
_cell_formula_units_Z 96
_cell_length_a 24.834176
_cell_length_b 8.879606
_cell_length_c 21.487537
_cell_angle_alpha 90.000000
_cell_angle_beta 90.000000
_cell_angle_gamma 90.000000
_cell_volume 4738.382200
_symmetry_space_group_name_H-M "C C C A"
_symmetry_group_IT_number 68
_space_group.IT_coordinate_system_code '2'
_symmetry_cell_setting 'orthorhombic'
loop_
_space_group_symop_operation_xyz
x,y,z
-x,1/2-y,z
x,1/2-y,1/2-z
-x,y,1/2-z
-x,-y,-z
x,1/2+y,-z
-x,1/2+y,1/2+z
x,-y,1/2+z
1/2+x,1/2+y,z
1/2-x,-y,z
1/2+x,-y,1/2-z
1/2-x,1/2+y,1/2-z
1/2-x,1/2-y,-z
1/2+x,y,-z
1/2-x,y,1/2+z
1/2+x,1/2-y,1/2+z
loop_
_atom_site_type_symbol
_atom_site_label
_atom_site_fract_x
_atom_site_fract_y
_atom_site_fract_z
Si Si1 0.904204 0.121337 0.700322
Si Si2 0.617836 0.962584 0.484017
Si Si3 0.436672 0.738950 0.923414
Si Si4 0.198243 0.096967 0.289830
Si Si5 0.945185 0.321118 0.317930
Si Si6 0.655159 0.304990 0.912169
O O1 0.912984 0.250000 0.750000
O O2 0.901221 0.200985 0.633828
O O3 0.852574 0.016970 0.716047
O O4 0.951283 0.998743 0.693606
O O5 0.577909 0.848066 0.519233
O O6 0.658352 0.856511 0.445371
O O7 0.583025 0.072805 0.440893
O O8 0.646499 0.067971 0.535428
O O9 0.500000 0.750000 0.909713
O O10 0.193058 0.250000 0.250000
O O11 0.200063 0.148994 0.362184
O O12 0.250000 0.000000 0.272092
O O13 0.933429 0.250000 0.250000
O O14 0.898386 0.298342 0.368291
O O15 0.000000 0.250000 0.341523
#
# Coordination Sequence:
#
# PCOD9508115 Si02
#       6
#    16  16  16  16  16  16
#     4  11  24  41  62  95 131 164 216 274 328 387
#     4  10  22  39  60  88 129 181 217 260 307 372
#     4  11  23  36  59  91 130 178 228 263 304 365
#     4  11  24  47  74 100 122 160 210 272 337 398
#     4  10  22  37  58  83 125 173 215 264 329 377
#     4  10  21  41  64  89 131 163 217 260 321 371
#
# _framework density 20.260079000000001
#
# number of rings (size 3 to 8) (size 9 to 14) (size 15 to 20)
#    0.000    1.500    3.333    3.000    7.000    4.333 
#    0.000    0.833    0.000    0.000    0.000    0.000 
#    0.000    0.000    0.000    0.000    0.000    0.000 
#
# Total GULP energy -267970.765833 kJ/mol
# GULP energy per Si atom -5582.724288 kJ/mol
# Density = 2.021397 g / cm^3
# Si number density = 20.260079 Si / 1000 Ang^3
#
#
#
# Elastic Constant Matrix: (Units=GPa)
#
#
# Indices 1 2 3 4 5 6 
#
# 1 34.4730 17.4720 -10.2004 0.0000 0.0000 0.0000
# 2 17.4720 147.6277 43.4486 0.0000 0.0000 0.0000
# 3 -10.2004 43.4486 74.1874 0.0000 0.0000 0.0000
# 4 0.0000 0.0000 0.0000 45.3993 0.0000 0.0000
# 5 0.0000 0.0000 0.0000 0.0000 10.8301 0.0000
# 6 0.0000 0.0000 0.0000 0.0000 0.0000 25.2715
#
#
#
# Elastic Compliance Matrix: (Units=1/GPa)
#
#
# Indices 1 2 3 4 5 6 
#
# 1 0.035000 -0.006716 0.008746 0.000000 0.000000 0.000000
# 2 -0.006716 0.009473 -0.006472 0.000000 0.000000 0.000000
# 3 0.008746 -0.006472 0.018472 0.000000 0.000000 0.000000
# 4 0.000000 0.000000 0.000000 0.022027 0.000000 0.000000
# 5 0.000000 0.000000 0.000000 0.000000 0.092336 0.000000
# 6 0.000000 0.000000 0.000000 0.000000 0.000000 0.039570
#
#
# Mechanical properties :
#
#
# Convention : Reuss Voigt Hill
#
# Bulk Modulus (GPa) = 18.49752 39.74761 29.12256
# Shear Modulus (GPa) = 20.51004 30.00469 25.25737
#
# Velocity S-wave (km/s) = 3.18518 3.85252 3.53463
# Velocity P-wave (km/s) = 4.76204 6.28096 5.57349
#
# Compressibility (1/GPa) = 0.05406131
#
# Stress axis : x y z
#
# Youngs Moduli (GPa) = 28.57134 105.55901 54.13571
#
# Poissons Ratio (x) = 0.70897 -0.47346
# Poissons Ratio (y) = 0.19189 0.35035
# Poissons Ratio (z) = -0.24988 0.68314
#
# Static dielectric constant tensor:
#      x y z
#    x 1.738660 0.000000 0.000000 
#    y 0.000000 1.731030 0.000000 
#    z 0.000000 0.000000 1.752770 
# 
# From -- ./inp_files/36499.got.cif
#   From: 2010.05.17/outbox.cif.g08.bks.cpg/sg68_19_cif.got.tgz:36499.got - 2010.06.03 18:57:09.
