data_PCOD9508712
_publ_section_title
;
Structure prediction by ZEFSAII (Michael W. Deem and Ramdas Pophale) SiO2 
 PCOD9508712
Probable space group: C C C A
;
_chemical_formula_sum "Si O2"
_cell_formula_units_Z 56
_cell_length_a 16.126891
_cell_length_b 12.716227
_cell_length_c 11.303298
_cell_angle_alpha 90.000000
_cell_angle_beta 90.000000
_cell_angle_gamma 90.000000
_cell_volume 2318.003568
_symmetry_space_group_name_H-M "C C C A"
_symmetry_group_IT_number 68
_space_group.IT_coordinate_system_code '2'
_symmetry_cell_setting 'orthorhombic'
loop_
_space_group_symop_operation_xyz
x,y,z
-x,1/2-y,z
x,1/2-y,1/2-z
-x,y,1/2-z
-x,-y,-z
x,1/2+y,-z
-x,1/2+y,1/2+z
x,-y,1/2+z
1/2+x,1/2+y,z
1/2-x,-y,z
1/2+x,-y,1/2-z
1/2-x,1/2+y,1/2-z
1/2-x,1/2-y,-z
1/2+x,y,-z
1/2-x,y,1/2+z
1/2+x,1/2-y,1/2+z
loop_
_atom_site_type_symbol
_atom_site_label
_atom_site_fract_x
_atom_site_fract_y
_atom_site_fract_z
Si Si1 0.919681 0.893423 0.441231
Si Si2 0.942779 0.623250 0.633905
Si Si3 0.338573 0.250000 0.250000
Si Si4 0.802232 0.300923 0.394981
O O1 0.893725 0.803188 0.349792
O O2 0.853883 0.895264 0.549104
O O3 0.004769 0.870139 0.511234
O O4 0.915955 0.002064 0.370904
O O5 0.869551 0.708978 0.635344
O O6 0.000000 0.636667 0.750000
O O7 0.269441 0.169373 0.302438
O O8 0.750000 0.250000 0.500000
#
# Coordination Sequence:
#
# PCOD9508712 Si02
#       4
#    16  16   8  16
#     4  10  24  43  69 101 134 180 233 280 340 410
#     4  11  24  43  69 101 137 179 228 286 345 409
#     4  10  22  42  68  98 136 180 224 282 339 404
#     4  10  22  41  65  95 134 175 217 275 342 402
#
# _framework density 24.158719999999999
#
# number of rings (size 3 to 8) (size 9 to 14) (size 15 to 20)
#    0.000    1.714    0.000    2.571    0.000   17.143 
#    0.000    7.143    0.000    0.000    0.000    0.000 
#    0.000    0.000    0.000    0.000    0.000    0.000 
#
# Total GULP energy -156356.102668 kJ/mol
# GULP energy per Si atom -5584.146524 kJ/mol
# Density = 2.410373 g / cm^3
# Si number density = 24.158720 Si / 1000 Ang^3
#
#
#
# Elastic Constant Matrix: (Units=GPa)
#
#
# Indices 1 2 3 4 5 6 
#
# 1 123.9412 49.0355 69.3163 0.0000 0.0000 0.0000
# 2 49.0355 100.5001 42.7258 0.0000 0.0000 0.0000
# 3 69.3163 42.7258 118.6943 0.0000 0.0000 0.0000
# 4 0.0000 0.0000 0.0000 33.1012 0.0000 0.0000
# 5 0.0000 0.0000 0.0000 0.0000 71.8933 0.0000
# 6 0.0000 0.0000 0.0000 0.0000 0.0000 14.6814
#
#
#
# Elastic Compliance Matrix: (Units=1/GPa)
#
#
# Indices 1 2 3 4 5 6 
#
# 1 0.013047 -0.003692 -0.006290 0.000000 0.000000 0.000000
# 2 -0.003692 0.012793 -0.002449 0.000000 0.000000 0.000000
# 3 -0.006290 -0.002449 0.012980 0.000000 0.000000 0.000000
# 4 0.000000 0.000000 0.000000 0.030210 0.000000 0.000000
# 5 0.000000 0.000000 0.000000 0.000000 0.013910 0.000000
# 6 0.000000 0.000000 0.000000 0.000000 0.000000 0.068113
#
#
# Mechanical properties :
#
#
# Convention : Reuss Voigt Hill
#
# Bulk Modulus (GPa) = 71.64584 73.92123 72.78353
# Shear Modulus (GPa) = 27.69051 36.07237 31.88144
#
# Velocity S-wave (km/s) = 3.38922 3.86831 3.63666
# Velocity P-wave (km/s) = 6.71092 7.11452 6.91566
#
# Compressibility (1/GPa) = 0.01395754
#
# Stress axis : x y z
#
# Youngs Moduli (GPa) = 76.64678 78.17044 77.04081
#
# Poissons Ratio (x) = 0.28857 0.48462
# Poissons Ratio (y) = 0.28294 0.18868
# Poissons Ratio (z) = 0.48214 0.19145
#
# Static dielectric constant tensor:
#      x y z
#    x 1.993230 0.000000 0.000000 
#    y 0.000000 1.940200 0.000000 
#    z 0.000000 0.000000 2.060530 
# 
# From -- ./inp_files/12689.got.cif
#   From: 2010.05.17/outbox.cif.g08.bks.cpg/sg68_7_cif.got.tgz:12689.got - 2010.06.03 18:57:09.
