data_PCOD9508530
_publ_section_title
;
Structure prediction by ZEFSAII (Michael W. Deem and Ramdas Pophale) SiO2 
 PCOD9508530
Probable space group: C C C A
;
_chemical_formula_sum "Si O2"
_cell_formula_units_Z 80
_cell_length_a 5.119707
_cell_length_b 31.208033
_cell_length_c 23.377151
_cell_angle_alpha 90.000000
_cell_angle_beta 90.000000
_cell_angle_gamma 90.000000
_cell_volume 3735.107328
_symmetry_space_group_name_H-M "C C C A"
_symmetry_group_IT_number 68
_space_group.IT_coordinate_system_code '2'
_symmetry_cell_setting 'orthorhombic'
loop_
_space_group_symop_operation_xyz
x,y,z
-x,1/2-y,z
x,1/2-y,1/2-z
-x,y,1/2-z
-x,-y,-z
x,1/2+y,-z
-x,1/2+y,1/2+z
x,-y,1/2+z
1/2+x,1/2+y,z
1/2-x,-y,z
1/2+x,-y,1/2-z
1/2-x,1/2+y,1/2-z
1/2-x,1/2-y,-z
1/2+x,y,-z
1/2-x,y,1/2+z
1/2+x,1/2-y,1/2+z
loop_
_atom_site_type_symbol
_atom_site_label
_atom_site_fract_x
_atom_site_fract_y
_atom_site_fract_z
Si Si1 0.566057 0.870256 0.124850
Si Si2 0.500000 0.615575 0.250000
Si Si3 0.281373 0.411861 0.458689
Si Si4 0.909647 0.959461 0.122417
Si Si5 0.500000 0.055256 0.250000
Si Si6 0.031230 0.800213 0.962694
O O1 0.536830 0.859694 0.191135
O O2 0.289781 0.880850 0.094269
O O3 0.740873 0.914318 0.120871
O O4 0.643089 0.828889 0.088668
O O5 0.748302 0.584973 0.243034
O O6 0.350292 0.453167 0.420612
O O7 0.528944 0.407979 0.500645
O O8 0.978764 0.968166 0.188984
O O9 0.750000 0.000000 0.101383
O O10 0.000000 0.750000 0.948204
O O11 0.242996 0.809456 0.012410
#
# Coordination Sequence:
#
# PCOD9508530 Si02
#       6
#    16   8  16  16   8  16
#     4  11  23  43  66  95 132 174 218 278 330 395
#     4  10  22  39  67  92 125 168 221 266 333 381
#     4  12  24  42  62  90 126 174 215 263 328 391
#     4  11  26  44  66  96 133 176 231 276 335 387
#     4  10  22  45  62  90 122 172 224 284 312 379
#     4  10  23  41  68  99 128 166 216 269 327 398
#
# _framework density 21.418395
#
# number of rings (size 3 to 8) (size 9 to 14) (size 15 to 20)
#    0.000    1.200    4.000    1.200    2.800    4.800 
#    0.000    0.500    0.000    0.000    0.000    5.600 
#    0.000    0.000    0.000    0.000    0.000    0.000 
#
# Total GULP energy -223022.191872 kJ/mol
# GULP energy per Si atom -5575.554797 kJ/mol
# Density = 2.136965 g / cm^3
# Si number density = 21.418395 Si / 1000 Ang^3
#
#
#
# Elastic Constant Matrix: (Units=GPa)
#
#
# Indices 1 2 3 4 5 6 
#
# 1 120.3932 22.2780 23.4273 0.0000 0.0000 0.0000
# 2 22.2780 79.1586 39.8354 0.0000 0.0000 0.0000
# 3 23.4273 39.8354 146.0561 0.0000 0.0000 0.0000
# 4 0.0000 0.0000 0.0000 19.9755 0.0000 0.0000
# 5 0.0000 0.0000 0.0000 0.0000 27.5057 0.0000
# 6 0.0000 0.0000 0.0000 0.0000 0.0000 18.8516
#
#
#
# Elastic Compliance Matrix: (Units=1/GPa)
#
#
# Indices 1 2 3 4 5 6 
#
# 1 0.008854 -0.002060 -0.000858 0.000000 0.000000 0.000000
# 2 -0.002060 0.015122 -0.003794 0.000000 0.000000 0.000000
# 3 -0.000858 -0.003794 0.008019 0.000000 0.000000 0.000000
# 4 0.000000 0.000000 0.000000 0.050061 0.000000 0.000000
# 5 0.000000 0.000000 0.000000 0.000000 0.036356 0.000000
# 6 0.000000 0.000000 0.000000 0.000000 0.000000 0.053046
#
#
# Mechanical properties :
#
#
# Convention : Reuss Voigt Hill
#
# Bulk Modulus (GPa) = 53.84804 57.40991 55.62898
# Shear Modulus (GPa) = 26.16796 30.60438 28.38617
#
# Velocity S-wave (km/s) = 3.49915 3.78416 3.64444
# Velocity P-wave (km/s) = 6.44368 6.77904 6.61348
#
# Compressibility (1/GPa) = 0.01857078
#
# Stress axis : x y z
#
# Youngs Moduli (GPa) = 112.93903 66.12948 124.70187
#
# Poissons Ratio (x) = 0.13622 0.10704
# Poissons Ratio (y) = 0.23265 0.47311
# Poissons Ratio (z) = 0.09695 0.25089
#
# Static dielectric constant tensor:
#      x y z
#    x 1.860710 0.000000 0.000000 
#    y 0.000000 1.820140 0.000000 
#    z 0.000000 0.000000 1.804660 
# 
# From -- ./inp_files/48517.got.cif
#   From: 2010.05.17/outbox.cif.g08.bks.cpg/sg68_25_cif.got.tgz:48517.got - 2010.06.03 18:57:09.
