data_PCOD9508479
_publ_section_title
;
Structure prediction by ZEFSAII (Michael W. Deem and Ramdas Pophale) SiO2 
 PCOD9508479
Probable space group: C C C A
;
_chemical_formula_sum "Si O2"
_cell_formula_units_Z 72
_cell_length_a 8.780339
_cell_length_b 24.407127
_cell_length_c 15.354788
_cell_angle_alpha 90.000000
_cell_angle_beta 90.000000
_cell_angle_gamma 90.000000
_cell_volume 3290.574815
_symmetry_space_group_name_H-M "C C C A"
_symmetry_group_IT_number 68
_space_group.IT_coordinate_system_code '2'
_symmetry_cell_setting 'orthorhombic'
loop_
_space_group_symop_operation_xyz
x,y,z
-x,1/2-y,z
x,1/2-y,1/2-z
-x,y,1/2-z
-x,-y,-z
x,1/2+y,-z
-x,1/2+y,1/2+z
x,-y,1/2+z
1/2+x,1/2+y,z
1/2-x,-y,z
1/2+x,-y,1/2-z
1/2-x,1/2+y,1/2-z
1/2-x,1/2-y,-z
1/2+x,y,-z
1/2-x,y,1/2+z
1/2+x,1/2-y,1/2+z
loop_
_atom_site_type_symbol
_atom_site_label
_atom_site_fract_x
_atom_site_fract_y
_atom_site_fract_z
Si Si1 0.754014 0.750000 0.750000
Si Si2 0.500000 0.250000 0.598907
Si Si3 0.500000 0.158825 0.250000
Si Si4 0.922450 0.367606 0.068566
Si Si5 0.750000 0.500000 0.193584
Si Si6 0.915196 0.409424 0.590017
Si Si7 0.500000 0.418454 0.750000
O O1 0.646673 0.802677 0.757234
O O2 0.857255 0.755144 0.664389
O O3 0.528733 0.305616 0.545851
O O4 0.491403 0.121724 0.335342
O O5 0.742041 0.376605 0.072764
O O6 0.987865 0.381650 0.164008
O O7 0.991098 0.409133 0.998361
O O8 0.864586 0.533255 0.131426
O O9 0.649618 0.542951 0.247983
#
# Coordination Sequence:
#
# PCOD9508479 Si02
#       7
#     8   8   8  16   8  16   8
#     4  10  22  38  72  96 136 176 224 274 338 402
#     4  11  22  42  66 103 136 184 220 275 332 419
#     4  11  23  44  65 102 133 180 223 279 336 398
#     4  11  26  42  68  99 138 177 227 273 341 400
#     4  10  24  44  68  98 132 178 228 280 342 394
#     4  11  26  44  66 100 136 176 228 281 333 403
#     4  10  23  45  69  98 127 179 223 282 344 402
#
# _framework density 21.880676000000001
#
# number of rings (size 3 to 8) (size 9 to 14) (size 15 to 20)
#    0.000    1.333    2.222    2.000    6.222    8.889 
#    0.000    0.000    0.000    0.000    0.000    0.000 
#    0.000    0.000    0.000    0.000    0.000    0.000 
#
# Total GULP energy -201516.279642 kJ/mol
# GULP energy per Si atom -5597.674434 kJ/mol
# Density = 2.183087 g / cm^3
# Si number density = 21.880676 Si / 1000 Ang^3
#
#
#
# Elastic Constant Matrix: (Units=GPa)
#
#
# Indices 1 2 3 4 5 6 
#
# 1 64.7448 5.7414 14.6538 0.0000 0.0000 0.0000
# 2 5.7414 65.9811 -12.4709 0.0000 0.0000 0.0000
# 3 14.6538 -12.4709 74.2076 0.0000 0.0000 0.0000
# 4 0.0000 0.0000 0.0000 10.8332 0.0000 0.0000
# 5 0.0000 0.0000 0.0000 0.0000 17.3496 0.0000
# 6 0.0000 0.0000 0.0000 0.0000 0.0000 3.7879
#
#
#
# Elastic Compliance Matrix: (Units=1/GPa)
#
#
# Indices 1 2 3 4 5 6 
#
# 1 0.016448 -0.002112 -0.003603 0.000000 0.000000 0.000000
# 2 -0.002112 0.015924 0.003093 0.000000 0.000000 0.000000
# 3 -0.003603 0.003093 0.014707 0.000000 0.000000 0.000000
# 4 0.000000 0.000000 0.000000 0.092309 0.000000 0.000000
# 5 0.000000 0.000000 0.000000 0.000000 0.057638 0.000000
# 6 0.000000 0.000000 0.000000 0.000000 0.000000 0.264002
#
#
# Mechanical properties :
#
#
# Convention : Reuss Voigt Hill
#
# Bulk Modulus (GPa) = 23.90318 24.53135 24.21726
# Shear Modulus (GPa) = 10.41195 19.52806 14.97000
#
# Velocity S-wave (km/s) = 2.18377 2.99068 2.61849
# Velocity P-wave (km/s) = 4.16011 4.81262 4.49821
#
# Compressibility (1/GPa) = 0.04183544
#
# Stress axis : x y z
#
# Youngs Moduli (GPa) = 60.79755 62.79711 67.99478
#
# Poissons Ratio (x) = 0.13264 0.24498
# Poissons Ratio (y) = 0.12842 -0.21032
# Poissons Ratio (z) = 0.21905 -0.19425
#
# Static dielectric constant tensor:
#      x y z
#    x 1.775160 0.000000 0.000000 
#    y 0.000000 1.809380 0.000000 
#    z 0.000000 0.000000 1.748410 
# 
# From -- ./inp_files/19531.got.cif
#   From: 2010.05.17/outbox.cif.g08.bks.cpg/sg68_10_cif.got.tgz:19531.got - 2010.06.03 18:57:09.
