data_PCOD9508816
_publ_section_title
;
Structure prediction by ZEFSAII (Michael W. Deem and Ramdas Pophale) SiO2 
 PCOD9508816
Probable space group: C C C A
;
_chemical_formula_sum "Si O2"
_cell_formula_units_Z 56
_cell_length_a 16.752071
_cell_length_b 13.761830
_cell_length_c 9.926603
_cell_angle_alpha 90.000000
_cell_angle_beta 90.000000
_cell_angle_gamma 90.000000
_cell_volume 2288.470650
_symmetry_space_group_name_H-M "C C C A"
_symmetry_group_IT_number 68
_space_group.IT_coordinate_system_code '2'
_symmetry_cell_setting 'orthorhombic'
loop_
_space_group_symop_operation_xyz
x,y,z
-x,1/2-y,z
x,1/2-y,1/2-z
-x,y,1/2-z
-x,-y,-z
x,1/2+y,-z
-x,1/2+y,1/2+z
x,-y,1/2+z
1/2+x,1/2+y,z
1/2-x,-y,z
1/2+x,-y,1/2-z
1/2-x,1/2+y,1/2-z
1/2-x,1/2-y,-z
1/2+x,y,-z
1/2-x,y,1/2+z
1/2+x,1/2-y,1/2+z
loop_
_atom_site_type_symbol
_atom_site_label
_atom_site_fract_x
_atom_site_fract_y
_atom_site_fract_z
Si Si1 0.583741 0.594477 0.283686
Si Si2 0.871697 0.750000 0.250000
Si Si3 0.241446 0.614609 0.616110
Si Si4 0.386507 0.080161 0.080377
O O1 0.500000 0.642171 0.250000
O O2 0.665453 0.652432 0.299958
O O3 0.600773 0.509004 0.178688
O O4 0.575956 0.555090 0.436603
O O5 0.817212 0.678126 0.344151
O O6 0.917937 0.676831 0.152274
O O7 0.250000 0.500000 0.650615
O O8 0.205629 0.608551 0.463237
#
# Coordination Sequence:
#
# PCOD9508816 Si02
#       4
#    16   8  16  16
#     4  10  22  42  68  94 129 179 224 265 341 395
#     4  12  20  42  62 110 130 170 226 278 340 386
#     4  10  23  38  69  95 134 171 226 274 337 389
#     4  10  23  39  67  97 134 175 219 286 320 406
#
# _framework density 24.470489000000001
#
# number of rings (size 3 to 8) (size 9 to 14) (size 15 to 20)
#    1.714    0.000    2.857    1.714    4.000    0.000 
#    5.143    1.429    6.286    0.000    0.000    0.000 
#    0.000    0.000    0.000    0.000    0.000    0.000 
#
# Total GULP energy -155956.828312 kJ/mol
# GULP energy per Si atom -5569.886725 kJ/mol
# Density = 2.441479 g / cm^3
# Si number density = 24.470489 Si / 1000 Ang^3
#
#
#
# Elastic Constant Matrix: (Units=GPa)
#
#
# Indices 1 2 3 4 5 6 
#
# 1 48.8314 -5.7310 17.5445 0.0000 0.0000 0.0000
# 2 -5.7310 112.2258 46.8684 0.0000 0.0000 0.0000
# 3 17.5445 46.8684 157.2967 0.0000 0.0000 0.0000
# 4 0.0000 0.0000 0.0000 13.8999 0.0000 0.0000
# 5 0.0000 0.0000 0.0000 0.0000 10.3505 0.0000
# 6 0.0000 0.0000 0.0000 0.0000 0.0000 -2.7248
#
#
#
# Elastic Compliance Matrix: (Units=1/GPa)
#
#
# Indices 1 2 3 4 5 6 
#
# 1 0.021905 0.002443 -0.003171 0.000000 0.000000 0.000000
# 2 0.002443 0.010449 -0.003386 0.000000 0.000000 0.000000
# 3 -0.003171 -0.003386 0.007720 0.000000 0.000000 0.000000
# 4 0.000000 0.000000 0.000000 0.071943 0.000000 0.000000
# 5 0.000000 0.000000 0.000000 0.000000 0.096614 0.000000
# 6 0.000000 0.000000 0.000000 0.000000 0.000000 -0.367000
#
#
# Mechanical properties :
#
#
# Convention : Reuss Voigt Hill
#
# Bulk Modulus (GPa) = 31.40133 48.41308 39.90721
# Shear Modulus (GPa) = -35.83596 21.61657 -7.10969
#
# Velocity S-wave (km/s) = -3.83097 2.97538 -1.70638
# Velocity P-wave (km/s) = 2.59004 5.62415 3.53007
#
# Compressibility (1/GPa) = 0.03184578
#
# Stress axis : x y z
#
# Youngs Moduli (GPa) = 45.65235 95.69878 129.53342
#
# Poissons Ratio (x) = -0.23379 0.41076
# Poissons Ratio (y) = -0.11153 0.43860
# Poissons Ratio (z) = 0.14477 0.32404
#
# Static dielectric constant tensor:
#      x y z
#    x 2.081610 0.000000 0.000000 
#    y 0.000000 1.915350 0.000000 
#    z 0.000000 0.000000 1.984090 
# 
# From -- ./inp_files/7657.got.cif
#   From: 2010.05.17/outbox.cif.g08.bks.cpg/sg68_4_cif.got.tgz:7657.got - 2010.06.03 18:57:09.
