data_PCOD9508154
_publ_section_title
;
Structure prediction by ZEFSAII (Michael W. Deem and Ramdas Pophale) SiO2 
 PCOD9508154
Probable space group: C C C A
;
_chemical_formula_sum "Si O2"
_cell_formula_units_Z 116
_cell_length_a 14.873039
_cell_length_b 33.062756
_cell_length_c 11.018512
_cell_angle_alpha 90.000000
_cell_angle_beta 90.000000
_cell_angle_gamma 90.000000
_cell_volume 5418.283412
_symmetry_space_group_name_H-M "C C C A"
_symmetry_group_IT_number 68
_space_group.IT_coordinate_system_code '2'
_symmetry_cell_setting 'orthorhombic'
loop_
_space_group_symop_operation_xyz
x,y,z
-x,1/2-y,z
x,1/2-y,1/2-z
-x,y,1/2-z
-x,-y,-z
x,1/2+y,-z
-x,1/2+y,1/2+z
x,-y,1/2+z
1/2+x,1/2+y,z
1/2-x,-y,z
1/2+x,-y,1/2-z
1/2-x,1/2+y,1/2-z
1/2-x,1/2-y,-z
1/2+x,y,-z
1/2-x,y,1/2+z
1/2+x,1/2-y,1/2+z
loop_
_atom_site_type_symbol
_atom_site_label
_atom_site_fract_x
_atom_site_fract_y
_atom_site_fract_z
Si Si1 0.326851 0.292041 0.679689
Si Si2 0.449656 0.947969 0.120316
Si Si3 0.940053 0.807152 0.445640
Si Si4 0.561034 0.964147 0.872079
Si Si5 0.340209 0.633945 0.344828
Si Si6 0.641873 0.880888 0.808448
Si Si7 0.000000 0.750000 0.250000
Si Si8 0.859144 0.327689 0.909794
O O1 0.331875 0.250000 0.750000
O O2 0.384441 0.289997 0.557042
O O3 0.369640 0.329122 0.758187
O O4 0.221418 0.302086 0.651011
O O5 0.500000 0.948830 0.250000
O O6 0.401168 0.904683 0.125894
O O7 0.396446 0.990985 0.116165
O O8 0.509667 0.952873 0.998077
O O9 0.897429 0.850264 0.409408
O O10 0.951611 0.691498 0.460951
O O11 0.935730 0.778200 0.329307
O O12 0.500000 0.965816 0.750000
O O13 0.622198 0.926156 0.844782
O O14 0.247788 0.620009 0.286517
O O15 0.314076 0.652655 0.473659
O O16 0.604916 0.862026 0.683199
#
# Coordination Sequence:
#
# PCOD9508154 Si02
#       8
#    16  16  16  16  16  16   4  16
#     4  11  29  48  70 104 147 187 239 306 362 428
#     4  10  23  40  66 102 138 181 228 293 365 430
#     4  12  25  46  70 101 135 183 242 292 352 430
#     4  10  21  41  68  97 134 182 237 286 354 438
#     4  11  25  42  67  99 140 181 231 291 363 413
#     4  11  22  42  68 100 133 179 237 292 342 424
#     4  12  28  44  78 100 132 182 260 286 352 424
#     4  11  24  45  73  97 136 190 234 292 354 427
#
# _framework density 21.408994
#
# number of rings (size 3 to 8) (size 9 to 14) (size 15 to 20)
#    0.000    1.103    2.759    2.483    6.759    1.103 
#    0.000    0.000    1.517    6.621    0.000    0.000 
#    0.000    0.000    0.000    0.000    0.000    0.000 
#
# Total GULP energy -323471.116247 kJ/mol
# GULP energy per Si atom -5577.088211 kJ/mol
# Density = 2.136027 g / cm^3
# Si number density = 21.408994 Si / 1000 Ang^3
#
#
#
# Elastic Constant Matrix: (Units=GPa)
#
#
# Indices 1 2 3 4 5 6 
#
# 1 53.6586 27.4906 28.6399 0.0000 0.0000 0.0000
# 2 27.4906 138.8372 42.4507 0.0000 0.0000 0.0000
# 3 28.6399 42.4507 122.2130 0.0000 0.0000 0.0000
# 4 0.0000 0.0000 0.0000 27.3701 0.0000 0.0000
# 5 0.0000 0.0000 0.0000 0.0000 28.1971 0.0000
# 6 0.0000 0.0000 0.0000 0.0000 0.0000 1.2358
#
#
#
# Elastic Compliance Matrix: (Units=1/GPa)
#
#
# Indices 1 2 3 4 5 6 
#
# 1 0.022489 -0.003179 -0.004166 0.000000 0.000000 0.000000
# 2 -0.003179 0.008508 -0.002210 0.000000 0.000000 0.000000
# 3 -0.004166 -0.002210 0.009926 0.000000 0.000000 0.000000
# 4 0.000000 0.000000 0.000000 0.036536 0.000000 0.000000
# 5 0.000000 0.000000 0.000000 0.000000 0.035465 0.000000
# 6 0.000000 0.000000 0.000000 0.000000 0.000000 0.809193
#
#
# Mechanical properties :
#
#
# Convention : Reuss Voigt Hill
#
# Bulk Modulus (GPa) = 45.84508 56.87457 51.35982
# Shear Modulus (GPa) = 5.27149 25.76909 15.52029
#
# Velocity S-wave (km/s) = 1.57087 3.47314 2.69540
# Velocity P-wave (km/s) = 4.97500 6.53506 5.80765
#
# Compressibility (1/GPa) = 0.02181259
#
# Stress axis : x y z
#
# Youngs Moduli (GPa) = 44.46708 117.53691 100.74162
#
# Poissons Ratio (x) = 0.37367 0.41967
# Poissons Ratio (y) = 0.14137 0.22266
# Poissons Ratio (z) = 0.18524 0.25978
#
# Static dielectric constant tensor:
#      x y z
#    x 1.809230 0.000000 0.000000 
#    y 0.000000 1.843780 0.000000 
#    z 0.000000 0.000000 1.818770 
# 
# From -- ./inp_files/14825.got.cif
#   From: 2010.05.17/outbox.cif.g08.bks.cpg/sg68_8_cif.got.tgz:14825.got - 2010.06.03 18:57:09.
