data_PCOD9508725
_publ_section_title
;
Structure prediction by ZEFSAII (Michael W. Deem and Ramdas Pophale) SiO2 
 PCOD9508725
Probable space group: C C C A
;
_chemical_formula_sum "Si O2"
_cell_formula_units_Z 72
_cell_length_a 15.465364
_cell_length_b 22.690892
_cell_length_c 9.194384
_cell_angle_alpha 90.000000
_cell_angle_beta 90.000000
_cell_angle_gamma 90.000000
_cell_volume 3226.519936
_symmetry_space_group_name_H-M "C C C A"
_symmetry_group_IT_number 68
_space_group.IT_coordinate_system_code '2'
_symmetry_cell_setting 'orthorhombic'
loop_
_space_group_symop_operation_xyz
x,y,z
-x,1/2-y,z
x,1/2-y,1/2-z
-x,y,1/2-z
-x,-y,-z
x,1/2+y,-z
-x,1/2+y,1/2+z
x,-y,1/2+z
1/2+x,1/2+y,z
1/2-x,-y,z
1/2+x,-y,1/2-z
1/2-x,1/2+y,1/2-z
1/2-x,1/2-y,-z
1/2+x,y,-z
1/2-x,y,1/2+z
1/2+x,1/2-y,1/2+z
loop_
_atom_site_type_symbol
_atom_site_label
_atom_site_fract_x
_atom_site_fract_y
_atom_site_fract_z
Si Si1 0.454236 0.898750 0.116997
Si Si2 0.791805 0.833847 0.003593
Si Si3 0.258047 0.250000 0.250000
Si Si4 0.850431 0.998805 0.216751
Si Si5 0.627809 0.919821 0.952854
O O1 0.500000 0.863306 0.250000
O O2 0.372091 0.873339 0.037190
O O3 0.413625 0.955284 0.201435
O O4 0.531574 0.905561 0.004034
O O5 0.791281 0.784764 0.876322
O O6 0.702149 0.872093 0.994831
O O7 0.804064 0.801032 0.156873
O O8 0.750000 0.000000 0.259777
O O9 0.874752 0.935712 0.282739
O O10 0.852779 0.021240 0.050912
#
# Coordination Sequence:
#
# PCOD9508725 Si02
#       5
#    16  16   8  16  16
#     4  10  22  41  66  97 135 177 218 267 329 400
#     4  11  23  47  69  98 132 174 228 282 343 392
#     4  10  24  44  74  96 128 172 226 298 342 386
#     4  11  21  38  62  98 135 179 214 255 315 394
#     4  11  24  40  64  98 139 176 217 264 324 399
#
# _framework density 22.315062999999999
#
# number of rings (size 3 to 8) (size 9 to 14) (size 15 to 20)
#    0.000    1.333    2.222    4.000    0.000    0.000 
#    0.000   15.000    0.000    0.000    0.000    0.000 
#    0.000    0.000    0.000    0.000    0.000    0.000 
#
# Total GULP energy -200674.291795 kJ/mol
# GULP energy per Si atom -5574.285883 kJ/mol
# Density = 2.226427 g / cm^3
# Si number density = 22.315063 Si / 1000 Ang^3
#
#
#
# Elastic Constant Matrix: (Units=GPa)
#
#
# Indices 1 2 3 4 5 6 
#
# 1 151.4994 22.2805 24.3705 0.0000 0.0000 0.0000
# 2 22.2805 59.3334 42.0548 0.0000 0.0000 0.0000
# 3 24.3705 42.0548 100.1737 0.0000 0.0000 0.0000
# 4 0.0000 0.0000 0.0000 18.0650 0.0000 0.0000
# 5 0.0000 0.0000 0.0000 0.0000 21.4566 0.0000
# 6 0.0000 0.0000 0.0000 0.0000 0.0000 -9.7390
#
#
#
# Elastic Compliance Matrix: (Units=1/GPa)
#
#
# Indices 1 2 3 4 5 6 
#
# 1 0.007038 -0.002035 -0.000858 0.000000 0.000000 0.000000
# 2 -0.002035 0.024582 -0.009825 0.000000 0.000000 0.000000
# 3 -0.000858 -0.009825 0.014316 0.000000 0.000000 0.000000
# 4 0.000000 0.000000 0.000000 0.055356 0.000000 0.000000
# 5 0.000000 0.000000 0.000000 0.000000 0.046606 0.000000
# 6 0.000000 0.000000 0.000000 0.000000 0.000000 -0.102680
#
#
# Mechanical properties :
#
#
# Convention : Reuss Voigt Hill
#
# Bulk Modulus (GPa) = 48.77909 54.26867 51.52388
# Shear Modulus (GPa) = 64.52793 20.77658 42.65225
#
# Velocity S-wave (km/s) = 5.38326 3.05463 4.37666
# Velocity P-wave (km/s) = 7.78114 6.06738 6.97708
#
# Compressibility (1/GPa) = 0.02050059
#
# Stress axis : x y z
#
# Youngs Moduli (GPa) = 142.08699 40.68075 69.85177
#
# Poissons Ratio (x) = 0.08277 0.05993
# Poissons Ratio (y) = 0.28910 0.68628
# Poissons Ratio (z) = 0.12191 0.39968
#
# Static dielectric constant tensor:
#      x y z
#    x 1.845120 0.000000 0.000000 
#    y 0.000000 1.925250 0.000000 
#    z 0.000000 0.000000 1.897450 
# 
# From -- ./inp_files/5226.got.cif
#   From: 2010.05.17/outbox.cif.g08.bks.cpg/sg68_3_cif.got.tgz:5226.got - 2010.06.03 18:57:09.
