data_PCOD9508284
_publ_section_title
;
Structure prediction by ZEFSAII (Michael W. Deem and Ramdas Pophale) SiO2 
 PCOD9508284
Probable space group: C C C A
;
_chemical_formula_sum "Si O2"
_cell_formula_units_Z 116
_cell_length_a 24.532129
_cell_length_b 16.332022
_cell_length_c 11.725757
_cell_angle_alpha 90.000000
_cell_angle_beta 90.000000
_cell_angle_gamma 90.000000
_cell_volume 4698.033246
_symmetry_space_group_name_H-M "C C C A"
_symmetry_group_IT_number 68
_space_group.IT_coordinate_system_code '2'
_symmetry_cell_setting 'orthorhombic'
loop_
_space_group_symop_operation_xyz
x,y,z
-x,1/2-y,z
x,1/2-y,1/2-z
-x,y,1/2-z
-x,-y,-z
x,1/2+y,-z
-x,1/2+y,1/2+z
x,-y,1/2+z
1/2+x,1/2+y,z
1/2-x,-y,z
1/2+x,-y,1/2-z
1/2-x,1/2+y,1/2-z
1/2-x,1/2-y,-z
1/2+x,y,-z
1/2-x,y,1/2+z
1/2+x,1/2-y,1/2+z
loop_
_atom_site_type_symbol
_atom_site_label
_atom_site_fract_x
_atom_site_fract_y
_atom_site_fract_z
Si Si1 0.500000 0.250000 0.250000
Si Si2 0.162418 0.073168 0.242697
Si Si3 0.246348 0.404759 0.918044
Si Si4 0.679118 0.089240 0.130193
Si Si5 0.973317 0.633025 0.041695
Si Si6 0.892349 0.291615 0.372664
Si Si7 0.810579 0.744355 0.058999
Si Si8 0.581921 0.545437 0.039803
O O1 0.472002 0.186739 0.158475
O O2 0.209646 0.123313 0.176890
O O3 0.142331 0.126256 0.348255
O O4 0.110508 0.065938 0.159334
O O5 0.181229 0.982314 0.278431
O O6 0.250000 0.500000 0.897713
O O7 0.192626 0.350598 0.904923
O O8 0.268391 0.405938 0.047916
O O9 0.675453 0.186626 0.152113
O O10 0.629351 0.058189 0.052205
O O11 0.940647 0.547068 0.050545
O O12 0.946368 0.684747 0.940166
O O13 0.033362 0.604656 0.001789
O O14 0.900541 0.250000 0.250000
O O15 0.855286 0.242002 0.461425
O O16 0.750000 0.750000 0.000000
#
# Coordination Sequence:
#
# PCOD9508284 Si02
#       8
#     4  16  16  16  16  16  16  16
#     4  12  32  48  74 112 156 210 256 338 400 480
#     4  11  24  42  76 107 144 198 259 318 392 467
#     4  10  22  41  68 102 149 198 252 315 389 469
#     4  10  21  44  69 104 142 197 259 315 383 466
#     4  11  28  49  75 108 156 200 266 319 400 486
#     4  12  25  46  76 112 151 196 255 329 394 464
#     4  10  23  43  70 101 157 199 249 331 385 470
#     4  10  24  49  74 108 148 205 253 324 394 489
#
# _framework density 24.691184
#
# number of rings (size 3 to 8) (size 9 to 14) (size 15 to 20)
#    0.000    1.379    1.379    3.310    7.724    3.310 
#    0.000    3.448    4.552    0.000    0.000    0.000 
#    0.000    0.000    0.000    0.000    0.000    0.000 
#
# Total GULP energy -323960.910793 kJ/mol
# GULP energy per Si atom -5585.532945 kJ/mol
# Density = 2.463499 g / cm^3
# Si number density = 24.691184 Si / 1000 Ang^3
#
#
#
# Elastic Constant Matrix: (Units=GPa)
#
#
# Indices 1 2 3 4 5 6 
#
# 1 44.1106 37.2791 34.4525 0.0000 0.0000 0.0000
# 2 37.2791 175.1258 67.0197 0.0000 0.0000 0.0000
# 3 34.4525 67.0197 127.2366 0.0000 0.0000 0.0000
# 4 0.0000 0.0000 0.0000 49.0261 0.0000 0.0000
# 5 0.0000 0.0000 0.0000 0.0000 21.0098 0.0000
# 6 0.0000 0.0000 0.0000 0.0000 0.0000 25.8394
#
#
#
# Elastic Compliance Matrix: (Units=1/GPa)
#
#
# Indices 1 2 3 4 5 6 
#
# 1 0.031091 -0.004254 -0.006178 0.000000 0.000000 0.000000
# 2 -0.004254 0.007734 -0.002922 0.000000 0.000000 0.000000
# 3 -0.006178 -0.002922 0.011071 0.000000 0.000000 0.000000
# 4 0.000000 0.000000 0.000000 0.020397 0.000000 0.000000
# 5 0.000000 0.000000 0.000000 0.000000 0.047597 0.000000
# 6 0.000000 0.000000 0.000000 0.000000 0.000000 0.038701
#
#
# Mechanical properties :
#
#
# Convention : Reuss Voigt Hill
#
# Bulk Modulus (GPa) = 43.12503 69.33063 56.22783
# Shear Modulus (GPa) = 26.17426 33.02317 29.59872
#
# Velocity S-wave (km/s) = 3.25940 3.66108 3.46606
# Velocity P-wave (km/s) = 5.62748 6.78317 6.23217
#
# Compressibility (1/GPa) = 0.02318839
#
# Stress axis : x y z
#
# Youngs Moduli (GPa) = 32.16394 129.30069 90.32454
#
# Poissons Ratio (x) = 0.55006 0.55801
# Poissons Ratio (y) = 0.13683 0.26391
# Poissons Ratio (z) = 0.19870 0.37779
#
# Static dielectric constant tensor:
#      x y z
#    x 2.059870 0.000000 0.000000 
#    y 0.000000 2.923090 0.000000 
#    z 0.000000 0.000000 1.474160 
# 
# From -- ./inp_files/17242.got.cif
#   From: 2010.05.17/outbox.cif.g08.bks.cpg/sg68_9_cif.got.tgz:17242.got - 2010.06.03 18:57:09.
