data_PCOD9508766
_publ_section_title
;
Structure prediction by ZEFSAII (Michael W. Deem and Ramdas Pophale) SiO2 
 PCOD9508766
Probable space group: C C C A
;
_chemical_formula_sum "Si O2"
_cell_formula_units_Z 88
_cell_length_a 30.806074
_cell_length_b 25.222508
_cell_length_c 5.087008
_cell_angle_alpha 90.000000
_cell_angle_beta 90.000000
_cell_angle_gamma 90.000000
_cell_volume 3952.638017
_symmetry_space_group_name_H-M "C C C A"
_symmetry_group_IT_number 68
_space_group.IT_coordinate_system_code '2'
_symmetry_cell_setting 'orthorhombic'
loop_
_space_group_symop_operation_xyz
x,y,z
-x,1/2-y,z
x,1/2-y,1/2-z
-x,y,1/2-z
-x,-y,-z
x,1/2+y,-z
-x,1/2+y,1/2+z
x,-y,1/2+z
1/2+x,1/2+y,z
1/2-x,-y,z
1/2+x,-y,1/2-z
1/2-x,1/2+y,1/2-z
1/2-x,1/2-y,-z
1/2+x,y,-z
1/2-x,y,1/2+z
1/2+x,1/2-y,1/2+z
loop_
_atom_site_type_symbol
_atom_site_label
_atom_site_fract_x
_atom_site_fract_y
_atom_site_fract_z
Si Si1 0.351717 0.787162 0.002557
Si Si2 0.551310 0.711556 0.006010
Si Si3 0.500000 0.377433 0.250000
Si Si4 0.072834 0.463474 0.780949
Si Si5 0.174141 0.533501 0.306539
Si Si6 0.276528 0.137755 0.306815
O O1 0.354987 0.750000 0.750000
O O2 0.399794 0.810487 0.042408
O O3 0.316227 0.829819 0.926900
O O4 0.340541 0.750000 0.250000
O O5 0.549551 0.750000 0.750000
O O6 0.519043 0.662878 0.966157
O O7 0.544276 0.750000 0.250000
O O8 0.539938 0.415313 0.171652
O O9 0.065293 0.491563 0.501147
O O10 0.123812 0.447752 0.786584
O O11 0.179731 0.515711 0.607327
O O12 0.207646 0.577335 0.209689
O O13 0.237486 0.149686 0.508480
#
# Coordination Sequence:
#
# PCOD9508766 Si02
#       6
#    16  16   8  16  16  16
#     4  10  22  43  64  85 122 165 204 252 309 370
#     4  10  24  42  62  90 122 164 213 251 305 384
#     4  12  23  40  68  92 130 164 199 270 324 350
#     4  10  23  41  63  94 125 163 213 253 307 384
#     4  10  22  42  63  86 125 167 202 248 305 369
#     4  12  25  38  61  96 123 154 208 258 309 374
#
# _framework density 22.263612999999999
#
# number of rings (size 3 to 8) (size 9 to 14) (size 15 to 20)
#    0.000    1.455    0.000    4.091    0.000    8.727 
#    0.000   10.909    0.000    0.000    0.000    0.000 
#    0.000    0.000    0.000    0.000    0.000    0.000 
#
# Total GULP energy -246065.653229 kJ/mol
# GULP energy per Si atom -5592.401210 kJ/mol
# Density = 2.221294 g / cm^3
# Si number density = 22.263613 Si / 1000 Ang^3
#
#
#
# Elastic Constant Matrix: (Units=GPa)
#
#
# Indices 1 2 3 4 5 6 
#
# 1 83.3264 25.0601 13.3754 0.0000 0.0000 0.0000
# 2 25.0601 37.9833 11.3921 0.0000 0.0000 0.0000
# 3 13.3754 11.3921 111.3777 0.0000 0.0000 0.0000
# 4 0.0000 0.0000 0.0000 28.0017 0.0000 0.0000
# 5 0.0000 0.0000 0.0000 0.0000 27.5052 0.0000
# 6 0.0000 0.0000 0.0000 0.0000 0.0000 46.7448
#
#
#
# Elastic Compliance Matrix: (Units=1/GPa)
#
#
# Indices 1 2 3 4 5 6 
#
# 1 0.015043 -0.009680 -0.000816 0.000000 0.000000 0.000000
# 2 -0.009680 0.033390 -0.002253 0.000000 0.000000 0.000000
# 3 -0.000816 -0.002253 0.009307 0.000000 0.000000 0.000000
# 4 0.000000 0.000000 0.000000 0.035712 0.000000 0.000000
# 5 0.000000 0.000000 0.000000 0.000000 0.036357 0.000000
# 6 0.000000 0.000000 0.000000 0.000000 0.000000 0.021393
#
#
# Mechanical properties :
#
#
# Convention : Reuss Voigt Hill
#
# Bulk Modulus (GPa) = 31.01620 36.92695 33.97158
# Shear Modulus (GPa) = 26.67415 32.64099 29.65757
#
# Velocity S-wave (km/s) = 3.46512 3.83314 3.65377
# Velocity P-wave (km/s) = 5.47458 6.01771 5.75256
#
# Compressibility (1/GPa) = 0.03224122
#
# Stress axis : x y z
#
# Youngs Moduli (GPa) = 66.47459 29.94935 107.44693
#
# Poissons Ratio (x) = 0.28992 0.08772
# Poissons Ratio (y) = 0.64349 0.24205
# Poissons Ratio (z) = 0.05427 0.06747
#
# Static dielectric constant tensor:
#      x y z
#    x 1.884270 0.000000 0.000000 
#    y 0.000000 1.763770 0.000000 
#    z 0.000000 0.000000 1.788260 
# 
# From -- ./inp_files/2776.got.cif
#   From: 2010.05.17/outbox.cif.g08.bks.cpg/sg68_2_cif.got.tgz:2776.got - 2010.06.03 18:57:09.
