data_PCOD9508959
_publ_section_title
;
Structure prediction by ZEFSAII (Michael W. Deem and Ramdas Pophale) SiO2 
 PCOD9508959
Probable space group: C C C A
;
_chemical_formula_sum "Si O2"
_cell_formula_units_Z 96
_cell_length_a 16.029890
_cell_length_b 11.246386
_cell_length_c 29.437784
_cell_angle_alpha 90.000000
_cell_angle_beta 90.000000
_cell_angle_gamma 90.000000
_cell_volume 5306.994552
_symmetry_space_group_name_H-M "C C C A"
_symmetry_group_IT_number 68
_space_group.IT_coordinate_system_code '2'
_symmetry_cell_setting 'orthorhombic'
loop_
_space_group_symop_operation_xyz
x,y,z
-x,1/2-y,z
x,1/2-y,1/2-z
-x,y,1/2-z
-x,-y,-z
x,1/2+y,-z
-x,1/2+y,1/2+z
x,-y,1/2+z
1/2+x,1/2+y,z
1/2-x,-y,z
1/2+x,-y,1/2-z
1/2-x,1/2+y,1/2-z
1/2-x,1/2-y,-z
1/2+x,y,-z
1/2-x,y,1/2+z
1/2+x,1/2-y,1/2+z
loop_
_atom_site_type_symbol
_atom_site_label
_atom_site_fract_x
_atom_site_fract_y
_atom_site_fract_z
Si Si1 0.178959 0.089939 0.086400
Si Si2 0.250000 0.500000 0.325418
Si Si3 0.997635 0.890229 0.965046
Si Si4 0.360693 0.163537 0.894669
Si Si5 0.250000 0.500000 0.667125
Si Si6 0.000000 0.944204 0.750000
Si Si7 0.500000 0.250000 0.672770
Si Si8 0.844525 0.118342 0.747004
O O1 0.180947 0.047233 0.139113
O O2 0.199209 0.231413 0.086231
O O3 0.088512 0.087554 0.062881
O O4 0.250000 0.000000 0.065979
O O5 0.213490 0.597032 0.291071
O O6 0.078949 0.892398 0.932629
O O7 0.000000 0.750000 0.981844
O O8 0.000000 0.000000 0.000000
O O9 0.422096 0.230332 0.859833
O O10 0.314016 0.065570 0.865632
O O11 0.208315 0.405602 0.701538
O O12 0.007309 0.861844 0.705917
O O13 0.917874 0.023279 0.747089
O O14 0.878866 0.250000 0.750000
#
# Coordination Sequence:
#
# PCOD9508959 Si02
#       8
#    16   8  16  16   8   8   8  16
#     4   9  19  38  65  90 116 156 208 247 307 373
#     4   9  20  34  57  82 116 158 209 238 306 351
#     4  10  22  44  68  93 123 161 205 264 319 391
#     4  11  20  42  65  87 126 162 206 257 310 374
#     4  11  24  38  57  92 124 162 213 256 306 369
#     4  11  23  34  58  88 119 165 218 252 294 373
#     4  11  20  38  66  84 116 168 218 246 296 373
#     4  11  22  36  52  83 129 161 202 260 307 350
#
# _framework density 18.089334000000001
#
# number of rings (size 3 to 8) (size 9 to 14) (size 15 to 20)
#    0.500    1.167    4.167    2.250    0.000    1.333 
#    4.500    1.667    0.000    0.000    0.000    0.000 
#    0.000    0.000    0.000    0.000    0.000    0.000 
#
# Total GULP energy -267307.516512 kJ/mol
# GULP energy per Si atom -5568.906594 kJ/mol
# Density = 1.804816 g / cm^3
# Si number density = 18.089334 Si / 1000 Ang^3
#
#
#
# Elastic Constant Matrix: (Units=GPa)
#
#
# Indices 1 2 3 4 5 6 
#
# 1 67.6196 55.2044 38.0842 0.0000 0.0000 0.0000
# 2 55.2044 132.4805 68.8731 0.0000 0.0000 0.0000
# 3 38.0842 68.8731 99.6772 0.0000 0.0000 0.0000
# 4 0.0000 0.0000 0.0000 0.6180 0.0000 0.0000
# 5 0.0000 0.0000 0.0000 0.0000 -58.7856 0.0000
# 6 0.0000 0.0000 0.0000 0.0000 0.0000 15.8946
#
#
#
# Elastic Compliance Matrix: (Units=1/GPa)
#
#
# Indices 1 2 3 4 5 6 
#
# 1 0.023128 -0.007871 -0.003398 0.000000 0.000000 0.000000
# 2 -0.007871 0.014458 -0.006983 0.000000 0.000000 0.000000
# 3 -0.003398 -0.006983 0.016156 0.000000 0.000000 0.000000
# 4 0.000000 0.000000 0.000000 1.618093 0.000000 0.000000
# 5 0.000000 0.000000 0.000000 0.000000 -0.017011 0.000000
# 6 0.000000 0.000000 0.000000 0.000000 0.000000 0.062915
#
#
# Mechanical properties :
#
#
# Convention : Reuss Voigt Hill
#
# Bulk Modulus (GPa) = 58.01054 69.34451 63.67753
# Shear Modulus (GPa) = 2.84093 0.71978 1.78035
#
# Velocity S-wave (km/s) = 1.25455 0.63148 0.99315
# Velocity P-wave (km/s) = 5.85125 6.24094 6.04923
#
# Compressibility (1/GPa) = 0.01723825
#
# Stress axis : x y z
#
# Youngs Moduli (GPa) = 43.23710 69.16472 61.89788
#
# Poissons Ratio (x) = 0.54438 0.21035
# Poissons Ratio (y) = 0.34031 0.43222
# Poissons Ratio (z) = 0.14693 0.48297
#
# Static dielectric constant tensor:
#      x y z
#    x 1.609660 0.000000 0.000000 
#    y 0.000000 1.640140 0.000000 
#    z 0.000000 0.000000 1.619900 
# 
# From -- ./inp_files/55243.got.cif
#   From: 2010.05.17/outbox.cif.g08.bks.cpg/sg68_28_cif.got.tgz:55243.got - 2010.06.03 18:57:09.
