data_PCOD9508552
_publ_section_title
;
Structure prediction by ZEFSAII (Michael W. Deem and Ramdas Pophale) SiO2 
 PCOD9508552
Probable space group: C C C A
;
_chemical_formula_sum "Si O2"
_cell_formula_units_Z 56
_cell_length_a 11.019722
_cell_length_b 16.755542
_cell_length_c 14.365393
_cell_angle_alpha 90.000000
_cell_angle_beta 90.000000
_cell_angle_gamma 90.000000
_cell_volume 2652.446488
_symmetry_space_group_name_H-M "C C C A"
_symmetry_group_IT_number 68
_space_group.IT_coordinate_system_code '2'
_symmetry_cell_setting 'orthorhombic'
loop_
_space_group_symop_operation_xyz
x,y,z
-x,1/2-y,z
x,1/2-y,1/2-z
-x,y,1/2-z
-x,-y,-z
x,1/2+y,-z
-x,1/2+y,1/2+z
x,-y,1/2+z
1/2+x,1/2+y,z
1/2-x,-y,z
1/2+x,-y,1/2-z
1/2-x,1/2+y,1/2-z
1/2-x,1/2-y,-z
1/2+x,y,-z
1/2-x,y,1/2+z
1/2+x,1/2-y,1/2+z
loop_
_atom_site_type_symbol
_atom_site_label
_atom_site_fract_x
_atom_site_fract_y
_atom_site_fract_z
Si Si1 0.056827 0.138912 0.145891
Si Si2 0.500000 0.750000 0.995913
Si Si3 0.818670 0.791778 0.348027
Si Si4 0.619906 0.028266 0.312502
O O1 0.174939 0.195453 0.146392
O O2 0.000000 0.141261 0.250000
O O3 0.094143 0.048229 0.122814
O O4 0.978244 0.174993 0.063404
O O5 0.615802 0.742208 0.928525
O O6 0.847449 0.750000 0.250000
O O7 0.865936 0.883121 0.351369
O O8 0.500000 0.031892 0.250000
O O9 0.750000 0.000000 0.266952
#
# Coordination Sequence:
#
# PCOD9508552 Si02
#       4
#    16   8  16  16
#     4  10  22  40  60  83 117 157 195 237 291 352
#     4  12  22  34  58  88 116 152 196 240 286 344
#     4  11  22  38  60  87 118 151 193 243 294 345
#     4   9  19  37  59  84 116 154 194 241 295 349
#
# _framework density 21.112583999999998
#
# number of rings (size 3 to 8) (size 9 to 14) (size 15 to 20)
#    0.000    1.714    0.000    5.143    0.000    1.143 
#    0.000    2.857    0.000   10.286    0.000    0.000 
#    0.000    0.000    0.000    0.000    0.000    0.000 
#
# Total GULP energy -156022.911316 kJ/mol
# GULP energy per Si atom -5572.246833 kJ/mol
# Density = 2.106453 g / cm^3
# Si number density = 21.112584 Si / 1000 Ang^3
#
#
#
# Elastic Constant Matrix: (Units=GPa)
#
#
# Indices 1 2 3 4 5 6 
#
# 1 72.6605 4.6780 9.3005 0.0000 0.0000 0.0000
# 2 4.6780 114.4054 34.2425 0.0000 0.0000 0.0000
# 3 9.3005 34.2425 101.5659 0.0000 0.0000 0.0000
# 4 0.0000 0.0000 0.0000 12.5397 0.0000 0.0000
# 5 0.0000 0.0000 0.0000 0.0000 19.1044 0.0000
# 6 0.0000 0.0000 0.0000 0.0000 0.0000 31.5449
#
#
#
# Elastic Compliance Matrix: (Units=1/GPa)
#
#
# Indices 1 2 3 4 5 6 
#
# 1 0.013930 -0.000209 -0.001205 0.000000 0.000000 0.000000
# 2 -0.000209 0.009725 -0.003260 0.000000 0.000000 0.000000
# 3 -0.001205 -0.003260 0.011055 0.000000 0.000000 0.000000
# 4 0.000000 0.000000 0.000000 0.079747 0.000000 0.000000
# 5 0.000000 0.000000 0.000000 0.000000 0.052344 0.000000
# 6 0.000000 0.000000 0.000000 0.000000 0.000000 0.031701
#
#
# Mechanical properties :
#
#
# Convention : Reuss Voigt Hill
#
# Bulk Modulus (GPa) = 39.42731 42.78598 41.10665
# Shear Modulus (GPa) = 23.11565 28.66520 25.89043
#
# Velocity S-wave (km/s) = 3.31248 3.68874 3.50566
# Velocity P-wave (km/s) = 5.77454 6.20097 5.99155
#
# Compressibility (1/GPa) = 0.02536313
#
# Stress axis : x y z
#
# Youngs Moduli (GPa) = 71.78568 102.82757 90.45557
#
# Poissons Ratio (x) = 0.02148 0.10902
# Poissons Ratio (y) = 0.01499 0.29485
# Poissons Ratio (z) = 0.08652 0.33518
#
# Static dielectric constant tensor:
#      x y z
#    x 1.878110 0.000000 0.000000 
#    y 0.000000 1.797010 0.000000 
#    z 0.000000 0.000000 1.740760 
# 
# From -- ./inp_files/11423.got.cif
#   From: 2010.05.17/outbox.cif.g08.bks.cpg/sg68_6_cif.got.tgz:11423.got - 2010.06.03 18:57:09.
