data_PCOD9508852
_publ_section_title
;
Structure prediction by ZEFSAII (Michael W. Deem and Ramdas Pophale) SiO2 
 PCOD9508852
Probable space group: C C C A
;
_chemical_formula_sum "Si O2"
_cell_formula_units_Z 64
_cell_length_a 7.736985
_cell_length_b 17.657089
_cell_length_c 19.798688
_cell_angle_alpha 90.000000
_cell_angle_beta 90.000000
_cell_angle_gamma 90.000000
_cell_volume 2704.750892
_symmetry_space_group_name_H-M "C C C A"
_symmetry_group_IT_number 68
_space_group.IT_coordinate_system_code '2'
_symmetry_cell_setting 'orthorhombic'
loop_
_space_group_symop_operation_xyz
x,y,z
-x,1/2-y,z
x,1/2-y,1/2-z
-x,y,1/2-z
-x,-y,-z
x,1/2+y,-z
-x,1/2+y,1/2+z
x,-y,1/2+z
1/2+x,1/2+y,z
1/2-x,-y,z
1/2+x,-y,1/2-z
1/2-x,1/2+y,1/2-z
1/2-x,1/2-y,-z
1/2+x,y,-z
1/2-x,y,1/2+z
1/2+x,1/2-y,1/2+z
loop_
_atom_site_type_symbol
_atom_site_label
_atom_site_fract_x
_atom_site_fract_y
_atom_site_fract_z
Si Si1 0.312767 0.290454 0.314397
Si Si2 0.711817 0.089781 0.078269
Si Si3 0.196996 0.413373 0.227551
Si Si4 0.883374 0.823623 0.454268
O O1 0.500000 0.250000 0.319370
O O2 0.219327 0.250000 0.250000
O O3 0.316502 0.373767 0.283097
O O4 0.257979 0.298435 0.392268
O O5 0.778968 0.116420 0.151368
O O6 0.510725 0.111752 0.075177
O O7 0.750000 0.000000 0.069907
O O8 0.795798 0.138256 0.018252
O O9 0.250000 0.500000 0.224116
O O10 0.000000 0.405037 0.250000
O O11 0.000000 0.750000 0.471304
#
# Coordination Sequence:
#
# PCOD9508852 Si02
#       4
#    16  16  16  16
#     4  10  22  42  73  95 133 185 230 285 350 411
#     4  11  25  43  66 103 137 180 233 284 355 418
#     4  11  27  44  72 105 141 184 241 293 354 423
#     4  11  24  43  71  96 139 184 225 287 353 419
#
# _framework density 23.662068000000001
#
# number of rings (size 3 to 8) (size 9 to 14) (size 15 to 20)
#    0.000    1.250    0.000    6.000   14.000    1.500 
#    0.000    0.000    0.000    0.000    0.000    0.000 
#    0.000    0.000    0.000    0.000    0.000    0.000 
#
# Total GULP energy -178793.078406 kJ/mol
# GULP energy per Si atom -5587.283700 kJ/mol
# Density = 2.360821 g / cm^3
# Si number density = 23.662068 Si / 1000 Ang^3
#
#
#
# Elastic Constant Matrix: (Units=GPa)
#
#
# Indices 1 2 3 4 5 6 
#
# 1 76.0812 16.6837 50.7964 0.0000 0.0000 0.0000
# 2 16.6837 105.3467 62.5552 0.0000 0.0000 0.0000
# 3 50.7964 62.5552 242.5160 0.0000 0.0000 0.0000
# 4 0.0000 0.0000 0.0000 46.6879 0.0000 0.0000
# 5 0.0000 0.0000 0.0000 0.0000 32.3764 0.0000
# 6 0.0000 0.0000 0.0000 0.0000 0.0000 36.8872
#
#
#
# Elastic Compliance Matrix: (Units=1/GPa)
#
#
# Indices 1 2 3 4 5 6 
#
# 1 0.015314 -0.000615 -0.003049 0.000000 0.000000 0.000000
# 2 -0.000615 0.011234 -0.002769 0.000000 0.000000 0.000000
# 3 -0.003049 -0.002769 0.005476 0.000000 0.000000 0.000000
# 4 0.000000 0.000000 0.000000 0.021419 0.000000 0.000000
# 5 0.000000 0.000000 0.000000 0.000000 0.030887 0.000000
# 6 0.000000 0.000000 0.000000 0.000000 0.000000 0.027110
#
#
# Mechanical properties :
#
#
# Convention : Reuss Voigt Hill
#
# Bulk Modulus (GPa) = 52.19449 76.00159 64.09804
# Shear Modulus (GPa) = 38.25787 42.78422 40.52104
#
# Velocity S-wave (km/s) = 4.02536 4.25683 4.14271
# Velocity P-wave (km/s) = 6.61142 7.50667 7.07322
#
# Compressibility (1/GPa) = 0.01915911
#
# Stress axis : x y z
#
# Youngs Moduli (GPa) = 65.29789 89.01504 182.60399
#
# Poissons Ratio (x) = 0.05472 0.55678
# Poissons Ratio (y) = 0.04014 0.50563
# Poissons Ratio (z) = 0.19910 0.24648
#
# Static dielectric constant tensor:
#      x y z
#    x 1.959830 0.000000 0.000000 
#    y 0.000000 2.006180 0.000000 
#    z 0.000000 0.000000 1.918730 
# 
# From -- ./inp_files/35776.got.cif
#   From: 2010.05.17/outbox.cif.g08.bks.cpg/sg68_18_cif.got.tgz:35776.got - 2010.06.03 18:57:09.
