data_PCOD9508148
_publ_section_title
;
Structure prediction by ZEFSAII (Michael W. Deem and Ramdas Pophale) SiO2 
 PCOD9508148
Probable space group: C C C A
;
_chemical_formula_sum "Si O2"
_cell_formula_units_Z 104
_cell_length_a 21.545114
_cell_length_b 23.339027
_cell_length_c 9.211444
_cell_angle_alpha 90.000000
_cell_angle_beta 90.000000
_cell_angle_gamma 90.000000
_cell_volume 4631.900900
_symmetry_space_group_name_H-M "C C C A"
_symmetry_group_IT_number 68
_space_group.IT_coordinate_system_code '2'
_symmetry_cell_setting 'orthorhombic'
loop_
_space_group_symop_operation_xyz
x,y,z
-x,1/2-y,z
x,1/2-y,1/2-z
-x,y,1/2-z
-x,-y,-z
x,1/2+y,-z
-x,1/2+y,1/2+z
x,-y,1/2+z
1/2+x,1/2+y,z
1/2-x,-y,z
1/2+x,-y,1/2-z
1/2-x,1/2+y,1/2-z
1/2-x,1/2-y,-z
1/2+x,y,-z
1/2-x,y,1/2+z
1/2+x,1/2-y,1/2+z
loop_
_atom_site_type_symbol
_atom_site_label
_atom_site_fract_x
_atom_site_fract_y
_atom_site_fract_z
Si Si1 0.640206 0.067140 0.442421
Si Si2 0.897248 0.227050 0.912853
Si Si3 0.799855 0.117204 0.663777
Si Si4 0.096497 0.659341 0.941417
Si Si5 0.671340 0.333836 0.848952
Si Si6 0.750000 0.500000 0.466754
Si Si7 0.518541 0.387935 0.082928
O O1 0.658874 0.105945 0.304600
O O2 0.655211 0.104486 0.583396
O O3 0.688353 0.015342 0.442136
O O4 0.566802 0.060557 0.446395
O O5 0.882736 0.250000 0.750000
O O6 0.941850 0.171735 0.920779
O O7 0.927347 0.281794 0.988884
O O8 0.840286 0.210731 0.020280
O O9 0.844196 0.138481 0.535318
O O10 0.743364 0.160825 0.694503
O O11 0.770674 0.055831 0.621578
O O12 0.123127 0.672531 0.782430
O O13 0.039382 0.616434 0.973290
O O14 0.500000 0.393510 0.250000
#
# Coordination Sequence:
#
# PCOD9508148 Si02
#       7
#    16  16  16  16  16   8  16
#     4  10  21  41  67  96 128 170 219 279 334 416
#     4  11  22  38  63  90 129 183 223 268 326 409
#     4  11  22  42  67  91 128 174 217 280 347 414
#     4  12  23  38  66  95 132 175 222 277 335 393
#     4  10  23  39  59  97 131 166 227 282 332 392
#     4  10  22  40  70 100 124 164 224 278 344 406
#     4  11  21  41  68  94 132 173 225 260 328 407
#
# _framework density 22.452984000000001
#
# number of rings (size 3 to 8) (size 9 to 14) (size 15 to 20)
#    0.000    1.231    3.077    4.154    0.000    4.308 
#    0.000    6.923    0.000    0.000    0.000    0.000 
#    0.000    0.000    0.000    0.000    0.000    0.000 
#
# Total GULP energy -290141.913367 kJ/mol
# GULP energy per Si atom -5579.652180 kJ/mol
# Density = 2.240188 g / cm^3
# Si number density = 22.452984 Si / 1000 Ang^3
#
#
#
# Elastic Constant Matrix: (Units=GPa)
#
#
# Indices 1 2 3 4 5 6 
#
# 1 145.1778 29.4642 38.3910 0.0000 0.0000 0.0000
# 2 29.4642 40.2350 13.9640 0.0000 0.0000 0.0000
# 3 38.3910 13.9640 115.8369 0.0000 0.0000 0.0000
# 4 0.0000 0.0000 0.0000 15.0349 0.0000 0.0000
# 5 0.0000 0.0000 0.0000 0.0000 36.2565 0.0000
# 6 0.0000 0.0000 0.0000 0.0000 0.0000 36.3520
#
#
#
# Elastic Compliance Matrix: (Units=1/GPa)
#
#
# Indices 1 2 3 4 5 6 
#
# 1 0.008587 -0.005532 -0.002179 0.000000 0.000000 0.000000
# 2 -0.005532 0.029503 -0.001723 0.000000 0.000000 0.000000
# 3 -0.002179 -0.001723 0.009563 0.000000 0.000000 0.000000
# 4 0.000000 0.000000 0.000000 0.066512 0.000000 0.000000
# 5 0.000000 0.000000 0.000000 0.000000 0.027581 0.000000
# 6 0.000000 0.000000 0.000000 0.000000 0.000000 0.027509
#
#
# Mechanical properties :
#
#
# Convention : Reuss Voigt Hill
#
# Bulk Modulus (GPa) = 34.74094 51.65422 43.19758
# Shear Modulus (GPa) = 25.28854 32.15741 28.72297
#
# Velocity S-wave (km/s) = 3.35966 3.78856 3.58054
# Velocity P-wave (km/s) = 5.52776 6.49562 6.03113
#
# Compressibility (1/GPa) = 0.02878448
#
# Stress axis : x y z
#
# Youngs Moduli (GPa) = 116.45394 33.89467 104.57253
#
# Poissons Ratio (x) = 0.18751 0.22787
# Poissons Ratio (y) = 0.64423 0.18019
# Poissons Ratio (z) = 0.25376 0.05840
#
# Static dielectric constant tensor:
#      x y z
#    x 1.936200 0.000000 0.000000 
#    y 0.000000 1.887380 0.000000 
#    z 0.000000 0.000000 1.840280 
# 
# From -- ./inp_files/7358.got.cif
#   From: 2010.05.17/outbox.cif.g08.bks.cpg/sg68_4_cif.got.tgz:7358.got - 2010.06.03 18:57:09.
