data_PCOD9508986
_publ_section_title
;
Structure prediction by ZEFSAII (Michael W. Deem and Ramdas Pophale) SiO2 
 PCOD9508986
Probable space group: C C C A
;
_chemical_formula_sum "Si O2"
_cell_formula_units_Z 88
_cell_length_a 16.834950
_cell_length_b 26.495872
_cell_length_c 9.407271
_cell_angle_alpha 90.000000
_cell_angle_beta 90.000000
_cell_angle_gamma 90.000000
_cell_volume 4196.176073
_symmetry_space_group_name_H-M "C C C A"
_symmetry_group_IT_number 68
_space_group.IT_coordinate_system_code '2'
_symmetry_cell_setting 'orthorhombic'
loop_
_space_group_symop_operation_xyz
x,y,z
-x,1/2-y,z
x,1/2-y,1/2-z
-x,y,1/2-z
-x,-y,-z
x,1/2+y,-z
-x,1/2+y,1/2+z
x,-y,1/2+z
1/2+x,1/2+y,z
1/2-x,-y,z
1/2+x,-y,1/2-z
1/2-x,1/2+y,1/2-z
1/2-x,1/2-y,-z
1/2+x,y,-z
1/2-x,y,1/2+z
1/2+x,1/2-y,1/2+z
loop_
_atom_site_type_symbol
_atom_site_label
_atom_site_fract_x
_atom_site_fract_y
_atom_site_fract_z
Si Si1 0.311091 0.432051 0.517736
Si Si2 0.035514 0.385174 0.113533
Si Si3 0.250000 0.000000 0.234865
Si Si4 0.539210 0.305080 0.404184
Si Si5 0.152572 0.197488 0.278518
Si Si6 0.717569 0.327112 0.479002
O O1 0.402072 0.414568 0.516803
O O2 0.292115 0.461506 0.373338
O O3 0.302637 0.467495 0.656096
O O4 0.248712 0.385284 0.537495
O O5 0.090468 0.345334 0.195407
O O6 0.000000 0.414768 0.250000
O O7 0.982104 0.350317 0.012482
O O8 0.500000 0.250000 0.445266
O O9 0.500000 0.315037 0.250000
O O10 0.635520 0.308889 0.404095
O O11 0.110930 0.250000 0.250000
O O12 0.209402 0.203413 0.413123
O O13 0.205815 0.182044 0.145191
#
# Coordination Sequence:
#
# PCOD9508986 Si02
#       6
#    16  16   8  16  16  16
#     4  10  23  42  71  93 123 160 214 263 338 384
#     4  11  23  41  63  92 130 169 211 259 320 382
#     4  10  22  44  72  94 118 154 210 278 330 404
#     4  11  26  40  61  93 138 179 215 256 306 364
#     4  11  23  36  61  90 129 174 221 257 293 367
#     4  11  23  40  63  93 127 172 216 258 313 378
#
# _framework density 20.971474000000001
#
# number of rings (size 3 to 8) (size 9 to 14) (size 15 to 20)
#    0.000    1.273    1.818    3.818   10.182    0.000 
#    0.000    0.909    0.000    0.000    0.000    0.000 
#    0.000    0.000    0.000    0.000    0.000    0.000 
#
# Total GULP energy -245402.869998 kJ/mol
# GULP energy per Si atom -5577.337955 kJ/mol
# Density = 2.092374 g / cm^3
# Si number density = 20.971474 Si / 1000 Ang^3
#
#
#
# Elastic Constant Matrix: (Units=GPa)
#
#
# Indices 1 2 3 4 5 6 
#
# 1 44.5455 0.7120 -9.2131 0.0000 0.0000 0.0000
# 2 0.7120 56.2142 -7.2700 0.0000 0.0000 0.0000
# 3 -9.2131 -7.2700 82.6601 0.0000 0.0000 0.0000
# 4 0.0000 0.0000 0.0000 -54.9785 0.0000 0.0000
# 5 0.0000 0.0000 0.0000 0.0000 25.0305 0.0000
# 6 0.0000 0.0000 0.0000 0.0000 0.0000 -24.0216
#
#
#
# Elastic Compliance Matrix: (Units=1/GPa)
#
#
# Indices 1 2 3 4 5 6 
#
# 1 0.022979 0.000041 0.002565 0.000000 0.000000 0.000000
# 2 0.000041 0.017994 0.001587 0.000000 0.000000 0.000000
# 3 0.002565 0.001587 0.012523 0.000000 0.000000 0.000000
# 4 0.000000 0.000000 0.000000 -0.018189 0.000000 0.000000
# 5 0.000000 0.000000 0.000000 0.000000 0.039951 0.000000
# 6 0.000000 0.000000 0.000000 0.000000 0.000000 -0.041629
#
#
# Mechanical properties :
#
#
# Convention : Reuss Voigt Hill
#
# Bulk Modulus (GPa) = 16.16013 16.87530 16.51772
# Shear Modulus (GPa) = 109.00155 2.48546 55.74351
#
# Velocity S-wave (km/s) = 7.21727 1.08983 5.16123
# Velocity P-wave (km/s) = 8.78490 3.10611 6.58871
#
# Compressibility (1/GPa) = 0.06188068
#
# Stress axis : x y z
#
# Youngs Moduli (GPa) = 43.51846 55.57456 79.85191
#
# Poissons Ratio (x) = -0.00226 -0.20480
# Poissons Ratio (y) = -0.00177 -0.12673
# Poissons Ratio (z) = -0.11161 -0.08820
#
# Static dielectric constant tensor:
#      x y z
#    x 1.792040 0.000000 0.000000 
#    y 0.000000 1.801830 0.000000 
#    z 0.000000 0.000000 1.777650 
# 
# From -- ./inp_files/6415.got.cif
#   From: 2010.05.17/outbox.cif.g08.bks.cpg/sg68_4_cif.got.tgz:6415.got - 2010.06.03 18:57:09.
