data_PCOD9508450
_publ_section_title
;
Structure prediction by ZEFSAII (Michael W. Deem and Ramdas Pophale) SiO2 
 PCOD9508450
Probable space group: C C C A
;
_chemical_formula_sum "Si O2"
_cell_formula_units_Z 48
_cell_length_a 15.523911
_cell_length_b 15.461415
_cell_length_c 7.437777
_cell_angle_alpha 90.000000
_cell_angle_beta 90.000000
_cell_angle_gamma 90.000000
_cell_volume 1785.227362
_symmetry_space_group_name_H-M "C C C A"
_symmetry_group_IT_number 68
_space_group.IT_coordinate_system_code '2'
_symmetry_cell_setting 'orthorhombic'
loop_
_space_group_symop_operation_xyz
x,y,z
-x,1/2-y,z
x,1/2-y,1/2-z
-x,y,1/2-z
-x,-y,-z
x,1/2+y,-z
-x,1/2+y,1/2+z
x,-y,1/2+z
1/2+x,1/2+y,z
1/2-x,-y,z
1/2+x,-y,1/2-z
1/2-x,1/2+y,1/2-z
1/2-x,1/2-y,-z
1/2+x,y,-z
1/2-x,y,1/2+z
1/2+x,1/2-y,1/2+z
loop_
_atom_site_type_symbol
_atom_site_label
_atom_site_fract_x
_atom_site_fract_y
_atom_site_fract_z
Si Si1 0.349690 0.768193 0.037050
Si Si2 0.929837 0.104211 0.086962
Si Si3 0.656786 0.957829 0.415628
O O1 0.362142 0.750000 0.250000
O O2 0.412415 0.691496 0.973886
O O3 0.362337 0.867671 0.980140
O O4 0.250000 0.750000 0.000000
O O5 0.848300 0.075122 0.210631
O O6 0.000000 0.115198 0.250000
O O7 0.919963 0.025899 0.946325
O O8 0.750000 0.000000 0.436291
#
# Coordination Sequence:
#
# PCOD9508450 Si02
#       3
#    16  16  16
#     4  10  22  38  63  94 129 173 222 272 333 401
#     4  11  24  42  64  98 137 173 222 279 342 395
#     4  11  22  39  67  95 131 176 224 275 333 411
#
# _framework density 26.887333000000002
#
# number of rings (size 3 to 8) (size 9 to 14) (size 15 to 20)
#    0.000    1.333    3.333    2.000    4.667    6.000 
#    0.000    0.000    0.000    2.000    0.000    0.000 
#    0.000    0.000    0.000    0.000    0.000    0.000 
#
# Total GULP energy -133623.439351 kJ/mol
# GULP energy per Si atom -5567.643306 kJ/mol
# Density = 2.682614 g / cm^3
# Si number density = 26.887333 Si / 1000 Ang^3
#
#
#
# Elastic Constant Matrix: (Units=GPa)
#
#
# Indices 1 2 3 4 5 6 
#
# 1 123.2973 58.5751 6.6792 0.0000 0.0000 0.0000
# 2 58.5751 210.5907 14.0756 0.0000 0.0000 0.0000
# 3 6.6792 14.0756 25.6216 0.0000 0.0000 0.0000
# 4 0.0000 0.0000 0.0000 21.4401 0.0000 0.0000
# 5 0.0000 0.0000 0.0000 0.0000 23.3118 0.0000
# 6 0.0000 0.0000 0.0000 0.0000 0.0000 34.8576
#
#
#
# Elastic Compliance Matrix: (Units=1/GPa)
#
#
# Indices 1 2 3 4 5 6 
#
# 1 0.009372 -0.002537 -0.001050 0.000000 0.000000 0.000000
# 2 -0.002537 0.005616 -0.002424 0.000000 0.000000 0.000000
# 3 -0.001050 -0.002424 0.040635 0.000000 0.000000 0.000000
# 4 0.000000 0.000000 0.000000 0.046642 0.000000 0.000000
# 5 0.000000 0.000000 0.000000 0.000000 0.042897 0.000000
# 6 0.000000 0.000000 0.000000 0.000000 0.000000 0.028688
#
#
# Mechanical properties :
#
#
# Convention : Reuss Voigt Hill
#
# Bulk Modulus (GPa) = 22.93441 57.57439 40.25440
# Shear Modulus (GPa) = 24.94946 34.60054 29.77500
#
# Velocity S-wave (km/s) = 3.04949 3.59119 3.33137
# Velocity P-wave (km/s) = 4.57685 6.21733 5.45906
#
# Compressibility (1/GPa) = 0.04360260
#
# Stress axis : x y z
#
# Youngs Moduli (GPa) = 106.69529 178.05755 24.60942
#
# Poissons Ratio (x) = 0.45169 0.02583
# Poissons Ratio (y) = 0.27066 0.05965
# Poissons Ratio (z) = 0.11199 0.43162
#
# Static dielectric constant tensor:
#      x y z
#    x 2.586150 0.000000 0.000000 
#    y 0.000000 2.731430 0.000000 
#    z 0.000000 0.000000 2.417330 
# 
# From -- ./inp_files/4419.got.cif
#   From: 2010.05.17/outbox.cif.g08.bks.cpg/sg68_3_cif.got.tgz:4419.got - 2010.06.03 18:57:09.
