data_PCOD9508089
_publ_section_title
;
Structure prediction by ZEFSAII (Michael W. Deem and Ramdas Pophale) SiO2 
 PCOD9508089
Probable space group: C C C A
;
_chemical_formula_sum "Si O2"
_cell_formula_units_Z 88
_cell_length_a 25.540596
_cell_length_b 5.370732
_cell_length_c 27.643088
_cell_angle_alpha 90.000000
_cell_angle_beta 90.000000
_cell_angle_gamma 90.000000
_cell_volume 3791.849270
_symmetry_space_group_name_H-M "C C C A"
_symmetry_group_IT_number 68
_space_group.IT_coordinate_system_code '2'
_symmetry_cell_setting 'orthorhombic'
loop_
_space_group_symop_operation_xyz
x,y,z
-x,1/2-y,z
x,1/2-y,1/2-z
-x,y,1/2-z
-x,-y,-z
x,1/2+y,-z
-x,1/2+y,1/2+z
x,-y,1/2+z
1/2+x,1/2+y,z
1/2-x,-y,z
1/2+x,-y,1/2-z
1/2-x,1/2+y,1/2-z
1/2-x,1/2-y,-z
1/2+x,y,-z
1/2-x,y,1/2+z
1/2+x,1/2-y,1/2+z
loop_
_atom_site_type_symbol
_atom_site_label
_atom_site_fract_x
_atom_site_fract_y
_atom_site_fract_z
Si Si1 0.348930 0.344652 0.161652
Si Si2 0.784226 0.750000 0.250000
Si Si3 0.750000 0.500000 0.892142
Si Si4 0.449584 0.632311 0.162154
Si Si5 0.808346 0.212871 0.468223
Si Si6 0.900904 0.503124 0.586598
Si Si7 0.500000 0.250000 0.085378
O O1 0.321695 0.191787 0.204262
O O2 0.300738 0.505266 0.141758
O O3 0.400251 0.482077 0.183257
O O4 0.365481 0.204688 0.112303
O O5 0.750000 0.500000 0.257421
O O6 0.764040 0.729086 0.927967
O O7 0.500000 0.750000 0.189486
O O8 0.423455 0.856063 0.133100
O O9 0.473368 0.450788 0.121037
O O10 0.806016 0.456362 0.502049
O O11 0.865134 0.189460 0.443252
O O12 0.950990 0.382891 0.559448
#
# Coordination Sequence:
#
# PCOD9508089 Si02
#       7
#    16   8   8  16  16  16   8
#     4  11  24  43  72 104 142 192 237 288 357 431
#     4  12  30  48  70 115 157 184 238 296 348 422
#     4  12  24  46  68  98 138 200 240 282 366 440
#     4   9  18  39  70 102 128 181 242 286 349 430
#     4  12  27  44  64 100 143 185 241 308 357 425
#     4  10  21  40  70  95 135 187 239 285 365 429
#     4   8  18  36  68  97 128 174 244 294 340 447
#
# _framework density 23.207674999999998
#
# number of rings (size 3 to 8) (size 9 to 14) (size 15 to 20)
#    0.000    1.455    2.727    1.636    7.636    1.455 
#    0.000    0.909    0.000   25.091    0.000    0.000 
#    0.000    0.000    0.000    0.000    0.000    0.000 
#
# Total GULP energy -245225.500726 kJ/mol
# GULP energy per Si atom -5573.306835 kJ/mol
# Density = 2.315485 g / cm^3
# Si number density = 23.207675 Si / 1000 Ang^3
#
#
#
# Elastic Constant Matrix: (Units=GPa)
#
#
# Indices 1 2 3 4 5 6 
#
# 1 172.0082 39.9323 37.2803 0.0000 0.0000 0.0000
# 2 39.9323 82.7457 12.6104 0.0000 0.0000 0.0000
# 3 37.2803 12.6104 56.0726 0.0000 0.0000 0.0000
# 4 0.0000 0.0000 0.0000 14.5262 0.0000 0.0000
# 5 0.0000 0.0000 0.0000 0.0000 2.9775 0.0000
# 6 0.0000 0.0000 0.0000 0.0000 0.0000 46.9292
#
#
#
# Elastic Compliance Matrix: (Units=1/GPa)
#
#
# Indices 1 2 3 4 5 6 
#
# 1 0.007420 -0.002929 -0.004275 0.000000 0.000000 0.000000
# 2 -0.002929 0.013671 -0.001127 0.000000 0.000000 0.000000
# 3 -0.004275 -0.001127 0.020929 0.000000 0.000000 0.000000
# 4 0.000000 0.000000 0.000000 0.068841 0.000000 0.000000
# 5 0.000000 0.000000 0.000000 0.000000 0.335851 0.000000
# 6 0.000000 0.000000 0.000000 0.000000 0.000000 0.021309
#
#
# Mechanical properties :
#
#
# Convention : Reuss Voigt Hill
#
# Bulk Modulus (GPa) = 39.43425 54.49694 46.96559
# Shear Modulus (GPa) = 10.13920 27.62014 18.87967
#
# Velocity S-wave (km/s) = 2.09246 3.45357 2.85530
# Velocity P-wave (km/s) = 4.78191 6.27982 5.58134
#
# Compressibility (1/GPa) = 0.02535867
#
# Stress axis : x y z
#
# Youngs Moduli (GPa) = 134.76692 73.14918 47.77965
#
# Poissons Ratio (x) = 0.21429 0.20424
# Poissons Ratio (y) = 0.39480 0.05384
# Poissons Ratio (z) = 0.57607 0.08242
#
# Static dielectric constant tensor:
#      x y z
#    x 1.897910 0.000000 0.000000 
#    y 0.000000 1.889880 0.000000 
#    z 0.000000 0.000000 1.876070 
# 
# From -- ./inp_files/55999.got.cif
#   From: 2010.05.17/outbox.cif.g08.bks.cpg/sg68_28_cif.got.tgz:55999.got - 2010.06.03 18:57:09.
