data_PCOD9508912
_publ_section_title
;
Structure prediction by ZEFSAII (Michael W. Deem and Ramdas Pophale) SiO2 
 PCOD9508912
Probable space group: C C C A
;
_chemical_formula_sum "Si O2"
_cell_formula_units_Z 80
_cell_length_a 9.469725
_cell_length_b 27.092027
_cell_length_c 14.364967
_cell_angle_alpha 90.000000
_cell_angle_beta 90.000000
_cell_angle_gamma 90.000000
_cell_volume 3685.390396
_symmetry_space_group_name_H-M "C C C A"
_symmetry_group_IT_number 68
_space_group.IT_coordinate_system_code '2'
_symmetry_cell_setting 'orthorhombic'
loop_
_space_group_symop_operation_xyz
x,y,z
-x,1/2-y,z
x,1/2-y,1/2-z
-x,y,1/2-z
-x,-y,-z
x,1/2+y,-z
-x,1/2+y,1/2+z
x,-y,1/2+z
1/2+x,1/2+y,z
1/2-x,-y,z
1/2+x,-y,1/2-z
1/2-x,1/2+y,1/2-z
1/2-x,1/2-y,-z
1/2+x,y,-z
1/2-x,y,1/2+z
1/2+x,1/2-y,1/2+z
loop_
_atom_site_type_symbol
_atom_site_label
_atom_site_fract_x
_atom_site_fract_y
_atom_site_fract_z
Si Si1 0.281809 0.858979 0.702391
Si Si2 0.500000 0.938291 0.750000
Si Si3 0.000000 0.750000 0.590026
Si Si4 0.088805 0.350730 0.478265
Si Si5 0.733439 0.250000 0.750000
Si Si6 0.250000 0.500000 0.651979
Si Si7 0.312957 0.895689 0.395484
O O1 0.408159 0.898294 0.691286
O O2 0.192101 0.858359 0.609095
O O3 0.313482 0.801326 0.727075
O O4 0.185422 0.880072 0.787176
O O5 0.619840 0.974241 0.707191
O O6 0.950189 0.706449 0.523581
O O7 0.870561 0.761347 0.661435
O O8 0.170202 0.371142 0.566338
O O9 0.944004 0.376853 0.453132
O O10 0.308607 0.454257 0.594705
#
# Coordination Sequence:
#
# PCOD9508912 Si02
#       7
#    16   8   8  16   8   8  16
#     4  10  22  43  69  97 136 178 229 274 343 407
#     4  10  24  43  70  98 132 179 228 290 338 402
#     4   9  18  38  66  98 135 184 220 261 348 396
#     4  11  24  42  70  98 142 178 228 284 335 411
#     4   9  16  37  70  98 128 182 224 268 332 422
#     4  10  26  46  68 100 134 176 240 280 352 406
#     4  11  25  44  66 100 134 181 230 287 337 407
#
# _framework density 21.707335
#
# number of rings (size 3 to 8) (size 9 to 14) (size 15 to 20)
#    0.000    1.800    2.000    0.600   11.200    2.000 
#    0.000    0.000    0.000    0.000    0.000    0.000 
#    0.000    0.000    0.000    0.000    0.000    0.000 
#
# Total GULP energy -223284.470179 kJ/mol
# GULP energy per Si atom -5582.111754 kJ/mol
# Density = 2.165793 g / cm^3
# Si number density = 21.707335 Si / 1000 Ang^3
#
#
#
# Elastic Constant Matrix: (Units=GPa)
#
#
# Indices 1 2 3 4 5 6 
#
# 1 121.0632 61.1606 11.6086 0.0000 0.0000 0.0000
# 2 61.1606 150.8582 26.0365 0.0000 0.0000 0.0000
# 3 11.6086 26.0365 33.6677 0.0000 0.0000 0.0000
# 4 0.0000 0.0000 0.0000 25.5770 0.0000 0.0000
# 5 0.0000 0.0000 0.0000 0.0000 8.7267 0.0000
# 6 0.0000 0.0000 0.0000 0.0000 0.0000 45.6333
#
#
#
# Elastic Compliance Matrix: (Units=1/GPa)
#
#
# Indices 1 2 3 4 5 6 
#
# 1 0.010392 -0.004148 -0.000375 0.000000 0.000000 0.000000
# 2 -0.004148 0.009306 -0.005766 0.000000 0.000000 0.000000
# 3 -0.000375 -0.005766 0.034291 0.000000 0.000000 0.000000
# 4 0.000000 0.000000 0.000000 0.039098 0.000000 0.000000
# 5 0.000000 0.000000 0.000000 0.000000 0.114591 0.000000
# 6 0.000000 0.000000 0.000000 0.000000 0.000000 0.021914
#
#
# Mechanical properties :
#
#
# Convention : Reuss Voigt Hill
#
# Bulk Modulus (GPa) = 29.93197 55.91117 42.92157
# Shear Modulus (GPa) = 19.13465 29.77296 24.45381
#
# Velocity S-wave (km/s) = 2.97220 3.70748 3.36001
# Velocity P-wave (km/s) = 5.05939 6.64379 5.90497
#
# Compressibility (1/GPa) = 0.03340910
#
# Stress axis : x y z
#
# Youngs Moduli (GPa) = 96.22959 107.46095 29.16259
#
# Poissons Ratio (x) = 0.44578 0.01094
# Poissons Ratio (y) = 0.39919 0.16816
# Poissons Ratio (z) = 0.03609 0.61963
#
# Static dielectric constant tensor:
#      x y z
#    x 1.826660 0.000000 0.000000 
#    y 0.000000 1.784570 0.000000 
#    z 0.000000 0.000000 1.774640 
# 
# From -- ./inp_files/28498.got.cif
#   From: 2010.05.17/outbox.cif.g08.bks.cpg/sg68_15_cif.got.tgz:28498.got - 2010.06.03 18:57:09.
