data_PCOD9508562
_publ_section_title
;
Structure prediction by ZEFSAII (Michael W. Deem and Ramdas Pophale) SiO2 
 PCOD9508562
Probable space group: C C C A
;
_chemical_formula_sum "Si O2"
_cell_formula_units_Z 72
_cell_length_a 11.920060
_cell_length_b 21.484389
_cell_length_c 13.747321
_cell_angle_alpha 90.000000
_cell_angle_beta 90.000000
_cell_angle_gamma 90.000000
_cell_volume 3520.623003
_symmetry_space_group_name_H-M "C C C A"
_symmetry_group_IT_number 68
_space_group.IT_coordinate_system_code '2'
_symmetry_cell_setting 'orthorhombic'
loop_
_space_group_symop_operation_xyz
x,y,z
-x,1/2-y,z
x,1/2-y,1/2-z
-x,y,1/2-z
-x,-y,-z
x,1/2+y,-z
-x,1/2+y,1/2+z
x,-y,1/2+z
1/2+x,1/2+y,z
1/2-x,-y,z
1/2+x,-y,1/2-z
1/2-x,1/2+y,1/2-z
1/2-x,1/2-y,-z
1/2+x,y,-z
1/2-x,y,1/2+z
1/2+x,1/2-y,1/2+z
loop_
_atom_site_type_symbol
_atom_site_label
_atom_site_fract_x
_atom_site_fract_y
_atom_site_fract_z
Si Si1 0.127735 0.823167 0.768613
Si Si2 0.750000 0.000000 0.227844
Si Si3 0.512869 0.320831 0.366656
Si Si4 0.702090 0.599711 0.630180
Si Si5 0.252848 0.388720 0.084209
O O1 0.136843 0.750000 0.750000
O O2 0.213739 0.858201 0.695481
O O3 0.164199 0.837096 0.879402
O O4 0.000000 0.843295 0.750000
O O5 0.673979 0.039081 0.304255
O O6 0.784254 0.053912 0.153269
O O7 0.500000 0.250000 0.404251
O O8 0.500000 0.317293 0.250000
O O9 0.408678 0.362737 0.396551
O O10 0.627802 0.356439 0.391388
O O11 0.756696 0.587966 0.525759
#
# Coordination Sequence:
#
# PCOD9508562 Si02
#       5
#    16   8  16  16  16
#     4  10  22  40  61  92 134 169 202 259 329 386
#     4  10  22  46  64  86 132 166 222 264 318 374
#     4  11  22  42  69  96 130 172 212 266 326 383
#     4  11  24  43  65  97 127 172 219 266 317 383
#     4  11  24  43  65  97 127 172 219 266 317 383
#
# _framework density 20.450925999999999
#
# number of rings (size 3 to 8) (size 9 to 14) (size 15 to 20)
#    0.000    1.333    4.444    2.000    3.111    3.556 
#   16.000    2.222    0.000    0.000    0.000    0.000 
#    0.000    0.000    0.000    0.000    0.000    0.000 
#
# Total GULP energy -200459.240548 kJ/mol
# GULP energy per Si atom -5568.312237 kJ/mol
# Density = 2.040438 g / cm^3
# Si number density = 20.450926 Si / 1000 Ang^3
#
#
#
# Elastic Constant Matrix: (Units=GPa)
#
#
# Indices 1 2 3 4 5 6 
#
# 1 105.9079 24.6824 4.3169 0.0000 0.0000 0.0000
# 2 24.6824 96.8924 16.7765 0.0000 0.0000 0.0000
# 3 4.3169 16.7765 107.3468 0.0000 0.0000 0.0000
# 4 0.0000 0.0000 0.0000 9.6038 0.0000 0.0000
# 5 0.0000 0.0000 0.0000 0.0000 15.6450 0.0000
# 6 0.0000 0.0000 0.0000 0.0000 0.0000 34.6986
#
#
#
# Elastic Compliance Matrix: (Units=1/GPa)
#
#
# Indices 1 2 3 4 5 6 
#
# 1 0.010038 -0.002556 -0.000004 0.000000 0.000000 0.000000
# 2 -0.002556 0.011259 -0.001657 0.000000 0.000000 0.000000
# 3 -0.000004 -0.001657 0.009575 0.000000 0.000000 0.000000
# 4 0.000000 0.000000 0.000000 0.104126 0.000000 0.000000
# 5 0.000000 0.000000 0.000000 0.000000 0.063918 0.000000
# 6 0.000000 0.000000 0.000000 0.000000 0.000000 0.028820
#
#
# Mechanical properties :
#
#
# Convention : Reuss Voigt Hill
#
# Bulk Modulus (GPa) = 44.56925 44.63320 44.60122
# Shear Modulus (GPa) = 20.52131 29.61420 25.06776
#
# Velocity S-wave (km/s) = 3.17115 3.80947 3.50487
# Velocity P-wave (km/s) = 5.93707 6.42038 6.18345
#
# Compressibility (1/GPa) = 0.02243699
#
# Stress axis : x y z
#
# Youngs Moduli (GPa) = 99.62024 88.81935 104.44200
#
# Poissons Ratio (x) = 0.22706 0.00043
# Poissons Ratio (y) = 0.25467 0.17304
# Poissons Ratio (z) = 0.00041 0.14715
#
# Static dielectric constant tensor:
#      x y z
#    x 1.748450 0.000000 0.000000 
#    y 0.000000 1.798190 0.000000 
#    z 0.000000 0.000000 1.794100 
# 
# From -- ./inp_files/20792.got.cif
#   From: 2010.05.17/outbox.cif.g08.bks.cpg/sg68_11_cif.got.tgz:20792.got - 2010.06.03 18:57:09.
