data_PCOD9508890
_publ_section_title
;
Structure prediction by ZEFSAII (Michael W. Deem and Ramdas Pophale) SiO2 
 PCOD9508890
Probable space group: C C C A
;
_chemical_formula_sum "Si O2"
_cell_formula_units_Z 56
_cell_length_a 16.283643
_cell_length_b 12.607708
_cell_length_c 12.469102
_cell_angle_alpha 90.000000
_cell_angle_beta 90.000000
_cell_angle_gamma 90.000000
_cell_volume 2559.899360
_symmetry_space_group_name_H-M "C C C A"
_symmetry_group_IT_number 68
_space_group.IT_coordinate_system_code '2'
_symmetry_cell_setting 'orthorhombic'
loop_
_space_group_symop_operation_xyz
x,y,z
-x,1/2-y,z
x,1/2-y,1/2-z
-x,y,1/2-z
-x,-y,-z
x,1/2+y,-z
-x,1/2+y,1/2+z
x,-y,1/2+z
1/2+x,1/2+y,z
1/2-x,-y,z
1/2+x,-y,1/2-z
1/2-x,1/2+y,1/2-z
1/2-x,1/2-y,-z
1/2+x,y,-z
1/2-x,y,1/2+z
1/2+x,1/2-y,1/2+z
loop_
_atom_site_type_symbol
_atom_site_label
_atom_site_fract_x
_atom_site_fract_y
_atom_site_fract_z
Si Si1 0.332653 0.933356 0.864292
Si Si2 0.741118 0.250000 0.250000
Si Si3 0.529790 0.582476 0.410235
Si Si4 0.623830 0.293083 0.571965
O O1 0.313804 0.852726 0.769160
O O2 0.250000 0.000000 0.884370
O O3 0.407510 0.012700 0.840936
O O4 0.351852 0.860985 0.968204
O O5 0.800057 0.229554 0.351184
O O6 0.500000 0.500000 0.500000
O O7 0.447929 0.640169 0.367722
O O8 0.583593 0.679863 0.457385
#
# Coordination Sequence:
#
# PCOD9508890 Si02
#       4
#    16   8  16  16
#     4  11  23  43  65  96 131 173 218 271 332 389
#     4  12  24  39  66 105 134 164 222 278 329 396
#     4   9  20  42  68  91 129 176 219 262 334 392
#     4  10  22  43  67  93 132 172 220 268 327 409
#
# _framework density 21.875859999999999
#
# number of rings (size 3 to 8) (size 9 to 14) (size 15 to 20)
#    0.000    1.714    2.857    0.857    0.000    3.429 
#    5.143    0.000    6.286    0.000    0.000    0.000 
#    0.000    0.000    0.000    0.000    0.000    0.000 
#
# Total GULP energy -156440.113678 kJ/mol
# GULP energy per Si atom -5587.146917 kJ/mol
# Density = 2.182607 g / cm^3
# Si number density = 21.875860 Si / 1000 Ang^3
#
#
#
# Elastic Constant Matrix: (Units=GPa)
#
#
# Indices 1 2 3 4 5 6 
#
# 1 107.1855 69.5787 10.3297 0.0000 0.0000 0.0000
# 2 69.5787 178.5166 34.7539 0.0000 0.0000 0.0000
# 3 10.3297 34.7539 35.8944 0.0000 0.0000 0.0000
# 4 0.0000 0.0000 0.0000 38.9158 0.0000 0.0000
# 5 0.0000 0.0000 0.0000 0.0000 6.6233 0.0000
# 6 0.0000 0.0000 0.0000 0.0000 0.0000 65.0962
#
#
#
# Elastic Compliance Matrix: (Units=1/GPa)
#
#
# Indices 1 2 3 4 5 6 
#
# 1 0.012545 -0.005159 0.001385 0.000000 0.000000 0.000000
# 2 -0.005159 0.009025 -0.007253 0.000000 0.000000 0.000000
# 3 0.001385 -0.007253 0.034484 0.000000 0.000000 0.000000
# 4 0.000000 0.000000 0.000000 0.025697 0.000000 0.000000
# 5 0.000000 0.000000 0.000000 0.000000 0.150982 0.000000
# 6 0.000000 0.000000 0.000000 0.000000 0.000000 0.015362
#
#
# Mechanical properties :
#
#
# Convention : Reuss Voigt Hill
#
# Bulk Modulus (GPa) = 29.41282 61.21347 45.31315
# Shear Modulus (GPa) = 17.76312 35.92266 26.84289
#
# Velocity S-wave (km/s) = 2.85265 4.05670 3.50674
# Velocity P-wave (km/s) = 4.93200 7.07003 6.09549
#
# Compressibility (1/GPa) = 0.03399877
#
# Stress axis : x y z
#
# Youngs Moduli (GPa) = 79.71135 110.80727 28.99926
#
# Poissons Ratio (x) = 0.57169 -0.04017
# Poissons Ratio (y) = 0.41125 0.21034
# Poissons Ratio (z) = -0.11041 0.80371
#
# Static dielectric constant tensor:
#      x y z
#    x 1.815950 0.000000 0.000000 
#    y 0.000000 1.711640 0.000000 
#    z 0.000000 0.000000 1.768300 
# 
# From -- ./inp_files/20080.got.cif
#   From: 2010.05.17/outbox.cif.g08.bks.cpg/sg68_11_cif.got.tgz:20080.got - 2010.06.03 18:57:09.
