data_PCOD9508713
_publ_section_title
;
Structure prediction by ZEFSAII (Michael W. Deem and Ramdas Pophale) SiO2 
 PCOD9508713
Probable space group: C C C A
;
_chemical_formula_sum "Si O2"
_cell_formula_units_Z 96
_cell_length_a 22.501551
_cell_length_b 15.118464
_cell_length_c 12.422602
_cell_angle_alpha 90.000000
_cell_angle_beta 90.000000
_cell_angle_gamma 90.000000
_cell_volume 4226.031170
_symmetry_space_group_name_H-M "C C C A"
_symmetry_group_IT_number 68
_space_group.IT_coordinate_system_code '2'
_symmetry_cell_setting 'orthorhombic'
loop_
_space_group_symop_operation_xyz
x,y,z
-x,1/2-y,z
x,1/2-y,1/2-z
-x,y,1/2-z
-x,-y,-z
x,1/2+y,-z
-x,1/2+y,1/2+z
x,-y,1/2+z
1/2+x,1/2+y,z
1/2-x,-y,z
1/2+x,-y,1/2-z
1/2-x,1/2+y,1/2-z
1/2-x,1/2-y,-z
1/2+x,y,-z
1/2-x,y,1/2+z
1/2+x,1/2-y,1/2+z
loop_
_atom_site_type_symbol
_atom_site_label
_atom_site_fract_x
_atom_site_fract_y
_atom_site_fract_z
Si Si1 0.179229 0.597361 0.149560
Si Si2 0.063426 0.149305 0.719774
Si Si3 0.890742 0.602295 0.994279
Si Si4 0.636005 0.410987 0.577271
Si Si5 0.191250 0.112604 0.309762
Si Si6 0.503741 0.354399 0.621350
O O1 0.118973 0.612949 0.213961
O O2 0.188271 0.491773 0.160745
O O3 0.240032 0.640000 0.192550
O O4 0.169295 0.627065 0.026678
O O5 0.058313 0.250000 0.750000
O O6 0.081096 0.151069 0.595374
O O7 0.000000 0.104951 0.750000
O O8 0.861581 0.516458 0.051463
O O9 0.846262 0.651033 0.910736
O O10 0.949292 0.586702 0.922040
O O11 0.662525 0.380925 0.691663
O O12 0.566611 0.388308 0.579302
O O13 0.500000 0.250000 0.591582
O O14 0.500000 0.358523 0.750000
#
# Coordination Sequence:
#
# PCOD9508713 Si02
#       6
#    16  16  16  16  16  16
#     4  10  23  40  66  94 128 170 210 271 332 385
#     4  11  25  43  65  96 132 171 216 271 336 395
#     4  11  23  41  67  94 133 171 222 277 325 397
#     4  11  22  41  66  97 128 171 222 272 329 399
#     4  10  22  41  65  97 127 166 220 271 324 394
#     4  11  24  41  64  96 135 176 219 276 339 397
#
# _framework density 22.716349000000001
#
# number of rings (size 3 to 8) (size 9 to 14) (size 15 to 20)
#    0.000    1.333    3.333    1.500    7.000    3.333 
#    0.000    2.500    0.000    0.000    0.000    0.000 
#    0.000    0.000    0.000    0.000    0.000    0.000 
#
# Total GULP energy -267973.936504 kJ/mol
# GULP energy per Si atom -5582.790344 kJ/mol
# Density = 2.266465 g / cm^3
# Si number density = 22.716349 Si / 1000 Ang^3
#
#
#
# Elastic Constant Matrix: (Units=GPa)
#
#
# Indices 1 2 3 4 5 6 
#
# 1 170.1744 -2.0603 61.2028 0.0000 0.0000 0.0000
# 2 -2.0603 13.5680 9.2095 0.0000 0.0000 0.0000
# 3 61.2028 9.2095 161.2102 0.0000 0.0000 0.0000
# 4 0.0000 0.0000 0.0000 -14.0297 0.0000 0.0000
# 5 0.0000 0.0000 0.0000 0.0000 42.3851 0.0000
# 6 0.0000 0.0000 0.0000 0.0000 0.0000 -219.4169
#
#
#
# Elastic Compliance Matrix: (Units=1/GPa)
#
#
# Indices 1 2 3 4 5 6 
#
# 1 0.006917 0.002947 -0.002794 0.000000 0.000000 0.000000
# 2 0.002947 0.077932 -0.005571 0.000000 0.000000 0.000000
# 3 -0.002794 -0.005571 0.007582 0.000000 0.000000 0.000000
# 4 0.000000 0.000000 0.000000 -0.071278 0.000000 0.000000
# 5 0.000000 0.000000 0.000000 0.000000 0.023593 0.000000
# 6 0.000000 0.000000 0.000000 0.000000 0.000000 -0.004558
#
#
# Mechanical properties :
#
#
# Convention : Reuss Voigt Hill
#
# Bulk Modulus (GPa) = 12.25571 53.51739 32.88655
# Shear Modulus (GPa) = 63.91945 -19.77223 22.07361
#
# Velocity S-wave (km/s) = 5.31029 -2.95345 3.12060
# Velocity P-wave (km/s) = 6.55787 3.46116 5.24335
#
# Compressibility (1/GPa) = 0.08159461
#
# Stress axis : x y z
#
# Youngs Moduli (GPa) = 144.57154 12.83175 131.88787
#
# Poissons Ratio (x) = -0.03782 0.36854
# Poissons Ratio (y) = -0.42606 0.73473
# Poissons Ratio (z) = 0.40399 0.07148
#
# Static dielectric constant tensor:
#      x y z
#    x 2.195450 0.000000 0.000000 
#    y 0.000000 1.876670 0.000000 
#    z 0.000000 0.000000 1.988120 
# 
# From -- ./inp_files/16435.got.cif
#   From: 2010.05.17/outbox.cif.g08.bks.cpg/sg68_9_cif.got.tgz:16435.got - 2010.06.03 18:57:09.
