data_PCOD9508156
_publ_section_title
;
Structure prediction by ZEFSAII (Michael W. Deem and Ramdas Pophale) SiO2 
 PCOD9508156
Probable space group: C C C A
;
_chemical_formula_sum "Si O2"
_cell_formula_units_Z 36
_cell_length_a 12.946799
_cell_length_b 21.758943
_cell_length_c 5.282456
_cell_angle_alpha 90.000000
_cell_angle_beta 90.000000
_cell_angle_gamma 90.000000
_cell_volume 1488.113609
_symmetry_space_group_name_H-M "C C C A"
_symmetry_group_IT_number 68
_space_group.IT_coordinate_system_code '2'
_symmetry_cell_setting 'orthorhombic'
loop_
_space_group_symop_operation_xyz
x,y,z
-x,1/2-y,z
x,1/2-y,1/2-z
-x,y,1/2-z
-x,-y,-z
x,1/2+y,-z
-x,1/2+y,1/2+z
x,-y,1/2+z
1/2+x,1/2+y,z
1/2-x,-y,z
1/2+x,-y,1/2-z
1/2-x,1/2+y,1/2-z
1/2-x,1/2-y,-z
1/2+x,y,-z
1/2-x,y,1/2+z
1/2+x,1/2-y,1/2+z
loop_
_atom_site_type_symbol
_atom_site_label
_atom_site_fract_x
_atom_site_fract_y
_atom_site_fract_z
Si Si1 0.116359 0.974586 0.018937
Si Si2 0.500000 0.750000 0.750000
Si Si3 0.679227 0.163739 0.408081
O O1 0.157612 0.979862 0.734601
O O2 0.132807 0.905159 0.102377
O O3 0.000000 0.000000 0.000000
O O4 0.420411 0.792049 0.592143
O O5 0.750464 0.172628 0.656565
#
# Coordination Sequence:
#
# PCOD9508156 Si02
#       3
#    16   4  16
#     4  10  21  41  69 104 142 183 227 284 361 431
#     4  12  28  54  76 100 148 198 252 312 368 424
#     4  12  28  48  75 110 146 193 250 305 365 440
#
# _framework density 24.191704000000001
#
# number of rings (size 3 to 8) (size 9 to 14) (size 15 to 20)
#    0.000    0.889    0.000    6.667    0.000   12.444 
#    0.000    0.000    0.000    0.000    0.000    0.000 
#    0.000    0.000    0.000    0.000    0.000    0.000 
#
# Total GULP energy -100596.947148 kJ/mol
# GULP energy per Si atom -5588.719286 kJ/mol
# Density = 2.413664 g / cm^3
# Si number density = 24.191704 Si / 1000 Ang^3
#
#
#
# Elastic Constant Matrix: (Units=GPa)
#
#
# Indices 1 2 3 4 5 6 
#
# 1 218.3332 72.6804 46.9431 0.0000 0.0000 0.0000
# 2 72.6804 160.4950 40.3467 0.0000 0.0000 0.0000
# 3 46.9431 40.3467 198.6116 0.0000 0.0000 0.0000
# 4 0.0000 0.0000 0.0000 4.6232 0.0000 0.0000
# 5 0.0000 0.0000 0.0000 0.0000 -16.3849 0.0000
# 6 0.0000 0.0000 0.0000 0.0000 0.0000 67.1486
#
#
#
# Elastic Compliance Matrix: (Units=1/GPa)
#
#
# Indices 1 2 3 4 5 6 
#
# 1 0.005523 -0.002290 -0.000840 0.000000 0.000000 0.000000
# 2 -0.002290 0.007515 -0.000985 0.000000 0.000000 0.000000
# 3 -0.000840 -0.000985 0.005434 0.000000 0.000000 0.000000
# 4 0.000000 0.000000 0.000000 0.216299 0.000000 0.000000
# 5 0.000000 0.000000 0.000000 0.000000 -0.061032 0.000000
# 6 0.000000 0.000000 0.000000 0.000000 0.000000 0.014892
#
#
# Mechanical properties :
#
#
# Convention : Reuss Voigt Hill
#
# Bulk Modulus (GPa) = 97.64645 99.70890 98.67768
# Shear Modulus (GPa) = 24.96541 38.90868 31.93704
#
# Velocity S-wave (km/s) = 3.21593 4.01477 3.63735
# Velocity P-wave (km/s) = 7.36484 7.92444 7.64976
#
# Compressibility (1/GPa) = 0.01024103
#
# Stress axis : x y z
#
# Youngs Moduli (GPa) = 181.05792 133.05915 184.03522
#
# Poissons Ratio (x) = 0.30469 0.15463
# Poissons Ratio (y) = 0.41461 0.18136
# Poissons Ratio (z) = 0.15213 0.13113
#
# Static dielectric constant tensor:
#      x y z
#    x 1.787200 0.000000 0.000000 
#    y 0.000000 1.900000 0.000000 
#    z 0.000000 0.000000 0.846280 
# 
# From -- ./inp_files/411.got.cif
#   From: 2010.05.17/outbox.cif.g08.bks.cpg/sg68_1_cif.got.tgz:411.got - 2010.06.03 18:57:09.
