data_PCOD9508727
_publ_section_title
;
Structure prediction by ZEFSAII (Michael W. Deem and Ramdas Pophale) SiO2 
 PCOD9508727
Probable space group: C C C A
;
_chemical_formula_sum "Si O2"
_cell_formula_units_Z 104
_cell_length_a 19.486689
_cell_length_b 8.465738
_cell_length_c 26.700194
_cell_angle_alpha 90.000000
_cell_angle_beta 90.000000
_cell_angle_gamma 90.000000
_cell_volume 4404.709739
_symmetry_space_group_name_H-M "C C C A"
_symmetry_group_IT_number 68
_space_group.IT_coordinate_system_code '2'
_symmetry_cell_setting 'orthorhombic'
loop_
_space_group_symop_operation_xyz
x,y,z
-x,1/2-y,z
x,1/2-y,1/2-z
-x,y,1/2-z
-x,-y,-z
x,1/2+y,-z
-x,1/2+y,1/2+z
x,-y,1/2+z
1/2+x,1/2+y,z
1/2-x,-y,z
1/2+x,-y,1/2-z
1/2-x,1/2+y,1/2-z
1/2-x,1/2-y,-z
1/2+x,y,-z
1/2-x,y,1/2+z
1/2+x,1/2-y,1/2+z
loop_
_atom_site_type_symbol
_atom_site_label
_atom_site_fract_x
_atom_site_fract_y
_atom_site_fract_z
Si Si1 0.242352 0.310509 0.697128
Si Si2 0.898172 0.766917 0.823349
Si Si3 0.271128 0.184439 0.092538
Si Si4 0.510106 0.014523 0.196118
Si Si5 0.398723 0.084165 0.035601
Si Si6 0.623962 0.775781 0.064091
Si Si7 0.000000 0.750000 0.387797
O O1 0.212782 0.250000 0.750000
O O2 0.250000 0.500000 0.697789
O O3 0.318533 0.232255 0.691245
O O4 0.205655 0.255198 0.645967
O O5 0.938333 0.931023 0.819353
O O6 0.905764 0.711564 0.880721
O O7 0.936806 0.628398 0.794236
O O8 0.329243 0.176444 0.050822
O O9 0.206135 0.284068 0.072783
O O10 0.250000 0.000000 0.101124
O O11 0.500000 0.089948 0.250000
O O12 0.533980 0.128144 0.151677
O O13 0.452726 0.152323 0.074578
O O14 0.389651 0.900529 0.045180
O O15 0.409077 0.111240 0.976836
#
# Coordination Sequence:
#
# PCOD9508727 Si02
#       7
#    16  16  16  16  16  16   8
#     4  11  23  39  62  99 129 170 213 270 332 388
#     4  10  22  44  67  92 125 167 219 264 320 397
#     4   9  21  42  64  89 129 167 216 263 320 387
#     4  11  23  44  68  91 123 175 215 266 317 388
#     4  11  24  41  61  95 128 174 208 267 318 385
#     4  10  22  41  67  92 126 166 210 265 326 383
#     4  12  27  40  62  98 136 156 221 268 324 374
#
# _framework density 23.611090999999998
#
# number of rings (size 3 to 8) (size 9 to 14) (size 15 to 20)
#    0.000    1.538    1.538    3.000    4.308    3.077 
#    2.769    0.769    0.000    0.000    0.000    0.000 
#    0.000    0.000    0.000    0.000    0.000    0.000 
#
# Total GULP energy -290888.788487 kJ/mol
# GULP energy per Si atom -5594.015163 kJ/mol
# Density = 2.355735 g / cm^3
# Si number density = 23.611091 Si / 1000 Ang^3
#
#
#
# Elastic Constant Matrix: (Units=GPa)
#
#
# Indices 1 2 3 4 5 6 
#
# 1 29.7200 -9.5600 -13.0079 0.0000 0.0000 0.0000
# 2 -9.5600 41.3987 8.2290 0.0000 0.0000 0.0000
# 3 -13.0079 8.2290 161.6819 0.0000 0.0000 0.0000
# 4 0.0000 0.0000 0.0000 50.9383 0.0000 0.0000
# 5 0.0000 0.0000 0.0000 0.0000 12.2857 0.0000
# 6 0.0000 0.0000 0.0000 0.0000 0.0000 6.9671
#
#
#
# Elastic Compliance Matrix: (Units=1/GPa)
#
#
# Indices 1 2 3 4 5 6 
#
# 1 0.037395 0.008120 0.002595 0.000000 0.000000 0.000000
# 2 0.008120 0.026165 -0.000678 0.000000 0.000000 0.000000
# 3 0.002595 -0.000678 0.006428 0.000000 0.000000 0.000000
# 4 0.000000 0.000000 0.000000 0.019632 0.000000 0.000000
# 5 0.000000 0.000000 0.000000 0.000000 0.081395 0.000000
# 6 0.000000 0.000000 0.000000 0.000000 0.000000 0.143531
#
#
# Mechanical properties :
#
#
# Convention : Reuss Voigt Hill
#
# Bulk Modulus (GPa) = 11.10355 22.68032 16.89193
# Shear Modulus (GPa) = 15.40860 30.51420 22.96140
#
# Velocity S-wave (km/s) = 2.55737 3.59885 3.12185
# Velocity P-wave (km/s) = 3.66512 5.18610 4.49047
#
# Compressibility (1/GPa) = 0.09006132
#
# Stress axis : x y z
#
# Youngs Moduli (GPa) = 26.74152 38.21870 155.56168
#
# Poissons Ratio (x) = -0.31032 -0.40373
# Poissons Ratio (y) = -0.21713 0.10554
# Poissons Ratio (z) = -0.06940 0.02593
#
# Static dielectric constant tensor:
#      x y z
#    x 1.860130 0.000000 0.000000 
#    y 0.000000 1.868820 0.000000 
#    z 0.000000 0.000000 1.883180 
# 
# From -- ./inp_files/51860.got.cif
#   From: 2010.05.17/outbox.cif.g08.bks.cpg/sg68_26_cif.got.tgz:51860.got - 2010.06.03 18:57:09.
