data_PCOD9508102
_publ_section_title
;
Structure prediction by ZEFSAII (Michael W. Deem and Ramdas Pophale) SiO2 
 PCOD9508102
Probable space group: C C C A
;
_chemical_formula_sum "Si O2"
_cell_formula_units_Z 88
_cell_length_a 14.384298
_cell_length_b 12.684495
_cell_length_c 22.235341
_cell_angle_alpha 90.000000
_cell_angle_beta 90.000000
_cell_angle_gamma 90.000000
_cell_volume 4057.005977
_symmetry_space_group_name_H-M "C C C A"
_symmetry_group_IT_number 68
_space_group.IT_coordinate_system_code '2'
_symmetry_cell_setting 'orthorhombic'
loop_
_space_group_symop_operation_xyz
x,y,z
-x,1/2-y,z
x,1/2-y,1/2-z
-x,y,1/2-z
-x,-y,-z
x,1/2+y,-z
-x,1/2+y,1/2+z
x,-y,1/2+z
1/2+x,1/2+y,z
1/2-x,-y,z
1/2+x,-y,1/2-z
1/2-x,1/2+y,1/2-z
1/2-x,1/2-y,-z
1/2+x,y,-z
1/2-x,y,1/2+z
1/2+x,1/2-y,1/2+z
loop_
_atom_site_type_symbol
_atom_site_label
_atom_site_fract_x
_atom_site_fract_y
_atom_site_fract_z
Si Si1 0.591496 0.949232 0.718987
Si Si2 0.750000 0.000000 0.313546
Si Si3 0.555857 0.358846 0.521362
Si Si4 0.591960 0.683434 0.896033
Si Si5 0.559345 0.647515 0.362458
Si Si6 0.779246 0.299703 0.100317
O O1 0.500000 0.903248 0.750000
O O2 0.666345 0.966986 0.770261
O O3 0.623170 0.877344 0.663580
O O4 0.566200 0.060520 0.688215
O O5 0.774810 0.102964 0.353075
O O6 0.500000 0.250000 0.511899
O O7 0.567813 0.393447 0.452395
O O8 0.496512 0.398301 0.579104
O O9 0.659872 0.343232 0.545276
O O10 0.500000 0.750000 0.881484
O O11 0.675850 0.761233 0.914170
O O12 0.500000 0.750000 0.343374
O O13 0.659420 0.698622 0.378319
#
# Coordination Sequence:
#
# PCOD9508102 Si02
#       6
#    16   8  16  16  16  16
#     4  12  25  39  58  89 122 157 202 237 284 356
#     4  12  26  40  60  90 118 158 208 238 284 362
#     4   8  18  39  65  89 111 147 200 245 294 351
#     4  11  23  38  60  89 124 157 187 240 301 354
#     4   9  20  40  64  85 112 153 199 249 291 336
#     4  10  21  41  62  85 118 153 193 248 298 339
#
# _framework density 21.690871999999999
#
# number of rings (size 3 to 8) (size 9 to 14) (size 15 to 20)
#    0.000    2.182    0.000    4.909    0.000    7.273 
#    0.000    8.182    0.000    1.091    0.000    0.000 
#    0.000    0.000    0.000    0.000    0.000    0.000 
#
# Total GULP energy -245364.131466 kJ/mol
# GULP energy per Si atom -5576.457533 kJ/mol
# Density = 2.164150 g / cm^3
# Si number density = 21.690872 Si / 1000 Ang^3
#
#
#
# Elastic Constant Matrix: (Units=GPa)
#
#
# Indices 1 2 3 4 5 6 
#
# 1 136.7357 29.8477 25.4383 0.0000 0.0000 0.0000
# 2 29.8477 66.8745 45.3387 0.0000 0.0000 0.0000
# 3 25.4383 45.3387 126.4647 0.0000 0.0000 0.0000
# 4 0.0000 0.0000 0.0000 60.7739 0.0000 0.0000
# 5 0.0000 0.0000 0.0000 0.0000 -23.3535 0.0000
# 6 0.0000 0.0000 0.0000 0.0000 0.0000 23.9915
#
#
#
# Elastic Compliance Matrix: (Units=1/GPa)
#
#
# Indices 1 2 3 4 5 6 
#
# 1 0.008121 -0.003326 -0.000441 0.000000 0.000000 0.000000
# 2 -0.003326 0.021117 -0.006902 0.000000 0.000000 0.000000
# 3 -0.000441 -0.006902 0.010470 0.000000 0.000000 0.000000
# 4 0.000000 0.000000 0.000000 0.016454 0.000000 0.000000
# 5 0.000000 0.000000 0.000000 0.000000 -0.042820 0.000000
# 6 0.000000 0.000000 0.000000 0.000000 0.000000 0.041681
#
#
# Mechanical properties :
#
#
# Convention : Reuss Voigt Hill
#
# Bulk Modulus (GPa) = 54.43213 59.03603 56.73408
# Shear Modulus (GPa) = 60.61698 27.57906 44.09802
#
# Velocity S-wave (km/s) = 5.29212 3.56962 4.51380
# Velocity P-wave (km/s) = 7.90512 6.65325 7.30605
#
# Compressibility (1/GPa) = 0.01837150
#
# Stress axis : x y z
#
# Youngs Moduli (GPa) = 123.13122 47.35582 95.50722
#
# Poissons Ratio (x) = 0.15748 0.04215
# Poissons Ratio (y) = 0.40948 0.65915
# Poissons Ratio (z) = 0.05435 0.32683
#
# Static dielectric constant tensor:
#      x y z
#    x 1.778800 0.000000 0.000000 
#    y 0.000000 1.826450 0.000000 
#    z 0.000000 0.000000 1.813710 
# 
# From -- ./inp_files/45308.got.cif
#   From: 2010.05.17/outbox.cif.g08.bks.cpg/sg68_23_cif.got.tgz:45308.got - 2010.06.03 18:57:09.
