data_PCOD9508526
_publ_section_title
;
Structure prediction by ZEFSAII (Michael W. Deem and Ramdas Pophale) SiO2 
 PCOD9508526
Probable space group: C C C A
;
_chemical_formula_sum "Si O2"
_cell_formula_units_Z 116
_cell_length_a 16.840459
_cell_length_b 30.162700
_cell_length_c 10.901388
_cell_angle_alpha 90.000000
_cell_angle_beta 90.000000
_cell_angle_gamma 90.000000
_cell_volume 5537.400508
_symmetry_space_group_name_H-M "C C C A"
_symmetry_group_IT_number 68
_space_group.IT_coordinate_system_code '2'
_symmetry_cell_setting 'orthorhombic'
loop_
_space_group_symop_operation_xyz
x,y,z
-x,1/2-y,z
x,1/2-y,1/2-z
-x,y,1/2-z
-x,-y,-z
x,1/2+y,-z
-x,1/2+y,1/2+z
x,-y,1/2+z
1/2+x,1/2+y,z
1/2-x,-y,z
1/2+x,-y,1/2-z
1/2-x,1/2+y,1/2-z
1/2-x,1/2-y,-z
1/2+x,y,-z
1/2-x,y,1/2+z
1/2+x,1/2-y,1/2+z
loop_
_atom_site_type_symbol
_atom_site_label
_atom_site_fract_x
_atom_site_fract_y
_atom_site_fract_z
Si Si1 0.337507 0.146193 0.970069
Si Si2 0.500000 0.750000 0.250000
Si Si3 0.917170 0.037663 0.598587
Si Si4 0.214518 0.274951 0.876305
Si Si5 0.408626 0.448086 0.491056
Si Si6 0.709370 0.544322 0.710308
Si Si7 0.820645 0.101719 0.431124
Si Si8 0.876656 0.819698 0.798556
O O1 0.366951 0.166778 0.842726
O O2 0.341024 0.185674 0.070570
O O3 0.391376 0.102961 0.986497
O O4 0.246587 0.125821 0.983086
O O5 0.556774 0.716750 0.177337
O O6 0.866821 0.056657 0.710458
O O7 0.868247 0.060700 0.488070
O O8 0.009367 0.048434 0.583542
O O9 0.915656 0.983978 0.599591
O O10 0.184535 0.250000 0.750000
O O11 0.292639 0.298590 0.827514
O O12 0.250000 0.250000 0.000000
O O13 0.330204 0.465127 0.420617
O O14 0.750000 0.500000 0.760075
O O15 0.771641 0.583203 0.686156
O O16 0.883351 0.137615 0.384264
#
# Coordination Sequence:
#
# PCOD9508526 Si02
#       8
#    16   4  16  16  16  16  16  16
#     4  10  22  39  66  94 135 168 226 281 329 409
#     4  12  24  40  64  92 138 164 206 276 362 400
#     4  11  23  40  62  89 134 178 215 280 334 399
#     4  11  20  41  69  97 132 170 222 282 348 408
#     4  10  24  41  59  94 132 176 221 270 346 400
#     4  11  22  38  64  87 128 172 228 275 322 395
#     4  10  23  39  63  98 122 174 230 268 331 398
#     4  11  23  40  63  98 127 171 215 279 337 405
#
# _framework density 20.948457000000001
#
# number of rings (size 3 to 8) (size 9 to 14) (size 15 to 20)
#    0.000    1.379    3.448    1.241    7.724    0.000 
#    0.000    0.000    0.000    0.000    0.000    4.345 
#    0.000    0.000    0.000    0.000    0.000    0.000 
#
# Total GULP energy -323032.057846 kJ/mol
# GULP energy per Si atom -5569.518239 kJ/mol
# Density = 2.090078 g / cm^3
# Si number density = 20.948457 Si / 1000 Ang^3
#
#
#
# Elastic Constant Matrix: (Units=GPa)
#
#
# Indices 1 2 3 4 5 6 
#
# 1 62.7835 30.8884 10.9186 0.0000 0.0000 0.0000
# 2 30.8884 135.1433 44.8539 0.0000 0.0000 0.0000
# 3 10.9186 44.8539 61.7980 0.0000 0.0000 0.0000
# 4 0.0000 0.0000 0.0000 -9.7910 0.0000 0.0000
# 5 0.0000 0.0000 0.0000 0.0000 11.9508 0.0000
# 6 0.0000 0.0000 0.0000 0.0000 0.0000 36.2196
#
#
#
# Elastic Compliance Matrix: (Units=1/GPa)
#
#
# Indices 1 2 3 4 5 6 
#
# 1 0.017949 -0.004018 -0.000255 0.000000 0.000000 0.000000
# 2 -0.004018 0.010647 -0.007018 0.000000 0.000000 0.000000
# 3 -0.000255 -0.007018 0.021321 0.000000 0.000000 0.000000
# 4 0.000000 0.000000 0.000000 -0.102134 0.000000 0.000000
# 5 0.000000 0.000000 0.000000 0.000000 0.083677 0.000000
# 6 0.000000 0.000000 0.000000 0.000000 0.000000 0.027609
#
#
# Mechanical properties :
#
#
# Convention : Reuss Voigt Hill
#
# Bulk Modulus (GPa) = 36.58329 48.11629 42.34979
# Shear Modulus (GPa) = 55.08948 19.21345 37.15146
#
# Velocity S-wave (km/s) = 5.13368 3.03178 4.21583
# Velocity P-wave (km/s) = 7.25541 5.93922 6.63006
#
# Compressibility (1/GPa) = 0.02733488
#
# Stress axis : x y z
#
# Youngs Moduli (GPa) = 55.71413 93.92228 46.90301
#
# Poissons Ratio (x) = 0.37735 0.01197
# Poissons Ratio (y) = 0.22384 0.32916
# Poissons Ratio (z) = 0.01421 0.65914
#
# Static dielectric constant tensor:
#      x y z
#    x 1.771760 0.000000 0.000000 
#    y 0.000000 1.819030 0.000000 
#    z 0.000000 0.000000 156.649140 
# 
# From -- ./inp_files/14836.got.cif
#   From: 2010.05.17/outbox.cif.g08.bks.cpg/sg68_8_cif.got.tgz:14836.got - 2010.06.03 18:57:09.
