data_PCOD9508876
_publ_section_title
;
Structure prediction by ZEFSAII (Michael W. Deem and Ramdas Pophale) SiO2 
 PCOD9508876
Probable space group: C C C A
;
_chemical_formula_sum "Si O2"
_cell_formula_units_Z 80
_cell_length_a 22.055590
_cell_length_b 11.506089
_cell_length_c 14.176450
_cell_angle_alpha 90.000000
_cell_angle_beta 90.000000
_cell_angle_gamma 90.000000
_cell_volume 3597.608489
_symmetry_space_group_name_H-M "C C C A"
_symmetry_group_IT_number 68
_space_group.IT_coordinate_system_code '2'
_symmetry_cell_setting 'orthorhombic'
loop_
_space_group_symop_operation_xyz
x,y,z
-x,1/2-y,z
x,1/2-y,1/2-z
-x,y,1/2-z
-x,-y,-z
x,1/2+y,-z
-x,1/2+y,1/2+z
x,-y,1/2+z
1/2+x,1/2+y,z
1/2-x,-y,z
1/2+x,-y,1/2-z
1/2-x,1/2+y,1/2-z
1/2-x,1/2-y,-z
1/2+x,y,-z
1/2-x,y,1/2+z
1/2+x,1/2-y,1/2+z
loop_
_atom_site_type_symbol
_atom_site_label
_atom_site_fract_x
_atom_site_fract_y
_atom_site_fract_z
Si Si1 0.935389 0.189933 0.483034
Si Si2 0.070432 0.882986 0.722323
Si Si3 0.230056 0.257254 0.649462
Si Si4 0.125635 0.061657 0.866840
Si Si5 0.824218 0.370795 0.494445
O O1 0.923101 0.111606 0.390553
O O2 0.931793 0.118909 0.580527
O O3 0.883477 0.288422 0.489893
O O4 0.000000 0.250000 0.468754
O O5 0.085782 0.750000 0.750000
O O6 0.000000 0.899994 0.750000
O O7 0.108296 0.973533 0.784294
O O8 0.261302 0.250000 0.750000
O O9 0.171929 0.339865 0.665705
O O10 0.205104 0.141949 0.597806
O O11 0.275532 0.317276 0.577335
O O12 0.158731 0.994320 0.952602
#
# Coordination Sequence:
#
# PCOD9508876 Si02
#       5
#    16  16  16  16  16
#     4  11  23  42  68  97 133 172 216 275 332 391
#     4  11  21  40  64  98 129 167 220 263 324 405
#     4  10  24  43  63  96 132 171 222 277 331 388
#     4  11  24  41  67  97 128 176 222 268 335 393
#     4  10  22  43  64  92 135 168 217 272 330 397
#
# _framework density 22.236995
#
# number of rings (size 3 to 8) (size 9 to 14) (size 15 to 20)
#    0.000    1.400    4.000    0.600    5.600    3.200 
#    3.600    2.000    0.000    0.000    0.000    0.000 
#    0.000    0.000    0.000    0.000    0.000    0.000 
#
# Total GULP energy -223646.819676 kJ/mol
# GULP energy per Si atom -5591.170492 kJ/mol
# Density = 2.218638 g / cm^3
# Si number density = 22.236995 Si / 1000 Ang^3
#
#
#
# Elastic Constant Matrix: (Units=GPa)
#
#
# Indices 1 2 3 4 5 6 
#
# 1 67.3997 7.5830 23.7469 0.0000 0.0000 0.0000
# 2 7.5830 50.6434 12.6507 0.0000 0.0000 0.0000
# 3 23.7469 12.6507 96.0993 0.0000 0.0000 0.0000
# 4 0.0000 0.0000 0.0000 31.6429 0.0000 0.0000
# 5 0.0000 0.0000 0.0000 0.0000 21.3505 0.0000
# 6 0.0000 0.0000 0.0000 0.0000 0.0000 18.6707
#
#
#
# Elastic Compliance Matrix: (Units=1/GPa)
#
#
# Indices 1 2 3 4 5 6 
#
# 1 0.016360 -0.001489 -0.003847 0.000000 0.000000 0.000000
# 2 -0.001489 0.020553 -0.002338 0.000000 0.000000 0.000000
# 3 -0.003847 -0.002338 0.011664 0.000000 0.000000 0.000000
# 4 0.000000 0.000000 0.000000 0.031603 0.000000 0.000000
# 5 0.000000 0.000000 0.000000 0.000000 0.046837 0.000000
# 6 0.000000 0.000000 0.000000 0.000000 0.000000 0.053560
#
#
# Mechanical properties :
#
#
# Convention : Reuss Voigt Hill
#
# Bulk Modulus (GPa) = 30.09284 33.56705 31.82995
# Shear Modulus (GPa) = 24.15467 25.67695 24.91581
#
# Velocity S-wave (km/s) = 3.29939 3.40177 3.35097
# Velocity P-wave (km/s) = 5.29875 5.52786 5.41452
#
# Compressibility (1/GPa) = 0.03323050
#
# Stress axis : x y z
#
# Youngs Moduli (GPa) = 61.12608 48.65518 85.73258
#
# Poissons Ratio (x) = 0.07243 0.32978
# Poissons Ratio (y) = 0.09100 0.20042
# Poissons Ratio (z) = 0.23513 0.11374
#
# Static dielectric constant tensor:
#      x y z
#    x 1.801480 0.000000 0.000000 
#    y 0.000000 1.824630 0.000000 
#    z 0.000000 0.000000 1.872970 
# 
# From -- ./inp_files/25145.got.cif
#   From: 2010.05.17/outbox.cif.g08.bks.cpg/sg68_13_cif.got.tgz:25145.got - 2010.06.03 18:57:09.
