data_PCOD9508441
_publ_section_title
;
Structure prediction by ZEFSAII (Michael W. Deem and Ramdas Pophale) SiO2 
 PCOD9508441
Probable space group: C C C A
;
_chemical_formula_sum "Si O2"
_cell_formula_units_Z 120
_cell_length_a 28.856047
_cell_length_b 14.214327
_cell_length_c 14.291008
_cell_angle_alpha 90.000000
_cell_angle_beta 90.000000
_cell_angle_gamma 90.000000
_cell_volume 5861.732576
_symmetry_space_group_name_H-M "C C C A"
_symmetry_group_IT_number 68
_space_group.IT_coordinate_system_code '2'
_symmetry_cell_setting 'orthorhombic'
loop_
_space_group_symop_operation_xyz
x,y,z
-x,1/2-y,z
x,1/2-y,1/2-z
-x,y,1/2-z
-x,-y,-z
x,1/2+y,-z
-x,1/2+y,1/2+z
x,-y,1/2+z
1/2+x,1/2+y,z
1/2-x,-y,z
1/2+x,-y,1/2-z
1/2-x,1/2+y,1/2-z
1/2-x,1/2-y,-z
1/2+x,y,-z
1/2-x,y,1/2+z
1/2+x,1/2-y,1/2+z
loop_
_atom_site_type_symbol
_atom_site_label
_atom_site_fract_x
_atom_site_fract_y
_atom_site_fract_z
Si Si1 0.961884 0.447180 0.936972
Si Si2 0.500000 0.750000 0.520388
Si Si3 0.451031 0.586034 0.231050
Si Si4 0.810088 0.141311 0.003514
Si Si5 0.594967 0.793681 0.086211
Si Si6 0.747343 0.263053 0.638303
Si Si7 0.894927 0.573162 0.598315
Si Si8 0.204881 0.036553 0.115439
O O1 0.957310 0.501433 0.840755
O O2 0.978217 0.339332 0.926942
O O3 0.913550 0.451892 0.995337
O O4 0.000000 0.500000 0.000000
O O5 0.543701 0.709591 0.460849
O O6 0.500000 0.635623 0.250000
O O7 0.413673 0.654391 0.184119
O O8 0.435145 0.548713 0.330289
O O9 0.794708 0.208717 0.916043
O O10 0.796855 0.035402 0.972843
O O11 0.863801 0.156025 0.029223
O O12 0.778097 0.175320 0.089684
O O13 0.609420 0.685877 0.097948
O O14 0.751426 0.250000 0.750000
O O15 0.715541 0.353100 0.609681
O O16 0.848593 0.529700 0.641908
O O17 0.250000 0.000000 0.172241
#
# Coordination Sequence:
#
# PCOD9508441 Si02
#       8
#    16   8  16  16  16  16  16  16
#     4  11  21  42  62  92 132 175 214 271 342 399
#     4  10  22  38  62  92 132 170 216 264 316 414
#     4  12  23  38  66  98 132 173 223 282 341 398
#     4  10  22  41  69  96 138 179 221 286 348 419
#     4  11  21  38  66 100 131 172 216 278 356 401
#     4  10  22  44  69 102 135 176 231 287 347 408
#     4  11  23  38  63  95 136 166 227 279 336 416
#     4  10  22  42  64  97 133 175 225 280 342 408
#
# _framework density 20.471762999999999
#
# number of rings (size 3 to 8) (size 9 to 14) (size 15 to 20)
#    0.000    1.333    4.000    2.000    1.867    0.533 
#    0.000   15.667    0.000    0.000    0.000    0.000 
#    0.000    0.000    0.000    0.000    0.000    0.000 
#
# Total GULP energy -334286.626899 kJ/mol
# GULP energy per Si atom -5571.443782 kJ/mol
# Density = 2.042517 g / cm^3
# Si number density = 20.471763 Si / 1000 Ang^3
#
#
#
# Elastic Constant Matrix: (Units=GPa)
#
#
# Indices 1 2 3 4 5 6 
#
# 1 137.3605 9.7339 30.2269 0.0000 0.0000 0.0000
# 2 9.7339 80.4314 35.3102 0.0000 0.0000 0.0000
# 3 30.2269 35.3102 99.0594 0.0000 0.0000 0.0000
# 4 0.0000 0.0000 0.0000 21.6445 0.0000 0.0000
# 5 0.0000 0.0000 0.0000 0.0000 20.0040 0.0000
# 6 0.0000 0.0000 0.0000 0.0000 0.0000 24.8715
#
#
#
# Elastic Compliance Matrix: (Units=1/GPa)
#
#
# Indices 1 2 3 4 5 6 
#
# 1 0.007805 0.000120 -0.002424 0.000000 0.000000 0.000000
# 2 0.000120 0.014741 -0.005291 0.000000 0.000000 0.000000
# 3 -0.002424 -0.005291 0.012721 0.000000 0.000000 0.000000
# 4 0.000000 0.000000 0.000000 0.046201 0.000000 0.000000
# 5 0.000000 0.000000 0.000000 0.000000 0.049990 0.000000
# 6 0.000000 0.000000 0.000000 0.000000 0.000000 0.040207
#
#
# Mechanical properties :
#
#
# Convention : Reuss Voigt Hill
#
# Bulk Modulus (GPa) = 49.81146 51.93260 50.87203
# Shear Modulus (GPa) = 25.83335 29.40936 27.62135
#
# Velocity S-wave (km/s) = 3.55618 3.79434 3.67719
# Velocity P-wave (km/s) = 6.42234 6.67975 6.55231
#
# Compressibility (1/GPa) = 0.02007570
#
# Stress axis : x y z
#
# Youngs Moduli (GPa) = 128.12117 67.83644 78.61162
#
# Poissons Ratio (x) = -0.00812 0.19058
# Poissons Ratio (y) = -0.01534 0.41595
# Poissons Ratio (z) = 0.31061 0.35893
#
# Static dielectric constant tensor:
#      x y z
#    x 1.816310 0.000000 0.000000 
#    y 0.000000 1.769560 0.000000 
#    z 0.000000 0.000000 1.720920 
# 
# From -- ./inp_files/26529.got.cif
#   From: 2010.05.17/outbox.cif.g08.bks.cpg/sg68_14_cif.got.tgz:26529.got - 2010.06.03 18:57:09.
