data_PCOD9508499
_publ_section_title
;
Structure prediction by ZEFSAII (Michael W. Deem and Ramdas Pophale) SiO2 
 PCOD9508499
Probable space group: C C C A
;
_chemical_formula_sum "Si O2"
_cell_formula_units_Z 104
_cell_length_a 8.917215
_cell_length_b 24.314019
_cell_length_c 24.767090
_cell_angle_alpha 90.000000
_cell_angle_beta 90.000000
_cell_angle_gamma 90.000000
_cell_volume 5369.835380
_symmetry_space_group_name_H-M "C C C A"
_symmetry_group_IT_number 68
_space_group.IT_coordinate_system_code '2'
_symmetry_cell_setting 'orthorhombic'
loop_
_space_group_symop_operation_xyz
x,y,z
-x,1/2-y,z
x,1/2-y,1/2-z
-x,y,1/2-z
-x,-y,-z
x,1/2+y,-z
-x,1/2+y,1/2+z
x,-y,1/2+z
1/2+x,1/2+y,z
1/2-x,-y,z
1/2+x,-y,1/2-z
1/2-x,1/2+y,1/2-z
1/2-x,1/2-y,-z
1/2+x,y,-z
1/2-x,y,1/2+z
1/2+x,1/2-y,1/2+z
loop_
_atom_site_type_symbol
_atom_site_label
_atom_site_fract_x
_atom_site_fract_y
_atom_site_fract_z
Si Si1 0.677228 0.314735 0.740403
Si Si2 0.255974 0.727999 0.574455
Si Si3 0.000000 0.250000 0.501453
Si Si4 0.173209 0.559942 0.453803
Si Si5 0.160627 0.853258 0.341655
Si Si6 0.687403 0.657300 0.627681
Si Si7 0.818376 0.440238 0.935285
O O1 0.716757 0.250000 0.750000
O O2 0.500000 0.320841 0.750000
O O3 0.777766 0.351766 0.781108
O O4 0.710378 0.332873 0.679529
O O5 0.400822 0.711051 0.539463
O O6 0.251897 0.696874 0.630028
O O7 0.281899 0.791953 0.587340
O O8 0.113461 0.719106 0.537531
O O9 0.250000 0.500000 0.447045
O O10 0.214503 0.601844 0.405868
O O11 0.229163 0.581689 0.512126
O O12 0.993123 0.555092 0.451612
O O13 0.194395 0.904221 0.381181
O O14 0.983314 0.841916 0.349244
O O15 0.750000 0.500000 0.924727
#
# Coordination Sequence:
#
# PCOD9508499 Si02
#       7
#    16  16   8  16  16  16  16
#     4  11  25  41  60  89 120 157 206 246 299 354
#     4  11  22  37  54  88 121 159 190 239 300 357
#     4  10  24  34  52  84 130 152 196 234 296 364
#     4  10  22  39  61  91 121 159 200 242 297 355
#     4  11  23  39  62  86 119 160 198 244 299 359
#     4  11  23  39  62  86 119 160 198 244 299 359
#     4  10  22  39  61  91 121 159 200 242 297 355
#
# _framework density 19.367446999999999
#
# number of rings (size 3 to 8) (size 9 to 14) (size 15 to 20)
#    0.000    1.385    3.077    2.308    6.462    3.077 
#    0.000    0.769    0.000    0.000    0.000    0.000 
#    0.000    0.000    0.000    0.000    0.000    0.000 
#
# Total GULP energy -290386.385022 kJ/mol
# GULP energy per Si atom -5584.353558 kJ/mol
# Density = 1.932337 g / cm^3
# Si number density = 19.367447 Si / 1000 Ang^3
#
#
#
# Elastic Constant Matrix: (Units=GPa)
#
#
# Indices 1 2 3 4 5 6 
#
# 1 88.7817 32.6768 47.3876 0.0000 0.0000 0.0000
# 2 32.6768 78.9597 40.5402 0.0000 0.0000 0.0000
# 3 47.3876 40.5402 107.0635 0.0000 0.0000 0.0000
# 4 0.0000 0.0000 0.0000 25.8954 0.0000 0.0000
# 5 0.0000 0.0000 0.0000 0.0000 28.8848 0.0000
# 6 0.0000 0.0000 0.0000 0.0000 0.0000 17.1617
#
#
#
# Elastic Compliance Matrix: (Units=1/GPa)
#
#
# Indices 1 2 3 4 5 6 
#
# 1 0.015529 -0.003597 -0.005511 0.000000 0.000000 0.000000
# 2 -0.003597 0.016554 -0.004676 0.000000 0.000000 0.000000
# 3 -0.005511 -0.004676 0.013550 0.000000 0.000000 0.000000
# 4 0.000000 0.000000 0.000000 0.038617 0.000000 0.000000
# 5 0.000000 0.000000 0.000000 0.000000 0.034620 0.000000
# 6 0.000000 0.000000 0.000000 0.000000 0.000000 0.058269
#
#
# Mechanical properties :
#
#
# Convention : Reuss Voigt Hill
#
# Bulk Modulus (GPa) = 55.35716 57.33490 56.34603
# Shear Modulus (GPa) = 23.72691 24.66838 24.19765
#
# Velocity S-wave (km/s) = 3.50393 3.57277 3.53852
# Velocity P-wave (km/s) = 6.70930 6.83283 6.77135
#
# Compressibility (1/GPa) = 0.01806451
#
# Stress axis : x y z
#
# Youngs Moduli (GPa) = 64.39486 60.40768 73.79867
#
# Poissons Ratio (x) = 0.21728 0.40674
# Poissons Ratio (y) = 0.23162 0.34510
# Poissons Ratio (z) = 0.35491 0.28248
#
# Static dielectric constant tensor:
#      x y z
#    x 1.698360 0.000000 0.000000 
#    y 0.000000 1.685510 0.000000 
#    z 0.000000 0.000000 1.662160 
# 
# From -- ./inp_files/8297.got.cif
#   From: 2010.05.17/outbox.cif.g08.bks.cpg/sg68_5_cif.got.tgz:8297.got - 2010.06.03 18:57:09.
