data_PCOD9508057
_publ_section_title
;
Structure prediction by ZEFSAII (Michael W. Deem and Ramdas Pophale) SiO2 
 PCOD9508057
Probable space group: C C C A
;
_chemical_formula_sum "Si O2"
_cell_formula_units_Z 80
_cell_length_a 13.254921
_cell_length_b 13.201241
_cell_length_c 20.578571
_cell_angle_alpha 90.000000
_cell_angle_beta 90.000000
_cell_angle_gamma 90.000000
_cell_volume 3600.867299
_symmetry_space_group_name_H-M "C C C A"
_symmetry_group_IT_number 68
_space_group.IT_coordinate_system_code '2'
_symmetry_cell_setting 'orthorhombic'
loop_
_space_group_symop_operation_xyz
x,y,z
-x,1/2-y,z
x,1/2-y,1/2-z
-x,y,1/2-z
-x,-y,-z
x,1/2+y,-z
-x,1/2+y,1/2+z
x,-y,1/2+z
1/2+x,1/2+y,z
1/2-x,-y,z
1/2+x,-y,1/2-z
1/2-x,1/2+y,1/2-z
1/2-x,1/2-y,-z
1/2+x,y,-z
1/2-x,y,1/2+z
1/2+x,1/2-y,1/2+z
loop_
_atom_site_type_symbol
_atom_site_label
_atom_site_fract_x
_atom_site_fract_y
_atom_site_fract_z
Si Si1 0.548081 0.845636 0.016408
Si Si2 0.197067 0.735460 0.069409
Si Si3 0.083449 0.461595 0.575569
Si Si4 0.077389 0.021348 0.691241
Si Si5 0.272082 0.165469 0.694208
O O1 0.500000 0.750000 0.052706
O O2 0.615380 0.923872 0.057226
O O3 0.598811 0.802645 0.950325
O O4 0.454029 0.911900 0.992107
O O5 0.163242 0.624630 0.094620
O O6 0.266404 0.783327 0.123893
O O7 0.250000 0.750000 0.000000
O O8 0.992614 0.471135 0.627068
O O9 0.164933 0.105747 0.697782
O O10 0.000000 0.031387 0.750000
O O11 0.137812 0.915555 0.695651
O O12 0.279974 0.250000 0.750000
#
# Coordination Sequence:
#
# PCOD9508057 Si02
#       5
#    16  16  16  16  16
#     4   9  20  37  62  96 132 172 216 271 336 401
#     4  11  24  39  67 103 137 177 224 285 345 409
#     4  10  21  40  66  95 132 175 225 272 340 411
#     4  11  25  45  72  96 131 186 234 285 355 421
#     4  11  26  46  69 100 137 176 237 294 346 421
#
# _framework density 22.216871000000001
#
# number of rings (size 3 to 8) (size 9 to 14) (size 15 to 20)
#    0.000    1.600    2.000    1.200    8.400    4.800 
#    0.000    0.000    0.000    0.000    0.000    0.000 
#    0.000    0.000    0.000    0.000    0.000    0.000 
#
# Total GULP energy -223047.865066 kJ/mol
# GULP energy per Si atom -5576.196627 kJ/mol
# Density = 2.216630 g / cm^3
# Si number density = 22.216871 Si / 1000 Ang^3
#
#
#
# Elastic Constant Matrix: (Units=GPa)
#
#
# Indices 1 2 3 4 5 6 
#
# 1 85.7653 35.5838 41.3265 0.0000 0.0000 0.0000
# 2 35.5838 160.9518 61.7164 0.0000 0.0000 0.0000
# 3 41.3265 61.7164 121.5777 0.0000 0.0000 0.0000
# 4 0.0000 0.0000 0.0000 34.6753 0.0000 0.0000
# 5 0.0000 0.0000 0.0000 0.0000 44.9445 0.0000
# 6 0.0000 0.0000 0.0000 0.0000 0.0000 9.7202
#
#
#
# Elastic Compliance Matrix: (Units=1/GPa)
#
#
# Indices 1 2 3 4 5 6 
#
# 1 0.014271 -0.001608 -0.004035 0.000000 0.000000 0.000000
# 2 -0.001608 0.007896 -0.003462 0.000000 0.000000 0.000000
# 3 -0.004035 -0.003462 0.011354 0.000000 0.000000 0.000000
# 4 0.000000 0.000000 0.000000 0.028839 0.000000 0.000000
# 5 0.000000 0.000000 0.000000 0.000000 0.022250 0.000000
# 6 0.000000 0.000000 0.000000 0.000000 0.000000 0.102879
#
#
# Mechanical properties :
#
#
# Convention : Reuss Voigt Hill
#
# Bulk Modulus (GPa) = 65.30755 71.72760 68.51757
# Shear Modulus (GPa) = 23.71907 33.17919 28.44913
#
# Velocity S-wave (km/s) = 3.27098 3.86868 3.58232
# Velocity P-wave (km/s) = 6.61249 7.23262 6.92950
#
# Compressibility (1/GPa) = 0.01531217
#
# Stress axis : x y z
#
# Youngs Moduli (GPa) = 70.07201 126.64839 88.07566
#
# Poissons Ratio (x) = 0.20365 0.35536
# Poissons Ratio (y) = 0.11268 0.30488
# Poissons Ratio (z) = 0.28272 0.43840
#
# Static dielectric constant tensor:
#      x y z
#    x 1.998690 0.000000 0.000000 
#    y 0.000000 -2.438930 0.000000 
#    z 0.000000 0.000000 1.781610 
# 
# From -- ./inp_files/38364.got.cif
#   From: 2010.05.17/outbox.cif.g08.bks.cpg/sg68_20_cif.got.tgz:38364.got - 2010.06.03 18:57:09.
