data_PCOD9508574
_publ_section_title
;
Structure prediction by ZEFSAII (Michael W. Deem and Ramdas Pophale) SiO2 
 PCOD9508574
Probable space group: C C C A
;
_chemical_formula_sum "Si O2"
_cell_formula_units_Z 64
_cell_length_a 4.953475
_cell_length_b 20.948418
_cell_length_c 29.097062
_cell_angle_alpha 90.000000
_cell_angle_beta 90.000000
_cell_angle_gamma 90.000000
_cell_volume 3019.328358
_symmetry_space_group_name_H-M "C C C A"
_symmetry_group_IT_number 68
_space_group.IT_coordinate_system_code '2'
_symmetry_cell_setting 'orthorhombic'
loop_
_space_group_symop_operation_xyz
x,y,z
-x,1/2-y,z
x,1/2-y,1/2-z
-x,y,1/2-z
-x,-y,-z
x,1/2+y,-z
-x,1/2+y,1/2+z
x,-y,1/2+z
1/2+x,1/2+y,z
1/2-x,-y,z
1/2+x,-y,1/2-z
1/2-x,1/2+y,1/2-z
1/2-x,1/2-y,-z
1/2+x,y,-z
1/2-x,y,1/2+z
1/2+x,1/2-y,1/2+z
loop_
_atom_site_type_symbol
_atom_site_label
_atom_site_fract_x
_atom_site_fract_y
_atom_site_fract_z
Si Si1 0.071295 0.603183 0.151314
Si Si2 0.492725 0.392026 0.529887
Si Si3 0.579895 0.178452 0.882193
Si Si4 0.750000 0.500000 0.091908
Si Si5 0.000000 0.454052 0.750000
O O1 0.870193 0.660085 0.137307
O O2 0.950317 0.542795 0.123136
O O3 0.367899 0.626533 0.137660
O O4 0.061082 0.586810 0.204859
O O5 0.182578 0.391396 0.514964
O O6 0.566332 0.333419 0.563107
O O7 0.577382 0.454104 0.558863
O O8 0.500000 0.250000 0.870482
O O9 0.750000 0.500000 0.739547
#
# Coordination Sequence:
#
# PCOD9508574 Si02
#       5
#    16  16  16   8   8
#     4  11  24  42  67  98 128 170 209 261 330 384
#     4  11  23  38  61  92 125 168 214 268 321 374
#     4  11  25  45  65  89 130 176 221 264 311 377
#     4  10  22  40  62  94 132 166 202 270 326 400
#     4  12  24  42  69 104 137 158 204 262 320 398
#
# _framework density 21.196767999999999
#
# number of rings (size 3 to 8) (size 9 to 14) (size 15 to 20)
#    0.000    1.000    1.250    6.000    3.500    5.000 
#    0.000    3.750    0.000    0.000    0.000    0.000 
#    0.000    0.000    0.000    0.000    0.000    0.000 
#
# Total GULP energy -179197.005415 kJ/mol
# GULP energy per Si atom -5599.906419 kJ/mol
# Density = 2.114852 g / cm^3
# Si number density = 21.196768 Si / 1000 Ang^3
#
#
#
# Elastic Constant Matrix: (Units=GPa)
#
#
# Indices 1 2 3 4 5 6 
#
# 1 60.7580 -19.1516 -6.4689 0.0000 0.0000 0.0000
# 2 -19.1516 49.9688 5.8564 0.0000 0.0000 0.0000
# 3 -6.4689 5.8564 95.9921 0.0000 0.0000 0.0000
# 4 0.0000 0.0000 0.0000 -0.6072 0.0000 0.0000
# 5 0.0000 0.0000 0.0000 0.0000 4.5336 0.0000
# 6 0.0000 0.0000 0.0000 0.0000 0.0000 23.9205
#
#
#
# Elastic Compliance Matrix: (Units=1/GPa)
#
#
# Indices 1 2 3 4 5 6 
#
# 1 0.018786 0.007103 0.000833 0.000000 0.000000 0.000000
# 2 0.007103 0.022842 -0.000915 0.000000 0.000000 0.000000
# 3 0.000833 -0.000915 0.010529 0.000000 0.000000 0.000000
# 4 0.000000 0.000000 0.000000 -1.646856 0.000000 0.000000
# 5 0.000000 0.000000 0.000000 0.000000 0.220574 0.000000
# 6 0.000000 0.000000 0.000000 0.000000 0.000000 0.041805
#
#
# Mechanical properties :
#
#
# Convention : Reuss Voigt Hill
#
# Bulk Modulus (GPa) = 15.10611 18.57673 16.84142
# Shear Modulus (GPa) = -3.77560 20.66824 8.44632
#
# Velocity S-wave (km/s) = -1.33607 3.12599 1.99834
# Velocity P-wave (km/s) = 2.18219 4.67034 3.64514
#
# Compressibility (1/GPa) = 0.06619839
#
# Stress axis : x y z
#
# Youngs Moduli (GPa) = 53.23052 43.77909 94.97164
#
# Poissons Ratio (x) = -0.31095 -0.07908
# Poissons Ratio (y) = -0.37808 0.08689
# Poissons Ratio (z) = -0.04432 0.04005
#
# Static dielectric constant tensor:
#      x y z
#    x 1.737120 0.000000 0.000000 
#    y 0.000000 1.761890 0.000000 
#    z 0.000000 0.000000 1.745040 
# 
# From -- ./inp_files/48112.got.cif
#   From: 2010.05.17/outbox.cif.g08.bks.cpg/sg68_25_cif.got.tgz:48112.got - 2010.06.03 18:57:09.
