data_PCOD9508621
_publ_section_title
;
Structure prediction by ZEFSAII (Michael W. Deem and Ramdas Pophale) SiO2 
 PCOD9508621
Probable space group: C C C A
;
_chemical_formula_sum "Si O2"
_cell_formula_units_Z 88
_cell_length_a 21.809171
_cell_length_b 21.254084
_cell_length_c 9.197814
_cell_angle_alpha 90.000000
_cell_angle_beta 90.000000
_cell_angle_gamma 90.000000
_cell_volume 4263.499077
_symmetry_space_group_name_H-M "C C C A"
_symmetry_group_IT_number 68
_space_group.IT_coordinate_system_code '2'
_symmetry_cell_setting 'orthorhombic'
loop_
_space_group_symop_operation_xyz
x,y,z
-x,1/2-y,z
x,1/2-y,1/2-z
-x,y,1/2-z
-x,-y,-z
x,1/2+y,-z
-x,1/2+y,1/2+z
x,-y,1/2+z
1/2+x,1/2+y,z
1/2-x,-y,z
1/2+x,-y,1/2-z
1/2-x,1/2+y,1/2-z
1/2-x,1/2-y,-z
1/2+x,y,-z
1/2-x,y,1/2+z
1/2+x,1/2-y,1/2+z
loop_
_atom_site_type_symbol
_atom_site_label
_atom_site_fract_x
_atom_site_fract_y
_atom_site_fract_z
Si Si1 0.049399 0.054823 0.001266
Si Si2 0.500000 0.364080 0.750000
Si Si3 0.250000 0.500000 0.319239
Si Si4 0.316699 0.927842 0.935058
Si Si5 0.562557 0.210645 0.494558
Si Si6 0.188777 0.224612 0.916422
Si Si7 0.000000 0.358399 0.750000
O O1 0.041624 0.092987 0.148662
O O2 0.119093 0.039167 0.975377
O O3 0.032102 0.100809 0.871357
O O4 0.000000 0.000000 0.000000
O O5 0.452799 0.327773 0.642246
O O6 0.275267 0.552970 0.428129
O O7 0.294645 0.462362 0.210807
O O8 0.316753 0.851864 0.919721
O O9 0.500000 0.250000 0.488135
O O10 0.626592 0.247204 0.491232
O O11 0.554323 0.175522 0.339706
O O12 0.191125 0.250000 0.750000
O O13 0.250000 0.250000 0.000000
#
# Coordination Sequence:
#
# PCOD9508621 Si02
#       7
#    16   8   8  16  16  16   8
#     4  11  24  41  66 102 132 175 233 290 342 406
#     4  10  24  40  64 102 136 175 221 288 356 416
#     4  10  26  48  70  92 134 196 228 284 340 404
#     4  11  25  47  70  98 140 180 240 283 343 418
#     4  11  22  42  66  97 138 182 223 282 357 419
#     4  12  26  45  73 109 145 186 237 292 362 432
#     4  10  22  40  66  96 136 175 221 282 356 416
#
# _framework density 20.640324
#
# number of rings (size 3 to 8) (size 9 to 14) (size 15 to 20)
#    0.000    1.091    0.000    6.545    5.091    4.364 
#    6.545    0.000    0.000    0.000    0.000    0.000 
#    0.000    0.000    0.000    0.000    0.000    0.000 
#
# Total GULP energy -245479.510565 kJ/mol
# GULP energy per Si atom -5579.079786 kJ/mol
# Density = 2.059335 g / cm^3
# Si number density = 20.640324 Si / 1000 Ang^3
#
#
#
# Elastic Constant Matrix: (Units=GPa)
#
#
# Indices 1 2 3 4 5 6 
#
# 1 132.4238 50.7615 63.5905 0.0000 0.0000 0.0000
# 2 50.7615 127.2493 74.0994 0.0000 0.0000 0.0000
# 3 63.5905 74.0994 158.7463 0.0000 0.0000 0.0000
# 4 0.0000 0.0000 0.0000 80.0349 0.0000 0.0000
# 5 0.0000 0.0000 0.0000 0.0000 1.3857 0.0000
# 6 0.0000 0.0000 0.0000 0.0000 0.0000 37.0078
#
#
#
# Elastic Compliance Matrix: (Units=1/GPa)
#
#
# Indices 1 2 3 4 5 6 
#
# 1 0.009789 -0.002227 -0.002882 0.000000 0.000000 0.000000
# 2 -0.002227 0.011299 -0.004382 0.000000 0.000000 0.000000
# 3 -0.002882 -0.004382 0.009499 0.000000 0.000000 0.000000
# 4 0.000000 0.000000 0.000000 0.012495 0.000000 0.000000
# 5 0.000000 0.000000 0.000000 0.000000 0.721654 0.000000
# 6 0.000000 0.000000 0.000000 0.000000 0.000000 0.027021
#
#
# Mechanical properties :
#
#
# Convention : Reuss Voigt Hill
#
# Bulk Modulus (GPa) = 86.16560 88.36914 87.26737
# Shear Modulus (GPa) = 6.13794 39.01688 22.57741
#
# Velocity S-wave (km/s) = 1.72633 4.35250 3.31093
# Velocity P-wave (km/s) = 6.76834 8.25626 7.54905
#
# Compressibility (1/GPa) = 0.01160556
#
# Stress axis : x y z
#
# Youngs Moduli (GPa) = 102.15570 88.50682 105.27261
#
# Poissons Ratio (x) = 0.19709 0.30338
# Poissons Ratio (y) = 0.22748 0.46130
# Poissons Ratio (z) = 0.29440 0.38783
#
# Static dielectric constant tensor:
#      x y z
#    x 2.029540 0.000000 0.000000 
#    y 0.000000 0.826670 0.000000 
#    z 0.000000 0.000000 1.705930 
# 
# From -- ./inp_files/7167.got.cif
#   From: 2010.05.17/outbox.cif.g08.bks.cpg/sg68_4_cif.got.tgz:7167.got - 2010.06.03 18:57:09.
