data_PCOD9508059
_publ_section_title
;
Structure prediction by ZEFSAII (Michael W. Deem and Ramdas Pophale) SiO2 
 PCOD9508059
Probable space group: C C C A
;
_chemical_formula_sum "Si O2"
_cell_formula_units_Z 96
_cell_length_a 21.503315
_cell_length_b 19.955558
_cell_length_c 9.695407
_cell_angle_alpha 90.000000
_cell_angle_beta 90.000000
_cell_angle_gamma 90.000000
_cell_volume 4160.402397
_symmetry_space_group_name_H-M "C C C A"
_symmetry_group_IT_number 68
_space_group.IT_coordinate_system_code '2'
_symmetry_cell_setting 'orthorhombic'
loop_
_space_group_symop_operation_xyz
x,y,z
-x,1/2-y,z
x,1/2-y,1/2-z
-x,y,1/2-z
-x,-y,-z
x,1/2+y,-z
-x,1/2+y,1/2+z
x,-y,1/2+z
1/2+x,1/2+y,z
1/2-x,-y,z
1/2+x,-y,1/2-z
1/2-x,1/2+y,1/2-z
1/2-x,1/2-y,-z
1/2+x,y,-z
1/2-x,y,1/2+z
1/2+x,1/2-y,1/2+z
loop_
_atom_site_type_symbol
_atom_site_label
_atom_site_fract_x
_atom_site_fract_y
_atom_site_fract_z
Si Si1 0.932654 0.188616 0.678420
Si Si2 0.362610 0.514987 0.430683
Si Si3 0.901649 0.749068 0.597564
Si Si4 0.209381 0.354269 0.354275
Si Si5 0.321126 0.370284 0.536859
Si Si6 0.931122 0.459243 0.812061
O O1 0.897538 0.250000 0.750000
O O2 0.938506 0.208592 0.518990
O O3 0.905090 0.116187 0.703064
O O4 0.000000 0.184449 0.750000
O O5 0.317387 0.578594 0.428634
O O6 0.333745 0.445935 0.486482
O O7 0.422629 0.526384 0.527576
O O8 0.386813 0.506442 0.275941
O O9 0.930042 0.750000 0.750000
O O10 0.838183 0.706103 0.616026
O O11 0.882776 0.823848 0.549931
O O12 0.274885 0.339418 0.423926
O O13 0.209245 0.367329 0.189929
O O14 0.000000 0.463369 0.750000
#
# Coordination Sequence:
#
# PCOD9508059 Si02
#       6
#    16  16  16  16  16  16
#     4  10  21  40  66  97 129 171 225 270 327 391
#     4  12  23  42  64  96 132 172 218 275 331 392
#     4  10  22  43  65  94 134 176 216 275 334 391
#     4  11  24  41  63  93 131 170 220 271 329 400
#     4  11  25  40  65  96 129 173 220 266 337 396
#     4  11  24  42  67  96 131 177 221 277 330 395
#
# _framework density 23.07469
#
# number of rings (size 3 to 8) (size 9 to 14) (size 15 to 20)
#    0.000    1.167    3.333    2.500    2.333    2.667 
#    0.000    1.667    0.000    0.000    0.000    0.000 
#    0.000    0.000    0.000    0.000    0.000    0.000 
#
# Total GULP energy -268318.130576 kJ/mol
# GULP energy per Si atom -5589.961054 kJ/mol
# Density = 2.302217 g / cm^3
# Si number density = 23.074690 Si / 1000 Ang^3
#
#
#
# Elastic Constant Matrix: (Units=GPa)
#
#
# Indices 1 2 3 4 5 6 
#
# 1 50.1029 3.3915 18.3777 0.0000 0.0000 0.0000
# 2 3.3915 70.7891 -9.0036 0.0000 0.0000 0.0000
# 3 18.3777 -9.0036 114.2179 0.0000 0.0000 0.0000
# 4 0.0000 0.0000 0.0000 38.4223 0.0000 0.0000
# 5 0.0000 0.0000 0.0000 0.0000 26.7971 0.0000
# 6 0.0000 0.0000 0.0000 0.0000 0.0000 22.0892
#
#
#
# Elastic Compliance Matrix: (Units=1/GPa)
#
#
# Indices 1 2 3 4 5 6 
#
# 1 0.021362 -0.001475 -0.003553 0.000000 0.000000 0.000000
# 2 -0.001475 0.014371 0.001370 0.000000 0.000000 0.000000
# 3 -0.003553 0.001370 0.009435 0.000000 0.000000 0.000000
# 4 0.000000 0.000000 0.000000 0.026027 0.000000 0.000000
# 5 0.000000 0.000000 0.000000 0.000000 0.037317 0.000000
# 6 0.000000 0.000000 0.000000 0.000000 0.000000 0.045271
#
#
# Mechanical properties :
#
#
# Convention : Reuss Voigt Hill
#
# Bulk Modulus (GPa) = 26.41917 28.96013 27.68965
# Shear Modulus (GPa) = 28.78228 32.28468 30.53348
#
# Velocity S-wave (km/s) = 3.53562 3.74456 3.64159
# Velocity P-wave (km/s) = 5.30488 5.59227 5.45047
#
# Compressibility (1/GPa) = 0.03785130
#
# Stress axis : x y z
#
# Youngs Moduli (GPa) = 46.81165 69.58246 105.98864
#
# Poissons Ratio (x) = 0.10266 0.37663
# Poissons Ratio (y) = 0.06907 -0.14523
# Poissons Ratio (z) = 0.16634 -0.09535
#
# Static dielectric constant tensor:
#      x y z
#    x 1.853660 0.000000 0.000000 
#    y 0.000000 1.892250 0.000000 
#    z 0.000000 0.000000 1.879770 
# 
# From -- ./inp_files/7278.got.cif
#   From: 2010.05.17/outbox.cif.g08.bks.cpg/sg68_4_cif.got.tgz:7278.got - 2010.06.03 18:57:09.
