data_PCOD9508841
_publ_section_title
;
Structure prediction by ZEFSAII (Michael W. Deem and Ramdas Pophale) SiO2 
 PCOD9508841
Probable space group: C C C A
;
_chemical_formula_sum "Si O2"
_cell_formula_units_Z 116
_cell_length_a 9.181369
_cell_length_b 25.738718
_cell_length_c 23.980873
_cell_angle_alpha 90.000000
_cell_angle_beta 90.000000
_cell_angle_gamma 90.000000
_cell_volume 5667.079992
_symmetry_space_group_name_H-M "C C C A"
_symmetry_group_IT_number 68
_space_group.IT_coordinate_system_code '2'
_symmetry_cell_setting 'orthorhombic'
loop_
_space_group_symop_operation_xyz
x,y,z
-x,1/2-y,z
x,1/2-y,1/2-z
-x,y,1/2-z
-x,-y,-z
x,1/2+y,-z
-x,1/2+y,1/2+z
x,-y,1/2+z
1/2+x,1/2+y,z
1/2-x,-y,z
1/2+x,-y,1/2-z
1/2-x,1/2+y,1/2-z
1/2-x,1/2-y,-z
1/2+x,y,-z
1/2-x,y,1/2+z
1/2+x,1/2-y,1/2+z
loop_
_atom_site_type_symbol
_atom_site_label
_atom_site_fract_x
_atom_site_fract_y
_atom_site_fract_z
Si Si1 0.996587 0.144610 0.815613
Si Si2 0.810172 0.688530 0.840206
Si Si3 0.154319 0.553430 0.378401
Si Si4 0.142028 0.277220 0.904290
Si Si5 0.579708 0.495815 0.940888
Si Si6 0.779945 0.868317 0.972387
Si Si7 0.000000 0.250000 0.250000
Si Si8 0.579214 0.380970 0.929128
O O1 0.169488 0.150804 0.830623
O O2 0.000000 0.154427 0.750000
O O3 0.897485 0.093452 0.829828
O O4 0.918713 0.189256 0.852064
O O5 0.750556 0.734863 0.879115
O O6 0.893234 0.714040 0.787869
O O7 0.923406 0.655622 0.876390
O O8 0.250000 0.500000 0.367440
O O9 0.230468 0.586488 0.428533
O O10 0.997499 0.537025 0.402311
O O11 0.216883 0.315438 0.947561
O O12 0.000000 0.250000 0.929897
O O13 0.750000 0.500000 0.949964
O O14 0.555048 0.440155 0.913031
O O15 0.500000 0.500000 0.000000
O O16 0.952521 0.866571 0.971805
O O17 0.724521 0.877719 0.034428
#
# Coordination Sequence:
#
# PCOD9508841 Si02
#       8
#    16  16  16  16  16  16   4  16
#     4  10  22  42  71  95 126 168 223 279 335 392
#     4  11  24  43  66  98 129 171 224 279 330 396
#     4  11  22  43  65  94 129 174 220 268 331 404
#     4   9  21  41  64  92 126 166 214 262 330 396
#     4  12  22  37  62  92 128 174 217 266 323 393
#     4  11  24  39  62  92 134 173 208 263 325 396
#     4  12  24  44  70  88 136 180 228 290 350 404
#     4  12  25  38  62  97 132 171 219 265 325 395
#
# _framework density 20.469096
#
# number of rings (size 3 to 8) (size 9 to 14) (size 15 to 20)
#    0.000    1.103    2.759    3.724    5.793    3.586 
#    1.241    2.069    0.000    0.000    0.000    0.000 
#    0.000    0.000    0.000    0.000    0.000    0.000 
#
# Total GULP energy -323790.882518 kJ/mol
# GULP energy per Si atom -5582.601423 kJ/mol
# Density = 2.042251 g / cm^3
# Si number density = 20.469096 Si / 1000 Ang^3
#
#
#
# Elastic Constant Matrix: (Units=GPa)
#
#
# Indices 1 2 3 4 5 6 
#
# 1 84.6922 22.4246 -6.0101 0.0000 0.0000 0.0000
# 2 22.4246 81.4335 -0.6917 0.0000 0.0000 0.0000
# 3 -6.0101 -0.6917 30.8988 0.0000 0.0000 0.0000
# 4 0.0000 0.0000 0.0000 5.2750 0.0000 0.0000
# 5 0.0000 0.0000 0.0000 0.0000 23.6372 0.0000
# 6 0.0000 0.0000 0.0000 0.0000 0.0000 32.8016
#
#
#
# Elastic Compliance Matrix: (Units=1/GPa)
#
#
# Indices 1 2 3 4 5 6 
#
# 1 0.012916 -0.003536 0.002433 0.000000 0.000000 0.000000
# 2 -0.003536 0.013250 -0.000391 0.000000 0.000000 0.000000
# 3 0.002433 -0.000391 0.032828 0.000000 0.000000 0.000000
# 4 0.000000 0.000000 0.000000 0.189573 0.000000 0.000000
# 5 0.000000 0.000000 0.000000 0.000000 0.042306 0.000000
# 6 0.000000 0.000000 0.000000 0.000000 0.000000 0.030486
#
#
# Mechanical properties :
#
#
# Convention : Reuss Voigt Hill
#
# Bulk Modulus (GPa) = 17.85501 25.38558 21.62029
# Shear Modulus (GPa) = 14.57650 24.42955 19.50302
#
# Velocity S-wave (km/s) = 2.67146 3.45843 3.09010
# Velocity P-wave (km/s) = 4.27287 5.32696 4.82876
#
# Compressibility (1/GPa) = 0.05600670
#
# Stress axis : x y z
#
# Youngs Moduli (GPa) = 77.42076 75.46942 30.46162
#
# Poissons Ratio (x) = 0.26687 -0.07412
# Poissons Ratio (y) = 0.27377 0.01192
# Poissons Ratio (z) = -0.18838 0.02952
#
# Static dielectric constant tensor:
#      x y z
#    x 1.767060 0.000000 0.000000 
#    y 0.000000 1.770780 0.000000 
#    z 0.000000 0.000000 1.685200 
# 
# From -- ./inp_files/43530.got.cif
#   From: 2010.05.17/outbox.cif.g08.bks.cpg/sg68_22_cif.got.tgz:43530.got - 2010.06.03 18:57:09.
