data_PCOD9508651
_publ_section_title
;
Structure prediction by ZEFSAII (Michael W. Deem and Ramdas Pophale) SiO2 
 PCOD9508651
Probable space group: C C C A
;
_chemical_formula_sum "Si O2"
_cell_formula_units_Z 112
_cell_length_a 22.575633
_cell_length_b 14.391280
_cell_length_c 15.630907
_cell_angle_alpha 90.000000
_cell_angle_beta 90.000000
_cell_angle_gamma 90.000000
_cell_volume 5078.360634
_symmetry_space_group_name_H-M "C C C A"
_symmetry_group_IT_number 68
_space_group.IT_coordinate_system_code '2'
_symmetry_cell_setting 'orthorhombic'
loop_
_space_group_symop_operation_xyz
x,y,z
-x,1/2-y,z
x,1/2-y,1/2-z
-x,y,1/2-z
-x,-y,-z
x,1/2+y,-z
-x,1/2+y,1/2+z
x,-y,1/2+z
1/2+x,1/2+y,z
1/2-x,-y,z
1/2+x,-y,1/2-z
1/2-x,1/2+y,1/2-z
1/2-x,1/2-y,-z
1/2+x,y,-z
1/2-x,y,1/2+z
1/2+x,1/2-y,1/2+z
loop_
_atom_site_type_symbol
_atom_site_label
_atom_site_fract_x
_atom_site_fract_y
_atom_site_fract_z
Si Si1 0.125147 0.882279 0.461992
Si Si2 0.989939 0.137910 0.649351
Si Si3 0.851500 0.656494 0.802084
Si Si4 0.314035 0.019813 0.201838
Si Si5 0.099580 0.930652 0.059015
Si Si6 0.779596 0.825501 0.169205
Si Si7 0.569637 0.770338 0.063569
O O1 0.074871 0.878417 0.388624
O O2 0.180902 0.830713 0.416937
O O3 0.103518 0.825911 0.546323
O O4 0.124004 0.988620 0.496348
O O5 0.000000 0.250000 0.635755
O O6 0.000000 0.122561 0.750000
O O7 0.033320 0.066198 0.599227
O O8 0.850921 0.750000 0.750000
O O9 0.845733 0.571327 0.737714
O O10 0.789671 0.663510 0.854238
O O11 0.910312 0.666816 0.857148
O O12 0.250000 0.000000 0.159900
O O13 0.355776 0.073122 0.137565
O O14 0.298891 0.080877 0.283501
O O15 0.093456 0.832842 0.013249
O O16 0.785628 0.750000 0.250000
O O17 0.500000 0.750000 0.062996
#
# Coordination Sequence:
#
# PCOD9508651 Si02
#       7
#    16  16  16  16  16  16  16
#     4  12  23  39  64  96 131 167 214 272 331 388
#     4  11  23  40  64  91 127 173 222 267 322 384
#     4  10  23  45  64  93 129 174 222 265 322 398
#     4  10  22  42  66  96 128 168 221 273 324 393
#     4  12  23  41  63  94 132 168 209 273 331 383
#     4  10  22  40  69  95 128 168 221 275 323 387
#     4  12  25  42  63  90 136 169 213 273 326 383
#
# _framework density 22.054362000000001
#
# number of rings (size 3 to 8) (size 9 to 14) (size 15 to 20)
#    0.000    1.000    2.857    3.857    2.000    2.000 
#    0.000    0.000    0.000    0.000    0.000    0.000 
#    0.000    0.000    0.000    0.000    0.000    0.000 
#
# Total GULP energy -312130.906579 kJ/mol
# GULP energy per Si atom -5573.766189 kJ/mol
# Density = 2.200417 g / cm^3
# Si number density = 22.054362 Si / 1000 Ang^3
#
#
#
# Elastic Constant Matrix: (Units=GPa)
#
#
# Indices 1 2 3 4 5 6 
#
# 1 84.6297 3.9787 27.2764 0.0000 0.0000 0.0000
# 2 3.9787 85.3792 10.9075 0.0000 0.0000 0.0000
# 3 27.2764 10.9075 49.5149 0.0000 0.0000 0.0000
# 4 0.0000 0.0000 0.0000 -4.3202 0.0000 0.0000
# 5 0.0000 0.0000 0.0000 0.0000 18.4606 0.0000
# 6 0.0000 0.0000 0.0000 0.0000 0.0000 25.8195
#
#
#
# Elastic Compliance Matrix: (Units=1/GPa)
#
#
# Indices 1 2 3 4 5 6 
#
# 1 0.014377 0.000352 -0.007998 0.000000 0.000000 0.000000
# 2 0.000352 0.012060 -0.002850 0.000000 0.000000 0.000000
# 3 -0.007998 -0.002850 0.025229 0.000000 0.000000 0.000000
# 4 0.000000 0.000000 0.000000 -0.231472 0.000000 0.000000
# 5 0.000000 0.000000 0.000000 0.000000 0.054170 0.000000
# 6 0.000000 0.000000 0.000000 0.000000 0.000000 0.038730
#
#
# Mechanical properties :
#
#
# Convention : Reuss Voigt Hill
#
# Bulk Modulus (GPa) = 32.60042 33.76098 33.18070
# Shear Modulus (GPa) = -89.78586 19.81606 -34.98490
#
# Velocity S-wave (km/s) = -6.38745 3.00077 -3.98716
# Velocity P-wave (km/s) = 6.29170 5.22948 2.47366
#
# Compressibility (1/GPa) = 0.03067445
#
# Stress axis : x y z
#
# Youngs Moduli (GPa) = 69.55422 82.91721 39.63622
#
# Poissons Ratio (x) = -0.02916 0.31699
# Poissons Ratio (y) = -0.02446 0.11298
# Poissons Ratio (z) = 0.55626 0.23635
#
# Static dielectric constant tensor:
#      x y z
#    x 1.924920 0.000000 0.000000 
#    y 0.000000 1.817340 0.000000 
#    z 0.000000 0.000000 1.773600 
# 
# From -- ./inp_files/25447.got.cif
#   From: 2010.05.17/outbox.cif.g08.bks.cpg/sg68_13_cif.got.tgz:25447.got - 2010.06.03 18:57:09.
