data_PCOD9508527
_publ_section_title
;
Structure prediction by ZEFSAII (Michael W. Deem and Ramdas Pophale) SiO2 
 PCOD9508527
Probable space group: C C C A
;
_chemical_formula_sum "Si O2"
_cell_formula_units_Z 112
_cell_length_a 30.122605
_cell_length_b 14.489469
_cell_length_c 12.227934
_cell_angle_alpha 90.000000
_cell_angle_beta 90.000000
_cell_angle_gamma 90.000000
_cell_volume 5337.010815
_symmetry_space_group_name_H-M "C C C A"
_symmetry_group_IT_number 68
_space_group.IT_coordinate_system_code '2'
_symmetry_cell_setting 'orthorhombic'
loop_
_space_group_symop_operation_xyz
x,y,z
-x,1/2-y,z
x,1/2-y,1/2-z
-x,y,1/2-z
-x,-y,-z
x,1/2+y,-z
-x,1/2+y,1/2+z
x,-y,1/2+z
1/2+x,1/2+y,z
1/2-x,-y,z
1/2+x,-y,1/2-z
1/2-x,1/2+y,1/2-z
1/2-x,1/2-y,-z
1/2+x,y,-z
1/2-x,y,1/2+z
1/2+x,1/2-y,1/2+z
loop_
_atom_site_type_symbol
_atom_site_label
_atom_site_fract_x
_atom_site_fract_y
_atom_site_fract_z
Si Si1 0.400098 0.653037 0.004923
Si Si2 0.448424 0.146611 0.778759
Si Si3 0.117754 0.681150 0.147813
Si Si4 0.105221 0.024343 0.707008
Si Si5 0.707289 0.871042 0.538240
Si Si6 0.202654 0.974329 0.143922
Si Si7 0.698943 0.668482 0.466277
O O1 0.400580 0.755648 0.950693
O O2 0.402219 0.580117 0.905837
O O3 0.437750 0.636024 0.093104
O O4 0.351566 0.644329 0.063378
O O5 0.433511 0.250000 0.750000
O O6 0.500000 0.138012 0.750000
O O7 0.420929 0.069984 0.714109
O O8 0.120930 0.750000 0.250000
O O9 0.091960 0.591892 0.192511
O O10 0.166622 0.645504 0.117996
O O11 0.158261 0.008387 0.710637
O O12 0.699972 0.959556 0.463104
O O13 0.704877 0.778320 0.464260
O O14 0.756794 0.872401 0.588359
O O15 0.250000 0.000000 0.194807
O O16 0.202315 0.871452 0.091674
#
# Coordination Sequence:
#
# PCOD9508527 Si02
#       7
#    16  16  16  16  16  16  16
#     4   9  20  41  67  88 127 168 203 272 323 368
#     4  11  27  46  64  95 127 156 214 274 333 405
#     4   9  19  36  59  93 126 166 214 254 308 380
#     4  10  22  39  66  95 123 171 220 258 319 398
#     4   9  16  29  54  78 120 173 204 256 301 356
#     4   9  18  33  52  85 127 164 215 265 309 368
#     4   8  16  30  52  81 116 168 212 243 314 365
#
# _framework density 20.985530000000001
#
# number of rings (size 3 to 8) (size 9 to 14) (size 15 to 20)
#    0.000    2.714    0.000    0.857    8.000    0.571 
#    2.571    2.143    0.000    3.000    0.000    0.000 
#    0.000    0.000    0.000    0.000    0.000    0.000 
#
# Total GULP energy -312322.596360 kJ/mol
# GULP energy per Si atom -5577.189221 kJ/mol
# Density = 2.093777 g / cm^3
# Si number density = 20.985530 Si / 1000 Ang^3
#
#
#
# Elastic Constant Matrix: (Units=GPa)
#
#
# Indices 1 2 3 4 5 6 
#
# 1 90.2811 49.1772 42.4825 0.0000 0.0000 0.0000
# 2 49.1772 128.8022 22.9150 0.0000 0.0000 0.0000
# 3 42.4825 22.9150 40.7885 0.0000 0.0000 0.0000
# 4 0.0000 0.0000 0.0000 8.6565 0.0000 0.0000
# 5 0.0000 0.0000 0.0000 0.0000 26.0583 0.0000
# 6 0.0000 0.0000 0.0000 0.0000 0.0000 30.2059
#
#
#
# Elastic Compliance Matrix: (Units=1/GPa)
#
#
# Indices 1 2 3 4 5 6 
#
# 1 0.024686 -0.005390 -0.022684 0.000000 0.000000 0.000000
# 2 -0.005390 0.009803 0.000106 0.000000 0.000000 0.000000
# 3 -0.022684 0.000106 0.048083 0.000000 0.000000 0.000000
# 4 0.000000 0.000000 0.000000 0.115520 0.000000 0.000000
# 5 0.000000 0.000000 0.000000 0.000000 0.038376 0.000000
# 6 0.000000 0.000000 0.000000 0.000000 0.000000 0.033106
#
#
# Mechanical properties :
#
#
# Convention : Reuss Voigt Hill
#
# Bulk Modulus (GPa) = 37.54070 54.33570 45.93820
# Shear Modulus (GPa) = 14.95278 22.67063 18.81171
#
# Velocity S-wave (km/s) = 2.67222 3.29035 2.99726
# Velocity P-wave (km/s) = 5.23915 6.35480 5.82375
#
# Compressibility (1/GPa) = 0.02663776
#
# Stress axis : x y z
#
# Youngs Moduli (GPa) = 40.50828 102.01236 20.79757
#
# Poissons Ratio (x) = 0.54982 0.47176
# Poissons Ratio (y) = 0.21833 -0.00221
# Poissons Ratio (z) = 0.91887 -0.01086
#
# Static dielectric constant tensor:
#      x y z
#    x 1.759220 0.000000 0.000000 
#    y 0.000000 1.772590 0.000000 
#    z 0.000000 0.000000 1.771370 
# 
# From -- ./inp_files/17777.got.cif
#   From: 2010.05.17/outbox.cif.g08.bks.cpg/sg68_9_cif.got.tgz:17777.got - 2010.06.03 18:57:09.
