data_PCOD9508132
_publ_section_title
;
Structure prediction by ZEFSAII (Michael W. Deem and Ramdas Pophale) SiO2 
 PCOD9508132
Probable space group: C C C A
;
_chemical_formula_sum "Si O2"
_cell_formula_units_Z 64
_cell_length_a 9.780828
_cell_length_b 18.057533
_cell_length_c 18.290218
_cell_angle_alpha 90.000000
_cell_angle_beta 90.000000
_cell_angle_gamma 90.000000
_cell_volume 3230.374853
_symmetry_space_group_name_H-M "C C C A"
_symmetry_group_IT_number 68
_space_group.IT_coordinate_system_code '2'
_symmetry_cell_setting 'orthorhombic'
loop_
_space_group_symop_operation_xyz
x,y,z
-x,1/2-y,z
x,1/2-y,1/2-z
-x,y,1/2-z
-x,-y,-z
x,1/2+y,-z
-x,1/2+y,1/2+z
x,-y,1/2+z
1/2+x,1/2+y,z
1/2-x,-y,z
1/2+x,-y,1/2-z
1/2-x,1/2+y,1/2-z
1/2-x,1/2-y,-z
1/2+x,y,-z
1/2-x,y,1/2+z
1/2+x,1/2-y,1/2+z
loop_
_atom_site_type_symbol
_atom_site_label
_atom_site_fract_x
_atom_site_fract_y
_atom_site_fract_z
Si Si1 0.847771 0.663215 0.732816
Si Si2 0.752104 0.908838 0.918825
Si Si3 0.859608 0.060116 0.704924
Si Si4 0.044506 0.927032 0.456582
O O1 0.855116 0.750000 0.750000
O O2 0.807708 0.633946 0.652093
O O3 0.725285 0.634560 0.783721
O O4 0.000000 0.632254 0.750000
O O5 0.596266 0.886151 0.936528
O O6 0.750000 0.000000 0.907814
O O7 0.846928 0.891017 0.988640
O O8 0.890457 0.049488 0.620049
O O9 0.000000 0.058689 0.750000
O O10 0.750000 0.000000 0.731770
O O11 0.000000 0.000000 0.500000
#
# Coordination Sequence:
#
# PCOD9508132 Si02
#       4
#    16  16  16  16
#     4  11  26  44  66  92 136 179 227 275 326 393
#     4  10  21  41  66 100 129 172 217 273 339 395
#     4  12  24  40  68 101 130 173 221 277 336 394
#     4  10  22  38  62 102 134 163 210 275 337 395
#
# _framework density 19.811941000000001
#
# number of rings (size 3 to 8) (size 9 to 14) (size 15 to 20)
#    0.000    1.250    2.500    3.750   14.000    0.500 
#    0.000    1.250    0.000    0.000    0.000    0.000 
#    0.000    0.000    0.000    0.000    0.000    0.000 
#
# Total GULP energy -178530.156803 kJ/mol
# GULP energy per Si atom -5579.067400 kJ/mol
# Density = 1.976685 g / cm^3
# Si number density = 19.811941 Si / 1000 Ang^3
#
#
#
# Elastic Constant Matrix: (Units=GPa)
#
#
# Indices 1 2 3 4 5 6 
#
# 1 183.0022 38.3897 64.0751 0.0000 0.0000 0.0000
# 2 38.3897 56.1261 25.3042 0.0000 0.0000 0.0000
# 3 64.0751 25.3042 152.2299 0.0000 0.0000 0.0000
# 4 0.0000 0.0000 0.0000 11.1439 0.0000 0.0000
# 5 0.0000 0.0000 0.0000 0.0000 50.1036 0.0000
# 6 0.0000 0.0000 0.0000 0.0000 0.0000 2.8560
#
#
#
# Elastic Compliance Matrix: (Units=1/GPa)
#
#
# Indices 1 2 3 4 5 6 
#
# 1 0.007082 -0.003783 -0.002352 0.000000 0.000000 0.000000
# 2 -0.003783 0.021282 -0.001945 0.000000 0.000000 0.000000
# 3 -0.002352 -0.001945 0.007882 0.000000 0.000000 0.000000
# 4 0.000000 0.000000 0.000000 0.089735 0.000000 0.000000
# 5 0.000000 0.000000 0.000000 0.000000 0.019959 0.000000
# 6 0.000000 0.000000 0.000000 0.000000 0.000000 0.350137
#
#
# Mechanical properties :
#
#
# Convention : Reuss Voigt Hill
#
# Bulk Modulus (GPa) = 49.78839 71.87735 60.83287
# Shear Modulus (GPa) = 9.63518 30.39332 20.01425
#
# Velocity S-wave (km/s) = 2.20769 3.92100 3.18183
# Velocity P-wave (km/s) = 5.62881 7.54039 6.65361
#
# Compressibility (1/GPa) = 0.02008500
#
# Stress axis : x y z
#
# Youngs Moduli (GPa) = 141.21241 46.98858 126.86776
#
# Poissons Ratio (x) = 0.17778 0.29837
# Poissons Ratio (y) = 0.53426 0.24676
# Poissons Ratio (z) = 0.33210 0.09140
#
# Static dielectric constant tensor:
#      x y z
#    x 1.772580 0.000000 0.000000 
#    y 0.000000 1.716490 0.000000 
#    z 0.000000 0.000000 1.694100 
# 
# From -- ./inp_files/35768.got.cif
#   From: 2010.05.17/outbox.cif.g08.bks.cpg/sg68_18_cif.got.tgz:35768.got - 2010.06.03 18:57:09.
