data_PCOD9508996
_publ_section_title
;
Structure prediction by ZEFSAII (Michael W. Deem and Ramdas Pophale) SiO2 
 PCOD9508996
Probable space group: C C C A
;
_chemical_formula_sum "Si O2"
_cell_formula_units_Z 72
_cell_length_a 13.469209
_cell_length_b 27.937555
_cell_length_c 9.258503
_cell_angle_alpha 90.000000
_cell_angle_beta 90.000000
_cell_angle_gamma 90.000000
_cell_volume 3483.944748
_symmetry_space_group_name_H-M "C C C A"
_symmetry_group_IT_number 68
_space_group.IT_coordinate_system_code '2'
_symmetry_cell_setting 'orthorhombic'
loop_
_space_group_symop_operation_xyz
x,y,z
-x,1/2-y,z
x,1/2-y,1/2-z
-x,y,1/2-z
-x,-y,-z
x,1/2+y,-z
-x,1/2+y,1/2+z
x,-y,1/2+z
1/2+x,1/2+y,z
1/2-x,-y,z
1/2+x,-y,1/2-z
1/2-x,1/2+y,1/2-z
1/2-x,1/2-y,-z
1/2+x,y,-z
1/2-x,y,1/2+z
1/2+x,1/2-y,1/2+z
loop_
_atom_site_type_symbol
_atom_site_label
_atom_site_fract_x
_atom_site_fract_y
_atom_site_fract_z
Si Si1 0.788036 0.715826 0.124525
Si Si2 0.488857 0.806791 0.581212
Si Si3 0.750000 0.000000 0.508228
Si Si4 0.383448 0.953090 0.242512
Si Si5 0.098127 0.842193 0.675122
O O1 0.831417 0.750000 0.250000
O O2 0.872724 0.682575 0.056060
O O3 0.697385 0.687586 0.193008
O O4 0.750000 0.750000 0.000000
O O5 0.500000 0.750000 0.544855
O O6 0.500000 0.815156 0.750000
O O7 0.566272 0.837902 0.492380
O O8 0.675188 0.972220 0.399232
O O9 0.820118 0.969225 0.616961
O O10 0.500000 0.969251 0.250000
O O11 0.387353 0.895688 0.229255
O O12 0.000000 0.820525 0.750000
#
# Coordination Sequence:
#
# PCOD9508996 Si02
#       5
#    16  16   8  16  16
#     4  12  22  35  58  81 116 168 210 254 312 363
#     4  11  21  39  56  82 120 166 220 262 314 375
#     4  10  22  44  76  96 136 168 216 272 346 412
#     4  10  23  44  68 103 133 172 216 271 341 405
#     4  11  25  39  60  92 129 163 220 269 317 388
#
# _framework density 20.666229999999999
#
# number of rings (size 3 to 8) (size 9 to 14) (size 15 to 20)
#    0.000    1.111    4.444    2.000    0.000    7.111 
#    0.000    5.556    0.000    0.000    0.000    0.000 
#    0.000    0.000    0.000    0.000    0.000    0.000 
#
# Total GULP energy -200950.080455 kJ/mol
# GULP energy per Si atom -5581.946679 kJ/mol
# Density = 2.061919 g / cm^3
# Si number density = 20.666230 Si / 1000 Ang^3
#
#
#
# Elastic Constant Matrix: (Units=GPa)
#
#
# Indices 1 2 3 4 5 6 
#
# 1 157.6466 41.7322 27.8154 0.0000 0.0000 0.0000
# 2 41.7322 49.4420 21.7887 0.0000 0.0000 0.0000
# 3 27.8154 21.7887 97.8981 0.0000 0.0000 0.0000
# 4 0.0000 0.0000 0.0000 18.6398 0.0000 0.0000
# 5 0.0000 0.0000 0.0000 0.0000 38.3551 0.0000
# 6 0.0000 0.0000 0.0000 0.0000 0.0000 30.1850
#
#
#
# Elastic Compliance Matrix: (Units=1/GPa)
#
#
# Indices 1 2 3 4 5 6 
#
# 1 0.008236 -0.006564 -0.000879 0.000000 0.000000 0.000000
# 2 -0.006564 0.027657 -0.004290 0.000000 0.000000 0.000000
# 3 -0.000879 -0.004290 0.011419 0.000000 0.000000 0.000000
# 4 0.000000 0.000000 0.000000 0.053649 0.000000 0.000000
# 5 0.000000 0.000000 0.000000 0.000000 0.026072 0.000000
# 6 0.000000 0.000000 0.000000 0.000000 0.000000 0.033129
#
#
# Mechanical properties :
#
#
# Convention : Reuss Voigt Hill
#
# Bulk Modulus (GPa) = 41.93765 54.18436 48.06100
# Shear Modulus (GPa) = 26.09893 31.67935 28.88914
#
# Velocity S-wave (km/s) = 3.55755 3.91948 3.74289
# Velocity P-wave (km/s) = 6.10015 6.83804 6.47961
#
# Compressibility (1/GPa) = 0.02384492
#
# Stress axis : x y z
#
# Youngs Moduli (GPa) = 121.41602 36.15688 87.57052
#
# Poissons Ratio (x) = 0.23735 0.07698
# Poissons Ratio (y) = 0.79703 0.37571
# Poissons Ratio (z) = 0.10674 0.15513
#
# Static dielectric constant tensor:
#      x y z
#    x 1.836420 0.000000 0.000000 
#    y 0.000000 1.703580 0.000000 
#    z 0.000000 0.000000 2.126910 
# 
# From -- ./inp_files/5316.got.cif
#   From: 2010.05.17/outbox.cif.g08.bks.cpg/sg68_3_cif.got.tgz:5316.got - 2010.06.03 18:57:09.
