data_PCOD9508820
_publ_section_title
;
Structure prediction by ZEFSAII (Michael W. Deem and Ramdas Pophale) SiO2 
 PCOD9508820
Probable space group: C C C A
;
_chemical_formula_sum "Si O2"
_cell_formula_units_Z 80
_cell_length_a 14.822665
_cell_length_b 18.389555
_cell_length_c 14.734555
_cell_angle_alpha 90.000000
_cell_angle_beta 90.000000
_cell_angle_gamma 90.000000
_cell_volume 4016.377613
_symmetry_space_group_name_H-M "C C C A"
_symmetry_group_IT_number 68
_space_group.IT_coordinate_system_code '2'
_symmetry_cell_setting 'orthorhombic'
loop_
_space_group_symop_operation_xyz
x,y,z
-x,1/2-y,z
x,1/2-y,1/2-z
-x,y,1/2-z
-x,-y,-z
x,1/2+y,-z
-x,1/2+y,1/2+z
x,-y,1/2+z
1/2+x,1/2+y,z
1/2-x,-y,z
1/2+x,-y,1/2-z
1/2-x,1/2+y,1/2-z
1/2-x,1/2-y,-z
1/2+x,y,-z
1/2-x,y,1/2+z
1/2+x,1/2-y,1/2+z
loop_
_atom_site_type_symbol
_atom_site_label
_atom_site_fract_x
_atom_site_fract_y
_atom_site_fract_z
Si Si1 0.913228 0.702023 0.879112
Si Si2 0.970186 0.583220 0.009305
Si Si3 0.213278 0.581872 0.377628
Si Si4 0.733616 0.176615 0.207218
Si Si5 0.652424 0.671853 0.991903
O O1 0.840948 0.687039 0.801702
O O2 0.870458 0.750542 0.961800
O O3 0.000000 0.750000 0.853142
O O4 0.938044 0.622820 0.917389
O O5 0.886072 0.587484 0.078215
O O6 0.000000 0.500000 0.000000
O O7 0.059133 0.630371 0.029632
O O8 0.250000 0.500000 0.381350
O O9 0.211573 0.611641 0.275063
O O10 0.284163 0.630207 0.435801
O O11 0.693993 0.250000 0.250000
O O12 0.701321 0.172487 0.104312
#
# Coordination Sequence:
#
# PCOD9508820 Si02
#       5
#    16  16  16  16  16
#     4  10  22  42  69 100 129 183 237 277 346 420
#     4  11  23  42  71  96 133 186 230 279 344 421
#     4  12  25  43  68 102 137 180 234 279 354 426
#     4  12  24  41  70 100 136 175 226 291 342 411
#     4  11  23  46  70  94 136 184 226 288 349 415
#
# _framework density 19.918444999999998
#
# number of rings (size 3 to 8) (size 9 to 14) (size 15 to 20)
#    0.000    0.800    6.000    1.800    0.000    3.600 
#    0.000    1.000    0.000    0.000    0.000    0.000 
#    0.000    0.000    0.000    0.000    0.000    0.000 
#
# Total GULP energy -223410.954412 kJ/mol
# GULP energy per Si atom -5585.273860 kJ/mol
# Density = 1.987311 g / cm^3
# Si number density = 19.918445 Si / 1000 Ang^3
#
#
#
# Elastic Constant Matrix: (Units=GPa)
#
#
# Indices 1 2 3 4 5 6 
#
# 1 118.0269 21.5279 21.2921 0.0000 0.0000 0.0000
# 2 21.5279 107.2146 13.3978 0.0000 0.0000 0.0000
# 3 21.2921 13.3978 67.1541 0.0000 0.0000 0.0000
# 4 0.0000 0.0000 0.0000 19.2431 0.0000 0.0000
# 5 0.0000 0.0000 0.0000 0.0000 -3.3587 0.0000
# 6 0.0000 0.0000 0.0000 0.0000 0.0000 24.8452
#
#
#
# Elastic Compliance Matrix: (Units=1/GPa)
#
#
# Indices 1 2 3 4 5 6 
#
# 1 0.009223 -0.001525 -0.002620 0.000000 0.000000 0.000000
# 2 -0.001525 0.009818 -0.001475 0.000000 0.000000 0.000000
# 3 -0.002620 -0.001475 0.016016 0.000000 0.000000 0.000000
# 4 0.000000 0.000000 0.000000 0.051967 0.000000 0.000000
# 5 0.000000 0.000000 0.000000 0.000000 -0.297734 0.000000
# 6 0.000000 0.000000 0.000000 0.000000 0.000000 0.040249
#
#
# Mechanical properties :
#
#
# Convention : Reuss Voigt Hill
#
# Bulk Modulus (GPa) = 41.98679 44.98122 43.48401
# Shear Modulus (GPa) = -33.05093 23.89111 -4.57991
#
# Velocity S-wave (km/s) = -4.07789 3.46706 -1.51800
# Velocity P-wave (km/s) = 1.02327 6.21764 4.33659
#
# Compressibility (1/GPa) = 0.02381701
#
# Stress axis : x y z
#
# Youngs Moduli (GPa) = 108.41970 101.85821 62.43668
#
# Poissons Ratio (x) = 0.15529 0.16360
# Poissons Ratio (y) = 0.16529 0.09211
# Poissons Ratio (z) = 0.28409 0.15027
#
# Static dielectric constant tensor:
#      x y z
#    x 1.783770 0.000000 0.000000 
#    y 0.000000 1.697020 0.000000 
#    z 0.000000 0.000000 1.707830 
# 
# From -- ./inp_files/22165.got.cif
#   From: 2010.05.17/outbox.cif.g08.bks.cpg/sg68_12_cif.got.tgz:22165.got - 2010.06.03 18:57:09.
