data_PCOD9508103
_publ_section_title
;
Structure prediction by ZEFSAII (Michael W. Deem and Ramdas Pophale) SiO2 
 PCOD9508103
Probable space group: C C C A
;
_chemical_formula_sum "Si O2"
_cell_formula_units_Z 108
_cell_length_a 14.685152
_cell_length_b 10.683794
_cell_length_c 30.848913
_cell_angle_alpha 90.000000
_cell_angle_beta 90.000000
_cell_angle_gamma 90.000000
_cell_volume 4839.982790
_symmetry_space_group_name_H-M "C C C A"
_symmetry_group_IT_number 68
_space_group.IT_coordinate_system_code '2'
_symmetry_cell_setting 'orthorhombic'
loop_
_space_group_symop_operation_xyz
x,y,z
-x,1/2-y,z
x,1/2-y,1/2-z
-x,y,1/2-z
-x,-y,-z
x,1/2+y,-z
-x,1/2+y,1/2+z
x,-y,1/2+z
1/2+x,1/2+y,z
1/2-x,-y,z
1/2+x,-y,1/2-z
1/2-x,1/2+y,1/2-z
1/2-x,1/2-y,-z
1/2+x,y,-z
1/2-x,y,1/2+z
1/2+x,1/2-y,1/2+z
loop_
_atom_site_type_symbol
_atom_site_label
_atom_site_fract_x
_atom_site_fract_y
_atom_site_fract_z
Si Si1 0.082159 0.938179 0.924490
Si Si2 0.500000 0.750000 0.138246
Si Si3 0.358592 0.203495 0.182883
Si Si4 0.357597 0.248979 0.698967
Si Si5 0.500000 0.750000 0.750000
Si Si6 0.069799 0.365566 0.907771
Si Si7 0.647623 0.015927 0.161612
Si Si8 0.307972 0.873732 0.510225
O O1 0.066590 0.814827 0.896638
O O2 0.144576 0.016217 0.890793
O O3 0.123273 0.906875 0.970726
O O4 0.987590 0.013306 0.922576
O O5 0.570972 0.673485 0.169149
O O6 0.248871 0.209899 0.191268
O O7 0.427298 0.168038 0.221677
O O8 0.382703 0.129834 0.139139
O O9 0.386915 0.349752 0.175835
O O10 0.372586 0.250000 0.750000
O O11 0.388446 0.388416 0.682497
O O12 0.141510 0.343484 0.945362
O O13 0.000000 0.250000 0.906444
O O14 0.750000 0.000000 0.176552
O O15 0.250000 0.750000 0.500000
O O16 0.250000 0.000000 0.515794
#
# Coordination Sequence:
#
# PCOD9508103 Si02
#       8
#    16   8  16  16   4  16  16  16
#     4  11  23  44  69  99 139 188 237 302 378 442
#     4  10  25  40  71  94 140 187 240 305 368 450
#     4  11  22  41  68 101 139 186 244 306 378 450
#     4  10  21  41  62  97 139 188 240 303 369 456
#     4  12  20  40  66  98 138 178 240 296 376 438
#     4  12  25  44  71 104 143 187 245 310 376 450
#     4   9  19  37  66  91 129 182 235 290 366 439
#     4  12  30  47  76 108 148 197 253 314 379 467
#
# _framework density 22.314128
#
# number of rings (size 3 to 8) (size 9 to 14) (size 15 to 20)
#    0.000    1.185    2.963    2.000    9.333    0.000 
#    8.000    0.000    0.000    0.000    0.000    0.000 
#    0.000    0.000    0.000    0.000    0.000    0.000 
#
# Total GULP energy -300847.666476 kJ/mol
# GULP energy per Si atom -5571.253083 kJ/mol
# Density = 2.226334 g / cm^3
# Si number density = 22.314128 Si / 1000 Ang^3
#
#
#
# Elastic Constant Matrix: (Units=GPa)
#
#
# Indices 1 2 3 4 5 6 
#
# 1 128.1052 9.5044 48.8546 0.0000 0.0000 0.0000
# 2 9.5044 46.3780 9.4382 0.0000 0.0000 0.0000
# 3 48.8546 9.4382 153.1016 0.0000 0.0000 0.0000
# 4 0.0000 0.0000 0.0000 16.3120 0.0000 0.0000
# 5 0.0000 0.0000 0.0000 0.0000 35.4690 0.0000
# 6 0.0000 0.0000 0.0000 0.0000 0.0000 33.7166
#
#
#
# Elastic Compliance Matrix: (Units=1/GPa)
#
#
# Indices 1 2 3 4 5 6 
#
# 1 0.008961 -0.001270 -0.002781 0.000000 0.000000 0.000000
# 2 -0.001270 0.022016 -0.000952 0.000000 0.000000 0.000000
# 3 -0.002781 -0.000952 0.007478 0.000000 0.000000 0.000000
# 4 0.000000 0.000000 0.000000 0.061305 0.000000 0.000000
# 5 0.000000 0.000000 0.000000 0.000000 0.028194 0.000000
# 6 0.000000 0.000000 0.000000 0.000000 0.000000 0.029659
#
#
# Mechanical properties :
#
#
# Convention : Reuss Voigt Hill
#
# Bulk Modulus (GPa) = 35.15189 51.46436 43.30813
# Shear Modulus (GPa) = 28.23240 34.41868 31.32554
#
# Velocity S-wave (km/s) = 3.56086 3.93168 3.75085
# Velocity P-wave (km/s) = 5.71784 6.61245 6.18135
#
# Compressibility (1/GPa) = 0.02844797
#
# Stress axis : x y z
#
# Youngs Moduli (GPa) = 111.59518 45.42151 133.73025
#
# Poissons Ratio (x) = 0.05770 0.37192
# Poissons Ratio (y) = 0.14177 0.12729
# Poissons Ratio (z) = 0.31036 0.04323
#
# Static dielectric constant tensor:
#      x y z
#    x 1.945620 0.000000 0.000000 
#    y 0.000000 2.299390 0.000000 
#    z 0.000000 0.000000 1.881040 
# 
# From -- ./inp_files/55307.got.cif
#   From: 2010.05.17/outbox.cif.g08.bks.cpg/sg68_28_cif.got.tgz:55307.got - 2010.06.03 18:57:09.
