data_PCOD9508007
_publ_section_title
;
Structure prediction by ZEFSAII (Michael W. Deem and Ramdas Pophale) SiO2 
 PCOD9508007
Probable space group: C C C A
;
_chemical_formula_sum "Si O2"
_cell_formula_units_Z 108
_cell_length_a 16.332066
_cell_length_b 31.144454
_cell_length_c 10.574575
_cell_angle_alpha 90.000000
_cell_angle_beta 90.000000
_cell_angle_gamma 90.000000
_cell_volume 5378.792240
_symmetry_space_group_name_H-M "C C C A"
_symmetry_group_IT_number 68
_space_group.IT_coordinate_system_code '2'
_symmetry_cell_setting 'orthorhombic'
loop_
_space_group_symop_operation_xyz
x,y,z
-x,1/2-y,z
x,1/2-y,1/2-z
-x,y,1/2-z
-x,-y,-z
x,1/2+y,-z
-x,1/2+y,1/2+z
x,-y,1/2+z
1/2+x,1/2+y,z
1/2-x,-y,z
1/2+x,-y,1/2-z
1/2-x,1/2+y,1/2-z
1/2-x,1/2-y,-z
1/2+x,y,-z
1/2-x,y,1/2+z
1/2+x,1/2-y,1/2+z
loop_
_atom_site_type_symbol
_atom_site_label
_atom_site_fract_x
_atom_site_fract_y
_atom_site_fract_z
Si Si1 0.500000 0.250000 0.250000
Si Si2 0.407457 0.980173 0.202460
Si Si3 0.864156 0.712483 0.420367
Si Si4 0.775563 0.877620 0.033032
Si Si5 0.164701 0.525811 0.063134
Si Si6 0.670201 0.112542 0.769537
Si Si7 0.087225 0.804901 0.691861
Si Si8 0.766462 0.250000 0.250000
O O1 0.440499 0.219514 0.329492
O O2 0.500000 0.974277 0.250000
O O3 0.357075 0.936398 0.224208
O O4 0.368862 0.014676 0.298194
O O5 0.394197 0.988824 0.052993
O O6 0.826298 0.664704 0.426966
O O7 0.899933 0.718938 0.559440
O O8 0.794585 0.745241 0.369162
O O9 0.821117 0.923035 0.055195
O O10 0.699231 0.878721 0.127509
O O11 0.763029 0.877302 0.880548
O O12 0.250000 0.500000 0.045099
O O13 0.596772 0.143850 0.811663
O O14 0.170861 0.789572 0.759575
O O15 0.000000 0.795006 0.750000
#
# Coordination Sequence:
#
# PCOD9508007 Si02
#       8
#     4  16  16  16  16  16  16   8
#     4  10  24  44  68  88 130 168 198 270 328 362
#     4  11  23  39  61  91 129 160 205 259 318 362
#     4  10  23  44  62  92 127 163 208 255 320 377
#     4  10  21  40  63  90 122 163 219 254 307 379
#     4  11  22  38  65  90 122 167 213 257 300 374
#     4  10  21  40  63  89 123 166 204 262 310 369
#     4  11  23  39  63  96 124 158 209 257 311 375
#     4  11  21  39  67  90 122 164 203 253 309 377
#
# _framework density 20.078858
#
# number of rings (size 3 to 8) (size 9 to 14) (size 15 to 20)
#    0.000    1.481    2.963    2.000    4.148    0.000 
#    4.000    0.000    0.000    0.000    0.000    0.000 
#    0.000    0.000    0.000    0.000    0.000    0.000 
#
# Total GULP energy -300908.881561 kJ/mol
# GULP energy per Si atom -5572.386696 kJ/mol
# Density = 2.003316 g / cm^3
# Si number density = 20.078858 Si / 1000 Ang^3
#
#
#
# Elastic Constant Matrix: (Units=GPa)
#
#
# Indices 1 2 3 4 5 6 
#
# 1 88.3070 -7.6004 37.8957 0.0000 0.0000 0.0000
# 2 -7.6004 59.9121 0.4574 0.0000 0.0000 0.0000
# 3 37.8957 0.4574 89.8786 0.0000 0.0000 0.0000
# 4 0.0000 0.0000 0.0000 25.7244 0.0000 0.0000
# 5 0.0000 0.0000 0.0000 0.0000 26.6826 0.0000
# 6 0.0000 0.0000 0.0000 0.0000 0.0000 12.2053
#
#
#
# Elastic Compliance Matrix: (Units=1/GPa)
#
#
# Indices 1 2 3 4 5 6 
#
# 1 0.014022 0.001824 -0.005922 0.000000 0.000000 0.000000
# 2 0.001824 0.016929 -0.000855 0.000000 0.000000 0.000000
# 3 -0.005922 -0.000855 0.013627 0.000000 0.000000 0.000000
# 4 0.000000 0.000000 0.000000 0.038874 0.000000 0.000000
# 5 0.000000 0.000000 0.000000 0.000000 0.037478 0.000000
# 6 0.000000 0.000000 0.000000 0.000000 0.000000 0.081932
#
#
# Mechanical properties :
#
#
# Convention : Reuss Voigt Hill
#
# Bulk Modulus (GPa) = 28.84080 33.28922 31.06501
# Shear Modulus (GPa) = 22.28913 26.74546 24.51729
#
# Velocity S-wave (km/s) = 3.33540 3.65365 3.49814
# Velocity P-wave (km/s) = 5.40631 5.86635 5.64102
#
# Compressibility (1/GPa) = 0.03467310
#
# Stress axis : x y z
#
# Youngs Moduli (GPa) = 71.31522 59.07010 73.38280
#
# Poissons Ratio (x) = -0.10775 0.43454
# Poissons Ratio (y) = -0.13008 0.06276
# Poissons Ratio (z) = 0.42229 0.05052
#
# Static dielectric constant tensor:
#      x y z
#    x 1.707760 0.000000 0.000000 
#    y 0.000000 1.758860 0.000000 
#    z 0.000000 0.000000 1.777240 
# 
# From -- ./inp_files/13641.got.cif
#   From: 2010.05.17/outbox.cif.g08.bks.cpg/sg68_7_cif.got.tgz:13641.got - 2010.06.03 18:57:09.
