data_PCOD9508537
_publ_section_title
;
Structure prediction by ZEFSAII (Michael W. Deem and Ramdas Pophale) SiO2 
 PCOD9508537
Probable space group: C C C A
;
_chemical_formula_sum "Si O2"
_cell_formula_units_Z 72
_cell_length_a 9.372198
_cell_length_b 13.185636
_cell_length_c 26.860370
_cell_angle_alpha 90.000000
_cell_angle_beta 90.000000
_cell_angle_gamma 90.000000
_cell_volume 3319.361316
_symmetry_space_group_name_H-M "C C C A"
_symmetry_group_IT_number 68
_space_group.IT_coordinate_system_code '2'
_symmetry_cell_setting 'orthorhombic'
loop_
_space_group_symop_operation_xyz
x,y,z
-x,1/2-y,z
x,1/2-y,1/2-z
-x,y,1/2-z
-x,-y,-z
x,1/2+y,-z
-x,1/2+y,1/2+z
x,-y,1/2+z
1/2+x,1/2+y,z
1/2-x,-y,z
1/2+x,-y,1/2-z
1/2-x,1/2+y,1/2-z
1/2-x,1/2-y,-z
1/2+x,y,-z
1/2-x,y,1/2+z
1/2+x,1/2-y,1/2+z
loop_
_atom_site_type_symbol
_atom_site_label
_atom_site_fract_x
_atom_site_fract_y
_atom_site_fract_z
Si Si1 0.025743 0.479847 0.357320
Si Si2 0.761543 0.750000 0.750000
Si Si3 0.500000 0.078612 0.750000
Si Si4 0.843060 0.206392 0.544249
Si Si5 0.786939 0.674092 0.141866
Si Si6 0.250000 0.000000 0.421341
O O1 0.100464 0.585461 0.371796
O O2 0.135089 0.384991 0.360601
O O3 0.004313 0.489324 0.298439
O O4 0.880326 0.462333 0.386656
O O5 0.864728 0.847321 0.742995
O O6 0.688789 0.776724 0.803243
O O7 0.750000 0.250000 0.500000
O O8 0.794069 0.243597 0.598814
O O9 0.000000 0.250000 0.537066
O O10 0.820886 0.086500 0.545221
#
# Coordination Sequence:
#
# PCOD9508537 Si02
#       6
#    16   8   8  16  16   8
#     4  10  22  39  69 100 142 190 231 294 345 430
#     4   9  18  36  67  94 138 189 225 290 338 421
#     4   9  18  34  58  99 136 188 238 263 356 411
#     4  12  29  50  73 105 137 182 236 293 360 431
#     4  10  22  45  68 103 144 182 241 285 356 423
#     4  12  26  46  74 102 142 180 234 302 358 424
#
# _framework density 21.690919999999998
#
# number of rings (size 3 to 8) (size 9 to 14) (size 15 to 20)
#    0.000    1.556    2.222    1.333    3.111    9.778 
#    0.000    0.000    0.000    1.333    0.000    0.000 
#    0.000    0.000    0.000    0.000    0.000    0.000 
#
# Total GULP energy -201169.883130 kJ/mol
# GULP energy per Si atom -5588.052309 kJ/mol
# Density = 2.164155 g / cm^3
# Si number density = 21.690920 Si / 1000 Ang^3
#
#
#
# Elastic Constant Matrix: (Units=GPa)
#
#
# Indices 1 2 3 4 5 6 
#
# 1 123.5064 36.7665 47.2253 0.0000 0.0000 0.0000
# 2 36.7665 97.4581 33.4953 0.0000 0.0000 0.0000
# 3 47.2253 33.4953 88.7336 0.0000 0.0000 0.0000
# 4 0.0000 0.0000 0.0000 -101.6576 0.0000 0.0000
# 5 0.0000 0.0000 0.0000 0.0000 2.4235 0.0000
# 6 0.0000 0.0000 0.0000 0.0000 0.0000 12.7350
#
#
#
# Elastic Compliance Matrix: (Units=1/GPa)
#
#
# Indices 1 2 3 4 5 6 
#
# 1 0.010622 -0.002372 -0.004758 0.000000 0.000000 0.000000
# 2 -0.002372 0.012320 -0.003388 0.000000 0.000000 0.000000
# 3 -0.004758 -0.003388 0.015081 0.000000 0.000000 0.000000
# 4 0.000000 0.000000 0.000000 -0.009837 0.000000 0.000000
# 5 0.000000 0.000000 0.000000 0.000000 0.412622 0.000000
# 6 0.000000 0.000000 0.000000 0.000000 0.000000 0.078523
#
#
# Mechanical properties :
#
#
# Convention : Reuss Voigt Hill
#
# Bulk Modulus (GPa) = 58.86856 60.51914 59.69385
# Shear Modulus (GPa) = 9.15701 -4.48575 2.33563
#
# Velocity S-wave (km/s) = 2.05688 -1.43963 1.03880
# Velocity P-wave (km/s) = 5.73059 5.01975 5.38691
#
# Compressibility (1/GPa) = 0.01698700
#
# Stress axis : x y z
#
# Youngs Moduli (GPa) = 94.14295 81.16768 66.30916
#
# Poissons Ratio (x) = 0.19253 0.31549
# Poissons Ratio (y) = 0.22331 0.22467
# Poissons Ratio (z) = 0.44792 0.27501
#
# Static dielectric constant tensor:
#      x y z
#    x 1.801820 0.000000 0.000000 
#    y 0.000000 1.792510 0.000000 
#    z 0.000000 0.000000 1.760710 
# 
# From -- ./inp_files/49004.got.cif
#   From: 2010.05.17/outbox.cif.g08.bks.cpg/sg68_25_cif.got.tgz:49004.got - 2010.06.03 18:57:09.
