data_PCOD9508183
_publ_section_title
;
Structure prediction by ZEFSAII (Michael W. Deem and Ramdas Pophale) SiO2 
 PCOD9508183
Probable space group: C C C A
;
_chemical_formula_sum "Si O2"
_cell_formula_units_Z 120
_cell_length_a 14.255604
_cell_length_b 28.159220
_cell_length_c 14.422647
_cell_angle_alpha 90.000000
_cell_angle_beta 90.000000
_cell_angle_gamma 90.000000
_cell_volume 5789.635436
_symmetry_space_group_name_H-M "C C C A"
_symmetry_group_IT_number 68
_space_group.IT_coordinate_system_code '2'
_symmetry_cell_setting 'orthorhombic'
loop_
_space_group_symop_operation_xyz
x,y,z
-x,1/2-y,z
x,1/2-y,1/2-z
-x,y,1/2-z
-x,-y,-z
x,1/2+y,-z
-x,1/2+y,1/2+z
x,-y,1/2+z
1/2+x,1/2+y,z
1/2-x,-y,z
1/2+x,-y,1/2-z
1/2-x,1/2+y,1/2-z
1/2-x,1/2-y,-z
1/2+x,y,-z
1/2-x,y,1/2+z
1/2+x,1/2-y,1/2+z
loop_
_atom_site_type_symbol
_atom_site_label
_atom_site_fract_x
_atom_site_fract_y
_atom_site_fract_z
Si Si1 0.663682 0.269017 0.440550
Si Si2 0.720227 0.442904 0.960385
Si Si3 0.589355 0.185441 0.315246
Si Si4 0.057218 0.152193 0.336214
Si Si5 0.591092 0.026380 0.041067
Si Si6 0.774842 0.859542 0.170284
Si Si7 0.500000 0.750000 0.080652
Si Si8 0.454298 0.891698 0.536188
O O1 0.750000 0.250000 0.500000
O O2 0.638237 0.232560 0.356997
O O3 0.687788 0.320776 0.403013
O O4 0.579309 0.269094 0.512190
O O5 0.652493 0.483281 0.912259
O O6 0.815943 0.456930 0.015845
O O7 0.765035 0.410435 0.879591
O O8 0.647943 0.416747 0.028813
O O9 0.500000 0.195565 0.250000
O O10 0.660781 0.151429 0.258729
O O11 0.553510 0.154987 0.402344
O O12 0.166359 0.151490 0.311509
O O13 0.033796 0.206522 0.358150
O O14 0.031895 0.123026 0.428997
O O15 0.000000 0.133319 0.250000
O O16 0.536175 0.073798 0.074503
O O17 0.500000 0.000000 0.000000
#
# Coordination Sequence:
#
# PCOD9508183 Si02
#       8
#    16  16  16  16  16  16   8  16
#     4  12  24  42  64  94 130 186 227 279 327 410
#     4   9  19  38  64  93 123 168 218 271 336 409
#     4  12  25  42  64  97 139 179 230 281 344 412
#     4  11  25  42  63  94 131 178 236 286 339 402
#     4   9  18  35  67  94 123 163 215 273 341 412
#     4  11  24  41  62  95 136 174 223 279 338 398
#     4  12  23  40  65  88 132 178 231 274 337 392
#     4  10  21  42  63  95 127 174 223 277 351 412
#
# _framework density 20.726693999999998
#
# number of rings (size 3 to 8) (size 9 to 14) (size 15 to 20)
#    0.000    1.333    2.667    3.000    3.733    2.667 
#    0.000    0.000    0.000   59.200    0.000    0.000 
#    0.000    0.000    0.000    0.000    0.000    0.000 
#
# Total GULP energy -334131.391632 kJ/mol
# GULP energy per Si atom -5568.856527 kJ/mol
# Density = 2.067952 g / cm^3
# Si number density = 20.726694 Si / 1000 Ang^3
#
#
#
# Elastic Constant Matrix: (Units=GPa)
#
#
# Indices 1 2 3 4 5 6 
#
# 1 161.7463 34.2731 47.0014 0.0000 0.0000 0.0000
# 2 34.2731 97.9637 22.4957 0.0000 0.0000 0.0000
# 3 47.0014 22.4957 93.0590 0.0000 0.0000 0.0000
# 4 0.0000 0.0000 0.0000 12.7794 0.0000 0.0000
# 5 0.0000 0.0000 0.0000 0.0000 1.9427 0.0000
# 6 0.0000 0.0000 0.0000 0.0000 0.0000 13.6288
#
#
#
# Elastic Compliance Matrix: (Units=1/GPa)
#
#
# Indices 1 2 3 4 5 6 
#
# 1 0.007557 -0.001871 -0.003364 0.000000 0.000000 0.000000
# 2 -0.001871 0.011271 -0.001780 0.000000 0.000000 0.000000
# 3 -0.003364 -0.001780 0.012875 0.000000 0.000000 0.000000
# 4 0.000000 0.000000 0.000000 0.078251 0.000000 0.000000
# 5 0.000000 0.000000 0.000000 0.000000 0.514750 0.000000
# 6 0.000000 0.000000 0.000000 0.000000 0.000000 0.073374
#
#
# Mechanical properties :
#
#
# Convention : Reuss Voigt Hill
#
# Bulk Modulus (GPa) = 56.58361 62.25661 59.42011
# Shear Modulus (GPa) = 6.96380 22.27011 14.61695
#
# Velocity S-wave (km/s) = 1.83497 3.28146 2.65849
# Velocity P-wave (km/s) = 5.64346 6.66779 6.17689
#
# Compressibility (1/GPa) = 0.01767296
#
# Stress axis : x y z
#
# Youngs Moduli (GPa) = 132.33398 88.72210 77.66829
#
# Poissons Ratio (x) = 0.16601 0.26130
# Poissons Ratio (y) = 0.24762 0.13822
# Poissons Ratio (z) = 0.44521 0.15789
#
# Static dielectric constant tensor:
#      x y z
#    x 1.741550 0.000000 0.000000 
#    y 0.000000 1.883490 0.000000 
#    z 0.000000 0.000000 1.727100 
# 
# From -- ./inp_files/22847.got.cif
#   From: 2010.05.17/outbox.cif.g08.bks.cpg/sg68_12_cif.got.tgz:22847.got - 2010.06.03 18:57:09.
