data_PCOD9508894
_publ_section_title
;
Structure prediction by ZEFSAII (Michael W. Deem and Ramdas Pophale) SiO2 
 PCOD9508894
Probable space group: C C C A
;
_chemical_formula_sum "Si O2"
_cell_formula_units_Z 88
_cell_length_a 14.219933
_cell_length_b 15.407401
_cell_length_c 19.965887
_cell_angle_alpha 90.000000
_cell_angle_beta 90.000000
_cell_angle_gamma 90.000000
_cell_volume 4374.370306
_symmetry_space_group_name_H-M "C C C A"
_symmetry_group_IT_number 68
_space_group.IT_coordinate_system_code '2'
_symmetry_cell_setting 'orthorhombic'
loop_
_space_group_symop_operation_xyz
x,y,z
-x,1/2-y,z
x,1/2-y,1/2-z
-x,y,1/2-z
-x,-y,-z
x,1/2+y,-z
-x,1/2+y,1/2+z
x,-y,1/2+z
1/2+x,1/2+y,z
1/2-x,-y,z
1/2+x,-y,1/2-z
1/2-x,1/2+y,1/2-z
1/2-x,1/2-y,-z
1/2+x,y,-z
1/2-x,y,1/2+z
1/2+x,1/2-y,1/2+z
loop_
_atom_site_type_symbol
_atom_site_label
_atom_site_fract_x
_atom_site_fract_y
_atom_site_fract_z
Si Si1 0.286610 0.750000 0.250000
Si Si2 0.310958 0.918212 0.690504
Si Si3 0.740306 0.872833 0.454376
Si Si4 0.595082 0.728717 0.469889
Si Si5 0.500000 0.991390 0.750000
Si Si6 0.108183 0.381494 0.151689
Si Si7 0.750000 0.000000 0.067956
O O1 0.223840 0.674891 0.283361
O O2 0.348877 0.694257 0.198116
O O3 0.285230 0.914767 0.611723
O O4 0.417136 0.936737 0.714256
O O5 0.250000 0.000000 0.718324
O O6 0.654602 0.808299 0.439356
O O7 0.827479 0.820567 0.486372
O O8 0.702320 0.935425 0.513730
O O9 0.500000 0.750000 0.509408
O O10 0.559903 0.666919 0.410168
O O11 0.455700 0.054932 0.805433
O O12 0.186805 0.440871 0.115657
#
# Coordination Sequence:
#
# PCOD9508894 Si02
#       7
#     8  16  16  16   8  16   8
#     4  12  24  46  74  94 148 188 228 292 352 432
#     4  12  25  47  69 103 138 187 235 290 359 428
#     4  10  22  43  68  94 138 184 222 295 362 411
#     4  10  23  40  64 101 129 176 238 286 346 422
#     4  12  28  44  70 106 148 184 242 288 360 434
#     4  11  24  40  67 104 134 182 234 292 347 422
#     4  10  22  44  70  96 144 180 230 290 362 418
#
# _framework density 20.117180000000001
#
# number of rings (size 3 to 8) (size 9 to 14) (size 15 to 20)
#    0.000    1.091    4.545    1.091    5.091    1.818 
#    3.273    3.636    0.000    0.000    0.000    0.000 
#    0.000    0.000    0.000    0.000    0.000    0.000 
#
# Total GULP energy -245355.365328 kJ/mol
# GULP energy per Si atom -5576.258303 kJ/mol
# Density = 2.007139 g / cm^3
# Si number density = 20.117180 Si / 1000 Ang^3
#
#
#
# Elastic Constant Matrix: (Units=GPa)
#
#
# Indices 1 2 3 4 5 6 
#
# 1 91.6763 41.8596 30.0600 0.0000 0.0000 0.0000
# 2 41.8596 91.8780 28.4725 0.0000 0.0000 0.0000
# 3 30.0600 28.4725 79.2569 0.0000 0.0000 0.0000
# 4 0.0000 0.0000 0.0000 36.6695 0.0000 0.0000
# 5 0.0000 0.0000 0.0000 0.0000 13.1449 0.0000
# 6 0.0000 0.0000 0.0000 0.0000 0.0000 20.9261
#
#
#
# Elastic Compliance Matrix: (Units=1/GPa)
#
#
# Indices 1 2 3 4 5 6 
#
# 1 0.014607 -0.005557 -0.003544 0.000000 0.000000 0.000000
# 2 -0.005557 0.014361 -0.003052 0.000000 0.000000 0.000000
# 3 -0.003544 -0.003052 0.015058 0.000000 0.000000 0.000000
# 4 0.000000 0.000000 0.000000 0.027271 0.000000 0.000000
# 5 0.000000 0.000000 0.000000 0.000000 0.076075 0.000000
# 6 0.000000 0.000000 0.000000 0.000000 0.000000 0.047787
#
#
# Mechanical properties :
#
#
# Convention : Reuss Voigt Hill
#
# Bulk Modulus (GPa) = 50.70623 51.51061 51.10842
# Shear Modulus (GPa) = 22.12022 24.97604 23.54813
#
# Velocity S-wave (km/s) = 3.31957 3.52735 3.42504
# Velocity P-wave (km/s) = 6.32083 6.50004 6.41106
#
# Compressibility (1/GPa) = 0.01972144
#
# Stress axis : x y z
#
# Youngs Moduli (GPa) = 68.45937 69.63122 66.41167
#
# Poissons Ratio (x) = 0.38693 0.23536
# Poissons Ratio (y) = 0.38042 0.20267
# Poissons Ratio (z) = 0.24261 0.21249
#
# Static dielectric constant tensor:
#      x y z
#    x 1.692520 0.000000 0.000000 
#    y 0.000000 1.760480 0.000000 
#    z 0.000000 0.000000 1.728080 
# 
# From -- ./inp_files/38503.got.cif
#   From: 2010.05.17/outbox.cif.g08.bks.cpg/sg68_20_cif.got.tgz:38503.got - 2010.06.03 18:57:09.
