data_PCOD9508853
_publ_section_title
;
Structure prediction by ZEFSAII (Michael W. Deem and Ramdas Pophale) SiO2 
 PCOD9508853
Probable space group: C C C A
;
_chemical_formula_sum "Si O2"
_cell_formula_units_Z 80
_cell_length_a 20.925863
_cell_length_b 10.797945
_cell_length_c 14.881764
_cell_angle_alpha 90.000000
_cell_angle_beta 90.000000
_cell_angle_gamma 90.000000
_cell_volume 3362.628595
_symmetry_space_group_name_H-M "C C C A"
_symmetry_group_IT_number 68
_space_group.IT_coordinate_system_code '2'
_symmetry_cell_setting 'orthorhombic'
loop_
_space_group_symop_operation_xyz
x,y,z
-x,1/2-y,z
x,1/2-y,1/2-z
-x,y,1/2-z
-x,-y,-z
x,1/2+y,-z
-x,1/2+y,1/2+z
x,-y,1/2+z
1/2+x,1/2+y,z
1/2-x,-y,z
1/2+x,-y,1/2-z
1/2-x,1/2+y,1/2-z
1/2-x,1/2-y,-z
1/2+x,y,-z
1/2-x,y,1/2+z
1/2+x,1/2-y,1/2+z
loop_
_atom_site_type_symbol
_atom_site_label
_atom_site_fract_x
_atom_site_fract_y
_atom_site_fract_z
Si Si1 0.438152 0.508617 0.693870
Si Si2 0.111744 0.252363 0.865243
Si Si3 0.060773 0.165189 0.460920
Si Si4 0.183722 0.683825 0.972653
Si Si5 0.680670 0.994351 0.809121
O O1 0.500000 0.473767 0.750000
O O2 0.428503 0.655918 0.691560
O O3 0.446270 0.459463 0.593377
O O4 0.376122 0.456946 0.746343
O O5 0.162032 0.351177 0.827481
O O6 0.151471 0.158481 0.930597
O O7 0.067876 0.335858 0.931240
O O8 0.129278 0.224179 0.433130
O O9 0.000000 0.250000 0.439046
O O10 0.187149 0.571049 0.902665
O O11 0.250000 0.750000 0.000000
O O12 0.750000 0.000000 0.764494
#
# Coordination Sequence:
#
# PCOD9508853 Si02
#       5
#    16  16  16  16  16
#     4  12  28  46  71 110 152 189 247 319 382 444
#     4  10  25  45  72 100 142 194 247 293 366 450
#     4  10  24  45  74  97 139 193 251 296 369 450
#     4  10  22  42  74 101 139 192 254 294 356 453
#     4  12  24  44  68 106 149 188 238 303 373 437
#
# _framework density 23.790911000000001
#
# number of rings (size 3 to 8) (size 9 to 14) (size 15 to 20)
#    1.200    0.000    2.000    3.000    2.800    6.000 
#    3.600    0.000    0.000    0.000    0.000    0.000 
#    0.000    0.000    0.000    0.000    0.000    0.000 
#
# Total GULP energy -223172.661703 kJ/mol
# GULP energy per Si atom -5579.316543 kJ/mol
# Density = 2.373676 g / cm^3
# Si number density = 23.790911 Si / 1000 Ang^3
#
#
#
# Elastic Constant Matrix: (Units=GPa)
#
#
# Indices 1 2 3 4 5 6 
#
# 1 186.8578 40.9608 35.2170 0.0000 0.0000 0.0000
# 2 40.9608 80.7037 14.7502 0.0000 0.0000 0.0000
# 3 35.2170 14.7502 46.5576 0.0000 0.0000 0.0000
# 4 0.0000 0.0000 0.0000 11.5994 0.0000 0.0000
# 5 0.0000 0.0000 0.0000 0.0000 25.0988 0.0000
# 6 0.0000 0.0000 0.0000 0.0000 0.0000 36.2596
#
#
#
# Elastic Compliance Matrix: (Units=1/GPa)
#
#
# Indices 1 2 3 4 5 6 
#
# 1 0.006732 -0.002639 -0.004256 0.000000 0.000000 0.000000
# 2 -0.002639 0.014187 -0.002498 0.000000 0.000000 0.000000
# 3 -0.004256 -0.002498 0.025490 0.000000 0.000000 0.000000
# 4 0.000000 0.000000 0.000000 0.086212 0.000000 0.000000
# 5 0.000000 0.000000 0.000000 0.000000 0.039843 0.000000
# 6 0.000000 0.000000 0.000000 0.000000 0.000000 0.027579
#
#
# Mechanical properties :
#
#
# Convention : Reuss Voigt Hill
#
# Bulk Modulus (GPa) = 36.20362 55.10836 45.65599
# Shear Modulus (GPa) = 21.92623 29.47097 25.69860
#
# Velocity S-wave (km/s) = 3.03912 3.52340 3.29018
# Velocity P-wave (km/s) = 5.25028 6.30606 5.80223
#
# Compressibility (1/GPa) = 0.02762155
#
# Stress axis : x y z
#
# Youngs Moduli (GPa) = 148.53635 70.48662 39.23121
#
# Poissons Ratio (x) = 0.18602 0.16698
# Poissons Ratio (y) = 0.39199 0.09802
# Poissons Ratio (z) = 0.63223 0.17611
#
# Static dielectric constant tensor:
#      x y z
#    x 1.564650 0.000000 0.000000 
#    y 0.000000 1.863730 0.000000 
#    z 0.000000 0.000000 2.015080 
# 
# From -- ./inp_files/25184.got.cif
#   From: 2010.05.17/outbox.cif.g08.bks.cpg/sg68_13_cif.got.tgz:25184.got - 2010.06.03 18:57:09.
