data_PCOD9508343
_publ_section_title
;
Structure prediction by ZEFSAII (Michael W. Deem and Ramdas Pophale) SiO2 
 PCOD9508343
Probable space group: C C C A
;
_chemical_formula_sum "Si O2"
_cell_formula_units_Z 80
_cell_length_a 28.786536
_cell_length_b 7.115223
_cell_length_c 14.187568
_cell_angle_alpha 90.000000
_cell_angle_beta 90.000000
_cell_angle_gamma 90.000000
_cell_volume 2905.934892
_symmetry_space_group_name_H-M "C C C A"
_symmetry_group_IT_number 68
_space_group.IT_coordinate_system_code '2'
_symmetry_cell_setting 'orthorhombic'
loop_
_space_group_symop_operation_xyz
x,y,z
-x,1/2-y,z
x,1/2-y,1/2-z
-x,y,1/2-z
-x,-y,-z
x,1/2+y,-z
-x,1/2+y,1/2+z
x,-y,1/2+z
1/2+x,1/2+y,z
1/2-x,-y,z
1/2+x,-y,1/2-z
1/2-x,1/2+y,1/2-z
1/2-x,1/2-y,-z
1/2+x,y,-z
1/2-x,y,1/2+z
1/2+x,1/2-y,1/2+z
loop_
_atom_site_type_symbol
_atom_site_label
_atom_site_fract_x
_atom_site_fract_y
_atom_site_fract_z
Si Si1 0.459118 0.505563 0.867498
Si Si2 0.858978 0.505930 0.657041
Si Si3 0.054223 0.432153 0.088929
Si Si4 0.788082 0.250000 0.250000
Si Si5 0.750000 0.000000 0.103820
Si Si6 0.652247 0.896562 0.039500
O O1 0.411466 0.544708 0.810714
O O2 0.452361 0.279341 0.874528
O O3 0.514266 0.541719 0.852820
O O4 0.454838 0.577498 0.975778
O O5 0.820912 0.565311 0.734147
O O6 0.850538 0.364161 0.572292
O O7 0.853763 0.700499 0.595618
O O8 0.107047 0.498578 0.084606
O O9 0.755293 0.189680 0.165125
O O10 0.798141 0.006561 0.050022
#
# Coordination Sequence:
#
# PCOD9508343 Si02
#       6
#    16  16  16   8   8  16
#     4   8  13  23  42  66  93 120 145 186 239 279
#     4   9  18  32  50  73  99 125 161 207 250 300
#     4   8  13  23  41  66  93 117 149 190 231 278
#     4  10  22  36  50  71 102 133 166 208 260 306
#     4  10  22  36  50  68  94 130 168 212 256 298
#     4   9  18  31  49  72  95 124 166 204 240 292
#
# _framework density 27.529868
#
# number of rings (size 3 to 8) (size 9 to 14) (size 15 to 20)
#    0.000    3.200    0.000    0.000    0.000    5.600 
#    0.000    0.000    0.000   21.600    0.000    0.000 
#    0.000    1.600    0.000    0.000    0.000    0.800 
#
# Total GULP energy -222754.455239 kJ/mol
# GULP energy per Si atom -5568.861381 kJ/mol
# Density = 2.746721 g / cm^3
# Si number density = 27.529868 Si / 1000 Ang^3
#
#
#
# Elastic Constant Matrix: (Units=GPa)
#
#
# Indices 1 2 3 4 5 6 
#
# 1 235.8997 38.7342 23.0161 0.0000 0.0000 0.0000
# 2 38.7342 63.4397 8.2871 0.0000 0.0000 0.0000
# 3 23.0161 8.2871 47.0162 0.0000 0.0000 0.0000
# 4 0.0000 0.0000 0.0000 27.9052 0.0000 0.0000
# 5 0.0000 0.0000 0.0000 0.0000 38.3021 0.0000
# 6 0.0000 0.0000 0.0000 0.0000 0.0000 23.1894
#
#
#
# Elastic Compliance Matrix: (Units=1/GPa)
#
#
# Indices 1 2 3 4 5 6 
#
# 1 0.004873 -0.002726 -0.001905 0.000000 0.000000 0.000000
# 2 -0.002726 0.017660 -0.001778 0.000000 0.000000 0.000000
# 3 -0.001905 -0.001778 0.022515 0.000000 0.000000 0.000000
# 4 0.000000 0.000000 0.000000 0.035836 0.000000 0.000000
# 5 0.000000 0.000000 0.000000 0.000000 0.026108 0.000000
# 6 0.000000 0.000000 0.000000 0.000000 0.000000 0.043123
#
#
# Mechanical properties :
#
#
# Convention : Reuss Voigt Hill
#
# Bulk Modulus (GPa) = 31.02772 54.04783 42.53778
# Shear Modulus (GPa) = 28.78926 36.30054 32.54490
#
# Velocity S-wave (km/s) = 3.23731 3.63518 3.44200
# Velocity P-wave (km/s) = 5.02679 6.10691 5.59299
#
# Compressibility (1/GPa) = 0.03222924
#
# Stress axis : x y z
#
# Youngs Moduli (GPa) = 205.23039 56.62567 44.41459
#
# Poissons Ratio (x) = 0.15437 0.08460
# Poissons Ratio (y) = 0.55950 0.07898
# Poissons Ratio (z) = 0.39092 0.10069
#
# Static dielectric constant tensor:
#      x y z
#    x 2.224280 0.000000 0.000000 
#    y 0.000000 2.306440 0.000000 
#    z 0.000000 0.000000 2.255320 
# 
# From -- ./inp_files/25921.got.cif
#   From: 2010.05.17/outbox.cif.g08.bks.cpg/sg68_13_cif.got.tgz:25921.got - 2010.06.03 18:57:09.
