data_PCOD9508692
_publ_section_title
;
Structure prediction by ZEFSAII (Michael W. Deem and Ramdas Pophale) SiO2 
 PCOD9508692
Probable space group: C C C A
;
_chemical_formula_sum "Si O2"
_cell_formula_units_Z 68
_cell_length_a 19.715393
_cell_length_b 10.330514
_cell_length_c 15.277917
_cell_angle_alpha 90.000000
_cell_angle_beta 90.000000
_cell_angle_gamma 90.000000
_cell_volume 3111.655546
_symmetry_space_group_name_H-M "C C C A"
_symmetry_group_IT_number 68
_space_group.IT_coordinate_system_code '2'
_symmetry_cell_setting 'orthorhombic'
loop_
_space_group_symop_operation_xyz
x,y,z
-x,1/2-y,z
x,1/2-y,1/2-z
-x,y,1/2-z
-x,-y,-z
x,1/2+y,-z
-x,1/2+y,1/2+z
x,-y,1/2+z
1/2+x,1/2+y,z
1/2-x,-y,z
1/2+x,-y,1/2-z
1/2-x,1/2+y,1/2-z
1/2-x,1/2-y,-z
1/2+x,y,-z
1/2-x,y,1/2+z
1/2+x,1/2-y,1/2+z
loop_
_atom_site_type_symbol
_atom_site_label
_atom_site_fract_x
_atom_site_fract_y
_atom_site_fract_z
Si Si1 0.801042 0.112086 0.650572
Si Si2 0.303887 0.600023 0.861001
Si Si3 0.500000 0.250000 0.750000
Si Si4 0.936007 0.428505 0.107724
Si Si5 0.949759 0.132956 0.582736
O O1 0.795024 0.109280 0.755904
O O2 0.787539 0.254095 0.610415
O O3 0.881433 0.102991 0.634503
O O4 0.750000 0.000000 0.618048
O O5 0.250000 0.500000 0.897833
O O6 0.376700 0.534925 0.880368
O O7 0.549464 0.163371 0.810402
O O8 0.005039 0.506525 0.093398
O O9 0.927106 0.347987 0.018208
O O10 0.000000 0.250000 0.610120
#
# Coordination Sequence:
#
# PCOD9508692 Si02
#       5
#    16  16   4  16  16
#     4  10  22  42  68  96 129 179 228 283 341 414
#     4  10  22  41  63  95 133 173 227 282 343 408
#     4  12  24  40  62 104 132 178 228 292 356 416
#     4  11  24  40  66  97 133 176 225 289 344 416
#     4  11  22  44  67  95 135 178 229 283 348 414
#
# _framework density 21.853318000000002
#
# number of rings (size 3 to 8) (size 9 to 14) (size 15 to 20)
#    0.000    1.412    3.529    1.412    0.000    6.588 
#    0.000    2.353    0.000    0.000    0.000    0.000 
#    0.000    0.000    0.000    0.000    0.000    0.000 
#
# Total GULP energy -189668.696060 kJ/mol
# GULP energy per Si atom -5578.491061 kJ/mol
# Density = 2.180358 g / cm^3
# Si number density = 21.853318 Si / 1000 Ang^3
#
#
#
# Elastic Constant Matrix: (Units=GPa)
#
#
# Indices 1 2 3 4 5 6 
#
# 1 118.3753 86.8472 4.4882 0.0000 0.0000 0.0000
# 2 86.8472 131.0295 17.7685 0.0000 0.0000 0.0000
# 3 4.4882 17.7685 40.9646 0.0000 0.0000 0.0000
# 4 0.0000 0.0000 0.0000********** 0.0000 0.0000
# 5 0.0000 0.0000 0.0000 0.0000 22.1146 0.0000
# 6 0.0000 0.0000 0.0000 0.0000 0.0000 49.5640
#
#
#
# Elastic Compliance Matrix: (Units=1/GPa)
#
#
# Indices 1 2 3 4 5 6 
#
# 1 0.016825 -0.011583 0.003181 0.000000 0.000000 0.000000
# 2 -0.011583 0.016083 -0.005707 0.000000 0.000000 0.000000
# 3 0.003181 -0.005707 0.026538 0.000000 0.000000 0.000000
# 4 0.000000 0.000000 0.000000 -0.000041 0.000000 0.000000
# 5 0.000000 0.000000 0.000000 0.000000 0.045219 0.000000
# 6 0.000000 0.000000 0.000000 0.000000 0.000000 0.020176
#
#
# Mechanical properties :
#
#
# Convention : Reuss Voigt Hill
#
# Bulk Modulus (GPa) = 32.02267 56.50859 44.26563
# Shear Modulus (GPa) = 30.59424 -4911.82983 -2440.61780
#
# Velocity S-wave (km/s) = 3.74569 -47.46067 -33.45508
# Velocity P-wave (km/s) = 5.77860 54.56592 38.36696
#
# Compressibility (1/GPa) = 0.03122787
#
# Stress axis : x y z
#
# Youngs Moduli (GPa) = 59.43440 62.17648 37.68139
#
# Poissons Ratio (x) = 0.72021 -0.11986
# Poissons Ratio (y) = 0.68844 0.21505
# Poissons Ratio (z) = -0.18905 0.35485
#
# Static dielectric constant tensor:
#      x y z
#    x 1.978580 0.000000 0.000000 
#    y 0.000000 1.845340 0.000000 
#    z 0.000000 0.000000 1.862230 
# 
# From -- ./inp_files/32581.got.cif
#   From: 2010.05.17/outbox.cif.g08.bks.cpg/sg68_17_cif.got.tgz:32581.got - 2010.06.03 18:57:09.
