data_PCOD9508404
_publ_section_title
;
Structure prediction by ZEFSAII (Michael W. Deem and Ramdas Pophale) SiO2 
 PCOD9508404
Probable space group: C C C A
;
_chemical_formula_sum "Si O2"
_cell_formula_units_Z 88
_cell_length_a 24.662758
_cell_length_b 20.175679
_cell_length_c 9.100726
_cell_angle_alpha 90.000000
_cell_angle_beta 90.000000
_cell_angle_gamma 90.000000
_cell_volume 4528.411036
_symmetry_space_group_name_H-M "C C C A"
_symmetry_group_IT_number 68
_space_group.IT_coordinate_system_code '2'
_symmetry_cell_setting 'orthorhombic'
loop_
_space_group_symop_operation_xyz
x,y,z
-x,1/2-y,z
x,1/2-y,1/2-z
-x,y,1/2-z
-x,-y,-z
x,1/2+y,-z
-x,1/2+y,1/2+z
x,-y,1/2+z
1/2+x,1/2+y,z
1/2-x,-y,z
1/2+x,-y,1/2-z
1/2-x,1/2+y,1/2-z
1/2-x,1/2-y,-z
1/2+x,y,-z
1/2-x,y,1/2+z
1/2+x,1/2-y,1/2+z
loop_
_atom_site_type_symbol
_atom_site_label
_atom_site_fract_x
_atom_site_fract_y
_atom_site_fract_z
Si Si1 0.533123 0.414101 0.949806
Si Si2 0.587076 0.866145 0.499028
Si Si3 0.250000 0.000000 0.873381
Si Si4 0.936240 0.268241 0.413233
Si Si5 0.922134 0.531279 0.243012
Si Si6 0.324330 0.050737 0.630728
O O1 0.567528 0.345996 0.943835
O O2 0.555937 0.469261 0.838877
O O3 0.470608 0.390716 0.928222
O O4 0.538650 0.445196 0.112223
O O5 0.587697 0.787378 0.520588
O O6 0.589542 0.908435 0.647363
O O7 0.636722 0.887225 0.395962
O O8 0.282606 0.049490 0.765747
O O9 0.208159 0.035952 0.981873
O O10 0.916503 0.250000 0.250000
O O11 0.000000 0.250000 0.415213
O O12 0.866950 0.508066 0.164376
#
# Coordination Sequence:
#
# PCOD9508404 Si02
#       6
#    16  16   8  16  16  16
#     4  11  24  35  59  91 134 168 201 251 305 373
#     4  11  22  36  60  89 126 166 212 249 304 389
#     4  10  22  38  56  86 124 152 206 280 324 360
#     4   9  20  38  55  80 125 175 206 236 300 376
#     4  12  22  36  57  95 122 162 204 258 310 371
#     4  11  21  36  58  87 119 157 206 262 318 364
#
# _framework density 19.432865
#
# number of rings (size 3 to 8) (size 9 to 14) (size 15 to 20)
#    0.000    1.273    3.636    2.182    2.545    2.182 
#    0.000    2.727    0.000    0.000    0.000   34.364 
#    0.000    0.000    0.000    0.000    0.000    0.000 
#
# Total GULP energy -245708.476637 kJ/mol
# GULP energy per Si atom -5584.283560 kJ/mol
# Density = 1.938864 g / cm^3
# Si number density = 19.432865 Si / 1000 Ang^3
#
#
#
# Elastic Constant Matrix: (Units=GPa)
#
#
# Indices 1 2 3 4 5 6 
#
# 1 92.1587 34.2175 38.6556 0.0000 0.0000 0.0000
# 2 34.2175 163.5366 66.2263 0.0000 0.0000 0.0000
# 3 38.6556 66.2263 106.3709 0.0000 0.0000 0.0000
# 4 0.0000 0.0000 0.0000 20.4102 0.0000 0.0000
# 5 0.0000 0.0000 0.0000 0.0000 36.5892 0.0000
# 6 0.0000 0.0000 0.0000 0.0000 0.0000 18.5479
#
#
#
# Elastic Compliance Matrix: (Units=1/GPa)
#
#
# Indices 1 2 3 4 5 6 
#
# 1 0.012942 -0.001074 -0.004034 0.000000 0.000000 0.000000
# 2 -0.001074 0.008265 -0.004756 0.000000 0.000000 0.000000
# 3 -0.004034 -0.004756 0.013828 0.000000 0.000000 0.000000
# 4 0.000000 0.000000 0.000000 0.048995 0.000000 0.000000
# 5 0.000000 0.000000 0.000000 0.000000 0.027330 0.000000
# 6 0.000000 0.000000 0.000000 0.000000 0.000000 0.053914
#
#
# Mechanical properties :
#
#
# Convention : Reuss Voigt Hill
#
# Bulk Modulus (GPa) = 65.32970 71.14055 68.23513
# Shear Modulus (GPa) = 26.30110 29.97392 28.13751
#
# Velocity S-wave (km/s) = 3.68290 3.93164 3.80930
# Velocity P-wave (km/s) = 7.19556 7.56956 7.38493
#
# Compressibility (1/GPa) = 0.01530697
#
# Stress axis : x y z
#
# Youngs Moduli (GPa) = 77.26861 120.98521 72.31658
#
# Poissons Ratio (x) = 0.12995 0.29175
# Poissons Ratio (y) = 0.08299 0.34392
# Poissons Ratio (z) = 0.31173 0.57537
#
# Static dielectric constant tensor:
#      x y z
#    x 1.727550 0.000000 0.000000 
#    y 0.000000 1.695520 0.000000 
#    z 0.000000 0.000000 1.726310 
# 
# From -- ./inp_files/7996.got.cif
#   From: 2010.05.17/outbox.cif.g08.bks.cpg/sg68_4_cif.got.tgz:7996.got - 2010.06.03 18:57:09.
