data_PCOD9508984
_publ_section_title
;
Structure prediction by ZEFSAII (Michael W. Deem and Ramdas Pophale) SiO2 
 PCOD9508984
Probable space group: C C C A
;
_chemical_formula_sum "Si O2"
_cell_formula_units_Z 88
_cell_length_a 15.450822
_cell_length_b 26.821945
_cell_length_c 8.937408
_cell_angle_alpha 90.000000
_cell_angle_beta 90.000000
_cell_angle_gamma 90.000000
_cell_volume 3703.850436
_symmetry_space_group_name_H-M "C C C A"
_symmetry_group_IT_number 68
_space_group.IT_coordinate_system_code '2'
_symmetry_cell_setting 'orthorhombic'
loop_
_space_group_symop_operation_xyz
x,y,z
-x,1/2-y,z
x,1/2-y,1/2-z
-x,y,1/2-z
-x,-y,-z
x,1/2+y,-z
-x,1/2+y,1/2+z
x,-y,1/2+z
1/2+x,1/2+y,z
1/2-x,-y,z
1/2+x,-y,1/2-z
1/2-x,1/2+y,1/2-z
1/2-x,1/2-y,-z
1/2+x,y,-z
1/2-x,y,1/2+z
1/2+x,1/2-y,1/2+z
loop_
_atom_site_type_symbol
_atom_site_label
_atom_site_fract_x
_atom_site_fract_y
_atom_site_fract_z
Si Si1 0.000000 0.182655 0.250000
Si Si2 0.869198 0.453744 0.833721
Si Si3 0.000000 0.250000 0.513589
Si Si4 0.186440 0.356337 0.614866
Si Si5 0.500000 0.531190 0.250000
Si Si6 0.144851 0.384672 0.279511
Si Si7 0.859068 0.750000 0.250000
Si Si8 0.750000 0.500000 0.580240
O O1 0.964494 0.211059 0.393774
O O2 0.079861 0.151607 0.307279
O O3 0.888546 0.394747 0.828776
O O4 0.949549 0.491219 0.853576
O O5 0.816577 0.470190 0.685303
O O6 0.805492 0.465470 0.971551
O O7 0.076902 0.231563 0.618224
O O8 0.176754 0.360882 0.436143
O O9 0.271377 0.384926 0.675917
O O10 0.185610 0.299911 0.681002
O O11 0.420209 0.567736 0.298982
#
# Coordination Sequence:
#
# PCOD9508984 Si02
#       8
#     8  16   8  16   8  16   8   8
#     4  10  22  47  76  94 144 195 232 304 366 416
#     4  11  23  44  70 102 145 189 235 304 363 433
#     4  10  22  46  70 104 144 186 244 306 350 422
#     4  12  26  46  71 105 150 192 249 303 359 434
#     4  11  26  45  74 110 142 189 248 293 384 440
#     4  11  26  47  71 107 145 192 245 300 367 444
#     4  11  26  44  72 115 148 192 248 295 364 438
#     4  10  22  44  72 102 140 188 240 298 368 442
#
# _framework density 23.759059000000001
#
# number of rings (size 3 to 8) (size 9 to 14) (size 15 to 20)
#    0.000    1.091    1.818    4.364    2.545    6.545 
#    3.273    0.000    0.000    0.000    0.000    0.000 
#    0.000    0.000    0.000    0.000    0.000    0.000 
#
# Total GULP energy -245085.771681 kJ/mol
# GULP energy per Si atom -5570.131175 kJ/mol
# Density = 2.370498 g / cm^3
# Si number density = 23.759059 Si / 1000 Ang^3
#
#
#
# Elastic Constant Matrix: (Units=GPa)
#
#
# Indices 1 2 3 4 5 6 
#
# 1 99.0475 35.9032 39.2309 0.0000 0.0000 0.0000
# 2 35.9032 106.1741 31.8607 0.0000 0.0000 0.0000
# 3 39.2309 31.8607 109.0089 0.0000 0.0000 0.0000
# 4 0.0000 0.0000 0.0000 8.9994 0.0000 0.0000
# 5 0.0000 0.0000 0.0000 0.0000 29.4899 0.0000
# 6 0.0000 0.0000 0.0000 0.0000 0.0000 113.2389
#
#
#
# Elastic Compliance Matrix: (Units=1/GPa)
#
#
# Indices 1 2 3 4 5 6 
#
# 1 0.012696 -0.003203 -0.003633 0.000000 0.000000 0.000000
# 2 -0.003203 0.011132 -0.002101 0.000000 0.000000 0.000000
# 3 -0.003633 -0.002101 0.011095 0.000000 0.000000 0.000000
# 4 0.000000 0.000000 0.000000 0.111118 0.000000 0.000000
# 5 0.000000 0.000000 0.000000 0.000000 0.033910 0.000000
# 6 0.000000 0.000000 0.000000 0.000000 0.000000 0.008831
#
#
# Mechanical properties :
#
#
# Convention : Reuss Voigt Hill
#
# Bulk Modulus (GPa) = 58.65318 58.69113 58.67216
# Shear Modulus (GPa) = 23.54723 44.16136 33.85429
#
# Velocity S-wave (km/s) = 3.15156 4.31596 3.77888
# Velocity P-wave (km/s) = 6.16307 7.04223 6.61726
#
# Compressibility (1/GPa) = 0.01704937
#
# Stress axis : x y z
#
# Youngs Moduli (GPa) = 78.76371 89.83068 90.13008
#
# Poissons Ratio (x) = 0.28773 0.32744
# Poissons Ratio (y) = 0.25229 0.18935
# Poissons Ratio (z) = 0.28615 0.18872
#
# Static dielectric constant tensor:
#      x y z
#    x 1.805650 0.000000 0.000000 
#    y 0.000000 2.105470 0.000000 
#    z 0.000000 0.000000 1.897010 
# 
# From -- ./inp_files/6451.got.cif
#   From: 2010.05.17/outbox.cif.g08.bks.cpg/sg68_4_cif.got.tgz:6451.got - 2010.06.03 18:57:09.
