data_PCOD9508878
_publ_section_title
;
Structure prediction by ZEFSAII (Michael W. Deem and Ramdas Pophale) SiO2 
 PCOD9508878
Probable space group: C C C A
;
_chemical_formula_sum "Si O2"
_cell_formula_units_Z 100
_cell_length_a 29.060100
_cell_length_b 11.063684
_cell_length_c 13.907239
_cell_angle_alpha 90.000000
_cell_angle_beta 90.000000
_cell_angle_gamma 90.000000
_cell_volume 4471.340935
_symmetry_space_group_name_H-M "C C C A"
_symmetry_group_IT_number 68
_space_group.IT_coordinate_system_code '2'
_symmetry_cell_setting 'orthorhombic'
loop_
_space_group_symop_operation_xyz
x,y,z
-x,1/2-y,z
x,1/2-y,1/2-z
-x,y,1/2-z
-x,-y,-z
x,1/2+y,-z
-x,1/2+y,1/2+z
x,-y,1/2+z
1/2+x,1/2+y,z
1/2-x,-y,z
1/2+x,-y,1/2-z
1/2-x,1/2+y,1/2-z
1/2-x,1/2-y,-z
1/2+x,y,-z
1/2-x,y,1/2+z
1/2+x,1/2-y,1/2+z
loop_
_atom_site_type_symbol
_atom_site_label
_atom_site_fract_x
_atom_site_fract_y
_atom_site_fract_z
Si Si1 0.589562 0.141753 0.637323
Si Si2 0.275155 0.250000 0.750000
Si Si3 0.050466 0.389067 0.579737
Si Si4 0.360250 0.838291 0.027581
Si Si5 0.000000 0.250000 0.423742
Si Si6 0.788220 0.394629 0.867532
Si Si7 0.000000 0.750000 0.250000
Si Si8 0.345528 0.536934 0.287824
O O1 0.632161 0.216441 0.590781
O O2 0.545233 0.227199 0.638525
O O3 0.609623 0.087626 0.734359
O O4 0.568954 0.024953 0.584369
O O5 0.241937 0.218514 0.836944
O O6 0.305838 0.137262 0.721246
O O7 0.096556 0.322940 0.544050
O O8 0.013533 0.357964 0.497092
O O9 0.030511 0.335033 0.679209
O O10 0.359988 0.954434 0.100237
O O11 0.316786 0.860773 0.960985
O O12 0.750000 0.500000 0.881859
O O13 0.823395 0.431457 0.779236
#
# Coordination Sequence:
#
# PCOD9508878 Si02
#       8
#    16   8  16  16   8  16   4  16
#     4  11  21  44  67  98 140 175 225 286 347 409
#     4  10  22  43  64  93 142 169 230 297 336 422
#     4  10  22  45  69 101 133 182 225 284 343 417
#     4  11  23  42  69  99 136 180 236 286 342 424
#     4   9  22  41  70 102 132 174 235 271 346 426
#     4  10  24  43  68 102 131 187 239 279 365 410
#     4  10  24  50  66  98 150 172 230 294 326 406
#     4  11  22  45  63  97 142 174 224 299 343 404
#
# _framework density 22.364657000000001
#
# number of rings (size 3 to 8) (size 9 to 14) (size 15 to 20)
#    0.000    1.600    3.200    0.480    0.000    4.480 
#   17.280    1.600    0.000    0.000    0.000    0.000 
#    0.000    0.000    0.000    0.000    0.000    0.000 
#
# Total GULP energy -278655.479879 kJ/mol
# GULP energy per Si atom -5573.109598 kJ/mol
# Density = 2.231375 g / cm^3
# Si number density = 22.364657 Si / 1000 Ang^3
#
#
#
# Elastic Constant Matrix: (Units=GPa)
#
#
# Indices 1 2 3 4 5 6 
#
# 1 113.1425 9.4456 58.4496 0.0000 0.0000 0.0000
# 2 9.4456 49.0441 3.7662 0.0000 0.0000 0.0000
# 3 58.4496 3.7662 60.3882 0.0000 0.0000 0.0000
# 4 0.0000 0.0000 0.0000 3.6292 0.0000 0.0000
# 5 0.0000 0.0000 0.0000 0.0000 29.9717 0.0000
# 6 0.0000 0.0000 0.0000 0.0000 0.0000 1.1038
#
#
#
# Elastic Compliance Matrix: (Units=1/GPa)
#
#
# Indices 1 2 3 4 5 6 
#
# 1 0.017896 -0.002127 -0.017188 0.000000 0.000000 0.000000
# 2 -0.002127 0.020741 0.000765 0.000000 0.000000 0.000000
# 3 -0.017188 0.000765 0.033148 0.000000 0.000000 0.000000
# 4 0.000000 0.000000 0.000000 0.275543 0.000000 0.000000
# 5 0.000000 0.000000 0.000000 0.000000 0.033365 0.000000
# 6 0.000000 0.000000 0.000000 0.000000 0.000000 0.906000
#
#
# Mechanical properties :
#
#
# Convention : Reuss Voigt Hill
#
# Bulk Modulus (GPa) = 28.83154 40.65531 34.74343
# Shear Modulus (GPa) = 3.74433 17.00182 10.37307
#
# Velocity S-wave (km/s) = 1.29532 2.76018 2.15597
# Velocity P-wave (km/s) = 3.89316 5.32691 4.66544
#
# Compressibility (1/GPa) = 0.03468423
#
# Stress axis : x y z
#
# Youngs Moduli (GPa) = 55.87994 48.21444 30.16734
#
# Poissons Ratio (x) = 0.10254 0.51853
# Poissons Ratio (y) = 0.11884 -0.02307
# Poissons Ratio (z) = 0.96049 -0.03688
#
# Static dielectric constant tensor:
#      x y z
#    x 1.824430 0.000000 0.000000 
#    y 0.000000 1.934840 0.000000 
#    z 0.000000 0.000000 1.896760 
# 
# From -- ./inp_files/26380.got.cif
#   From: 2010.05.17/outbox.cif.g08.bks.cpg/sg68_14_cif.got.tgz:26380.got - 2010.06.03 18:57:09.
