data_PCOD9508778
_publ_section_title
;
Structure prediction by ZEFSAII (Michael W. Deem and Ramdas Pophale) SiO2 
 PCOD9508778
Probable space group: C C C A
;
_chemical_formula_sum "Si O2"
_cell_formula_units_Z 64
_cell_length_a 29.755121
_cell_length_b 12.058427
_cell_length_c 8.923350
_cell_angle_alpha 90.000000
_cell_angle_beta 90.000000
_cell_angle_gamma 90.000000
_cell_volume 3201.697574
_symmetry_space_group_name_H-M "C C C A"
_symmetry_group_IT_number 68
_space_group.IT_coordinate_system_code '2'
_symmetry_cell_setting 'orthorhombic'
loop_
_space_group_symop_operation_xyz
x,y,z
-x,1/2-y,z
x,1/2-y,1/2-z
-x,y,1/2-z
-x,-y,-z
x,1/2+y,-z
-x,1/2+y,1/2+z
x,-y,1/2+z
1/2+x,1/2+y,z
1/2-x,-y,z
1/2+x,-y,1/2-z
1/2-x,1/2+y,1/2-z
1/2-x,1/2-y,-z
1/2+x,y,-z
1/2-x,y,1/2+z
1/2+x,1/2-y,1/2+z
loop_
_atom_site_type_symbol
_atom_site_label
_atom_site_fract_x
_atom_site_fract_y
_atom_site_fract_z
Si Si1 0.750000 0.000000 0.175805
Si Si2 0.604271 0.954385 0.062604
Si Si3 0.448074 0.118575 0.229570
Si Si4 0.637272 0.750000 0.250000
Si Si5 0.311556 0.087720 0.562521
O O1 0.787669 0.048066 0.285232
O O2 0.726120 0.088603 0.066544
O O3 0.611093 0.855123 0.182098
O O4 0.581923 0.056829 0.147940
O O5 0.571755 0.913908 0.931132
O O6 0.650821 0.999501 0.991137
O O7 0.445088 0.250000 0.250000
O O8 0.500000 0.084938 0.250000
O O9 0.665677 0.797515 0.390166
#
# Coordination Sequence:
#
# PCOD9508778 Si02
#       5
#     8  16  16   8  16
#     4  10  22  42  64  94 136 172 228 276 332 386
#     4  12  23  46  69 100 138 177 228 274 341 411
#     4  11  25  44  71 101 136 175 224 279 339 402
#     4  12  24  40  73 100 130 188 224 268 351 400
#     4  11  22  42  64  96 134 175 222 276 326 404
#
# _framework density 19.989397
#
# number of rings (size 3 to 8) (size 9 to 14) (size 15 to 20)
#    0.000    0.750    5.000    2.250    0.000    1.000 
#    0.000    0.000    0.000    0.000    0.000    0.000 
#    0.000    0.000    0.000    0.000    0.000    0.000 
#
# Total GULP energy -178838.242913 kJ/mol
# GULP energy per Si atom -5588.695091 kJ/mol
# Density = 1.994390 g / cm^3
# Si number density = 19.989397 Si / 1000 Ang^3
#
#
#
# Elastic Constant Matrix: (Units=GPa)
#
#
# Indices 1 2 3 4 5 6 
#
# 1 115.6874 41.0227 59.9489 0.0000 0.0000 0.0000
# 2 41.0227 64.3476 27.7593 0.0000 0.0000 0.0000
# 3 59.9489 27.7593 122.7798 0.0000 0.0000 0.0000
# 4 0.0000 0.0000 0.0000 74.9899 0.0000 0.0000
# 5 0.0000 0.0000 0.0000 0.0000 35.4016 0.0000
# 6 0.0000 0.0000 0.0000 0.0000 0.0000 47.4830
#
#
#
# Elastic Compliance Matrix: (Units=1/GPa)
#
#
# Indices 1 2 3 4 5 6 
#
# 1 0.013620 -0.006442 -0.005193 0.000000 0.000000 0.000000
# 2 -0.006442 0.020267 -0.001437 0.000000 0.000000 0.000000
# 3 -0.005193 -0.001437 0.011005 0.000000 0.000000 0.000000
# 4 0.000000 0.000000 0.000000 0.013335 0.000000 0.000000
# 5 0.000000 0.000000 0.000000 0.000000 0.028247 0.000000
# 6 0.000000 0.000000 0.000000 0.000000 0.000000 0.021060
#
#
# Mechanical properties :
#
#
# Convention : Reuss Voigt Hill
#
# Bulk Modulus (GPa) = 53.34068 62.25296 57.79682
# Shear Modulus (GPa) = 35.73238 43.18051 39.45645
#
# Velocity S-wave (km/s) = 4.23255 4.65281 4.44764
# Velocity P-wave (km/s) = 7.11536 7.75083 7.43989
#
# Compressibility (1/GPa) = 0.01874742
#
# Stress axis : x y z
#
# Youngs Moduli (GPa) = 73.42326 49.34010 90.86569
#
# Poissons Ratio (x) = 0.31787 0.47191
# Poissons Ratio (y) = 0.47302 0.13055
# Poissons Ratio (z) = 0.38132 0.07089
#
# Static dielectric constant tensor:
#      x y z
#    x 1.730050 0.000000 0.000000 
#    y 0.000000 1.689260 0.000000 
#    z 0.000000 0.000000 1.705810 
# 
# From -- ./inp_files/4084.got.cif
#   From: 2010.05.17/outbox.cif.g08.bks.cpg/sg68_3_cif.got.tgz:4084.got - 2010.06.03 18:57:09.
