data_PCOD9508285
_publ_section_title
;
Structure prediction by ZEFSAII (Michael W. Deem and Ramdas Pophale) SiO2 
 PCOD9508285
Probable space group: C C C A
;
_chemical_formula_sum "Si O2"
_cell_formula_units_Z 88
_cell_length_a 15.837336
_cell_length_b 21.687119
_cell_length_c 10.297622
_cell_angle_alpha 90.000000
_cell_angle_beta 90.000000
_cell_angle_gamma 90.000000
_cell_volume 3536.884999
_symmetry_space_group_name_H-M "C C C A"
_symmetry_group_IT_number 68
_space_group.IT_coordinate_system_code '2'
_symmetry_cell_setting 'orthorhombic'
loop_
_space_group_symop_operation_xyz
x,y,z
-x,1/2-y,z
x,1/2-y,1/2-z
-x,y,1/2-z
-x,-y,-z
x,1/2+y,-z
-x,1/2+y,1/2+z
x,-y,1/2+z
1/2+x,1/2+y,z
1/2-x,-y,z
1/2+x,-y,1/2-z
1/2-x,1/2+y,1/2-z
1/2-x,1/2-y,-z
1/2+x,y,-z
1/2-x,y,1/2+z
1/2+x,1/2-y,1/2+z
loop_
_atom_site_type_symbol
_atom_site_label
_atom_site_fract_x
_atom_site_fract_y
_atom_site_fract_z
Si Si1 0.250000 0.000000 0.946028
Si Si2 0.613331 0.708403 0.036744
Si Si3 0.222040 0.893919 0.639425
Si Si4 0.589333 0.960686 0.192771
Si Si5 0.934841 0.661275 0.970679
Si Si6 0.144697 0.318875 0.748454
O O1 0.337466 0.995122 0.865081
O O2 0.260992 0.059122 0.037843
O O3 0.596660 0.690276 0.885777
O O4 0.693609 0.669507 0.075429
O O5 0.623554 0.780209 0.070248
O O6 0.524685 0.683083 0.087912
O O7 0.139125 0.927010 0.691791
O O8 0.285390 0.872165 0.751212
O O9 0.500000 0.984865 0.250000
O O10 0.575187 0.906707 0.086553
O O11 0.913073 0.664805 0.125916
O O12 0.184662 0.250000 0.750000
#
# Coordination Sequence:
#
# PCOD9508285 Si02
#       6
#     8  16  16  16  16  16
#     4  12  28  52  74 102 154 200 262 316 366 454
#     4  10  22  40  69 107 145 188 235 305 380 460
#     4  12  25  43  70 106 142 196 250 310 377 444
#     4  12  26  49  75 108 145 198 259 317 382 446
#     4  10  21  44  69 105 148 184 242 305 379 458
#     4  10  22  38  68 103 147 191 240 299 375 454
#
# _framework density 24.880651
#
# number of rings (size 3 to 8) (size 9 to 14) (size 15 to 20)
#    0.000    1.091    3.636    2.182    2.545    4.364 
#    0.000    0.000    0.000    0.000    0.000    0.000 
#    0.000    0.000    0.000    0.000    0.000    0.000 
#
# Total GULP energy -245418.601545 kJ/mol
# GULP energy per Si atom -5577.695490 kJ/mol
# Density = 2.482402 g / cm^3
# Si number density = 24.880651 Si / 1000 Ang^3
#
#
#
# Elastic Constant Matrix: (Units=GPa)
#
#
# Indices 1 2 3 4 5 6 
#
# 1 108.5836 30.6325 11.9944 0.0000 0.0000 0.0000
# 2 30.6325 88.4582 18.3306 0.0000 0.0000 0.0000
# 3 11.9944 18.3306 58.0057 0.0000 0.0000 0.0000
# 4 0.0000 0.0000 0.0000 33.4104 0.0000 0.0000
# 5 0.0000 0.0000 0.0000 0.0000 27.7207 0.0000
# 6 0.0000 0.0000 0.0000 0.0000 0.0000 36.7990
#
#
#
# Elastic Compliance Matrix: (Units=1/GPa)
#
#
# Indices 1 2 3 4 5 6 
#
# 1 0.010268 -0.003334 -0.001070 0.000000 0.000000 0.000000
# 2 -0.003334 0.013180 -0.003475 0.000000 0.000000 0.000000
# 3 -0.001070 -0.003475 0.018559 0.000000 0.000000 0.000000
# 4 0.000000 0.000000 0.000000 0.029931 0.000000 0.000000
# 5 0.000000 0.000000 0.000000 0.000000 0.036074 0.000000
# 6 0.000000 0.000000 0.000000 0.000000 0.000000 0.027175
#
#
# Mechanical properties :
#
#
# Convention : Reuss Voigt Hill
#
# Bulk Modulus (GPa) = 38.09754 41.88472 39.99113
# Shear Modulus (GPa) = 31.30977 32.52537 31.91757
#
# Velocity S-wave (km/s) = 3.55124 3.61952 3.58554
# Velocity P-wave (km/s) = 5.67102 5.85992 5.76624
#
# Compressibility (1/GPa) = 0.02624842
#
# Stress axis : x y z
#
# Youngs Moduli (GPa) = 97.38755 75.87496 53.88176
#
# Poissons Ratio (x) = 0.25298 0.05763
# Poissons Ratio (y) = 0.32471 0.18727
# Poissons Ratio (z) = 0.10417 0.26370
#
# Static dielectric constant tensor:
#      x y z
#    x 2.254520 0.000000 0.000000 
#    y 0.000000 1.991320 0.000000 
#    z 0.000000 0.000000 2.076340 
# 
# From -- ./inp_files/14426.got.cif
#   From: 2010.05.17/outbox.cif.g08.bks.cpg/sg68_8_cif.got.tgz:14426.got - 2010.06.03 18:57:09.
