data_PCOD9508370
_publ_section_title
;
Structure prediction by ZEFSAII (Michael W. Deem and Ramdas Pophale) SiO2 
 PCOD9508370
Probable space group: C C C A
;
_chemical_formula_sum "Si O2"
_cell_formula_units_Z 80
_cell_length_a 27.060977
_cell_length_b 8.497189
_cell_length_c 16.908706
_cell_angle_alpha 90.000000
_cell_angle_beta 90.000000
_cell_angle_gamma 90.000000
_cell_volume 3888.025667
_symmetry_space_group_name_H-M "C C C A"
_symmetry_group_IT_number 68
_space_group.IT_coordinate_system_code '2'
_symmetry_cell_setting 'orthorhombic'
loop_
_space_group_symop_operation_xyz
x,y,z
-x,1/2-y,z
x,1/2-y,1/2-z
-x,y,1/2-z
-x,-y,-z
x,1/2+y,-z
-x,1/2+y,1/2+z
x,-y,1/2+z
1/2+x,1/2+y,z
1/2-x,-y,z
1/2+x,-y,1/2-z
1/2-x,1/2+y,1/2-z
1/2-x,1/2-y,-z
1/2+x,y,-z
1/2-x,y,1/2+z
1/2+x,1/2-y,1/2+z
loop_
_atom_site_type_symbol
_atom_site_label
_atom_site_fract_x
_atom_site_fract_y
_atom_site_fract_z
Si Si1 0.250000 0.000000 0.688570
Si Si2 0.210031 0.249420 0.069687
Si Si3 0.071203 0.499195 0.941352
Si Si4 0.000000 0.250000 0.489873
Si Si5 0.346638 0.433158 0.053901
Si Si6 0.145230 0.348652 0.821451
O O1 0.266876 0.158242 0.642554
O O2 0.194608 0.063422 0.713775
O O3 0.187888 0.422446 0.081290
O O4 0.250000 0.250000 0.000000
O O5 0.170310 0.134353 0.030967
O O6 0.106881 0.459863 0.867849
O O7 0.030927 0.364194 0.953611
O O8 0.039973 0.658081 0.937336
O O9 0.100319 0.503913 0.026427
O O10 0.343014 0.286078 0.112592
O O11 0.122181 0.250000 0.750000
#
# Coordination Sequence:
#
# PCOD9508370 Si02
#       6
#     8  16  16   8  16  16
#     4  12  24  38  60  92 132 184 226 270 328 408
#     4  12  18  31  62  94 116 163 235 281 306 371
#     4  11  20  41  68 104 126 167 218 284 333 403
#     4  10  22  36  77 105 124 156 232 282 332 400
#     4  12  20  36  64  90 126 168 221 271 330 391
#     4  12  27  43  62  96 142 181 217 277 343 404
#
# _framework density 20.575997000000001
#
# number of rings (size 3 to 8) (size 9 to 14) (size 15 to 20)
#    0.000    0.400   10.000    0.000    0.000    1.600 
#    0.000    0.500    0.000    1.200    0.000    0.000 
#    0.000    0.000    0.000    0.000    0.000    0.000 
#
# Total GULP energy -222690.064916 kJ/mol
# GULP energy per Si atom -5567.251623 kJ/mol
# Density = 2.052916 g / cm^3
# Si number density = 20.575997 Si / 1000 Ang^3
#
#
#
# Elastic Constant Matrix: (Units=GPa)
#
#
# Indices 1 2 3 4 5 6 
#
# 1 78.1121 41.8001 27.8627 0.0000 0.0000 0.0000
# 2 41.8001 90.1257 3.6773 0.0000 0.0000 0.0000
# 3 27.8627 3.6773 43.2792 0.0000 0.0000 0.0000
# 4 0.0000 0.0000 0.0000 22.0264 0.0000 0.0000
# 5 0.0000 0.0000 0.0000 0.0000 8.6325 0.0000
# 6 0.0000 0.0000 0.0000 0.0000 0.0000 57.8699
#
#
#
# Elastic Compliance Matrix: (Units=1/GPa)
#
#
# Indices 1 2 3 4 5 6 
#
# 1 0.023331 -0.010244 -0.014150 0.000000 0.000000 0.000000
# 2 -0.010244 0.015632 0.005266 0.000000 0.000000 0.000000
# 3 -0.014150 0.005266 0.031768 0.000000 0.000000 0.000000
# 4 0.000000 0.000000 0.000000 0.045400 0.000000 0.000000
# 5 0.000000 0.000000 0.000000 0.000000 0.115841 0.000000
# 6 0.000000 0.000000 0.000000 0.000000 0.000000 0.017280
#
#
# Mechanical properties :
#
#
# Convention : Reuss Voigt Hill
#
# Bulk Modulus (GPa) = 30.79135 39.79970 35.29552
# Shear Modulus (GPa) = 16.75987 26.91754 21.83871
#
# Velocity S-wave (km/s) = 2.85710 3.62083 3.26140
# Velocity P-wave (km/s) = 5.08736 6.07168 5.60118
#
# Compressibility (1/GPa) = 0.03247666
#
# Stress axis : x y z
#
# Youngs Moduli (GPa) = 42.86140 63.97272 31.47839
#
# Poissons Ratio (x) = 0.65531 0.44542
# Poissons Ratio (y) = 0.43905 -0.16578
# Poissons Ratio (z) = 0.60648 -0.33691
#
# Static dielectric constant tensor:
#      x y z
#    x 1.784370 0.000000 0.000000 
#    y 0.000000 1.720660 0.000000 
#    z 0.000000 0.000000 1.770760 
# 
# From -- ./inp_files/28363.got.cif
#   From: 2010.05.17/outbox.cif.g08.bks.cpg/sg68_15_cif.got.tgz:28363.got - 2010.06.03 18:57:09.
