data_PCOD9508531
_publ_section_title
;
Structure prediction by ZEFSAII (Michael W. Deem and Ramdas Pophale) SiO2 
 PCOD9508531
Probable space group: C C C A
;
_chemical_formula_sum "Si O2"
_cell_formula_units_Z 112
_cell_length_a 25.456807
_cell_length_b 14.866872
_cell_length_c 13.270449
_cell_angle_alpha 90.000000
_cell_angle_beta 90.000000
_cell_angle_gamma 90.000000
_cell_volume 5022.375150
_symmetry_space_group_name_H-M "C C C A"
_symmetry_group_IT_number 68
_space_group.IT_coordinate_system_code '2'
_symmetry_cell_setting 'orthorhombic'
loop_
_space_group_symop_operation_xyz
x,y,z
-x,1/2-y,z
x,1/2-y,1/2-z
-x,y,1/2-z
-x,-y,-z
x,1/2+y,-z
-x,1/2+y,1/2+z
x,-y,1/2+z
1/2+x,1/2+y,z
1/2-x,-y,z
1/2+x,-y,1/2-z
1/2-x,1/2+y,1/2-z
1/2-x,1/2-y,-z
1/2+x,y,-z
1/2-x,y,1/2+z
1/2+x,1/2-y,1/2+z
loop_
_atom_site_type_symbol
_atom_site_label
_atom_site_fract_x
_atom_site_fract_y
_atom_site_fract_z
Si Si1 0.722582 0.841701 0.300518
Si Si2 0.870331 0.613613 0.586268
Si Si3 0.321544 0.585483 0.910135
Si Si4 0.141186 0.383517 0.127364
Si Si5 0.559682 0.469623 0.756232
Si Si6 0.558867 0.255384 0.963045
Si Si7 0.922907 0.166575 0.823850
O O1 0.743054 0.750000 0.250000
O O2 0.679533 0.823745 0.387666
O O3 0.767343 0.901389 0.351365
O O4 0.685126 0.615024 0.285321
O O5 0.843499 0.515873 0.575964
O O6 0.909274 0.594568 0.679175
O O7 0.909564 0.663446 0.509744
O O8 0.362032 0.645537 0.846235
O O9 0.325493 0.617863 0.024841
O O10 0.098575 0.463872 0.146802
O O11 0.098355 0.303474 0.115162
O O12 0.500000 0.437476 0.750000
O O13 0.557448 0.572372 0.719696
O O14 0.500000 0.250000 0.922450
O O15 0.554113 0.312739 0.065658
O O16 0.931674 0.250000 0.750000
#
# Coordination Sequence:
#
# PCOD9508531 Si02
#       7
#    16  16  16  16  16  16  16
#     4  11  21  42  69  95 134 179 230 299 348 416
#     4  10  22  42  61  98 136 171 231 293 337 436
#     4  10  23  43  65  94 138 178 235 286 358 417
#     4  10  23  43  66 102 134 183 235 294 353 429
#     4  10  22  39  67  94 136 180 227 286 357 424
#     4  11  23  40  69 100 138 183 236 291 361 428
#     4  10  24  41  59  97 136 177 236 289 348 433
#
# _framework density 22.300205999999999
#
# number of rings (size 3 to 8) (size 9 to 14) (size 15 to 20)
#    0.000    1.714    1.429    1.714    4.000    0.571 
#    2.571   10.714    0.000    0.000    0.000    0.000 
#    0.000    0.000    0.000    0.000    0.000    0.000 
#
# Total GULP energy -311862.175939 kJ/mol
# GULP energy per Si atom -5568.967427 kJ/mol
# Density = 2.224945 g / cm^3
# Si number density = 22.300206 Si / 1000 Ang^3
#
#
#
# Elastic Constant Matrix: (Units=GPa)
#
#
# Indices 1 2 3 4 5 6 
#
# 1 175.4361 37.6314 61.4722 0.0000 0.0000 0.0000
# 2 37.6314 92.8494 31.6094 0.0000 0.0000 0.0000
# 3 61.4722 31.6094 49.0260 0.0000 0.0000 0.0000
# 4 0.0000 0.0000 0.0000 26.9476 0.0000 0.0000
# 5 0.0000 0.0000 0.0000 0.0000 22.3946 0.0000
# 6 0.0000 0.0000 0.0000 0.0000 0.0000 16.1729
#
#
#
# Elastic Compliance Matrix: (Units=1/GPa)
#
#
# Indices 1 2 3 4 5 6 
#
# 1 0.010173 0.000281 -0.012936 0.000000 0.000000 0.000000
# 2 0.000281 0.013807 -0.009254 0.000000 0.000000 0.000000
# 3 -0.012936 -0.009254 0.042585 0.000000 0.000000 0.000000
# 4 0.000000 0.000000 0.000000 0.037109 0.000000 0.000000
# 5 0.000000 0.000000 0.000000 0.000000 0.044654 0.000000
# 6 0.000000 0.000000 0.000000 0.000000 0.000000 0.061832
#
#
# Mechanical properties :
#
#
# Convention : Reuss Voigt Hill
#
# Bulk Modulus (GPa) = 43.96627 64.30418 54.13523
# Shear Modulus (GPa) = 19.11610 25.54291 22.32951
#
# Velocity S-wave (km/s) = 2.93100 3.38806 3.16779
# Velocity P-wave (km/s) = 5.58684 6.64858 6.14070
#
# Compressibility (1/GPa) = 0.02274471
#
# Stress axis : x y z
#
# Youngs Moduli (GPa) = 98.30265 72.42856 23.48265
#
# Poissons Ratio (x) = -0.02036 0.30378
# Poissons Ratio (y) = -0.02763 0.21732
# Poissons Ratio (z) = 1.27169 0.67028
#
# Static dielectric constant tensor:
#      x y z
#    x 1.869430 0.000000 0.000000 
#    y 0.000000 1.924600 0.000000 
#    z 0.000000 0.000000 1.898280 
# 
# From -- ./inp_files/25467.got.cif
#   From: 2010.05.17/outbox.cif.g08.bks.cpg/sg68_13_cif.got.tgz:25467.got - 2010.06.03 18:57:09.
