data_PCOD9508324
_publ_section_title
;
Structure prediction by ZEFSAII (Michael W. Deem and Ramdas Pophale) SiO2 
 PCOD9508324
Probable space group: C C C A
;
_chemical_formula_sum "Si O2"
_cell_formula_units_Z 112
_cell_length_a 25.081070
_cell_length_b 15.160866
_cell_length_c 14.406263
_cell_angle_alpha 90.000000
_cell_angle_beta 90.000000
_cell_angle_gamma 90.000000
_cell_volume 5477.992187
_symmetry_space_group_name_H-M "C C C A"
_symmetry_group_IT_number 68
_space_group.IT_coordinate_system_code '2'
_symmetry_cell_setting 'orthorhombic'
loop_
_space_group_symop_operation_xyz
x,y,z
-x,1/2-y,z
x,1/2-y,1/2-z
-x,y,1/2-z
-x,-y,-z
x,1/2+y,-z
-x,1/2+y,1/2+z
x,-y,1/2+z
1/2+x,1/2+y,z
1/2-x,-y,z
1/2+x,-y,1/2-z
1/2-x,1/2+y,1/2-z
1/2-x,1/2-y,-z
1/2+x,y,-z
1/2-x,y,1/2+z
1/2+x,1/2-y,1/2+z
loop_
_atom_site_type_symbol
_atom_site_label
_atom_site_fract_x
_atom_site_fract_y
_atom_site_fract_z
Si Si1 0.789837 0.298422 0.071042
Si Si2 0.625377 0.595341 0.948869
Si Si3 0.898038 0.904852 0.496424
Si Si4 0.208809 0.571655 0.407719
Si Si5 0.936440 0.242362 0.857951
Si Si6 0.373587 0.818563 0.322990
Si Si7 0.685707 0.502273 0.282733
O O1 0.747743 0.353662 0.130645
O O2 0.825787 0.236601 0.131870
O O3 0.750000 0.250000 0.000000
O O4 0.830988 0.362530 0.017692
O O5 0.588868 0.675907 0.914520
O O6 0.657096 0.555801 0.860933
O O7 0.594378 0.510654 0.993275
O O8 0.833725 0.898630 0.482606
O O9 0.921368 0.848677 0.411034
O O10 0.910363 0.854957 0.593051
O O11 0.250000 0.500000 0.447229
O O12 0.177689 0.534614 0.320410
O O13 0.918218 0.250000 0.750000
O O14 0.000000 0.250000 0.858210
O O15 0.399134 0.750000 0.250000
O O16 0.344244 0.904149 0.282268
O O17 0.750000 0.500000 0.298374
#
# Coordination Sequence:
#
# PCOD9508324 Si02
#       7
#    16  16  16  16  16  16  16
#     4  12  21  33  57  85 129 175 219 262 308 376
#     4  11  23  39  65  94 129 175 215 271 325 391
#     4  11  23  40  66  94 132 171 214 271 330 396
#     4  11  20  35  55  85 128 175 210 254 305 370
#     4  11  25  48  74 100 127 163 223 291 348 404
#     4  11  22  36  53  85 124 171 215 257 311 375
#     4  10  22  34  54  85 128 175 218 254 302 377
#
# _framework density 20.445447000000001
#
# number of rings (size 3 to 8) (size 9 to 14) (size 15 to 20)
#    0.000    1.000    4.286    3.429    2.000    0.571 
#    0.000    4.286    0.000    0.429    0.000    0.000 
#    0.000    0.000    0.000    0.000    0.000    0.000 
#
# Total GULP energy -312507.797701 kJ/mol
# GULP energy per Si atom -5580.496388 kJ/mol
# Density = 2.039891 g / cm^3
# Si number density = 20.445447 Si / 1000 Ang^3
#
#
#
# Elastic Constant Matrix: (Units=GPa)
#
#
# Indices 1 2 3 4 5 6 
#
# 1 33.3800 25.1709 15.1578 0.0000 0.0000 0.0000
# 2 25.1709 126.0661 55.8364 0.0000 0.0000 0.0000
# 3 15.1578 55.8364 101.0227 0.0000 0.0000 0.0000
# 4 0.0000 0.0000 0.0000 45.0349 0.0000 0.0000
# 5 0.0000 0.0000 0.0000 0.0000 27.8090 0.0000
# 6 0.0000 0.0000 0.0000 0.0000 0.0000 20.5174
#
#
#
# Elastic Compliance Matrix: (Units=1/GPa)
#
#
# Indices 1 2 3 4 5 6 
#
# 1 0.035532 -0.006267 -0.001867 0.000000 0.000000 0.000000
# 2 -0.006267 0.011609 -0.005476 0.000000 0.000000 0.000000
# 3 -0.001867 -0.005476 0.013206 0.000000 0.000000 0.000000
# 4 0.000000 0.000000 0.000000 0.022205 0.000000 0.000000
# 5 0.000000 0.000000 0.000000 0.000000 0.035960 0.000000
# 6 0.000000 0.000000 0.000000 0.000000 0.000000 0.048739
#
#
# Mechanical properties :
#
#
# Convention : Reuss Voigt Hill
#
# Bulk Modulus (GPa) = 30.18846 50.31098 40.24972
# Shear Modulus (GPa) = 24.32924 29.62585 26.97754
#
# Velocity S-wave (km/s) = 3.45332 3.81073 3.63642
# Velocity P-wave (km/s) = 5.54058 6.63499 6.11232
#
# Compressibility (1/GPa) = 0.03312524
#
# Stress axis : x y z
#
# Youngs Moduli (GPa) = 28.14356 86.13870 75.72513
#
# Poissons Ratio (x) = 0.53987 0.14140
# Poissons Ratio (y) = 0.17639 0.41468
# Poissons Ratio (z) = 0.05255 0.47171
#
# Static dielectric constant tensor:
#      x y z
#    x 1.677020 0.000000 0.000000 
#    y 0.000000 1.909040 0.000000 
#    z 0.000000 0.000000 1.790150 
# 
# From -- ./inp_files/25442.got.cif
#   From: 2010.05.17/outbox.cif.g08.bks.cpg/sg68_13_cif.got.tgz:25442.got - 2010.06.03 18:57:09.
