data_PCOD9508446
_publ_section_title
;
Structure prediction by ZEFSAII (Michael W. Deem and Ramdas Pophale) SiO2 
 PCOD9508446
Probable space group: C C C A
;
_chemical_formula_sum "Si O2"
_cell_formula_units_Z 64
_cell_length_a 25.145896
_cell_length_b 8.974293
_cell_length_c 12.653115
_cell_angle_alpha 90.000000
_cell_angle_beta 90.000000
_cell_angle_gamma 90.000000
_cell_volume 2855.385928
_symmetry_space_group_name_H-M "C C C A"
_symmetry_group_IT_number 68
_space_group.IT_coordinate_system_code '2'
_symmetry_cell_setting 'orthorhombic'
loop_
_space_group_symop_operation_xyz
x,y,z
-x,1/2-y,z
x,1/2-y,1/2-z
-x,y,1/2-z
-x,-y,-z
x,1/2+y,-z
-x,1/2+y,1/2+z
x,-y,1/2+z
1/2+x,1/2+y,z
1/2-x,-y,z
1/2+x,-y,1/2-z
1/2-x,1/2+y,1/2-z
1/2-x,1/2-y,-z
1/2+x,y,-z
1/2-x,y,1/2+z
1/2+x,1/2-y,1/2+z
loop_
_atom_site_type_symbol
_atom_site_label
_atom_site_fract_x
_atom_site_fract_y
_atom_site_fract_z
Si Si1 0.242051 0.750000 0.750000
Si Si2 0.540867 0.480626 0.652003
Si Si3 0.500000 0.250000 0.477589
Si Si4 0.695655 0.225472 0.064590
Si Si5 0.842270 0.552376 0.624192
O O1 0.281610 0.840888 0.827192
O O2 0.203070 0.861171 0.688316
O O3 0.500000 0.465837 0.750000
O O4 0.528462 0.363848 0.558058
O O5 0.534859 0.644314 0.599107
O O6 0.601565 0.448776 0.683439
O O7 0.672971 0.384642 0.096201
O O8 0.750000 0.250000 0.000000
O O9 0.656426 0.134176 0.990437
#
# Coordination Sequence:
#
# PCOD9508446 Si02
#       5
#     8  16   8  16  16
#     4  10  22  38  63 102 139 174 228 280 348 422
#     4  11  24  46  75 100 147 185 243 297 360 426
#     4  10  24  46  68 102 144 178 242 304 346 414
#     4  10  22  43  66  98 142 174 230 290 342 418
#     4  11  24  42  71 102 134 189 229 283 366 417
#
# _framework density 22.413782999999999
#
# number of rings (size 3 to 8) (size 9 to 14) (size 15 to 20)
#    0.000    1.500    0.000    5.250    3.500    8.000 
#   18.000    0.000    0.000    0.000    0.000    0.000 
#    0.000    0.000    0.000    0.000    0.000    0.000 
#
# Total GULP energy -178714.439090 kJ/mol
# GULP energy per Si atom -5584.826222 kJ/mol
# Density = 2.236277 g / cm^3
# Si number density = 22.413783 Si / 1000 Ang^3
#
#
#
# Elastic Constant Matrix: (Units=GPa)
#
#
# Indices 1 2 3 4 5 6 
#
# 1 117.0946 39.2872 53.6794 0.0000 0.0000 0.0000
# 2 39.2872 122.4109 38.2553 0.0000 0.0000 0.0000
# 3 53.6794 38.2553 123.8265 0.0000 0.0000 0.0000
# 4 0.0000 0.0000 0.0000 34.2848 0.0000 0.0000
# 5 0.0000 0.0000 0.0000 0.0000 34.7395 0.0000
# 6 0.0000 0.0000 0.0000 0.0000 0.0000 11.9047
#
#
#
# Elastic Compliance Matrix: (Units=1/GPa)
#
#
# Indices 1 2 3 4 5 6 
#
# 1 0.011215 -0.002302 -0.004151 0.000000 0.000000 0.000000
# 2 -0.002302 0.009515 -0.001941 0.000000 0.000000 0.000000
# 3 -0.004151 -0.001941 0.010475 0.000000 0.000000 0.000000
# 4 0.000000 0.000000 0.000000 0.029167 0.000000 0.000000
# 5 0.000000 0.000000 0.000000 0.000000 0.028786 0.000000
# 6 0.000000 0.000000 0.000000 0.000000 0.000000 0.084000
#
#
# Mechanical properties :
#
#
# Convention : Reuss Voigt Hill
#
# Bulk Modulus (GPa) = 69.36614 69.53065 69.44839
# Shear Modulus (GPa) = 25.67355 31.65981 28.66668
#
# Velocity S-wave (km/s) = 3.38810 3.76242 3.58016
# Velocity P-wave (km/s) = 6.80594 7.06846 6.93844
#
# Compressibility (1/GPa) = 0.01441626
#
# Stress axis : x y z
#
# Youngs Moduli (GPa) = 89.16353 105.09848 95.46608
#
# Poissons Ratio (x) = 0.24198 0.39624
# Poissons Ratio (y) = 0.20529 0.18534
# Poissons Ratio (z) = 0.37008 0.20404
#
# Static dielectric constant tensor:
#      x y z
#    x 1.810960 0.000000 0.000000 
#    y 0.000000 1.811030 0.000000 
#    z 0.000000 0.000000 1.920650 
# 
# From -- ./inp_files/25039.got.cif
#   From: 2010.05.17/outbox.cif.g08.bks.cpg/sg68_13_cif.got.tgz:25039.got - 2010.06.03 18:57:09.
