data_PCOD9508729
_publ_section_title
;
Structure prediction by ZEFSAII (Michael W. Deem and Ramdas Pophale) SiO2 
 PCOD9508729
Probable space group: C C C A
;
_chemical_formula_sum "Si O2"
_cell_formula_units_Z 64
_cell_length_a 24.614290
_cell_length_b 7.190211
_cell_length_c 13.553852
_cell_angle_alpha 90.000000
_cell_angle_beta 90.000000
_cell_angle_gamma 90.000000
_cell_volume 2398.787004
_symmetry_space_group_name_H-M "C C C A"
_symmetry_group_IT_number 68
_space_group.IT_coordinate_system_code '2'
_symmetry_cell_setting 'orthorhombic'
loop_
_space_group_symop_operation_xyz
x,y,z
-x,1/2-y,z
x,1/2-y,1/2-z
-x,y,1/2-z
-x,-y,-z
x,1/2+y,-z
-x,1/2+y,1/2+z
x,-y,1/2+z
1/2+x,1/2+y,z
1/2-x,-y,z
1/2+x,-y,1/2-z
1/2-x,1/2+y,1/2-z
1/2-x,1/2-y,-z
1/2+x,y,-z
1/2-x,y,1/2+z
1/2+x,1/2-y,1/2+z
loop_
_atom_site_type_symbol
_atom_site_label
_atom_site_fract_x
_atom_site_fract_y
_atom_site_fract_z
Si Si1 0.455951 0.639570 0.542537
Si Si2 0.147928 0.248584 0.633689
Si Si3 0.736262 0.782587 0.367569
Si Si4 0.617082 0.811786 0.364320
O O1 0.500000 0.750000 0.609208
O O2 0.500000 0.500000 0.500000
O O3 0.400856 0.616738 0.603037
O O4 0.430185 0.730918 0.442036
O O5 0.155091 0.250000 0.750000
O O6 0.207800 0.307321 0.594352
O O7 0.127322 0.035262 0.619002
O O8 0.733029 0.750000 0.250000
O O9 0.675474 0.730182 0.397991
O O10 0.750000 0.000000 0.382066
O O11 0.607039 0.750000 0.250000
#
# Coordination Sequence:
#
# PCOD9508729 Si02
#       4
#    16  16  16  16
#     4  12  26  45  61  90 132 171 224 268 309 387
#     4  10  22  41  67  94 127 167 213 269 332 387
#     4   8  16  35  62  94 124 156 206 265 327 397
#     4  10  22  41  67  95 126 167 212 268 335 388
#
# _framework density 26.680149
#
# number of rings (size 3 to 8) (size 9 to 14) (size 15 to 20)
#    0.000    2.000    2.500    0.000    3.500    2.000 
#    0.000    0.000    0.000    0.000    0.000    0.000 
#    0.000    0.000    0.000    0.000    0.000    0.000 
#
# Total GULP energy -178311.427449 kJ/mol
# GULP energy per Si atom -5572.232108 kJ/mol
# Density = 2.661942 g / cm^3
# Si number density = 26.680149 Si / 1000 Ang^3
#
#
#
# Elastic Constant Matrix: (Units=GPa)
#
#
# Indices 1 2 3 4 5 6 
#
# 1 320.8873 52.4744 51.5148 0.0000 0.0000 0.0000
# 2 52.4744 82.4520 -10.5963 0.0000 0.0000 0.0000
# 3 51.5148 -10.5963 125.8504 0.0000 0.0000 0.0000
# 4 0.0000 0.0000 0.0000 27.0123 0.0000 0.0000
# 5 0.0000 0.0000 0.0000 0.0000 47.5630 0.0000
# 6 0.0000 0.0000 0.0000 0.0000 0.0000 49.5027
#
#
#
# Elastic Compliance Matrix: (Units=1/GPa)
#
#
# Indices 1 2 3 4 5 6 
#
# 1 0.003843 -0.002677 -0.001798 0.000000 0.000000 0.000000
# 2 -0.002677 0.014125 0.002285 0.000000 0.000000 0.000000
# 3 -0.001798 0.002285 0.008874 0.000000 0.000000 0.000000
# 4 0.000000 0.000000 0.000000 0.037020 0.000000 0.000000
# 5 0.000000 0.000000 0.000000 0.000000 0.021025 0.000000
# 6 0.000000 0.000000 0.000000 0.000000 0.000000 0.020201
#
#
# Mechanical properties :
#
#
# Convention : Reuss Voigt Hill
#
# Bulk Modulus (GPa) = 44.51855 79.55284 62.03569
# Shear Modulus (GPa) = 42.75101 53.86872 48.30986
#
# Velocity S-wave (km/s) = 4.00728 4.49827 4.25985
# Velocity P-wave (km/s) = 6.17522 7.54063 6.89182
#
# Compressibility (1/GPa) = 0.02246255
#
# Stress axis : x y z
#
# Youngs Moduli (GPa) = 260.22724 70.79403 112.68278
#
# Poissons Ratio (x) = 0.18950 0.20264
# Poissons Ratio (y) = 0.69657 -0.25748
# Poissons Ratio (z) = 0.46798 -0.16177
#
# Static dielectric constant tensor:
#      x y z
#    x 2.054460 0.000000 0.000000 
#    y 0.000000 2.580150 0.000000 
#    z 0.000000 0.000000 2.051530 
# 
# From -- ./inp_files/19197.got.cif
#   From: 2010.05.17/outbox.cif.g08.bks.cpg/sg68_10_cif.got.tgz:19197.got - 2010.06.03 18:57:09.
