data_PCOD9508879
_publ_section_title
;
Structure prediction by ZEFSAII (Michael W. Deem and Ramdas Pophale) SiO2 
 PCOD9508879
Probable space group: C C C A
;
_chemical_formula_sum "Si O2"
_cell_formula_units_Z 96
_cell_length_a 24.573728
_cell_length_b 8.270238
_cell_length_c 22.356761
_cell_angle_alpha 90.000000
_cell_angle_beta 90.000000
_cell_angle_gamma 90.000000
_cell_volume 4543.577485
_symmetry_space_group_name_H-M "C C C A"
_symmetry_group_IT_number 68
_space_group.IT_coordinate_system_code '2'
_symmetry_cell_setting 'orthorhombic'
loop_
_space_group_symop_operation_xyz
x,y,z
-x,1/2-y,z
x,1/2-y,1/2-z
-x,y,1/2-z
-x,-y,-z
x,1/2+y,-z
-x,1/2+y,1/2+z
x,-y,1/2+z
1/2+x,1/2+y,z
1/2-x,-y,z
1/2+x,-y,1/2-z
1/2-x,1/2+y,1/2-z
1/2-x,1/2-y,-z
1/2+x,y,-z
1/2-x,y,1/2+z
1/2+x,1/2-y,1/2+z
loop_
_atom_site_type_symbol
_atom_site_label
_atom_site_fract_x
_atom_site_fract_y
_atom_site_fract_z
Si Si1 0.784025 0.783015 0.418732
Si Si2 0.382048 0.583426 0.617488
Si Si3 0.750000 0.000000 0.010006
Si Si4 0.365417 0.439603 0.746500
Si Si5 0.750000 0.500000 0.688218
Si Si6 0.548679 0.369178 0.170937
Si Si7 0.512743 0.563003 0.433638
O O1 0.832849 0.655736 0.419428
O O2 0.741813 0.659071 0.449056
O O3 0.794333 0.943867 0.458686
O O4 0.764552 0.847590 0.354778
O O5 0.363917 0.494031 0.677739
O O6 0.411027 0.746871 0.638764
O O7 0.424763 0.476921 0.581536
O O8 0.377523 0.250000 0.750000
O O9 0.305657 0.470663 0.775134
O O10 0.414552 0.535606 0.780508
O O11 0.500000 0.250000 0.191364
O O12 0.522123 0.481804 0.119949
O O13 0.500000 0.750000 0.432325
O O14 0.500000 0.500000 0.500000
#
# Coordination Sequence:
#
# PCOD9508879 Si02
#       7
#    16  16   8  16   8  16  16
#     4  10  22  43  64  99 134 185 235 295 364 432
#     4  11  24  42  68  99 135 186 235 297 370 435
#     4   9  22  41  66  92 136 181 235 288 354 438
#     4  12  27  43  67 104 143 194 243 301 367 438
#     4  11  26  43  68 100 152 185 247 302 362 444
#     4  10  23  45  70  94 134 177 232 292 363 431
#     4  11  24  45  69 102 138 180 238 306 372 445
#
# _framework density 21.128723999999998
#
# number of rings (size 3 to 8) (size 9 to 14) (size 15 to 20)
#    0.000    1.333    1.667    3.000    4.667    7.333 
#    3.000    4.167    0.000    0.000    0.000    0.000 
#    0.000    0.000    0.000    0.000    0.000    0.000 
#
# Total GULP energy -267413.502630 kJ/mol
# GULP energy per Si atom -5571.114638 kJ/mol
# Density = 2.108063 g / cm^3
# Si number density = 21.128724 Si / 1000 Ang^3
#
#
#
# Elastic Constant Matrix: (Units=GPa)
#
#
# Indices 1 2 3 4 5 6 
#
# 1 81.3282 34.5876 37.2382 0.0000 0.0000 0.0000
# 2 34.5876 147.2417 50.7705 0.0000 0.0000 0.0000
# 3 37.2382 50.7705 108.6107 0.0000 0.0000 0.0000
# 4 0.0000 0.0000 0.0000 34.5369 0.0000 0.0000
# 5 0.0000 0.0000 0.0000 0.0000 72.3580 0.0000
# 6 0.0000 0.0000 0.0000 0.0000 0.0000 26.0566
#
#
#
# Elastic Compliance Matrix: (Units=1/GPa)
#
#
# Indices 1 2 3 4 5 6 
#
# 1 0.015112 -0.002102 -0.004199 0.000000 0.000000 0.000000
# 2 -0.002102 0.008389 -0.003201 0.000000 0.000000 0.000000
# 3 -0.004199 -0.003201 0.012143 0.000000 0.000000 0.000000
# 4 0.000000 0.000000 0.000000 0.028955 0.000000 0.000000
# 5 0.000000 0.000000 0.000000 0.000000 0.013820 0.000000
# 6 0.000000 0.000000 0.000000 0.000000 0.000000 0.038378
#
#
# Mechanical properties :
#
#
# Convention : Reuss Voigt Hill
#
# Bulk Modulus (GPa) = 60.09235 64.70814 62.40024
# Shear Modulus (GPa) = 35.37382 40.89590 38.13486
#
# Velocity S-wave (km/s) = 4.09614 4.40427 4.25300
# Velocity P-wave (km/s) = 7.13260 7.52035 7.32904
#
# Compressibility (1/GPa) = 0.01664105
#
# Stress axis : x y z
#
# Youngs Moduli (GPa) = 66.17090 119.20358 82.35215
#
# Poissons Ratio (x) = 0.25059 0.34578
# Poissons Ratio (y) = 0.13910 0.26359
# Poissons Ratio (z) = 0.27784 0.38154
#
# Static dielectric constant tensor:
#      x y z
#    x 1.510660 0.000000 0.000000 
#    y 0.000000 -3.214830 0.000000 
#    z 0.000000 0.000000 1.751490 
# 
# From -- ./inp_files/46977.got.cif
#   From: 2010.05.17/outbox.cif.g08.bks.cpg/sg68_24_cif.got.tgz:46977.got - 2010.06.03 18:57:09.
