data_PCOD9508386
_publ_section_title
;
Structure prediction by ZEFSAII (Michael W. Deem and Ramdas Pophale) SiO2 
 PCOD9508386
Probable space group: C C C A
;
_chemical_formula_sum "Si O2"
_cell_formula_units_Z 88
_cell_length_a 12.679153
_cell_length_b 28.182205
_cell_length_c 12.790498
_cell_angle_alpha 90.000000
_cell_angle_beta 90.000000
_cell_angle_gamma 90.000000
_cell_volume 4570.383744
_symmetry_space_group_name_H-M "C C C A"
_symmetry_group_IT_number 68
_space_group.IT_coordinate_system_code '2'
_symmetry_cell_setting 'orthorhombic'
loop_
_space_group_symop_operation_xyz
x,y,z
-x,1/2-y,z
x,1/2-y,1/2-z
-x,y,1/2-z
-x,-y,-z
x,1/2+y,-z
-x,1/2+y,1/2+z
x,-y,1/2+z
1/2+x,1/2+y,z
1/2-x,-y,z
1/2+x,-y,1/2-z
1/2-x,1/2+y,1/2-z
1/2-x,1/2-y,-z
1/2+x,y,-z
1/2-x,y,1/2+z
1/2+x,1/2-y,1/2+z
loop_
_atom_site_type_symbol
_atom_site_label
_atom_site_fract_x
_atom_site_fract_y
_atom_site_fract_z
Si Si1 0.396137 0.614617 0.176779
Si Si2 0.674156 0.221730 0.652107
Si Si3 0.725507 0.446857 0.203879
Si Si4 0.000000 0.079173 0.750000
Si Si5 0.385985 0.733905 0.920814
Si Si6 0.109033 0.622399 0.433658
O O1 0.500000 0.614269 0.250000
O O2 0.342487 0.666641 0.176199
O O3 0.313716 0.576131 0.221670
O O4 0.418945 0.609433 0.052609
O O5 0.631853 0.250000 0.750000
O O6 0.620751 0.240161 0.546075
O O7 0.796278 0.235186 0.633702
O O8 0.750000 0.500000 0.169827
O O9 0.609616 0.448726 0.257725
O O10 0.704497 0.410557 0.108023
O O11 0.014540 0.110037 0.645726
O O12 0.500000 0.750000 0.883291
O O13 0.365285 0.677493 0.913488
#
# Coordination Sequence:
#
# PCOD9508386 Si02
#       6
#    16  16  16   8  16  16
#     4  11  25  40  66 102 132 175 224 271 346 397
#     4  10  23  38  57  92 131 172 213 268 321 388
#     4  10  23  44  69  92 132 171 224 280 338 405
#     4   8  22  44  67  92 128 170 219 270 342 392
#     4  10  22  37  62  92 128 173 225 257 329 395
#     4   9  22  43  64  99 130 179 215 287 326 401
#
# _framework density 19.254401000000001
#
# number of rings (size 3 to 8) (size 9 to 14) (size 15 to 20)
#    1.091    1.091    0.000    1.091    8.909    2.545 
#    0.000    1.818    0.000    0.000    0.000    0.000 
#    0.000    0.000    0.000    0.000    0.000    0.000 
#
# Total GULP energy -245067.230440 kJ/mol
# GULP energy per Si atom -5569.709783 kJ/mol
# Density = 1.921058 g / cm^3
# Si number density = 19.254401 Si / 1000 Ang^3
#
#
#
# Elastic Constant Matrix: (Units=GPa)
#
#
# Indices 1 2 3 4 5 6 
#
# 1 131.6402 48.9342 35.2829 0.0000 0.0000 0.0000
# 2 48.9342 87.5053 62.8538 0.0000 0.0000 0.0000
# 3 35.2829 62.8538 116.2189 0.0000 0.0000 0.0000
# 4 0.0000 0.0000 0.0000 34.4348 0.0000 0.0000
# 5 0.0000 0.0000 0.0000 0.0000 13.2108 0.0000
# 6 0.0000 0.0000 0.0000 0.0000 0.0000 24.5339
#
#
#
# Elastic Compliance Matrix: (Units=1/GPa)
#
#
# Indices 1 2 3 4 5 6 
#
# 1 0.009590 -0.005350 -0.000018 0.000000 0.000000 0.000000
# 2 -0.005350 0.021672 -0.010096 0.000000 0.000000 0.000000
# 3 -0.000018 -0.010096 0.014070 0.000000 0.000000 0.000000
# 4 0.000000 0.000000 0.000000 0.029040 0.000000 0.000000
# 5 0.000000 0.000000 0.000000 0.000000 0.075696 0.000000
# 6 0.000000 0.000000 0.000000 0.000000 0.000000 0.040760
#
#
# Mechanical properties :
#
#
# Convention : Reuss Voigt Hill
#
# Bulk Modulus (GPa) = 69.42851 69.94513 69.68682
# Shear Modulus (GPa) = 22.06946 26.98882 24.52914
#
# Velocity S-wave (km/s) = 3.38924 3.74798 3.57312
# Velocity P-wave (km/s) = 7.17305 7.42533 7.30028
#
# Compressibility (1/GPa) = 0.01440331
#
# Stress axis : x y z
#
# Youngs Moduli (GPa) = 104.27526 46.14329 71.07186
#
# Poissons Ratio (x) = 0.24686 0.00129
# Poissons Ratio (y) = 0.55786 0.71756
# Poissons Ratio (z) = 0.00189 0.46588
#
# Static dielectric constant tensor:
#      x y z
#    x 1.748560 0.000000 0.000000 
#    y 0.000000 1.664620 0.000000 
#    z 0.000000 0.000000 1.723090 
# 
# From -- ./inp_files/12021.got.cif
#   From: 2010.05.17/outbox.cif.g08.bks.cpg/sg68_7_cif.got.tgz:12021.got - 2010.06.03 18:57:09.
