data_PCOD9508741
_publ_section_title
;
Structure prediction by ZEFSAII (Michael W. Deem and Ramdas Pophale) SiO2 
 PCOD9508741
Probable space group: C C C A
;
_chemical_formula_sum "Si O2"
_cell_formula_units_Z 72
_cell_length_a 24.239248
_cell_length_b 9.700081
_cell_length_c 15.247264
_cell_angle_alpha 90.000000
_cell_angle_beta 90.000000
_cell_angle_gamma 90.000000
_cell_volume 3584.977406
_symmetry_space_group_name_H-M "C C C A"
_symmetry_group_IT_number 68
_space_group.IT_coordinate_system_code '2'
_symmetry_cell_setting 'orthorhombic'
loop_
_space_group_symop_operation_xyz
x,y,z
-x,1/2-y,z
x,1/2-y,1/2-z
-x,y,1/2-z
-x,-y,-z
x,1/2+y,-z
-x,1/2+y,1/2+z
x,-y,1/2+z
1/2+x,1/2+y,z
1/2-x,-y,z
1/2+x,-y,1/2-z
1/2-x,1/2+y,1/2-z
1/2-x,1/2-y,-z
1/2+x,y,-z
1/2-x,y,1/2+z
1/2+x,1/2-y,1/2+z
loop_
_atom_site_type_symbol
_atom_site_label
_atom_site_fract_x
_atom_site_fract_y
_atom_site_fract_z
Si Si1 0.971509 0.399286 0.572648
Si Si2 0.888075 0.660808 0.826531
Si Si3 0.191417 0.459381 0.597432
Si Si4 0.500000 0.049420 0.750000
Si Si5 0.852981 0.186977 0.986419
O O1 0.977701 0.459465 0.669750
O O2 0.906735 0.377415 0.557504
O O3 0.000000 0.250000 0.565360
O O4 0.000000 0.500000 0.500000
O O5 0.861554 0.750000 0.750000
O O6 0.857984 0.515053 0.841493
O O7 0.950504 0.631918 0.797736
O O8 0.878197 0.737342 0.919183
O O9 0.250000 0.500000 0.638376
O O10 0.177738 0.306164 0.566387
O O11 0.187202 0.563054 0.514040
#
# Coordination Sequence:
#
# PCOD9508741 Si02
#       5
#    16  16  16   8  16
#     4  12  24  40  64  99 135 179 220 275 342 417
#     4  10  24  38  64  96 132 170 218 268 344 406
#     4  10  22  44  68  95 128 174 234 279 336 401
#     4  12  24  42  64 100 139 179 216 284 335 425
#     4  10  22  41  68  97 127 175 225 277 338 413
#
# _framework density 20.083808000000001
#
# number of rings (size 3 to 8) (size 9 to 14) (size 15 to 20)
#    1.333    0.000    2.222    4.000    6.222    0.000 
#    0.000    3.333    0.000    0.000    0.000    0.000 
#    0.000    0.000    0.000    0.000    0.000    0.000 
#
# Total GULP energy -200552.438487 kJ/mol
# GULP energy per Si atom -5570.901069 kJ/mol
# Density = 2.003810 g / cm^3
# Si number density = 20.083808 Si / 1000 Ang^3
#
#
#
# Elastic Constant Matrix: (Units=GPa)
#
#
# Indices 1 2 3 4 5 6 
#
# 1 87.4167 0.5555 -0.8049 0.0000 0.0000 0.0000
# 2 0.5555 50.6030 -5.1621 0.0000 0.0000 0.0000
# 3 -0.8049 -5.1621 85.5101 0.0000 0.0000 0.0000
# 4 0.0000 0.0000 0.0000 -176.0889 0.0000 0.0000
# 5 0.0000 0.0000 0.0000 0.0000 1.8242 0.0000
# 6 0.0000 0.0000 0.0000 0.0000 0.0000 27.0621
#
#
#
# Elastic Compliance Matrix: (Units=1/GPa)
#
#
# Indices 1 2 3 4 5 6 
#
# 1 0.011441 -0.000115 0.000101 0.000000 0.000000 0.000000
# 2 -0.000115 0.019885 0.001199 0.000000 0.000000 0.000000
# 3 0.000101 0.001199 0.011768 0.000000 0.000000 0.000000
# 4 0.000000 0.000000 0.000000 -0.005679 0.000000 0.000000
# 5 0.000000 0.000000 0.000000 0.000000 0.548183 0.000000
# 6 0.000000 0.000000 0.000000 0.000000 0.000000 0.036952
#
#
# Mechanical properties :
#
#
# Convention : Reuss Voigt Hill
#
# Bulk Modulus (GPa) = 21.99552 23.63410 22.81481
# Shear Modulus (GPa) = 7.86986 -14.17775 -3.15395
#
# Velocity S-wave (km/s) = 1.98167 -2.65982 -1.25451
# Velocity P-wave (km/s) = 4.02637 1.53638 3.04730
#
# Compressibility (1/GPa) = 0.04546379
#
# Stress axis : x y z
#
# Youngs Moduli (GPa) = 87.40406 50.28845 84.97714
#
# Poissons Ratio (x) = 0.00580 -0.00856
# Poissons Ratio (y) = 0.01008 -0.10192
# Poissons Ratio (z) = -0.00880 -0.06031
#
# Static dielectric constant tensor:
#      x y z
#    x 1.762350 0.000000 0.000000 
#    y 0.000000 1.766320 0.000000 
#    z 0.000000 0.000000 1.732000 
# 
# From -- ./inp_files/33450.got.cif
#   From: 2010.05.17/outbox.cif.g08.bks.cpg/sg68_17_cif.got.tgz:33450.got - 2010.06.03 18:57:09.
