data_PCOD9508297
_publ_section_title
;
Structure prediction by ZEFSAII (Michael W. Deem and Ramdas Pophale) SiO2 
 PCOD9508297
Probable space group: C C C A
;
_chemical_formula_sum "Si O2"
_cell_formula_units_Z 88
_cell_length_a 26.924656
_cell_length_b 11.453706
_cell_length_c 14.277606
_cell_angle_alpha 90.000000
_cell_angle_beta 90.000000
_cell_angle_gamma 90.000000
_cell_volume 4403.029423
_symmetry_space_group_name_H-M "C C C A"
_symmetry_group_IT_number 68
_space_group.IT_coordinate_system_code '2'
_symmetry_cell_setting 'orthorhombic'
loop_
_space_group_symop_operation_xyz
x,y,z
-x,1/2-y,z
x,1/2-y,1/2-z
-x,y,1/2-z
-x,-y,-z
x,1/2+y,-z
-x,1/2+y,1/2+z
x,-y,1/2+z
1/2+x,1/2+y,z
1/2-x,-y,z
1/2+x,-y,1/2-z
1/2-x,1/2+y,1/2-z
1/2-x,1/2-y,-z
1/2+x,y,-z
1/2-x,y,1/2+z
1/2+x,1/2-y,1/2+z
loop_
_atom_site_type_symbol
_atom_site_label
_atom_site_fract_x
_atom_site_fract_y
_atom_site_fract_z
Si Si1 0.235524 0.367557 0.686923
Si Si2 0.088107 0.873214 0.552290
Si Si3 0.000000 0.250000 0.946605
Si Si4 0.950741 0.435554 0.694982
Si Si5 0.661919 0.195985 0.647533
Si Si6 0.874263 0.941592 0.146404
O O1 0.232377 0.250000 0.750000
O O2 0.250000 0.500000 0.726662
O O3 0.281864 0.339216 0.617588
O O4 0.180005 0.383935 0.649843
O O5 0.130666 0.783160 0.584104
O O6 0.106137 0.934721 0.458247
O O7 0.038769 0.810431 0.515828
O O8 0.074893 0.963385 0.634126
O O9 0.029737 0.337913 0.877817
O O10 0.911864 0.393740 0.774643
O O11 0.000000 0.477573 0.750000
O O12 0.667382 0.250000 0.750000
O O13 0.631996 0.078178 0.664125
#
# Coordination Sequence:
#
# PCOD9508297 Si02
#       6
#    16  16   8  16  16  16
#     4   9  21  41  72 101 138 181 236 288 354 426
#     4  12  26  41  69  97 136 177 232 286 343 422
#     4  12  27  42  63  98 140 174 233 294 341 418
#     4  12  26  44  66  97 137 185 228 285 353 413
#     4  10  21  45  67  96 135 180 229 287 349 421
#     4  11  24  43  69 100 134 183 228 286 354 416
#
# _framework density 19.986239000000001
#
# number of rings (size 3 to 8) (size 9 to 14) (size 15 to 20)
#    0.000    1.091    3.636    1.909    5.091    0.727 
#    0.000    0.000    8.000    0.000    0.000    0.000 
#    0.000    0.000    0.000    0.000    0.000    0.000 
#
# Total GULP energy -245329.346150 kJ/mol
# GULP energy per Si atom -5575.666958 kJ/mol
# Density = 1.994075 g / cm^3
# Si number density = 19.986239 Si / 1000 Ang^3
#
#
#
# Elastic Constant Matrix: (Units=GPa)
#
#
# Indices 1 2 3 4 5 6 
#
# 1 117.3653 34.7232 37.3370 0.0000 0.0000 0.0000
# 2 34.7232 97.1561 24.2033 0.0000 0.0000 0.0000
# 3 37.3370 24.2033 83.1472 0.0000 0.0000 0.0000
# 4 0.0000 0.0000 0.0000 19.8065 0.0000 0.0000
# 5 0.0000 0.0000 0.0000 0.0000 45.6299 0.0000
# 6 0.0000 0.0000 0.0000 0.0000 0.0000 40.4326
#
#
#
# Elastic Compliance Matrix: (Units=1/GPa)
#
#
# Indices 1 2 3 4 5 6 
#
# 1 0.010606 -0.002808 -0.003945 0.000000 0.000000 0.000000
# 2 -0.002808 0.011841 -0.002186 0.000000 0.000000 0.000000
# 3 -0.003945 -0.002186 0.014435 0.000000 0.000000 0.000000
# 4 0.000000 0.000000 0.000000 0.050488 0.000000 0.000000
# 5 0.000000 0.000000 0.000000 0.000000 0.021915 0.000000
# 6 0.000000 0.000000 0.000000 0.000000 0.000000 0.024733
#
#
# Mechanical properties :
#
#
# Convention : Reuss Voigt Hill
#
# Bulk Modulus (GPa) = 52.62135 54.46619 53.54377
# Shear Modulus (GPa) = 31.59939 34.60081 33.10010
#
# Velocity S-wave (km/s) = 3.98057 4.16532 4.07399
# Velocity P-wave (km/s) = 6.89293 7.10241 6.99845
#
# Compressibility (1/GPa) = 0.01900369
#
# Stress axis : x y z
#
# Youngs Moduli (GPa) = 94.28425 84.45419 69.27692
#
# Poissons Ratio (x) = 0.23713 0.27332
# Poissons Ratio (y) = 0.26473 0.15143
# Poissons Ratio (z) = 0.37199 0.18461
#
# Static dielectric constant tensor:
#      x y z
#    x 1.805870 0.000000 0.000000 
#    y 0.000000 1.688170 0.000000 
#    z 0.000000 0.000000 1.677620 
# 
# From -- ./inp_files/21153.got.cif
#   From: 2010.05.17/outbox.cif.g08.bks.cpg/sg68_11_cif.got.tgz:21153.got - 2010.06.03 18:57:09.
