data_PCOD9508448
_publ_section_title
;
Structure prediction by ZEFSAII (Michael W. Deem and Ramdas Pophale) SiO2 
 PCOD9508448
Probable space group: C C C A
;
_chemical_formula_sum "Si O2"
_cell_formula_units_Z 80
_cell_length_a 10.753765
_cell_length_b 16.124493
_cell_length_c 22.886840
_cell_angle_alpha 90.000000
_cell_angle_beta 90.000000
_cell_angle_gamma 90.000000
_cell_volume 3968.555363
_symmetry_space_group_name_H-M "C C C A"
_symmetry_group_IT_number 68
_space_group.IT_coordinate_system_code '2'
_symmetry_cell_setting 'orthorhombic'
loop_
_space_group_symop_operation_xyz
x,y,z
-x,1/2-y,z
x,1/2-y,1/2-z
-x,y,1/2-z
-x,-y,-z
x,1/2+y,-z
-x,1/2+y,1/2+z
x,-y,1/2+z
1/2+x,1/2+y,z
1/2-x,-y,z
1/2+x,-y,1/2-z
1/2-x,1/2+y,1/2-z
1/2-x,1/2-y,-z
1/2+x,y,-z
1/2-x,y,1/2+z
1/2+x,1/2-y,1/2+z
loop_
_atom_site_type_symbol
_atom_site_label
_atom_site_fract_x
_atom_site_fract_y
_atom_site_fract_z
Si Si1 0.000000 0.250000 0.447491
Si Si2 0.341481 0.609488 0.108939
Si Si3 0.555982 0.014010 0.418896
Si Si4 0.849758 0.151737 0.241172
Si Si5 0.118959 0.616344 0.016927
Si Si6 0.250000 0.000000 0.680879
O O1 0.934969 0.317052 0.407427
O O2 0.897283 0.204245 0.486387
O O3 0.425433 0.528420 0.099237
O O4 0.309263 0.623477 0.176227
O O5 0.229740 0.611954 0.062830
O O6 0.622738 0.953118 0.465674
O O7 0.637795 0.024276 0.362179
O O8 0.513261 0.096699 0.451676
O O9 0.817823 0.250000 0.250000
O O10 0.000000 0.145814 0.250000
O O11 0.789471 0.082169 0.283351
#
# Coordination Sequence:
#
# PCOD9508448 Si02
#       6
#     8  16  16  16  16   8
#     4  10  22  38  63 104 131 170 214 276 348 392
#     4  11  22  42  66  93 132 174 224 274 327 410
#     4  10  24  40  63  99 130 171 219 275 342 400
#     4  11  25  45  68  99 131 183 237 275 332 404
#     4  10  23  39  66  97 134 170 215 269 345 410
#     4  12  26  42  70  98 140 176 230 294 328 394
#
# _framework density 20.158470000000001
#
# number of rings (size 3 to 8) (size 9 to 14) (size 15 to 20)
#    0.000    1.400    2.000    2.400   14.000    1.600 
#    0.000    0.000    0.000    1.800    0.000    0.000 
#    0.000    0.000    0.000    0.000    0.000    0.000 
#
# Total GULP energy -223452.663257 kJ/mol
# GULP energy per Si atom -5586.316581 kJ/mol
# Density = 2.011259 g / cm^3
# Si number density = 20.158470 Si / 1000 Ang^3
#
#
#
# Elastic Constant Matrix: (Units=GPa)
#
#
# Indices 1 2 3 4 5 6 
#
# 1 57.9863 8.0502 34.2724 0.0000 0.0000 0.0000
# 2 8.0502 63.3331 17.7100 0.0000 0.0000 0.0000
# 3 34.2724 17.7100 134.0886 0.0000 0.0000 0.0000
# 4 0.0000 0.0000 0.0000 9.2994 0.0000 0.0000
# 5 0.0000 0.0000 0.0000 0.0000 22.6624 0.0000
# 6 0.0000 0.0000 0.0000 0.0000 0.0000 23.0749
#
#
#
# Elastic Compliance Matrix: (Units=1/GPa)
#
#
# Indices 1 2 3 4 5 6 
#
# 1 0.020399 -0.001178 -0.005058 0.000000 0.000000 0.000000
# 2 -0.001178 0.016463 -0.001873 0.000000 0.000000 0.000000
# 3 -0.005058 -0.001873 0.008998 0.000000 0.000000 0.000000
# 4 0.000000 0.000000 0.000000 0.107533 0.000000 0.000000
# 5 0.000000 0.000000 0.000000 0.000000 0.044126 0.000000
# 6 0.000000 0.000000 0.000000 0.000000 0.000000 0.043337
#
#
# Mechanical properties :
#
#
# Convention : Reuss Voigt Hill
#
# Bulk Modulus (GPa) = 33.73792 41.71923 37.72857
# Shear Modulus (GPa) = 18.72969 24.03238 21.38104
#
# Velocity S-wave (km/s) = 3.05146 3.45653 3.26029
# Velocity P-wave (km/s) = 5.40258 6.05563 5.73841
#
# Compressibility (1/GPa) = 0.02964024
#
# Stress axis : x y z
#
# Youngs Moduli (GPa) = 49.02287 60.74184 111.13587
#
# Poissons Ratio (x) = 0.07158 0.56214
# Poissons Ratio (y) = 0.05777 0.20818
# Poissons Ratio (z) = 0.24796 0.11378
#
# Static dielectric constant tensor:
#      x y z
#    x 1.718790 0.000000 0.000000 
#    y 0.000000 1.735960 0.000000 
#    z 0.000000 0.000000 1.724720 
# 
# From -- ./inp_files/37384.got.cif
#   From: 2010.05.17/outbox.cif.g08.bks.cpg/sg68_19_cif.got.tgz:37384.got - 2010.06.03 18:57:09.
