data_PCOD9508650
_publ_section_title
;
Structure prediction by ZEFSAII (Michael W. Deem and Ramdas Pophale) SiO2 
 PCOD9508650
Probable space group: C C C A
;
_chemical_formula_sum "Si O2"
_cell_formula_units_Z 64
_cell_length_a 16.406403
_cell_length_b 8.706956
_cell_length_c 19.660575
_cell_angle_alpha 90.000000
_cell_angle_beta 90.000000
_cell_angle_gamma 90.000000
_cell_volume 2808.509778
_symmetry_space_group_name_H-M "C C C A"
_symmetry_group_IT_number 68
_space_group.IT_coordinate_system_code '2'
_symmetry_cell_setting 'orthorhombic'
loop_
_space_group_symop_operation_xyz
x,y,z
-x,1/2-y,z
x,1/2-y,1/2-z
-x,y,1/2-z
-x,-y,-z
x,1/2+y,-z
-x,1/2+y,1/2+z
x,-y,1/2+z
1/2+x,1/2+y,z
1/2-x,-y,z
1/2+x,-y,1/2-z
1/2-x,1/2+y,1/2-z
1/2-x,1/2-y,-z
1/2+x,y,-z
1/2-x,y,1/2+z
1/2+x,1/2-y,1/2+z
loop_
_atom_site_type_symbol
_atom_site_label
_atom_site_fract_x
_atom_site_fract_y
_atom_site_fract_z
Si Si1 0.901039 0.742361 0.018810
Si Si2 0.117151 0.542204 0.597929
Si Si3 0.046788 0.087286 0.646120
Si Si4 0.665301 0.065719 0.748570
O O1 0.894005 0.625563 0.082678
O O2 0.000000 0.750000 0.010361
O O3 0.868361 0.901329 0.047097
O O4 0.865547 0.690413 0.947213
O O5 0.160442 0.523546 0.669212
O O6 0.021779 0.528580 0.618479
O O7 0.000000 0.250000 0.661545
O O8 0.093482 0.015595 0.709361
O O9 0.659812 0.250000 0.750000
O O10 0.750000 0.000000 0.776382
#
# Coordination Sequence:
#
# PCOD9508650 Si02
#       4
#    16  16  16  16
#     4   9  19  36  69 100 140 168 224 295 357 410
#     4  10  22  40  69 106 132 178 232 291 357 428
#     4   9  21  43  75 101 136 182 235 296 356 417
#     4  12  30  46  69 102 149 192 244 291 353 424
#
# _framework density 22.787884999999999
#
# number of rings (size 3 to 8) (size 9 to 14) (size 15 to 20)
#    0.000    2.500    0.000    3.750   14.000    5.000 
#    0.000    2.500    0.000    0.000    0.000    0.000 
#    0.000    0.000    0.000    0.000    0.000    0.000 
#
# Total GULP energy -178812.148872 kJ/mol
# GULP energy per Si atom -5587.879652 kJ/mol
# Density = 2.273602 g / cm^3
# Si number density = 22.787885 Si / 1000 Ang^3
#
#
#
# Elastic Constant Matrix: (Units=GPa)
#
#
# Indices 1 2 3 4 5 6 
#
# 1 43.9897 40.1687 41.0073 0.0000 0.0000 0.0000
# 2 40.1687 83.4593 53.1035 0.0000 0.0000 0.0000
# 3 41.0073 53.1035 142.6846 0.0000 0.0000 0.0000
# 4 0.0000 0.0000 0.0000 13.4798 0.0000 0.0000
# 5 0.0000 0.0000 0.0000 0.0000 3.2210 0.0000
# 6 0.0000 0.0000 0.0000 0.0000 0.0000 11.9538
#
#
#
# Elastic Compliance Matrix: (Units=1/GPa)
#
#
# Indices 1 2 3 4 5 6 
#
# 1 0.044514 -0.017406 -0.006315 0.000000 0.000000 0.000000
# 2 -0.017406 0.022506 -0.003374 0.000000 0.000000 0.000000
# 3 -0.006315 -0.003374 0.010079 0.000000 0.000000 0.000000
# 4 0.000000 0.000000 0.000000 0.074185 0.000000 0.000000
# 5 0.000000 0.000000 0.000000 0.000000 0.310460 0.000000
# 6 0.000000 0.000000 0.000000 0.000000 0.000000 0.083656
#
#
# Mechanical properties :
#
#
# Convention : Reuss Voigt Hill
#
# Bulk Modulus (GPa) = 43.65097 59.85473 51.75285
# Shear Modulus (GPa) = 8.23416 14.78786 11.51101
#
# Velocity S-wave (km/s) = 1.90296 2.55018 2.24996
# Velocity P-wave (km/s) = 4.90156 5.91560 5.43229
#
# Compressibility (1/GPa) = 0.02290900
#
# Stress axis : x y z
#
# Youngs Moduli (GPa) = 22.46493 44.43255 99.21641
#
# Poissons Ratio (x) = 0.77340 0.62656
# Poissons Ratio (y) = 0.39103 0.33472
# Poissons Ratio (z) = 0.14187 0.14990
#
# Static dielectric constant tensor:
#      x y z
#    x 1.912650 0.000000 0.000000 
#    y 0.000000 1.801740 0.000000 
#    z 0.000000 0.000000 1.856550 
# 
# From -- ./inp_files/44994.got.cif
#   From: 2010.05.17/outbox.cif.g08.bks.cpg/sg68_23_cif.got.tgz:44994.got - 2010.06.03 18:57:09.
