data_PCOD9508846
_publ_section_title
;
Structure prediction by ZEFSAII (Michael W. Deem and Ramdas Pophale) SiO2 
 PCOD9508846
Probable space group: C C C A
;
_chemical_formula_sum "Si O2"
_cell_formula_units_Z 56
_cell_length_a 22.227459
_cell_length_b 7.411847
_cell_length_c 16.432457
_cell_angle_alpha 90.000000
_cell_angle_beta 90.000000
_cell_angle_gamma 90.000000
_cell_volume 2707.190193
_symmetry_space_group_name_H-M "C C C A"
_symmetry_group_IT_number 68
_space_group.IT_coordinate_system_code '2'
_symmetry_cell_setting 'orthorhombic'
loop_
_space_group_symop_operation_xyz
x,y,z
-x,1/2-y,z
x,1/2-y,1/2-z
-x,y,1/2-z
-x,-y,-z
x,1/2+y,-z
-x,1/2+y,1/2+z
x,-y,1/2+z
1/2+x,1/2+y,z
1/2-x,-y,z
1/2+x,-y,1/2-z
1/2-x,1/2+y,1/2-z
1/2-x,1/2-y,-z
1/2+x,y,-z
1/2-x,y,1/2+z
1/2+x,1/2-y,1/2+z
loop_
_atom_site_type_symbol
_atom_site_label
_atom_site_fract_x
_atom_site_fract_y
_atom_site_fract_z
Si Si1 0.918747 0.641745 0.428982
Si Si2 0.399692 0.250000 0.750000
Si Si3 0.683044 0.576357 0.811954
Si Si4 0.461057 0.540750 0.393547
O O1 0.851200 0.614266 0.397583
O O2 0.935631 0.837774 0.394856
O O3 0.933919 0.631935 0.524733
O O4 0.967359 0.496618 0.395779
O O5 0.356535 0.087338 0.777516
O O6 0.439627 0.346577 0.817863
O O7 0.681986 0.750000 0.750000
O O8 0.750000 0.500000 0.822133
#
# Coordination Sequence:
#
# PCOD9508846 Si02
#       4
#    16   8  16  16
#     4  10  22  44  69 103 146 184 233 291 358 428
#     4  12  24  43  72 100 142 181 238 296 354 417
#     4  12  25  45  67  99 142 191 242 291 346 423
#     4  10  22  42  72 106 143 180 229 301 360 423
#
# _framework density 20.685655000000001
#
# number of rings (size 3 to 8) (size 9 to 14) (size 15 to 20)
#    0.000    1.143    4.286    1.714    0.000    5.714 
#    0.000    7.143    0.000    0.000    0.000    0.000 
#    0.000    0.000    0.000    0.000    0.000    0.000 
#
# Total GULP energy -156381.720630 kJ/mol
# GULP energy per Si atom -5585.061451 kJ/mol
# Density = 2.063857 g / cm^3
# Si number density = 20.685655 Si / 1000 Ang^3
#
#
#
# Elastic Constant Matrix: (Units=GPa)
#
#
# Indices 1 2 3 4 5 6 
#
# 1 174.6022 67.1963 98.4347 0.0000 0.0000 0.0000
# 2 67.1963 152.7967 81.4162 0.0000 0.0000 0.0000
# 3 98.4347 81.4162 132.7050 0.0000 0.0000 0.0000
# 4 0.0000 0.0000 0.0000 70.9989 0.0000 0.0000
# 5 0.0000 0.0000 0.0000 0.0000 22.2484 0.0000
# 6 0.0000 0.0000 0.0000 0.0000 0.0000 39.1128
#
#
#
# Elastic Compliance Matrix: (Units=1/GPa)
#
#
# Indices 1 2 3 4 5 6 
#
# 1 0.009888 -0.000654 -0.006933 0.000000 0.000000 0.000000
# 2 -0.000654 0.009766 -0.005507 0.000000 0.000000 0.000000
# 3 -0.006933 -0.005507 0.016056 0.000000 0.000000 0.000000
# 4 0.000000 0.000000 0.000000 0.014085 0.000000 0.000000
# 5 0.000000 0.000000 0.000000 0.000000 0.044947 0.000000
# 6 0.000000 0.000000 0.000000 0.000000 0.000000 0.025567
#
#
# Mechanical properties :
#
#
# Convention : Reuss Voigt Hill
#
# Bulk Modulus (GPa) = 105.00720 106.02203 105.51461
# Shear Modulus (GPa) = 33.40668 40.67582 37.04125
#
# Velocity S-wave (km/s) = 4.02303 4.43920 4.23623
# Velocity P-wave (km/s) = 8.51194 8.81138 8.66296
#
# Compressibility (1/GPa) = 0.00952316
#
# Stress axis : x y z
#
# Youngs Moduli (GPa) = 101.13731 102.39102 62.28095
#
# Poissons Ratio (x) = 0.06699 0.43178
# Poissons Ratio (y) = 0.06617 0.34295
# Poissons Ratio (z) = 0.70116 0.56382
#
# Static dielectric constant tensor:
#      x y z
#    x 1.726360 0.000000 0.000000 
#    y 0.000000 1.769750 0.000000 
#    z 0.000000 0.000000 1.774720 
# 
# From -- ./inp_files/24154.got.cif
#   From: 2010.05.17/outbox.cif.g08.bks.cpg/sg68_13_cif.got.tgz:24154.got - 2010.06.03 18:57:09.
