data_PCOD9508138
_publ_section_title
;
Structure prediction by ZEFSAII (Michael W. Deem and Ramdas Pophale) SiO2 
 PCOD9508138
Probable space group: C C C A
;
_chemical_formula_sum "Si O2"
_cell_formula_units_Z 80
_cell_length_a 17.347680
_cell_length_b 9.267672
_cell_length_c 26.542468
_cell_angle_alpha 90.000000
_cell_angle_beta 90.000000
_cell_angle_gamma 90.000000
_cell_volume 4267.301808
_symmetry_space_group_name_H-M "C C C A"
_symmetry_group_IT_number 68
_space_group.IT_coordinate_system_code '2'
_symmetry_cell_setting 'orthorhombic'
loop_
_space_group_symop_operation_xyz
x,y,z
-x,1/2-y,z
x,1/2-y,1/2-z
-x,y,1/2-z
-x,-y,-z
x,1/2+y,-z
-x,1/2+y,1/2+z
x,-y,1/2+z
1/2+x,1/2+y,z
1/2-x,-y,z
1/2+x,-y,1/2-z
1/2-x,1/2+y,1/2-z
1/2-x,1/2-y,-z
1/2+x,y,-z
1/2-x,y,1/2+z
1/2+x,1/2-y,1/2+z
loop_
_atom_site_type_symbol
_atom_site_label
_atom_site_fract_x
_atom_site_fract_y
_atom_site_fract_z
Si Si1 0.250000 0.000000 0.128266
Si Si2 0.162277 0.551881 0.535896
Si Si3 0.866626 0.544868 0.846923
Si Si4 0.878025 0.625019 0.554250
Si Si5 0.000000 0.250000 0.371283
Si Si6 0.216298 0.720859 0.190912
O O1 0.186115 0.064193 0.091596
O O2 0.286363 0.127206 0.161984
O O3 0.250000 0.500000 0.527503
O O4 0.140298 0.514660 0.593276
O O5 0.152603 0.723026 0.532898
O O6 0.110871 0.478295 0.493157
O O7 0.853457 0.391159 0.819974
O O8 0.793567 0.641692 0.829707
O O9 0.942702 0.644048 0.840621
O O10 0.949871 0.653898 0.590373
O O11 0.223015 0.750000 0.250000
#
# Coordination Sequence:
#
# PCOD9508138 Si02
#       6
#     8  16  16  16   8  16
#     4  12  20  38  62  98 118 166 210 270 310 378
#     4  11  19  36  59  94 125 168 218 257 305 375
#     4  10  21  41  66  93 130 172 202 273 318 389
#     4  11  24  33  64  87 131 167 213 252 315 386
#     4  10  22  46  59  96 134 170 207 254 338 384
#     4  11  22  40  69  96 118 159 230 267 318 375
#
# _framework density 18.747209000000002
#
# number of rings (size 3 to 8) (size 9 to 14) (size 15 to 20)
#    0.000    1.200    7.000    1.800    2.800    3.200 
#    0.000    1.500    0.000    1.200    0.000    0.000 
#    0.000    0.000    0.000    0.000    0.000    0.000 
#
# Total GULP energy -223218.035850 kJ/mol
# GULP energy per Si atom -5580.450896 kJ/mol
# Density = 1.870454 g / cm^3
# Si number density = 18.747209 Si / 1000 Ang^3
#
#
#
# Elastic Constant Matrix: (Units=GPa)
#
#
# Indices 1 2 3 4 5 6 
#
# 1 91.6924 38.1139 20.8149 0.0000 0.0000 0.0000
# 2 38.1139 141.1990 58.0092 0.0000 0.0000 0.0000
# 3 20.8149 58.0092 115.7877 0.0000 0.0000 0.0000
# 4 0.0000 0.0000 0.0000 21.7091 0.0000 0.0000
# 5 0.0000 0.0000 0.0000 0.0000 8.1951 0.0000
# 6 0.0000 0.0000 0.0000 0.0000 0.0000 33.0249
#
#
#
# Elastic Compliance Matrix: (Units=1/GPa)
#
#
# Indices 1 2 3 4 5 6 
#
# 1 0.012328 -0.003044 -0.000691 0.000000 0.000000 0.000000
# 2 -0.003044 0.009669 -0.004297 0.000000 0.000000 0.000000
# 3 -0.000691 -0.004297 0.010914 0.000000 0.000000 0.000000
# 4 0.000000 0.000000 0.000000 0.046064 0.000000 0.000000
# 5 0.000000 0.000000 0.000000 0.000000 0.122024 0.000000
# 6 0.000000 0.000000 0.000000 0.000000 0.000000 0.030280
#
#
# Mechanical properties :
#
#
# Convention : Reuss Voigt Hill
#
# Bulk Modulus (GPa) = 59.35873 64.72834 62.04354
# Shear Modulus (GPa) = 19.76609 28.03522 23.90066
#
# Velocity S-wave (km/s) = 3.25060 3.87128 3.57444
# Velocity P-wave (km/s) = 6.76904 7.38812 7.08535
#
# Compressibility (1/GPa) = 0.01684672
#
# Stress axis : x y z
#
# Youngs Moduli (GPa) = 81.11515 103.42153 91.62902
#
# Poissons Ratio (x) = 0.31479 0.06334
# Poissons Ratio (y) = 0.24689 0.39373
# Poissons Ratio (z) = 0.05608 0.44441
#
# Static dielectric constant tensor:
#      x y z
#    x 1.639840 0.000000 0.000000 
#    y 0.000000 1.672830 0.000000 
#    z 0.000000 0.000000 1.624780 
# 
# From -- ./inp_files/51335.got.cif
#   From: 2010.05.17/outbox.cif.g08.bks.cpg/sg68_26_cif.got.tgz:51335.got - 2010.06.03 18:57:09.
