data_PCOD9508434
_publ_section_title
;
Structure prediction by ZEFSAII (Michael W. Deem and Ramdas Pophale) SiO2 
 PCOD9508434
Probable space group: C C C A
;
_chemical_formula_sum "Si O2"
_cell_formula_units_Z 72
_cell_length_a 15.578284
_cell_length_b 14.729553
_cell_length_c 14.786026
_cell_angle_alpha 90.000000
_cell_angle_beta 90.000000
_cell_angle_gamma 90.000000
_cell_volume 3392.818675
_symmetry_space_group_name_H-M "C C C A"
_symmetry_group_IT_number 68
_space_group.IT_coordinate_system_code '2'
_symmetry_cell_setting 'orthorhombic'
loop_
_space_group_symop_operation_xyz
x,y,z
-x,1/2-y,z
x,1/2-y,1/2-z
-x,y,1/2-z
-x,-y,-z
x,1/2+y,-z
-x,1/2+y,1/2+z
x,-y,1/2+z
1/2+x,1/2+y,z
1/2-x,-y,z
1/2+x,-y,1/2-z
1/2-x,1/2+y,1/2-z
1/2-x,1/2-y,-z
1/2+x,y,-z
1/2-x,y,1/2+z
1/2+x,1/2-y,1/2+z
loop_
_atom_site_type_symbol
_atom_site_label
_atom_site_fract_x
_atom_site_fract_y
_atom_site_fract_z
Si Si1 0.931509 0.949403 0.439961
Si Si2 0.500000 0.510436 0.750000
Si Si3 0.809127 0.382792 0.083071
Si Si4 0.845728 0.699480 0.961437
Si Si5 0.682776 0.419803 0.789842
O O1 0.919755 0.855975 0.490881
O O2 0.964081 0.937994 0.337664
O O3 0.848024 0.018032 0.439973
O O4 0.000000 0.000000 0.500000
O O5 0.584046 0.454256 0.782049
O O6 0.874622 0.302210 0.057860
O O7 0.791369 0.386504 0.189870
O O8 0.730511 0.335426 0.029713
O O9 0.817083 0.656814 0.865770
O O10 0.750000 0.500000 0.814719
#
# Coordination Sequence:
#
# PCOD9508434 Si02
#       5
#    16   8  16  16  16
#     4  11  21  39  62  90 126 165 211 267 326 390
#     4  10  22  38  61  99 120 166 220 262 323 391
#     4  10  23  39  60  94 126 163 219 267 324 392
#     4  11  22  40  64  93 126 171 216 268 331 394
#     4  11  21  39  66  92 131 169 217 270 329 396
#
# _framework density 21.221294
#
# number of rings (size 3 to 8) (size 9 to 14) (size 15 to 20)
#    0.000    1.333    2.222    5.333    0.000    0.889 
#    0.000    1.111    0.000    1.333    0.000    0.000 
#    0.000    0.000    0.000    0.000    0.000    0.000 
#
# Total GULP energy -200486.248078 kJ/mol
# GULP energy per Si atom -5569.062447 kJ/mol
# Density = 2.117299 g / cm^3
# Si number density = 21.221294 Si / 1000 Ang^3
#
#
#
# Elastic Constant Matrix: (Units=GPa)
#
#
# Indices 1 2 3 4 5 6 
#
# 1 61.7975 -18.4997 -13.1866 0.0000 0.0000 0.0000
# 2 -18.4997 80.9423 1.1908 0.0000 0.0000 0.0000
# 3 -13.1866 1.1908 69.4202 0.0000 0.0000 0.0000
# 4 0.0000 0.0000 0.0000 10.6612 0.0000 0.0000
# 5 0.0000 0.0000 0.0000 0.0000 33.1403 0.0000
# 6 0.0000 0.0000 0.0000 0.0000 0.0000 15.6276
#
#
#
# Elastic Compliance Matrix: (Units=1/GPa)
#
#
# Indices 1 2 3 4 5 6 
#
# 1 0.018127 0.004093 0.003373 0.000000 0.000000 0.000000
# 2 0.004093 0.013282 0.000550 0.000000 0.000000 0.000000
# 3 0.003373 0.000550 0.015036 0.000000 0.000000 0.000000
# 4 0.000000 0.000000 0.000000 0.093798 0.000000 0.000000
# 5 0.000000 0.000000 0.000000 0.000000 0.030175 0.000000
# 6 0.000000 0.000000 0.000000 0.000000 0.000000 0.063990
#
#
# Mechanical properties :
#
#
# Convention : Reuss Voigt Hill
#
# Bulk Modulus (GPa) = 16.00573 16.79657 16.40115
# Shear Modulus (GPa) = 20.90287 28.06283 24.48285
#
# Velocity S-wave (km/s) = 3.14187 3.64041 3.40029
# Velocity P-wave (km/s) = 4.55197 5.05987 4.81263
#
# Compressibility (1/GPa) = 0.06247762
#
# Stress axis : x y z
#
# Youngs Moduli (GPa) = 55.16624 75.29013 66.50566
#
# Poissons Ratio (x) = -0.30819 -0.22433
# Poissons Ratio (y) = -0.22582 -0.03656
# Poissons Ratio (z) = -0.18608 -0.04139
#
# Static dielectric constant tensor:
#      x y z
#    x 2.007440 0.000000 0.000000 
#    y 0.000000 1.823410 0.000000 
#    z 0.000000 0.000000 1.729000 
# 
# From -- ./inp_files/23342.got.cif
#   From: 2010.05.17/outbox.cif.g08.bks.cpg/sg68_12_cif.got.tgz:23342.got - 2010.06.03 18:57:09.
