data_PCOD9508939
_publ_section_title
;
Structure prediction by ZEFSAII (Michael W. Deem and Ramdas Pophale) SiO2 
 PCOD9508939
Probable space group: C C C A
;
_chemical_formula_sum "Si O2"
_cell_formula_units_Z 96
_cell_length_a 14.252498
_cell_length_b 22.617968
_cell_length_c 14.865876
_cell_angle_alpha 90.000000
_cell_angle_beta 90.000000
_cell_angle_gamma 90.000000
_cell_volume 4792.201601
_symmetry_space_group_name_H-M "C C C A"
_symmetry_group_IT_number 68
_space_group.IT_coordinate_system_code '2'
_symmetry_cell_setting 'orthorhombic'
loop_
_space_group_symop_operation_xyz
x,y,z
-x,1/2-y,z
x,1/2-y,1/2-z
-x,y,1/2-z
-x,-y,-z
x,1/2+y,-z
-x,1/2+y,1/2+z
x,-y,1/2+z
1/2+x,1/2+y,z
1/2-x,-y,z
1/2+x,-y,1/2-z
1/2-x,1/2+y,1/2-z
1/2-x,1/2-y,-z
1/2+x,y,-z
1/2-x,y,1/2+z
1/2+x,1/2-y,1/2+z
loop_
_atom_site_type_symbol
_atom_site_label
_atom_site_fract_x
_atom_site_fract_y
_atom_site_fract_z
Si Si1 0.792479 0.618723 0.234121
Si Si2 0.008324 0.644074 0.643992
Si Si3 0.000000 0.584604 0.250000
Si Si4 0.750000 0.000000 0.656451
Si Si5 0.194975 0.330484 0.429847
Si Si6 0.455641 0.509180 0.097037
Si Si7 0.289490 0.193507 0.889070
O O1 0.760529 0.557342 0.280011
O O2 0.752131 0.625508 0.134529
O O3 0.747203 0.670117 0.294203
O O4 0.904660 0.620976 0.239098
O O5 0.914857 0.661396 0.590213
O O6 0.000000 0.659887 0.750000
O O7 0.018837 0.573527 0.635359
O O8 0.101626 0.674553 0.604940
O O9 0.009169 0.541595 0.164254
O O10 0.656901 0.005276 0.597514
O O11 0.227912 0.336946 0.532453
O O12 0.219662 0.263433 0.401229
O O13 0.500000 0.500000 0.000000
#
# Coordination Sequence:
#
# PCOD9508939 Si02
#       7
#    16  16   8   8  16  16  16
#     4  11  23  43  67  89 137 172 214 272 334 386
#     4  12  23  43  71  99 130 175 226 283 329 392
#     4  10  26  42  57  98 131 168 214 264 314 420
#     4  10  22  44  62  98 132 170 214 274 318 412
#     4  11  26  42  69  98 129 176 224 280 328 389
#     4  11  24  41  65  94 132 171 218 262 336 394
#     4  11  25  45  65 100 132 168 232 273 330 398
#
# _framework density 20.032546
#
# number of rings (size 3 to 8) (size 9 to 14) (size 15 to 20)
#    0.000    1.000    4.167    1.000    9.333    0.667 
#    0.000    4.167    0.000    0.000    0.000    0.000 
#    0.000    0.000    0.000    0.000    0.000    0.000 
#
# Total GULP energy -268519.358207 kJ/mol
# GULP energy per Si atom -5594.153296 kJ/mol
# Density = 1.998695 g / cm^3
# Si number density = 20.032546 Si / 1000 Ang^3
#
#
#
# Elastic Constant Matrix: (Units=GPa)
#
#
# Indices 1 2 3 4 5 6 
#
# 1 144.8218 7.3540 44.1922 0.0000 0.0000 0.0000
# 2 7.3540 32.6966 -11.1641 0.0000 0.0000 0.0000
# 3 44.1922 -11.1641 94.1741 0.0000 0.0000 0.0000
# 4 0.0000 0.0000 0.0000 16.3451 0.0000 0.0000
# 5 0.0000 0.0000 0.0000 0.0000 34.6587 0.0000
# 6 0.0000 0.0000 0.0000 0.0000 0.0000 23.9366
#
#
#
# Elastic Compliance Matrix: (Units=1/GPa)
#
#
# Indices 1 2 3 4 5 6 
#
# 1 0.008401 -0.003372 -0.004342 0.000000 0.000000 0.000000
# 2 -0.003372 0.033228 0.005522 0.000000 0.000000 0.000000
# 3 -0.004342 0.005522 0.013311 0.000000 0.000000 0.000000
# 4 0.000000 0.000000 0.000000 0.061181 0.000000 0.000000
# 5 0.000000 0.000000 0.000000 0.000000 0.028853 0.000000
# 6 0.000000 0.000000 0.000000 0.000000 0.000000 0.041777
#
#
# Mechanical properties :
#
#
# Convention : Reuss Voigt Hill
#
# Bulk Modulus (GPa) = 19.78068 39.16187 29.47128
# Shear Modulus (GPa) = 24.03990 30.40876 27.22433
#
# Velocity S-wave (km/s) = 3.46792 3.90034 3.69047
# Velocity P-wave (km/s) = 5.09225 6.31467 5.73612
#
# Compressibility (1/GPa) = 0.05055437
#
# Stress axis : x y z
#
# Youngs Moduli (GPa) = 119.02949 30.09514 75.12698
#
# Poissons Ratio (x) = 0.10149 0.32621
# Poissons Ratio (y) = 0.40139 -0.41482
# Poissons Ratio (z) = 0.51684 -0.16617
#
# Static dielectric constant tensor:
#      x y z
#    x 1.695430 0.000000 0.000000 
#    y 0.000000 1.697620 0.000000 
#    z 0.000000 0.000000 1.673930 
# 
# From -- ./inp_files/22405.got.cif
#   From: 2010.05.17/outbox.cif.g08.bks.cpg/sg68_12_cif.got.tgz:22405.got - 2010.06.03 18:57:09.
