data_PCOD9508221
_publ_section_title
;
Structure prediction by ZEFSAII (Michael W. Deem and Ramdas Pophale) SiO2 
 PCOD9508221
Probable space group: C C C A
;
_chemical_formula_sum "Si O2"
_cell_formula_units_Z 80
_cell_length_a 16.215716
_cell_length_b 16.019940
_cell_length_c 13.681365
_cell_angle_alpha 90.000000
_cell_angle_beta 90.000000
_cell_angle_gamma 90.000000
_cell_volume 3554.073821
_symmetry_space_group_name_H-M "C C C A"
_symmetry_group_IT_number 68
_space_group.IT_coordinate_system_code '2'
_symmetry_cell_setting 'orthorhombic'
loop_
_space_group_symop_operation_xyz
x,y,z
-x,1/2-y,z
x,1/2-y,1/2-z
-x,y,1/2-z
-x,-y,-z
x,1/2+y,-z
-x,1/2+y,1/2+z
x,-y,1/2+z
1/2+x,1/2+y,z
1/2-x,-y,z
1/2+x,-y,1/2-z
1/2-x,1/2+y,1/2-z
1/2-x,1/2-y,-z
1/2+x,y,-z
1/2-x,y,1/2+z
1/2+x,1/2-y,1/2+z
loop_
_atom_site_type_symbol
_atom_site_label
_atom_site_fract_x
_atom_site_fract_y
_atom_site_fract_z
Si Si1 0.630669 0.810774 0.172079
Si Si2 0.910369 0.894894 0.235935
Si Si3 0.215907 0.750000 0.250000
Si Si4 0.000000 0.250000 0.480139
Si Si5 0.932274 0.573864 0.477116
Si Si6 0.340074 0.043031 0.671826
O O1 0.588306 0.750000 0.250000
O O2 0.721291 0.730842 0.339250
O O3 0.571835 0.799424 0.080702
O O4 0.647872 0.893384 0.236944
O O5 0.840844 0.829180 0.262372
O O6 0.000000 0.856437 0.250000
O O7 0.905759 0.970098 0.311526
O O8 0.894961 0.937709 0.130614
O O9 0.037109 0.329902 0.533994
O O10 0.866725 0.578170 0.566328
O O11 0.000000 0.500000 0.500000
O O12 0.250000 0.000000 0.672165
#
# Coordination Sequence:
#
# PCOD9508221 Si02
#       6
#    16  16   8   8  16  16
#     4  10  21  42  71 101 135 183 228 283 357 412
#     4  12  26  45  72  96 143 190 235 289 357 426
#     4  10  23  43  66 100 128 190 230 277 361 412
#     4  12  25  44  75 108 144 184 247 304 345 440
#     4  12  27  45  70 111 138 188 246 294 361 428
#     4  12  24  47  72 102 143 182 236 299 358 429
#
# _framework density 22.50938
#
# number of rings (size 3 to 8) (size 9 to 14) (size 15 to 20)
#    0.600    0.000    6.000    1.800    2.800    0.800 
#    3.600    2.000    0.000    0.000    0.000    0.000 
#    0.000    0.000    0.000    0.000    0.000    0.000 
#
# Total GULP energy -222715.258939 kJ/mol
# GULP energy per Si atom -5567.881473 kJ/mol
# Density = 2.245815 g / cm^3
# Si number density = 22.509380 Si / 1000 Ang^3
#
#
#
# Elastic Constant Matrix: (Units=GPa)
#
#
# Indices 1 2 3 4 5 6 
#
# 1 112.4051 35.0524 18.0899 0.0000 0.0000 0.0000
# 2 35.0524 122.2258 31.7196 0.0000 0.0000 0.0000
# 3 18.0899 31.7196 86.8906 0.0000 0.0000 0.0000
# 4 0.0000 0.0000 0.0000 21.9639 0.0000 0.0000
# 5 0.0000 0.0000 0.0000 0.0000 323.3882 0.0000
# 6 0.0000 0.0000 0.0000 0.0000 0.0000 13.9188
#
#
#
# Elastic Compliance Matrix: (Units=1/GPa)
#
#
# Indices 1 2 3 4 5 6 
#
# 1 0.009869 -0.002538 -0.001128 0.000000 0.000000 0.000000
# 2 -0.002538 0.009690 -0.003009 0.000000 0.000000 0.000000
# 3 -0.001128 -0.003009 0.012842 0.000000 0.000000 0.000000
# 4 0.000000 0.000000 0.000000 0.045529 0.000000 0.000000
# 5 0.000000 0.000000 0.000000 0.000000 0.003092 0.000000
# 6 0.000000 0.000000 0.000000 0.000000 0.000000 0.071845
#
#
# Mechanical properties :
#
#
# Convention : Reuss Voigt Hill
#
# Bulk Modulus (GPa) = 52.48914 54.58281 53.53598
# Shear Modulus (GPa) = 28.97387 87.63147 58.30267
#
# Velocity S-wave (km/s) = 3.59164 6.24625 5.09487
# Velocity P-wave (km/s) = 6.36940 8.73627 7.64498
#
# Compressibility (1/GPa) = 0.01905156
#
# Stress axis : x y z
#
# Youngs Moduli (GPa) = 101.32443 103.19683 77.86864
#
# Poissons Ratio (x) = 0.26186 0.08787
# Poissons Ratio (y) = 0.25711 0.23432
# Poissons Ratio (z) = 0.11433 0.31053
#
# Static dielectric constant tensor:
#      x y z
#    x 1.879360 0.000000 0.000000 
#    y 0.000000 1.839290 0.000000 
#    z 0.000000 0.000000 1.856070 
# 
# From -- ./inp_files/23564.got.cif
#   From: 2010.05.17/outbox.cif.g08.bks.cpg/sg68_12_cif.got.tgz:23564.got - 2010.06.03 18:57:09.
