data_PCOD9508325
_publ_section_title
;
Structure prediction by ZEFSAII (Michael W. Deem and Ramdas Pophale) SiO2 
 PCOD9508325
Probable space group: C C C A
;
_chemical_formula_sum "Si O2"
_cell_formula_units_Z 120
_cell_length_a 24.164366
_cell_length_b 12.110212
_cell_length_c 21.898213
_cell_angle_alpha 90.000000
_cell_angle_beta 90.000000
_cell_angle_gamma 90.000000
_cell_volume 6408.196593
_symmetry_space_group_name_H-M "C C C A"
_symmetry_group_IT_number 68
_space_group.IT_coordinate_system_code '2'
_symmetry_cell_setting 'orthorhombic'
loop_
_space_group_symop_operation_xyz
x,y,z
-x,1/2-y,z
x,1/2-y,1/2-z
-x,y,1/2-z
-x,-y,-z
x,1/2+y,-z
-x,1/2+y,1/2+z
x,-y,1/2+z
1/2+x,1/2+y,z
1/2-x,-y,z
1/2+x,-y,1/2-z
1/2-x,1/2+y,1/2-z
1/2-x,1/2-y,-z
1/2+x,y,-z
1/2-x,y,1/2+z
1/2+x,1/2-y,1/2+z
loop_
_atom_site_type_symbol
_atom_site_label
_atom_site_fract_x
_atom_site_fract_y
_atom_site_fract_z
Si Si1 0.895500 0.963726 0.452951
Si Si2 0.786262 0.906147 0.986252
Si Si3 0.907835 0.750000 0.750000
Si Si4 0.713418 0.662373 0.804719
Si Si5 0.950950 0.360876 0.126237
Si Si6 0.164300 0.426975 0.177596
Si Si7 0.692391 0.790661 0.922421
Si Si8 0.573828 0.869909 0.079756
O O1 0.863944 0.853604 0.434161
O O2 0.929205 0.929128 0.513884
O O3 0.844614 0.043141 0.470165
O O4 0.924557 0.024977 0.396748
O O5 0.745973 0.870590 0.930361
O O6 0.750000 0.000000 0.020330
O O7 0.797556 0.801496 0.027133
O O8 0.939578 0.810878 0.806246
O O9 0.870168 0.652604 0.777707
O O10 0.718325 0.750000 0.750000
O O11 0.774593 0.625184 0.826723
O O12 0.676740 0.550785 0.797724
O O13 0.688293 0.732432 0.858779
O O14 0.925388 0.264869 0.081166
O O15 0.016072 0.382322 0.116007
O O16 0.127277 0.418644 0.115685
#
# Coordination Sequence:
#
# PCOD9508325 Si02
#       8
#    16  16   8  16  16  16  16  16
#     4  11  21  36  60  91 126 160 194 261 322 374
#     4   9  20  34  55  85 120 163 203 247 296 386
#     4  10  22  43  66  92 118 168 220 267 316 362
#     4  11  24  39  57  89 125 161 208 253 315 385
#     4  10  23  39  65  92 124 160 218 274 313 378
#     4  10  23  39  63  86 122 164 205 267 310 378
#     4  10  22  34  56  85 124 165 203 238 308 385
#     4  10  22  40  62  93 119 160 210 263 320 374
#
# _framework density 18.726016000000001
#
# number of rings (size 3 to 8) (size 9 to 14) (size 15 to 20)
#    0.000    1.867    0.667    2.000   13.067    4.267 
#    4.800    0.000    0.000    0.000    0.000    0.000 
#    0.000    0.000    0.000    0.000    0.000    0.000 
#
# Total GULP energy -334133.795419 kJ/mol
# GULP energy per Si atom -5568.896590 kJ/mol
# Density = 1.868340 g / cm^3
# Si number density = 18.726016 Si / 1000 Ang^3
#
#
#
# Elastic Constant Matrix: (Units=GPa)
#
#
# Indices 1 2 3 4 5 6 
#
# 1 96.2443 47.6351 44.9261 0.0000 0.0000 0.0000
# 2 47.6351 105.9256 42.3126 0.0000 0.0000 0.0000
# 3 44.9261 42.3126 85.4475 0.0000 0.0000 0.0000
# 4 0.0000 0.0000 0.0000 29.0913 0.0000 0.0000
# 5 0.0000 0.0000 0.0000 0.0000 14.6608 0.0000
# 6 0.0000 0.0000 0.0000 0.0000 0.0000 61.0538
#
#
#
# Elastic Compliance Matrix: (Units=1/GPa)
#
#
# Indices 1 2 3 4 5 6 
#
# 1 0.015376 -0.004594 -0.005809 0.000000 0.000000 0.000000
# 2 -0.004594 0.013141 -0.004092 0.000000 0.000000 0.000000
# 3 -0.005809 -0.004092 0.016784 0.000000 0.000000 0.000000
# 4 0.000000 0.000000 0.000000 0.034375 0.000000 0.000000
# 5 0.000000 0.000000 0.000000 0.000000 0.068209 0.000000
# 6 0.000000 0.000000 0.000000 0.000000 0.000000 0.016379
#
#
# Mechanical properties :
#
#
# Convention : Reuss Voigt Hill
#
# Bulk Modulus (GPa) = 61.31134 61.92943 61.62039
# Shear Modulus (GPa) = 25.16482 31.14409 28.15446
#
# Velocity S-wave (km/s) = 3.66982 4.08259 3.88170
# Velocity P-wave (km/s) = 7.12525 7.44087 7.28477
#
# Compressibility (1/GPa) = 0.01631020
#
# Stress axis : x y z
#
# Youngs Moduli (GPa) = 65.03786 76.09753 59.58158
#
# Poissons Ratio (x) = 0.34959 0.34612
# Poissons Ratio (y) = 0.29878 0.24380
# Poissons Ratio (z) = 0.37782 0.31138
#
# Static dielectric constant tensor:
#      x y z
#    x 1.650250 0.000000 0.000000 
#    y 0.000000 1.683800 0.000000 
#    z 0.000000 0.000000 1.639990 
# 
# From -- ./inp_files/40950.got.cif
#   From: 2010.05.17/outbox.cif.g08.bks.cpg/sg68_21_cif.got.tgz:40950.got - 2010.06.03 18:57:09.
