data_PCOD9508305
_publ_section_title
;
Structure prediction by ZEFSAII (Michael W. Deem and Ramdas Pophale) SiO2 
 PCOD9508305
Probable space group: C C C A
;
_chemical_formula_sum "Si O2"
_cell_formula_units_Z 88
_cell_length_a 13.211759
_cell_length_b 16.859320
_cell_length_c 18.177414
_cell_angle_alpha 90.000000
_cell_angle_beta 90.000000
_cell_angle_gamma 90.000000
_cell_volume 4048.860330
_symmetry_space_group_name_H-M "C C C A"
_symmetry_group_IT_number 68
_space_group.IT_coordinate_system_code '2'
_symmetry_cell_setting 'orthorhombic'
loop_
_space_group_symop_operation_xyz
x,y,z
-x,1/2-y,z
x,1/2-y,1/2-z
-x,y,1/2-z
-x,-y,-z
x,1/2+y,-z
-x,1/2+y,1/2+z
x,-y,1/2+z
1/2+x,1/2+y,z
1/2-x,-y,z
1/2+x,-y,1/2-z
1/2-x,1/2+y,1/2-z
1/2-x,1/2-y,-z
1/2+x,y,-z
1/2-x,y,1/2+z
1/2+x,1/2-y,1/2+z
loop_
_atom_site_type_symbol
_atom_site_label
_atom_site_fract_x
_atom_site_fract_y
_atom_site_fract_z
Si Si1 0.119135 0.243925 0.668177
Si Si2 0.652150 0.564252 0.643328
Si Si3 0.146921 0.425932 0.436512
Si Si4 0.500000 0.026905 0.750000
Si Si5 0.467089 0.162044 0.869812
Si Si6 0.751107 0.673420 0.946875
O O1 0.164225 0.250000 0.750000
O O2 0.132013 0.156610 0.636816
O O3 0.171528 0.308313 0.617361
O O4 0.000000 0.250000 0.672999
O O5 0.776185 0.570052 0.634631
O O6 0.610575 0.516078 0.571927
O O7 0.587513 0.528514 0.712481
O O8 0.211872 0.400652 0.505806
O O9 0.058270 0.364515 0.423457
O O10 0.461084 0.089666 0.811416
O O11 0.500000 0.250000 0.841306
O O12 0.361433 0.166502 0.911966
O O13 0.750000 0.750000 0.000000
#
# Coordination Sequence:
#
# PCOD9508305 Si02
#       6
#    16  16  16   8  16  16
#     4  11  25  44  74 103 136 184 243 305 369 443
#     4  10  21  46  66  97 148 185 230 302 370 429
#     4  10  23  42  68  97 142 190 230 301 368 434
#     4  10  23  40  69  98 144 192 236 302 381 448
#     4  11  22  40  68 105 142 186 251 301 357 438
#     4  12  24  42  71 103 139 191 242 292 365 442
#
# _framework density 21.734511000000001
#
# number of rings (size 3 to 8) (size 9 to 14) (size 15 to 20)
#    0.000    1.273    3.636    1.364    2.545    5.818 
#    0.000   20.000    0.000    0.000    0.000    0.000 
#    0.000    0.000    0.000    0.000    0.000    0.000 
#
# Total GULP energy -245201.578418 kJ/mol
# GULP energy per Si atom -5572.763146 kJ/mol
# Density = 2.168504 g / cm^3
# Si number density = 21.734511 Si / 1000 Ang^3
#
#
#
# Elastic Constant Matrix: (Units=GPa)
#
#
# Indices 1 2 3 4 5 6 
#
# 1 125.4227 17.1316 51.1540 0.0000 0.0000 0.0000
# 2 17.1316 85.4834 18.3224 0.0000 0.0000 0.0000
# 3 51.1540 18.3224 90.7144 0.0000 0.0000 0.0000
# 4 0.0000 0.0000 0.0000 52.0572 0.0000 0.0000
# 5 0.0000 0.0000 0.0000 0.0000 11.4937 0.0000
# 6 0.0000 0.0000 0.0000 0.0000 0.0000 22.2425
#
#
#
# Elastic Compliance Matrix: (Units=1/GPa)
#
#
# Indices 1 2 3 4 5 6 
#
# 1 0.010415 -0.000866 -0.005698 0.000000 0.000000 0.000000
# 2 -0.000866 0.012300 -0.001996 0.000000 0.000000 0.000000
# 3 -0.005698 -0.001996 0.014640 0.000000 0.000000 0.000000
# 4 0.000000 0.000000 0.000000 0.019210 0.000000 0.000000
# 5 0.000000 0.000000 0.000000 0.000000 0.087004 0.000000
# 6 0.000000 0.000000 0.000000 0.000000 0.000000 0.044959
#
#
# Mechanical properties :
#
#
# Convention : Reuss Voigt Hill
#
# Bulk Modulus (GPa) = 49.42054 52.75961 51.09007
# Shear Modulus (GPa) = 23.54125 31.49285 27.51705
#
# Velocity S-wave (km/s) = 3.29466 3.81068 3.56202
# Velocity P-wave (km/s) = 6.10415 6.60976 6.36198
#
# Compressibility (1/GPa) = 0.02023450
#
# Stress axis : x y z
#
# Youngs Moduli (GPa) = 96.01153 81.30399 68.30567
#
# Poissons Ratio (x) = 0.07041 0.38923
# Poissons Ratio (y) = 0.08314 0.13633
# Poissons Ratio (z) = 0.54711 0.16228
#
# Static dielectric constant tensor:
#      x y z
#    x 1.647750 0.000000 0.000000 
#    y 0.000000 12.634840 0.000000 
#    z 0.000000 0.000000 1.846660 
# 
# From -- ./inp_files/37462.got.cif
#   From: 2010.05.17/outbox.cif.g08.bks.cpg/sg68_19_cif.got.tgz:37462.got - 2010.06.03 18:57:09.
