data_PCOD9508884
_publ_section_title
;
Structure prediction by ZEFSAII (Michael W. Deem and Ramdas Pophale) SiO2 
 PCOD9508884
Probable space group: C C C A
;
_chemical_formula_sum "Si O2"
_cell_formula_units_Z 80
_cell_length_a 26.290617
_cell_length_b 8.135296
_cell_length_c 16.764073
_cell_angle_alpha 90.000000
_cell_angle_beta 90.000000
_cell_angle_gamma 90.000000
_cell_volume 3585.532645
_symmetry_space_group_name_H-M "C C C A"
_symmetry_group_IT_number 68
_space_group.IT_coordinate_system_code '2'
_symmetry_cell_setting 'orthorhombic'
loop_
_space_group_symop_operation_xyz
x,y,z
-x,1/2-y,z
x,1/2-y,1/2-z
-x,y,1/2-z
-x,-y,-z
x,1/2+y,-z
-x,1/2+y,1/2+z
x,-y,1/2+z
1/2+x,1/2+y,z
1/2-x,-y,z
1/2+x,-y,1/2-z
1/2-x,1/2+y,1/2-z
1/2-x,1/2-y,-z
1/2+x,y,-z
1/2-x,y,1/2+z
1/2+x,1/2-y,1/2+z
loop_
_atom_site_type_symbol
_atom_site_label
_atom_site_fract_x
_atom_site_fract_y
_atom_site_fract_z
Si Si1 0.363187 0.797792 0.965623
Si Si2 0.453071 0.618628 0.660004
Si Si3 0.902425 0.077371 0.297165
Si Si4 0.949049 0.786335 0.570455
Si Si5 0.190458 0.484179 0.896704
O O1 0.405219 0.841536 0.897968
O O2 0.320188 0.702889 0.918701
O O3 0.399119 0.678750 0.019832
O O4 0.332927 0.912670 0.028269
O O5 0.500000 0.750000 0.658580
O O6 0.430518 0.564716 0.746981
O O7 0.465921 0.437269 0.625175
O O8 0.901306 0.250000 0.250000
O O9 0.931794 0.129177 0.377663
O O10 0.845663 0.029192 0.322396
O O11 0.000000 0.750000 0.520592
O O12 0.250000 0.500000 0.883943
#
# Coordination Sequence:
#
# PCOD9508884 Si02
#       5
#    16  16  16  16  16
#     4  11  23  43  69 101 134 169 230 285 331 401
#     4  11  24  41  67 103 138 176 222 269 327 410
#     4   9  23  47  65  94 140 183 219 269 338 408
#     4  10  22  43  66  92 138 187 211 258 346 401
#     4  11  24  47  71  96 129 178 230 288 342 388
#
# _framework density 22.311889000000001
#
# number of rings (size 3 to 8) (size 9 to 14) (size 15 to 20)
#    0.000    1.600    2.000    1.200    5.600    6.000 
#    7.200    0.000    0.000    0.000    0.000    0.000 
#    0.000    0.000    0.000    0.000    0.000    0.000 
#
# Total GULP energy -222884.578072 kJ/mol
# GULP energy per Si atom -5572.114452 kJ/mol
# Density = 2.226111 g / cm^3
# Si number density = 22.311889 Si / 1000 Ang^3
#
#
#
# Elastic Constant Matrix: (Units=GPa)
#
#
# Indices 1 2 3 4 5 6 
#
# 1 192.1555 54.6878 45.5705 0.0000 0.0000 0.0000
# 2 54.6878 69.2111 30.2340 0.0000 0.0000 0.0000
# 3 45.5705 30.2340 74.6676 0.0000 0.0000 0.0000
# 4 0.0000 0.0000 0.0000 23.0890 0.0000 0.0000
# 5 0.0000 0.0000 0.0000 0.0000 26.9760 0.0000
# 6 0.0000 0.0000 0.0000 0.0000 0.0000 24.2306
#
#
#
# Elastic Compliance Matrix: (Units=1/GPa)
#
#
# Indices 1 2 3 4 5 6 
#
# 1 0.007077 -0.004502 -0.002497 0.000000 0.000000 0.000000
# 2 -0.004502 0.020417 -0.005520 0.000000 0.000000 0.000000
# 3 -0.002497 -0.005520 0.017151 0.000000 0.000000 0.000000
# 4 0.000000 0.000000 0.000000 0.043311 0.000000 0.000000
# 5 0.000000 0.000000 0.000000 0.000000 0.037070 0.000000
# 6 0.000000 0.000000 0.000000 0.000000 0.000000 0.041270
#
#
# Mechanical properties :
#
#
# Convention : Reuss Voigt Hill
#
# Bulk Modulus (GPa) = 50.99514 66.33544 58.66529
# Shear Modulus (GPa) = 25.26928 28.56191 26.91560
#
# Velocity S-wave (km/s) = 3.36899 3.58176 3.47700
# Velocity P-wave (km/s) = 6.16755 6.84842 6.51688
#
# Compressibility (1/GPa) = 0.01960971
#
# Stress axis : x y z
#
# Youngs Moduli (GPa) = 141.29525 48.97939 58.30433
#
# Poissons Ratio (x) = 0.22049 0.14556
# Poissons Ratio (y) = 0.63606 0.32182
# Poissons Ratio (z) = 0.35276 0.27035
#
# Static dielectric constant tensor:
#      x y z
#    x 1.766380 0.000000 0.000000 
#    y 0.000000 1.903980 0.000000 
#    z 0.000000 0.000000 1.885000 
# 
# From -- ./inp_files/33951.got.cif
#   From: 2010.05.17/outbox.cif.g08.bks.cpg/sg68_17_cif.got.tgz:33951.got - 2010.06.03 18:57:09.
