data_PCOD9508488
_publ_section_title
;
Structure prediction by ZEFSAII (Michael W. Deem and Ramdas Pophale) SiO2 
 PCOD9508488
Probable space group: C C C A
;
_chemical_formula_sum "Si O2"
_cell_formula_units_Z 116
_cell_length_a 27.295131
_cell_length_b 22.942896
_cell_length_c 8.472691
_cell_angle_alpha 90.000000
_cell_angle_beta 90.000000
_cell_angle_gamma 90.000000
_cell_volume 5305.847793
_symmetry_space_group_name_H-M "C C C A"
_symmetry_group_IT_number 68
_space_group.IT_coordinate_system_code '2'
_symmetry_cell_setting 'orthorhombic'
loop_
_space_group_symop_operation_xyz
x,y,z
-x,1/2-y,z
x,1/2-y,1/2-z
-x,y,1/2-z
-x,-y,-z
x,1/2+y,-z
-x,1/2+y,1/2+z
x,-y,1/2+z
1/2+x,1/2+y,z
1/2-x,-y,z
1/2+x,-y,1/2-z
1/2-x,1/2+y,1/2-z
1/2-x,1/2-y,-z
1/2+x,y,-z
1/2-x,y,1/2+z
1/2+x,1/2-y,1/2+z
loop_
_atom_site_type_symbol
_atom_site_label
_atom_site_fract_x
_atom_site_fract_y
_atom_site_fract_z
Si Si1 0.912062 0.317632 0.782578
Si Si2 0.143220 0.920430 0.823149
Si Si3 0.563256 0.653760 0.426267
Si Si4 0.823179 0.389419 0.853075
Si Si5 0.608152 0.519234 0.007917
Si Si6 0.018235 0.087088 0.926464
Si Si7 0.500000 0.750000 0.250000
Si Si8 0.760030 0.930394 0.852831
O O1 0.922098 0.250000 0.750000
O O2 0.919276 0.341435 0.606413
O O3 0.857114 0.332421 0.841807
O O4 0.949174 0.353205 0.897090
O O5 0.111461 0.861756 0.825412
O O6 0.122296 0.957120 0.677300
O O7 0.200865 0.922289 0.791129
O O8 0.126679 0.954764 0.978391
O O9 0.522396 0.603145 0.444293
O O10 0.534927 0.709199 0.356832
O O11 0.861874 0.441197 0.882717
O O12 0.790016 0.400455 0.700845
O O13 0.787156 0.398378 0.002796
O O14 0.552250 0.534631 0.981279
O O15 0.000000 0.073705 0.750000
O O16 0.750000 0.000000 0.879637
#
# Coordination Sequence:
#
# PCOD9508488 Si02
#       8
#    16  16  16  16  16  16   4  16
#     4  10  22  42  67  92 127 170 222 284 336 394
#     4  11  25  37  61  95 128 171 209 272 324 392
#     4  11  24  40  68  94 133 169 228 276 337 392
#     4  10  23  38  66  91 129 168 221 269 330 400
#     4  10  22  39  57  90 136 163 207 257 324 391
#     4   9  20  39  61  91 120 169 208 255 321 395
#     4  12  24  44  66  96 124 184 228 286 326 420
#     4  11  22  39  65  96 129 175 222 271 330 407
#
# _framework density 21.862669
#
# number of rings (size 3 to 8) (size 9 to 14) (size 15 to 20)
#    0.000    1.655    1.379    2.069    9.655    4.690 
#    1.241    0.690    1.517    0.000    0.000    0.000 
#    0.000    0.000    0.000    0.000    0.000    0.000 
#
# Total GULP energy -323940.804764 kJ/mol
# GULP energy per Si atom -5585.186289 kJ/mol
# Density = 2.181291 g / cm^3
# Si number density = 21.862669 Si / 1000 Ang^3
#
#
#
# Elastic Constant Matrix: (Units=GPa)
#
#
# Indices 1 2 3 4 5 6 
#
# 1 96.9009 8.2188 15.5769 0.0000 0.0000 0.0000
# 2 8.2188 49.7293 -0.4722 0.0000 0.0000 0.0000
# 3 15.5769 -0.4722 43.5902 0.0000 0.0000 0.0000
# 4 0.0000 0.0000 0.0000 23.2290 0.0000 0.0000
# 5 0.0000 0.0000 0.0000 0.0000 30.8502 0.0000
# 6 0.0000 0.0000 0.0000 0.0000 0.0000 24.6562
#
#
#
# Elastic Compliance Matrix: (Units=1/GPa)
#
#
# Indices 1 2 3 4 5 6 
#
# 1 0.011121 -0.001876 -0.003994 0.000000 0.000000 0.000000
# 2 -0.001876 0.020427 0.000892 0.000000 0.000000 0.000000
# 3 -0.003994 0.000892 0.024378 0.000000 0.000000 0.000000
# 4 0.000000 0.000000 0.000000 0.043050 0.000000 0.000000
# 5 0.000000 0.000000 0.000000 0.000000 0.032415 0.000000
# 6 0.000000 0.000000 0.000000 0.000000 0.000000 0.040558
#
#
# Mechanical properties :
#
#
# Convention : Reuss Voigt Hill
#
# Bulk Modulus (GPa) = 21.75378 26.31860 24.03619
# Shear Modulus (GPa) = 25.35127 26.87355 26.11241
#
# Velocity S-wave (km/s) = 3.40894 3.50980 3.45973
# Velocity P-wave (km/s) = 5.04641 5.33752 5.19401
#
# Compressibility (1/GPa) = 0.04596902
#
# Stress axis : x y z
#
# Youngs Moduli (GPa) = 89.91970 48.95397 41.02065
#
# Poissons Ratio (x) = 0.09183 0.16385
# Poissons Ratio (y) = 0.16868 -0.03658
# Poissons Ratio (z) = 0.35918 -0.04365
#
# Static dielectric constant tensor:
#      x y z
#    x 1.880880 0.000000 0.000000 
#    y 0.000000 1.823280 0.000000 
#    z 0.000000 0.000000 1.840410 
# 
# From -- ./inp_files/9173.got.cif
#   From: 2010.05.17/outbox.cif.g08.bks.cpg/sg68_5_cif.got.tgz:9173.got - 2010.06.03 18:57:09.
