data_PCOD9508137
_publ_section_title
;
Structure prediction by ZEFSAII (Michael W. Deem and Ramdas Pophale) SiO2 
 PCOD9508137
Probable space group: C C C A
;
_chemical_formula_sum "Si O2"
_cell_formula_units_Z 116
_cell_length_a 24.478331
_cell_length_b 25.920657
_cell_length_c 9.057638
_cell_angle_alpha 90.000000
_cell_angle_beta 90.000000
_cell_angle_gamma 90.000000
_cell_volume 5747.020786
_symmetry_space_group_name_H-M "C C C A"
_symmetry_group_IT_number 68
_space_group.IT_coordinate_system_code '2'
_symmetry_cell_setting 'orthorhombic'
loop_
_space_group_symop_operation_xyz
x,y,z
-x,1/2-y,z
x,1/2-y,1/2-z
-x,y,1/2-z
-x,-y,-z
x,1/2+y,-z
-x,1/2+y,1/2+z
x,-y,1/2+z
1/2+x,1/2+y,z
1/2-x,-y,z
1/2+x,-y,1/2-z
1/2-x,1/2+y,1/2-z
1/2-x,1/2-y,-z
1/2+x,y,-z
1/2-x,y,1/2+z
1/2+x,1/2-y,1/2+z
loop_
_atom_site_type_symbol
_atom_site_label
_atom_site_fract_x
_atom_site_fract_y
_atom_site_fract_z
Si Si1 0.594766 0.537473 0.438549
Si Si2 0.211331 0.449801 0.903514
Si Si3 0.700696 0.898890 0.585847
Si Si4 0.954188 0.370611 0.626202
Si Si5 0.954458 0.674005 0.537800
Si Si6 0.594061 0.435692 0.592770
Si Si7 0.500000 0.250000 0.750000
Si Si8 0.864073 0.691880 0.300600
O O1 0.655054 0.539578 0.511927
O O2 0.561277 0.582647 0.519264
O O3 0.572693 0.481653 0.488373
O O4 0.597680 0.545307 0.262219
O O5 0.250000 0.500000 0.907522
O O6 0.201979 0.433738 0.733906
O O7 0.244059 0.406168 0.994186
O O8 0.651791 0.917791 0.478329
O O9 0.686916 0.841492 0.641839
O O10 0.898510 0.345717 0.689639
O O11 0.000000 0.386432 0.750000
O O12 0.986969 0.326047 0.541805
O O13 0.942468 0.615314 0.582934
O O14 0.907600 0.694224 0.432164
O O15 0.959412 0.711603 0.670430
O O16 0.852147 0.750000 0.250000
#
# Coordination Sequence:
#
# PCOD9508137 Si02
#       8
#    16  16  16  16  16  16   4  16
#     4  12  24  41  65  92 140 178 211 264 339 394
#     4  12  23  38  68  96 125 169 215 270 324 394
#     4  11  23  41  62  99 127 166 223 273 323 399
#     4  10  22  41  65  96 130 176 221 267 332 402
#     4  10  23  39  64  94 131 167 233 273 326 396
#     4  11  25  40  61  98 134 175 215 268 327 407
#     4  12  20  40  62  92 124 176 220 294 318 380
#     4  10  21  41  66  93 129 170 219 281 335 390
#
# _framework density 20.184370999999999
#
# number of rings (size 3 to 8) (size 9 to 14) (size 15 to 20)
#    0.000    1.103    2.759    3.724    3.862    2.483 
#    1.241    0.690    0.000    0.000    0.000    0.000 
#    0.000    0.000    0.000    0.000    0.000    0.000 
#
# Total GULP energy -324007.462725 kJ/mol
# GULP energy per Si atom -5586.335564 kJ/mol
# Density = 2.013843 g / cm^3
# Si number density = 20.184371 Si / 1000 Ang^3
#
#
#
# Elastic Constant Matrix: (Units=GPa)
#
#
# Indices 1 2 3 4 5 6 
#
# 1 57.2455 33.9417 16.3597 0.0000 0.0000 0.0000
# 2 33.9417 133.1493 54.5421 0.0000 0.0000 0.0000
# 3 16.3597 54.5421 128.0904 0.0000 0.0000 0.0000
# 4 0.0000 0.0000 0.0000 40.8634 0.0000 0.0000
# 5 0.0000 0.0000 0.0000 0.0000 0.4613 0.0000
# 6 0.0000 0.0000 0.0000 0.0000 0.0000 17.6904
#
#
#
# Elastic Compliance Matrix: (Units=1/GPa)
#
#
# Indices 1 2 3 4 5 6 
#
# 1 0.020603 -0.005056 -0.000479 0.000000 0.000000 0.000000
# 2 -0.005056 0.010338 -0.003756 0.000000 0.000000 0.000000
# 3 -0.000479 -0.003756 0.009468 0.000000 0.000000 0.000000
# 4 0.000000 0.000000 0.000000 0.024472 0.000000 0.000000
# 5 0.000000 0.000000 0.000000 0.000000 2.167632 0.000000
# 6 0.000000 0.000000 0.000000 0.000000 0.000000 0.056528
#
#
# Mechanical properties :
#
#
# Convention : Reuss Voigt Hill
#
# Bulk Modulus (GPa) = 45.81474 58.68581 52.25028
# Shear Modulus (GPa) = 2.15992 26.04581 14.10287
#
# Velocity S-wave (km/s) = 1.03558 3.59610 2.64617
# Velocity P-wave (km/s) = 4.91704 6.81033 5.93961
#
# Compressibility (1/GPa) = 0.02182704
#
# Stress axis : x y z
#
# Youngs Moduli (GPa) = 48.53624 96.73161 105.62416
#
# Poissons Ratio (x) = 0.48908 0.05054
# Poissons Ratio (y) = 0.24540 0.39675
# Poissons Ratio (z) = 0.02323 0.36334
#
# Static dielectric constant tensor:
#      x y z
#    x 1.711420 0.000000 0.000000 
#    y 0.000000 1.716420 0.000000 
#    z 0.000000 0.000000 1.750860 
# 
# From -- ./inp_files/9165.got.cif
#   From: 2010.05.17/outbox.cif.g08.bks.cpg/sg68_5_cif.got.tgz:9165.got - 2010.06.03 18:57:09.
