data_PCOD9508389
_publ_section_title
;
Structure prediction by ZEFSAII (Michael W. Deem and Ramdas Pophale) SiO2 
 PCOD9508389
Probable space group: C C C A
;
_chemical_formula_sum "Si O2"
_cell_formula_units_Z 80
_cell_length_a 31.921871
_cell_length_b 21.445967
_cell_length_c 5.077902
_cell_angle_alpha 90.000000
_cell_angle_beta 90.000000
_cell_angle_gamma 90.000000
_cell_volume 3476.308310
_symmetry_space_group_name_H-M "C C C A"
_symmetry_group_IT_number 68
_space_group.IT_coordinate_system_code '2'
_symmetry_cell_setting 'orthorhombic'
loop_
_space_group_symop_operation_xyz
x,y,z
-x,1/2-y,z
x,1/2-y,1/2-z
-x,y,1/2-z
-x,-y,-z
x,1/2+y,-z
-x,1/2+y,1/2+z
x,-y,1/2+z
1/2+x,1/2+y,z
1/2-x,-y,z
1/2+x,-y,1/2-z
1/2-x,1/2+y,1/2-z
1/2-x,1/2-y,-z
1/2+x,y,-z
1/2-x,y,1/2+z
1/2+x,1/2-y,1/2+z
loop_
_atom_site_type_symbol
_atom_site_label
_atom_site_fract_x
_atom_site_fract_y
_atom_site_fract_z
Si Si1 0.472106 0.664729 0.010453
Si Si2 0.267573 0.070247 0.471563
Si Si3 0.939942 0.465046 0.262861
Si Si4 0.641375 0.102780 0.840141
Si Si5 0.120781 0.316140 0.849355
O O1 0.500000 0.665241 0.750000
O O2 0.459592 0.595915 0.110690
O O3 0.427104 0.694823 0.947245
O O4 0.500000 0.689038 0.250000
O O5 0.262643 0.100650 0.187447
O O6 0.314181 0.074411 0.579539
O O7 0.250000 0.000000 0.425900
O O8 0.951166 0.479727 0.962758
O O9 0.890379 0.450739 0.256035
O O10 0.643353 0.151830 0.598977
O O11 0.622193 0.137064 0.098583
O O12 0.138100 0.250000 0.750000
#
# Coordination Sequence:
#
# PCOD9508389 Si02
#       5
#    16  16  16  16  16
#     4  11  23  41  61  90 127 161 218 281 325 375
#     4  10  22  37  62  99 134 170 198 257 323 386
#     4  11  23  36  59  88 124 177 208 246 314 399
#     4  11  23  41  66  94 136 166 214 271 312 388
#     4  11  24  45  69  93 121 174 227 270 330 378
#
# _framework density 23.012919
#
# number of rings (size 3 to 8) (size 9 to 14) (size 15 to 20)
#    0.000    1.200    0.000    7.800    5.600    2.800 
#    0.000    3.000    0.000   12.000    0.000    0.000 
#    0.000    0.000    0.000    0.000    0.000    0.000 
#
# Total GULP energy -223658.304701 kJ/mol
# GULP energy per Si atom -5591.457618 kJ/mol
# Density = 2.296054 g / cm^3
# Si number density = 23.012919 Si / 1000 Ang^3
#
#
#
# Elastic Constant Matrix: (Units=GPa)
#
#
# Indices 1 2 3 4 5 6 
#
# 1 97.5450 10.1999 14.9557 0.0000 0.0000 0.0000
# 2 10.1999 58.2211 23.5899 0.0000 0.0000 0.0000
# 3 14.9557 23.5899 172.6389 0.0000 0.0000 0.0000
# 4 0.0000 0.0000 0.0000 37.7038 0.0000 0.0000
# 5 0.0000 0.0000 0.0000 0.0000 42.7502 0.0000
# 6 0.0000 0.0000 0.0000 0.0000 0.0000 10.7546
#
#
#
# Elastic Compliance Matrix: (Units=1/GPa)
#
#
# Indices 1 2 3 4 5 6 
#
# 1 0.010522 -0.001560 -0.000698 0.000000 0.000000 0.000000
# 2 -0.001560 0.018414 -0.002381 0.000000 0.000000 0.000000
# 3 -0.000698 -0.002381 0.006178 0.000000 0.000000 0.000000
# 4 0.000000 0.000000 0.000000 0.026523 0.000000 0.000000
# 5 0.000000 0.000000 0.000000 0.000000 0.023392 0.000000
# 6 0.000000 0.000000 0.000000 0.000000 0.000000 0.092984
#
#
# Mechanical properties :
#
#
# Convention : Reuss Voigt Hill
#
# Bulk Modulus (GPa) = 38.70746 47.32178 43.01462
# Shear Modulus (GPa) = 25.52282 36.88566 31.20424
#
# Velocity S-wave (km/s) = 3.33388 4.00787 3.68631
# Velocity P-wave (km/s) = 5.62815 6.48268 6.07047
#
# Compressibility (1/GPa) = 0.02583481
#
# Stress axis : x y z
#
# Youngs Moduli (GPa) = 95.03973 54.30647 161.85755
#
# Poissons Ratio (x) = 0.08474 0.11302
# Poissons Ratio (y) = 0.14830 0.38538
# Poissons Ratio (z) = 0.06637 0.12930
#
# Static dielectric constant tensor:
#      x y z
#    x 1.879280 0.000000 0.000000 
#    y 0.000000 1.080990 0.000000 
#    z 0.000000 0.000000 1.888160 
# 
# From -- ./inp_files/2737.got.cif
#   From: 2010.05.17/outbox.cif.g08.bks.cpg/sg68_2_cif.got.tgz:2737.got - 2010.06.03 18:57:09.
