data_PCOD9508111
_publ_section_title
;
Structure prediction by ZEFSAII (Michael W. Deem and Ramdas Pophale) SiO2 
 PCOD9508111
Probable space group: C C C A
;
_chemical_formula_sum "Si O2"
_cell_formula_units_Z 68
_cell_length_a 28.600128
_cell_length_b 8.641661
_cell_length_c 13.277714
_cell_angle_alpha 90.000000
_cell_angle_beta 90.000000
_cell_angle_gamma 90.000000
_cell_volume 3281.621680
_symmetry_space_group_name_H-M "C C C A"
_symmetry_group_IT_number 68
_space_group.IT_coordinate_system_code '2'
_symmetry_cell_setting 'orthorhombic'
loop_
_space_group_symop_operation_xyz
x,y,z
-x,1/2-y,z
x,1/2-y,1/2-z
-x,y,1/2-z
-x,-y,-z
x,1/2+y,-z
-x,1/2+y,1/2+z
x,-y,1/2+z
1/2+x,1/2+y,z
1/2-x,-y,z
1/2+x,-y,1/2-z
1/2-x,1/2+y,1/2-z
1/2-x,1/2-y,-z
1/2+x,y,-z
1/2-x,y,1/2+z
1/2+x,1/2-y,1/2+z
loop_
_atom_site_type_symbol
_atom_site_label
_atom_site_fract_x
_atom_site_fract_y
_atom_site_fract_z
Si Si1 0.214113 0.192616 0.416249
Si Si2 0.500000 0.250000 0.750000
Si Si3 0.283868 0.750000 0.750000
Si Si4 0.444542 0.537664 0.397509
Si Si5 0.665594 0.016209 0.407512
Si Si6 0.000000 0.250000 0.555391
O O1 0.250000 0.250000 0.500000
O O2 0.248193 0.158226 0.323125
O O3 0.185082 0.344874 0.386772
O O4 0.182915 0.070829 0.480154
O O5 0.535764 0.359268 0.691580
O O6 0.314531 0.862928 0.676894
O O7 0.389946 0.504034 0.405314
O O8 0.465179 0.638556 0.490933
O O9 0.468650 0.371575 0.387385
#
# Coordination Sequence:
#
# PCOD9508111 Si02
#       6
#    16   4   8  16  16   8
#     4  10  22  40  59  85 122 162 200 253 305 352
#     4  10  24  40  60  90 132 152 200 264 316 362
#     4  10  22  37  56  89 126 159 198 255 312 356
#     4  10  21  41  63  94 120 162 203 252 309 373
#     4  11  23  39  64  89 120 163 214 248 300 379
#     4   9  20  40  66  85 128 162 196 249 316 368
#
# _framework density 20.721463
#
# number of rings (size 3 to 8) (size 9 to 14) (size 15 to 20)
#    0.000    1.882    0.000    4.235    0.000   10.824 
#    0.000    7.059    0.000    0.000    0.000    0.000 
#    0.000    0.000    0.000    0.000    0.000    0.000 
#
# Total GULP energy -189462.594886 kJ/mol
# GULP energy per Si atom -5572.429261 kJ/mol
# Density = 2.067430 g / cm^3
# Si number density = 20.721463 Si / 1000 Ang^3
#
#
#
# Elastic Constant Matrix: (Units=GPa)
#
#
# Indices 1 2 3 4 5 6 
#
# 1 199.5962 68.7945 48.7197 0.0000 0.0000 0.0000
# 2 68.7945 132.4400 18.0069 0.0000 0.0000 0.0000
# 3 48.7197 18.0069 70.0627 0.0000 0.0000 0.0000
# 4 0.0000 0.0000 0.0000 -68.1929 0.0000 0.0000
# 5 0.0000 0.0000 0.0000 0.0000 25.4748 0.0000
# 6 0.0000 0.0000 0.0000 0.0000 0.0000 27.5544
#
#
#
# Elastic Compliance Matrix: (Units=1/GPa)
#
#
# Indices 1 2 3 4 5 6 
#
# 1 0.007095 -0.003124 -0.004131 0.000000 0.000000 0.000000
# 2 -0.003124 0.009199 -0.000192 0.000000 0.000000 0.000000
# 3 -0.004131 -0.000192 0.017195 0.000000 0.000000 0.000000
# 4 0.000000 0.000000 0.000000 -0.014664 0.000000 0.000000
# 5 0.000000 0.000000 0.000000 0.000000 0.039254 0.000000
# 6 0.000000 0.000000 0.000000 0.000000 0.000000 0.036292
#
#
# Mechanical properties :
#
#
# Convention : Reuss Voigt Hill
#
# Bulk Modulus (GPa) = 53.77613 74.79345 64.28479
# Shear Modulus (GPa) = 43.30371 14.73911 29.02141
#
# Velocity S-wave (km/s) = 4.57639 2.66991 3.74645
# Velocity P-wave (km/s) = 7.34389 6.75852 7.05728
#
# Compressibility (1/GPa) = 0.01859561
#
# Stress axis : x y z
#
# Youngs Moduli (GPa) = 140.94206 108.70333 58.15712
#
# Poissons Ratio (x) = 0.33957 0.24024
# Poissons Ratio (y) = 0.44028 0.01117
# Poissons Ratio (z) = 0.58222 0.02088
#
# Static dielectric constant tensor:
#      x y z
#    x 1.655250 0.000000 0.000000 
#    y 0.000000 1.833330 0.000000 
#    z 0.000000 0.000000 1.893110 
# 
# From -- ./inp_files/25784.got.cif
#   From: 2010.05.17/outbox.cif.g08.bks.cpg/sg68_13_cif.got.tgz:25784.got - 2010.06.03 18:57:09.
