data_PCOD9508933
_publ_section_title
;
Structure prediction by ZEFSAII (Michael W. Deem and Ramdas Pophale) SiO2 
 PCOD9508933
Probable space group: C C C A
;
_chemical_formula_sum "Si O2"
_cell_formula_units_Z 88
_cell_length_a 14.934197
_cell_length_b 15.105112
_cell_length_c 16.361277
_cell_angle_alpha 90.000000
_cell_angle_beta 90.000000
_cell_angle_gamma 90.000000
_cell_volume 3690.821341
_symmetry_space_group_name_H-M "C C C A"
_symmetry_group_IT_number 68
_space_group.IT_coordinate_system_code '2'
_symmetry_cell_setting 'orthorhombic'
loop_
_space_group_symop_operation_xyz
x,y,z
-x,1/2-y,z
x,1/2-y,1/2-z
-x,y,1/2-z
-x,-y,-z
x,1/2+y,-z
-x,1/2+y,1/2+z
x,-y,1/2+z
1/2+x,1/2+y,z
1/2-x,-y,z
1/2+x,-y,1/2-z
1/2-x,1/2+y,1/2-z
1/2-x,1/2-y,-z
1/2+x,y,-z
1/2-x,y,1/2+z
1/2+x,1/2-y,1/2+z
loop_
_atom_site_type_symbol
_atom_site_label
_atom_site_fract_x
_atom_site_fract_y
_atom_site_fract_z
Si Si1 0.843189 0.447974 0.328330
Si Si2 0.404182 0.779765 0.551767
Si Si3 0.399202 0.599886 0.341237
Si Si4 0.500000 0.250000 0.893761
Si Si5 0.356867 0.479576 0.489368
Si Si6 0.255751 0.256791 0.661313
O O1 0.750000 0.500000 0.319254
O O2 0.891856 0.457333 0.240992
O O3 0.883972 0.481546 0.414708
O O4 0.816133 0.344643 0.338569
O O5 0.500000 0.750000 0.589882
O O6 0.418635 0.751696 0.458018
O O7 0.383154 0.883722 0.546557
O O8 0.318999 0.735465 0.592555
O O9 0.484980 0.663746 0.341207
O O10 0.399790 0.547880 0.426248
O O11 0.313951 0.666859 0.341893
O O12 0.250000 0.500000 0.487515
O O13 0.209181 0.250000 0.750000
#
# Coordination Sequence:
#
# PCOD9508933 Si02
#       6
#    16  16  16   8  16  16
#     4  10  24  40  70 117 135 182 259 297 368 439
#     4  10  24  43  65 111 143 188 250 292 384 447
#     4  11  23  46  72 106 145 189 254 301 375 449
#     4  10  26  42  68 100 148 196 236 308 383 442
#     4  11  22  41  77 105 140 190 239 307 368 431
#     4  10  22  43  74 101 142 195 249 305 364 453
#
# _framework density 23.842931
#
# number of rings (size 3 to 8) (size 9 to 14) (size 15 to 20)
#    0.545    1.091    1.818    1.636    7.636    2.545 
#    1.636    6.818    0.000    0.000    0.000    0.000 
#    0.000    0.000    0.000    0.000    0.000    0.000 
#
# Total GULP energy -245942.951349 kJ/mol
# GULP energy per Si atom -5589.612531 kJ/mol
# Density = 2.378866 g / cm^3
# Si number density = 23.842931 Si / 1000 Ang^3
#
#
#
# Elastic Constant Matrix: (Units=GPa)
#
#
# Indices 1 2 3 4 5 6 
#
# 1 113.2224 12.4132 54.4324 0.0000 0.0000 0.0000
# 2 12.4132 85.3280 51.7957 0.0000 0.0000 0.0000
# 3 54.4324 51.7957 200.2881 0.0000 0.0000 0.0000
# 4 0.0000 0.0000 0.0000 29.5736 0.0000 0.0000
# 5 0.0000 0.0000 0.0000 0.0000 17.4384 0.0000
# 6 0.0000 0.0000 0.0000 0.0000 0.0000 37.7392
#
#
#
# Elastic Compliance Matrix: (Units=1/GPa)
#
#
# Indices 1 2 3 4 5 6 
#
# 1 0.010164 0.000235 -0.002823 0.000000 0.000000 0.000000
# 2 0.000235 0.013907 -0.003660 0.000000 0.000000 0.000000
# 3 -0.002823 -0.003660 0.006707 0.000000 0.000000 0.000000
# 4 0.000000 0.000000 0.000000 0.033814 0.000000 0.000000
# 5 0.000000 0.000000 0.000000 0.000000 0.057345 0.000000
# 6 0.000000 0.000000 0.000000 0.000000 0.000000 0.026498
#
#
# Mechanical properties :
#
#
# Convention : Reuss Voigt Hill
#
# Bulk Modulus (GPa) = 54.70222 70.68013 62.69117
# Shear Modulus (GPa) = 29.93588 35.63007 32.78297
#
# Velocity S-wave (km/s) = 3.54721 3.86990 3.71206
# Velocity P-wave (km/s) = 6.30631 7.04816 6.68753
#
# Compressibility (1/GPa) = 0.01828079
#
# Stress axis : x y z
#
# Youngs Moduli (GPa) = 98.39079 71.90522 149.10720
#
# Poissons Ratio (x) = -0.01690 0.42092
# Poissons Ratio (y) = -0.02312 0.54578
# Poissons Ratio (z) = 0.27775 0.26320
#
# Static dielectric constant tensor:
#      x y z
#    x 2.014120 0.000000 0.000000 
#    y 0.000000 1.932540 0.000000 
#    z 0.000000 0.000000 1.895810 
# 
# From -- ./inp_files/30933.got.cif
#   From: 2010.05.17/outbox.cif.g08.bks.cpg/sg68_16_cif.got.tgz:30933.got - 2010.06.03 18:57:09.
