data_PCOD9508587
_publ_section_title
;
Structure prediction by ZEFSAII (Michael W. Deem and Ramdas Pophale) SiO2 
 PCOD9508587
Probable space group: C C C A
;
_chemical_formula_sum "Si O2"
_cell_formula_units_Z 80
_cell_length_a 15.554437
_cell_length_b 12.356192
_cell_length_c 20.563687
_cell_angle_alpha 90.000000
_cell_angle_beta 90.000000
_cell_angle_gamma 90.000000
_cell_volume 3952.209240
_symmetry_space_group_name_H-M "C C C A"
_symmetry_group_IT_number 68
_space_group.IT_coordinate_system_code '2'
_symmetry_cell_setting 'orthorhombic'
loop_
_space_group_symop_operation_xyz
x,y,z
-x,1/2-y,z
x,1/2-y,1/2-z
-x,y,1/2-z
-x,-y,-z
x,1/2+y,-z
-x,1/2+y,1/2+z
x,-y,1/2+z
1/2+x,1/2+y,z
1/2-x,-y,z
1/2+x,-y,1/2-z
1/2-x,1/2+y,1/2-z
1/2-x,1/2-y,-z
1/2+x,y,-z
1/2-x,y,1/2+z
1/2+x,1/2-y,1/2+z
loop_
_atom_site_type_symbol
_atom_site_label
_atom_site_fract_x
_atom_site_fract_y
_atom_site_fract_z
Si Si1 0.601938 0.120567 0.245767
Si Si2 0.150654 0.019023 0.619341
Si Si3 0.907862 0.227898 0.957512
Si Si4 0.662455 0.062288 0.105637
Si Si5 0.487110 0.419171 0.560821
O O1 0.606107 0.250000 0.250000
O O2 0.500000 0.093328 0.250000
O O3 0.654988 0.099983 0.179798
O O4 0.640255 0.053349 0.305765
O O5 0.080007 0.927594 0.597127
O O6 0.250000 0.000000 0.605671
O O7 0.131035 0.126660 0.578353
O O8 0.854774 0.337468 0.944464
O O9 0.000000 0.250000 0.923723
O O10 0.936376 0.183713 0.028927
O O11 0.750000 0.000000 0.090216
O O12 0.583367 0.979261 0.102962
O O13 0.500000 0.500000 0.500000
#
# Coordination Sequence:
#
# PCOD9508587 Si02
#       5
#    16  16  16  16  16
#     4  11  20  38  73  98 128 175 221 282 338 405
#     4  11  22  40  67 102 134 172 223 279 349 395
#     4  11  21  45  66  91 135 172 227 272 322 409
#     4  12  24  41  67 103 131 172 232 280 333 397
#     4  10  22  40  63  94 137 173 222 274 330 397
#
# _framework density 20.241842999999999
#
# number of rings (size 3 to 8) (size 9 to 14) (size 15 to 20)
#    0.000    1.000    8.000    0.600    0.000    4.000 
#    3.600    0.000    0.000    0.000    0.000    4.200 
#    0.000    0.000    0.000    0.000    0.000    0.000 
#
# Total GULP energy -222690.774481 kJ/mol
# GULP energy per Si atom -5567.269362 kJ/mol
# Density = 2.019577 g / cm^3
# Si number density = 20.241843 Si / 1000 Ang^3
#
#
#
# Elastic Constant Matrix: (Units=GPa)
#
#
# Indices 1 2 3 4 5 6 
#
# 1 157.7701 65.6810 26.0565 0.0000 0.0000 0.0000
# 2 65.6810 101.4389 46.7458 0.0000 0.0000 0.0000
# 3 26.0565 46.7458 77.2418 0.0000 0.0000 0.0000
# 4 0.0000 0.0000 0.0000 31.4319 0.0000 0.0000
# 5 0.0000 0.0000 0.0000 0.0000 34.8219 0.0000
# 6 0.0000 0.0000 0.0000 0.0000 0.0000 36.0407
#
#
#
# Elastic Compliance Matrix: (Units=1/GPa)
#
#
# Indices 1 2 3 4 5 6 
#
# 1 0.008701 -0.005937 0.000658 0.000000 0.000000 0.000000
# 2 -0.005937 0.017722 -0.008722 0.000000 0.000000 0.000000
# 3 0.000658 -0.008722 0.018003 0.000000 0.000000 0.000000
# 4 0.000000 0.000000 0.000000 0.031815 0.000000 0.000000
# 5 0.000000 0.000000 0.000000 0.000000 0.028718 0.000000
# 6 0.000000 0.000000 0.000000 0.000000 0.000000 0.027746
#
#
# Mechanical properties :
#
#
# Convention : Reuss Voigt Hill
#
# Bulk Modulus (GPa) = 60.88991 68.15746 64.52368
# Shear Modulus (GPa) = 30.08734 33.65673 31.87203
#
# Velocity S-wave (km/s) = 3.85956 4.08208 3.97238
# Velocity P-wave (km/s) = 7.07164 7.48081 7.27910
#
# Compressibility (1/GPa) = 0.01642308
#
# Stress axis : x y z
#
# Youngs Moduli (GPa) = 114.92370 56.42723 55.54621
#
# Poissons Ratio (x) = 0.33502 -0.03654
# Poissons Ratio (y) = 0.68233 0.48449
# Poissons Ratio (z) = -0.07560 0.49217
#
# Static dielectric constant tensor:
#      x y z
#    x 1.749490 0.000000 0.000000 
#    y 0.000000 1.806110 0.000000 
#    z 0.000000 0.000000 1.769590 
# 
# From -- ./inp_files/45185.got.cif
#   From: 2010.05.17/outbox.cif.g08.bks.cpg/sg68_23_cif.got.tgz:45185.got - 2010.06.03 18:57:09.
