data_PCOD9508141
_publ_section_title
;
Structure prediction by ZEFSAII (Michael W. Deem and Ramdas Pophale) SiO2 
 PCOD9508141
Probable space group: C C C A
;
_chemical_formula_sum "Si O2"
_cell_formula_units_Z 88
_cell_length_a 14.163844
_cell_length_b 23.143237
_cell_length_c 11.929476
_cell_angle_alpha 90.000000
_cell_angle_beta 90.000000
_cell_angle_gamma 90.000000
_cell_volume 3910.448813
_symmetry_space_group_name_H-M "C C C A"
_symmetry_group_IT_number 68
_space_group.IT_coordinate_system_code '2'
_symmetry_cell_setting 'orthorhombic'
loop_
_space_group_symop_operation_xyz
x,y,z
-x,1/2-y,z
x,1/2-y,1/2-z
-x,y,1/2-z
-x,-y,-z
x,1/2+y,-z
-x,1/2+y,1/2+z
x,-y,1/2+z
1/2+x,1/2+y,z
1/2-x,-y,z
1/2+x,-y,1/2-z
1/2-x,1/2+y,1/2-z
1/2-x,1/2-y,-z
1/2+x,y,-z
1/2-x,y,1/2+z
1/2+x,1/2-y,1/2+z
loop_
_atom_site_type_symbol
_atom_site_label
_atom_site_fract_x
_atom_site_fract_y
_atom_site_fract_z
Si Si1 0.395319 0.236994 0.499041
Si Si2 0.000000 0.567415 0.250000
Si Si3 0.568793 0.525509 0.092043
Si Si4 0.809654 0.828482 0.663649
Si Si5 0.500000 0.623807 0.250000
Si Si6 0.839977 0.750000 0.250000
Si Si7 0.848151 0.607950 0.436146
O O1 0.500000 0.250000 0.542546
O O2 0.327908 0.279200 0.569913
O O3 0.393523 0.252645 0.366839
O O4 0.370236 0.169116 0.498184
O O5 0.926840 0.524813 0.184361
O O6 0.932502 0.600066 0.341564
O O7 0.519093 0.580727 0.147783
O O8 0.500000 0.500000 0.000000
O O9 0.652308 0.554571 0.021956
O O10 0.906991 0.840415 0.724004
O O11 0.729997 0.804206 0.745567
O O12 0.756906 0.883837 0.612854
#
# Coordination Sequence:
#
# PCOD9508141 Si02
#       7
#    16   8  16  16   8   8  16
#     4  11  24  40  64  99 137 178 224 268 336 421
#     4   9  20  40  70 102 130 174 228 283 340 394
#     4   9  20  43  68  93 131 169 228 289 331 400
#     4  11  26  40  65  99 138 175 226 269 340 425
#     4  11  24  43  65  96 131 184 223 277 358 396
#     4  10  23  39  62  90 140 166 218 274 322 402
#     4  10  21  41  66  94 135 177 217 280 342 401
#
# _framework density 22.503810999999999
#
# number of rings (size 3 to 8) (size 9 to 14) (size 15 to 20)
#    0.000    1.818    0.000    3.545   12.727    0.000 
#    0.000   10.000    0.000    0.000    0.000    0.000 
#    0.000    0.000    0.000    0.000    0.000    0.000 
#
# Total GULP energy -245518.076657 kJ/mol
# GULP energy per Si atom -5579.956288 kJ/mol
# Density = 2.245259 g / cm^3
# Si number density = 22.503811 Si / 1000 Ang^3
#
#
#
# Elastic Constant Matrix: (Units=GPa)
#
#
# Indices 1 2 3 4 5 6 
#
# 1 113.7224 38.2094 23.6273 0.0000 0.0000 0.0000
# 2 38.2094 88.0159 49.0066 0.0000 0.0000 0.0000
# 3 23.6273 49.0066 90.6785 0.0000 0.0000 0.0000
# 4 0.0000 0.0000 0.0000 26.8960 0.0000 0.0000
# 5 0.0000 0.0000 0.0000 0.0000 18.1254 0.0000
# 6 0.0000 0.0000 0.0000 0.0000 0.0000 18.3194
#
#
#
# Elastic Compliance Matrix: (Units=1/GPa)
#
#
# Indices 1 2 3 4 5 6 
#
# 1 0.010304 -0.004260 -0.000382 0.000000 0.000000 0.000000
# 2 -0.004260 0.018014 -0.008625 0.000000 0.000000 0.000000
# 3 -0.000382 -0.008625 0.015789 0.000000 0.000000 0.000000
# 4 0.000000 0.000000 0.000000 0.037180 0.000000 0.000000
# 5 0.000000 0.000000 0.000000 0.000000 0.055171 0.000000
# 6 0.000000 0.000000 0.000000 0.000000 0.000000 0.054587
#
#
# Mechanical properties :
#
#
# Convention : Reuss Voigt Hill
#
# Bulk Modulus (GPa) = 56.91234 57.12260 57.01747
# Shear Modulus (GPa) = 22.37754 24.77304 23.57529
#
# Velocity S-wave (km/s) = 3.15681 3.32149 3.24020
# Velocity P-wave (km/s) = 6.21549 6.33627 6.27617
#
# Compressibility (1/GPa) = 0.01757088
#
# Stress axis : x y z
#
# Youngs Moduli (GPa) = 97.04768 55.51374 63.33492
#
# Poissons Ratio (x) = 0.23651 0.02422
# Poissons Ratio (y) = 0.41346 0.54628
# Poissons Ratio (z) = 0.03711 0.47882
#
# Static dielectric constant tensor:
#      x y z
#    x 1.826150 0.000000 0.000000 
#    y 0.000000 1.884400 0.000000 
#    z 0.000000 0.000000 1.944530 
# 
# From -- ./inp_files/13356.got.cif
#   From: 2010.05.17/outbox.cif.g08.bks.cpg/sg68_7_cif.got.tgz:13356.got - 2010.06.03 18:57:09.
