data_PCOD9508580
_publ_section_title
;
Structure prediction by ZEFSAII (Michael W. Deem and Ramdas Pophale) SiO2 
 PCOD9508580
Probable space group: C C C A
;
_chemical_formula_sum "Si O2"
_cell_formula_units_Z 52
_cell_length_a 5.112676
_cell_length_b 27.578071
_cell_length_c 17.862166
_cell_angle_alpha 90.000000
_cell_angle_beta 90.000000
_cell_angle_gamma 90.000000
_cell_volume 2518.525068
_symmetry_space_group_name_H-M "C C C A"
_symmetry_group_IT_number 68
_space_group.IT_coordinate_system_code '2'
_symmetry_cell_setting 'orthorhombic'
loop_
_space_group_symop_operation_xyz
x,y,z
-x,1/2-y,z
x,1/2-y,1/2-z
-x,y,1/2-z
-x,-y,-z
x,1/2+y,-z
-x,1/2+y,1/2+z
x,-y,1/2+z
1/2+x,1/2+y,z
1/2-x,-y,z
1/2+x,-y,1/2-z
1/2-x,1/2+y,1/2-z
1/2-x,1/2-y,-z
1/2+x,y,-z
1/2-x,y,1/2+z
1/2+x,1/2-y,1/2+z
loop_
_atom_site_type_symbol
_atom_site_label
_atom_site_fract_x
_atom_site_fract_y
_atom_site_fract_z
Si Si1 0.738170 0.281148 0.103375
Si Si2 0.000000 0.250000 0.750000
Si Si3 0.502082 0.966512 0.838224
Si Si4 0.302731 0.609758 0.954186
O O1 0.500000 0.250000 0.070549
O O2 0.671277 0.282078 0.192776
O O3 0.720262 0.333752 0.067550
O O4 0.000000 0.250000 0.095752
O O5 0.500000 0.954608 0.750000
O O6 0.563745 0.919096 0.886303
O O7 0.750000 0.000000 0.853145
O O8 0.250000 0.000000 0.855708
O O9 0.505693 0.598095 0.021593
#
# Coordination Sequence:
#
# PCOD9508580 Si02
#       4
#    16   4  16  16
#     4  10  22  40  63  90 128 168 220 264 321 380
#     4   8  22  40  62  92 118 176 212 272 330 368
#     4  10  23  44  68  96 126 167 219 274 325 386
#     4  12  26  41  64  98 131 175 213 262 335 393
#
# _framework density 20.647005
#
# number of rings (size 3 to 8) (size 9 to 14) (size 15 to 20)
#    0.923    0.615    0.000    4.154    2.154    7.385 
#    0.000    3.077    0.000    0.000    0.000    0.000 
#    0.000    0.000    0.000    0.000    0.000    0.000 
#
# Total GULP energy -144964.920576 kJ/mol
# GULP energy per Si atom -5575.573868 kJ/mol
# Density = 2.060001 g / cm^3
# Si number density = 20.647005 Si / 1000 Ang^3
#
#
#
# Elastic Constant Matrix: (Units=GPa)
#
#
# Indices 1 2 3 4 5 6 
#
# 1 176.3403 49.3992 31.0488 0.0000 0.0000 0.0000
# 2 49.3992 102.7103 30.9802 0.0000 0.0000 0.0000
# 3 31.0488 30.9802 55.7035 0.0000 0.0000 0.0000
# 4 0.0000 0.0000 0.0000 77.7653 0.0000 0.0000
# 5 0.0000 0.0000 0.0000 0.0000 -31.7913 0.0000
# 6 0.0000 0.0000 0.0000 0.0000 0.0000 44.1499
#
#
#
# Elastic Compliance Matrix: (Units=1/GPa)
#
#
# Indices 1 2 3 4 5 6 
#
# 1 0.006805 -0.002558 -0.002370 0.000000 0.000000 0.000000
# 2 -0.002558 0.012660 -0.005615 0.000000 0.000000 0.000000
# 3 -0.002370 -0.005615 0.022396 0.000000 0.000000 0.000000
# 4 0.000000 0.000000 0.000000 0.012859 0.000000 0.000000
# 5 0.000000 0.000000 0.000000 0.000000 -0.031455 0.000000
# 6 0.000000 0.000000 0.000000 0.000000 0.000000 0.022650
#
#
# Mechanical properties :
#
#
# Convention : Reuss Voigt Hill
#
# Bulk Modulus (GPa) = 48.13655 61.95670 55.04663
# Shear Modulus (GPa) = 67.63406 32.91317 50.27362
#
# Velocity S-wave (km/s) = 5.72961 3.99694 4.93983
# Velocity P-wave (km/s) = 8.19365 7.16752 7.69771
#
# Compressibility (1/GPa) = 0.02077423
#
# Stress axis : x y z
#
# Youngs Moduli (GPa) = 146.95622 78.98851 44.64989
#
# Poissons Ratio (x) = 0.20204 0.10584
# Poissons Ratio (y) = 0.37589 0.25072
# Poissons Ratio (z) = 0.34834 0.44355
#
# Static dielectric constant tensor:
#      x y z
#    x 1.710240 0.000000 0.000000 
#    y 0.000000 -1.009240 0.000000 
#    z 0.000000 0.000000 0.381170 
# 
# From -- ./inp_files/34816.got.cif
#   From: 2010.05.17/outbox.cif.g08.bks.cpg/sg68_18_cif.got.tgz:34816.got - 2010.06.03 18:57:09.
