data_PCOD9508028
_publ_section_title
;
Structure prediction by ZEFSAII (Michael W. Deem and Ramdas Pophale) SiO2 
 PCOD9508028
Probable space group: C C C A
;
_chemical_formula_sum "Si O2"
_cell_formula_units_Z 116
_cell_length_a 8.851163
_cell_length_b 25.039434
_cell_length_c 24.760963
_cell_angle_alpha 90.000000
_cell_angle_beta 90.000000
_cell_angle_gamma 90.000000
_cell_volume 5487.725475
_symmetry_space_group_name_H-M "C C C A"
_symmetry_group_IT_number 68
_space_group.IT_coordinate_system_code '2'
_symmetry_cell_setting 'orthorhombic'
loop_
_space_group_symop_operation_xyz
x,y,z
-x,1/2-y,z
x,1/2-y,1/2-z
-x,y,1/2-z
-x,-y,-z
x,1/2+y,-z
-x,1/2+y,1/2+z
x,-y,1/2+z
1/2+x,1/2+y,z
1/2-x,-y,z
1/2+x,-y,1/2-z
1/2-x,1/2+y,1/2-z
1/2-x,1/2-y,-z
1/2+x,y,-z
1/2-x,y,1/2+z
1/2+x,1/2-y,1/2+z
loop_
_atom_site_type_symbol
_atom_site_label
_atom_site_fract_x
_atom_site_fract_y
_atom_site_fract_z
Si Si1 0.183849 0.943149 0.045161
Si Si2 0.632435 0.103752 0.042768
Si Si3 0.176655 0.447029 0.338381
Si Si4 0.530437 0.687501 0.613220
Si Si5 0.500000 0.250000 0.750000
Si Si6 0.873161 0.370855 0.785823
Si Si7 0.283016 0.328368 0.807872
Si Si8 0.823916 0.442373 0.358753
O O1 0.219985 0.939582 0.108464
O O2 0.005291 0.938272 0.038083
O O3 0.250000 0.000000 0.026392
O O4 0.274814 0.897741 0.012688
O O5 0.540074 0.156350 0.061902
O O6 0.755564 0.085789 0.087634
O O7 0.250000 0.500000 0.311512
O O8 0.180319 0.391334 0.307233
O O9 0.003184 0.451754 0.357212
O O10 0.500000 0.750000 0.609530
O O11 0.446347 0.656779 0.662171
O O12 0.702845 0.682905 0.634991
O O13 0.414324 0.289093 0.791449
O O14 0.823606 0.324583 0.744812
O O15 0.739009 0.406788 0.809341
O O16 0.000000 0.401821 0.750000
O O17 0.750000 0.500000 0.355268
#
# Coordination Sequence:
#
# PCOD9508028 Si02
#       8
#    16  16  16  16   4  16  16  16
#     4  11  21  38  64  95 127 165 205 260 316 384
#     4  11  22  40  63  94 125 164 215 263 315 386
#     4  11  24  39  64  93 139 174 208 267 328 392
#     4  10  21  40  65  88 124 166 210 272 325 376
#     4  12  24  36  70  92 124 176 220 284 308 388
#     4   9  21  37  61  87 124 163 215 266 313 389
#     4  11  22  42  61  96 128 165 226 261 329 374
#     4  11  22  37  59  90 126 173 210 255 318 385
#
# _framework density 21.138083000000002
#
# number of rings (size 3 to 8) (size 9 to 14) (size 15 to 20)
#    0.000    1.379    1.379    4.966    3.862    3.586 
#    0.000    0.690    1.517    0.000    0.000    0.000 
#    0.000    0.000    0.000    0.000    0.000    0.000 
#
# Total GULP energy -323431.148149 kJ/mol
# GULP energy per Si atom -5576.399106 kJ/mol
# Density = 2.108997 g / cm^3
# Si number density = 21.138083 Si / 1000 Ang^3
#
#
#
# Elastic Constant Matrix: (Units=GPa)
#
#
# Indices 1 2 3 4 5 6 
#
# 1 94.6972 30.4940 -11.6406 0.0000 0.0000 0.0000
# 2 30.4940 124.9312 16.6963 0.0000 0.0000 0.0000
# 3 -11.6406 16.6963 35.9199 0.0000 0.0000 0.0000
# 4 0.0000 0.0000 0.0000 8.4981 0.0000 0.0000
# 5 0.0000 0.0000 0.0000 0.0000 16.8403 0.0000
# 6 0.0000 0.0000 0.0000 0.0000 0.0000 26.3532
#
#
#
# Elastic Compliance Matrix: (Units=1/GPa)
#
#
# Indices 1 2 3 4 5 6 
#
# 1 0.012512 -0.003834 0.005837 0.000000 0.000000 0.000000
# 2 -0.003834 0.009709 -0.005756 0.000000 0.000000 0.000000
# 3 0.005837 -0.005756 0.032407 0.000000 0.000000 0.000000
# 4 0.000000 0.000000 0.000000 0.117674 0.000000 0.000000
# 5 0.000000 0.000000 0.000000 0.000000 0.059381 0.000000
# 6 0.000000 0.000000 0.000000 0.000000 0.000000 0.037946
#
#
# Mechanical properties :
#
#
# Convention : Reuss Voigt Hill
#
# Bulk Modulus (GPa) = 21.22121 36.29419 28.75770
# Shear Modulus (GPa) = 17.07402 25.00490 21.03946
#
# Velocity S-wave (km/s) = 2.84516 3.44311 3.15831
# Velocity P-wave (km/s) = 4.56665 5.74578 5.18981
#
# Compressibility (1/GPa) = 0.04712267
#
# Stress axis : x y z
#
# Youngs Moduli (GPa) = 79.92247 102.99224 30.85783
#
# Poissons Ratio (x) = 0.39488 -0.18012
# Poissons Ratio (y) = 0.30643 0.17761
# Poissons Ratio (z) = -0.46651 0.59279
#
# Static dielectric constant tensor:
#      x y z
#    x 1.866980 0.000000 0.000000 
#    y 0.000000 1.799100 0.000000 
#    z 0.000000 0.000000 1.864990 
# 
# From -- ./inp_files/49619.got.cif
#   From: 2010.05.17/outbox.cif.g08.bks.cpg/sg68_25_cif.got.tgz:49619.got - 2010.06.03 18:57:09.
