data_PCOD9508517
_publ_section_title
;
Structure prediction by ZEFSAII (Michael W. Deem and Ramdas Pophale) SiO2 
 PCOD9508517
Probable space group: C C C A
;
_chemical_formula_sum "Si O2"
_cell_formula_units_Z 112
_cell_length_a 10.763133
_cell_length_b 15.417344
_cell_length_c 32.794336
_cell_angle_alpha 90.000000
_cell_angle_beta 90.000000
_cell_angle_gamma 90.000000
_cell_volume 5441.856828
_symmetry_space_group_name_H-M "C C C A"
_symmetry_group_IT_number 68
_space_group.IT_coordinate_system_code '2'
_symmetry_cell_setting 'orthorhombic'
loop_
_space_group_symop_operation_xyz
x,y,z
-x,1/2-y,z
x,1/2-y,1/2-z
-x,y,1/2-z
-x,-y,-z
x,1/2+y,-z
-x,1/2+y,1/2+z
x,-y,1/2+z
1/2+x,1/2+y,z
1/2-x,-y,z
1/2+x,-y,1/2-z
1/2-x,1/2+y,1/2-z
1/2-x,1/2-y,-z
1/2+x,y,-z
1/2-x,y,1/2+z
1/2+x,1/2-y,1/2+z
loop_
_atom_site_type_symbol
_atom_site_label
_atom_site_fract_x
_atom_site_fract_y
_atom_site_fract_z
Si Si1 0.929651 0.657845 0.038215
Si Si2 0.777793 0.775351 0.390709
Si Si3 0.422542 0.876060 0.849582
Si Si4 0.891650 0.986267 0.072338
Si Si5 0.904497 0.828714 0.552871
Si Si6 0.792288 0.899464 0.326635
Si Si7 0.355634 0.073187 0.260800
O O1 0.833080 0.660504 0.075161
O O2 0.000000 0.750000 0.040555
O O3 0.029839 0.582535 0.046104
O O4 0.866331 0.653427 0.993997
O O5 0.878394 0.713521 0.369191
O O6 0.697710 0.706775 0.416294
O O7 0.715744 0.833587 0.355216
O O8 0.383522 0.949801 0.881793
O O9 0.569039 0.889855 0.844260
O O10 0.365654 0.881617 0.804444
O O11 0.750000 0.000000 0.057635
O O12 0.954824 0.080335 0.069616
O O13 0.000000 0.750000 0.550747
O O14 0.807485 0.874950 0.279000
O O15 0.750000 0.000000 0.328715
O O16 0.500000 0.044993 0.250000
O O17 0.250000 0.000000 0.265368
#
# Coordination Sequence:
#
# PCOD9508517 Si02
#       7
#    16  16  16  16  16  16  16
#     4  11  21  42  64  89 128 167 221 271 334 384
#     4  12  22  41  65  92 126 174 212 271 324 389
#     4  11  21  38  69  93 128 165 219 258 323 392
#     4  12  22  40  66  96 122 169 221 272 328 399
#     4  11  27  41  59  93 129 169 220 277 328 389
#     4  10  22  39  64  98 133 165 211 263 327 391
#     4   9  20  38  61  99 131 170 211 270 327 394
#
# _framework density 20.581211
#
# number of rings (size 3 to 8) (size 9 to 14) (size 15 to 20)
#    0.000    1.143    4.286    1.714    2.000    1.714 
#    0.000    2.857    0.000    0.000    0.000    2.000 
#    0.000    0.000    0.000    0.000    0.000    0.000 
#
# Total GULP energy -312343.944620 kJ/mol
# GULP energy per Si atom -5577.570440 kJ/mol
# Density = 2.053437 g / cm^3
# Si number density = 20.581211 Si / 1000 Ang^3
#
#
#
# Elastic Constant Matrix: (Units=GPa)
#
#
# Indices 1 2 3 4 5 6 
#
# 1 52.1453 28.1066 33.4124 0.0000 0.0000 0.0000
# 2 28.1066 127.0193 68.7682 0.0000 0.0000 0.0000
# 3 33.4124 68.7682 174.8799 0.0000 0.0000 0.0000
# 4 0.0000 0.0000 0.0000 15.4881 0.0000 0.0000
# 5 0.0000 0.0000 0.0000 0.0000 -77.4104 0.0000
# 6 0.0000 0.0000 0.0000 0.0000 0.0000 32.5003
#
#
#
# Elastic Compliance Matrix: (Units=1/GPa)
#
#
# Indices 1 2 3 4 5 6 
#
# 1 0.022978 -0.003440 -0.003037 0.000000 0.000000 0.000000
# 2 -0.003440 0.010517 -0.003478 0.000000 0.000000 0.000000
# 3 -0.003037 -0.003478 0.007666 0.000000 0.000000 0.000000
# 4 0.000000 0.000000 0.000000 0.064566 0.000000 0.000000
# 5 0.000000 0.000000 0.000000 0.000000 -0.012918 0.000000
# 6 0.000000 0.000000 0.000000 0.000000 0.000000 0.030769
#
#
# Mechanical properties :
#
#
# Convention : Reuss Voigt Hill
#
# Bulk Modulus (GPa) = 47.05988 68.29100 57.67544
# Shear Modulus (GPa) = 33.20656 9.03275 21.11965
#
# Velocity S-wave (km/s) = 4.02112 2.09723 3.20685
# Velocity P-wave (km/s) = 6.66891 6.25442 6.46499
#
# Compressibility (1/GPa) = 0.02124952
#
# Stress axis : x y z
#
# Youngs Moduli (GPa) = 43.52070 95.08175 130.43989
#
# Poissons Ratio (x) = 0.32708 0.39619
# Poissons Ratio (y) = 0.14971 0.45373
# Poissons Ratio (z) = 0.13219 0.33074
#
# Static dielectric constant tensor:
#      x y z
#    x 1.797380 0.000000 0.000000 
#    y 0.000000 1.756730 0.000000 
#    z 0.000000 0.000000 1.782400 
# 
# From -- ./inp_files/54830.got.cif
#   From: 2010.05.17/outbox.cif.g08.bks.cpg/sg68_28_cif.got.tgz:54830.got - 2010.06.03 18:57:09.
