data_PCOD9508014
_publ_section_title
;
Structure prediction by ZEFSAII (Michael W. Deem and Ramdas Pophale) SiO2 
 PCOD9508014
Probable space group: C C C A
;
_chemical_formula_sum "Si O2"
_cell_formula_units_Z 56
_cell_length_a 26.288821
_cell_length_b 14.940305
_cell_length_c 5.502726
_cell_angle_alpha 90.000000
_cell_angle_beta 90.000000
_cell_angle_gamma 90.000000
_cell_volume 2161.267193
_symmetry_space_group_name_H-M "C C C A"
_symmetry_group_IT_number 68
_space_group.IT_coordinate_system_code '2'
_symmetry_cell_setting 'orthorhombic'
loop_
_space_group_symop_operation_xyz
x,y,z
-x,1/2-y,z
x,1/2-y,1/2-z
-x,y,1/2-z
-x,-y,-z
x,1/2+y,-z
-x,1/2+y,1/2+z
x,-y,1/2+z
1/2+x,1/2+y,z
1/2-x,-y,z
1/2+x,-y,1/2-z
1/2-x,1/2+y,1/2-z
1/2-x,1/2-y,-z
1/2+x,y,-z
1/2-x,y,1/2+z
1/2+x,1/2-y,1/2+z
loop_
_atom_site_type_symbol
_atom_site_label
_atom_site_fract_x
_atom_site_fract_y
_atom_site_fract_z
Si Si1 0.438458 0.518592 0.135958
Si Si2 0.559032 0.781337 0.001345
Si Si3 0.677344 0.046838 0.200362
Si Si4 0.282953 0.250000 0.250000
O O1 0.459658 0.538632 0.407800
O O2 0.382566 0.478211 0.181489
O O3 0.438547 0.613799 0.008919
O O4 0.500000 0.750000 0.003030
O O5 0.582049 0.750000 0.750000
O O6 0.584699 0.750000 0.250000
O O7 0.688185 0.152721 0.238736
O O8 0.695954 0.990904 0.437849
O O9 0.250000 0.250000 0.500000
#
# Coordination Sequence:
#
# PCOD9508014 Si02
#       4
#    16  16  16   8
#     4  10  21  42  64  96 133 181 233 289 347 407
#     4  10  21  40  63  97 134 179 232 296 356 421
#     4  10  23  45  67 104 141 182 235 285 340 426
#     4  12  26  44  74 108 142 187 224 283 362 422
#
# _framework density 25.910724999999999
#
# number of rings (size 3 to 8) (size 9 to 14) (size 15 to 20)
#    0.000    1.714    0.000    3.429    0.000    3.429 
#   30.857   17.143    0.000    0.000    0.000    0.000 
#    0.000    0.000    0.000    0.000    0.000    0.000 
#
# Total GULP energy -156337.983405 kJ/mol
# GULP energy per Si atom -5583.499407 kJ/mol
# Density = 2.585175 g / cm^3
# Si number density = 25.910725 Si / 1000 Ang^3
#
#
#
# Elastic Constant Matrix: (Units=GPa)
#
#
# Indices 1 2 3 4 5 6 
#
# 1 100.4999 72.4626 67.7717 0.0000 0.0000 0.0000
# 2 72.4626 211.9454 46.6211 0.0000 0.0000 0.0000
# 3 67.7717 46.6211 284.1744 0.0000 0.0000 0.0000
# 4 0.0000 0.0000 0.0000 63.6137 0.0000 0.0000
# 5 0.0000 0.0000 0.0000 0.0000 -10.1669 0.0000
# 6 0.0000 0.0000 0.0000 0.0000 0.0000 48.7178
#
#
#
# Elastic Compliance Matrix: (Units=1/GPa)
#
#
# Indices 1 2 3 4 5 6 
#
# 1 0.015170 -0.004555 -0.002871 0.000000 0.000000 0.000000
# 2 -0.004555 0.006263 0.000059 0.000000 0.000000 0.000000
# 3 -0.002871 0.000059 0.004194 0.000000 0.000000 0.000000
# 4 0.000000 0.000000 0.000000 0.015720 0.000000 0.000000
# 5 0.000000 0.000000 0.000000 0.000000 -0.098358 0.000000
# 6 0.000000 0.000000 0.000000 0.000000 0.000000 0.020526
#
#
# Mechanical properties :
#
#
# Convention : Reuss Voigt Hill
#
# Bulk Modulus (GPa) = 91.80083 107.81449 99.80766
# Shear Modulus (GPa) = -275.93599 47.75054 -114.09272
#
# Velocity S-wave (km/s) = -10.33083 4.29754 -6.64294
# Velocity P-wave (km/s) = 10.33416 8.14405 4.49830
#
# Compressibility (1/GPa) = 0.01089315
#
# Stress axis : x y z
#
# Youngs Moduli (GPa) = 65.91754 159.67722 238.44135
#
# Poissons Ratio (x) = 0.72737 0.68448
# Poissons Ratio (y) = 0.30027 -0.01405
# Poissons Ratio (z) = 0.18922 -0.00941
#
# Static dielectric constant tensor:
#      x y z
#    x 2.107680 0.000000 0.000000 
#    y 0.000000 1.306470 0.000000 
#    z 0.000000 0.000000 1.969880 
# 
# From -- ./inp_files/681.got.cif
#   From: 2010.05.17/outbox.cif.g08.bks.cpg/sg68_1_cif.got.tgz:681.got - 2010.06.03 18:57:09.
