data_PCOD9508838
_publ_section_title
;
Structure prediction by ZEFSAII (Michael W. Deem and Ramdas Pophale) SiO2 
 PCOD9508838
Probable space group: C C C A
;
_chemical_formula_sum "Si O2"
_cell_formula_units_Z 104
_cell_length_a 9.069166
_cell_length_b 25.490092
_cell_length_c 20.598686
_cell_angle_alpha 90.000000
_cell_angle_beta 90.000000
_cell_angle_gamma 90.000000
_cell_volume 4761.878077
_symmetry_space_group_name_H-M "C C C A"
_symmetry_group_IT_number 68
_space_group.IT_coordinate_system_code '2'
_symmetry_cell_setting 'orthorhombic'
loop_
_space_group_symop_operation_xyz
x,y,z
-x,1/2-y,z
x,1/2-y,1/2-z
-x,y,1/2-z
-x,-y,-z
x,1/2+y,-z
-x,1/2+y,1/2+z
x,-y,1/2+z
1/2+x,1/2+y,z
1/2-x,-y,z
1/2+x,-y,1/2-z
1/2-x,1/2+y,1/2-z
1/2-x,1/2-y,-z
1/2+x,y,-z
1/2-x,y,1/2+z
1/2+x,1/2-y,1/2+z
loop_
_atom_site_type_symbol
_atom_site_label
_atom_site_fract_x
_atom_site_fract_y
_atom_site_fract_z
Si Si1 0.500000 0.618861 0.750000
Si Si2 0.500000 0.750000 0.161891
Si Si3 0.070894 0.053266 0.322445
Si Si4 0.464540 0.149738 0.911283
Si Si5 0.652487 0.147481 0.030751
Si Si6 0.589763 0.441937 0.366760
Si Si7 0.500000 0.250000 0.406132
Si Si8 0.298366 0.795835 0.703709
O O1 0.510669 0.585132 0.686207
O O2 0.646019 0.654260 0.743457
O O3 0.576036 0.794000 0.118521
O O4 0.375148 0.785372 0.195898
O O5 0.017272 0.106634 0.355613
O O6 0.249090 0.057874 0.330773
O O7 0.000000 0.046712 0.250000
O O8 0.040238 0.002479 0.368468
O O9 0.326084 0.139979 0.958271
O O10 0.607740 0.148181 0.955900
O O11 0.591476 0.096665 0.071254
O O12 0.590000 0.203869 0.056649
O O13 0.614034 0.215710 0.362467
O O14 0.347825 0.750000 0.750000
#
# Coordination Sequence:
#
# PCOD9508838 Si02
#       8
#     8   8  16  16  16  16   8  16
#     4  12  21  38  70 102 132 185 234 268 348 416
#     4  12  28  42  62 100 138 185 223 282 352 391
#     4  10  23  45  67  98 137 171 223 290 355 414
#     4  11  27  44  66  96 134 183 227 287 342 407
#     4  11  24  44  66  95 133 177 232 278 339 409
#     4  10  22  42  70  96 132 177 220 290 349 407
#     4  12  20  40  66  92 135 176 221 276 328 409
#     4  12  23  39  62 100 141 179 220 271 336 411
#
# _framework density 21.840122000000001
#
# number of rings (size 3 to 8) (size 9 to 14) (size 15 to 20)
#    0.000    0.923    5.385    0.692    6.462    1.846 
#    0.000    0.000    0.000    0.000    0.000    0.000 
#    0.000    0.000    0.000    0.000    0.000    0.000 
#
# Total GULP energy -289794.487642 kJ/mol
# GULP energy per Si atom -5572.970916 kJ/mol
# Density = 2.179041 g / cm^3
# Si number density = 21.840122 Si / 1000 Ang^3
#
#
#
# Elastic Constant Matrix: (Units=GPa)
#
#
# Indices 1 2 3 4 5 6 
#
# 1 61.7281 0.2147 4.8695 0.0000 0.0000 0.0000
# 2 0.2147 137.1180 15.6328 0.0000 0.0000 0.0000
# 3 4.8695 15.6328 31.0960 0.0000 0.0000 0.0000
# 4 0.0000 0.0000 0.0000 4.7800 0.0000 0.0000
# 5 0.0000 0.0000 0.0000 0.0000 30.3354 0.0000
# 6 0.0000 0.0000 0.0000 0.0000 0.0000 104.8862
#
#
#
# Elastic Compliance Matrix: (Units=1/GPa)
#
#
# Indices 1 2 3 4 5 6 
#
# 1 0.016413 0.000284 -0.002713 0.000000 0.000000 0.000000
# 2 0.000284 0.007741 -0.003936 0.000000 0.000000 0.000000
# 3 -0.002713 -0.003936 0.034562 0.000000 0.000000 0.000000
# 4 0.000000 0.000000 0.000000 0.209206 0.000000 0.000000
# 5 0.000000 0.000000 0.000000 0.000000 0.032965 0.000000
# 6 0.000000 0.000000 0.000000 0.000000 0.000000 0.009534
#
#
# Mechanical properties :
#
#
# Convention : Reuss Voigt Hill
#
# Bulk Modulus (GPa) = 21.74584 30.15289 25.94937
# Shear Modulus (GPa) = 14.77186 41.94864 28.36025
#
# Velocity S-wave (km/s) = 2.60352 4.38735 3.60743
# Velocity P-wave (km/s) = 4.36076 6.28501 5.40914
#
# Compressibility (1/GPa) = 0.04598580
#
# Stress axis : x y z
#
# Youngs Moduli (GPa) = 60.92697 129.17709 28.93337
#
# Poissons Ratio (x) = -0.03663 0.07849
# Poissons Ratio (y) = -0.01728 0.11389
# Poissons Ratio (z) = 0.16528 0.50846
#
# Static dielectric constant tensor:
#      x y z
#    x 1.838330 0.000000 0.000000 
#    y 0.000000 1.800160 0.000000 
#    z 0.000000 0.000000 1.457170 
# 
# From -- ./inp_files/36620.got.cif
#   From: 2010.05.17/outbox.cif.g08.bks.cpg/sg68_19_cif.got.tgz:36620.got - 2010.06.03 18:57:09.
