data_PCOD9508606
_publ_section_title
;
Structure prediction by ZEFSAII (Michael W. Deem and Ramdas Pophale) SiO2 
 PCOD9508606
Probable space group: C C C A
;
_chemical_formula_sum "Si O2"
_cell_formula_units_Z 92
_cell_length_a 21.351591
_cell_length_b 17.994340
_cell_length_c 11.291851
_cell_angle_alpha 90.000000
_cell_angle_beta 90.000000
_cell_angle_gamma 90.000000
_cell_volume 4338.417095
_symmetry_space_group_name_H-M "C C C A"
_symmetry_group_IT_number 68
_space_group.IT_coordinate_system_code '2'
_symmetry_cell_setting 'orthorhombic'
loop_
_space_group_symop_operation_xyz
x,y,z
-x,1/2-y,z
x,1/2-y,1/2-z
-x,y,1/2-z
-x,-y,-z
x,1/2+y,-z
-x,1/2+y,1/2+z
x,-y,1/2+z
1/2+x,1/2+y,z
1/2-x,-y,z
1/2+x,-y,1/2-z
1/2-x,1/2+y,1/2-z
1/2-x,1/2-y,-z
1/2+x,y,-z
1/2-x,y,1/2+z
1/2+x,1/2-y,1/2+z
loop_
_atom_site_type_symbol
_atom_site_label
_atom_site_fract_x
_atom_site_fract_y
_atom_site_fract_z
Si Si1 0.061850 0.892680 0.828995
Si Si2 0.137970 0.250000 0.250000
Si Si3 0.538027 0.615352 0.603207
Si Si4 0.208532 0.844701 0.378854
Si Si5 0.000000 0.750000 0.250000
Si Si6 0.596688 0.946303 0.685405
Si Si7 0.248370 0.683432 0.376570
O O1 0.096376 0.819928 0.783401
O O2 0.000000 0.906919 0.750000
O O3 0.104588 0.966152 0.826805
O O4 0.044261 0.880433 0.964791
O O5 0.184421 0.276516 0.354484
O O6 0.538392 0.695804 0.665132
O O7 0.471506 0.576418 0.633222
O O8 0.591433 0.571375 0.674404
O O9 0.146632 0.894053 0.378175
O O10 0.201492 0.754366 0.382380
O O11 0.237331 0.858664 0.247511
O O12 0.248402 0.858959 0.498809
#
# Coordination Sequence:
#
# PCOD9508606 Si02
#       7
#    16   8  16  16   4  16  16
#     4  12  25  40  62  95 139 175 214 271 333 398
#     4  10  25  38  61  96 124 174 218 270 342 386
#     4  10  23  40  59  95 139 167 225 260 314 408
#     4   9  19  38  70  89 127 172 212 278 343 377
#     4   8  20  36  56  84 112 176 220 258 292 388
#     4  10  22  40  65  91 129 184 210 264 328 395
#     4   9  21  41  62  97 127 159 226 286 322 394
#
# _framework density 21.20589
#
# number of rings (size 3 to 8) (size 9 to 14) (size 15 to 20)
#    0.000    2.435    1.739    0.783    4.870   12.522 
#    0.000    3.478    0.000    8.348    0.000    0.000 
#    0.000    0.000    0.000    0.000    0.000    0.000 
#
# Total GULP energy -256563.796973 kJ/mol
# GULP energy per Si atom -5577.473847 kJ/mol
# Density = 2.115762 g / cm^3
# Si number density = 21.205890 Si / 1000 Ang^3
#
#
#
# Elastic Constant Matrix: (Units=GPa)
#
#
# Indices 1 2 3 4 5 6 
#
# 1 57.5135 48.6935 25.6158 0.0000 0.0000 0.0000
# 2 48.6935 125.3778 50.2990 0.0000 0.0000 0.0000
# 3 25.6158 50.2990 177.8189 0.0000 0.0000 0.0000
# 4 0.0000 0.0000 0.0000 4.7196 0.0000 0.0000
# 5 0.0000 0.0000 0.0000 0.0000 19.0073 0.0000
# 6 0.0000 0.0000 0.0000 0.0000 0.0000 17.6555
#
#
#
# Elastic Compliance Matrix: (Units=1/GPa)
#
#
# Indices 1 2 3 4 5 6 
#
# 1 0.026064 -0.009719 -0.001005 0.000000 0.000000 0.000000
# 2 -0.009719 0.012621 -0.002170 0.000000 0.000000 0.000000
# 3 -0.001005 -0.002170 0.006382 0.000000 0.000000 0.000000
# 4 0.000000 0.000000 0.000000 0.211881 0.000000 0.000000
# 5 0.000000 0.000000 0.000000 0.000000 0.052611 0.000000
# 6 0.000000 0.000000 0.000000 0.000000 0.000000 0.056640
#
#
# Mechanical properties :
#
#
# Convention : Reuss Voigt Hill
#
# Bulk Modulus (GPa) = 51.87232 67.76962 59.82097
# Shear Modulus (GPa) = 12.54976 24.01661 18.28318
#
# Velocity S-wave (km/s) = 2.43534 3.36898 2.93947
# Velocity P-wave (km/s) = 5.69405 6.86736 6.30805
#
# Compressibility (1/GPa) = 0.01927810
#
# Stress axis : x y z
#
# Youngs Moduli (GPa) = 38.36761 79.23241 156.68203
#
# Poissons Ratio (x) = 0.77007 0.15753
# Poissons Ratio (y) = 0.37290 0.34000
# Poissons Ratio (z) = 0.03858 0.17193
#
# Static dielectric constant tensor:
#      x y z
#    x 1.796640 0.000000 0.000000 
#    y 0.000000 1.782190 0.000000 
#    z 0.000000 0.000000 1.807170 
# 
# From -- ./inp_files/15464.got.cif
#   From: 2010.05.17/outbox.cif.g08.bks.cpg/sg68_8_cif.got.tgz:15464.got - 2010.06.03 18:57:09.
