data_PCOD9508784
_publ_section_title
;
Structure prediction by ZEFSAII (Michael W. Deem and Ramdas Pophale) SiO2 
 PCOD9508784
Probable space group: C C C A
;
_chemical_formula_sum "Si O2"
_cell_formula_units_Z 60
_cell_length_a 34.325327
_cell_length_b 13.448048
_cell_length_c 5.625406
_cell_angle_alpha 90.000000
_cell_angle_beta 90.000000
_cell_angle_gamma 90.000000
_cell_volume 2596.736042
_symmetry_space_group_name_H-M "C C C A"
_symmetry_group_IT_number 68
_space_group.IT_coordinate_system_code '2'
_symmetry_cell_setting 'orthorhombic'
loop_
_space_group_symop_operation_xyz
x,y,z
-x,1/2-y,z
x,1/2-y,1/2-z
-x,y,1/2-z
-x,-y,-z
x,1/2+y,-z
-x,1/2+y,1/2+z
x,-y,1/2+z
1/2+x,1/2+y,z
1/2-x,-y,z
1/2+x,-y,1/2-z
1/2-x,1/2+y,1/2-z
1/2-x,1/2-y,-z
1/2+x,y,-z
1/2-x,y,1/2+z
1/2+x,1/2-y,1/2+z
loop_
_atom_site_type_symbol
_atom_site_label
_atom_site_fract_x
_atom_site_fract_y
_atom_site_fract_z
Si Si1 0.000000 0.250000 0.750000
Si Si2 0.345933 0.619529 0.840845
Si Si3 0.226527 0.250000 0.750000
Si Si4 0.124951 0.898158 0.656241
Si Si5 0.460282 0.638999 0.359945
O O1 0.028630 0.327552 0.621835
O O2 0.302778 0.656732 0.780798
O O3 0.351311 0.500924 0.856686
O O4 0.369867 0.650014 0.604080
O O5 0.360199 0.653789 0.102451
O O6 0.250000 0.250000 0.500000
O O7 0.078983 0.919702 0.682135
O O8 0.454430 0.750000 0.250000
O O9 0.500000 0.595491 0.250000
#
# Coordination Sequence:
#
# PCOD9508784 Si02
#       5
#     4  16   8  16  16
#     4   8  18  34  52  94 132 176 248 280 322 360
#     4  10  24  43  65 100 131 165 219 258 338 399
#     4  12  26  47  76 102 127 164 213 272 336 416
#     4  10  22  42  64  97 138 177 215 272 319 387
#     4   9  20  34  59  95 134 181 235 271 322 362
#
# _framework density 23.105931000000002
#
# number of rings (size 3 to 8) (size 9 to 14) (size 15 to 20)
#    0.000    2.400    0.000    1.600   11.200    0.000 
#    0.000   21.333    0.000    0.000    0.000    0.000 
#    0.000    0.000    0.000    0.000    0.000    0.000 
#
# Total GULP energy -167138.444501 kJ/mol
# GULP energy per Si atom -5571.281483 kJ/mol
# Density = 2.305334 g / cm^3
# Si number density = 23.105931 Si / 1000 Ang^3
#
#
#
# Elastic Constant Matrix: (Units=GPa)
#
#
# Indices 1 2 3 4 5 6 
#
# 1 180.0106 32.7945 63.6584 0.0000 0.0000 0.0000
# 2 32.7945 78.0593 21.4014 0.0000 0.0000 0.0000
# 3 63.6584 21.4014 207.7010 0.0000 0.0000 0.0000
# 4 0.0000 0.0000 0.0000 10.6951 0.0000 0.0000
# 5 0.0000 0.0000 0.0000 0.0000 99.2428 0.0000
# 6 0.0000 0.0000 0.0000 0.0000 0.0000 -100.6477
#
#
#
# Elastic Compliance Matrix: (Units=1/GPa)
#
#
# Indices 1 2 3 4 5 6 
#
# 1 0.006604 -0.002284 -0.001789 0.000000 0.000000 0.000000
# 2 -0.002284 0.013973 -0.000740 0.000000 0.000000 0.000000
# 3 -0.001789 -0.000740 0.005439 0.000000 0.000000 0.000000
# 4 0.000000 0.000000 0.000000 0.093501 0.000000 0.000000
# 5 0.000000 0.000000 0.000000 0.000000 0.010076 0.000000
# 6 0.000000 0.000000 0.000000 0.000000 0.000000 -0.009936
#
#
# Mechanical properties :
#
#
# Convention : Reuss Voigt Hill
#
# Bulk Modulus (GPa) = 61.00851 77.94216 69.47534
# Shear Modulus (GPa) = 37.10673 25.05248 31.07960
#
# Velocity S-wave (km/s) = 4.01176 3.29636 3.67153
# Velocity P-wave (km/s) = 6.92244 6.94937 6.93592
#
# Compressibility (1/GPa) = 0.01639116
#
# Stress axis : x y z
#
# Youngs Moduli (GPa) = 151.42609 71.56572 183.85560
#
# Poissons Ratio (x) = 0.16346 0.32886
# Poissons Ratio (y) = 0.34586 0.13601
# Poissons Ratio (z) = 0.27085 0.05294
#
# Static dielectric constant tensor:
#      x y z
#    x 1.733330 0.000000 0.000000 
#    y 0.000000 1.924630 0.000000 
#    z 0.000000 0.000000 2.486540 
# 
# From -- ./inp_files/2595.got.cif
#   From: 2010.05.17/outbox.cif.g08.bks.cpg/sg68_2_cif.got.tgz:2595.got - 2010.06.03 18:57:09.
