data_PCOD9508811
_publ_section_title
;
Structure prediction by ZEFSAII (Michael W. Deem and Ramdas Pophale) SiO2 
 PCOD9508811
Probable space group: C C C A
;
_chemical_formula_sum "Si O2"
_cell_formula_units_Z 60
_cell_length_a 16.184615
_cell_length_b 5.163922
_cell_length_c 28.171118
_cell_angle_alpha 90.000000
_cell_angle_beta 90.000000
_cell_angle_gamma 90.000000
_cell_volume 2354.431878
_symmetry_space_group_name_H-M "C C C A"
_symmetry_group_IT_number 68
_space_group.IT_coordinate_system_code '2'
_symmetry_cell_setting 'orthorhombic'
loop_
_space_group_symop_operation_xyz
x,y,z
-x,1/2-y,z
x,1/2-y,1/2-z
-x,y,1/2-z
-x,-y,-z
x,1/2+y,-z
-x,1/2+y,1/2+z
x,-y,1/2+z
1/2+x,1/2+y,z
1/2-x,-y,z
1/2+x,-y,1/2-z
1/2-x,1/2+y,1/2-z
1/2-x,1/2-y,-z
1/2+x,y,-z
1/2-x,y,1/2+z
1/2+x,1/2-y,1/2+z
loop_
_atom_site_type_symbol
_atom_site_label
_atom_site_fract_x
_atom_site_fract_y
_atom_site_fract_z
Si Si1 0.690767 0.750000 0.750000
Si Si2 0.157042 0.814857 0.533819
Si Si3 0.000000 0.250000 0.250000
Si Si4 0.000000 0.250000 0.100277
Si Si5 0.750000 0.000000 0.604808
Si Si6 0.407262 0.922954 0.828902
O O1 0.750000 0.500000 0.758233
O O2 0.633441 0.806008 0.796680
O O3 0.155474 0.570379 0.497984
O O4 0.230971 0.738984 0.569931
O O5 0.076375 0.815285 0.566736
O O6 0.059586 0.411893 0.215622
O O7 0.019844 0.495306 0.134169
O O8 0.670767 0.981811 0.637991
#
# Coordination Sequence:
#
# PCOD9508811 Si02
#       6
#     8  16   4   8   8  16
#     4  12  25  47  74 106 146 196 248 310 377 441
#     4  11  23  45  70 102 144 189 241 305 383 441
#     4  10  22  46  76 100 152 196 248 306 378 456
#     4   9  22  45  72 106 144 192 248 305 368 459
#     4  10  22  42  68 108 140 190 246 312 360 456
#     4  10  22  44  71 107 145 194 250 304 374 438
#
# _framework density 25.483858000000001
#
# number of rings (size 3 to 8) (size 9 to 14) (size 15 to 20)
#    0.000    1.600    1.333    2.400    0.000    0.533 
#    9.600   10.667    0.000    0.000    0.000    0.000 
#    0.000    0.000    0.000    0.000    0.000    0.000 
#
# Total GULP energy -167292.701650 kJ/mol
# GULP energy per Si atom -5576.423388 kJ/mol
# Density = 2.542586 g / cm^3
# Si number density = 25.483858 Si / 1000 Ang^3
#
#
#
# Elastic Constant Matrix: (Units=GPa)
#
#
# Indices 1 2 3 4 5 6 
#
# 1 135.8193 45.2614 84.1284 0.0000 0.0000 0.0000
# 2 45.2614 141.1392 74.6177 0.0000 0.0000 0.0000
# 3 84.1284 74.6177 220.8237 0.0000 0.0000 0.0000
# 4 0.0000 0.0000 0.0000 15.9929 0.0000 0.0000
# 5 0.0000 0.0000 0.0000 0.0000 154.8272 0.0000
# 6 0.0000 0.0000 0.0000 0.0000 0.0000 24.9773
#
#
#
# Elastic Compliance Matrix: (Units=1/GPa)
#
#
# Indices 1 2 3 4 5 6 
#
# 1 0.009869 -0.001433 -0.003276 0.000000 0.000000 0.000000
# 2 -0.001433 0.008834 -0.002439 0.000000 0.000000 0.000000
# 3 -0.003276 -0.002439 0.006601 0.000000 0.000000 0.000000
# 4 0.000000 0.000000 0.000000 0.062528 0.000000 0.000000
# 5 0.000000 0.000000 0.000000 0.000000 0.006459 0.000000
# 6 0.000000 0.000000 0.000000 0.000000 0.000000 0.040036
#
#
# Mechanical properties :
#
#
# Convention : Reuss Voigt Hill
#
# Bulk Modulus (GPa) = 90.84073 100.64413 95.74243
# Shear Modulus (GPa) = 32.83153 58.74447 45.78800
#
# Velocity S-wave (km/s) = 3.59322 4.80642 4.24340
# Velocity P-wave (km/s) = 7.27590 8.38935 7.85239
#
# Compressibility (1/GPa) = 0.01100828
#
# Stress axis : x y z
#
# Youngs Moduli (GPa) = 101.32393 113.19455 151.49954
#
# Poissons Ratio (x) = 0.16223 0.49627
# Poissons Ratio (y) = 0.14521 0.36954
# Poissons Ratio (z) = 0.33191 0.27610
#
# Static dielectric constant tensor:
#      x y z
#    x 1.913970 0.000000 0.000000 
#    y 0.000000 2.032030 0.000000 
#    z 0.000000 0.000000 1.957970 
# 
# From -- ./inp_files/51199.got.cif
#   From: 2010.05.17/outbox.cif.g08.bks.cpg/sg68_26_cif.got.tgz:51199.got - 2010.06.03 18:57:09.
