data_PCOD9508693
_publ_section_title
;
Structure prediction by ZEFSAII (Michael W. Deem and Ramdas Pophale) SiO2 
 PCOD9508693
Probable space group: C C C A
;
_chemical_formula_sum "Si O2"
_cell_formula_units_Z 104
_cell_length_a 20.947560
_cell_length_b 26.644687
_cell_length_c 9.274599
_cell_angle_alpha 90.000000
_cell_angle_beta 90.000000
_cell_angle_gamma 90.000000
_cell_volume 5176.535626
_symmetry_space_group_name_H-M "C C C A"
_symmetry_group_IT_number 68
_space_group.IT_coordinate_system_code '2'
_symmetry_cell_setting 'orthorhombic'
loop_
_space_group_symop_operation_xyz
x,y,z
-x,1/2-y,z
x,1/2-y,1/2-z
-x,y,1/2-z
-x,-y,-z
x,1/2+y,-z
-x,1/2+y,1/2+z
x,-y,1/2+z
1/2+x,1/2+y,z
1/2-x,-y,z
1/2+x,-y,1/2-z
1/2-x,1/2+y,1/2-z
1/2-x,1/2-y,-z
1/2+x,y,-z
1/2-x,y,1/2+z
1/2+x,1/2-y,1/2+z
loop_
_atom_site_type_symbol
_atom_site_label
_atom_site_fract_x
_atom_site_fract_y
_atom_site_fract_z
Si Si1 0.818154 0.124573 0.329208
Si Si2 0.624337 0.060743 0.334985
Si Si3 0.920256 0.294664 0.858386
Si Si4 0.320839 0.475925 0.641927
Si Si5 0.799504 0.645229 0.339236
Si Si6 0.000000 0.112624 0.750000
Si Si7 0.931095 0.200923 0.320303
O O1 0.817733 0.070278 0.254231
O O2 0.797571 0.123225 0.497644
O O3 0.768418 0.155512 0.231286
O O4 0.886073 0.152381 0.319337
O O5 0.651533 0.042727 0.488839
O O6 0.667126 0.106044 0.270943
O O7 0.550797 0.079281 0.338307
O O8 0.634015 0.017051 0.217166
O O9 0.934462 0.250000 0.750000
O O10 0.845428 0.307163 0.848969
O O11 0.955672 0.347881 0.834644
O O12 0.939340 0.281072 0.017403
O O13 0.250000 0.500000 0.624546
O O14 0.899814 0.250000 0.250000
O O15 0.000000 0.191222 0.250000
#
# Coordination Sequence:
#
# PCOD9508693 Si02
#       7
#    16  16  16  16  16   8  16
#     4  11  23  42  67  96 134 170 215 273 326 388
#     4  11  24  42  62  93 129 168 220 264 325 388
#     4  10  23  42  69  94 129 169 218 267 326 394
#     4  12  24  39  67  95 130 174 217 272 331 387
#     4  10  22  41  63  98 129 167 215 269 328 389
#     4  10  25  42  66  92 128 170 217 268 320 388
#     4  10  25  43  65  98 135 170 218 264 328 393
#
# _framework density 20.090655999999999
#
# number of rings (size 3 to 8) (size 9 to 14) (size 15 to 20)
#    0.000    1.385    1.538    2.538    6.462    3.692 
#    1.385    3.077    0.000    0.000    0.000    0.000 
#    0.000    0.000    0.000    0.000    0.000    0.000 
#
# Total GULP energy -290238.371742 kJ/mol
# GULP energy per Si atom -5581.507149 kJ/mol
# Density = 2.004493 g / cm^3
# Si number density = 20.090656 Si / 1000 Ang^3
#
#
#
# Elastic Constant Matrix: (Units=GPa)
#
#
# Indices 1 2 3 4 5 6 
#
# 1 110.2428 47.4259 48.8567 0.0000 0.0000 0.0000
# 2 47.4259 76.7643 53.9950 0.0000 0.0000 0.0000
# 3 48.8567 53.9950 159.4310 0.0000 0.0000 0.0000
# 4 0.0000 0.0000 0.0000 23.4915 0.0000 0.0000
# 5 0.0000 0.0000 0.0000 0.0000 35.1298 0.0000
# 6 0.0000 0.0000 0.0000 0.0000 0.0000 37.9255
#
#
#
# Elastic Compliance Matrix: (Units=1/GPa)
#
#
# Indices 1 2 3 4 5 6 
#
# 1 0.012664 -0.006687 -0.001616 0.000000 0.000000 0.000000
# 2 -0.006687 0.020632 -0.004938 0.000000 0.000000 0.000000
# 3 -0.001616 -0.004938 0.008440 0.000000 0.000000 0.000000
# 4 0.000000 0.000000 0.000000 0.042569 0.000000 0.000000
# 5 0.000000 0.000000 0.000000 0.000000 0.028466 0.000000
# 6 0.000000 0.000000 0.000000 0.000000 0.000000 0.026367
#
#
# Mechanical properties :
#
#
# Convention : Reuss Voigt Hill
#
# Bulk Modulus (GPa) = 65.56161 71.88814 68.72488
# Shear Modulus (GPa) = 29.29039 32.38674 30.83857
#
# Velocity S-wave (km/s) = 3.82240 4.01937 3.92212
# Velocity P-wave (km/s) = 7.22390 7.57628 7.40219
#
# Compressibility (1/GPa) = 0.01525283
#
# Stress axis : x y z
#
# Youngs Moduli (GPa) = 78.96495 48.46896 118.48430
#
# Poissons Ratio (x) = 0.32412 0.19147
# Poissons Ratio (y) = 0.52806 0.58509
# Poissons Ratio (z) = 0.12761 0.23935
#
# Static dielectric constant tensor:
#      x y z
#    x 1.765410 0.000000 0.000000 
#    y 0.000000 1.715190 0.000000 
#    z 0.000000 0.000000 1.689770 
# 
# From -- ./inp_files/7398.got.cif
#   From: 2010.05.17/outbox.cif.g08.bks.cpg/sg68_4_cif.got.tgz:7398.got - 2010.06.03 18:57:09.
