data_PCOD9508002
_publ_section_title
;
Structure prediction by ZEFSAII (Michael W. Deem and Ramdas Pophale) SiO2 
 PCOD9508002
Probable space group: C C C A
;
_chemical_formula_sum "Si O2"
_cell_formula_units_Z 60
_cell_length_a 5.361446
_cell_length_b 26.436830
_cell_length_c 18.116195
_cell_angle_alpha 90.000000
_cell_angle_beta 90.000000
_cell_angle_gamma 90.000000
_cell_volume 2567.782893
_symmetry_space_group_name_H-M "C C C A"
_symmetry_group_IT_number 68
_space_group.IT_coordinate_system_code '2'
_symmetry_cell_setting 'orthorhombic'
loop_
_space_group_symop_operation_xyz
x,y,z
-x,1/2-y,z
x,1/2-y,1/2-z
-x,y,1/2-z
-x,-y,-z
x,1/2+y,-z
-x,1/2+y,1/2+z
x,-y,1/2+z
1/2+x,1/2+y,z
1/2-x,-y,z
1/2+x,-y,1/2-z
1/2-x,1/2+y,1/2-z
1/2-x,1/2-y,-z
1/2+x,y,-z
1/2-x,y,1/2+z
1/2+x,1/2-y,1/2+z
loop_
_atom_site_type_symbol
_atom_site_label
_atom_site_fract_x
_atom_site_fract_y
_atom_site_fract_z
Si Si1 0.103481 0.384214 0.955246
Si Si2 0.000000 0.869084 0.750000
Si Si3 0.500000 0.750000 0.750000
Si Si4 0.135178 0.549400 0.319104
Si Si5 0.848444 0.798758 0.870113
O O1 0.025386 0.418007 0.885439
O O2 0.162977 0.327108 0.926362
O O3 0.381342 0.394067 0.987380
O O4 0.214289 0.907303 0.724955
O O5 0.962413 0.836277 0.674763
O O6 0.675251 0.782109 0.802544
O O7 0.250000 0.500000 0.357633
O O8 0.000000 0.523637 0.250000
O O9 0.000000 0.750000 0.898631
#
# Coordination Sequence:
#
# PCOD9508002 Si02
#       5
#    16   8   4  16  16
#     4  11  30  49  71 106 156 206 242 302 377 459
#     4  10  21  40  63 108 142 173 239 308 372 424
#     4  12  22  40  70 114 136 190 248 320 378 412
#     4  11  25  43  78 108 142 188 257 319 374 434
#     4  11  24  40  71 102 147 190 247 307 371 442
#
# _framework density 23.366461999999999
#
# number of rings (size 3 to 8) (size 9 to 14) (size 15 to 20)
#    0.000    1.067    4.000    0.000   18.667    2.133 
#    0.000    0.000    0.000    0.000    0.000    0.000 
#    0.000    0.000    0.000    0.000    0.000    0.000 
#
# Total GULP energy -167053.486576 kJ/mol
# GULP energy per Si atom -5568.449553 kJ/mol
# Density = 2.331328 g / cm^3
# Si number density = 23.366462 Si / 1000 Ang^3
#
#
#
# Elastic Constant Matrix: (Units=GPa)
#
#
# Indices 1 2 3 4 5 6 
#
# 1 55.2529 1.3413 8.9064 0.0000 0.0000 0.0000
# 2 1.3413 89.9389 -0.3015 0.0000 0.0000 0.0000
# 3 8.9064 -0.3015 49.0689 0.0000 0.0000 0.0000
# 4 0.0000 0.0000 0.0000 35.0762 0.0000 0.0000
# 5 0.0000 0.0000 0.0000 0.0000 18.6421 0.0000
# 6 0.0000 0.0000 0.0000 0.0000 0.0000 20.5596
#
#
#
# Elastic Compliance Matrix: (Units=1/GPa)
#
#
# Indices 1 2 3 4 5 6 
#
# 1 0.018652 -0.000290 -0.003387 0.000000 0.000000 0.000000
# 2 -0.000290 0.011123 0.000121 0.000000 0.000000 0.000000
# 3 -0.003387 0.000121 0.020995 0.000000 0.000000 0.000000
# 4 0.000000 0.000000 0.000000 0.028509 0.000000 0.000000
# 5 0.000000 0.000000 0.000000 0.000000 0.053642 0.000000
# 6 0.000000 0.000000 0.000000 0.000000 0.000000 0.048639
#
#
# Mechanical properties :
#
#
# Convention : Reuss Voigt Hill
#
# Bulk Modulus (GPa) = 22.90508 23.79478 23.34993
# Shear Modulus (GPa) = 24.60329 27.14322 25.87326
#
# Velocity S-wave (km/s) = 3.24841 3.41197 3.33119
# Velocity P-wave (km/s) = 4.88809 5.07222 4.98101
#
# Compressibility (1/GPa) = 0.04365843
#
# Stress axis : x y z
#
# Youngs Moduli (GPa) = 53.61467 89.90071 47.63029
#
# Poissons Ratio (x) = 0.02603 0.16133
# Poissons Ratio (y) = 0.01552 -0.00576
# Poissons Ratio (z) = 0.18160 -0.01087
#
# Static dielectric constant tensor:
#      x y z
#    x 1.496910 0.000000 0.000000 
#    y 0.000000 1.870750 0.000000 
#    z 0.000000 0.000000 1.882340 
# 
# From -- ./inp_files/27008.got.cif
#   From: 2010.05.17/outbox.cif.g08.bks.cpg/sg68_14_cif.got.tgz:27008.got - 2010.06.03 18:57:09.
