data_PCOD9508578
_publ_section_title
;
Structure prediction by ZEFSAII (Michael W. Deem and Ramdas Pophale) SiO2 
 PCOD9508578
Probable space group: C C C A
;
_chemical_formula_sum "Si O2"
_cell_formula_units_Z 88
_cell_length_a 23.625629
_cell_length_b 7.611626
_cell_length_c 23.276377
_cell_angle_alpha 90.000000
_cell_angle_beta 90.000000
_cell_angle_gamma 90.000000
_cell_volume 4185.778120
_symmetry_space_group_name_H-M "C C C A"
_symmetry_group_IT_number 68
_space_group.IT_coordinate_system_code '2'
_symmetry_cell_setting 'orthorhombic'
loop_
_space_group_symop_operation_xyz
x,y,z
-x,1/2-y,z
x,1/2-y,1/2-z
-x,y,1/2-z
-x,-y,-z
x,1/2+y,-z
-x,1/2+y,1/2+z
x,-y,1/2+z
1/2+x,1/2+y,z
1/2-x,-y,z
1/2+x,-y,1/2-z
1/2-x,1/2+y,1/2-z
1/2-x,1/2-y,-z
1/2+x,y,-z
1/2-x,y,1/2+z
1/2+x,1/2-y,1/2+z
loop_
_atom_site_type_symbol
_atom_site_label
_atom_site_fract_x
_atom_site_fract_y
_atom_site_fract_z
Si Si1 0.881246 0.469128 0.978731
Si Si2 0.245812 0.694812 0.653757
Si Si3 0.370571 0.875541 0.198556
Si Si4 0.664961 0.750000 0.750000
Si Si5 0.297713 0.811805 0.544871
Si Si6 0.564937 0.297282 0.582463
O O1 0.854133 0.307517 0.945264
O O2 0.900380 0.623181 0.936906
O O3 0.827467 0.521783 0.017367
O O4 0.928374 0.418158 0.025541
O O5 0.250000 0.500000 0.625272
O O6 0.188710 0.778083 0.680036
O O7 0.292804 0.675339 0.702332
O O8 0.267965 0.823612 0.605258
O O9 0.393379 0.750000 0.250000
O O10 0.407687 0.873174 0.140435
O O11 0.364635 0.075809 0.222743
O O12 0.250000 0.750000 0.500000
O O13 0.500000 0.250000 0.592051
#
# Coordination Sequence:
#
# PCOD9508578 Si02
#       6
#    16  16  16   8  16  16
#     4  10  22  40  63 100 134 176 226 281 348 422
#     4  12  20  37  60  94 134 181 219 264 337 424
#     4  12  25  43  67  99 140 184 235 286 349 416
#     4  12  24  40  64  97 131 180 222 276 340 430
#     4  11  21  34  60  96 140 176 211 268 341 424
#     4  11  24  45  71  97 131 183 237 302 353 405
#
# _framework density 21.023572000000001
#
# number of rings (size 3 to 8) (size 9 to 14) (size 15 to 20)
#    0.000    0.727    2.727    7.091    0.000    1.818 
#    0.000    0.000    0.000    1.091    0.000    0.000 
#    0.000    0.000    0.000    0.000    0.000    0.000 
#
# Total GULP energy -245465.398007 kJ/mol
# GULP energy per Si atom -5578.759046 kJ/mol
# Density = 2.097572 g / cm^3
# Si number density = 21.023572 Si / 1000 Ang^3
#
#
#
# Elastic Constant Matrix: (Units=GPa)
#
#
# Indices 1 2 3 4 5 6 
#
# 1 74.2910 35.7124 42.1407 0.0000 0.0000 0.0000
# 2 35.7124 116.1490 18.5506 0.0000 0.0000 0.0000
# 3 42.1407 18.5506 108.0421 0.0000 0.0000 0.0000
# 4 0.0000 0.0000 0.0000 18.4526 0.0000 0.0000
# 5 0.0000 0.0000 0.0000 0.0000 22.5381 0.0000
# 6 0.0000 0.0000 0.0000 0.0000 0.0000 15.8323
#
#
#
# Elastic Compliance Matrix: (Units=1/GPa)
#
#
# Indices 1 2 3 4 5 6 
#
# 1 0.019733 -0.004975 -0.006843 0.000000 0.000000 0.000000
# 2 -0.004975 0.010106 0.000205 0.000000 0.000000 0.000000
# 3 -0.006843 0.000205 0.011889 0.000000 0.000000 0.000000
# 4 0.000000 0.000000 0.000000 0.054193 0.000000 0.000000
# 5 0.000000 0.000000 0.000000 0.000000 0.044369 0.000000
# 6 0.000000 0.000000 0.000000 0.000000 0.000000 0.063162
#
#
# Mechanical properties :
#
#
# Convention : Reuss Voigt Hill
#
# Bulk Modulus (GPa) = 54.04027 54.58772 54.31400
# Shear Modulus (GPa) = 21.47340 24.83648 23.15494
#
# Velocity S-wave (km/s) = 3.19940 3.44083 3.32230
# Velocity P-wave (km/s) = 6.27763 6.46584 6.37243
#
# Compressibility (1/GPa) = 0.01850472
#
# Stress axis : x y z
#
# Youngs Moduli (GPa) = 50.67572 98.94704 84.10891
#
# Poissons Ratio (x) = 0.49222 0.57553
# Poissons Ratio (y) = 0.25209 -0.01724
# Poissons Ratio (z) = 0.34676 -0.02029
#
# Static dielectric constant tensor:
#      x y z
#    x 2.472380 0.000000 0.000000 
#    y 0.000000 -0.708910 0.000000 
#    z 0.000000 0.000000 1.993400 
# 
# From -- ./inp_files/40744.got.cif
#   From: 2010.05.17/outbox.cif.g08.bks.cpg/sg68_21_cif.got.tgz:40744.got - 2010.06.03 18:57:09.
