data_PCOD9508856
_publ_section_title
;
Structure prediction by ZEFSAII (Michael W. Deem and Ramdas Pophale) SiO2 
 PCOD9508856
Probable space group: C C C A
;
_chemical_formula_sum "Si O2"
_cell_formula_units_Z 88
_cell_length_a 11.284183
_cell_length_b 24.759627
_cell_length_c 14.402016
_cell_angle_alpha 90.000000
_cell_angle_beta 90.000000
_cell_angle_gamma 90.000000
_cell_volume 4023.810389
_symmetry_space_group_name_H-M "C C C A"
_symmetry_group_IT_number 68
_space_group.IT_coordinate_system_code '2'
_symmetry_cell_setting 'orthorhombic'
loop_
_space_group_symop_operation_xyz
x,y,z
-x,1/2-y,z
x,1/2-y,1/2-z
-x,y,1/2-z
-x,-y,-z
x,1/2+y,-z
-x,1/2+y,1/2+z
x,-y,1/2+z
1/2+x,1/2+y,z
1/2-x,-y,z
1/2+x,-y,1/2-z
1/2-x,1/2+y,1/2-z
1/2-x,1/2-y,-z
1/2+x,y,-z
1/2-x,y,1/2+z
1/2+x,1/2-y,1/2+z
loop_
_atom_site_type_symbol
_atom_site_label
_atom_site_fract_x
_atom_site_fract_y
_atom_site_fract_z
Si Si1 0.305187 0.617043 0.070665
Si Si2 0.037184 0.568654 0.855555
Si Si3 0.637210 0.596721 0.771388
Si Si4 0.631811 0.763574 0.139702
Si Si5 0.733461 0.844257 0.374979
Si Si6 0.250000 0.500000 0.343987
O O1 0.414899 0.577488 0.090956
O O2 0.185199 0.599313 0.123871
O O3 0.337364 0.675510 0.114367
O O4 0.287429 0.624260 0.961939
O O5 0.108393 0.625891 0.853342
O O6 0.133031 0.525003 0.892531
O O7 0.000000 0.554379 0.750000
O O8 0.500000 0.590799 0.750000
O O9 0.684428 0.648610 0.714580
O O10 0.705205 0.548019 0.721343
O O11 0.500000 0.750000 0.105806
O O12 0.633818 0.750000 0.250000
O O13 0.716734 0.717684 0.098612
#
# Coordination Sequence:
#
# PCOD9508856 Si02
#       6
#    16  16  16  16  16   8
#     4  12  24  41  68  97 138 177 222 282 343 412
#     4  11  20  44  70  95 129 178 228 278 338 401
#     4  11  25  43  63  95 134 176 219 279 345 403
#     4  11  20  38  69  99 128 174 233 278 334 413
#     4  11  24  41  64 101 134 174 226 281 335 410
#     4  10  22  42  74  96 124 174 232 284 340 400
#
# _framework density 21.869817999999999
#
# number of rings (size 3 to 8) (size 9 to 14) (size 15 to 20)
#    0.000    0.909    7.273    1.091    2.545    0.000 
#    0.000    9.091    0.000    0.000    0.000    0.000 
#    0.000    0.000    0.000    0.000    0.000    0.000 
#
# Total GULP energy -245811.022244 kJ/mol
# GULP energy per Si atom -5586.614142 kJ/mol
# Density = 2.182004 g / cm^3
# Si number density = 21.869818 Si / 1000 Ang^3
#
#
#
# Elastic Constant Matrix: (Units=GPa)
#
#
# Indices 1 2 3 4 5 6 
#
# 1 120.3588 11.8863 18.9187 0.0000 0.0000 0.0000
# 2 11.8863 72.1401 -15.1693 0.0000 0.0000 0.0000
# 3 18.9187 -15.1693 71.2267 0.0000 0.0000 0.0000
# 4 0.0000 0.0000 0.0000 14.0867 0.0000 0.0000
# 5 0.0000 0.0000 0.0000 0.0000 18.0482 0.0000
# 6 0.0000 0.0000 0.0000 0.0000 0.0000 37.9494
#
#
#
# Elastic Compliance Matrix: (Units=1/GPa)
#
#
# Indices 1 2 3 4 5 6 
#
# 1 0.008956 -0.002068 -0.002819 0.000000 0.000000 0.000000
# 2 -0.002068 0.014990 0.003742 0.000000 0.000000 0.000000
# 3 -0.002819 0.003742 0.015585 0.000000 0.000000 0.000000
# 4 0.000000 0.000000 0.000000 0.070989 0.000000 0.000000
# 5 0.000000 0.000000 0.000000 0.000000 0.055407 0.000000
# 6 0.000000 0.000000 0.000000 0.000000 0.000000 0.026351
#
#
# Mechanical properties :
#
#
# Convention : Reuss Voigt Hill
#
# Bulk Modulus (GPa) = 26.85371 32.77745 29.81558
# Shear Modulus (GPa) = 24.15657 30.55618 27.35638
#
# Velocity S-wave (km/s) = 3.32710 3.74195 3.54061
# Velocity P-wave (km/s) = 5.20240 5.80428 5.51156
#
# Compressibility (1/GPa) = 0.03723880
#
# Stress axis : x y z
#
# Youngs Moduli (GPa) = 111.65792 66.71322 64.16251
#
# Poissons Ratio (x) = 0.13799 0.18090
# Poissons Ratio (y) = 0.23096 -0.24008
# Poissons Ratio (z) = 0.31480 -0.24963
#
# Static dielectric constant tensor:
#      x y z
#    x 1.820920 0.000000 0.000000 
#    y 0.000000 1.837960 0.000000 
#    z 0.000000 0.000000 1.788430 
# 
# From -- ./inp_files/21136.got.cif
#   From: 2010.05.17/outbox.cif.g08.bks.cpg/sg68_11_cif.got.tgz:21136.got - 2010.06.03 18:57:09.
