data_PCOD9508734
_publ_section_title
;
Structure prediction by ZEFSAII (Michael W. Deem and Ramdas Pophale) SiO2 
 PCOD9508734
Probable space group: C C C A
;
_chemical_formula_sum "Si O2"
_cell_formula_units_Z 64
_cell_length_a 21.783315
_cell_length_b 14.541322
_cell_length_c 7.701832
_cell_angle_alpha 90.000000
_cell_angle_beta 90.000000
_cell_angle_gamma 90.000000
_cell_volume 2439.618423
_symmetry_space_group_name_H-M "C C C A"
_symmetry_group_IT_number 68
_space_group.IT_coordinate_system_code '2'
_symmetry_cell_setting 'orthorhombic'
loop_
_space_group_symop_operation_xyz
x,y,z
-x,1/2-y,z
x,1/2-y,1/2-z
-x,y,1/2-z
-x,-y,-z
x,1/2+y,-z
-x,1/2+y,1/2+z
x,-y,1/2+z
1/2+x,1/2+y,z
1/2-x,-y,z
1/2+x,-y,1/2-z
1/2-x,1/2+y,1/2-z
1/2-x,1/2-y,-z
1/2+x,y,-z
1/2-x,y,1/2+z
1/2+x,1/2-y,1/2+z
loop_
_atom_site_type_symbol
_atom_site_label
_atom_site_fract_x
_atom_site_fract_y
_atom_site_fract_z
Si Si1 0.954221 0.563381 0.902579
Si Si2 0.775053 0.357225 0.282247
Si Si3 0.153435 0.915456 0.436088
Si Si4 0.117821 0.724425 0.542274
O O1 0.893882 0.496365 0.886767
O O2 0.933666 0.652778 0.005336
O O3 0.000000 0.596032 0.750000
O O4 0.000000 0.500000 0.000000
O O5 0.756883 0.250000 0.250000
O O6 0.714074 0.412856 0.320267
O O7 0.819566 0.336713 0.447615
O O8 0.815509 0.403179 0.129357
O O9 0.120554 0.815882 0.431129
O O10 0.109334 0.750000 0.750000
#
# Coordination Sequence:
#
# PCOD9508734 Si02
#       4
#    16  16  16  16
#     4  12  27  45  66  97 135 183 239 275 324 414
#     4   9  18  39  67  97 130 167 215 274 349 416
#     4  10  22  41  67  99 133 169 218 283 340 402
#     4   9  20  43  69  93 132 181 221 277 351 411
#
# _framework density 26.233611
#
# number of rings (size 3 to 8) (size 9 to 14) (size 15 to 20)
#    0.000    2.500    0.000    6.000    0.000    8.500 
#    0.000   13.750    0.000    0.000    0.000    0.000 
#    0.000    0.000    0.000    0.000    0.000    0.000 
#
# Total GULP energy -178542.615733 kJ/mol
# GULP energy per Si atom -5579.456742 kJ/mol
# Density = 2.617390 g / cm^3
# Si number density = 26.233611 Si / 1000 Ang^3
#
#
#
# Elastic Constant Matrix: (Units=GPa)
#
#
# Indices 1 2 3 4 5 6 
#
# 1 145.7841 104.2306 25.2691 0.0000 0.0000 0.0000
# 2 104.2306 166.6568 23.8988 0.0000 0.0000 0.0000
# 3 25.2691 23.8988 53.7255 0.0000 0.0000 0.0000
# 4 0.0000 0.0000 0.0000 27.3740 0.0000 0.0000
# 5 0.0000 0.0000 0.0000 0.0000 43.0749 0.0000
# 6 0.0000 0.0000 0.0000 0.0000 0.0000 43.5101
#
#
#
# Elastic Compliance Matrix: (Units=1/GPa)
#
#
# Indices 1 2 3 4 5 6 
#
# 1 0.012742 -0.007594 -0.002615 0.000000 0.000000 0.000000
# 2 -0.007594 0.010935 -0.001292 0.000000 0.000000 0.000000
# 3 -0.002615 -0.001292 0.020418 0.000000 0.000000 0.000000
# 4 0.000000 0.000000 0.000000 0.036531 0.000000 0.000000
# 5 0.000000 0.000000 0.000000 0.000000 0.023215 0.000000
# 6 0.000000 0.000000 0.000000 0.000000 0.000000 0.022983
#
#
# Mechanical properties :
#
#
# Convention : Reuss Voigt Hill
#
# Bulk Modulus (GPa) = 47.41123 74.77373 61.09248
# Shear Modulus (GPa) = 31.87558 36.97633 34.42596
#
# Velocity S-wave (km/s) = 3.48956 3.75841 3.62648
# Velocity P-wave (km/s) = 5.86072 6.88470 6.39324
#
# Compressibility (1/GPa) = 0.02109205
#
# Stress axis : x y z
#
# Youngs Moduli (GPa) = 78.47783 91.44618 48.97639
#
# Poissons Ratio (x) = 0.69448 0.12807
# Poissons Ratio (y) = 0.59599 0.06330
# Poissons Ratio (z) = 0.20522 0.11819
#
# Static dielectric constant tensor:
#      x y z
#    x 2.086340 0.000000 0.000000 
#    y 0.000000 2.037620 0.000000 
#    z 0.000000 0.000000 2.135730 
# 
# From -- ./inp_files/7750.got.cif
#   From: 2010.05.17/outbox.cif.g08.bks.cpg/sg68_4_cif.got.tgz:7750.got - 2010.06.03 18:57:09.
