data_PCOD9508868
_publ_section_title
;
Structure prediction by ZEFSAII (Michael W. Deem and Ramdas Pophale) SiO2 
 PCOD9508868
Probable space group: C C C A
;
_chemical_formula_sum "Si O2"
_cell_formula_units_Z 88
_cell_length_a 22.364928
_cell_length_b 6.016783
_cell_length_c 28.715208
_cell_angle_alpha 90.000000
_cell_angle_beta 90.000000
_cell_angle_gamma 90.000000
_cell_volume 3864.059627
_symmetry_space_group_name_H-M "C C C A"
_symmetry_group_IT_number 68
_space_group.IT_coordinate_system_code '2'
_symmetry_cell_setting 'orthorhombic'
loop_
_space_group_symop_operation_xyz
x,y,z
-x,1/2-y,z
x,1/2-y,1/2-z
-x,y,1/2-z
-x,-y,-z
x,1/2+y,-z
-x,1/2+y,1/2+z
x,-y,1/2+z
1/2+x,1/2+y,z
1/2-x,-y,z
1/2+x,-y,1/2-z
1/2-x,1/2+y,1/2-z
1/2-x,1/2-y,-z
1/2+x,y,-z
1/2-x,y,1/2+z
1/2+x,1/2-y,1/2+z
loop_
_atom_site_type_symbol
_atom_site_label
_atom_site_fract_x
_atom_site_fract_y
_atom_site_fract_z
Si Si1 0.418361 0.405380 0.792163
Si Si2 0.319484 0.720373 0.984502
Si Si3 0.500000 0.250000 0.165746
Si Si4 0.299002 0.842066 0.700484
Si Si5 0.439310 0.860887 0.386635
Si Si6 0.318294 0.579522 0.608972
O O1 0.434506 0.250000 0.750000
O O2 0.458971 0.614736 0.799890
O O3 0.352483 0.496297 0.786010
O O4 0.427744 0.280352 0.840479
O O5 0.326113 0.724529 0.928516
O O6 0.342725 0.472518 0.000068
O O7 0.250000 0.750000 0.000000
O O8 0.460855 0.400674 0.131575
O O9 0.275835 0.750000 0.750000
O O10 0.320743 0.661161 0.662725
O O11 0.250000 0.000000 0.676943
O O12 0.500000 0.750000 0.409757
O O13 0.371181 0.904077 0.403835
O O14 0.250000 0.500000 0.602202
#
# Coordination Sequence:
#
# PCOD9508868 Si02
#       6
#    16  16   8  16  16  16
#     4  11  23  39  62  86 127 175 239 293 341 398
#     4  10  22  43  68 111 145 174 228 315 365 432
#     4  10  22  43  56  90 124 170 234 292 338 404
#     4  12  25  41  59  93 143 181 230 281 351 430
#     4  10  23  42  62  95 132 175 230 286 357 424
#     4  12  23  41  75 102 134 183 235 287 367 429
#
# _framework density 22.773973999999999
#
# number of rings (size 3 to 8) (size 9 to 14) (size 15 to 20)
#    0.000    1.091    3.636    3.273    2.545    5.455 
#    0.000    0.000    0.000    1.091    0.000    0.000 
#    0.000    0.000    0.000    0.000    0.000    0.000 
#
# Total GULP energy -245272.149682 kJ/mol
# GULP energy per Si atom -5574.367038 kJ/mol
# Density = 2.272214 g / cm^3
# Si number density = 22.773974 Si / 1000 Ang^3
#
#
#
# Elastic Constant Matrix: (Units=GPa)
#
#
# Indices 1 2 3 4 5 6 
#
# 1 133.2805 36.2721 -3.1340 0.0000 0.0000 0.0000
# 2 36.2721 108.5189 12.7814 0.0000 0.0000 0.0000
# 3 -3.1340 12.7814 78.3089 0.0000 0.0000 0.0000
# 4 0.0000 0.0000 0.0000 52.2789 0.0000 0.0000
# 5 0.0000 0.0000 0.0000 0.0000 0.0353 0.0000
# 6 0.0000 0.0000 0.0000 0.0000 0.0000 49.0343
#
#
#
# Elastic Compliance Matrix: (Units=1/GPa)
#
#
# Indices 1 2 3 4 5 6 
#
# 1 0.008303 -0.002869 0.000801 0.000000 0.000000 0.000000
# 2 -0.002869 0.010387 -0.001810 0.000000 0.000000 0.000000
# 3 0.000801 -0.001810 0.013097 0.000000 0.000000 0.000000
# 4 0.000000 0.000000 0.000000 0.019128 0.000000 0.000000
# 5 0.000000 0.000000 0.000000 0.000000 28.297926 0.000000
# 6 0.000000 0.000000 0.000000 0.000000 0.000000 0.020394
#
#
# Mechanical properties :
#
#
# Convention : Reuss Voigt Hill
#
# Bulk Modulus (GPa) = 41.61577 45.77192 43.69384
# Shear Modulus (GPa) = 0.17615 38.54895 19.36255
#
# Velocity S-wave (km/s) = 0.27841 4.11868 2.91899
# Velocity P-wave (km/s) = 4.29143 6.53911 5.53066
#
# Compressibility (1/GPa) = 0.02402935
#
# Stress axis : x y z
#
# Youngs Moduli (GPa) = 120.44251 96.27138 76.35077
#
# Poissons Ratio (x) = 0.27625 -0.06113
# Poissons Ratio (y) = 0.34560 0.13821
# Poissons Ratio (z) = -0.09643 0.17427
#
# Static dielectric constant tensor:
#      x y z
#    x 1.934100 0.000000 0.000000 
#    y 0.000000 1.745390 0.000000 
#    z 0.000000 0.000000 1.803240 
# 
# From -- ./inp_files/55967.got.cif
#   From: 2010.05.17/outbox.cif.g08.bks.cpg/sg68_28_cif.got.tgz:55967.got - 2010.06.03 18:57:09.
