data_PCOD9508559
_publ_section_title
;
Structure prediction by ZEFSAII (Michael W. Deem and Ramdas Pophale) SiO2 
 PCOD9508559
Probable space group: C C C A
;
_chemical_formula_sum "Si O2"
_cell_formula_units_Z 96
_cell_length_a 23.445049
_cell_length_b 7.986124
_cell_length_c 25.254638
_cell_angle_alpha 90.000000
_cell_angle_beta 90.000000
_cell_angle_gamma 90.000000
_cell_volume 4728.553876
_symmetry_space_group_name_H-M "C C C A"
_symmetry_group_IT_number 68
_space_group.IT_coordinate_system_code '2'
_symmetry_cell_setting 'orthorhombic'
loop_
_space_group_symop_operation_xyz
x,y,z
-x,1/2-y,z
x,1/2-y,1/2-z
-x,y,1/2-z
-x,-y,-z
x,1/2+y,-z
-x,1/2+y,1/2+z
x,-y,1/2+z
1/2+x,1/2+y,z
1/2-x,-y,z
1/2+x,-y,1/2-z
1/2-x,1/2+y,1/2-z
1/2-x,1/2-y,-z
1/2+x,y,-z
1/2-x,y,1/2+z
1/2+x,1/2-y,1/2+z
loop_
_atom_site_type_symbol
_atom_site_label
_atom_site_fract_x
_atom_site_fract_y
_atom_site_fract_z
Si Si1 0.064313 0.808908 0.690286
Si Si2 0.616181 0.845979 0.582959
Si Si3 0.566727 0.706571 0.691245
Si Si4 0.364390 0.763155 0.407667
Si Si5 0.545610 0.362440 0.518020
Si Si6 0.757252 0.699627 0.439298
O O1 0.074854 0.750000 0.750000
O O2 0.109746 0.733863 0.650361
O O3 0.000000 0.750000 0.677491
O O4 0.069916 0.007732 0.684821
O O5 0.593685 0.803496 0.641404
O O6 0.572514 0.790292 0.536722
O O7 0.678294 0.761956 0.577363
O O8 0.624246 0.046203 0.571755
O O9 0.500000 0.750000 0.691446
O O10 0.589966 0.750000 0.750000
O O11 0.400041 0.631236 0.443472
O O12 0.297353 0.724631 0.409457
O O13 0.500000 0.250000 0.549551
O O14 0.500000 0.500000 0.500000
O O15 0.750000 0.500000 0.433680
O O16 0.750000 0.750000 0.500000
#
# Coordination Sequence:
#
# PCOD9508559 Si02
#       6
#    16  16  16  16  16  16
#     4  11  23  40  65  92 125 161 201 255 316 374
#     4  11  23  40  61  88 126 164 210 258 309 370
#     4  11  23  40  64  93 124 162 205 253 312 374
#     4  11  23  40  60  87 127 165 211 257 309 368
#     4  12  24  35  57  92 128 164 201 254 316 372
#     4  10  22  40  61  85 120 169 210 256 304 366
#
# _framework density 20.302188999999998
#
# number of rings (size 3 to 8) (size 9 to 14) (size 15 to 20)
#    0.000    1.000    3.333    5.000    4.667    1.333 
#    0.000    0.833    0.000    0.000    0.000    0.000 
#    0.000    0.000    0.000    0.000    0.000    0.000 
#
# Total GULP energy -267802.937895 kJ/mol
# GULP energy per Si atom -5579.227873 kJ/mol
# Density = 2.025598 g / cm^3
# Si number density = 20.302189 Si / 1000 Ang^3
#
#
#
# Elastic Constant Matrix: (Units=GPa)
#
#
# Indices 1 2 3 4 5 6 
#
# 1 174.0219 15.9349 78.0798 0.0000 0.0000 0.0000
# 2 15.9349 48.5111 -7.6827 0.0000 0.0000 0.0000
# 3 78.0798 -7.6827 141.4139 0.0000 0.0000 0.0000
# 4 0.0000 0.0000 0.0000 188.9878 0.0000 0.0000
# 5 0.0000 0.0000 0.0000 0.0000 18.7040 0.0000
# 6 0.0000 0.0000 0.0000 0.0000 0.0000 21.0342
#
#
#
# Elastic Compliance Matrix: (Units=1/GPa)
#
#
# Indices 1 2 3 4 5 6 
#
# 1 0.008167 -0.003426 -0.004695 0.000000 0.000000 0.000000
# 2 -0.003426 0.022230 0.003099 0.000000 0.000000 0.000000
# 3 -0.004695 0.003099 0.009832 0.000000 0.000000 0.000000
# 4 0.000000 0.000000 0.000000 0.005291 0.000000 0.000000
# 5 0.000000 0.000000 0.000000 0.000000 0.053465 0.000000
# 6 0.000000 0.000000 0.000000 0.000000 0.000000 0.047542
#
#
# Mechanical properties :
#
#
# Convention : Reuss Voigt Hill
#
# Bulk Modulus (GPa) = 33.12895 59.62343 46.37619
# Shear Modulus (GPa) = 30.00610 64.25286 47.12948
#
# Velocity S-wave (km/s) = 3.84861 5.63178 4.82332
# Velocity P-wave (km/s) = 6.00853 8.46883 7.34246
#
# Compressibility (1/GPa) = 0.03018508
#
# Stress axis : x y z
#
# Youngs Moduli (GPa) = 122.44636 44.98390 101.70555
#
# Poissons Ratio (x) = 0.15413 0.47754
# Poissons Ratio (y) = 0.41953 -0.31523
# Poissons Ratio (z) = 0.57493 -0.13943
#
# Static dielectric constant tensor:
#      x y z
#    x 1.700690 0.000000 0.000000 
#    y 0.000000 1.865870 0.000000 
#    z 0.000000 0.000000 1.693650 
# 
# From -- ./inp_files/51775.got.cif
#   From: 2010.05.17/outbox.cif.g08.bks.cpg/sg68_26_cif.got.tgz:51775.got - 2010.06.03 18:57:09.
