data_PCOD9508398
_publ_section_title
;
Structure prediction by ZEFSAII (Michael W. Deem and Ramdas Pophale) SiO2 
 PCOD9508398
Probable space group: C C C A
;
_chemical_formula_sum "Si O2"
_cell_formula_units_Z 100
_cell_length_a 12.905225
_cell_length_b 14.494638
_cell_length_c 23.887330
_cell_angle_alpha 90.000000
_cell_angle_beta 90.000000
_cell_angle_gamma 90.000000
_cell_volume 4468.281889
_symmetry_space_group_name_H-M "C C C A"
_symmetry_group_IT_number 68
_space_group.IT_coordinate_system_code '2'
_symmetry_cell_setting 'orthorhombic'
loop_
_space_group_symop_operation_xyz
x,y,z
-x,1/2-y,z
x,1/2-y,1/2-z
-x,y,1/2-z
-x,-y,-z
x,1/2+y,-z
-x,1/2+y,1/2+z
x,-y,1/2+z
1/2+x,1/2+y,z
1/2-x,-y,z
1/2+x,-y,1/2-z
1/2-x,1/2+y,1/2-z
1/2-x,1/2-y,-z
1/2+x,y,-z
1/2-x,y,1/2+z
1/2+x,1/2-y,1/2+z
loop_
_atom_site_type_symbol
_atom_site_label
_atom_site_fract_x
_atom_site_fract_y
_atom_site_fract_z
Si Si1 0.022914 0.645618 0.026474
Si Si2 0.872456 0.011491 0.443249
Si Si3 0.080756 0.329986 0.654485
Si Si4 0.736917 0.712723 0.193978
Si Si5 0.000000 0.750000 0.750000
Si Si6 0.351591 0.047417 0.255547
Si Si7 0.438395 0.597168 0.333134
O O1 0.064402 0.651622 0.089867
O O2 0.000000 0.750000 0.007319
O O3 0.919171 0.583166 0.031307
O O4 0.104179 0.591584 0.987985
O O5 0.750000 0.000000 0.429511
O O6 0.945359 0.039057 0.390012
O O7 0.194842 0.290200 0.666188
O O8 0.073668 0.416242 0.696085
O O9 0.000000 0.250000 0.671190
O O10 0.675735 0.750000 0.250000
O O11 0.813597 0.635676 0.219611
O O12 0.658410 0.665060 0.153101
O O13 0.014531 0.666585 0.699358
O O14 0.250000 0.000000 0.282146
O O15 0.394410 0.972091 0.213561
#
# Coordination Sequence:
#
# PCOD9508398 Si02
#       7
#    16  16  16  16   4  16  16
#     4  10  26  48  69 107 138 177 245 297 351 419
#     4  11  26  49  75  99 139 188 235 294 357 421
#     4  10  22  37  65  98 134 168 220 286 336 398
#     4   9  18  38  58  92 132 167 219 272 330 410
#     4  12  28  40  60  96 140 188 228 272 342 428
#     4   9  20  36  60  90 129 173 210 273 336 398
#     4  11  24  41  64  94 133 181 228 271 344 419
#
# _framework density 22.379967000000001
#
# number of rings (size 3 to 8) (size 9 to 14) (size 15 to 20)
#    0.000    1.920    0.800    1.440   12.320    4.160 
#    0.000    0.000    0.000    0.000    0.000    0.000 
#    0.000    0.000    0.000    0.000    0.000    0.000 
#
# Total GULP energy -278791.171588 kJ/mol
# GULP energy per Si atom -5575.823432 kJ/mol
# Density = 2.232903 g / cm^3
# Si number density = 22.379967 Si / 1000 Ang^3
#
#
#
# Elastic Constant Matrix: (Units=GPa)
#
#
# Indices 1 2 3 4 5 6 
#
# 1 64.2622 27.8517 27.6006 0.0000 0.0000 0.0000
# 2 27.8517 130.9381 45.3291 0.0000 0.0000 0.0000
# 3 27.6006 45.3291 59.2969 0.0000 0.0000 0.0000
# 4 0.0000 0.0000 0.0000 42.0241 0.0000 0.0000
# 5 0.0000 0.0000 0.0000 0.0000 20.0292 0.0000
# 6 0.0000 0.0000 0.0000 0.0000 0.0000 41.2861
#
#
#
# Elastic Compliance Matrix: (Units=1/GPa)
#
#
# Indices 1 2 3 4 5 6 
#
# 1 0.019630 -0.001377 -0.008085 0.000000 0.000000 0.000000
# 2 -0.001377 0.010482 -0.007372 0.000000 0.000000 0.000000
# 3 -0.008085 -0.007372 0.026263 0.000000 0.000000 0.000000
# 4 0.000000 0.000000 0.000000 0.023796 0.000000 0.000000
# 5 0.000000 0.000000 0.000000 0.000000 0.049927 0.000000
# 6 0.000000 0.000000 0.000000 0.000000 0.000000 0.024221
#
#
# Mechanical properties :
#
#
# Convention : Reuss Voigt Hill
#
# Bulk Modulus (GPa) = 44.03698 50.67332 47.35515
# Shear Modulus (GPa) = 25.56801 30.91559 28.24180
#
# Velocity S-wave (km/s) = 3.38368 3.72075 3.55621
# Velocity P-wave (km/s) = 5.91485 6.41483 6.16990
#
# Compressibility (1/GPa) = 0.02270819
#
# Stress axis : x y z
#
# Youngs Moduli (GPa) = 50.94156 95.39975 38.07617
#
# Poissons Ratio (x) = 0.13134 0.30784
# Poissons Ratio (y) = 0.07013 0.28071
# Poissons Ratio (z) = 0.41185 0.70331
#
# Static dielectric constant tensor:
#      x y z
#    x 1.730950 0.000000 0.000000 
#    y 0.000000 1.885080 0.000000 
#    z 0.000000 0.000000 1.800460 
# 
# From -- ./inp_files/45477.got.cif
#   From: 2010.05.17/outbox.cif.g08.bks.cpg/sg68_23_cif.got.tgz:45477.got - 2010.06.03 18:57:09.
