data_PCOD9508016
_publ_section_title
;
Structure prediction by ZEFSAII (Michael W. Deem and Ramdas Pophale) SiO2 
 PCOD9508016
Probable space group: C C C A
;
_chemical_formula_sum "Si O2"
_cell_formula_units_Z 112
_cell_length_a 15.808235
_cell_length_b 14.179647
_cell_length_c 25.741602
_cell_angle_alpha 90.000000
_cell_angle_beta 90.000000
_cell_angle_gamma 90.000000
_cell_volume 5770.113739
_symmetry_space_group_name_H-M "C C C A"
_symmetry_group_IT_number 68
_space_group.IT_coordinate_system_code '2'
_symmetry_cell_setting 'orthorhombic'
loop_
_space_group_symop_operation_xyz
x,y,z
-x,1/2-y,z
x,1/2-y,1/2-z
-x,y,1/2-z
-x,-y,-z
x,1/2+y,-z
-x,1/2+y,1/2+z
x,-y,1/2+z
1/2+x,1/2+y,z
1/2-x,-y,z
1/2+x,-y,1/2-z
1/2-x,1/2+y,1/2-z
1/2-x,1/2-y,-z
1/2+x,y,-z
1/2-x,y,1/2+z
1/2+x,1/2-y,1/2+z
loop_
_atom_site_type_symbol
_atom_site_label
_atom_site_fract_x
_atom_site_fract_y
_atom_site_fract_z
Si Si1 0.454123 0.156175 0.864314
Si Si2 0.309329 0.589248 0.271918
Si Si3 0.780720 0.714815 0.829346
Si Si4 0.500000 0.908302 0.250000
Si Si5 0.019584 0.082989 0.039454
Si Si6 0.282616 0.106109 0.522853
Si Si7 0.500000 0.250000 0.471281
Si Si8 0.179976 0.774682 0.425435
O O1 0.500000 0.250000 0.883374
O O2 0.355324 0.175230 0.865538
O O3 0.479035 0.144387 0.803967
O O4 0.484051 0.073705 0.902450
O O5 0.250000 0.500000 0.284292
O O6 0.279015 0.644036 0.219573
O O7 0.305152 0.678003 0.312065
O O8 0.405894 0.551909 0.263406
O O9 0.698696 0.712754 0.864933
O O10 0.119398 0.105809 0.041094
O O11 0.972716 0.167851 0.010226
O O12 0.000000 0.000000 0.000000
O O13 0.225639 0.177727 0.556409
O O14 0.282687 0.145660 0.463967
O O15 0.250000 0.000000 0.525880
O O16 0.580734 0.274692 0.437239
#
# Coordination Sequence:
#
# PCOD9508016 Si02
#       8
#    16  16  16   8  16  16   8  16
#     4  11  19  36  67  92 126 157 201 266 318 373
#     4  10  22  42  64  95 127 152 205 264 315 391
#     4  10  22  38  66  90 119 164 200 257 325 364
#     4  10  21  40  64 101 122 154 204 265 328 371
#     4  11  23  37  59  94 125 169 208 251 313 378
#     4  10  22  37  58  86 124 162 206 253 305 369
#     4  10  22  42  56  78 130 162 212 252 298 370
#     4  10  22  39  59  85 117 167 210 254 305 372
#
# _framework density 19.410363
#
# number of rings (size 3 to 8) (size 9 to 14) (size 15 to 20)
#    0.000    1.714    2.143    1.929    6.000    1.143 
#   10.286    0.000    0.000    1.714    0.000    0.000 
#    0.000    0.000    0.000    0.000    0.000    0.000 
#
# Total GULP energy -312084.472993 kJ/mol
# GULP energy per Si atom -5572.937018 kJ/mol
# Density = 1.936618 g / cm^3
# Si number density = 19.410363 Si / 1000 Ang^3
#
#
#
# Elastic Constant Matrix: (Units=GPa)
#
#
# Indices 1 2 3 4 5 6 
#
# 1 82.0193 -0.9092 30.9428 0.0000 0.0000 0.0000
# 2 -0.9092 66.4112 13.5415 0.0000 0.0000 0.0000
# 3 30.9428 13.5415 93.2142 0.0000 0.0000 0.0000
# 4 0.0000 0.0000 0.0000 -0.6739 0.0000 0.0000
# 5 0.0000 0.0000 0.0000 0.0000 32.3827 0.0000
# 6 0.0000 0.0000 0.0000 0.0000 0.0000 22.7830
#
#
#
# Elastic Compliance Matrix: (Units=1/GPa)
#
#
# Indices 1 2 3 4 5 6 
#
# 1 0.014026 0.001176 -0.004827 0.000000 0.000000 0.000000
# 2 0.001176 0.015616 -0.002659 0.000000 0.000000 0.000000
# 3 -0.004827 -0.002659 0.012717 0.000000 0.000000 0.000000
# 4 0.000000 0.000000 0.000000 -1.483953 0.000000 0.000000
# 5 0.000000 0.000000 0.000000 0.000000 0.030881 0.000000
# 6 0.000000 0.000000 0.000000 0.000000 0.000000 0.043892
#
#
# Mechanical properties :
#
#
# Convention : Reuss Voigt Hill
#
# Bulk Modulus (GPa) = 33.62541 36.53276 35.07909
# Shear Modulus (GPa) = -3.71944 24.10300 10.19178
#
# Velocity S-wave (km/s) = -1.38578 3.52768 2.29392
# Velocity P-wave (km/s) = 3.84715 5.95440 5.01275
#
# Compressibility (1/GPa) = 0.02973941
#
# Stress axis : x y z
#
# Youngs Moduli (GPa) = 71.29455 64.03692 78.63739
#
# Poissons Ratio (x) = -0.07532 0.37958
# Poissons Ratio (y) = -0.08386 0.20910
# Poissons Ratio (z) = 0.34414 0.17028
#
# Static dielectric constant tensor:
#      x y z
#    x 1.709050 0.000000 0.000000 
#    y 0.000000 1.696890 0.000000 
#    z 0.000000 0.000000 1.708650 
# 
# From -- ./inp_files/51012.got.cif
#   From: 2010.05.17/outbox.cif.g08.bks.cpg/sg68_26_cif.got.tgz:51012.got - 2010.06.03 18:57:09.
