data_PCOD9508346
_publ_section_title
;
Structure prediction by ZEFSAII (Michael W. Deem and Ramdas Pophale) SiO2 
 PCOD9508346
Probable space group: C C C A
;
_chemical_formula_sum "Si O2"
_cell_formula_units_Z 72
_cell_length_a 4.981799
_cell_length_b 26.772320
_cell_length_c 27.658552
_cell_angle_alpha 90.000000
_cell_angle_beta 90.000000
_cell_angle_gamma 90.000000
_cell_volume 3688.940482
_symmetry_space_group_name_H-M "C C C A"
_symmetry_group_IT_number 68
_space_group.IT_coordinate_system_code '2'
_symmetry_cell_setting 'orthorhombic'
loop_
_space_group_symop_operation_xyz
x,y,z
-x,1/2-y,z
x,1/2-y,1/2-z
-x,y,1/2-z
-x,-y,-z
x,1/2+y,-z
-x,1/2+y,1/2+z
x,-y,1/2+z
1/2+x,1/2+y,z
1/2-x,-y,z
1/2+x,-y,1/2-z
1/2-x,1/2+y,1/2-z
1/2-x,1/2-y,-z
1/2+x,y,-z
1/2-x,y,1/2+z
1/2+x,1/2-y,1/2+z
loop_
_atom_site_type_symbol
_atom_site_label
_atom_site_fract_x
_atom_site_fract_y
_atom_site_fract_z
Si Si1 0.250000 0.500000 0.594763
Si Si2 0.500000 0.750000 0.038499
Si Si3 0.940843 0.098834 0.651245
Si Si4 0.000000 0.461067 0.750000
Si Si5 0.583390 0.931934 0.470654
Si Si6 0.961242 0.348896 0.104154
O O1 0.134433 0.453348 0.624519
O O2 0.480484 0.476845 0.561746
O O3 0.466525 0.795612 0.077258
O O4 0.750000 0.750000 0.000000
O O5 0.692721 0.136899 0.642731
O O6 0.997310 0.076667 0.704347
O O7 0.189939 0.129024 0.628172
O O8 0.750000 0.500000 0.749620
O O9 0.894876 0.931612 0.482392
O O10 0.493641 0.883805 0.441957
#
# Coordination Sequence:
#
# PCOD9508346 Si02
#       6
#     8   8  16   8  16  16
#     4  10  22  36  54  84 122 170 202 252 310 382
#     4  12  24  44  72  99 128 173 230 278 322 380
#     4  11  24  41  62  94 128 166 210 270 329 387
#     4  12  24  42  70  97 130 171 222 266 320 402
#     4  11  21  34  50  78 116 161 204 242 296 371
#     4  11  24  41  63  90 128 165 214 275 329 379
#
# _framework density 19.517799
#
# number of rings (size 3 to 8) (size 9 to 14) (size 15 to 20)
#    0.000    0.889    1.111    7.333    3.111    3.556 
#    0.000    0.000    0.000    4.000    0.000    0.000 
#    0.000    0.000    0.000    0.000    0.000    0.000 
#
# Total GULP energy -200678.305928 kJ/mol
# GULP energy per Si atom -5574.397387 kJ/mol
# Density = 1.947338 g / cm^3
# Si number density = 19.517799 Si / 1000 Ang^3
#
#
#
# Elastic Constant Matrix: (Units=GPa)
#
#
# Indices 1 2 3 4 5 6 
#
# 1 141.5037 43.9772 29.8695 0.0000 0.0000 0.0000
# 2 43.9772 132.6312 52.7417 0.0000 0.0000 0.0000
# 3 29.8695 52.7417 108.7525 0.0000 0.0000 0.0000
# 4 0.0000 0.0000 0.0000 42.4740 0.0000 0.0000
# 5 0.0000 0.0000 0.0000 0.0000 25.0695 0.0000
# 6 0.0000 0.0000 0.0000 0.0000 0.0000 16.9645
#
#
#
# Elastic Compliance Matrix: (Units=1/GPa)
#
#
# Indices 1 2 3 4 5 6 
#
# 1 0.007989 -0.002201 -0.001127 0.000000 0.000000 0.000000
# 2 -0.002201 0.009947 -0.004220 0.000000 0.000000 0.000000
# 3 -0.001127 -0.004220 0.011551 0.000000 0.000000 0.000000
# 4 0.000000 0.000000 0.000000 0.023544 0.000000 0.000000
# 5 0.000000 0.000000 0.000000 0.000000 0.039889 0.000000
# 6 0.000000 0.000000 0.000000 0.000000 0.000000 0.058947
#
#
# Mechanical properties :
#
#
# Convention : Reuss Voigt Hill
#
# Bulk Modulus (GPa) = 69.48019 70.67380 70.07699
# Shear Modulus (GPa) = 29.11054 33.98822 31.54938
#
# Velocity S-wave (km/s) = 3.86617 4.17753 4.02486
# Velocity P-wave (km/s) = 7.45690 7.71735 7.58824
#
# Compressibility (1/GPa) = 0.01439259
#
# Stress axis : x y z
#
# Youngs Moduli (GPa) = 125.17549 100.52839 86.57156
#
# Poissons Ratio (x) = 0.22124 0.09755
# Poissons Ratio (y) = 0.27548 0.36531
# Poissons Ratio (z) = 0.14105 0.42421
#
# Static dielectric constant tensor:
#      x y z
#    x 1.883530 0.000000 0.000000 
#    y 0.000000 1.719560 0.000000 
#    z 0.000000 0.000000 1.718460 
# 
# From -- ./inp_files/42268.got.cif
#   From: 2010.05.17/outbox.cif.g08.bks.cpg/sg68_22_cif.got.tgz:42268.got - 2010.06.03 18:57:09.
