data_PCOD9508593
_publ_section_title
;
Structure prediction by ZEFSAII (Michael W. Deem and Ramdas Pophale) SiO2 
 PCOD9508593
Probable space group: C C C A
;
_chemical_formula_sum "Si O2"
_cell_formula_units_Z 80
_cell_length_a 15.486805
_cell_length_b 18.205721
_cell_length_c 13.579082
_cell_angle_alpha 90.000000
_cell_angle_beta 90.000000
_cell_angle_gamma 90.000000
_cell_volume 3828.601136
_symmetry_space_group_name_H-M "C C C A"
_symmetry_group_IT_number 68
_space_group.IT_coordinate_system_code '2'
_symmetry_cell_setting 'orthorhombic'
loop_
_space_group_symop_operation_xyz
x,y,z
-x,1/2-y,z
x,1/2-y,1/2-z
-x,y,1/2-z
-x,-y,-z
x,1/2+y,-z
-x,1/2+y,1/2+z
x,-y,1/2+z
1/2+x,1/2+y,z
1/2-x,-y,z
1/2+x,-y,1/2-z
1/2-x,1/2+y,1/2-z
1/2-x,1/2-y,-z
1/2+x,y,-z
1/2-x,y,1/2+z
1/2+x,1/2-y,1/2+z
loop_
_atom_site_type_symbol
_atom_site_label
_atom_site_fract_x
_atom_site_fract_y
_atom_site_fract_z
Si Si1 0.377423 0.903416 0.504626
Si Si2 0.396765 0.243150 0.132784
Si Si3 0.155513 0.034893 0.134765
Si Si4 0.923833 0.982059 0.673237
Si Si5 0.680161 0.891251 0.555527
O O1 0.376661 0.830090 0.569801
O O2 0.441085 0.923192 0.413603
O O3 0.282319 0.909160 0.453270
O O4 0.396119 0.968091 0.583049
O O5 0.500000 0.250000 0.121720
O O6 0.379496 0.250000 0.250000
O O7 0.342977 0.310537 0.089282
O O8 0.136519 0.055949 0.245278
O O9 0.250000 0.000000 0.134903
O O10 0.149982 0.099503 0.057053
O O11 0.000000 0.004192 0.750000
O O12 0.873643 0.050677 0.623104
#
# Coordination Sequence:
#
# PCOD9508593 Si02
#       5
#    16  16  16  16  16
#     4  10  22  42  63  92 131 169 218 272 329 400
#     4  11  25  40  65  92 129 171 224 276 327 392
#     4   9  19  37  62  88 120 160 207 261 324 394
#     4  11  23  35  66  98 128 164 214 271 333 389
#     4  10  22  40  64  91 126 170 215 271 328 398
#
# _framework density 20.89536
#
# number of rings (size 3 to 8) (size 9 to 14) (size 15 to 20)
#    0.000    1.800    0.000    4.800    8.400    3.200 
#    0.000    1.000    0.000    0.000    0.000    0.000 
#    0.000    0.000    0.000    0.000    0.000    0.000 
#
# Total GULP energy -222728.059697 kJ/mol
# GULP energy per Si atom -5568.201492 kJ/mol
# Density = 2.084780 g / cm^3
# Si number density = 20.895360 Si / 1000 Ang^3
#
#
#
# Elastic Constant Matrix: (Units=GPa)
#
#
# Indices 1 2 3 4 5 6 
#
# 1 71.2785 10.9391 35.5759 0.0000 0.0000 0.0000
# 2 10.9391 68.9021 33.9092 0.0000 0.0000 0.0000
# 3 35.5759 33.9092 167.3737 0.0000 0.0000 0.0000
# 4 0.0000 0.0000 0.0000 8.9153 0.0000 0.0000
# 5 0.0000 0.0000 0.0000 0.0000 32.9548 0.0000
# 6 0.0000 0.0000 0.0000 0.0000 0.0000 20.4529
#
#
#
# Elastic Compliance Matrix: (Units=1/GPa)
#
#
# Indices 1 2 3 4 5 6 
#
# 1 0.015750 -0.000947 -0.003156 0.000000 0.000000 0.000000
# 2 -0.000947 0.016178 -0.003076 0.000000 0.000000 0.000000
# 3 -0.003156 -0.003076 0.007269 0.000000 0.000000 0.000000
# 4 0.000000 0.000000 0.000000 0.112166 0.000000 0.000000
# 5 0.000000 0.000000 0.000000 0.000000 0.030345 0.000000
# 6 0.000000 0.000000 0.000000 0.000000 0.000000 0.048893
#
#
# Mechanical properties :
#
#
# Convention : Reuss Voigt Hill
#
# Bulk Modulus (GPa) = 40.26164 52.04475 46.15320
# Shear Modulus (GPa) = 19.74431 27.60663 23.67547
#
# Velocity S-wave (km/s) = 3.07728 3.63875 3.36973
# Velocity P-wave (km/s) = 5.65122 6.52805 6.10539
#
# Compressibility (1/GPa) = 0.02483754
#
# Stress axis : x y z
#
# Youngs Moduli (GPa) = 63.49222 61.81371 137.57742
#
# Poissons Ratio (x) = 0.05857 0.43416
# Poissons Ratio (y) = 0.06016 0.42321
# Poissons Ratio (z) = 0.20037 0.19015
#
# Static dielectric constant tensor:
#      x y z
#    x 1.962140 0.000000 0.000000 
#    y 0.000000 1.733410 0.000000 
#    z 0.000000 0.000000 1.774390 
# 
# From -- ./inp_files/23513.got.cif
#   From: 2010.05.17/outbox.cif.g08.bks.cpg/sg68_12_cif.got.tgz:23513.got - 2010.06.03 18:57:09.
