data_PCOD9508616
_publ_section_title
;
Structure prediction by ZEFSAII (Michael W. Deem and Ramdas Pophale) SiO2 
 PCOD9508616
Probable space group: C C C A
;
_chemical_formula_sum "Si O2"
_cell_formula_units_Z 64
_cell_length_a 13.534987
_cell_length_b 23.112983
_cell_length_c 9.115383
_cell_angle_alpha 90.000000
_cell_angle_beta 90.000000
_cell_angle_gamma 90.000000
_cell_volume 2851.601037
_symmetry_space_group_name_H-M "C C C A"
_symmetry_group_IT_number 68
_space_group.IT_coordinate_system_code '2'
_symmetry_cell_setting 'orthorhombic'
loop_
_space_group_symop_operation_xyz
x,y,z
-x,1/2-y,z
x,1/2-y,1/2-z
-x,y,1/2-z
-x,-y,-z
x,1/2+y,-z
-x,1/2+y,1/2+z
x,-y,1/2+z
1/2+x,1/2+y,z
1/2-x,-y,z
1/2+x,-y,1/2-z
1/2-x,1/2+y,1/2-z
1/2-x,1/2-y,-z
1/2+x,y,-z
1/2-x,y,1/2+z
1/2+x,1/2-y,1/2+z
loop_
_atom_site_type_symbol
_atom_site_label
_atom_site_fract_x
_atom_site_fract_y
_atom_site_fract_z
Si Si1 0.000000 0.500541 0.750000
Si Si2 0.408580 0.576599 0.996304
Si Si3 0.234902 0.670429 0.487252
Si Si4 0.768640 0.750000 0.250000
Si Si5 0.967258 0.814462 0.920780
O O1 0.064436 0.539711 0.639987
O O2 0.931368 0.461401 0.645888
O O3 0.479019 0.632894 0.998391
O O4 0.300685 0.605267 0.001423
O O5 0.179777 0.703718 0.354640
O O6 0.214706 0.707760 0.633646
O O7 0.350439 0.676440 0.447796
O O8 0.000000 0.750000 0.966375
O O9 0.000000 0.819679 0.750000
#
# Coordination Sequence:
#
# PCOD9508616 Si02
#       5
#     8  16  16   8  16
#     4  10  26  50  70  98 144 200 266 322 360 420
#     4  11  24  48  71 100 144 193 259 313 370 443
#     4  11  23  42  72 108 149 194 237 298 375 459
#     4  10  22  40  66 112 148 178 234 290 382 466
#     4  11  22  42  76 111 146 189 232 304 388 456
#
# _framework density 22.443532000000001
#
# number of rings (size 3 to 8) (size 9 to 14) (size 15 to 20)
#    0.000    1.250    1.250    6.000    3.500    0.000 
#    0.000    7.500    0.000    0.000    0.000    0.000 
#    0.000    0.000    0.000    0.000    0.000    0.000 
#
# Total GULP energy -178762.787539 kJ/mol
# GULP energy per Si atom -5586.337111 kJ/mol
# Density = 2.239245 g / cm^3
# Si number density = 22.443532 Si / 1000 Ang^3
#
#
#
# Elastic Constant Matrix: (Units=GPa)
#
#
# Indices 1 2 3 4 5 6 
#
# 1 146.2158 66.1364 39.9400 0.0000 0.0000 0.0000
# 2 66.1364 176.3387 80.1519 0.0000 0.0000 0.0000
# 3 39.9400 80.1519 158.0319 0.0000 0.0000 0.0000
# 4 0.0000 0.0000 0.0000 20.1545 0.0000 0.0000
# 5 0.0000 0.0000 0.0000 0.0000 15.5167 0.0000
# 6 0.0000 0.0000 0.0000 0.0000 0.0000 45.4942
#
#
#
# Elastic Compliance Matrix: (Units=1/GPa)
#
#
# Indices 1 2 3 4 5 6 
#
# 1 0.008291 -0.002804 -0.000674 0.000000 0.000000 0.000000
# 2 -0.002804 0.008318 -0.003510 0.000000 0.000000 0.000000
# 3 -0.000674 -0.003510 0.008278 0.000000 0.000000 0.000000
# 4 0.000000 0.000000 0.000000 0.049617 0.000000 0.000000
# 5 0.000000 0.000000 0.000000 0.000000 0.064447 0.000000
# 6 0.000000 0.000000 0.000000 0.000000 0.000000 0.021981
#
#
# Mechanical properties :
#
#
# Convention : Reuss Voigt Hill
#
# Bulk Modulus (GPa) = 91.63381 94.78257 93.20819
# Shear Modulus (GPa) = 28.00430 35.85694 31.93062
#
# Velocity S-wave (km/s) = 3.53621 4.00140 3.77597
# Velocity P-wave (km/s) = 7.58882 7.97944 7.78658
#
# Compressibility (1/GPa) = 0.01091300
#
# Stress axis : x y z
#
# Youngs Moduli (GPa) = 120.60858 120.22314 120.79629
#
# Poissons Ratio (x) = 0.33705 0.08137
# Poissons Ratio (y) = 0.33813 0.42402
# Poissons Ratio (z) = 0.08124 0.42201
#
# Static dielectric constant tensor:
#      x y z
#    x 1.953210 0.000000 0.000000 
#    y 0.000000 1.809220 0.000000 
#    z 0.000000 0.000000 1.841470 
# 
# From -- ./inp_files/5019.got.cif
#   From: 2010.05.17/outbox.cif.g08.bks.cpg/sg68_3_cif.got.tgz:5019.got - 2010.06.03 18:57:09.
