data_PCOD9508653
_publ_section_title
;
Structure prediction by ZEFSAII (Michael W. Deem and Ramdas Pophale) SiO2 
 PCOD9508653
Probable space group: C C C A
;
_chemical_formula_sum "Si O2"
_cell_formula_units_Z 104
_cell_length_a 27.630202
_cell_length_b 20.927980
_cell_length_c 9.005816
_cell_angle_alpha 90.000000
_cell_angle_beta 90.000000
_cell_angle_gamma 90.000000
_cell_volume 5207.561903
_symmetry_space_group_name_H-M "C C C A"
_symmetry_group_IT_number 68
_space_group.IT_coordinate_system_code '2'
_symmetry_cell_setting 'orthorhombic'
loop_
_space_group_symop_operation_xyz
x,y,z
-x,1/2-y,z
x,1/2-y,1/2-z
-x,y,1/2-z
-x,-y,-z
x,1/2+y,-z
-x,1/2+y,1/2+z
x,-y,1/2+z
1/2+x,1/2+y,z
1/2-x,-y,z
1/2+x,-y,1/2-z
1/2-x,1/2+y,1/2-z
1/2-x,1/2-y,-z
1/2+x,y,-z
1/2-x,y,1/2+z
1/2+x,1/2-y,1/2+z
loop_
_atom_site_type_symbol
_atom_site_label
_atom_site_fract_x
_atom_site_fract_y
_atom_site_fract_z
Si Si1 0.068607 0.250000 0.750000
Si Si2 0.392759 0.750000 0.250000
Si Si3 0.915620 0.470624 0.397342
Si Si4 0.050594 0.158391 0.481093
Si Si5 0.630397 0.171822 0.015318
Si Si6 0.816974 0.946236 0.112940
Si Si7 0.545962 0.920020 0.412723
Si Si8 0.750000 0.500000 0.640644
O O1 0.044003 0.199759 0.632781
O O2 0.102320 0.210283 0.859671
O O3 0.427319 0.796521 0.350400
O O4 0.359400 0.715914 0.373320
O O5 0.914310 0.404332 0.492361
O O6 0.864019 0.506316 0.375080
O O7 0.941776 0.450264 0.245845
O O8 0.950585 0.522013 0.472736
O O9 0.999666 0.126378 0.435009
O O10 0.669295 0.127319 0.092450
O O11 0.592169 0.122757 0.947050
O O12 0.782151 0.956319 0.252109
O O13 0.787625 0.964863 0.965874
#
# Coordination Sequence:
#
# PCOD9508653 Si02
#       8
#     8   8  16  16  16  16  16   8
#     4  10  26  41  62  93 120 190 218 273 302 358
#     4  10  22  41  62  87 122 188 218 263 310 360
#     4  11  23  41  65  94 128 173 206 279 327 389
#     4  11  24  41  60  89 128 173 232 266 305 371
#     4  10  22  41  63  90 127 170 219 264 316 390
#     4  10  22  41  68  99 128 155 208 263 347 402
#     4  11  24  40  62  89 131 173 221 272 320 356
#     4  10  22  40  70 104 120 158 190 276 350 408
#
# _framework density 19.970958
#
# number of rings (size 3 to 8) (size 9 to 14) (size 15 to 20)
#    0.000    1.538    1.538    2.769    6.462    4.308 
#    0.000    0.000    0.000    2.769    0.000    0.000 
#    0.000    0.000    0.000    0.000    0.000    0.000 
#
# Total GULP energy -290076.177034 kJ/mol
# GULP energy per Si atom -5578.388020 kJ/mol
# Density = 1.992550 g / cm^3
# Si number density = 19.970958 Si / 1000 Ang^3
#
#
#
# Elastic Constant Matrix: (Units=GPa)
#
#
# Indices 1 2 3 4 5 6 
#
# 1 75.1795 25.6342 31.8603 0.0000 0.0000 0.0000
# 2 25.6342 106.5434 54.5112 0.0000 0.0000 0.0000
# 3 31.8603 54.5112 144.0089 0.0000 0.0000 0.0000
# 4 0.0000 0.0000 0.0000 27.7337 0.0000 0.0000
# 5 0.0000 0.0000 0.0000 0.0000 75.8081 0.0000
# 6 0.0000 0.0000 0.0000 0.0000 0.0000 23.8308
#
#
#
# Elastic Compliance Matrix: (Units=1/GPa)
#
#
# Indices 1 2 3 4 5 6 
#
# 1 0.015155 -0.002395 -0.002446 0.000000 0.000000 0.000000
# 2 -0.002395 0.012019 -0.004020 0.000000 0.000000 0.000000
# 3 -0.002446 -0.004020 0.009007 0.000000 0.000000 0.000000
# 4 0.000000 0.000000 0.000000 0.036057 0.000000 0.000000
# 5 0.000000 0.000000 0.000000 0.000000 0.013191 0.000000
# 6 0.000000 0.000000 0.000000 0.000000 0.000000 0.041962
#
#
# Mechanical properties :
#
#
# Convention : Reuss Voigt Hill
#
# Bulk Modulus (GPa) = 54.17415 61.08257 57.62836
# Shear Modulus (GPa) = 33.05458 39.72292 36.38875
#
# Velocity S-wave (km/s) = 4.07275 4.46470 4.27322
# Velocity P-wave (km/s) = 7.02152 7.56506 7.29835
#
# Compressibility (1/GPa) = 0.01845899
#
# Stress axis : x y z
#
# Youngs Moduli (GPa) = 65.98594 83.20496 111.02766
#
# Poissons Ratio (x) = 0.19924 0.27162
# Poissons Ratio (y) = 0.15801 0.44628
# Poissons Ratio (z) = 0.16143 0.33445
#
# Static dielectric constant tensor:
#      x y z
#    x 1.725530 0.000000 0.000000 
#    y 0.000000 1.772620 0.000000 
#    z 0.000000 0.000000 1.712770 
# 
# From -- ./inp_files/9044.got.cif
#   From: 2010.05.17/outbox.cif.g08.bks.cpg/sg68_5_cif.got.tgz:9044.got - 2010.06.03 18:57:09.
