data_PCOD9508822
_publ_section_title
;
Structure prediction by ZEFSAII (Michael W. Deem and Ramdas Pophale) SiO2 
 PCOD9508822
Probable space group: C C C A
;
_chemical_formula_sum "Si O2"
_cell_formula_units_Z 116
_cell_length_a 10.813165
_cell_length_b 17.561977
_cell_length_c 28.828952
_cell_angle_alpha 90.000000
_cell_angle_beta 90.000000
_cell_angle_gamma 90.000000
_cell_volume 5474.633986
_symmetry_space_group_name_H-M "C C C A"
_symmetry_group_IT_number 68
_space_group.IT_coordinate_system_code '2'
_symmetry_cell_setting 'orthorhombic'
loop_
_space_group_symop_operation_xyz
x,y,z
-x,1/2-y,z
x,1/2-y,1/2-z
-x,y,1/2-z
-x,-y,-z
x,1/2+y,-z
-x,1/2+y,1/2+z
x,-y,1/2+z
1/2+x,1/2+y,z
1/2-x,-y,z
1/2+x,-y,1/2-z
1/2-x,1/2+y,1/2-z
1/2-x,1/2-y,-z
1/2+x,y,-z
1/2-x,y,1/2+z
1/2+x,1/2-y,1/2+z
loop_
_atom_site_type_symbol
_atom_site_label
_atom_site_fract_x
_atom_site_fract_y
_atom_site_fract_z
Si Si1 0.888402 0.801690 0.337839
Si Si2 0.263710 0.912443 0.718086
Si Si3 0.285647 0.679293 0.933403
Si Si4 0.862763 0.440640 0.391900
Si Si5 0.703028 0.327450 0.808758
Si Si6 0.860734 0.438322 0.127048
Si Si7 0.114245 0.810871 0.966998
Si Si8 0.000000 0.250000 0.250000
O O1 0.879521 0.881355 0.311347
O O2 0.885621 0.815702 0.392579
O O3 0.770588 0.748515 0.326317
O O4 0.000000 0.750000 0.322708
O O5 0.270357 0.865577 0.765112
O O6 0.155542 0.902464 0.678832
O O7 0.250000 0.000000 0.730792
O O8 0.180499 0.623608 0.911803
O O9 0.223517 0.760238 0.944548
O O10 0.348484 0.659171 0.982064
O O11 0.750000 0.500000 0.400960
O O12 0.817842 0.387020 0.349622
O O13 0.893927 0.384154 0.434412
O O14 0.001265 0.470628 0.379281
O O15 0.578636 0.301509 0.784206
O O16 0.750000 0.500000 0.124713
O O17 0.000000 0.750000 0.969602
#
# Coordination Sequence:
#
# PCOD9508822 Si02
#       8
#    16  16  16  16  16  16  16   4
#     4  11  23  42  68 103 136 181 230 289 350 422
#     4  10  22  43  65  97 138 185 225 279 351 414
#     4  10  22  42  69 102 131 181 228 285 348 411
#     4  12  27  44  69 105 141 182 235 289 350 417
#     4  12  24  41  69  98 136 181 234 289 337 407
#     4  10  23  46  70  97 141 184 225 284 358 412
#     4  11  22  43  72  99 133 180 235 290 340 415
#     4  12  24  40  70 100 128 176 254 286 332 412
#
# _framework density 21.188631999999998
#
# number of rings (size 3 to 8) (size 9 to 14) (size 15 to 20)
#    0.000    1.103    4.138    1.655    2.897    4.966 
#    4.966    5.517    0.000    0.000    0.000    0.000 
#    0.000    0.000    0.000    0.000    0.000    0.000 
#
# Total GULP energy -323408.947617 kJ/mol
# GULP energy per Si atom -5576.016338 kJ/mol
# Density = 2.114041 g / cm^3
# Si number density = 21.188632 Si / 1000 Ang^3
#
#
#
# Elastic Constant Matrix: (Units=GPa)
#
#
# Indices 1 2 3 4 5 6 
#
# 1 74.3401 18.5008 -4.5664 0.0000 0.0000 0.0000
# 2 18.5008 76.2565 24.4800 0.0000 0.0000 0.0000
# 3 -4.5664 24.4800 117.6328 0.0000 0.0000 0.0000
# 4 0.0000 0.0000 0.0000 19.5885 0.0000 0.0000
# 5 0.0000 0.0000 0.0000 0.0000 13.0096 0.0000
# 6 0.0000 0.0000 0.0000 0.0000 0.0000 32.6413
#
#
#
# Elastic Compliance Matrix: (Units=1/GPa)
#
#
# Indices 1 2 3 4 5 6 
#
# 1 0.014525 -0.003970 0.001390 0.000000 0.000000 0.000000
# 2 -0.003970 0.015138 -0.003304 0.000000 0.000000 0.000000
# 3 0.001390 -0.003304 0.009243 0.000000 0.000000 0.000000
# 4 0.000000 0.000000 0.000000 0.051050 0.000000 0.000000
# 5 0.000000 0.000000 0.000000 0.000000 0.076866 0.000000
# 6 0.000000 0.000000 0.000000 0.000000 0.000000 0.030636
#
#
# Mechanical properties :
#
#
# Convention : Reuss Voigt Hill
#
# Bulk Modulus (GPa) = 36.85083 38.33979 37.59531
# Shear Modulus (GPa) = 22.90713 28.36888 25.63800
#
# Velocity S-wave (km/s) = 3.29158 3.66303 3.48226
# Velocity P-wave (km/s) = 5.64585 6.00201 5.82665
#
# Compressibility (1/GPa) = 0.02713643
#
# Stress axis : x y z
#
# Youngs Moduli (GPa) = 68.84621 66.06053 108.19416
#
# Poissons Ratio (x) = 0.26227 -0.15040
# Poissons Ratio (y) = 0.27333 0.35751
# Poissons Ratio (z) = -0.09570 0.21829
#
# Static dielectric constant tensor:
#      x y z
#    x 1.813300 0.000000 0.000000 
#    y 0.000000 1.783080 0.000000 
#    z 0.000000 0.000000 1.763040 
# 
# From -- ./inp_files/50366.got.cif
#   From: 2010.05.17/outbox.cif.g08.bks.cpg/sg68_26_cif.got.tgz:50366.got - 2010.06.03 18:57:09.
