data_PCOD9508492
_publ_section_title
;
Structure prediction by ZEFSAII (Michael W. Deem and Ramdas Pophale) SiO2 
 PCOD9508492
Probable space group: C C C A
;
_chemical_formula_sum "Si O2"
_cell_formula_units_Z 84
_cell_length_a 19.444751
_cell_length_b 21.901496
_cell_length_c 10.142355
_cell_angle_alpha 90.000000
_cell_angle_beta 90.000000
_cell_angle_gamma 90.000000
_cell_volume 4319.315963
_symmetry_space_group_name_H-M "C C C A"
_symmetry_group_IT_number 68
_space_group.IT_coordinate_system_code '2'
_symmetry_cell_setting 'orthorhombic'
loop_
_space_group_symop_operation_xyz
x,y,z
-x,1/2-y,z
x,1/2-y,1/2-z
-x,y,1/2-z
-x,-y,-z
x,1/2+y,-z
-x,1/2+y,1/2+z
x,-y,1/2+z
1/2+x,1/2+y,z
1/2-x,-y,z
1/2+x,-y,1/2-z
1/2-x,1/2+y,1/2-z
1/2-x,1/2-y,-z
1/2+x,y,-z
1/2-x,y,1/2+z
1/2+x,1/2-y,1/2+z
loop_
_atom_site_type_symbol
_atom_site_label
_atom_site_fract_x
_atom_site_fract_y
_atom_site_fract_z
Si Si1 0.500000 0.250000 0.750000
Si Si2 0.147613 0.024514 0.928509
Si Si3 0.073473 0.029997 0.190960
Si Si4 0.722909 0.398274 0.978247
Si Si5 0.259345 0.789780 0.130620
Si Si6 0.882439 0.663610 0.778980
O O1 0.446860 0.204788 0.824806
O O2 0.199349 0.081972 0.938571
O O3 0.126148 0.010447 0.778625
O O4 0.185897 0.963318 0.979929
O O5 0.085749 0.028031 0.034359
O O6 0.087600 0.100027 0.228820
O O7 0.000000 0.012737 0.250000
O O8 0.677056 0.356357 0.881219
O O9 0.728258 0.357007 0.108401
O O10 0.229802 0.750000 0.250000
O O11 0.339393 0.802176 0.164732
O O12 0.250000 0.750000 0.000000
#
# Coordination Sequence:
#
# PCOD9508492 Si02
#       6
#     4  16  16  16  16  16
#     4  12  20  40  60  88 122 176 206 252 304 376
#     4  10  23  36  66  86 125 163 200 262 317 369
#     4  11  22  39  58  92 121 163 202 251 311 383
#     4  10  22  39  59  94 123 154 211 259 318 362
#     4  12  22  36  59  87 120 156 201 258 310 358
#     4  11  22  37  62  88 120 162 208 254 302 378
#
# _framework density 19.447524000000001
#
# number of rings (size 3 to 8) (size 9 to 14) (size 15 to 20)
#    0.000    1.143    5.714    0.571    2.667    1.524 
#    0.000    0.000    0.000    0.000    0.000    6.000 
#    0.000    0.000    0.000    0.000    0.000    0.000 
#
# Total GULP energy -233823.020275 kJ/mol
# GULP energy per Si atom -5567.214768 kJ/mol
# Density = 1.940326 g / cm^3
# Si number density = 19.447524 Si / 1000 Ang^3
#
#
#
# Elastic Constant Matrix: (Units=GPa)
#
#
# Indices 1 2 3 4 5 6 
#
# 1 86.9942 30.9315 23.7418 0.0000 0.0000 0.0000
# 2 30.9315 87.0337 24.2947 0.0000 0.0000 0.0000
# 3 23.7418 24.2947 85.3311 0.0000 0.0000 0.0000
# 4 0.0000 0.0000 0.0000 23.5006 0.0000 0.0000
# 5 0.0000 0.0000 0.0000 0.0000 20.6946 0.0000
# 6 0.0000 0.0000 0.0000 0.0000 0.0000 36.6390
#
#
#
# Elastic Compliance Matrix: (Units=1/GPa)
#
#
# Indices 1 2 3 4 5 6 
#
# 1 0.013681 -0.004128 -0.002631 0.000000 0.000000 0.000000
# 2 -0.004128 0.013727 -0.002760 0.000000 0.000000 0.000000
# 3 -0.002631 -0.002760 0.013237 0.000000 0.000000 0.000000
# 4 0.000000 0.000000 0.000000 0.042552 0.000000 0.000000
# 5 0.000000 0.000000 0.000000 0.000000 0.048322 0.000000
# 6 0.000000 0.000000 0.000000 0.000000 0.000000 0.027293
#
#
# Mechanical properties :
#
#
# Convention : Reuss Voigt Hill
#
# Bulk Modulus (GPa) = 46.28043 46.36613 46.32328
# Shear Modulus (GPa) = 27.01947 28.19291 27.60619
#
# Velocity S-wave (km/s) = 3.73145 3.81161 3.77174
# Velocity P-wave (km/s) = 6.51262 6.57758 6.54518
#
# Compressibility (1/GPa) = 0.02160740
#
# Stress axis : x y z
#
# Youngs Moduli (GPa) = 73.09557 72.84850 75.54639
#
# Poissons Ratio (x) = 0.30069 0.19878
# Poissons Ratio (y) = 0.30171 0.20850
# Poissons Ratio (z) = 0.19233 0.20105
#
# Static dielectric constant tensor:
#      x y z
#    x 1.733960 0.000000 0.000000 
#    y 0.000000 1.732130 0.000000 
#    z 0.000000 0.000000 1.701760 
# 
# From -- ./inp_files/7055.got.cif
#   From: 2010.05.17/outbox.cif.g08.bks.cpg/sg68_4_cif.got.tgz:7055.got - 2010.06.03 18:57:09.
