data_PCOD9508707
_publ_section_title
;
Structure prediction by ZEFSAII (Michael W. Deem and Ramdas Pophale) SiO2 
 PCOD9508707
Probable space group: C C C A
;
_chemical_formula_sum "Si O2"
_cell_formula_units_Z 60
_cell_length_a 14.310992
_cell_length_b 14.882978
_cell_length_c 11.048868
_cell_angle_alpha 90.000000
_cell_angle_beta 90.000000
_cell_angle_gamma 90.000000
_cell_volume 2353.300374
_symmetry_space_group_name_H-M "C C C A"
_symmetry_group_IT_number 68
_space_group.IT_coordinate_system_code '2'
_symmetry_cell_setting 'orthorhombic'
loop_
_space_group_symop_operation_xyz
x,y,z
-x,1/2-y,z
x,1/2-y,1/2-z
-x,y,1/2-z
-x,-y,-z
x,1/2+y,-z
-x,1/2+y,1/2+z
x,-y,1/2+z
1/2+x,1/2+y,z
1/2-x,-y,z
1/2+x,-y,1/2-z
1/2-x,1/2+y,1/2-z
1/2-x,1/2-y,-z
1/2+x,y,-z
1/2-x,y,1/2+z
1/2+x,1/2-y,1/2+z
loop_
_atom_site_type_symbol
_atom_site_label
_atom_site_fract_x
_atom_site_fract_y
_atom_site_fract_z
Si Si1 0.153614 0.653838 0.088538
Si Si2 0.143499 0.319548 0.077517
Si Si3 0.500000 0.750000 0.750000
Si Si4 0.897991 0.511703 0.057337
Si Si5 0.000000 0.088554 0.250000
O O1 0.256616 0.669455 0.142123
O O2 0.068347 0.684212 0.173589
O O3 0.140584 0.720240 0.974072
O O4 0.156537 0.555786 0.029991
O O5 0.056537 0.349092 0.157609
O O6 0.138381 0.388017 0.962006
O O7 0.918952 0.473976 0.190367
O O8 0.000000 0.500000 0.000000
#
# Coordination Sequence:
#
# PCOD9508707 Si02
#       5
#    16  16   4  16   8
#     4  11  25  43  65  97 136 173 218 275 327 389
#     4  10  24  44  67  99 134 170 217 274 332 390
#     4  12  24  42  68  94 132 182 228 266 324 390
#     4  10  22  41  64  95 132 169 214 267 323 385
#     4  10  22  42  74 100 128 176 220 264 332 402
#
# _framework density 25.496108
#
# number of rings (size 3 to 8) (size 9 to 14) (size 15 to 20)
#    0.000    1.600    0.000    4.000    0.000   16.000 
#    0.000    8.000    0.000    0.000    0.000    0.000 
#    0.000    0.000    0.000    0.000    0.000    0.000 
#
# Total GULP energy -167862.444075 kJ/mol
# GULP energy per Si atom -5595.414803 kJ/mol
# Density = 2.543808 g / cm^3
# Si number density = 25.496108 Si / 1000 Ang^3
#
#
#
# Elastic Constant Matrix: (Units=GPa)
#
#
# Indices 1 2 3 4 5 6 
#
# 1 149.6857 9.0688 31.8759 0.0000 0.0000 0.0000
# 2 9.0688 89.3110 16.6497 0.0000 0.0000 0.0000
# 3 31.8759 16.6497 57.3881 0.0000 0.0000 0.0000
# 4 0.0000 0.0000 0.0000 26.0303 0.0000 0.0000
# 5 0.0000 0.0000 0.0000 0.0000 11.8932 0.0000
# 6 0.0000 0.0000 0.0000 0.0000 0.0000 33.6753
#
#
#
# Elastic Compliance Matrix: (Units=1/GPa)
#
#
# Indices 1 2 3 4 5 6 
#
# 1 0.007577 0.000016 -0.004213 0.000000 0.000000 0.000000
# 2 0.000016 0.011837 -0.003443 0.000000 0.000000 0.000000
# 3 -0.004213 -0.003443 0.020764 0.000000 0.000000 0.000000
# 4 0.000000 0.000000 0.000000 0.038417 0.000000 0.000000
# 5 0.000000 0.000000 0.000000 0.000000 0.084082 0.000000
# 6 0.000000 0.000000 0.000000 0.000000 0.000000 0.029695
#
#
# Mechanical properties :
#
#
# Convention : Reuss Voigt Hill
#
# Bulk Modulus (GPa) = 40.16423 45.73038 42.94731
# Shear Modulus (GPa) = 23.15330 30.23912 26.69621
#
# Velocity S-wave (km/s) = 3.01676 3.44761 3.23936
# Velocity P-wave (km/s) = 5.28410 5.81577 5.55630
#
# Compressibility (1/GPa) = 0.02489777
#
# Stress axis : x y z
#
# Youngs Moduli (GPa) = 131.97999 84.48025 48.15944
#
# Poissons Ratio (x) = -0.00136 0.20291
# Poissons Ratio (y) = -0.00212 0.16582
# Poissons Ratio (z) = 0.55606 0.29088
#
# Static dielectric constant tensor:
#      x y z
#    x 83.857890 0.000000 0.000000 
#    y 0.000000 2.054350 0.000000 
#    z 0.000000 0.000000 2.200540 
# 
# From -- ./inp_files/12704.got.cif
#   From: 2010.05.17/outbox.cif.g08.bks.cpg/sg68_7_cif.got.tgz:12704.got - 2010.06.03 18:57:09.
