data_PCOD9508096
_publ_section_title
;
Structure prediction by ZEFSAII (Michael W. Deem and Ramdas Pophale) SiO2 
 PCOD9508096
Probable space group: C C C A
;
_chemical_formula_sum "Si O2"
_cell_formula_units_Z 88
_cell_length_a 13.547802
_cell_length_b 18.856403
_cell_length_c 16.681773
_cell_angle_alpha 90.000000
_cell_angle_beta 90.000000
_cell_angle_gamma 90.000000
_cell_volume 4261.572678
_symmetry_space_group_name_H-M "C C C A"
_symmetry_group_IT_number 68
_space_group.IT_coordinate_system_code '2'
_symmetry_cell_setting 'orthorhombic'
loop_
_space_group_symop_operation_xyz
x,y,z
-x,1/2-y,z
x,1/2-y,1/2-z
-x,y,1/2-z
-x,-y,-z
x,1/2+y,-z
-x,1/2+y,1/2+z
x,-y,1/2+z
1/2+x,1/2+y,z
1/2-x,-y,z
1/2+x,-y,1/2-z
1/2-x,1/2+y,1/2-z
1/2-x,1/2-y,-z
1/2+x,y,-z
1/2-x,y,1/2+z
1/2+x,1/2-y,1/2+z
loop_
_atom_site_type_symbol
_atom_site_label
_atom_site_fract_x
_atom_site_fract_y
_atom_site_fract_z
Si Si1 0.111918 0.260128 0.347286
Si Si2 0.245613 0.633635 0.634870
Si Si3 0.750000 0.500000 0.480350
Si Si4 0.824960 0.089875 0.308817
Si Si5 0.473132 0.170602 0.344005
Si Si6 0.384964 0.043401 0.118973
O O1 0.118694 0.250000 0.250000
O O2 0.182225 0.202780 0.388246
O O3 0.140812 0.341225 0.356620
O O4 0.000000 0.250000 0.372254
O O5 0.253171 0.570415 0.572280
O O6 0.192361 0.604031 0.715093
O O7 0.356495 0.658846 0.651519
O O8 0.652590 0.510568 0.535243
O O9 0.715936 0.074571 0.343100
O O10 0.900655 0.025579 0.324988
O O11 0.500000 0.250000 0.374309
O O12 0.500000 0.168555 0.250000
O O13 0.533549 0.104739 0.382869
#
# Coordination Sequence:
#
# PCOD9508096 Si02
#       6
#    16  16   8  16  16  16
#     4   9  19  35  57  90 123 160 204 266 316 364
#     4  11  21  37  63  92 124 162 219 259 314 385
#     4  10  24  40  60  88 130 174 206 262 312 392
#     4   9  18  36  62  85 119 158 210 259 307 367
#     4  11  23  38  66  97 122 160 212 273 320 379
#     4  10  21  41  59  87 126 164 203 259 325 369
#
# _framework density 20.649654000000002
#
# number of rings (size 3 to 8) (size 9 to 14) (size 15 to 20)
#    0.000    2.182    1.818    2.182    5.091    2.182 
#    3.273   10.909    0.000    0.000    0.000    0.000 
#    0.000    0.000    0.000    0.000    0.000    0.000 
#
# Total GULP energy -245475.695179 kJ/mol
# GULP energy per Si atom -5578.993072 kJ/mol
# Density = 2.060265 g / cm^3
# Si number density = 20.649654 Si / 1000 Ang^3
#
#
#
# Elastic Constant Matrix: (Units=GPa)
#
#
# Indices 1 2 3 4 5 6 
#
# 1 93.6470 75.0835 17.0941 0.0000 0.0000 0.0000
# 2 75.0835 197.0747 40.9400 0.0000 0.0000 0.0000
# 3 17.0941 40.9400 46.8545 0.0000 0.0000 0.0000
# 4 0.0000 0.0000 0.0000 106.9789 0.0000 0.0000
# 5 0.0000 0.0000 0.0000 0.0000 23.2235 0.0000
# 6 0.0000 0.0000 0.0000 0.0000 0.0000 38.3327
#
#
#
# Elastic Compliance Matrix: (Units=1/GPa)
#
#
# Indices 1 2 3 4 5 6 
#
# 1 0.015389 -0.005738 -0.000600 0.000000 0.000000 0.000000
# 2 -0.005738 0.008339 -0.005193 0.000000 0.000000 0.000000
# 3 -0.000600 -0.005193 0.026099 0.000000 0.000000 0.000000
# 4 0.000000 0.000000 0.000000 0.009348 0.000000 0.000000
# 5 0.000000 0.000000 0.000000 0.000000 0.043060 0.000000
# 6 0.000000 0.000000 0.000000 0.000000 0.000000 0.026087
#
#
# Mechanical properties :
#
#
# Convention : Reuss Voigt Hill
#
# Bulk Modulus (GPa) = 37.36397 67.09017 52.22707
# Shear Modulus (GPa) = 31.19022 47.33761 39.26392
#
# Velocity S-wave (km/s) = 3.89066 4.79311 4.36527
# Velocity P-wave (km/s) = 6.19004 7.94935 7.12421
#
# Compressibility (1/GPa) = 0.02676375
#
# Stress axis : x y z
#
# Youngs Moduli (GPa) = 64.98257 119.91527 38.31530
#
# Poissons Ratio (x) = 0.68810 0.02301
# Poissons Ratio (y) = 0.37288 0.19897
# Poissons Ratio (z) = 0.03902 0.62273
#
# Static dielectric constant tensor:
#      x y z
#    x 1.730310 0.000000 0.000000 
#    y 0.000000 1.791650 0.000000 
#    z 0.000000 0.000000 1.778760 
# 
# From -- ./inp_files/30932.got.cif
#   From: 2010.05.17/outbox.cif.g08.bks.cpg/sg68_16_cif.got.tgz:30932.got - 2010.06.03 18:57:09.
