data_PCOD9508815
_publ_section_title
;
Structure prediction by ZEFSAII (Michael W. Deem and Ramdas Pophale) SiO2 
 PCOD9508815
Probable space group: C C C A
;
_chemical_formula_sum "Si O2"
_cell_formula_units_Z 64
_cell_length_a 12.059237
_cell_length_b 7.686511
_cell_length_c 32.325044
_cell_angle_alpha 90.000000
_cell_angle_beta 90.000000
_cell_angle_gamma 90.000000
_cell_volume 2996.320104
_symmetry_space_group_name_H-M "C C C A"
_symmetry_group_IT_number 68
_space_group.IT_coordinate_system_code '2'
_symmetry_cell_setting 'orthorhombic'
loop_
_space_group_symop_operation_xyz
x,y,z
-x,1/2-y,z
x,1/2-y,1/2-z
-x,y,1/2-z
-x,-y,-z
x,1/2+y,-z
-x,1/2+y,1/2+z
x,-y,1/2+z
1/2+x,1/2+y,z
1/2-x,-y,z
1/2+x,-y,1/2-z
1/2-x,1/2+y,1/2-z
1/2-x,1/2-y,-z
1/2+x,y,-z
1/2-x,y,1/2+z
1/2+x,1/2-y,1/2+z
loop_
_atom_site_type_symbol
_atom_site_label
_atom_site_fract_x
_atom_site_fract_y
_atom_site_fract_z
Si Si1 0.744862 0.705686 0.795934
Si Si2 0.750000 0.000000 0.520897
Si Si3 0.092318 0.100267 0.140787
Si Si4 0.500000 0.250000 0.321992
Si Si5 0.623510 0.323329 0.549559
O O1 0.788707 0.750000 0.750000
O O2 0.750000 0.500000 0.805445
O O3 0.811467 0.827027 0.828480
O O4 0.613435 0.737060 0.796784
O O5 0.708760 0.162016 0.547293
O O6 0.846983 0.057358 0.489457
O O7 0.133922 0.086103 0.093820
O O8 0.000000 0.250000 0.141956
O O9 0.027863 0.923843 0.152322
O O10 0.500000 0.250000 0.545842
#
# Coordination Sequence:
#
# PCOD9508815 Si02
#       5
#    16   8  16   8  16
#     4  12  26  46  71 103 140 179 233 286 342 415
#     4  10  22  42  68  92 136 176 222 282 342 414
#     4  11  25  46  71 104 139 184 230 286 347 412
#     4  12  25  46  70 100 140 186 228 284 348 404
#     4  10  23  42  65 100 132 176 225 278 344 406
#
# _framework density 21.359532999999999
#
# number of rings (size 3 to 8) (size 9 to 14) (size 15 to 20)
#    0.000    1.000    2.500    3.375    5.250    0.500 
#   11.250    0.000    0.000    0.000    0.000    0.000 
#    0.000    0.000    0.000    0.000    0.000    0.000 
#
# Total GULP energy -178763.324311 kJ/mol
# GULP energy per Si atom -5586.353885 kJ/mol
# Density = 2.131092 g / cm^3
# Si number density = 21.359533 Si / 1000 Ang^3
#
#
#
# Elastic Constant Matrix: (Units=GPa)
#
#
# Indices 1 2 3 4 5 6 
#
# 1 105.9285 6.3149 25.3439 0.0000 0.0000 0.0000
# 2 6.3149 129.0825 20.6986 0.0000 0.0000 0.0000
# 3 25.3439 20.6986 77.1247 0.0000 0.0000 0.0000
# 4 0.0000 0.0000 0.0000 -20.3948 0.0000 0.0000
# 5 0.0000 0.0000 0.0000 0.0000 49.4143 0.0000
# 6 0.0000 0.0000 0.0000 0.0000 0.0000 36.5569
#
#
#
# Elastic Compliance Matrix: (Units=1/GPa)
#
#
# Indices 1 2 3 4 5 6 
#
# 1 0.010246 0.000040 -0.003378 0.000000 0.000000 0.000000
# 2 0.000040 0.008096 -0.002186 0.000000 0.000000 0.000000
# 3 -0.003378 -0.002186 0.014663 0.000000 0.000000 0.000000
# 4 0.000000 0.000000 0.000000 -0.049032 0.000000 0.000000
# 5 0.000000 0.000000 0.000000 0.000000 0.020237 0.000000
# 6 0.000000 0.000000 0.000000 0.000000 0.000000 0.027355
#
#
# Mechanical properties :
#
#
# Convention : Reuss Voigt Hill
#
# Bulk Modulus (GPa) = 45.54238 46.31669 45.92954
# Shear Modulus (GPa) = 100.14104 30.43385 65.28744
#
# Velocity S-wave (km/s) = 6.85458 3.77880 5.53465
# Velocity P-wave (km/s) = 9.16598 6.38518 7.89891
#
# Compressibility (1/GPa) = 0.02195757
#
# Stress axis : x y z
#
# Youngs Moduli (GPa) = 97.59830 123.52499 68.20051
#
# Poissons Ratio (x) = -0.00499 0.23037
# Poissons Ratio (y) = -0.00394 0.14908
# Poissons Ratio (z) = 0.32967 0.27002
#
# Static dielectric constant tensor:
#      x y z
#    x 1.759940 0.000000 0.000000 
#    y 0.000000 1.826260 0.000000 
#    z 0.000000 0.000000 1.769060 
# 
# From -- ./inp_files/54411.got.cif
#   From: 2010.05.17/outbox.cif.g08.bks.cpg/sg68_28_cif.got.tgz:54411.got - 2010.06.03 18:57:09.
