data_PCOD9508189
_publ_section_title
;
Structure prediction by ZEFSAII (Michael W. Deem and Ramdas Pophale) SiO2 
 PCOD9508189
Probable space group: C C C A
;
_chemical_formula_sum "Si O2"
_cell_formula_units_Z 64
_cell_length_a 19.700648
_cell_length_b 5.242366
_cell_length_c 28.248510
_cell_angle_alpha 90.000000
_cell_angle_beta 90.000000
_cell_angle_gamma 90.000000
_cell_volume 2917.449821
_symmetry_space_group_name_H-M "C C C A"
_symmetry_group_IT_number 68
_space_group.IT_coordinate_system_code '2'
_symmetry_cell_setting 'orthorhombic'
loop_
_space_group_symop_operation_xyz
x,y,z
-x,1/2-y,z
x,1/2-y,1/2-z
-x,y,1/2-z
-x,-y,-z
x,1/2+y,-z
-x,1/2+y,1/2+z
x,-y,1/2+z
1/2+x,1/2+y,z
1/2-x,-y,z
1/2+x,-y,1/2-z
1/2-x,1/2+y,1/2-z
1/2-x,1/2-y,-z
1/2+x,y,-z
1/2-x,y,1/2+z
1/2+x,1/2-y,1/2+z
loop_
_atom_site_type_symbol
_atom_site_label
_atom_site_fract_x
_atom_site_fract_y
_atom_site_fract_z
Si Si1 0.109581 0.606224 0.872348
Si Si2 0.431699 0.900068 0.816820
Si Si3 0.077500 0.969540 0.519607
Si Si4 0.669931 0.750000 0.750000
Si Si5 0.750000 0.000000 0.333137
O O1 0.096148 0.323329 0.851609
O O2 0.084031 0.606979 0.926061
O O3 0.190803 0.632267 0.863748
O O4 0.071153 0.834146 0.844903
O O5 0.500000 0.750000 0.802293
O O6 0.383455 0.950944 0.771539
O O7 0.109619 0.744937 0.488783
O O8 0.000000 0.000000 0.500000
O O9 0.715223 0.687098 0.705064
#
# Coordination Sequence:
#
# PCOD9508189 Si02
#       5
#    16  16  16   8   8
#     4  11  24  41  64  99 128 176 220 275 336 394
#     4  11  24  38  65  96 138 166 217 278 327 404
#     4  10  22  38  63  92 128 167 215 277 341 412
#     4  10  21  42  64  96 127 182 216 266 330 388
#     4  10  22  42  70  92 136 180 236 268 328 424
#
# _framework density 21.936965000000001
#
# number of rings (size 3 to 8) (size 9 to 14) (size 15 to 20)
#    0.000    1.500    0.000    4.125   10.500    6.000 
#    0.000    6.250    0.000    0.000    0.000    0.000 
#    0.000    0.000    0.000    0.000    0.000    0.000 
#
# Total GULP energy -178175.850678 kJ/mol
# GULP energy per Si atom -5567.995334 kJ/mol
# Density = 2.188704 g / cm^3
# Si number density = 21.936965 Si / 1000 Ang^3
#
#
#
# Elastic Constant Matrix: (Units=GPa)
#
#
# Indices 1 2 3 4 5 6 
#
# 1 127.4765 19.6384 53.7405 0.0000 0.0000 0.0000
# 2 19.6384 139.2019 31.0658 0.0000 0.0000 0.0000
# 3 53.7405 31.0658 133.7878 0.0000 0.0000 0.0000
# 4 0.0000 0.0000 0.0000 4.6831 0.0000 0.0000
# 5 0.0000 0.0000 0.0000 0.0000 42.9765 0.0000
# 6 0.0000 0.0000 0.0000 0.0000 0.0000 13.7356
#
#
#
# Elastic Compliance Matrix: (Units=1/GPa)
#
#
# Indices 1 2 3 4 5 6 
#
# 1 0.009479 -0.000514 -0.003688 0.000000 0.000000 0.000000
# 2 -0.000514 0.007604 -0.001559 0.000000 0.000000 0.000000
# 3 -0.003688 -0.001559 0.009318 0.000000 0.000000 0.000000
# 4 0.000000 0.000000 0.000000 0.213535 0.000000 0.000000
# 5 0.000000 0.000000 0.000000 0.000000 0.023269 0.000000
# 6 0.000000 0.000000 0.000000 0.000000 0.000000 0.072804
#
#
# Mechanical properties :
#
#
# Convention : Reuss Voigt Hill
#
# Bulk Modulus (GPa) = 67.21281 67.70617 67.45949
# Shear Modulus (GPa) = 14.18478 32.01379 23.09928
#
# Velocity S-wave (km/s) = 2.54562 3.82429 3.24849
# Velocity P-wave (km/s) = 6.27263 7.10150 6.69989
#
# Compressibility (1/GPa) = 0.01487812
#
# Stress axis : x y z
#
# Youngs Moduli (GPa) = 105.50135 131.50423 107.31932
#
# Poissons Ratio (x) = 0.06761 0.39579
# Poissons Ratio (y) = 0.05425 0.16733
# Poissons Ratio (z) = 0.38909 0.20504
#
# Static dielectric constant tensor:
#      x y z
#    x 1.928400 0.000000 0.000000 
#    y 0.000000 1.817110 0.000000 
#    z 0.000000 0.000000 1.805350 
# 
# From -- ./inp_files/48145.got.cif
#   From: 2010.05.17/outbox.cif.g08.bks.cpg/sg68_25_cif.got.tgz:48145.got - 2010.06.03 18:57:09.
