data_PCOD9509956
_publ_section_title
;
Structure prediction by ZEFSAII (Michael W. Deem and Ramdas Pophale) SiO2 
 PCOD9509956
Probable space group: C C C A
;
_chemical_formula_sum "Si O2"
_cell_formula_units_Z 96
_cell_length_a 26.613534
_cell_length_b 23.891522
_cell_length_c 7.235397
_cell_angle_alpha 90.000000
_cell_angle_beta 90.000000
_cell_angle_gamma 90.000000
_cell_volume 4600.539150
_symmetry_space_group_name_H-M "C C C A"
_symmetry_group_IT_number 68
_space_group.IT_coordinate_system_code '2'
_symmetry_cell_setting 'orthorhombic'
loop_
_space_group_symop_operation_xyz
x,y,z
-x,1/2-y,z
x,1/2-y,1/2-z
-x,y,1/2-z
-x,-y,-z
x,1/2+y,-z
-x,1/2+y,1/2+z
x,-y,1/2+z
1/2+x,1/2+y,z
1/2-x,-y,z
1/2+x,-y,1/2-z
1/2-x,1/2+y,1/2-z
1/2-x,1/2-y,-z
1/2+x,y,-z
1/2-x,y,1/2+z
1/2+x,1/2-y,1/2+z
loop_
_atom_site_type_symbol
_atom_site_label
_atom_site_fract_x
_atom_site_fract_y
_atom_site_fract_z
Si Si1 0.792284 0.864899 0.720437
Si Si2 0.290964 0.289451 0.400014
Si Si3 0.441707 0.061678 0.919242
Si Si4 0.843665 0.079408 0.556894
Si Si5 0.954027 0.070783 0.515848
Si Si6 0.669787 0.049637 0.461819
O O1 0.741414 0.834709 0.784620
O O2 0.816791 0.822260 0.569245
O O3 0.678675 0.877690 0.409716
O O4 0.791124 0.923096 0.605081
O O5 0.318671 0.250000 0.250000
O O6 0.250000 0.250000 0.500000
O O7 0.446531 0.076545 0.704946
O O8 0.487451 0.087138 0.039766
O O9 0.385316 0.072238 0.981242
O O10 0.450042 0.994582 0.928565
O O11 0.902202 0.094872 0.593972
O O12 0.837186 0.017338 0.466426
O O13 0.819673 0.069767 0.756188
#
# Coordination Sequence:
#
# PCOD9509956 Si02
#       6
#    16  16  16  16  16  16
#     4  11  22  40  61  84 108 142 183 228 295 348
#     4   9  22  44  66  80  99 129 172 246 308 351
#     4   9  15  25  42  68 107 159 205 229 249 290
#     4  11  20  33  52  79 122 163 191 226 261 323
#     4   9  15  25  42  68 107 159 205 229 249 289
#     4  11  20  33  52  79 122 163 191 225 264 320
#
# _framework density 20.86712
#
# number of rings (size 3 to 8) (size 9 to 14) (size 15 to 20)
#    0.000    2.000    3.333    3.000    4.667    2.000 
#    0.000    2.500    0.000    0.000    0.000    0.000 
#    0.000   24.000    2.000    0.167    0.000    0.000 
#
# Total GULP energy -267513.630569 kJ/mol
# GULP energy per Si atom -5573.200637 kJ/mol
# Density = 2.081963 g / cm^3
# Si number density = 20.867120 Si / 1000 Ang^3
#
#
#
# Elastic Constant Matrix: (Units=GPa)
#
#
# Indices 1 2 3 4 5 6 
#
# 1 71.5135 33.3339 28.1001 0.0000 0.0000 0.0000
# 2 33.3339 53.2752 13.9292 0.0000 0.0000 0.0000
# 3 28.1001 13.9292 98.2933 0.0000 0.0000 0.0000
# 4 0.0000 0.0000 0.0000 51.1372 0.0000 0.0000
# 5 0.0000 0.0000 0.0000 0.0000 26.0033 0.0000
# 6 0.0000 0.0000 0.0000 0.0000 0.0000 4.4429
#
#
#
# Elastic Compliance Matrix: (Units=1/GPa)
#
#
# Indices 1 2 3 4 5 6 
#
# 1 0.021419 -0.012255 -0.004387 0.000000 0.000000 0.000000
# 2 -0.012255 0.026504 -0.000253 0.000000 0.000000 0.000000
# 3 -0.004387 -0.000253 0.011463 0.000000 0.000000 0.000000
# 4 0.000000 0.000000 0.000000 0.019555 0.000000 0.000000
# 5 0.000000 0.000000 0.000000 0.000000 0.038457 0.000000
# 6 0.000000 0.000000 0.000000 0.000000 0.000000 0.225076
#
#
# Mechanical properties :
#
#
# Convention : Reuss Voigt Hill
#
# Bulk Modulus (GPa) = 39.06432 41.53425 40.29929
# Shear Modulus (GPa) = 12.99388 26.16461 19.57925
#
# Velocity S-wave (km/s) = 2.49810 3.54484 3.06646
# Velocity P-wave (km/s) = 5.20402 6.05821 5.64729
#
# Compressibility (1/GPa) = 0.02559880
#
# Stress axis : x y z
#
# Youngs Moduli (GPa) = 46.68676 37.72972 87.23353
#
# Poissons Ratio (x) = 0.46238 0.38267
# Poissons Ratio (y) = 0.57214 0.02203
# Poissons Ratio (z) = 0.20480 0.00953
#
# Static dielectric constant tensor:
#      x y z
#    x 1.864070 0.000000 0.000000 
#    y 0.000000 1.786280 0.000000 
#    z 0.000000 0.000000 1.857230 
# 
# From -- ./inp_files/9081.got.cif
#   From: 2010.05.17/outbox.cif.g08.bks.cpg/sg68_5_cif.got.tgz:9081.got - 2010.06.03 18:57:09.
