data_PCOD9509421
_publ_section_title
;
Structure prediction by ZEFSAII (Michael W. Deem and Ramdas Pophale) SiO2 
 PCOD9509421
Probable space group: C C C A
;
_chemical_formula_sum "Si O2"
_cell_formula_units_Z 88
_cell_length_a 15.980825
_cell_length_b 19.763754
_cell_length_c 11.712890
_cell_angle_alpha 90.000000
_cell_angle_beta 90.000000
_cell_angle_gamma 90.000000
_cell_volume 3699.411992
_symmetry_space_group_name_H-M "C C C A"
_symmetry_group_IT_number 68
_space_group.IT_coordinate_system_code '2'
_symmetry_cell_setting 'orthorhombic'
loop_
_space_group_symop_operation_xyz
x,y,z
-x,1/2-y,z
x,1/2-y,1/2-z
-x,y,1/2-z
-x,-y,-z
x,1/2+y,-z
-x,1/2+y,1/2+z
x,-y,1/2+z
1/2+x,1/2+y,z
1/2-x,-y,z
1/2+x,-y,1/2-z
1/2-x,1/2+y,1/2-z
1/2-x,1/2-y,-z
1/2+x,y,-z
1/2-x,y,1/2+z
1/2+x,1/2-y,1/2+z
loop_
_atom_site_type_symbol
_atom_site_label
_atom_site_fract_x
_atom_site_fract_y
_atom_site_fract_z
Si Si1 0.708957 0.657095 0.975495
Si Si2 0.967086 0.892619 0.518815
Si Si3 0.186547 0.064558 0.611527
Si Si4 0.500000 0.447068 0.750000
Si Si5 0.103297 0.434045 0.659749
Si Si6 0.635540 0.768002 0.117251
O O1 0.760144 0.630033 0.081496
O O2 0.639035 0.705257 0.029388
O O3 0.679699 0.586933 0.919529
O O4 0.771566 0.698381 0.893562
O O5 0.886922 0.941407 0.485216
O O6 0.926377 0.822799 0.560923
O O7 0.021761 0.911380 0.631577
O O8 0.026099 0.901002 0.408543
O O9 0.135017 0.091562 0.719642
O O10 0.250000 0.000000 0.627974
O O11 0.424645 0.492594 0.703425
O O12 0.616961 0.750000 0.250000
#
# Coordination Sequence:
#
# PCOD9509421 Si02
#       6
#    16  16  16   8  16  16
#     4  10  24  44  73 108 148 192 256 304 373 445
#     4  11  26  47  71 109 147 195 251 306 380 441
#     4  11  24  45  76 109 146 202 246 305 380 455
#     4  12  26  44  71  99 152 186 238 316 370 454
#     4  12  25  45  71 104 151 190 241 311 378 442
#     4  10  23  47  75 103 144 196 255 312 358 451
#
# _framework density 23.787564
#
# number of rings (size 3 to 8) (size 9 to 14) (size 15 to 20)
#    0.000    1.091    1.818    2.727    5.091    4.364 
#    0.000    0.000   12.000    0.000    0.000    0.000 
#    0.000    0.000    0.000    0.000    0.000    0.000 
#
# Total GULP energy -244980.524961 kJ/mol
# GULP energy per Si atom -5567.739204 kJ/mol
# Density = 2.373342 g / cm^3
# Si number density = 23.787564 Si / 1000 Ang^3
#
#
#
# Elastic Constant Matrix: (Units=GPa)
#
#
# Indices 1 2 3 4 5 6 
#
# 1 77.4620 37.6519 67.2690 0.0000 0.0000 0.0000
# 2 37.6519 75.3656 59.3246 0.0000 0.0000 0.0000
# 3 67.2690 59.3246 179.1273 0.0000 0.0000 0.0000
# 4 0.0000 0.0000 0.0000 121.9160 0.0000 0.0000
# 5 0.0000 0.0000 0.0000 0.0000 40.9990 0.0000
# 6 0.0000 0.0000 0.0000 0.0000 0.0000 54.4575
#
#
#
# Elastic Compliance Matrix: (Units=1/GPa)
#
#
# Indices 1 2 3 4 5 6 
#
# 1 0.020851 -0.005753 -0.005925 0.000000 0.000000 0.000000
# 2 -0.005753 0.019535 -0.004309 0.000000 0.000000 0.000000
# 3 -0.005925 -0.004309 0.009235 0.000000 0.000000 0.000000
# 4 0.000000 0.000000 0.000000 0.008202 0.000000 0.000000
# 5 0.000000 0.000000 0.000000 0.000000 0.024391 0.000000
# 6 0.000000 0.000000 0.000000 0.000000 0.000000 0.018363
#
#
# Mechanical properties :
#
#
# Convention : Reuss Voigt Hill
#
# Bulk Modulus (GPa) = 56.66917 73.38287 65.02602
# Shear Modulus (GPa) = 36.11823 54.65514 45.38668
#
# Velocity S-wave (km/s) = 3.90085 4.79857 4.37281
# Velocity P-wave (km/s) = 6.64557 7.84970 7.27260
#
# Compressibility (1/GPa) = 0.01764628
#
# Stress axis : x y z
#
# Youngs Moduli (GPa) = 47.95836 51.19053 108.28525
#
# Poissons Ratio (x) = 0.29451 0.64160
# Poissons Ratio (y) = 0.27591 0.46662
# Poissons Ratio (z) = 0.28416 0.22059
#
# Static dielectric constant tensor:
#      x y z
#    x 2.008020 0.000000 0.000000 
#    y 0.000000 2.065660 0.000000 
#    z 0.000000 0.000000 2.005740 
# 
# From -- ./inp_files/13294.got.cif
#   From: 2010.05.17/outbox.cif.g08.bks.cpg/sg68_7_cif.got.tgz:13294.got - 2010.06.03 18:57:09.
