data_PCOD9509254
_publ_section_title
;
Structure prediction by ZEFSAII (Michael W. Deem and Ramdas Pophale) SiO2 
 PCOD9509254
Probable space group: C C C A
;
_chemical_formula_sum "Si O2"
_cell_formula_units_Z 64
_cell_length_a 16.450700
_cell_length_b 21.372320
_cell_length_c 8.790798
_cell_angle_alpha 90.000000
_cell_angle_beta 90.000000
_cell_angle_gamma 90.000000
_cell_volume 3090.753369
_symmetry_space_group_name_H-M "C C C A"
_symmetry_group_IT_number 68
_space_group.IT_coordinate_system_code '2'
_symmetry_cell_setting 'orthorhombic'
loop_
_space_group_symop_operation_xyz
x,y,z
-x,1/2-y,z
x,1/2-y,1/2-z
-x,y,1/2-z
-x,-y,-z
x,1/2+y,-z
-x,1/2+y,1/2+z
x,-y,1/2+z
1/2+x,1/2+y,z
1/2-x,-y,z
1/2+x,-y,1/2-z
1/2-x,1/2+y,1/2-z
1/2-x,1/2-y,-z
1/2+x,y,-z
1/2-x,y,1/2+z
1/2+x,1/2-y,1/2+z
loop_
_atom_site_type_symbol
_atom_site_label
_atom_site_fract_x
_atom_site_fract_y
_atom_site_fract_z
Si Si1 0.347237 0.683007 0.047256
Si Si2 0.000000 0.336139 0.250000
Si Si3 0.926402 0.043131 0.350532
Si Si4 0.668918 0.461852 0.935167
Si Si5 0.286802 0.750000 0.750000
O O1 0.430968 0.694352 0.142915
O O2 0.337105 0.609446 0.010398
O O3 0.273934 0.702805 0.160449
O O4 0.338320 0.719368 0.887466
O O5 0.047599 0.384277 0.364194
O O6 0.903466 0.001801 0.491395
O O7 0.000000 0.016228 0.250000
O O8 0.847462 0.042521 0.243807
O O9 0.750000 0.500000 0.964159
#
# Coordination Sequence:
#
# PCOD9509254 Si02
#       5
#    16   8  16  16   8
#     4  10  23  42  70  89 137 171 227 273 331 379
#     4   8  20  39  66  92 130 181 194 280 334 400
#     4   9  20  36  56  93 129 161 199 254 336 395
#     4  11  22  35  63  99 125 167 209 269 330 402
#     4  10  24  45  66  99 122 184 228 278 304 390
#
# _framework density 20.706925999999999
#
# number of rings (size 3 to 8) (size 9 to 14) (size 15 to 20)
#    0.750    1.500    0.000    1.500   10.500    0.500 
#    0.000    0.000    5.500    1.500    0.000    0.000 
#    0.000    0.000    0.000    0.000    0.000    0.000 
#
# Total GULP energy -178154.031489 kJ/mol
# GULP energy per Si atom -5567.313484 kJ/mol
# Density = 2.065980 g / cm^3
# Si number density = 20.706926 Si / 1000 Ang^3
#
#
#
# Elastic Constant Matrix: (Units=GPa)
#
#
# Indices 1 2 3 4 5 6 
#
# 1 132.1911 44.9023 64.8223 0.0000 0.0000 0.0000
# 2 44.9023 48.8049 61.7410 0.0000 0.0000 0.0000
# 3 64.8223 61.7410 121.4017 0.0000 0.0000 0.0000
# 4 0.0000 0.0000 0.0000 6.1538 0.0000 0.0000
# 5 0.0000 0.0000 0.0000 0.0000 -5.2101 0.0000
# 6 0.0000 0.0000 0.0000 0.0000 0.0000 20.3794
#
#
#
# Elastic Compliance Matrix: (Units=1/GPa)
#
#
# Indices 1 2 3 4 5 6 
#
# 1 0.011186 -0.007671 -0.002072 0.000000 0.000000 0.000000
# 2 -0.007671 0.062714 -0.027798 0.000000 0.000000 0.000000
# 3 -0.002072 -0.027798 0.023481 0.000000 0.000000 0.000000
# 4 0.000000 0.000000 0.000000 0.162501 0.000000 0.000000
# 5 0.000000 0.000000 0.000000 0.000000 -0.191934 0.000000
# 6 0.000000 0.000000 0.000000 0.000000 0.000000 0.049069
#
#
# Mechanical properties :
#
#
# Convention : Reuss Voigt Hill
#
# Bulk Modulus (GPa) = 44.84564 71.70322 58.27443
# Shear Modulus (GPa) = 25.05861 12.99342 19.02601
#
# Velocity S-wave (km/s) = 3.48250 2.50770 3.03450
# Velocity P-wave (km/s) = 6.15425 6.56411 6.36248
#
# Compressibility (1/GPa) = 0.02229871
#
# Stress axis : x y z
#
# Youngs Moduli (GPa) = 89.39441 15.94548 42.58831
#
# Poissons Ratio (x) = 0.12232 0.08823
# Poissons Ratio (y) = 0.68574 1.18388
# Poissons Ratio (z) = 0.18520 0.44326
#
# Static dielectric constant tensor:
#      x y z
#    x 1.742980 0.000000 0.000000 
#    y 0.000000 1.787880 0.000000 
#    z 0.000000 0.000000 1.750680 
# 
# From -- ./inp_files/5861.got.cif
#   From: 2010.05.17/outbox.cif.g08.bks.cpg/sg68_3_cif.got.tgz:5861.got - 2010.06.03 18:57:09.
