data_PCOD9509603
_publ_section_title
;
Structure prediction by ZEFSAII (Michael W. Deem and Ramdas Pophale) SiO2 
 PCOD9509603
Probable space group: C C C A
;
_chemical_formula_sum "Si O2"
_cell_formula_units_Z 116
_cell_length_a 7.925809
_cell_length_b 26.552190
_cell_length_c 22.779238
_cell_angle_alpha 90.000000
_cell_angle_beta 90.000000
_cell_angle_gamma 90.000000
_cell_volume 4793.835659
_symmetry_space_group_name_H-M "C C C A"
_symmetry_group_IT_number 68
_space_group.IT_coordinate_system_code '2'
_symmetry_cell_setting 'orthorhombic'
loop_
_space_group_symop_operation_xyz
x,y,z
-x,1/2-y,z
x,1/2-y,1/2-z
-x,y,1/2-z
-x,-y,-z
x,1/2+y,-z
-x,1/2+y,1/2+z
x,-y,1/2+z
1/2+x,1/2+y,z
1/2-x,-y,z
1/2+x,-y,1/2-z
1/2-x,1/2+y,1/2-z
1/2-x,1/2-y,-z
1/2+x,y,-z
1/2-x,y,1/2+z
1/2+x,1/2-y,1/2+z
loop_
_atom_site_type_symbol
_atom_site_label
_atom_site_fract_x
_atom_site_fract_y
_atom_site_fract_z
Si Si1 0.556867 0.513917 0.691276
Si Si2 0.301782 0.445546 0.551134
Si Si3 0.500000 0.750000 0.750000
Si Si4 0.050509 0.595444 0.662235
Si Si5 0.845921 0.829769 0.165815
Si Si6 0.702008 0.745237 0.931682
Si Si7 0.940692 0.927152 0.431647
Si Si8 0.769128 0.153482 0.869242
O O1 0.500000 0.542425 0.750000
O O2 0.750000 0.500000 0.698500
O O3 0.458732 0.460601 0.688408
O O4 0.551050 0.543393 0.629843
O O5 0.250000 0.500000 0.576553
O O6 0.430965 0.417240 0.592950
O O7 0.373539 0.456866 0.487391
O O8 0.131296 0.413120 0.552619
O O9 0.625000 0.715505 0.788541
O O10 0.214718 0.626542 0.682332
O O11 0.878708 0.627628 0.668326
O O12 0.769650 0.805455 0.105767
O O13 0.042368 0.846234 0.158781
O O14 0.500000 0.750000 0.929198
O O15 0.776038 0.791623 0.893688
O O16 0.750000 0.750000 0.000000
O O17 0.811643 0.881614 0.424753
#
# Coordination Sequence:
#
# PCOD9509603 Si02
#       8
#    16  16   4  16  16  16  16  16
#     4  12  29  51  73 108 153 207 266 325 394 471
#     4  12  25  42  73 107 161 202 253 327 394 473
#     4  12  24  60  86 100 172 202 272 334 402 496
#     4  12  27  46  80 117 148 201 270 319 400 468
#     4  11  26  50  78 112 148 211 249 329 402 460
#     4  10  24  44  70 108 151 195 244 310 404 462
#     4  12  25  45  74 111 155 208 261 324 400 468
#     4  11  24  46  72 115 152 193 264 314 385 482
#
# _framework density 24.197744
#
# number of rings (size 3 to 8) (size 9 to 14) (size 15 to 20)
#    0.000    0.552    6.207    1.655    5.793    2.207 
#    1.241    0.690    0.000    0.000    0.000    0.000 
#    0.000    0.000    0.000    0.000    0.000    0.000 
#
# Total GULP energy -324207.156737 kJ/mol
# GULP energy per Si atom -5589.778564 kJ/mol
# Density = 2.414267 g / cm^3
# Si number density = 24.197744 Si / 1000 Ang^3
#
#
#
# Elastic Constant Matrix: (Units=GPa)
#
#
# Indices 1 2 3 4 5 6 
#
# 1 84.1261 31.7713 41.5554 0.0000 0.0000 0.0000
# 2 31.7713 114.5304 31.5238 0.0000 0.0000 0.0000
# 3 41.5554 31.5238 136.0720 0.0000 0.0000 0.0000
# 4 0.0000 0.0000 0.0000 25.6197 0.0000 0.0000
# 5 0.0000 0.0000 0.0000 0.0000 29.5284 0.0000
# 6 0.0000 0.0000 0.0000 0.0000 0.0000 39.5476
#
#
#
# Elastic Compliance Matrix: (Units=1/GPa)
#
#
# Indices 1 2 3 4 5 6 
#
# 1 0.014956 -0.003089 -0.003852 0.000000 0.000000 0.000000
# 2 -0.003089 0.009964 -0.001365 0.000000 0.000000 0.000000
# 3 -0.003852 -0.001365 0.008842 0.000000 0.000000 0.000000
# 4 0.000000 0.000000 0.000000 0.039033 0.000000 0.000000
# 5 0.000000 0.000000 0.000000 0.000000 0.033866 0.000000
# 6 0.000000 0.000000 0.000000 0.000000 0.000000 0.025286
#
#
# Mechanical properties :
#
#
# Convention : Reuss Voigt Hill
#
# Bulk Modulus (GPa) = 58.30817 60.49217 59.40017
# Shear Modulus (GPa) = 32.40987 34.26433 33.33710
#
# Velocity S-wave (km/s) = 3.66372 3.76708 3.71576
# Velocity P-wave (km/s) = 6.48429 6.63133 6.55822
#
# Compressibility (1/GPa) = 0.01715026
#
# Stress axis : x y z
#
# Youngs Moduli (GPa) = 66.86220 100.36285 113.10113
#
# Poissons Ratio (x) = 0.30999 0.43566
# Poissons Ratio (y) = 0.20652 0.15439
# Poissons Ratio (z) = 0.25755 0.13700
#
# Static dielectric constant tensor:
#      x y z
#    x 1.921630 0.000000 0.000000 
#    y 0.000000 2.063220 0.000000 
#    z 0.000000 0.000000 1.985250 
# 
# From -- ./inp_files/43622.got.cif
#   From: 2010.05.17/outbox.cif.g08.bks.cpg/sg68_22_cif.got.tgz:43622.got - 2010.06.03 18:57:09.
