data_PCOD9509661
_publ_section_title
;
Structure prediction by ZEFSAII (Michael W. Deem and Ramdas Pophale) SiO2 
 PCOD9509661
Probable space group: C C C A
;
_chemical_formula_sum "Si O2"
_cell_formula_units_Z 64
_cell_length_a 20.033350
_cell_length_b 13.334049
_cell_length_c 9.244608
_cell_angle_alpha 90.000000
_cell_angle_beta 90.000000
_cell_angle_gamma 90.000000
_cell_volume 2469.472111
_symmetry_space_group_name_H-M "C C C A"
_symmetry_group_IT_number 68
_space_group.IT_coordinate_system_code '2'
_symmetry_cell_setting 'orthorhombic'
loop_
_space_group_symop_operation_xyz
x,y,z
-x,1/2-y,z
x,1/2-y,1/2-z
-x,y,1/2-z
-x,-y,-z
x,1/2+y,-z
-x,1/2+y,1/2+z
x,-y,1/2+z
1/2+x,1/2+y,z
1/2-x,-y,z
1/2+x,-y,1/2-z
1/2-x,1/2+y,1/2-z
1/2-x,1/2-y,-z
1/2+x,y,-z
1/2-x,y,1/2+z
1/2+x,1/2-y,1/2+z
loop_
_atom_site_type_symbol
_atom_site_label
_atom_site_fract_x
_atom_site_fract_y
_atom_site_fract_z
Si Si1 0.000000 0.750000 0.750000
Si Si2 0.269396 0.861899 0.775202
Si Si3 0.750000 0.500000 0.529314
Si Si4 0.500000 0.750000 0.750000
Si Si5 0.059120 0.573555 0.054788
Si Si6 0.111115 0.606025 0.736570
O O1 0.946378 0.821264 0.670174
O O2 0.293997 0.750000 0.750000
O O3 0.291199 0.931368 0.640843
O O4 0.187716 0.860760 0.779654
O O5 0.283245 0.918189 0.924795
O O6 0.460591 0.827501 0.854809
O O7 0.098187 0.500229 0.163412
O O8 0.094786 0.603365 0.906045
O O9 0.000000 0.500000 0.000000
#
# Coordination Sequence:
#
# PCOD9509661 Si02
#       6
#     4  16   8   4  16  16
#     4  12  20  36  60  92 136 180 206 266 310 388
#     4  11  23  44  72  99 131 175 218 273 352 391
#     4  10  24  46  70 100 134 160 226 298 322 402
#     4  12  24  40  66  82 132 196 216 268 326 358
#     4  12  23  41  59  91 132 180 227 271 313 385
#     4  12  24  40  64  97 135 178 224 265 327 405
#
# _framework density 25.916468999999999
#
# number of rings (size 3 to 8) (size 9 to 14) (size 15 to 20)
#    0.000    0.500    6.250    3.000    0.000    0.000 
#    4.500    0.000    5.500    0.000    0.000    0.000 
#    0.000    0.000    0.000    0.000    0.000    0.000 
#
# Total GULP energy -179038.669982 kJ/mol
# GULP energy per Si atom -5594.958437 kJ/mol
# Density = 2.585748 g / cm^3
# Si number density = 25.916469 Si / 1000 Ang^3
#
#
#
# Elastic Constant Matrix: (Units=GPa)
#
#
# Indices 1 2 3 4 5 6 
#
# 1 132.6832 27.8989 30.4338 0.0000 0.0000 0.0000
# 2 27.8989 222.6561 78.7570 0.0000 0.0000 0.0000
# 3 30.4338 78.7570 194.2537 0.0000 0.0000 0.0000
# 4 0.0000 0.0000 0.0000 49.9461 0.0000 0.0000
# 5 0.0000 0.0000 0.0000 0.0000 73.9531 0.0000
# 6 0.0000 0.0000 0.0000 0.0000 0.0000 26.0409
#
#
#
# Elastic Compliance Matrix: (Units=1/GPa)
#
#
# Indices 1 2 3 4 5 6 
#
# 1 0.007896 -0.000644 -0.000976 0.000000 0.000000 0.000000
# 2 -0.000644 0.005296 -0.002046 0.000000 0.000000 0.000000
# 3 -0.000976 -0.002046 0.006130 0.000000 0.000000 0.000000
# 4 0.000000 0.000000 0.000000 0.020022 0.000000 0.000000
# 5 0.000000 0.000000 0.000000 0.000000 0.013522 0.000000
# 6 0.000000 0.000000 0.000000 0.000000 0.000000 0.038401
#
#
# Mechanical properties :
#
#
# Convention : Reuss Voigt Hill
#
# Bulk Modulus (GPa) = 83.40507 91.53027 87.46767
# Shear Modulus (GPa) = 48.73486 57.48822 53.11154
#
# Velocity S-wave (km/s) = 4.34113 4.71490 4.53187
# Velocity P-wave (km/s) = 7.57492 8.06439 7.82348
#
# Compressibility (1/GPa) = 0.01198968
#
# Stress axis : x y z
#
# Youngs Moduli (GPa) = 126.64570 188.83260 163.12221
#
# Poissons Ratio (x) = 0.12164 0.15919
# Poissons Ratio (y) = 0.08158 0.33377
# Poissons Ratio (z) = 0.12359 0.38638
#
# Static dielectric constant tensor:
#      x y z
#    x 2.093900 0.000000 0.000000 
#    y 0.000000 2.078530 0.000000 
#    z 0.000000 0.000000 1.990200 
# 
# From -- ./inp_files/5165.got.cif
#   From: 2010.05.17/outbox.cif.g08.bks.cpg/sg68_3_cif.got.tgz:5165.got - 2010.06.03 18:57:09.
