data_PCOD9509411
_publ_section_title
;
Structure prediction by ZEFSAII (Michael W. Deem and Ramdas Pophale) SiO2 
 PCOD9509411
Probable space group: C C C A
;
_chemical_formula_sum "Si O2"
_cell_formula_units_Z 56
_cell_length_a 16.290408
_cell_length_b 17.429059
_cell_length_c 6.918833
_cell_angle_alpha 90.000000
_cell_angle_beta 90.000000
_cell_angle_gamma 90.000000
_cell_volume 1964.439914
_symmetry_space_group_name_H-M "C C C A"
_symmetry_group_IT_number 68
_space_group.IT_coordinate_system_code '2'
_symmetry_cell_setting 'orthorhombic'
loop_
_space_group_symop_operation_xyz
x,y,z
-x,1/2-y,z
x,1/2-y,1/2-z
-x,y,1/2-z
-x,-y,-z
x,1/2+y,-z
-x,1/2+y,1/2+z
x,-y,1/2+z
1/2+x,1/2+y,z
1/2-x,-y,z
1/2+x,-y,1/2-z
1/2-x,1/2+y,1/2-z
1/2-x,1/2-y,-z
1/2+x,y,-z
1/2-x,y,1/2+z
1/2+x,1/2-y,1/2+z
loop_
_atom_site_type_symbol
_atom_site_label
_atom_site_fract_x
_atom_site_fract_y
_atom_site_fract_z
Si Si1 0.500000 0.059840 0.750000
Si Si2 0.335562 0.199443 0.474646
Si Si3 0.673329 0.053619 0.752086
Si Si4 0.098602 0.148330 0.550972
O O1 0.584093 0.013530 0.778606
O O2 0.519318 0.109120 0.554747
O O3 0.250000 0.250000 0.500000
O O4 0.329156 0.125890 0.607593
O O5 0.130345 0.166245 0.768821
O O6 0.399557 0.265300 0.530911
O O7 0.667553 0.094723 0.545522
O O8 0.750000 0.000000 0.758163
#
# Coordination Sequence:
#
# PCOD9509411 Si02
#       4
#     8  16  16  16
#     4   8  22  45  78 126 183 242 302 388 467 558
#     4  11  24  42  82 132 169 234 319 385 481 572
#     4  10  23  46  79 126 180 247 309 381 468 567
#     4   9  23  42  77 126 177 236 300 389 470 557
#
# _framework density 28.506853
#
# number of rings (size 3 to 8) (size 9 to 14) (size 15 to 20)
#    1.714    0.571    0.000    0.857    8.000    4.571 
#    0.000    4.286    0.000    5.143    7.429    2.000 
#    0.000    0.000    0.000    0.000    0.000    0.000 
#
# Total GULP energy -156324.820834 kJ/mol
# GULP energy per Si atom -5583.029315 kJ/mol
# Density = 2.844197 g / cm^3
# Si number density = 28.506853 Si / 1000 Ang^3
#
#
#
# Elastic Constant Matrix: (Units=GPa)
#
#
# Indices 1 2 3 4 5 6 
#
# 1 226.5018 105.9761 72.2438 0.0000 0.0000 0.0000
# 2 105.9761 150.2104 93.4597 0.0000 0.0000 0.0000
# 3 72.2438 93.4597 206.1768 0.0000 0.0000 0.0000
# 4 0.0000 0.0000 0.0000 73.5732 0.0000 0.0000
# 5 0.0000 0.0000 0.0000 0.0000 43.0848 0.0000
# 6 0.0000 0.0000 0.0000 0.0000 0.0000 65.8552
#
#
#
# Elastic Compliance Matrix: (Units=1/GPa)
#
#
# Indices 1 2 3 4 5 6 
#
# 1 0.006602 -0.004483 -0.000281 0.000000 0.000000 0.000000
# 2 -0.004483 0.012317 -0.004012 0.000000 0.000000 0.000000
# 3 -0.000281 -0.004012 0.006768 0.000000 0.000000 0.000000
# 4 0.000000 0.000000 0.000000 0.013592 0.000000 0.000000
# 5 0.000000 0.000000 0.000000 0.000000 0.023210 0.000000
# 6 0.000000 0.000000 0.000000 0.000000 0.000000 0.015185
#
#
# Mechanical properties :
#
#
# Convention : Reuss Voigt Hill
#
# Bulk Modulus (GPa) = 122.95178 125.13867 124.04522
# Shear Modulus (GPa) = 51.05321 57.24993 54.15157
#
# Velocity S-wave (km/s) = 4.23651 4.48625 4.36317
# Velocity P-wave (km/s) = 8.19481 8.41596 8.30612
#
# Compressibility (1/GPa) = 0.00813327
#
# Stress axis : x y z
#
# Youngs Moduli (GPa) = 151.46507 81.19176 147.76484
#
# Poissons Ratio (x) = 0.36398 0.04156
# Poissons Ratio (y) = 0.67901 0.59287
# Poissons Ratio (z) = 0.04260 0.32576
#
# Static dielectric constant tensor:
#      x y z
#    x 2.355680 0.000000 0.000000 
#    y 0.000000 2.208320 0.000000 
#    z 0.000000 0.000000 2.345120 
# 
# From -- ./inp_files/14097.got.cif
#   From: 2010.05.17/outbox.cif.g08.bks.cpg/sg68_8_cif.got.tgz:14097.got - 2010.06.03 18:57:09.
