data_PCOD9509013
_publ_section_title
;
Structure prediction by ZEFSAII (Michael W. Deem and Ramdas Pophale) SiO2 
 PCOD9509013
Probable space group: C C C A
;
_chemical_formula_sum "Si O2"
_cell_formula_units_Z 72
_cell_length_a 21.830658
_cell_length_b 22.643551
_cell_length_c 5.453293
_cell_angle_alpha 90.000000
_cell_angle_beta 90.000000
_cell_angle_gamma 90.000000
_cell_volume 2695.691525
_symmetry_space_group_name_H-M "C C C A"
_symmetry_group_IT_number 68
_space_group.IT_coordinate_system_code '2'
_symmetry_cell_setting 'orthorhombic'
loop_
_space_group_symop_operation_xyz
x,y,z
-x,1/2-y,z
x,1/2-y,1/2-z
-x,y,1/2-z
-x,-y,-z
x,1/2+y,-z
-x,1/2+y,1/2+z
x,-y,1/2+z
1/2+x,1/2+y,z
1/2-x,-y,z
1/2+x,-y,1/2-z
1/2-x,1/2+y,1/2-z
1/2-x,1/2-y,-z
1/2+x,y,-z
1/2-x,y,1/2+z
1/2+x,1/2-y,1/2+z
loop_
_atom_site_type_symbol
_atom_site_label
_atom_site_fract_x
_atom_site_fract_y
_atom_site_fract_z
Si Si1 0.824392 0.095074 0.499721
Si Si2 0.186120 0.860116 0.002683
Si Si3 0.961975 0.832353 0.996500
Si Si4 0.862755 0.250000 0.750000
Si Si5 0.072043 0.969582 0.600263
O O1 0.847813 0.106249 0.776368
O O2 0.752666 0.109978 0.524427
O O3 0.852977 0.033794 0.415406
O O4 0.841894 0.135340 0.264836
O O5 0.181228 0.793729 0.098493
O O6 0.906784 0.787207 0.067732
O O7 0.947047 0.902177 0.957076
O O8 0.000000 0.829920 0.250000
O O9 0.000000 0.815873 0.750000
O O10 0.054502 0.989159 0.872467
#
# Coordination Sequence:
#
# PCOD9509013 Si02
#       5
#    16  16  16   8  16
#     4  10  22  45  69 113 152 190 254 303 361 454
#     4  10  23  42  74 108 153 201 240 294 379 457
#     4  12  30  52  77 115 153 195 267 330 390 450
#     4  12  27  50  84 110 162 204 243 318 390 476
#     4  12  26  49  82 108 150 206 258 318 383 448
#
# _framework density 26.709288000000001
#
# number of rings (size 3 to 8) (size 9 to 14) (size 15 to 20)
#    0.000    0.889    2.222    3.000    3.111   10.667 
#    0.000   13.333    0.000    0.000    0.000    0.000 
#    0.000    0.000    0.000    0.000    0.000    0.000 
#
# Total GULP energy -201037.880863 kJ/mol
# GULP energy per Si atom -5584.385580 kJ/mol
# Density = 2.664850 g / cm^3
# Si number density = 26.709288 Si / 1000 Ang^3
#
#
#
# Elastic Constant Matrix: (Units=GPa)
#
#
# Indices 1 2 3 4 5 6 
#
# 1 86.6524 27.8521 46.3633 0.0000 0.0000 0.0000
# 2 27.8521 108.3913 53.7501 0.0000 0.0000 0.0000
# 3 46.3633 53.7501 239.4506 0.0000 0.0000 0.0000
# 4 0.0000 0.0000 0.0000 48.0739 0.0000 0.0000
# 5 0.0000 0.0000 0.0000 0.0000 31.5346 0.0000
# 6 0.0000 0.0000 0.0000 0.0000 0.0000 -104.7496
#
#
#
# Elastic Compliance Matrix: (Units=1/GPa)
#
#
# Indices 1 2 3 4 5 6 
#
# 1 0.013420 -0.002430 -0.002053 0.000000 0.000000 0.000000
# 2 -0.002430 0.010822 -0.001959 0.000000 0.000000 0.000000
# 3 -0.002053 -0.001959 0.005013 0.000000 0.000000 0.000000
# 4 0.000000 0.000000 0.000000 0.020801 0.000000 0.000000
# 5 0.000000 0.000000 0.000000 0.000000 0.031711 0.000000
# 6 0.000000 0.000000 0.000000 0.000000 0.000000 -0.009547
#
#
# Mechanical properties :
#
#
# Convention : Reuss Voigt Hill
#
# Bulk Modulus (GPa) = 61.08271 76.71392 68.89832
# Shear Modulus (GPa) = 55.21110 15.40702 35.30906
#
# Velocity S-wave (km/s) = 4.55148 2.40436 3.63984
# Velocity P-wave (km/s) = 7.10918 6.04087 6.59669
#
# Compressibility (1/GPa) = 0.01637124
#
# Stress axis : x y z
#
# Youngs Moduli (GPa) = 74.51603 92.40798 199.46725
#
# Poissons Ratio (x) = 0.22459 0.40948
# Poissons Ratio (y) = 0.18110 0.39067
# Poissons Ratio (z) = 0.15297 0.18099
#
# Static dielectric constant tensor:
#      x y z
#    x 2.690480 0.000000 0.000000 
#    y 0.000000 2.088350 0.000000 
#    z 0.000000 0.000000 2.061400 
# 
# From -- ./inp_files/1906.got.cif
#   From: 2010.05.17/outbox.cif.g08.bks.cpg/sg68_1_cif.got.tgz:1906.got - 2010.06.03 18:57:09.
