data_PCOD9509430
_publ_section_title
;
Structure prediction by ZEFSAII (Michael W. Deem and Ramdas Pophale) SiO2 
 PCOD9509430
Probable space group: C C C A
;
_chemical_formula_sum "Si O2"
_cell_formula_units_Z 104
_cell_length_a 27.291651
_cell_length_b 18.846174
_cell_length_c 7.534633
_cell_angle_alpha 90.000000
_cell_angle_beta 90.000000
_cell_angle_gamma 90.000000
_cell_volume 3875.387274
_symmetry_space_group_name_H-M "C C C A"
_symmetry_group_IT_number 68
_space_group.IT_coordinate_system_code '2'
_symmetry_cell_setting 'orthorhombic'
loop_
_space_group_symop_operation_xyz
x,y,z
-x,1/2-y,z
x,1/2-y,1/2-z
-x,y,1/2-z
-x,-y,-z
x,1/2+y,-z
-x,1/2+y,1/2+z
x,-y,1/2+z
1/2+x,1/2+y,z
1/2-x,-y,z
1/2+x,-y,1/2-z
1/2-x,1/2+y,1/2-z
1/2-x,1/2-y,-z
1/2+x,y,-z
1/2-x,y,1/2+z
1/2+x,1/2-y,1/2+z
loop_
_atom_site_type_symbol
_atom_site_label
_atom_site_fract_x
_atom_site_fract_y
_atom_site_fract_z
Si Si1 0.750000 0.500000 0.789477
Si Si2 0.610317 0.842049 0.483546
Si Si3 0.500849 0.830889 0.464334
Si Si4 0.405059 0.909424 0.387110
Si Si5 0.317950 0.724906 0.993706
Si Si6 0.357667 0.543628 0.762967
Si Si7 0.240049 0.843579 0.333245
O O1 0.694731 0.503709 0.708828
O O2 0.795218 0.322492 0.668267
O O3 0.553453 0.856483 0.531909
O O4 0.609321 0.855989 0.271583
O O5 0.628255 0.760264 0.517609
O O6 0.639653 0.899917 0.601006
O O7 0.500000 0.750000 0.531604
O O8 0.500000 0.825495 0.250000
O O9 0.455180 0.884077 0.482553
O O10 0.368884 0.917326 0.552813
O O11 0.398915 0.984897 0.286060
O O12 0.287509 0.798124 0.979940
O O13 0.295533 0.684960 0.160886
O O14 0.246754 0.424769 0.615903
#
# Coordination Sequence:
#
# PCOD9509430 Si02
#       7
#     8  16  16  16  16  16  16
#     4  12  28  50  76 116 168 212 278 344 400 494
#     4  11  24  53  79 115 163 207 270 345 411 493
#     4   9  22  48  82 116 154 205 271 342 411 493
#     4  11  26  51  78 121 155 212 273 332 423 497
#     4  10  23  49  74 114 154 219 271 333 418 490
#     4  12  27  49  77 118 162 215 270 334 419 497
#     4  10  24  46  75 108 159 221 275 330 411 495
#
# _framework density 26.836027000000001
#
# number of rings (size 3 to 8) (size 9 to 14) (size 15 to 20)
#    0.000    1.385    3.077    0.000    0.000   11.077 
#    8.308    7.692    0.000    0.000    0.000    0.000 
#    0.000    0.000    0.000    0.000    0.000    0.000 
#
# Total GULP energy -289959.736641 kJ/mol
# GULP energy per Si atom -5576.148782 kJ/mol
# Density = 2.677495 g / cm^3
# Si number density = 26.836027 Si / 1000 Ang^3
#
#
#
# Elastic Constant Matrix: (Units=GPa)
#
#
# Indices 1 2 3 4 5 6 
#
# 1 194.6322 66.4196 51.7124 0.0000 0.0000 0.0000
# 2 66.4196 142.0986 31.1421 0.0000 0.0000 0.0000
# 3 51.7124 31.1421 133.5011 0.0000 0.0000 0.0000
# 4 0.0000 0.0000 0.0000 21.9419 0.0000 0.0000
# 5 0.0000 0.0000 0.0000 0.0000 31.3280 0.0000
# 6 0.0000 0.0000 0.0000 0.0000 0.0000 53.4626
#
#
#
# Elastic Compliance Matrix: (Units=1/GPa)
#
#
# Indices 1 2 3 4 5 6 
#
# 1 0.006549 -0.002640 -0.001921 0.000000 0.000000 0.000000
# 2 -0.002640 0.008481 -0.000956 0.000000 0.000000 0.000000
# 3 -0.001921 -0.000956 0.008458 0.000000 0.000000 0.000000
# 4 0.000000 0.000000 0.000000 0.045575 0.000000 0.000000
# 5 0.000000 0.000000 0.000000 0.000000 0.031920 0.000000
# 6 0.000000 0.000000 0.000000 0.000000 0.000000 0.018705
#
#
# Mechanical properties :
#
#
# Convention : Reuss Voigt Hill
#
# Bulk Modulus (GPa) = 80.29548 85.42002 82.85775
# Shear Modulus (GPa) = 37.07196 42.74369 39.90782
#
# Velocity S-wave (km/s) = 3.72078 3.99529 3.86048
# Velocity P-wave (km/s) = 6.96022 7.29263 7.12837
#
# Compressibility (1/GPa) = 0.01245400
#
# Stress axis : x y z
#
# Youngs Moduli (GPa) = 152.68798 117.91179 118.23662
#
# Poissons Ratio (x) = 0.31132 0.22713
# Poissons Ratio (y) = 0.40314 0.11299
# Poissons Ratio (z) = 0.29332 0.11268
#
# Static dielectric constant tensor:
#      x y z
#    x 2.256770 0.000000 0.000000 
#    y 0.000000 2.121210 0.000000 
#    z 0.000000 0.000000 2.234920 
# 
# From -- ./inp_files/26117.got.cif
#   From: 2010.05.17/outbox.cif.g08.bks.cpg/sg68_14_cif.got.tgz:26117.got - 2010.06.03 18:57:09.
