data_PCOD9509607
_publ_section_title
;
Structure prediction by ZEFSAII (Michael W. Deem and Ramdas Pophale) SiO2 
 PCOD9509607
Probable space group: C C C A
;
_chemical_formula_sum "Si O2"
_cell_formula_units_Z 116
_cell_length_a 27.427350
_cell_length_b 9.343517
_cell_length_c 21.792529
_cell_angle_alpha 90.000000
_cell_angle_beta 90.000000
_cell_angle_gamma 90.000000
_cell_volume 5584.725882
_symmetry_space_group_name_H-M "C C C A"
_symmetry_group_IT_number 68
_space_group.IT_coordinate_system_code '2'
_symmetry_cell_setting 'orthorhombic'
loop_
_space_group_symop_operation_xyz
x,y,z
-x,1/2-y,z
x,1/2-y,1/2-z
-x,y,1/2-z
-x,-y,-z
x,1/2+y,-z
-x,1/2+y,1/2+z
x,-y,1/2+z
1/2+x,1/2+y,z
1/2-x,-y,z
1/2+x,-y,1/2-z
1/2-x,1/2+y,1/2-z
1/2-x,1/2-y,-z
1/2+x,y,-z
1/2-x,y,1/2+z
1/2+x,1/2-y,1/2+z
loop_
_atom_site_type_symbol
_atom_site_label
_atom_site_fract_x
_atom_site_fract_y
_atom_site_fract_z
Si Si1 0.200997 0.922812 0.254334
Si Si2 0.500000 0.750000 0.750000
Si Si3 0.628554 0.639765 0.305871
Si Si4 0.115172 0.259784 0.928215
Si Si5 0.532265 0.005651 0.937527
Si Si6 0.377150 0.303457 0.931565
Si Si7 0.947371 0.550919 0.345167
Si Si8 0.194740 0.041625 0.612094
O O1 0.203855 0.750000 0.250000
O O2 0.193631 0.979271 0.185065
O O3 0.250000 0.000000 0.277423
O O4 0.158581 0.994689 0.293478
O O5 0.535307 0.837588 0.705432
O O6 0.637674 0.750000 0.250000
O O7 0.636561 0.705285 0.373526
O O8 0.573728 0.584708 0.309571
O O9 0.070540 0.374734 0.929121
O O10 0.091218 0.123655 0.893252
O O11 0.166224 0.308046 0.897039
O O12 0.129029 0.249252 0.999592
O O13 0.493657 0.994496 0.884016
O O14 0.566586 0.144403 0.930843
O O15 0.500000 0.000000 0.000000
O O16 0.341513 0.436943 0.922855
O O17 0.250000 0.000000 0.593098
#
# Coordination Sequence:
#
# PCOD9509607 Si02
#       8
#    16   4  16  16  16  16  16  16
#     4  11  24  46  78 106 142 192 247 297 366 442
#     4  12  28  44  66 104 140 188 232 300 368 424
#     4  12  27  45  67 105 149 188 238 303 362 438
#     4  11  23  44  70 101 134 186 243 298 357 433
#     4  11  22  43  69  99 136 189 240 300 353 430
#     4  11  25  43  71 102 141 184 243 295 362 432
#     4  12  26  42  70 100 142 187 240 298 363 434
#     4  10  24  44  70  99 142 186 231 301 362 425
#
# _framework density 20.770938999999998
#
# number of rings (size 3 to 8) (size 9 to 14) (size 15 to 20)
#    0.000    0.828    4.138    2.069    8.690    2.207 
#    0.000    0.690    0.000    0.000    0.000    0.000 
#    0.000    0.000    0.000    0.000    0.000    0.000 
#
# Total GULP energy -323470.159750 kJ/mol
# GULP energy per Si atom -5577.071720 kJ/mol
# Density = 2.072366 g / cm^3
# Si number density = 20.770939 Si / 1000 Ang^3
#
#
#
# Elastic Constant Matrix: (Units=GPa)
#
#
# Indices 1 2 3 4 5 6 
#
# 1 115.8421 19.4661 35.0568 0.0000 0.0000 0.0000
# 2 19.4661 62.2535 9.1329 0.0000 0.0000 0.0000
# 3 35.0568 9.1329 91.4094 0.0000 0.0000 0.0000
# 4 0.0000 0.0000 0.0000 37.0684 0.0000 0.0000
# 5 0.0000 0.0000 0.0000 0.0000 32.5404 0.0000
# 6 0.0000 0.0000 0.0000 0.0000 0.0000 30.6160
#
#
#
# Elastic Compliance Matrix: (Units=1/GPa)
#
#
# Indices 1 2 3 4 5 6 
#
# 1 0.010179 -0.002649 -0.003639 0.000000 0.000000 0.000000
# 2 -0.002649 0.016992 -0.000682 0.000000 0.000000 0.000000
# 3 -0.003639 -0.000682 0.012404 0.000000 0.000000 0.000000
# 4 0.000000 0.000000 0.000000 0.026977 0.000000 0.000000
# 5 0.000000 0.000000 0.000000 0.000000 0.030731 0.000000
# 6 0.000000 0.000000 0.000000 0.000000 0.000000 0.032663
#
#
# Mechanical properties :
#
#
# Convention : Reuss Voigt Hill
#
# Bulk Modulus (GPa) = 39.00993 44.09072 41.55033
# Shear Modulus (GPa) = 32.80209 33.76824 33.28517
#
# Velocity S-wave (km/s) = 3.97826 4.03643 4.00745
# Velocity P-wave (km/s) = 6.31854 6.55720 6.43897
#
# Compressibility (1/GPa) = 0.02563450
#
# Stress axis : x y z
#
# Youngs Moduli (GPa) = 98.24302 58.85230 80.62219
#
# Poissons Ratio (x) = 0.15590 0.29339
# Poissons Ratio (y) = 0.26024 0.05497
# Poissons Ratio (z) = 0.35751 0.04012
#
# Static dielectric constant tensor:
#      x y z
#    x 1.763880 0.000000 0.000000 
#    y 0.000000 1.867680 0.000000 
#    z 0.000000 0.000000 1.525410 
# 
# From -- ./inp_files/47309.got.cif
#   From: 2010.05.17/outbox.cif.g08.bks.cpg/sg68_24_cif.got.tgz:47309.got - 2010.06.03 18:57:09.
