data_PCOD9509750
_publ_section_title
;
Structure prediction by ZEFSAII (Michael W. Deem and Ramdas Pophale) SiO2 
 PCOD9509750
Probable space group: C C C A
;
_chemical_formula_sum "Si O2"
_cell_formula_units_Z 56
_cell_length_a 14.669315
_cell_length_b 13.215772
_cell_length_c 11.228882
_cell_angle_alpha 90.000000
_cell_angle_beta 90.000000
_cell_angle_gamma 90.000000
_cell_volume 2176.902058
_symmetry_space_group_name_H-M "C C C A"
_symmetry_group_IT_number 68
_space_group.IT_coordinate_system_code '2'
_symmetry_cell_setting 'orthorhombic'
loop_
_space_group_symop_operation_xyz
x,y,z
-x,1/2-y,z
x,1/2-y,1/2-z
-x,y,1/2-z
-x,-y,-z
x,1/2+y,-z
-x,1/2+y,1/2+z
x,-y,1/2+z
1/2+x,1/2+y,z
1/2-x,-y,z
1/2+x,-y,1/2-z
1/2-x,1/2+y,1/2-z
1/2-x,1/2-y,-z
1/2+x,y,-z
1/2-x,y,1/2+z
1/2+x,1/2-y,1/2+z
loop_
_atom_site_type_symbol
_atom_site_label
_atom_site_fract_x
_atom_site_fract_y
_atom_site_fract_z
Si Si1 0.761531 0.117994 0.386360
Si Si2 0.750000 0.500000 0.833948
Si Si3 0.904257 0.267730 0.490362
Si Si4 0.047941 0.467258 0.123483
O O1 0.763705 0.101768 0.245750
O O2 0.851129 0.173624 0.432903
O O3 0.672768 0.176826 0.431040
O O4 0.750000 0.000000 0.426089
O O5 0.852192 0.483931 0.878053
O O6 0.936406 0.347321 0.390312
O O7 0.000000 0.250000 0.557852
O O8 0.000000 0.490891 0.250000
O O9 0.000000 0.500000 0.000000
#
# Coordination Sequence:
#
# PCOD9509750 Si02
#       4
#    16   8  16  16
#     4   9  23  47  74 117 159 219 266 336 422 485
#     4  10  24  48  78 106 170 212 270 338 416 480
#     4  11  24  41  77 115 164 211 275 336 411 499
#     4  12  28  47  79 120 160 216 278 340 417 501
#
# _framework density 25.724630999999999
#
# number of rings (size 3 to 8) (size 9 to 14) (size 15 to 20)
#    0.857    0.571    0.000    3.429    6.000    7.429 
#    0.000    0.000    0.000   11.143    0.000    0.000 
#    0.000    0.000    0.000    0.000    0.000    0.000 
#
# Total GULP energy -156458.680759 kJ/mol
# GULP energy per Si atom -5587.810027 kJ/mol
# Density = 2.566608 g / cm^3
# Si number density = 25.724631 Si / 1000 Ang^3
#
#
#
# Elastic Constant Matrix: (Units=GPa)
#
#
# Indices 1 2 3 4 5 6 
#
# 1 291.6488 76.8906 113.9688 0.0000 0.0000 0.0000
# 2 76.8906 135.4259 33.3687 0.0000 0.0000 0.0000
# 3 113.9688 33.3687 138.8665 0.0000 0.0000 0.0000
# 4 0.0000 0.0000 0.0000 9.2007 0.0000 0.0000
# 5 0.0000 0.0000 0.0000 0.0000 32.7696 0.0000
# 6 0.0000 0.0000 0.0000 0.0000 0.0000 23.4009
#
#
#
# Elastic Compliance Matrix: (Units=1/GPa)
#
#
# Indices 1 2 3 4 5 6 
#
# 1 0.005590 -0.002172 -0.004066 0.000000 0.000000 0.000000
# 2 -0.002172 0.008693 -0.000306 0.000000 0.000000 0.000000
# 3 -0.004066 -0.000306 0.010612 0.000000 0.000000 0.000000
# 4 0.000000 0.000000 0.000000 0.108687 0.000000 0.000000
# 5 0.000000 0.000000 0.000000 0.000000 0.030516 0.000000
# 6 0.000000 0.000000 0.000000 0.000000 0.000000 0.042733
#
#
# Mechanical properties :
#
#
# Convention : Reuss Voigt Hill
#
# Bulk Modulus (GPa) = 84.70103 112.71082 98.70592
# Shear Modulus (GPa) = 22.33578 35.85511 29.09544
#
# Velocity S-wave (km/s) = 2.94983 3.73742 3.36673
# Velocity P-wave (km/s) = 6.67829 7.90784 7.31893
#
# Compressibility (1/GPa) = 0.01180623
#
# Stress axis : x y z
#
# Youngs Moduli (GPa) = 178.87847 115.03742 94.23460
#
# Poissons Ratio (x) = 0.24988 0.38317
# Poissons Ratio (y) = 0.38855 0.02885
# Poissons Ratio (z) = 0.72734 0.03521
#
# Static dielectric constant tensor:
#      x y z
#    x 2.072710 0.000000 0.000000 
#    y 0.000000 2.135770 0.000000 
#    z 0.000000 0.000000 2.507090 
# 
# From -- ./inp_files/12519.got.cif
#   From: 2010.05.17/outbox.cif.g08.bks.cpg/sg68_7_cif.got.tgz:12519.got - 2010.06.03 18:57:09.
