data_PCOD9509968
_publ_section_title
;
Structure prediction by ZEFSAII (Michael W. Deem and Ramdas Pophale) SiO2 
 PCOD9509968
Probable space group: C C C A
;
_chemical_formula_sum "Si O2"
_cell_formula_units_Z 64
_cell_length_a 17.135067
_cell_length_b 20.027082
_cell_length_c 9.219509
_cell_angle_alpha 90.000000
_cell_angle_beta 90.000000
_cell_angle_gamma 90.000000
_cell_volume 3163.816419
_symmetry_space_group_name_H-M "C C C A"
_symmetry_group_IT_number 68
_space_group.IT_coordinate_system_code '2'
_symmetry_cell_setting 'orthorhombic'
loop_
_space_group_symop_operation_xyz
x,y,z
-x,1/2-y,z
x,1/2-y,1/2-z
-x,y,1/2-z
-x,-y,-z
x,1/2+y,-z
-x,1/2+y,1/2+z
x,-y,1/2+z
1/2+x,1/2+y,z
1/2-x,-y,z
1/2+x,-y,1/2-z
1/2-x,1/2+y,1/2-z
1/2-x,1/2-y,-z
1/2+x,y,-z
1/2-x,y,1/2+z
1/2+x,1/2-y,1/2+z
loop_
_atom_site_type_symbol
_atom_site_label
_atom_site_fract_x
_atom_site_fract_y
_atom_site_fract_z
Si Si1 0.496701 0.676162 0.499840
Si Si2 0.127025 0.677220 0.731071
Si Si3 0.330910 0.462959 0.809684
Si Si4 0.432535 0.459738 0.083713
O O1 0.500000 0.750000 0.566773
O O2 0.579758 0.667183 0.419027
O O3 0.436407 0.677474 0.362745
O O4 0.467011 0.615026 0.596570
O O5 0.165325 0.750000 0.750000
O O6 0.178134 0.612006 0.750669
O O7 0.250000 0.500000 0.796157
O O8 0.359350 0.457771 0.974601
O O9 0.400199 0.501486 0.723203
O O10 0.500000 0.500000 0.000000
#
# Coordination Sequence:
#
# PCOD9509968 Si02
#       4
#    16  16  16  16
#     4   8  14  27  52  82 100 131 185 234 259 310
#     4   8  14  28  52  79 101 135 188 227 255 317
#     4  11  22  35  55  84 116 146 180 231 283 329
#     4  11  20  35  59  83 109 146 191 229 271 327
#
# _framework density 20.228733999999999
#
# number of rings (size 3 to 8) (size 9 to 14) (size 15 to 20)
#    0.000    2.500    2.500    3.000    0.000    0.000 
#    0.000    0.000    5.500    7.500    0.000    0.000 
#    0.000    0.000    0.000    0.000    0.000    0.000 
#
# Total GULP energy -178427.596193 kJ/mol
# GULP energy per Si atom -5575.862381 kJ/mol
# Density = 2.018269 g / cm^3
# Si number density = 20.228734 Si / 1000 Ang^3
#
#
#
# Elastic Constant Matrix: (Units=GPa)
#
#
# Indices 1 2 3 4 5 6 
#
# 1 72.8056 52.9874 7.4882 0.0000 0.0000 0.0000
# 2 52.9874 199.7136 25.1799 0.0000 0.0000 0.0000
# 3 7.4882 25.1799 67.9522 0.0000 0.0000 0.0000
# 4 0.0000 0.0000 0.0000 13.4273 0.0000 0.0000
# 5 0.0000 0.0000 0.0000 0.0000 15.2673 0.0000
# 6 0.0000 0.0000 0.0000 0.0000 0.0000 38.2062
#
#
#
# Elastic Compliance Matrix: (Units=1/GPa)
#
#
# Indices 1 2 3 4 5 6 
#
# 1 0.017025 -0.004490 -0.000212 0.000000 0.000000 0.000000
# 2 -0.004490 0.006437 -0.001890 0.000000 0.000000 0.000000
# 3 -0.000212 -0.001890 0.015440 0.000000 0.000000 0.000000
# 4 0.000000 0.000000 0.000000 0.074475 0.000000 0.000000
# 5 0.000000 0.000000 0.000000 0.000000 0.065500 0.000000
# 6 0.000000 0.000000 0.000000 0.000000 0.000000 0.026174
#
#
# Mechanical properties :
#
#
# Convention : Reuss Voigt Hill
#
# Bulk Modulus (GPa) = 38.88599 56.86470 47.87535
# Shear Modulus (GPa) = 22.04504 30.36787 26.20645
#
# Velocity S-wave (km/s) = 3.30478 3.87877 3.60322
# Velocity P-wave (km/s) = 5.81609 6.94490 6.40541
#
# Compressibility (1/GPa) = 0.02571620
#
# Stress axis : x y z
#
# Youngs Moduli (GPa) = 58.73707 155.35545 64.76645
#
# Poissons Ratio (x) = 0.69759 0.01375
# Poissons Ratio (y) = 0.26374 0.12243
# Poissons Ratio (z) = 0.01247 0.29368
#
# Static dielectric constant tensor:
#      x y z
#    x 1.697790 0.000000 0.000000 
#    y 0.000000 1.776100 0.000000 
#    z 0.000000 0.000000 1.736340 
# 
# From -- ./inp_files/5813.got.cif
#   From: 2010.05.17/outbox.cif.g08.bks.cpg/sg68_3_cif.got.tgz:5813.got - 2010.06.03 18:57:09.
