data_PCOD9509671
_publ_section_title
;
Structure prediction by ZEFSAII (Michael W. Deem and Ramdas Pophale) SiO2 
 PCOD9509671
Probable space group: C C C A
;
_chemical_formula_sum "Si O2"
_cell_formula_units_Z 64
_cell_length_a 10.982064
_cell_length_b 12.780500
_cell_length_c 19.808479
_cell_angle_alpha 90.000000
_cell_angle_beta 90.000000
_cell_angle_gamma 90.000000
_cell_volume 2780.244206
_symmetry_space_group_name_H-M "C C C A"
_symmetry_group_IT_number 68
_space_group.IT_coordinate_system_code '2'
_symmetry_cell_setting 'orthorhombic'
loop_
_space_group_symop_operation_xyz
x,y,z
-x,1/2-y,z
x,1/2-y,1/2-z
-x,y,1/2-z
-x,-y,-z
x,1/2+y,-z
-x,1/2+y,1/2+z
x,-y,1/2+z
1/2+x,1/2+y,z
1/2-x,-y,z
1/2+x,-y,1/2-z
1/2-x,1/2+y,1/2-z
1/2-x,1/2-y,-z
1/2+x,y,-z
1/2-x,y,1/2+z
1/2+x,1/2-y,1/2+z
loop_
_atom_site_type_symbol
_atom_site_label
_atom_site_fract_x
_atom_site_fract_y
_atom_site_fract_z
Si Si1 0.189454 0.347378 0.210342
Si Si2 0.493069 0.044402 0.882371
Si Si3 0.000000 0.250000 0.474275
Si Si4 0.250000 0.500000 0.318280
Si Si5 0.890943 0.183058 0.601201
O O1 0.135959 0.250000 0.250000
O O2 0.270545 0.404466 0.266710
O O3 0.271559 0.315342 0.146493
O O4 0.085952 0.423396 0.182741
O O5 0.487127 0.145447 0.930633
O O6 0.631742 0.022628 0.862279
O O7 0.433698 0.936997 0.908854
O O8 0.111469 0.265048 0.527147
O O9 0.000000 0.250000 0.635779
#
# Coordination Sequence:
#
# PCOD9509671 Si02
#       5
#    16  16   8   8  16
#     4  12  25  45  75 108 147 190 246 311 379 451
#     4  12  24  49  70 108 144 195 250 313 378 444
#     4  10  26  46  72 104 148 198 256 302 368 460
#     4  12  26  42  72 106 142 186 238 312 376 450
#     4  10  24  46  71 106 145 198 242 309 369 448
#
# _framework density 23.019560999999999
#
# number of rings (size 3 to 8) (size 9 to 14) (size 15 to 20)
#    0.750    0.000    2.500    4.500    0.000    4.500 
#    9.000    0.000    0.000    0.000    0.000    0.000 
#    0.000    0.000    0.000    0.000    0.000    0.000 
#
# Total GULP energy -178918.790099 kJ/mol
# GULP energy per Si atom -5591.212191 kJ/mol
# Density = 2.296717 g / cm^3
# Si number density = 23.019561 Si / 1000 Ang^3
#
#
#
# Elastic Constant Matrix: (Units=GPa)
#
#
# Indices 1 2 3 4 5 6 
#
# 1 133.8736 42.2576 53.6893 0.0000 0.0000 0.0000
# 2 42.2576 134.2457 52.1129 0.0000 0.0000 0.0000
# 3 53.6893 52.1129 105.8174 0.0000 0.0000 0.0000
# 4 0.0000 0.0000 0.0000 50.7078 0.0000 0.0000
# 5 0.0000 0.0000 0.0000 0.0000 11.6604 0.0000
# 6 0.0000 0.0000 0.0000 0.0000 0.0000 24.3145
#
#
#
# Elastic Compliance Matrix: (Units=1/GPa)
#
#
# Indices 1 2 3 4 5 6 
#
# 1 0.009585 -0.001396 -0.004176 0.000000 0.000000 0.000000
# 2 -0.001396 0.009413 -0.003927 0.000000 0.000000 0.000000
# 3 -0.004176 -0.003927 0.013503 0.000000 0.000000 0.000000
# 4 0.000000 0.000000 0.000000 0.019721 0.000000 0.000000
# 5 0.000000 0.000000 0.000000 0.000000 0.085760 0.000000
# 6 0.000000 0.000000 0.000000 0.000000 0.000000 0.041128
#
#
# Mechanical properties :
#
#
# Convention : Reuss Voigt Hill
#
# Bulk Modulus (GPa) = 74.05895 74.45069 74.25482
# Shear Modulus (GPa) = 24.67806 32.39502 28.53654
#
# Velocity S-wave (km/s) = 3.27777 3.75545 3.52471
# Velocity P-wave (km/s) = 6.82400 7.15661 6.99228
#
# Compressibility (1/GPa) = 0.01350276
#
# Stress axis : x y z
#
# Youngs Moduli (GPa) = 104.32899 106.23502 74.05764
#
# Poissons Ratio (x) = 0.14833 0.30924
# Poissons Ratio (y) = 0.14567 0.29085
# Poissons Ratio (z) = 0.43564 0.41722
#
# Static dielectric constant tensor:
#      x y z
#    x 1.849400 0.000000 0.000000 
#    y 0.000000 1.961710 0.000000 
#    z 0.000000 0.000000 1.857890 
# 
# From -- ./inp_files/43904.got.cif
#   From: 2010.05.17/outbox.cif.g08.bks.cpg/sg68_22_cif.got.tgz:43904.got - 2010.06.03 18:57:09.
