data_PCOD9509948
_publ_section_title
;
Structure prediction by ZEFSAII (Michael W. Deem and Ramdas Pophale) SiO2 
 PCOD9509948
Probable space group: C C C A
;
_chemical_formula_sum "Si O2"
_cell_formula_units_Z 72
_cell_length_a 23.555951
_cell_length_b 7.606265
_cell_length_c 16.669508
_cell_angle_alpha 90.000000
_cell_angle_beta 90.000000
_cell_angle_gamma 90.000000
_cell_volume 2986.722517
_symmetry_space_group_name_H-M "C C C A"
_symmetry_group_IT_number 68
_space_group.IT_coordinate_system_code '2'
_symmetry_cell_setting 'orthorhombic'
loop_
_space_group_symop_operation_xyz
x,y,z
-x,1/2-y,z
x,1/2-y,1/2-z
-x,y,1/2-z
-x,-y,-z
x,1/2+y,-z
-x,1/2+y,1/2+z
x,-y,1/2+z
1/2+x,1/2+y,z
1/2-x,-y,z
1/2+x,-y,1/2-z
1/2-x,1/2+y,1/2-z
1/2-x,1/2-y,-z
1/2+x,y,-z
1/2-x,y,1/2+z
1/2+x,1/2-y,1/2+z
loop_
_atom_site_type_symbol
_atom_site_label
_atom_site_fract_x
_atom_site_fract_y
_atom_site_fract_z
Si Si1 0.307385 0.809150 0.381764
Si Si2 0.960484 0.904835 0.936150
Si Si3 0.655203 0.329466 0.463258
Si Si4 0.369545 0.480986 0.339664
Si Si5 0.211438 0.750000 0.250000
O O1 0.300758 0.699191 0.464493
O O2 0.170568 0.002550 0.412401
O O3 0.354758 0.687070 0.340782
O O4 0.253289 0.794104 0.323939
O O5 0.000000 0.750000 0.904361
O O6 0.935905 0.018576 0.862116
O O7 0.905478 0.848571 0.990399
O O8 0.000000 0.000000 0.000000
O O9 0.652517 0.155713 0.408499
O O10 0.332336 0.408438 0.266479
#
# Coordination Sequence:
#
# PCOD9509948 Si02
#       5
#    16  16  16  16   8
#     4  11  24  46  68 110 154 212 258 323 386 472
#     4  11  19  40  74 112 139 185 254 340 392 436
#     4  11  22  44  73 110 151 189 280 326 369 487
#     4  11  25  45  67 112 151 205 266 323 387 487
#     4  12  30  48  70 107 171 222 254 310 418 476
#
# _framework density 24.106691999999999
#
# number of rings (size 3 to 8) (size 9 to 14) (size 15 to 20)
#    0.000    0.889    6.667    2.000    6.222    0.889 
#    8.000    0.000    0.000    2.667   11.556    0.000 
#    0.000    0.000    0.000    0.444    0.000    0.000 
#
# Total GULP energy -200724.721093 kJ/mol
# GULP energy per Si atom -5575.686697 kJ/mol
# Density = 2.405182 g / cm^3
# Si number density = 24.106692 Si / 1000 Ang^3
#
#
#
# Elastic Constant Matrix: (Units=GPa)
#
#
# Indices 1 2 3 4 5 6 
#
# 1 161.1727 40.9072 68.0535 0.0000 0.0000 0.0000
# 2 40.9072 146.0411 54.6718 0.0000 0.0000 0.0000
# 3 68.0535 54.6718 115.9744 0.0000 0.0000 0.0000
# 4 0.0000 0.0000 0.0000 43.0761 0.0000 0.0000
# 5 0.0000 0.0000 0.0000 0.0000 25.2487 0.0000
# 6 0.0000 0.0000 0.0000 0.0000 0.0000 53.8365
#
#
#
# Elastic Compliance Matrix: (Units=1/GPa)
#
#
# Indices 1 2 3 4 5 6 
#
# 1 0.008292 -0.000609 -0.004579 0.000000 0.000000 0.000000
# 2 -0.000609 0.008359 -0.003584 0.000000 0.000000 0.000000
# 3 -0.004579 -0.003584 0.012999 0.000000 0.000000 0.000000
# 4 0.000000 0.000000 0.000000 0.023215 0.000000 0.000000
# 5 0.000000 0.000000 0.000000 0.000000 0.039606 0.000000
# 6 0.000000 0.000000 0.000000 0.000000 0.000000 0.018575
#
#
# Mechanical properties :
#
#
# Convention : Reuss Voigt Hill
#
# Bulk Modulus (GPa) = 82.58834 83.38368 82.98601
# Shear Modulus (GPa) = 37.70025 41.73596 39.71811
#
# Velocity S-wave (km/s) = 3.95890 4.16541 4.06346
# Velocity P-wave (km/s) = 7.43176 7.60254 7.51764
#
# Compressibility (1/GPa) = 0.01210825
#
# Stress axis : x y z
#
# Youngs Moduli (GPa) = 120.59127 119.62565 76.92902
#
# Poissons Ratio (x) = 0.07280 0.35227
# Poissons Ratio (y) = 0.07339 0.27569
# Poissons Ratio (z) = 0.55220 0.42870
#
# Static dielectric constant tensor:
#      x y z
#    x 1.953080 0.000000 0.000000 
#    y 0.000000 2.070130 0.000000 
#    z 0.000000 0.000000 2.105570 
# 
# From -- ./inp_files/33436.got.cif
#   From: 2010.05.17/outbox.cif.g08.bks.cpg/sg68_17_cif.got.tgz:33436.got - 2010.06.03 18:57:09.
