data_PCOD9509358
_publ_section_title
;
Structure prediction by ZEFSAII (Michael W. Deem and Ramdas Pophale) SiO2 
 PCOD9509358
Probable space group: C C C A
;
_chemical_formula_sum "Si O2"
_cell_formula_units_Z 104
_cell_length_a 9.197928
_cell_length_b 25.247825
_cell_length_c 20.062437
_cell_angle_alpha 90.000000
_cell_angle_beta 90.000000
_cell_angle_gamma 90.000000
_cell_volume 4659.053130
_symmetry_space_group_name_H-M "C C C A"
_symmetry_group_IT_number 68
_space_group.IT_coordinate_system_code '2'
_symmetry_cell_setting 'orthorhombic'
loop_
_space_group_symop_operation_xyz
x,y,z
-x,1/2-y,z
x,1/2-y,1/2-z
-x,y,1/2-z
-x,-y,-z
x,1/2+y,-z
-x,1/2+y,1/2+z
x,-y,1/2+z
1/2+x,1/2+y,z
1/2-x,-y,z
1/2+x,-y,1/2-z
1/2-x,1/2+y,1/2-z
1/2-x,1/2-y,-z
1/2+x,y,-z
1/2-x,y,1/2+z
1/2+x,1/2-y,1/2+z
loop_
_atom_site_type_symbol
_atom_site_label
_atom_site_fract_x
_atom_site_fract_y
_atom_site_fract_z
Si Si1 0.828588 0.390405 0.617000
Si Si2 0.000000 0.853117 0.750000
Si Si3 0.303762 0.381234 0.533393
Si Si4 0.490496 0.073948 0.627556
Si Si5 0.065970 0.029788 0.934193
Si Si6 0.672718 0.265831 0.931696
Si Si7 0.217519 0.706767 0.301324
O O1 0.797057 0.365925 0.543848
O O2 0.683403 0.423759 0.634484
O O3 0.863843 0.345931 0.671812
O O4 0.956410 0.429567 0.599484
O O5 0.044532 0.890892 0.811191
O O6 0.134442 0.816713 0.729906
O O7 0.464428 0.397456 0.558450
O O8 0.203689 0.433332 0.546280
O O9 0.283220 0.327816 0.574953
O O10 0.567230 0.017354 0.620453
O O11 0.000000 0.000000 0.000000
O O12 0.500000 0.250000 0.934841
O O13 0.737969 0.236623 0.868437
O O14 0.750000 0.250000 0.000000
O O15 0.156849 0.750000 0.250000
#
# Coordination Sequence:
#
# PCOD9509358 Si02
#       7
#    16   8  16  16  16  16  16
#     4  11  22  39  66 104 139 181 230 290 348 424
#     4  10  23  44  72 100 134 190 245 286 338 434
#     4  12  23  40  66 106 138 178 233 287 353 428
#     4  11  23  41  69 101 139 183 235 286 349 420
#     4  12  24  40  67 103 150 182 222 290 369 423
#     4  12  26  41  67 102 136 174 232 298 350 403
#     4  11  22  44  71  98 135 187 235 288 346 414
#
# _framework density 22.322132
#
# number of rings (size 3 to 8) (size 9 to 14) (size 15 to 20)
#    0.000    0.615    4.615    4.846    2.154    0.000 
#    0.000    7.692    0.000    6.923    0.000    0.000 
#    0.000    0.000    0.000    0.000    0.000    0.000 
#
# Total GULP energy -290118.625000 kJ/mol
# GULP energy per Si atom -5579.204327 kJ/mol
# Density = 2.227133 g / cm^3
# Si number density = 22.322132 Si / 1000 Ang^3
#
#
#
# Elastic Constant Matrix: (Units=GPa)
#
#
# Indices 1 2 3 4 5 6 
#
# 1 57.0701 31.3384 32.8053 0.0000 0.0000 0.0000
# 2 31.3384 142.1510 57.7741 0.0000 0.0000 0.0000
# 3 32.8053 57.7741 116.1113 0.0000 0.0000 0.0000
# 4 0.0000 0.0000 0.0000 59.7595 0.0000 0.0000
# 5 0.0000 0.0000 0.0000 0.0000 26.2211 0.0000
# 6 0.0000 0.0000 0.0000 0.0000 0.0000 21.3393
#
#
#
# Elastic Compliance Matrix: (Units=1/GPa)
#
#
# Indices 1 2 3 4 5 6 
#
# 1 0.021828 -0.002890 -0.004729 0.000000 0.000000 0.000000
# 2 -0.002890 0.009201 -0.003761 0.000000 0.000000 0.000000
# 3 -0.004729 -0.003761 0.011820 0.000000 0.000000 0.000000
# 4 0.000000 0.000000 0.000000 0.016734 0.000000 0.000000
# 5 0.000000 0.000000 0.000000 0.000000 0.038137 0.000000
# 6 0.000000 0.000000 0.000000 0.000000 0.000000 0.046862
#
#
# Mechanical properties :
#
#
# Convention : Reuss Voigt Hill
#
# Bulk Modulus (GPa) = 49.78262 62.12980 55.95621
# Shear Modulus (GPa) = 28.72927 34.35826 31.54376
#
# Velocity S-wave (km/s) = 3.59141 3.92752 3.76322
# Velocity P-wave (km/s) = 6.28872 6.96139 6.63359
#
# Compressibility (1/GPa) = 0.02008733
#
# Stress axis : x y z
#
# Youngs Moduli (GPa) = 45.81338 108.68742 84.60126
#
# Poissons Ratio (x) = 0.31412 0.40008
# Poissons Ratio (y) = 0.13241 0.31823
# Poissons Ratio (z) = 0.21665 0.40883
#
# Static dielectric constant tensor:
#      x y z
#    x 1.863480 0.000000 0.000000 
#    y 0.000000 2.127550 0.000000 
#    z 0.000000 0.000000 1.856240 
# 
# From -- ./inp_files/36590.got.cif
#   From: 2010.05.17/outbox.cif.g08.bks.cpg/sg68_19_cif.got.tgz:36590.got - 2010.06.03 18:57:09.
