data_PCOD9509195
_publ_section_title
;
Structure prediction by ZEFSAII (Michael W. Deem and Ramdas Pophale) SiO2 
 PCOD9509195
Probable space group: C C C A
;
_chemical_formula_sum "Si O2"
_cell_formula_units_Z 80
_cell_length_a 21.726551
_cell_length_b 8.882255
_cell_length_c 17.006200
_cell_angle_alpha 90.000000
_cell_angle_beta 90.000000
_cell_angle_gamma 90.000000
_cell_volume 3281.869507
_symmetry_space_group_name_H-M "C C C A"
_symmetry_group_IT_number 68
_space_group.IT_coordinate_system_code '2'
_symmetry_cell_setting 'orthorhombic'
loop_
_space_group_symop_operation_xyz
x,y,z
-x,1/2-y,z
x,1/2-y,1/2-z
-x,y,1/2-z
-x,-y,-z
x,1/2+y,-z
-x,1/2+y,1/2+z
x,-y,1/2+z
1/2+x,1/2+y,z
1/2-x,-y,z
1/2+x,-y,1/2-z
1/2-x,1/2+y,1/2-z
1/2-x,1/2-y,-z
1/2+x,y,-z
1/2-x,y,1/2+z
1/2+x,1/2-y,1/2+z
loop_
_atom_site_type_symbol
_atom_site_label
_atom_site_fract_x
_atom_site_fract_y
_atom_site_fract_z
Si Si1 0.660709 0.445023 0.382625
Si Si2 0.769480 0.750000 0.250000
Si Si3 0.750000 0.000000 0.863392
Si Si4 0.113596 0.495493 0.402378
Si Si5 0.072802 0.924811 0.760336
Si Si6 0.866235 0.790738 0.520311
O O1 0.695701 0.363388 0.310578
O O2 0.597581 0.499141 0.340013
O O3 0.658608 0.323726 0.452984
O O4 0.678536 0.603063 0.426374
O O5 0.734046 0.639588 0.192492
O O6 0.812589 0.023872 0.909654
O O7 0.097363 0.524072 0.313011
O O8 0.088747 0.600832 0.471003
O O9 0.099864 0.323672 0.421731
O O10 0.093910 0.750000 0.750000
O O11 0.000000 0.924853 0.750000
#
# Coordination Sequence:
#
# PCOD9509195 Si02
#       6
#    16   8   8  16  16  16
#     4  11  21  46  65  98 134 174 227 278 338 410
#     4  12  26  42  69 100 135 182 232 278 332 408
#     4  12  26  40  70 102 134 180 236 282 334 408
#     4  11  23  45  64 102 134 184 223 283 345 405
#     4  11  23  43  72 100 132 181 236 289 343 411
#     4  10  23  41  68  93 146 173 218 285 343 411
#
# _framework density 24.376349999999999
#
# number of rings (size 3 to 8) (size 9 to 14) (size 15 to 20)
#    0.000    1.000    6.000    0.000    4.200    0.800 
#    0.000   10.500    0.000    0.000    0.000    0.000 
#    0.000    0.000    0.000    0.000    0.000    0.000 
#
# Total GULP energy -223042.796603 kJ/mol
# GULP energy per Si atom -5576.069915 kJ/mol
# Density = 2.432087 g / cm^3
# Si number density = 24.376350 Si / 1000 Ang^3
#
#
#
# Elastic Constant Matrix: (Units=GPa)
#
#
# Indices 1 2 3 4 5 6 
#
# 1 52.0852 8.5172 22.7559 0.0000 0.0000 0.0000
# 2 8.5172 147.6195 44.2792 0.0000 0.0000 0.0000
# 3 22.7559 44.2792 159.1073 0.0000 0.0000 0.0000
# 4 0.0000 0.0000 0.0000 68.1218 0.0000 0.0000
# 5 0.0000 0.0000 0.0000 0.0000 5.5738 0.0000
# 6 0.0000 0.0000 0.0000 0.0000 0.0000 17.1738
#
#
#
# Elastic Compliance Matrix: (Units=1/GPa)
#
#
# Indices 1 2 3 4 5 6 
#
# 1 0.020494 -0.000331 -0.002839 0.000000 0.000000 0.000000
# 2 -0.000331 0.007397 -0.002011 0.000000 0.000000 0.000000
# 3 -0.002839 -0.002011 0.007251 0.000000 0.000000 0.000000
# 4 0.000000 0.000000 0.000000 0.014680 0.000000 0.000000
# 5 0.000000 0.000000 0.000000 0.000000 0.179411 0.000000
# 6 0.000000 0.000000 0.000000 0.000000 0.000000 0.058228
#
#
# Mechanical properties :
#
#
# Convention : Reuss Voigt Hill
#
# Bulk Modulus (GPa) = 40.35649 56.65738 48.50694
# Shear Modulus (GPa) = 16.33552 37.05786 26.69669
#
# Velocity S-wave (km/s) = 2.59151 3.90325 3.31295
# Velocity P-wave (km/s) = 5.05432 6.60357 5.88019
#
# Compressibility (1/GPa) = 0.02477916
#
# Stress axis : x y z
#
# Youngs Moduli (GPa) = 48.79530 135.19903 137.91600
#
# Poissons Ratio (x) = 0.04473 0.39154
# Poissons Ratio (y) = 0.01614 0.27736
# Poissons Ratio (z) = 0.13853 0.27190
#
# Static dielectric constant tensor:
#      x y z
#    x 1.919960 0.000000 0.000000 
#    y 0.000000 2.017150 0.000000 
#    z 0.000000 0.000000 1.930110 
# 
# From -- ./inp_files/33999.got.cif
#   From: 2010.05.17/outbox.cif.g08.bks.cpg/sg68_17_cif.got.tgz:33999.got - 2010.06.03 18:57:09.
