data_PCOD9509791
_publ_section_title
;
Structure prediction by ZEFSAII (Michael W. Deem and Ramdas Pophale) SiO2 
 PCOD9509791
Probable space group: C C C A
;
_chemical_formula_sum "Si O2"
_cell_formula_units_Z 56
_cell_length_a 21.184383
_cell_length_b 4.806026
_cell_length_c 22.153305
_cell_angle_alpha 90.000000
_cell_angle_beta 90.000000
_cell_angle_gamma 90.000000
_cell_volume 2255.487696
_symmetry_space_group_name_H-M "C C C A"
_symmetry_group_IT_number 68
_space_group.IT_coordinate_system_code '2'
_symmetry_cell_setting 'orthorhombic'
loop_
_space_group_symop_operation_xyz
x,y,z
-x,1/2-y,z
x,1/2-y,1/2-z
-x,y,1/2-z
-x,-y,-z
x,1/2+y,-z
-x,1/2+y,1/2+z
x,-y,1/2+z
1/2+x,1/2+y,z
1/2-x,-y,z
1/2+x,-y,1/2-z
1/2-x,1/2+y,1/2-z
1/2-x,1/2-y,-z
1/2+x,y,-z
1/2-x,y,1/2+z
1/2+x,1/2-y,1/2+z
loop_
_atom_site_type_symbol
_atom_site_label
_atom_site_fract_x
_atom_site_fract_y
_atom_site_fract_z
Si Si1 0.589252 0.487735 0.294144
Si Si2 0.000000 0.250000 0.609709
Si Si3 0.385067 0.011903 0.539605
Si Si4 0.792194 0.745536 0.137010
O O1 0.592341 0.750000 0.250000
O O2 0.540766 0.465519 0.349640
O O3 0.657015 0.392420 0.319645
O O4 0.567215 0.250000 0.250000
O O5 0.049329 0.076678 0.569993
O O6 0.380543 0.832606 0.478133
O O7 0.330466 0.913877 0.584714
O O8 0.750000 0.500000 0.166532
O O9 0.750000 0.000000 0.113470
#
# Coordination Sequence:
#
# PCOD9509791 Si02
#       4
#    16   8  16  16
#     4  11  25  44  68  97 133 180 230 284 343 403
#     4  10  25  44  68 100 138 178 231 286 342 412
#     4  11  24  42  68 100 136 179 224 279 345 411
#     4  11  24  43  67  98 136 177 229 286 340 408
#
# _framework density 24.828333000000001
#
# number of rings (size 3 to 8) (size 9 to 14) (size 15 to 20)
#    0.000    1.143    0.000    4.714    0.000   17.143 
#    0.000    0.000    0.000    0.000    0.000    0.000 
#    0.000    0.000    0.000    0.000    0.000    0.000 
#
# Total GULP energy -156974.772854 kJ/mol
# GULP energy per Si atom -5606.241888 kJ/mol
# Density = 2.477182 g / cm^3
# Si number density = 24.828333 Si / 1000 Ang^3
#
#
#
# Elastic Constant Matrix: (Units=GPa)
#
#
# Indices 1 2 3 4 5 6 
#
# 1 147.5127 44.3671 41.6046 0.0000 0.0000 0.0000
# 2 44.3671 136.1106 31.3224 0.0000 0.0000 0.0000
# 3 41.6046 31.3224 88.1844 0.0000 0.0000 0.0000
# 4 0.0000 0.0000 0.0000 42.1654 0.0000 0.0000
# 5 0.0000 0.0000 0.0000 0.0000 7.7515 0.0000
# 6 0.0000 0.0000 0.0000 0.0000 0.0000 28.3261
#
#
#
# Elastic Compliance Matrix: (Units=1/GPa)
#
#
# Indices 1 2 3 4 5 6 
#
# 1 0.008273 -0.001959 -0.003207 0.000000 0.000000 0.000000
# 2 -0.001959 0.008465 -0.002083 0.000000 0.000000 0.000000
# 3 -0.003207 -0.002083 0.013593 0.000000 0.000000 0.000000
# 4 0.000000 0.000000 0.000000 0.023716 0.000000 0.000000
# 5 0.000000 0.000000 0.000000 0.000000 0.129007 0.000000
# 6 0.000000 0.000000 0.000000 0.000000 0.000000 0.035303
#
#
# Mechanical properties :
#
#
# Convention : Reuss Voigt Hill
#
# Bulk Modulus (GPa) = 63.15808 67.37732 65.26770
# Shear Modulus (GPa) = 20.99681 32.61617 26.80649
#
# Velocity S-wave (km/s) = 2.91121 3.62839 3.28940
# Velocity P-wave (km/s) = 6.06575 6.68953 6.38526
#
# Compressibility (1/GPa) = 0.01583329
#
# Stress axis : x y z
#
# Youngs Moduli (GPa) = 120.87891 118.13878 73.56846
#
# Poissons Ratio (x) = 0.23138 0.23596
# Poissons Ratio (y) = 0.23674 0.15321
# Poissons Ratio (z) = 0.38770 0.24603
#
# Static dielectric constant tensor:
#      x y z
#    x 2.009710 0.000000 0.000000 
#    y 0.000000 1.892800 0.000000 
#    z 0.000000 0.000000 1.916940 
# 
# From -- ./inp_files/46266.got.cif
#   From: 2010.05.17/outbox.cif.g08.bks.cpg/sg68_24_cif.got.tgz:46266.got - 2010.06.03 18:57:09.
