data_PCOD9509190
_publ_section_title
;
Structure prediction by ZEFSAII (Michael W. Deem and Ramdas Pophale) SiO2 
 PCOD9509190
Probable space group: C C C A
;
_chemical_formula_sum "Si O2"
_cell_formula_units_Z 108
_cell_length_a 23.570807
_cell_length_b 14.695017
_cell_length_c 14.803390
_cell_angle_alpha 90.000000
_cell_angle_beta 90.000000
_cell_angle_gamma 90.000000
_cell_volume 5127.500667
_symmetry_space_group_name_H-M "C C C A"
_symmetry_group_IT_number 68
_space_group.IT_coordinate_system_code '2'
_symmetry_cell_setting 'orthorhombic'
loop_
_space_group_symop_operation_xyz
x,y,z
-x,1/2-y,z
x,1/2-y,1/2-z
-x,y,1/2-z
-x,-y,-z
x,1/2+y,-z
-x,1/2+y,1/2+z
x,-y,1/2+z
1/2+x,1/2+y,z
1/2-x,-y,z
1/2+x,-y,1/2-z
1/2-x,1/2+y,1/2-z
1/2-x,1/2-y,-z
1/2+x,y,-z
1/2-x,y,1/2+z
1/2+x,1/2-y,1/2+z
loop_
_atom_site_type_symbol
_atom_site_label
_atom_site_fract_x
_atom_site_fract_y
_atom_site_fract_z
Si Si1 0.252471 0.250000 0.250000
Si Si2 0.527779 0.629328 0.408953
Si Si3 0.195502 0.725156 0.559681
Si Si4 0.599738 0.449934 0.385942
Si Si5 0.500000 0.250000 0.750000
Si Si6 0.685192 0.971258 0.978705
Si Si7 0.191952 0.444608 0.768779
Si Si8 0.079071 0.799738 0.504162
O O1 0.214186 0.230914 0.337153
O O2 0.290459 0.161143 0.233815
O O3 0.552935 0.529382 0.396561
O O4 0.535949 0.685202 0.315822
O O5 0.461290 0.636778 0.433384
O O6 0.554925 0.696328 0.485057
O O7 0.250000 0.750000 0.500000
O O8 0.178123 0.625624 0.526799
O O9 0.142572 0.789227 0.540334
O O10 0.642211 0.465272 0.469410
O O11 0.639333 0.460610 0.298163
O O12 0.577487 0.347978 0.406194
O O13 0.676409 0.968617 0.871584
O O14 0.750000 0.000000 0.993586
O O15 0.250000 0.500000 0.744024
#
# Coordination Sequence:
#
# PCOD9509190 Si02
#       8
#     8  16  16  16   4  16  16  16
#     4  12  24  39  66  93 144 183 232 267 350 432
#     4  10  23  44  68 100 131 181 233 295 353 406
#     4  12  22  40  65  98 135 183 225 279 350 414
#     4  12  23  42  70  97 135 177 232 290 346 422
#     4   8  20  42  68  96 140 152 240 294 344 414
#     4  11  23  42  62  96 143 176 229 284 347 426
#     4  11  26  41  61 101 138 183 223 282 352 430
#     4  10  23  41  66  97 132 180 226 288 353 410
#
# _framework density 21.062892999999999
#
# number of rings (size 3 to 8) (size 9 to 14) (size 15 to 20)
#    0.000    1.185    2.963    4.444    2.074    4.741 
#    0.000    0.000    0.000    0.000    3.852    0.000 
#    0.000    0.000    0.000    0.000    0.000    0.000 
#
# Total GULP energy -301579.427742 kJ/mol
# GULP energy per Si atom -5584.804217 kJ/mol
# Density = 2.101495 g / cm^3
# Si number density = 21.062893 Si / 1000 Ang^3
#
#
#
# Elastic Constant Matrix: (Units=GPa)
#
#
# Indices 1 2 3 4 5 6 
#
# 1 105.7324 19.4145 42.5217 0.0000 0.0000 0.0000
# 2 19.4145 82.4674 29.4594 0.0000 0.0000 0.0000
# 3 42.5217 29.4594 105.8327 0.0000 0.0000 0.0000
# 4 0.0000 0.0000 0.0000 13.2057 0.0000 0.0000
# 5 0.0000 0.0000 0.0000 0.0000 22.5034 0.0000
# 6 0.0000 0.0000 0.0000 0.0000 0.0000 -149.0602
#
#
#
# Elastic Compliance Matrix: (Units=1/GPa)
#
#
# Indices 1 2 3 4 5 6 
#
# 1 0.011380 -0.001161 -0.004249 0.000000 0.000000 0.000000
# 2 -0.001161 0.013583 -0.003314 0.000000 0.000000 0.000000
# 3 -0.004249 -0.003314 0.012079 0.000000 0.000000 0.000000
# 4 0.000000 0.000000 0.000000 0.075725 0.000000 0.000000
# 5 0.000000 0.000000 0.000000 0.000000 0.044438 0.000000
# 6 0.000000 0.000000 0.000000 0.000000 0.000000 -0.006709
#
#
# Mechanical properties :
#
#
# Convention : Reuss Voigt Hill
#
# Bulk Modulus (GPa) = 51.03987 52.98039 52.01013
# Shear Modulus (GPa) = 28.65720 -9.16111 9.74805
#
# Velocity S-wave (km/s) = 3.69257 -2.08779 2.15363
# Velocity P-wave (km/s) = 6.51650 4.40412 5.56152
#
# Compressibility (1/GPa) = 0.01959253
#
# Stress axis : x y z
#
# Youngs Moduli (GPa) = 87.87467 73.61928 82.79065
#
# Poissons Ratio (x) = 0.08549 0.35178
# Poissons Ratio (y) = 0.10204 0.27441
# Poissons Ratio (z) = 0.37338 0.24401
#
# Static dielectric constant tensor:
#      x y z
#    x 1.870910 0.000000 0.000000 
#    y 0.000000 1.587210 0.000000 
#    z 0.000000 0.000000 1.774150 
# 
# From -- ./inp_files/25500.got.cif
#   From: 2010.05.17/outbox.cif.g08.bks.cpg/sg68_13_cif.got.tgz:25500.got - 2010.06.03 18:57:09.
