data_PCOD9509020
_publ_section_title
;
Structure prediction by ZEFSAII (Michael W. Deem and Ramdas Pophale) SiO2 
 PCOD9509020
Probable space group: C C C A
;
_chemical_formula_sum "Si O2"
_cell_formula_units_Z 40
_cell_length_a 7.380560
_cell_length_b 11.456082
_cell_length_c 20.054034
_cell_angle_alpha 90.000000
_cell_angle_beta 90.000000
_cell_angle_gamma 90.000000
_cell_volume 1695.614710
_symmetry_space_group_name_H-M "C C C A"
_symmetry_group_IT_number 68
_space_group.IT_coordinate_system_code '2'
_symmetry_cell_setting 'orthorhombic'
loop_
_space_group_symop_operation_xyz
x,y,z
-x,1/2-y,z
x,1/2-y,1/2-z
-x,y,1/2-z
-x,-y,-z
x,1/2+y,-z
-x,1/2+y,1/2+z
x,-y,1/2+z
1/2+x,1/2+y,z
1/2-x,-y,z
1/2+x,-y,1/2-z
1/2-x,1/2+y,1/2-z
1/2-x,1/2-y,-z
1/2+x,y,-z
1/2-x,y,1/2+z
1/2+x,1/2-y,1/2+z
loop_
_atom_site_type_symbol
_atom_site_label
_atom_site_fract_x
_atom_site_fract_y
_atom_site_fract_z
Si Si1 0.342862 0.122954 0.195417
Si Si2 0.538477 0.994663 0.078222
Si Si3 0.500000 0.250000 0.646986
O O1 0.500000 0.138653 0.250000
O O2 0.434696 0.090148 0.123612
O O3 0.190314 0.223826 0.185457
O O4 0.250000 0.000000 0.215973
O O5 0.750000 0.000000 0.090442
O O6 0.495894 0.865601 0.103384
O O7 0.500000 0.000000 0.000000
#
# Coordination Sequence:
#
# PCOD9509020 Si02
#       3
#    16  16   8
#     4  10  22  45  71 103 147 189 243 305 363 440
#     4  11  24  44  71 104 143 187 243 306 361 434
#     4  10  24  46  73 104 141 194 242 292 376 438
#
# _framework density 23.590264999999999
#
# number of rings (size 3 to 8) (size 9 to 14) (size 15 to 20)
#    0.000    1.600    0.000    4.800    0.000    8.000 
#    0.000   54.000    0.000    0.000    0.000    0.000 
#    0.000    0.000    0.000    0.000    0.000    0.000 
#
# Total GULP energy -111717.506828 kJ/mol
# GULP energy per Si atom -5585.875341 kJ/mol
# Density = 2.353657 g / cm^3
# Si number density = 23.590265 Si / 1000 Ang^3
#
#
#
# Elastic Constant Matrix: (Units=GPa)
#
#
# Indices 1 2 3 4 5 6 
#
# 1 199.0277 50.7805 92.3767 0.0000 0.0000 0.0000
# 2 50.7805 73.6633 70.4641 0.0000 0.0000 0.0000
# 3 92.3767 70.4641 225.9383 0.0000 0.0000 0.0000
# 4 0.0000 0.0000 0.0000 -27.4448 0.0000 0.0000
# 5 0.0000 0.0000 0.0000 0.0000 56.8003 0.0000
# 6 0.0000 0.0000 0.0000 0.0000 0.0000 69.2289
#
#
#
# Elastic Compliance Matrix: (Units=1/GPa)
#
#
# Indices 1 2 3 4 5 6 
#
# 1 0.006582 -0.002798 -0.001819 0.000000 0.000000 0.000000
# 2 -0.002798 0.020536 -0.005261 0.000000 0.000000 0.000000
# 3 -0.001819 -0.005261 0.006810 0.000000 0.000000 0.000000
# 4 0.000000 0.000000 0.000000 -0.036437 0.000000 0.000000
# 5 0.000000 0.000000 0.000000 0.000000 0.017606 0.000000
# 6 0.000000 0.000000 0.000000 0.000000 0.000000 0.014445
#
#
# Mechanical properties :
#
#
# Convention : Reuss Voigt Hill
#
# Bulk Modulus (GPa) = 70.55055 102.87467 86.71261
# Shear Modulus (GPa) = 92.55461 38.71742 65.63602
#
# Velocity S-wave (km/s) = 6.27052 4.05562 5.28051
# Velocity P-wave (km/s) = 9.07730 8.10151 8.60325
#
# Compressibility (1/GPa) = 0.01417423
#
# Stress axis : x y z
#
# Youngs Moduli (GPa) = 151.91969 48.69408 146.83741
#
# Poissons Ratio (x) = 0.13625 0.26705
# Poissons Ratio (y) = 0.42507 0.77248
# Poissons Ratio (z) = 0.27629 0.25617
#
# Static dielectric constant tensor:
#      x y z
#    x 1.981640 0.000000 0.000000 
#    y 0.000000 1.948430 0.000000 
#    z 0.000000 0.000000 1.915210 
# 
# From -- ./inp_files/27276.got.cif
#   From: 2010.05.17/outbox.cif.g08.bks.cpg/sg68_14_cif.got.tgz:27276.got - 2010.06.03 18:57:09.
