data_PCOD9509089
_publ_section_title
;
Structure prediction by ZEFSAII (Michael W. Deem and Ramdas Pophale) SiO2 
 PCOD9509089
Probable space group: C C C A
;
_chemical_formula_sum "Si O2"
_cell_formula_units_Z 120
_cell_length_a 13.763181
_cell_length_b 26.955525
_cell_length_c 19.928315
_cell_angle_alpha 90.000000
_cell_angle_beta 90.000000
_cell_angle_gamma 90.000000
_cell_volume 7393.280702
_symmetry_space_group_name_H-M "C C C A"
_symmetry_group_IT_number 68
_space_group.IT_coordinate_system_code '2'
_symmetry_cell_setting 'orthorhombic'
loop_
_space_group_symop_operation_xyz
x,y,z
-x,1/2-y,z
x,1/2-y,1/2-z
-x,y,1/2-z
-x,-y,-z
x,1/2+y,-z
-x,1/2+y,1/2+z
x,-y,1/2+z
1/2+x,1/2+y,z
1/2-x,-y,z
1/2+x,-y,1/2-z
1/2-x,1/2+y,1/2-z
1/2-x,1/2-y,-z
1/2+x,y,-z
1/2-x,y,1/2+z
1/2+x,1/2-y,1/2+z
loop_
_atom_site_type_symbol
_atom_site_label
_atom_site_fract_x
_atom_site_fract_y
_atom_site_fract_z
Si Si1 0.892546 0.809339 0.166319
Si Si2 0.962971 0.971362 0.379694
Si Si3 0.839270 0.411101 0.903225
Si Si4 0.500000 0.035361 0.750000
Si Si5 0.332731 0.457924 0.954137
Si Si6 0.215756 0.400653 0.848798
Si Si7 0.377035 0.802675 0.672492
Si Si8 0.787370 0.055913 0.214384
O O1 0.852011 0.854770 0.122797
O O2 0.872402 0.811105 0.246637
O O3 0.856599 0.753647 0.150286
O O4 0.009191 0.811452 0.157139
O O5 0.879157 0.930390 0.373247
O O6 0.065537 0.943902 0.385403
O O7 0.929960 0.010942 0.436494
O O8 0.964500 0.001325 0.310700
O O9 0.749209 0.431668 0.859994
O O10 0.830584 0.421977 0.981987
O O11 0.402789 0.062225 0.776122
O O12 0.250000 0.500000 0.963758
O O13 0.303631 0.425133 0.889693
O O14 0.193261 0.343152 0.859667
O O15 0.234166 0.411138 0.770448
O O16 0.750000 0.000000 0.228473
#
# Coordination Sequence:
#
# PCOD9509089 Si02
#       8
#    16  16  16   8  16  16  16  16
#     4   9  18  30  52  83 107 124 170 224 280 324
#     4  11  20  32  54  75 112 144 180 216 266 315
#     4  12  21  34  53  78 106 147 183 219 264 328
#     4  12  22  34  50  80 106 142 184 230 256 300
#     4  10  23  36  46  75 118 150 182 212 262 325
#     4  11  18  35  53  76 104 145 173 217 271 321
#     4   9  17  31  52  82 107 127 161 230 285 319
#     4  12  21  32  52  77 107 137 185 223 251 320
#
# _framework density 16.230955000000002
#
# number of rings (size 3 to 8) (size 9 to 14) (size 15 to 20)
#    0.000    1.333    6.667    2.000    0.000    0.000 
#    0.000    0.667    0.000    0.000    0.000    1.867 
#    0.000    0.000    0.000    0.000    0.000    0.000 
#
# Total GULP energy -334255.214637 kJ/mol
# GULP energy per Si atom -5570.920244 kJ/mol
# Density = 1.619401 g / cm^3
# Si number density = 16.230955 Si / 1000 Ang^3
#
#
#
# Elastic Constant Matrix: (Units=GPa)
#
#
# Indices 1 2 3 4 5 6 
#
# 1 57.7699 25.0790 3.5728 0.0000 0.0000 0.0000
# 2 25.0790 115.8287 24.5938 0.0000 0.0000 0.0000
# 3 3.5728 24.5938 63.3007 0.0000 0.0000 0.0000
# 4 0.0000 0.0000 0.0000 65.3934 0.0000 0.0000
# 5 0.0000 0.0000 0.0000 0.0000 12.7049 0.0000
# 6 0.0000 0.0000 0.0000 0.0000 0.0000 52.5633
#
#
#
# Elastic Compliance Matrix: (Units=1/GPa)
#
#
# Indices 1 2 3 4 5 6 
#
# 1 0.019125 -0.004263 0.000577 0.000000 0.000000 0.000000
# 2 -0.004263 0.010360 -0.003785 0.000000 0.000000 0.000000
# 3 0.000577 -0.003785 0.017235 0.000000 0.000000 0.000000
# 4 0.000000 0.000000 0.000000 0.015292 0.000000 0.000000
# 5 0.000000 0.000000 0.000000 0.000000 0.078710 0.000000
# 6 0.000000 0.000000 0.000000 0.000000 0.000000 0.019025
#
#
# Mechanical properties :
#
#
# Convention : Reuss Voigt Hill
#
# Bulk Modulus (GPa) = 31.46750 38.15449 34.81099
# Shear Modulus (GPa) = 26.98591 38.37592 32.68091
#
# Velocity S-wave (km/s) = 4.08195 4.86775 4.49206
# Velocity P-wave (km/s) = 6.45336 7.42641 6.95692
#
# Compressibility (1/GPa) = 0.03177882
#
# Stress axis : x y z
#
# Youngs Moduli (GPa) = 52.28698 96.52401 58.02006
#
# Poissons Ratio (x) = 0.41153 -0.03348
# Poissons Ratio (y) = 0.22292 0.21958
# Poissons Ratio (z) = -0.03017 0.36530
#
# Static dielectric constant tensor:
#      x y z
#    x 1.564500 0.000000 0.000000 
#    y 0.000000 1.554870 0.000000 
#    z 0.000000 0.000000 1.529990 
# 
# From -- ./inp_files/37993.got.cif
#   From: 2010.05.17/outbox.cif.g08.bks.cpg/sg68_19_cif.got.tgz:37993.got - 2010.06.03 18:57:09.
