data_PCOD9509730
_publ_section_title
;
Structure prediction by ZEFSAII (Michael W. Deem and Ramdas Pophale) SiO2 
 PCOD9509730
Probable space group: C C C A
;
_chemical_formula_sum "Si O2"
_cell_formula_units_Z 72
_cell_length_a 15.096308
_cell_length_b 17.159103
_cell_length_c 13.453334
_cell_angle_alpha 90.000000
_cell_angle_beta 90.000000
_cell_angle_gamma 90.000000
_cell_volume 3484.939584
_symmetry_space_group_name_H-M "C C C A"
_symmetry_group_IT_number 68
_space_group.IT_coordinate_system_code '2'
_symmetry_cell_setting 'orthorhombic'
loop_
_space_group_symop_operation_xyz
x,y,z
-x,1/2-y,z
x,1/2-y,1/2-z
-x,y,1/2-z
-x,-y,-z
x,1/2+y,-z
-x,1/2+y,1/2+z
x,-y,1/2+z
1/2+x,1/2+y,z
1/2-x,-y,z
1/2+x,-y,1/2-z
1/2-x,1/2+y,1/2-z
1/2-x,1/2-y,-z
1/2+x,y,-z
1/2-x,y,1/2+z
1/2+x,1/2-y,1/2+z
loop_
_atom_site_type_symbol
_atom_site_label
_atom_site_fract_x
_atom_site_fract_y
_atom_site_fract_z
Si Si1 0.663770 0.647525 0.641027
Si Si2 0.750000 0.000000 0.464721
Si Si3 0.793998 0.250000 0.250000
Si Si4 0.078220 0.519189 0.576242
Si Si5 0.000000 0.924094 0.250000
Si Si6 0.906111 0.794635 0.557619
O O1 0.712875 0.571161 0.599275
O O2 0.726948 0.680193 0.726060
O O3 0.567666 0.626116 0.684407
O O4 0.646723 0.705585 0.547534
O O5 0.832928 0.019619 0.534021
O O6 0.852889 0.260753 0.348467
O O7 0.083703 0.612807 0.579791
O O8 0.000000 0.500000 0.500000
O O9 0.056462 0.480332 0.680026
O O10 0.000000 0.750000 0.548343
#
# Coordination Sequence:
#
# PCOD9509730 Si02
#       6
#    16   8   8  16   8  16
#     4  11  28  45  73 104 142 187 237 292 353 428
#     4  10  24  48  72 104 140 186 228 306 342 420
#     4  12  29  43  74 104 142 190 234 289 355 432
#     4  11  25  47  73 105 141 183 240 295 356 416
#     4  12  26  43  77 104 138 192 238 298 354 419
#     4  11  27  48  70 103 144 188 227 298 352 429
#
# _framework density 20.660329000000001
#
# number of rings (size 3 to 8) (size 9 to 14) (size 15 to 20)
#    0.000    0.889    4.444    1.000   18.667    0.000 
#    0.000    0.000    0.000    0.000    0.000    0.000 
#    0.000    0.000    0.000    0.000    0.000    0.000 
#
# Total GULP energy -201213.866801 kJ/mol
# GULP energy per Si atom -5589.274078 kJ/mol
# Density = 2.061331 g / cm^3
# Si number density = 20.660329 Si / 1000 Ang^3
#
#
#
# Elastic Constant Matrix: (Units=GPa)
#
#
# Indices 1 2 3 4 5 6 
#
# 1 135.2979 21.4904 35.9836 0.0000 0.0000 0.0000
# 2 21.4904 37.4494 6.6201 0.0000 0.0000 0.0000
# 3 35.9836 6.6201 79.9441 0.0000 0.0000 0.0000
# 4 0.0000 0.0000 0.0000 28.3401 0.0000 0.0000
# 5 0.0000 0.0000 0.0000 0.0000 43.6101 0.0000
# 6 0.0000 0.0000 0.0000 0.0000 0.0000 24.4478
#
#
#
# Elastic Compliance Matrix: (Units=1/GPa)
#
#
# Indices 1 2 3 4 5 6 
#
# 1 0.009106 -0.004568 -0.003721 0.000000 0.000000 0.000000
# 2 -0.004568 0.029391 -0.000378 0.000000 0.000000 0.000000
# 3 -0.003721 -0.000378 0.014215 0.000000 0.000000 0.000000
# 4 0.000000 0.000000 0.000000 0.035286 0.000000 0.000000
# 5 0.000000 0.000000 0.000000 0.000000 0.022930 0.000000
# 6 0.000000 0.000000 0.000000 0.000000 0.000000 0.040904
#
#
# Mechanical properties :
#
#
# Convention : Reuss Voigt Hill
#
# Bulk Modulus (GPa) = 28.26515 42.31996 35.29256
# Shear Modulus (GPa) = 27.63092 31.85274 29.74183
#
# Velocity S-wave (km/s) = 3.66100 3.93075 3.79827
# Velocity P-wave (km/s) = 5.61971 6.41321 6.02953
#
# Compressibility (1/GPa) = 0.03537926
#
# Stress axis : x y z
#
# Youngs Moduli (GPa) = 109.81594 34.02425 70.34989
#
# Poissons Ratio (x) = 0.15542 0.26174
# Poissons Ratio (y) = 0.50163 0.02658
# Poissons Ratio (z) = 0.40857 0.01285
#
# Static dielectric constant tensor:
#      x y z
#    x 1.706460 0.000000 0.000000 
#    y 0.000000 1.716420 0.000000 
#    z 0.000000 0.000000 1.725420 
# 
# From -- ./inp_files/22056.got.cif
#   From: 2010.05.17/outbox.cif.g08.bks.cpg/sg68_12_cif.got.tgz:22056.got - 2010.06.03 18:57:09.
