data_PCOD9509620
_publ_section_title
;
Structure prediction by ZEFSAII (Michael W. Deem and Ramdas Pophale) SiO2 
 PCOD9509620
Probable space group: C C C A
;
_chemical_formula_sum "Si O2"
_cell_formula_units_Z 56
_cell_length_a 25.804639
_cell_length_b 9.811246
_cell_length_c 9.178308
_cell_angle_alpha 90.000000
_cell_angle_beta 90.000000
_cell_angle_gamma 90.000000
_cell_volume 2323.724196
_symmetry_space_group_name_H-M "C C C A"
_symmetry_group_IT_number 68
_space_group.IT_coordinate_system_code '2'
_symmetry_cell_setting 'orthorhombic'
loop_
_space_group_symop_operation_xyz
x,y,z
-x,1/2-y,z
x,1/2-y,1/2-z
-x,y,1/2-z
-x,-y,-z
x,1/2+y,-z
-x,1/2+y,1/2+z
x,-y,1/2+z
1/2+x,1/2+y,z
1/2-x,-y,z
1/2+x,-y,1/2-z
1/2-x,1/2+y,1/2-z
1/2-x,1/2-y,-z
1/2+x,y,-z
1/2-x,y,1/2+z
1/2+x,1/2-y,1/2+z
loop_
_atom_site_type_symbol
_atom_site_label
_atom_site_fract_x
_atom_site_fract_y
_atom_site_fract_z
Si Si1 0.464210 0.087462 0.606954
Si Si2 0.203781 0.339538 0.935475
Si Si3 0.750000 0.000000 0.170264
Si Si4 0.586572 0.809682 0.903160
O O1 0.500000 0.103393 0.750000
O O2 0.443015 0.226123 0.531794
O O3 0.500000 0.000000 0.500000
O O4 0.418553 0.973732 0.619089
O O5 0.223765 0.395518 0.782089
O O6 0.147075 0.278976 0.924718
O O7 0.250000 0.250000 0.000000
O O8 0.204275 0.454701 0.061357
O O9 0.566950 0.750000 0.750000
#
# Coordination Sequence:
#
# PCOD9509620 Si02
#       4
#    16  16   8  16
#     4  12  28  54  79 114 155 202 264 336 395 467
#     4  11  25  47  74 114 157 204 255 322 385 481
#     4  10  24  44  74 106 170 196 256 314 392 450
#     4  12  28  50  85 116 156 208 265 323 411 473
#
# _framework density 24.099246999999998
#
# number of rings (size 3 to 8) (size 9 to 14) (size 15 to 20)
#    0.000    0.571    2.857    3.429   12.000    2.286 
#    5.143    0.000    0.000    0.000    0.000    0.000 
#    0.000    0.000    0.000    0.000    0.000    0.000 
#
# Total GULP energy -156384.313567 kJ/mol
# GULP energy per Si atom -5585.154056 kJ/mol
# Density = 2.404440 g / cm^3
# Si number density = 24.099247 Si / 1000 Ang^3
#
#
#
# Elastic Constant Matrix: (Units=GPa)
#
#
# Indices 1 2 3 4 5 6 
#
# 1 134.2037 34.5150 46.3462 0.0000 0.0000 0.0000
# 2 34.5150 136.0937 56.4316 0.0000 0.0000 0.0000
# 3 46.3462 56.4316 195.8188 0.0000 0.0000 0.0000
# 4 0.0000 0.0000 0.0000 48.4844 0.0000 0.0000
# 5 0.0000 0.0000 0.0000 0.0000 27.6106 0.0000
# 6 0.0000 0.0000 0.0000 0.0000 0.0000 38.2527
#
#
#
# Elastic Compliance Matrix: (Units=1/GPa)
#
#
# Indices 1 2 3 4 5 6 
#
# 1 0.008368 -0.001478 -0.001555 0.000000 0.000000 0.000000
# 2 -0.001478 0.008606 -0.002130 0.000000 0.000000 0.000000
# 3 -0.001555 -0.002130 0.006089 0.000000 0.000000 0.000000
# 4 0.000000 0.000000 0.000000 0.020625 0.000000 0.000000
# 5 0.000000 0.000000 0.000000 0.000000 0.036218 0.000000
# 6 0.000000 0.000000 0.000000 0.000000 0.000000 0.026142
#
#
# Mechanical properties :
#
#
# Convention : Reuss Voigt Hill
#
# Bulk Modulus (GPa) = 78.50871 82.30021 80.40446
# Shear Modulus (GPa) = 41.45271 44.79111 43.12191
#
# Velocity S-wave (km/s) = 4.15189 4.31584 4.23466
# Velocity P-wave (km/s) = 7.45870 7.68505 7.57272
#
# Compressibility (1/GPa) = 0.01273744
#
# Stress axis : x y z
#
# Youngs Moduli (GPa) = 119.49848 116.19824 164.23913
#
# Poissons Ratio (x) = 0.17170 0.25536
# Poissons Ratio (y) = 0.17657 0.34989
# Poissons Ratio (z) = 0.18579 0.24755
#
# Static dielectric constant tensor:
#      x y z
#    x 1.991840 0.000000 0.000000 
#    y 0.000000 2.365930 0.000000 
#    z 0.000000 0.000000 1.989800 
# 
# From -- ./inp_files/8515.got.cif
#   From: 2010.05.17/outbox.cif.g08.bks.cpg/sg68_5_cif.got.tgz:8515.got - 2010.06.03 18:57:09.
