data_PCOD9509486
_publ_section_title
;
Structure prediction by ZEFSAII (Michael W. Deem and Ramdas Pophale) SiO2 
 PCOD9509486
Probable space group: C C C A
;
_chemical_formula_sum "Si O2"
_cell_formula_units_Z 100
_cell_length_a 10.420021
_cell_length_b 19.666029
_cell_length_c 26.885521
_cell_angle_alpha 90.000000
_cell_angle_beta 90.000000
_cell_angle_gamma 90.000000
_cell_volume 5509.392663
_symmetry_space_group_name_H-M "C C C A"
_symmetry_group_IT_number 68
_space_group.IT_coordinate_system_code '2'
_symmetry_cell_setting 'orthorhombic'
loop_
_space_group_symop_operation_xyz
x,y,z
-x,1/2-y,z
x,1/2-y,1/2-z
-x,y,1/2-z
-x,-y,-z
x,1/2+y,-z
-x,1/2+y,1/2+z
x,-y,1/2+z
1/2+x,1/2+y,z
1/2-x,-y,z
1/2+x,-y,1/2-z
1/2-x,1/2+y,1/2-z
1/2-x,1/2-y,-z
1/2+x,y,-z
1/2-x,y,1/2+z
1/2+x,1/2-y,1/2+z
loop_
_atom_site_type_symbol
_atom_site_label
_atom_site_fract_x
_atom_site_fract_y
_atom_site_fract_z
Si Si1 0.359032 0.052931 0.185604
Si Si2 0.260016 0.829958 0.618589
Si Si3 0.482825 0.832797 0.417419
Si Si4 0.648348 0.556993 0.805404
Si Si5 0.807014 0.686057 0.830491
Si Si6 0.625349 0.204137 0.484192
Si Si7 0.500000 0.750000 0.250000
O O1 0.317945 0.123209 0.160915
O O2 0.507954 0.040067 0.173270
O O3 0.355587 0.054130 0.245385
O O4 0.250000 0.000000 0.168969
O O5 0.241100 0.755704 0.643656
O O6 0.344948 0.827026 0.569125
O O7 0.123754 0.857127 0.597300
O O8 0.500000 0.750000 0.416853
O O9 0.390320 0.850915 0.372649
O O10 0.415611 0.845495 0.470421
O O11 0.750000 0.500000 0.821943
O O12 0.696064 0.633498 0.816551
O O13 0.904779 0.706277 0.785619
O O14 0.500000 0.250000 0.477508
O O15 0.750000 0.250000 0.500000
#
# Coordination Sequence:
#
# PCOD9509486 Si02
#       7
#    16  16  16  16  16  16   4
#     4  10  24  43  61  83 118 164 199 244 305 358
#     4  11  21  37  61  91 123 151 202 253 299 359
#     4   9  18  34  52  87 119 152 196 236 290 363
#     4  10  24  41  59  86 119 158 205 243 292 368
#     4  11  21  33  57  92 121 155 201 241 300 349
#     4  11  19  34  56  86 121 157 192 246 300 359
#     4  12  20  32  56  90 128 164 188 252 308 350
#
# _framework density 18.150821000000001
#
# number of rings (size 3 to 8) (size 9 to 14) (size 15 to 20)
#    0.000    1.600    7.200    0.960    4.480    1.280 
#    0.000    1.600    0.000    1.920    0.000    0.000 
#    0.000    0.000    0.000    0.000    0.000    0.000 
#
# Total GULP energy -278485.828987 kJ/mol
# GULP energy per Si atom -5569.716580 kJ/mol
# Density = 1.810951 g / cm^3
# Si number density = 18.150821 Si / 1000 Ang^3
#
#
#
# Elastic Constant Matrix: (Units=GPa)
#
#
# Indices 1 2 3 4 5 6 
#
# 1 149.0027 48.2126 32.8635 0.0000 0.0000 0.0000
# 2 48.2126 57.9587 19.3262 0.0000 0.0000 0.0000
# 3 32.8635 19.3262 54.7655 0.0000 0.0000 0.0000
# 4 0.0000 0.0000 0.0000 -1.4370 0.0000 0.0000
# 5 0.0000 0.0000 0.0000 0.0000 31.9186 0.0000
# 6 0.0000 0.0000 0.0000 0.0000 0.0000 22.2244
#
#
#
# Elastic Compliance Matrix: (Units=1/GPa)
#
#
# Indices 1 2 3 4 5 6 
#
# 1 0.009703 -0.006947 -0.003371 0.000000 0.000000 0.000000
# 2 -0.006947 0.024529 -0.004487 0.000000 0.000000 0.000000
# 3 -0.003371 -0.004487 0.021866 0.000000 0.000000 0.000000
# 4 0.000000 0.000000 0.000000 -0.695917 0.000000 0.000000
# 5 0.000000 0.000000 0.000000 0.000000 0.031330 0.000000
# 6 0.000000 0.000000 0.000000 0.000000 0.000000 0.044996
#
#
# Mechanical properties :
#
#
# Convention : Reuss Voigt Hill
#
# Bulk Modulus (GPa) = 37.75405 51.39240 44.57322
# Shear Modulus (GPa) = -9.52280 21.29618 5.88669
#
# Velocity S-wave (km/s) = -2.29301 3.42905 1.80284
# Velocity P-wave (km/s) = 3.71952 6.63727 5.37997
#
# Compressibility (1/GPa) = 0.02648722
#
# Stress axis : x y z
#
# Youngs Moduli (GPa) = 103.06540 40.76844 45.73336
#
# Poissons Ratio (x) = 0.28322 0.15416
# Poissons Ratio (y) = 0.71600 0.20521
# Poissons Ratio (z) = 0.34741 0.18294
#
# Static dielectric constant tensor:
#      x y z
#    x 1.787340 0.000000 0.000000 
#    y 0.000000 1.621510 0.000000 
#    z 0.000000 0.000000 1.649260 
# 
# From -- ./inp_files/49438.got.cif
#   From: 2010.05.17/outbox.cif.g08.bks.cpg/sg68_25_cif.got.tgz:49438.got - 2010.06.03 18:57:09.
