data_PCOD9509885
_publ_section_title
;
Structure prediction by ZEFSAII (Michael W. Deem and Ramdas Pophale) SiO2 
 PCOD9509885
Probable space group: C C C A
;
_chemical_formula_sum "Si O2"
_cell_formula_units_Z 88
_cell_length_a 12.841126
_cell_length_b 14.846798
_cell_length_c 22.333761
_cell_angle_alpha 90.000000
_cell_angle_beta 90.000000
_cell_angle_gamma 90.000000
_cell_volume 4257.922686
_symmetry_space_group_name_H-M "C C C A"
_symmetry_group_IT_number 68
_space_group.IT_coordinate_system_code '2'
_symmetry_cell_setting 'orthorhombic'
loop_
_space_group_symop_operation_xyz
x,y,z
-x,1/2-y,z
x,1/2-y,1/2-z
-x,y,1/2-z
-x,-y,-z
x,1/2+y,-z
-x,1/2+y,1/2+z
x,-y,1/2+z
1/2+x,1/2+y,z
1/2-x,-y,z
1/2+x,-y,1/2-z
1/2-x,1/2+y,1/2-z
1/2-x,1/2-y,-z
1/2+x,y,-z
1/2-x,y,1/2+z
1/2+x,1/2-y,1/2+z
loop_
_atom_site_type_symbol
_atom_site_label
_atom_site_fract_x
_atom_site_fract_y
_atom_site_fract_z
Si Si1 0.410286 0.172512 0.152243
Si Si2 0.733821 0.720680 0.933452
Si Si3 0.406509 0.680055 0.160085
Si Si4 0.356334 0.052412 0.491178
Si Si5 0.763900 0.750000 0.250000
Si Si6 0.983256 0.978739 0.898190
O O1 0.500000 0.250000 0.155819
O O2 0.331175 0.205031 0.101204
O O3 0.340031 0.184628 0.212014
O O4 0.448708 0.072877 0.133012
O O5 0.841942 0.700826 0.900466
O O6 0.663281 0.633575 0.944881
O O7 0.750000 0.750000 0.000000
O O8 0.500000 0.750000 0.170866
O O9 0.314953 0.691731 0.208904
O O10 0.463945 0.585234 0.150893
O O11 0.433679 0.993623 0.451178
O O12 0.250000 0.000000 0.498343
O O13 0.394965 0.068869 0.559670
#
# Coordination Sequence:
#
# PCOD9509885 Si02
#       6
#    16  16  16  16   8  16
#     4  11  23  44  69 103 137 178 235 288 341 406
#     4  11  22  37  67 101 143 180 212 275 345 409
#     4  11  24  46  70  97 133 183 232 287 346 406
#     4  11  21  39  61 107 147 175 220 266 339 433
#     4  10  26  50  72  94 136 182 244 302 348 406
#     4  11  24  40  71 102 140 178 223 280 342 421
#
# _framework density 20.667355000000001
#
# number of rings (size 3 to 8) (size 9 to 14) (size 15 to 20)
#    0.000    1.091    3.636    2.727    2.545    2.182 
#    0.000    5.455    0.000    0.000    0.000    0.000 
#    0.000    0.000    0.000    0.000    0.000    0.000 
#
# Total GULP energy -245252.734979 kJ/mol
# GULP energy per Si atom -5573.925795 kJ/mol
# Density = 2.062032 g / cm^3
# Si number density = 20.667355 Si / 1000 Ang^3
#
#
#
# Elastic Constant Matrix: (Units=GPa)
#
#
# Indices 1 2 3 4 5 6 
#
# 1 116.9835 50.5230 45.7033 0.0000 0.0000 0.0000
# 2 50.5230 82.1355 15.6116 0.0000 0.0000 0.0000
# 3 45.7033 15.6116 95.2279 0.0000 0.0000 0.0000
# 4 0.0000 0.0000 0.0000 19.5352 0.0000 0.0000
# 5 0.0000 0.0000 0.0000 0.0000 34.2934 0.0000
# 6 0.0000 0.0000 0.0000 0.0000 0.0000 32.9382
#
#
#
# Elastic Compliance Matrix: (Units=1/GPa)
#
#
# Indices 1 2 3 4 5 6 
#
# 1 0.013931 -0.007533 -0.005451 0.000000 0.000000 0.000000
# 2 -0.007533 0.016640 0.000888 0.000000 0.000000 0.000000
# 3 -0.005451 0.000888 0.012972 0.000000 0.000000 0.000000
# 4 0.000000 0.000000 0.000000 0.051190 0.000000 0.000000
# 5 0.000000 0.000000 0.000000 0.000000 0.029160 0.000000
# 6 0.000000 0.000000 0.000000 0.000000 0.000000 0.030360
#
#
# Mechanical properties :
#
#
# Convention : Reuss Voigt Hill
#
# Bulk Modulus (GPa) = 51.68096 57.55808 54.61952
# Shear Modulus (GPa) = 27.04211 29.52063 28.28137
#
# Velocity S-wave (km/s) = 3.62117 3.78348 3.70321
# Velocity P-wave (km/s) = 6.52259 6.85540 6.69106
#
# Compressibility (1/GPa) = 0.01934949
#
# Stress axis : x y z
#
# Youngs Moduli (GPa) = 71.78030 60.09541 77.09011
#
# Poissons Ratio (x) = 0.45272 0.42023
# Poissons Ratio (y) = 0.54075 -0.06842
# Poissons Ratio (z) = 0.39129 -0.05334
#
# Static dielectric constant tensor:
#      x y z
#    x 1.634070 0.000000 0.000000 
#    y 0.000000 1.700200 0.000000 
#    z 0.000000 0.000000 1.886040 
# 
# From -- ./inp_files/44215.got.cif
#   From: 2010.05.17/outbox.cif.g08.bks.cpg/sg68_23_cif.got.tgz:44215.got - 2010.06.03 18:57:09.
