data_PCOD9509837
_publ_section_title
;
Structure prediction by ZEFSAII (Michael W. Deem and Ramdas Pophale) SiO2 
 PCOD9509837
Probable space group: C C C A
;
_chemical_formula_sum "Si O2"
_cell_formula_units_Z 88
_cell_length_a 23.040651
_cell_length_b 10.631946
_cell_length_c 15.590443
_cell_angle_alpha 90.000000
_cell_angle_beta 90.000000
_cell_angle_gamma 90.000000
_cell_volume 3819.143384
_symmetry_space_group_name_H-M "C C C A"
_symmetry_group_IT_number 68
_space_group.IT_coordinate_system_code '2'
_symmetry_cell_setting 'orthorhombic'
loop_
_space_group_symop_operation_xyz
x,y,z
-x,1/2-y,z
x,1/2-y,1/2-z
-x,y,1/2-z
-x,-y,-z
x,1/2+y,-z
-x,1/2+y,1/2+z
x,-y,1/2+z
1/2+x,1/2+y,z
1/2-x,-y,z
1/2+x,-y,1/2-z
1/2-x,1/2+y,1/2-z
1/2-x,1/2-y,-z
1/2+x,y,-z
1/2-x,y,1/2+z
1/2+x,1/2-y,1/2+z
loop_
_atom_site_type_symbol
_atom_site_label
_atom_site_fract_x
_atom_site_fract_y
_atom_site_fract_z
Si Si1 0.479229 0.106768 0.935336
Si Si2 0.687245 0.106365 0.873600
Si Si3 0.221674 0.250000 0.750000
Si Si4 0.000000 0.515704 0.250000
Si Si5 0.750000 0.500000 0.468627
Si Si6 0.856448 0.364017 0.385701
Si Si7 0.371355 0.938248 0.746215
O O1 0.500000 0.250000 0.952033
O O2 0.496262 0.066450 0.837551
O O3 0.409611 0.097824 0.944207
O O4 0.500000 0.000000 0.000000
O O5 0.736467 0.164286 0.809222
O O6 0.714096 0.087577 0.966700
O O7 0.640746 0.215668 0.877925
O O8 0.658125 0.976318 0.843481
O O9 0.173912 0.343971 0.707433
O O10 0.060737 0.593236 0.255628
O O11 0.794203 0.414003 0.415809
O O12 0.867644 0.430180 0.295712
#
# Coordination Sequence:
#
# PCOD9509837 Si02
#       7
#    16  16   8   8   8  16  16
#     4  11  26  49  77 107 145 190 245 304 358 431
#     4  12  23  42  69  98 131 186 230 286 342 423
#     4  12  22  39  70  95 140 174 230 292 340 410
#     4  10  25  49  74 106 139 196 241 288 361 436
#     4  12  26  40  64 104 142 176 224 282 366 416
#     4  11  25  43  69  99 139 178 230 289 350 421
#     4  11  23  44  70  98 135 181 236 283 344 418
#
# _framework density 23.041817000000002
#
# number of rings (size 3 to 8) (size 9 to 14) (size 15 to 20)
#    0.000    0.727    3.636    3.000    5.091    3.273 
#    9.818    0.000    0.000    0.000    0.000    0.000 
#    0.000    0.000    0.000    0.000    0.000    0.000 
#
# Total GULP energy -245658.017055 kJ/mol
# GULP energy per Si atom -5583.136751 kJ/mol
# Density = 2.298937 g / cm^3
# Si number density = 23.041817 Si / 1000 Ang^3
#
#
#
# Elastic Constant Matrix: (Units=GPa)
#
#
# Indices 1 2 3 4 5 6 
#
# 1 158.7773 23.3828 25.9425 0.0000 0.0000 0.0000
# 2 23.3828 81.6430 21.3090 0.0000 0.0000 0.0000
# 3 25.9425 21.3090 69.8442 0.0000 0.0000 0.0000
# 4 0.0000 0.0000 0.0000 23.2476 0.0000 0.0000
# 5 0.0000 0.0000 0.0000 0.0000 22.6983 0.0000
# 6 0.0000 0.0000 0.0000 0.0000 0.0000 30.8308
#
#
#
# Elastic Compliance Matrix: (Units=1/GPa)
#
#
# Indices 1 2 3 4 5 6 
#
# 1 0.006851 -0.001410 -0.002115 0.000000 0.000000 0.000000
# 2 -0.001410 0.013598 -0.003625 0.000000 0.000000 0.000000
# 3 -0.002115 -0.003625 0.016209 0.000000 0.000000 0.000000
# 4 0.000000 0.000000 0.000000 0.043015 0.000000 0.000000
# 5 0.000000 0.000000 0.000000 0.000000 0.044056 0.000000
# 6 0.000000 0.000000 0.000000 0.000000 0.000000 0.032435
#
#
# Mechanical properties :
#
#
# Convention : Reuss Voigt Hill
#
# Bulk Modulus (GPa) = 44.72455 50.17036 47.44745
# Shear Modulus (GPa) = 28.10287 31.33070 29.71678
#
# Velocity S-wave (km/s) = 3.49613 3.69145 3.59512
# Velocity P-wave (km/s) = 5.97909 6.32376 6.15384
#
# Compressibility (1/GPa) = 0.02235909
#
# Stress axis : x y z
#
# Youngs Moduli (GPa) = 145.95733 73.53757 61.69438
#
# Poissons Ratio (x) = 0.10371 0.13045
# Poissons Ratio (y) = 0.20585 0.22364
# Poissons Ratio (z) = 0.30863 0.26657
#
# Static dielectric constant tensor:
#      x y z
#    x 1.921800 0.000000 0.000000 
#    y 0.000000 1.906780 0.000000 
#    z 0.000000 0.000000 1.890650 
# 
# From -- ./inp_files/25292.got.cif
#   From: 2010.05.17/outbox.cif.g08.bks.cpg/sg68_13_cif.got.tgz:25292.got - 2010.06.03 18:57:09.
