data_PCOD9509196
_publ_section_title
;
Structure prediction by ZEFSAII (Michael W. Deem and Ramdas Pophale) SiO2 
 PCOD9509196
Probable space group: C C C A
;
_chemical_formula_sum "Si O2"
_cell_formula_units_Z 60
_cell_length_a 19.476757
_cell_length_b 4.937436
_cell_length_c 25.788836
_cell_angle_alpha 90.000000
_cell_angle_beta 90.000000
_cell_angle_gamma 90.000000
_cell_volume 2479.989634
_symmetry_space_group_name_H-M "C C C A"
_symmetry_group_IT_number 68
_space_group.IT_coordinate_system_code '2'
_symmetry_cell_setting 'orthorhombic'
loop_
_space_group_symop_operation_xyz
x,y,z
-x,1/2-y,z
x,1/2-y,1/2-z
-x,y,1/2-z
-x,-y,-z
x,1/2+y,-z
-x,1/2+y,1/2+z
x,-y,1/2+z
1/2+x,1/2+y,z
1/2-x,-y,z
1/2+x,-y,1/2-z
1/2-x,1/2+y,1/2-z
1/2-x,1/2-y,-z
1/2+x,y,-z
1/2-x,y,1/2+z
1/2+x,1/2-y,1/2+z
loop_
_atom_site_type_symbol
_atom_site_label
_atom_site_fract_x
_atom_site_fract_y
_atom_site_fract_z
Si Si1 0.413632 0.553245 0.164932
Si Si2 0.500000 0.250000 0.250000
Si Si3 0.825045 0.441611 0.649087
Si Si4 0.500000 0.750000 0.921738
Si Si5 0.359075 0.604378 0.967120
O O1 0.454758 0.444898 0.213961
O O2 0.346850 0.364077 0.160042
O O3 0.386148 0.858108 0.167485
O O4 0.460236 0.465767 0.115348
O O5 0.750000 0.500000 0.670603
O O6 0.825410 0.475426 0.586909
O O7 0.440793 0.607876 0.954990
O O8 0.341398 0.901271 0.986992
#
# Coordination Sequence:
#
# PCOD9509196 Si02
#       5
#    16   4  16   8  16
#     4  10  23  41  68  96 123 165 201 263 332 381
#     4  10  24  46  76 106 128 146 212 272 332 412
#     4  11  24  43  62  89 132 175 214 252 310 381
#     4   9  20  37  58  90 130 158 206 267 330 375
#     4  11  22  35  58  89 124 170 217 265 307 356
#
# _framework density 24.193650999999999
#
# number of rings (size 3 to 8) (size 9 to 14) (size 15 to 20)
#    0.000    1.600    0.000    4.800    0.000   17.067 
#    0.000    2.667    0.000    0.000    0.000    0.000 
#    0.000    0.000    0.000    0.000    0.000    0.000 
#
# Total GULP energy -168087.865904 kJ/mol
# GULP energy per Si atom -5602.928863 kJ/mol
# Density = 2.413859 g / cm^3
# Si number density = 24.193651 Si / 1000 Ang^3
#
#
#
# Elastic Constant Matrix: (Units=GPa)
#
#
# Indices 1 2 3 4 5 6 
#
# 1 89.7260 2.8763 -1.9148 0.0000 0.0000 0.0000
# 2 2.8763 72.2475 2.2141 0.0000 0.0000 0.0000
# 3 -1.9148 2.2141 76.5497 0.0000 0.0000 0.0000
# 4 0.0000 0.0000 0.0000 29.5946 0.0000 0.0000
# 5 0.0000 0.0000 0.0000 0.0000 -5.6281 0.0000
# 6 0.0000 0.0000 0.0000 0.0000 0.0000 21.2985
#
#
#
# Elastic Compliance Matrix: (Units=1/GPa)
#
#
# Indices 1 2 3 4 5 6 
#
# 1 0.011166 -0.000453 0.000292 0.000000 0.000000 0.000000
# 2 -0.000453 0.013872 -0.000413 0.000000 0.000000 0.000000
# 3 0.000292 -0.000413 0.013083 0.000000 0.000000 0.000000
# 4 0.000000 0.000000 0.000000 0.033790 0.000000 0.000000
# 5 0.000000 0.000000 0.000000 0.000000 -0.177681 0.000000
# 6 0.000000 0.000000 0.000000 0.000000 0.000000 0.046952
#
#
# Mechanical properties :
#
#
# Convention : Reuss Voigt Hill
#
# Bulk Modulus (GPa) = 27.04663 27.20827 27.12745
# Shear Modulus (GPa) = -110.26059 24.74285 -42.75887
#
# Velocity S-wave (km/s) = -6.75819 3.20144 -4.20856
# Velocity P-wave (km/s) = 7.04940 4.99360 3.51838
#
# Compressibility (1/GPa) = 0.03697318
#
# Stress axis : x y z
#
# Youngs Moduli (GPa) = 89.55899 72.08763 76.43711
#
# Poissons Ratio (x) = 0.03269 -0.02235
# Poissons Ratio (y) = 0.04061 0.03154
# Poissons Ratio (z) = -0.02619 0.02974
#
# Static dielectric constant tensor:
#      x y z
#    x 1.952080 0.000000 0.000000 
#    y 0.000000 1.875290 0.000000 
#    z 0.000000 0.000000 1.899140 
# 
# From -- ./inp_files/51174.got.cif
#   From: 2010.05.17/outbox.cif.g08.bks.cpg/sg68_26_cif.got.tgz:51174.got - 2010.06.03 18:57:09.
