data_PCOD9509992
_publ_section_title
;
Structure prediction by ZEFSAII (Michael W. Deem and Ramdas Pophale) SiO2 
 PCOD9509992
Probable space group: C C C A
;
_chemical_formula_sum "Si O2"
_cell_formula_units_Z 96
_cell_length_a 16.074932
_cell_length_b 13.142577
_cell_length_c 21.343605
_cell_angle_alpha 90.000000
_cell_angle_beta 90.000000
_cell_angle_gamma 90.000000
_cell_volume 4509.178728
_symmetry_space_group_name_H-M "C C C A"
_symmetry_group_IT_number 68
_space_group.IT_coordinate_system_code '2'
_symmetry_cell_setting 'orthorhombic'
loop_
_space_group_symop_operation_xyz
x,y,z
-x,1/2-y,z
x,1/2-y,1/2-z
-x,y,1/2-z
-x,-y,-z
x,1/2+y,-z
-x,1/2+y,1/2+z
x,-y,1/2+z
1/2+x,1/2+y,z
1/2-x,-y,z
1/2+x,-y,1/2-z
1/2-x,1/2+y,1/2-z
1/2-x,1/2-y,-z
1/2+x,y,-z
1/2-x,y,1/2+z
1/2+x,1/2-y,1/2+z
loop_
_atom_site_type_symbol
_atom_site_label
_atom_site_fract_x
_atom_site_fract_y
_atom_site_fract_z
Si Si1 0.900690 0.194835 0.439668
Si Si2 0.500000 0.077484 0.250000
Si Si3 0.010446 0.026108 0.385864
Si Si4 0.727020 0.751473 0.619319
Si Si5 0.068320 0.669962 0.445914
Si Si6 0.641532 0.250000 0.250000
Si Si7 0.831009 0.552609 0.450632
O O1 0.819116 0.221007 0.400048
O O2 0.924327 0.293365 0.482298
O O3 0.877135 0.115566 0.495265
O O4 0.965562 0.133993 0.396217
O O5 0.496770 0.012002 0.314034
O O6 0.580191 0.152302 0.249307
O O7 0.963466 0.940863 0.428568
O O8 0.104446 0.016227 0.411956
O O9 0.659187 0.684217 0.582215
O O10 0.700861 0.743173 0.690544
O O11 0.706584 0.865119 0.597021
O O12 0.000000 0.750000 0.417172
O O13 0.750000 0.500000 0.479006
#
# Coordination Sequence:
#
# PCOD9509992 Si02
#       7
#    16   8  16  16  16   8  16
#     4  11  27  38  67 101 142 174 215 285 352 418
#     4  11  22  42  72  94 129 174 242 287 320 404
#     4  12  24  44  68 103 132 185 230 285 343 408
#     4  11  23  42  61 102 134 177 225 280 343 397
#     4  11  20  40  70  96 133 173 230 274 347 400
#     4  11  20  40  72  90 127 178 236 285 322 398
#     4  11  24  41  66  99 134 171 228 283 348 409
#
# _framework density 21.289909000000002
#
# number of rings (size 3 to 8) (size 9 to 14) (size 15 to 20)
#    0.000    0.833    6.667    2.500    4.667    0.000 
#    3.000    0.000    0.000    0.000    0.000    0.000 
#    0.000    0.000    0.000    0.000    0.000    0.000 
#
# Total GULP energy -268325.360703 kJ/mol
# GULP energy per Si atom -5590.111681 kJ/mol
# Density = 2.124145 g / cm^3
# Si number density = 21.289909 Si / 1000 Ang^3
#
#
#
# Elastic Constant Matrix: (Units=GPa)
#
#
# Indices 1 2 3 4 5 6 
#
# 1 95.5805 26.1739 48.8402 0.0000 0.0000 0.0000
# 2 26.1739 77.3944 50.2596 0.0000 0.0000 0.0000
# 3 48.8402 50.2596 165.0503 0.0000 0.0000 0.0000
# 4 0.0000 0.0000 0.0000 31.7520 0.0000 0.0000
# 5 0.0000 0.0000 0.0000 0.0000 32.0062 0.0000
# 6 0.0000 0.0000 0.0000 0.0000 0.0000 38.9347
#
#
#
# Elastic Compliance Matrix: (Units=1/GPa)
#
#
# Indices 1 2 3 4 5 6 
#
# 1 0.012647 -0.002302 -0.003041 0.000000 0.000000 0.000000
# 2 -0.002302 0.016525 -0.004351 0.000000 0.000000 0.000000
# 3 -0.003041 -0.004351 0.008284 0.000000 0.000000 0.000000
# 4 0.000000 0.000000 0.000000 0.031494 0.000000 0.000000
# 5 0.000000 0.000000 0.000000 0.000000 0.031244 0.000000
# 6 0.000000 0.000000 0.000000 0.000000 0.000000 0.025684
#
#
# Mechanical properties :
#
#
# Convention : Reuss Voigt Hill
#
# Bulk Modulus (GPa) = 55.34975 65.39694 60.37335
# Shear Modulus (GPa) = 33.04961 34.72202 33.88582
#
# Velocity S-wave (km/s) = 3.94428 4.04284 3.99386
# Velocity P-wave (km/s) = 6.84088 7.25098 7.04891
#
# Compressibility (1/GPa) = 0.01806693
#
# Stress axis : x y z
#
# Youngs Moduli (GPa) = 79.07109 60.51549 120.72060
#
# Poissons Ratio (x) = 0.13930 0.36716
# Poissons Ratio (y) = 0.18202 0.52523
# Poissons Ratio (z) = 0.24048 0.26329
#
# Static dielectric constant tensor:
#      x y z
#    x 1.845300 0.000000 0.000000 
#    y 0.000000 1.838380 0.000000 
#    z 0.000000 0.000000 1.755060 
# 
# From -- ./inp_files/38639.got.cif
#   From: 2010.05.17/outbox.cif.g08.bks.cpg/sg68_20_cif.got.tgz:38639.got - 2010.06.03 18:57:09.
