data_PCOD9509870
_publ_section_title
;
Structure prediction by ZEFSAII (Michael W. Deem and Ramdas Pophale) SiO2 
 PCOD9509870
Probable space group: C C C A
;
_chemical_formula_sum "Si O2"
_cell_formula_units_Z 104
_cell_length_a 19.917011
_cell_length_b 8.652900
_cell_length_c 27.408209
_cell_angle_alpha 90.000000
_cell_angle_beta 90.000000
_cell_angle_gamma 90.000000
_cell_volume 4723.528121
_symmetry_space_group_name_H-M "C C C A"
_symmetry_group_IT_number 68
_space_group.IT_coordinate_system_code '2'
_symmetry_cell_setting 'orthorhombic'
loop_
_space_group_symop_operation_xyz
x,y,z
-x,1/2-y,z
x,1/2-y,1/2-z
-x,y,1/2-z
-x,-y,-z
x,1/2+y,-z
-x,1/2+y,1/2+z
x,-y,1/2+z
1/2+x,1/2+y,z
1/2-x,-y,z
1/2+x,-y,1/2-z
1/2-x,1/2+y,1/2-z
1/2-x,1/2-y,-z
1/2+x,y,-z
1/2-x,y,1/2+z
1/2+x,1/2-y,1/2+z
loop_
_atom_site_type_symbol
_atom_site_label
_atom_site_fract_x
_atom_site_fract_y
_atom_site_fract_z
Si Si1 0.575771 0.566545 0.757361
Si Si2 0.361901 0.353079 0.021598
Si Si3 0.674264 0.048369 0.825711
Si Si4 0.969790 0.094185 0.067450
Si Si5 0.250000 0.500000 0.080718
Si Si6 0.368017 0.386421 0.651058
Si Si7 0.614589 0.975037 0.929167
O O1 0.572846 0.750000 0.750000
O O2 0.500000 0.504736 0.750000
O O3 0.624097 0.511549 0.714828
O O4 0.606585 0.507769 0.808544
O O5 0.418296 0.478518 0.039956
O O6 0.289243 0.385840 0.044763
O O7 0.378582 0.183578 0.040889
O O8 0.360076 0.384804 0.963889
O O9 0.661613 0.231324 0.826277
O O10 0.750000 0.000000 0.814652
O O11 0.654527 0.979951 0.878733
O O12 0.930512 0.149417 0.115461
O O13 0.000000 0.250000 0.041786
O O14 0.035925 0.998694 0.080773
O O15 0.309017 0.554536 0.116146
#
# Coordination Sequence:
#
# PCOD9509870 Si02
#       7
#    16  16  16  16   8  16  16
#     4  11  28  49  76 110 147 188 240 299 370 437
#     4  11  26  43  70 102 148 194 242 302 364 432
#     4  12  28  46  75 110 143 190 244 299 364 438
#     4  11  22  44  72 106 139 186 245 297 360 428
#     4  10  26  46  72 102 144 194 238 298 368 424
#     4  11  25  48  76 104 147 188 238 297 362 443
#     4  12  25  44  69 106 147 190 247 301 365 432
#
# _framework density 22.017441000000002
#
# number of rings (size 3 to 8) (size 9 to 14) (size 15 to 20)
#    0.000    0.769    1.538    4.154   10.769    1.231 
#    0.000    0.000    0.000    0.000    0.000    0.000 
#    0.000    0.000    0.000    0.000    0.000    0.000 
#
# Total GULP energy -290885.979039 kJ/mol
# GULP energy per Si atom -5593.961135 kJ/mol
# Density = 2.196733 g / cm^3
# Si number density = 22.017441 Si / 1000 Ang^3
#
#
#
# Elastic Constant Matrix: (Units=GPa)
#
#
# Indices 1 2 3 4 5 6 
#
# 1 180.4509 38.4634 66.3460 0.0000 0.0000 0.0000
# 2 38.4634 79.3392 17.8690 0.0000 0.0000 0.0000
# 3 66.3460 17.8690 108.9386 0.0000 0.0000 0.0000
# 4 0.0000 0.0000 0.0000 31.7347 0.0000 0.0000
# 5 0.0000 0.0000 0.0000 0.0000 34.5176 0.0000
# 6 0.0000 0.0000 0.0000 0.0000 0.0000 22.4315
#
#
#
# Elastic Compliance Matrix: (Units=1/GPa)
#
#
# Indices 1 2 3 4 5 6 
#
# 1 0.007687 -0.002775 -0.004226 0.000000 0.000000 0.000000
# 2 -0.002775 0.014089 -0.000621 0.000000 0.000000 0.000000
# 3 -0.004226 -0.000621 0.011855 0.000000 0.000000 0.000000
# 4 0.000000 0.000000 0.000000 0.031511 0.000000 0.000000
# 5 0.000000 0.000000 0.000000 0.000000 0.028971 0.000000
# 6 0.000000 0.000000 0.000000 0.000000 0.000000 0.044580
#
#
# Mechanical properties :
#
#
# Convention : Reuss Voigt Hill
#
# Bulk Modulus (GPa) = 54.38647 68.23172 61.30910
# Shear Modulus (GPa) = 31.23684 34.14012 32.68848
#
# Velocity S-wave (km/s) = 3.77069 3.94203 3.85731
# Velocity P-wave (km/s) = 6.61155 7.19560 6.90975
#
# Compressibility (1/GPa) = 0.01838693
#
# Stress axis : x y z
#
# Youngs Moduli (GPa) = 130.08903 70.97635 84.35004
#
# Poissons Ratio (x) = 0.19694 0.35650
# Poissons Ratio (y) = 0.36097 0.05239
# Poissons Ratio (z) = 0.54981 0.04409
#
# Static dielectric constant tensor:
#      x y z
#    x 1.799530 0.000000 0.000000 
#    y 0.000000 1.775000 0.000000 
#    z 0.000000 0.000000 1.865460 
# 
# From -- ./inp_files/51827.got.cif
#   From: 2010.05.17/outbox.cif.g08.bks.cpg/sg68_26_cif.got.tgz:51827.got - 2010.06.03 18:57:09.
