data_PCOD9509978
_publ_section_title
;
Structure prediction by ZEFSAII (Michael W. Deem and Ramdas Pophale) SiO2 
 PCOD9509978
Probable space group: C C C A
;
_chemical_formula_sum "Si O2"
_cell_formula_units_Z 64
_cell_length_a 20.850880
_cell_length_b 11.206535
_cell_length_c 14.415528
_cell_angle_alpha 90.000000
_cell_angle_beta 90.000000
_cell_angle_gamma 90.000000
_cell_volume 3368.420445
_symmetry_space_group_name_H-M "C C C A"
_symmetry_group_IT_number 68
_space_group.IT_coordinate_system_code '2'
_symmetry_cell_setting 'orthorhombic'
loop_
_space_group_symop_operation_xyz
x,y,z
-x,1/2-y,z
x,1/2-y,1/2-z
-x,y,1/2-z
-x,-y,-z
x,1/2+y,-z
-x,1/2+y,1/2+z
x,-y,1/2+z
1/2+x,1/2+y,z
1/2-x,-y,z
1/2+x,-y,1/2-z
1/2-x,1/2+y,1/2-z
1/2-x,1/2-y,-z
1/2+x,y,-z
1/2-x,y,1/2+z
1/2+x,1/2-y,1/2+z
loop_
_atom_site_type_symbol
_atom_site_label
_atom_site_fract_x
_atom_site_fract_y
_atom_site_fract_z
Si Si1 0.656534 0.492324 0.907660
Si Si2 0.247014 0.700159 0.646033
Si Si3 0.814128 0.936386 0.385698
Si Si4 0.575002 0.606064 0.761727
O O1 0.706269 0.588608 0.866884
O O2 0.678639 0.358048 0.880027
O O3 0.593268 0.542322 0.858791
O O4 0.662778 0.495199 0.018489
O O5 0.244597 0.750000 0.750000
O O6 0.284274 0.805736 0.592180
O O7 0.872836 0.939060 0.314023
O O8 0.750000 0.000000 0.348099
O O9 0.582452 0.750000 0.750000
O O10 0.500000 0.580889 0.750000
#
# Coordination Sequence:
#
# PCOD9509978 Si02
#       4
#    16  16  16  16
#     4  11  22  37  62  93 124 158 204 263 311 365
#     4  11  20  37  59  96 125 155 203 253 321 364
#     4  12  22  36  67  94 125 156 205 266 316 365
#     4  11  24  43  63  86 126 173 211 251 311 386
#
# _framework density 19.000004000000001
#
# number of rings (size 3 to 8) (size 9 to 14) (size 15 to 20)
#    0.000    0.750    7.500    2.250    0.000    1.000 
#    0.000    0.000    0.000    6.750    0.000    0.000 
#    0.000    0.000    0.000    0.000    0.000    0.000 
#
# Total GULP energy -178147.843907 kJ/mol
# GULP energy per Si atom -5567.120122 kJ/mol
# Density = 1.895676 g / cm^3
# Si number density = 19.000004 Si / 1000 Ang^3
#
#
#
# Elastic Constant Matrix: (Units=GPa)
#
#
# Indices 1 2 3 4 5 6 
#
# 1 146.9946 36.5646 54.0082 0.0000 0.0000 0.0000
# 2 36.5646 75.2542 28.1447 0.0000 0.0000 0.0000
# 3 54.0082 28.1447 99.1526 0.0000 0.0000 0.0000
# 4 0.0000 0.0000 0.0000 31.2220 0.0000 0.0000
# 5 0.0000 0.0000 0.0000 0.0000 -20.1859 0.0000
# 6 0.0000 0.0000 0.0000 0.0000 0.0000 22.7686
#
#
#
# Elastic Compliance Matrix: (Units=1/GPa)
#
#
# Indices 1 2 3 4 5 6 
#
# 1 0.009019 -0.002847 -0.004105 0.000000 0.000000 0.000000
# 2 -0.002847 0.015765 -0.002924 0.000000 0.000000 0.000000
# 3 -0.004105 -0.002924 0.013151 0.000000 0.000000 0.000000
# 4 0.000000 0.000000 0.000000 0.032029 0.000000 0.000000
# 5 0.000000 0.000000 0.000000 0.000000 -0.049539 0.000000
# 6 0.000000 0.000000 0.000000 0.000000 0.000000 0.043920
#
#
# Mechanical properties :
#
#
# Convention : Reuss Voigt Hill
#
# Bulk Modulus (GPa) = 54.99358 62.09294 58.54326
# Shear Modulus (GPa) = 55.45785 20.27319 37.86552
#
# Velocity S-wave (km/s) = 5.40848 3.27006 4.46906
# Velocity P-wave (km/s) = 8.24676 6.85632 7.58348
#
# Compressibility (1/GPa) = 0.01818394
#
# Stress axis : x y z
#
# Youngs Moduli (GPa) = 110.87325 63.43040 76.03824
#
# Poissons Ratio (x) = 0.18060 0.31211
# Poissons Ratio (y) = 0.31568 0.22235
# Poissons Ratio (z) = 0.45509 0.18548
#
# Static dielectric constant tensor:
#      x y z
#    x 1.713250 0.000000 0.000000 
#    y 0.000000 1.763470 0.000000 
#    z 0.000000 0.000000 1.721480 
# 
# From -- ./inp_files/20593.got.cif
#   From: 2010.05.17/outbox.cif.g08.bks.cpg/sg68_11_cif.got.tgz:20593.got - 2010.06.03 18:57:09.
