data_PCOD9509783
_publ_section_title
;
Structure prediction by ZEFSAII (Michael W. Deem and Ramdas Pophale) SiO2 
 PCOD9509783
Probable space group: C C C A
;
_chemical_formula_sum "Si O2"
_cell_formula_units_Z 88
_cell_length_a 13.906952
_cell_length_b 13.089156
_cell_length_c 22.206961
_cell_angle_alpha 90.000000
_cell_angle_beta 90.000000
_cell_angle_gamma 90.000000
_cell_volume 4042.338978
_symmetry_space_group_name_H-M "C C C A"
_symmetry_group_IT_number 68
_space_group.IT_coordinate_system_code '2'
_symmetry_cell_setting 'orthorhombic'
loop_
_space_group_symop_operation_xyz
x,y,z
-x,1/2-y,z
x,1/2-y,1/2-z
-x,y,1/2-z
-x,-y,-z
x,1/2+y,-z
-x,1/2+y,1/2+z
x,-y,1/2+z
1/2+x,1/2+y,z
1/2-x,-y,z
1/2+x,-y,1/2-z
1/2-x,1/2+y,1/2-z
1/2-x,1/2-y,-z
1/2+x,y,-z
1/2-x,y,1/2+z
1/2+x,1/2-y,1/2+z
loop_
_atom_site_type_symbol
_atom_site_label
_atom_site_fract_x
_atom_site_fract_y
_atom_site_fract_z
Si Si1 0.831857 0.917439 0.340631
Si Si2 0.103513 0.307607 0.159657
Si Si3 0.960086 0.365363 0.996101
Si Si4 0.770061 0.750000 0.250000
Si Si5 0.524013 0.497804 0.894745
Si Si6 0.784615 0.186765 0.443088
O O1 0.831701 0.832234 0.288050
O O2 0.927234 0.979015 0.357613
O O3 0.797215 0.861487 0.402136
O O4 0.750000 0.000000 0.325086
O O5 0.192250 0.300272 0.205146
O O6 0.145914 0.250496 0.101112
O O7 0.000000 0.250000 0.173878
O O8 0.085593 0.426860 0.148373
O O9 0.000000 0.250000 0.998572
O O10 0.951340 0.395345 0.926170
O O11 0.023434 0.429073 0.043759
O O12 0.856818 0.391304 0.025593
O O13 0.750000 0.250000 0.500000
#
# Coordination Sequence:
#
# PCOD9509783 Si02
#       6
#    16  16  16   8  16  16
#     4  11  22  40  62  94 124 169 214 272 326 378
#     4  11  20  41  64  94 121 166 225 270 309 379
#     4  11  20  36  58  98 131 162 199 248 316 402
#     4  10  25  42  66  90 123 162 232 294 319 358
#     4  11  21  36  67  90 127 164 210 253 319 397
#     4  11  21  35  61  94 139 163 200 262 325 378
#
# _framework density 21.769573999999999
#
# number of rings (size 3 to 8) (size 9 to 14) (size 15 to 20)
#    0.000    1.091    5.455    2.455    2.545    0.000 
#    0.000    5.455    0.000    2.182    0.000    0.000 
#    0.000    0.000    0.000    0.000    0.000    0.000 
#
# Total GULP energy -245067.622180 kJ/mol
# GULP energy per Si atom -5569.718686 kJ/mol
# Density = 2.172003 g / cm^3
# Si number density = 21.769574 Si / 1000 Ang^3
#
#
#
# Elastic Constant Matrix: (Units=GPa)
#
#
# Indices 1 2 3 4 5 6 
#
# 1 37.1724 11.5825 14.4206 0.0000 0.0000 0.0000
# 2 11.5825 84.0265 35.4531 0.0000 0.0000 0.0000
# 3 14.4206 35.4531 70.2661 0.0000 0.0000 0.0000
# 4 0.0000 0.0000 0.0000 24.6621 0.0000 0.0000
# 5 0.0000 0.0000 0.0000 0.0000 10.0709 0.0000
# 6 0.0000 0.0000 0.0000 0.0000 0.0000 29.9549
#
#
#
# Elastic Compliance Matrix: (Units=1/GPa)
#
#
# Indices 1 2 3 4 5 6 
#
# 1 0.029470 -0.001919 -0.005080 0.000000 0.000000 0.000000
# 2 -0.001919 0.015245 -0.007298 0.000000 0.000000 0.000000
# 3 -0.005080 -0.007298 0.018956 0.000000 0.000000 0.000000
# 4 0.000000 0.000000 0.000000 0.040548 0.000000 0.000000
# 5 0.000000 0.000000 0.000000 0.000000 0.099296 0.000000
# 6 0.000000 0.000000 0.000000 0.000000 0.000000 0.033383
#
#
# Mechanical properties :
#
#
# Convention : Reuss Voigt Hill
#
# Bulk Modulus (GPa) = 28.50810 34.93081 31.71946
# Shear Modulus (GPa) = 18.03846 21.60483 19.82165
#
# Velocity S-wave (km/s) = 2.88168 3.15371 3.02076
# Velocity P-wave (km/s) = 4.91894 5.41680 5.17386
#
# Compressibility (1/GPa) = 0.03507775
#
# Stress axis : x y z
#
# Youngs Moduli (GPa) = 33.93247 65.59637 52.75268
#
# Poissons Ratio (x) = 0.12587 0.26798
# Poissons Ratio (y) = 0.06511 0.38499
# Poissons Ratio (z) = 0.17237 0.47872
#
# Static dielectric constant tensor:
#      x y z
#    x 2.083640 0.000000 0.000000 
#    y 0.000000 1.928400 0.000000 
#    z 0.000000 0.000000 1.363850 
# 
# From -- ./inp_files/44224.got.cif
#   From: 2010.05.17/outbox.cif.g08.bks.cpg/sg68_23_cif.got.tgz:44224.got - 2010.06.03 18:57:09.
