data_PCOD9509243
_publ_section_title
;
Structure prediction by ZEFSAII (Michael W. Deem and Ramdas Pophale) SiO2 
 PCOD9509243
Probable space group: C C C A
;
_chemical_formula_sum "Si O2"
_cell_formula_units_Z 72
_cell_length_a 9.924524
_cell_length_b 21.369335
_cell_length_c 13.464845
_cell_angle_alpha 90.000000
_cell_angle_beta 90.000000
_cell_angle_gamma 90.000000
_cell_volume 2855.630765
_symmetry_space_group_name_H-M "C C C A"
_symmetry_group_IT_number 68
_space_group.IT_coordinate_system_code '2'
_symmetry_cell_setting 'orthorhombic'
loop_
_space_group_symop_operation_xyz
x,y,z
-x,1/2-y,z
x,1/2-y,1/2-z
-x,y,1/2-z
-x,-y,-z
x,1/2+y,-z
-x,1/2+y,1/2+z
x,-y,1/2+z
1/2+x,1/2+y,z
1/2-x,-y,z
1/2+x,-y,1/2-z
1/2-x,1/2+y,1/2-z
1/2-x,1/2-y,-z
1/2+x,y,-z
1/2-x,y,1/2+z
1/2+x,1/2-y,1/2+z
loop_
_atom_site_type_symbol
_atom_site_label
_atom_site_fract_x
_atom_site_fract_y
_atom_site_fract_z
Si Si1 0.382690 0.837775 0.955715
Si Si2 0.398931 0.492810 0.406327
Si Si3 0.000000 0.408354 0.250000
Si Si4 0.194557 0.113043 0.759502
Si Si5 0.833633 0.803572 0.405887
O O1 0.361036 0.889889 0.871712
O O2 0.540679 0.827916 0.971086
O O3 0.328053 0.770719 0.914801
O O4 0.296768 0.840988 0.055299
O O5 0.500000 0.500000 0.500000
O O6 0.250000 0.500000 0.451495
O O7 0.457794 0.548066 0.340406
O O8 0.360083 0.440474 0.317472
O O9 0.144369 0.377466 0.227191
O O10 0.141746 0.175015 0.705253
#
# Coordination Sequence:
#
# PCOD9509243 Si02
#       5
#    16  16   8  16  16
#     4  10  23  43  67 101 141 177 235 284 351 437
#     4  10  25  47  68  95 133 179 233 293 351 422
#     4  10  26  46  61 106 133 174 236 294 356 430
#     4  11  24  42  72  97 138 185 230 294 359 424
#     4  10  23  42  68 101 137 184 228 286 354 430
#
# _framework density 25.213346000000001
#
# number of rings (size 3 to 8) (size 9 to 14) (size 15 to 20)
#    0.000    1.778    0.000    1.333    9.333    6.222 
#    0.000    1.111    0.000    0.000    0.000    0.000 
#    0.000    0.000    0.000    0.000    0.000    0.000 
#
# Total GULP energy -200691.032984 kJ/mol
# GULP energy per Si atom -5574.750916 kJ/mol
# Density = 2.515596 g / cm^3
# Si number density = 25.213346 Si / 1000 Ang^3
#
#
#
# Elastic Constant Matrix: (Units=GPa)
#
#
# Indices 1 2 3 4 5 6 
#
# 1 190.8470 14.8094 45.2171 0.0000 0.0000 0.0000
# 2 14.8094 64.9390 22.5237 0.0000 0.0000 0.0000
# 3 45.2171 22.5237 100.7100 0.0000 0.0000 0.0000
# 4 0.0000 0.0000 0.0000 35.8766 0.0000 0.0000
# 5 0.0000 0.0000 0.0000 0.0000 50.3172 0.0000
# 6 0.0000 0.0000 0.0000 0.0000 0.0000 16.3460
#
#
#
# Elastic Compliance Matrix: (Units=1/GPa)
#
#
# Indices 1 2 3 4 5 6 
#
# 1 0.005876 -0.000461 -0.002535 0.000000 0.000000 0.000000
# 2 -0.000461 0.016730 -0.003535 0.000000 0.000000 0.000000
# 3 -0.002535 -0.003535 0.011858 0.000000 0.000000 0.000000
# 4 0.000000 0.000000 0.000000 0.027873 0.000000 0.000000
# 5 0.000000 0.000000 0.000000 0.000000 0.019874 0.000000
# 6 0.000000 0.000000 0.000000 0.000000 0.000000 0.061177
#
#
# Mechanical properties :
#
#
# Convention : Reuss Voigt Hill
#
# Bulk Modulus (GPa) = 46.72227 57.95517 52.33872
# Shear Modulus (GPa) = 30.56511 38.77101 34.66806
#
# Velocity S-wave (km/s) = 3.48553 3.92563 3.71211
# Velocity P-wave (km/s) = 5.89657 6.60176 6.25910
#
# Compressibility (1/GPa) = 0.02140307
#
# Stress axis : x y z
#
# Youngs Moduli (GPa) = 170.17704 59.77227 84.32869
#
# Poissons Ratio (x) = 0.02754 0.21380
# Poissons Ratio (y) = 0.07841 0.29809
# Poissons Ratio (z) = 0.43145 0.21128
#
# Static dielectric constant tensor:
#      x y z
#    x 2.337080 0.000000 0.000000 
#    y 0.000000 2.089440 0.000000 
#    z 0.000000 0.000000 2.837100 
# 
# From -- ./inp_files/19459.got.cif
#   From: 2010.05.17/outbox.cif.g08.bks.cpg/sg68_10_cif.got.tgz:19459.got - 2010.06.03 18:57:09.
