data_PCOD9509799
_publ_section_title
;
Structure prediction by ZEFSAII (Michael W. Deem and Ramdas Pophale) SiO2 
 PCOD9509799
Probable space group: C C C A
;
_chemical_formula_sum "Si O2"
_cell_formula_units_Z 72
_cell_length_a 21.835878
_cell_length_b 15.263558
_cell_length_c 9.479469
_cell_angle_alpha 90.000000
_cell_angle_beta 90.000000
_cell_angle_gamma 90.000000
_cell_volume 3159.442466
_symmetry_space_group_name_H-M "C C C A"
_symmetry_group_IT_number 68
_space_group.IT_coordinate_system_code '2'
_symmetry_cell_setting 'orthorhombic'
loop_
_space_group_symop_operation_xyz
x,y,z
-x,1/2-y,z
x,1/2-y,1/2-z
-x,y,1/2-z
-x,-y,-z
x,1/2+y,-z
-x,1/2+y,1/2+z
x,-y,1/2+z
1/2+x,1/2+y,z
1/2-x,-y,z
1/2+x,-y,1/2-z
1/2-x,1/2+y,1/2-z
1/2-x,1/2-y,-z
1/2+x,y,-z
1/2-x,y,1/2+z
1/2+x,1/2-y,1/2+z
loop_
_atom_site_type_symbol
_atom_site_label
_atom_site_fract_x
_atom_site_fract_y
_atom_site_fract_z
Si Si1 0.555752 0.861839 0.640101
Si Si2 0.868500 0.028328 0.156442
Si Si3 0.798447 0.925345 0.381396
Si Si4 0.941161 0.656854 0.678256
Si Si5 0.330341 0.250000 0.250000
O O1 0.500000 0.848026 0.750000
O O2 0.540920 0.834372 0.482744
O O3 0.619049 0.809702 0.669802
O O4 0.574444 0.963618 0.634253
O O5 0.883990 0.098314 0.278119
O O6 0.818964 0.967337 0.232770
O O7 0.848179 0.070788 0.008754
O O8 0.791176 0.821211 0.342025
O O9 0.750000 0.000000 0.430664
O O10 0.931624 0.750000 0.750000
O O11 0.000000 0.614574 0.750000
#
# Coordination Sequence:
#
# PCOD9509799 Si02
#       5
#    16  16  16  16   8
#     4  11  24  41  69 105 145 192 231 286 365 443
#     4  11  23  44  69  96 144 182 241 297 359 424
#     4  11  24  47  71 102 138 188 248 304 366 425
#     4  11  25  39  63 101 142 184 232 289 354 436
#     4  10  25  44  74 102 144 186 233 300 366 432
#
# _framework density 22.788833
#
# number of rings (size 3 to 8) (size 9 to 14) (size 15 to 20)
#    0.000    1.111    2.222    3.000   12.444    1.778 
#    2.000    5.556    0.000    0.000    0.000    0.000 
#    0.000    0.000    0.000    0.000    0.000    0.000 
#
# Total GULP energy -200466.282164 kJ/mol
# GULP energy per Si atom -5568.507838 kJ/mol
# Density = 2.273696 g / cm^3
# Si number density = 22.788833 Si / 1000 Ang^3
#
#
#
# Elastic Constant Matrix: (Units=GPa)
#
#
# Indices 1 2 3 4 5 6 
#
# 1 48.3918 39.7445 19.8671 0.0000 0.0000 0.0000
# 2 39.7445 154.6078 48.7579 0.0000 0.0000 0.0000
# 3 19.8671 48.7579 153.4038 0.0000 0.0000 0.0000
# 4 0.0000 0.0000 0.0000 0.2411 0.0000 0.0000
# 5 0.0000 0.0000 0.0000 0.0000 26.3952 0.0000
# 6 0.0000 0.0000 0.0000 0.0000 0.0000 27.0371
#
#
#
# Elastic Compliance Matrix: (Units=1/GPa)
#
#
# Indices 1 2 3 4 5 6 
#
# 1 0.026465 -0.006360 -0.001406 0.000000 0.000000 0.000000
# 2 -0.006360 0.008717 -0.001947 0.000000 0.000000 0.000000
# 3 -0.001406 -0.001947 0.007320 0.000000 0.000000 0.000000
# 4 0.000000 0.000000 0.000000 4.147265 0.000000 0.000000
# 5 0.000000 0.000000 0.000000 0.000000 0.037886 0.000000
# 6 0.000000 0.000000 0.000000 0.000000 0.000000 0.036986
#
#
# Mechanical properties :
#
#
# Convention : Reuss Voigt Hill
#
# Bulk Modulus (GPa) = 43.33489 63.68248 53.50869
# Shear Modulus (GPa) = 1.16502 27.27029 14.21766
#
# Velocity S-wave (km/s) = 0.71578 3.46302 2.50048
# Velocity P-wave (km/s) = 4.44300 6.63289 5.64515
#
# Compressibility (1/GPa) = 0.02307609
#
# Stress axis : x y z
#
# Youngs Moduli (GPa) = 37.78528 114.71984 136.61862
#
# Poissons Ratio (x) = 0.72961 0.19209
# Poissons Ratio (y) = 0.24031 0.26598
# Poissons Ratio (z) = 0.05313 0.22335
#
# Static dielectric constant tensor:
#      x y z
#    x 2.144570 0.000000 0.000000 
#    y 0.000000 1.991470 0.000000 
#    z 0.000000 0.000000 1.672920 
# 
# From -- ./inp_files/8677.got.cif
#   From: 2010.05.17/outbox.cif.g08.bks.cpg/sg68_5_cif.got.tgz:8677.got - 2010.06.03 18:57:09.
