data_PCOD9509889
_publ_section_title
;
Structure prediction by ZEFSAII (Michael W. Deem and Ramdas Pophale) SiO2 
 PCOD9509889
Probable space group: C C C A
;
_chemical_formula_sum "Si O2"
_cell_formula_units_Z 108
_cell_length_a 14.520371
_cell_length_b 24.207050
_cell_length_c 12.891637
_cell_angle_alpha 90.000000
_cell_angle_beta 90.000000
_cell_angle_gamma 90.000000
_cell_volume 4531.350418
_symmetry_space_group_name_H-M "C C C A"
_symmetry_group_IT_number 68
_space_group.IT_coordinate_system_code '2'
_symmetry_cell_setting 'orthorhombic'
loop_
_space_group_symop_operation_xyz
x,y,z
-x,1/2-y,z
x,1/2-y,1/2-z
-x,y,1/2-z
-x,-y,-z
x,1/2+y,-z
-x,1/2+y,1/2+z
x,-y,1/2+z
1/2+x,1/2+y,z
1/2-x,-y,z
1/2+x,-y,1/2-z
1/2-x,1/2+y,1/2-z
1/2-x,1/2-y,-z
1/2+x,y,-z
1/2-x,y,1/2+z
1/2+x,1/2-y,1/2+z
loop_
_atom_site_type_symbol
_atom_site_label
_atom_site_fract_x
_atom_site_fract_y
_atom_site_fract_z
Si Si1 0.309465 0.849060 0.860687
Si Si2 0.250000 0.000000 0.732774
Si Si3 0.861611 0.097581 0.209095
Si Si4 0.587034 0.921881 0.810500
Si Si5 0.959324 0.644771 0.977023
Si Si6 0.343490 0.220492 0.097901
Si Si7 0.500000 0.750000 0.750000
Si Si8 0.339730 0.147262 0.577243
O O1 0.209240 0.853658 0.815281
O O2 0.374791 0.878458 0.776761
O O3 0.325241 0.785292 0.889302
O O4 0.308891 0.881139 0.970023
O O5 0.310697 0.040027 0.804003
O O6 0.174322 0.037437 0.672717
O O7 0.938655 0.108482 0.124824
O O8 0.867173 0.105327 0.332300
O O9 0.500000 0.948537 0.750000
O O10 0.555816 0.892950 0.918710
O O11 0.060413 0.670302 0.959127
O O12 0.887990 0.694889 0.995032
O O13 0.430459 0.215593 0.177598
O O14 0.246022 0.187532 0.108676
#
# Coordination Sequence:
#
# PCOD9509889 Si02
#       8
#    16   8  16  16  16  16   4  16
#     4  11  24  46  73 107 151 197 252 318 369 441
#     4  10  26  50  80 104 140 186 266 326 398 452
#     4  11  26  48  71 105 149 194 244 320 397 464
#     4  11  24  48  76 112 142 191 262 328 384 456
#     4  12  26  45  74 107 154 200 246 306 384 461
#     4  12  25  44  72 112 148 202 261 301 361 447
#     4  12  24  40  76 104 144 204 268 308 340 422
#     4  12  25  46  71 107 155 199 244 310 379 450
#
# _framework density 23.833955
#
# number of rings (size 3 to 8) (size 9 to 14) (size 15 to 20)
#    0.000    0.593    2.963    5.333    2.074    1.778 
#    2.667    1.481    3.259    0.000    0.000    0.000 
#    0.000    0.000    0.000    0.000    0.000    0.000 
#
# Total GULP energy -300799.981343 kJ/mol
# GULP energy per Si atom -5570.370025 kJ/mol
# Density = 2.377971 g / cm^3
# Si number density = 23.833955 Si / 1000 Ang^3
#
#
#
# Elastic Constant Matrix: (Units=GPa)
#
#
# Indices 1 2 3 4 5 6 
#
# 1 181.9524 49.2580 37.1245 0.0000 0.0000 0.0000
# 2 49.2580 89.4844 23.2073 0.0000 0.0000 0.0000
# 3 37.1245 23.2073 127.5518 0.0000 0.0000 0.0000
# 4 0.0000 0.0000 0.0000 10.0396 0.0000 0.0000
# 5 0.0000 0.0000 0.0000 0.0000 31.8165 0.0000
# 6 0.0000 0.0000 0.0000 0.0000 0.0000 20.8249
#
#
#
# Elastic Compliance Matrix: (Units=1/GPa)
#
#
# Indices 1 2 3 4 5 6 
#
# 1 0.006668 -0.003324 -0.001336 0.000000 0.000000 0.000000
# 2 -0.003324 0.013386 -0.001468 0.000000 0.000000 0.000000
# 3 -0.001336 -0.001468 0.008496 0.000000 0.000000 0.000000
# 4 0.000000 0.000000 0.000000 0.099606 0.000000 0.000000
# 5 0.000000 0.000000 0.000000 0.000000 0.031430 0.000000
# 6 0.000000 0.000000 0.000000 0.000000 0.000000 0.048019
#
#
# Mechanical properties :
#
#
# Convention : Reuss Voigt Hill
#
# Bulk Modulus (GPa) = 61.37371 68.68537 65.02954
# Shear Modulus (GPa) = 22.19332 31.82944 27.01138
#
# Velocity S-wave (km/s) = 3.05481 3.65837 3.37013
# Velocity P-wave (km/s) = 6.18457 6.83562 6.51823
#
# Compressibility (1/GPa) = 0.01629362
#
# Stress axis : x y z
#
# Youngs Moduli (GPa) = 149.95897 74.70645 117.70389
#
# Poissons Ratio (x) = 0.24834 0.15726
# Poissons Ratio (y) = 0.49850 0.17278
# Poissons Ratio (z) = 0.20035 0.10966
#
# Static dielectric constant tensor:
#      x y z
#    x 2.005550 0.000000 0.000000 
#    y 0.000000 1.961680 0.000000 
#    z 0.000000 0.000000 2.012150 
# 
# From -- ./inp_files/13651.got.cif
#   From: 2010.05.17/outbox.cif.g08.bks.cpg/sg68_7_cif.got.tgz:13651.got - 2010.06.03 18:57:09.
