data_PCOD9509049
_publ_section_title
;
Structure prediction by ZEFSAII (Michael W. Deem and Ramdas Pophale) SiO2 
 PCOD9509049
Probable space group: C C C A
;
_chemical_formula_sum "Si O2"
_cell_formula_units_Z 60
_cell_length_a 15.590507
_cell_length_b 12.662081
_cell_length_c 14.187702
_cell_angle_alpha 90.000000
_cell_angle_beta 90.000000
_cell_angle_gamma 90.000000
_cell_volume 2800.769600
_symmetry_space_group_name_H-M "C C C A"
_symmetry_group_IT_number 68
_space_group.IT_coordinate_system_code '2'
_symmetry_cell_setting 'orthorhombic'
loop_
_space_group_symop_operation_xyz
x,y,z
-x,1/2-y,z
x,1/2-y,1/2-z
-x,y,1/2-z
-x,-y,-z
x,1/2+y,-z
-x,1/2+y,1/2+z
x,-y,1/2+z
1/2+x,1/2+y,z
1/2-x,-y,z
1/2+x,-y,1/2-z
1/2-x,1/2+y,1/2-z
1/2-x,1/2-y,-z
1/2+x,y,-z
1/2-x,y,1/2+z
1/2+x,1/2-y,1/2+z
loop_
_atom_site_type_symbol
_atom_site_label
_atom_site_fract_x
_atom_site_fract_y
_atom_site_fract_z
Si Si1 0.750000 0.000000 0.851126
Si Si2 0.136409 0.914855 0.801953
Si Si3 0.500000 0.750000 0.919636
Si Si4 0.000000 0.750000 0.750000
Si Si5 0.825073 0.662126 0.002313
Si Si6 0.500000 0.587048 0.750000
O O1 0.794260 0.913879 0.781445
O O2 0.690775 0.927077 0.917832
O O3 0.064563 0.824531 0.804818
O O4 0.176051 0.903602 0.904673
O O5 0.083138 0.016648 0.769710
O O6 0.585980 0.773285 0.979630
O O7 0.498224 0.654000 0.845382
O O8 0.750000 0.750000 0.000000
#
# Coordination Sequence:
#
# PCOD9509049 Si02
#       6
#     8  16   8   4  16   8
#     4  12  26  46  70 110 148 194 244 314 370 440
#     4  11  24  46  71 104 144 192 243 307 370 436
#     4  11  25  48  71 109 146 194 242 310 369 451
#     4  10  22  46  70  98 140 190 234 302 374 434
#     4  12  28  45  77 110 148 195 254 306 376 453
#     4  10  24  46  76 102 148 194 242 300 380 440
#
# _framework density 21.422684
#
# number of rings (size 3 to 8) (size 9 to 14) (size 15 to 20)
#    0.000    0.800    2.667    3.200    7.467    3.200 
#    0.000    0.000    0.000    0.000    0.000    0.000 
#    0.000    0.000    0.000    0.000    0.000    0.000 
#
# Total GULP energy -167202.346352 kJ/mol
# GULP energy per Si atom -5573.411545 kJ/mol
# Density = 2.137393 g / cm^3
# Si number density = 21.422684 Si / 1000 Ang^3
#
#
#
# Elastic Constant Matrix: (Units=GPa)
#
#
# Indices 1 2 3 4 5 6 
#
# 1 124.0534 44.2067 66.9022 0.0000 0.0000 0.0000
# 2 44.2067 79.6313 53.6173 0.0000 0.0000 0.0000
# 3 66.9022 53.6173 178.3836 0.0000 0.0000 0.0000
# 4 0.0000 0.0000 0.0000 -974.2957 0.0000 0.0000
# 5 0.0000 0.0000 0.0000 0.0000 58.9000 0.0000
# 6 0.0000 0.0000 0.0000 0.0000 0.0000 85.3594
#
#
#
# Elastic Compliance Matrix: (Units=1/GPa)
#
#
# Indices 1 2 3 4 5 6 
#
# 1 0.011133 -0.004224 -0.002906 0.000000 0.000000 0.000000
# 2 -0.004224 0.017347 -0.003630 0.000000 0.000000 0.000000
# 3 -0.002906 -0.003630 0.007787 0.000000 0.000000 0.000000
# 4 0.000000 0.000000 0.000000 -0.001026 0.000000 0.000000
# 5 0.000000 0.000000 0.000000 0.000000 0.016978 0.000000
# 6 0.000000 0.000000 0.000000 0.000000 0.000000 0.011715
#
#
# Mechanical properties :
#
#
# Convention : Reuss Voigt Hill
#
# Bulk Modulus (GPa) = 67.80786 79.05786 73.43286
# Shear Modulus (GPa) = 55.32864 -151.51778 -48.09457
#
# Velocity S-wave (km/s) = 5.08755 -8.41910 -4.74332
# Velocity P-wave (km/s) = 8.13830 7.58449 2.08657
#
# Compressibility (1/GPa) = 0.01474755
#
# Stress axis : x y z
#
# Youngs Moduli (GPa) = 89.81928 57.64748 128.42287
#
# Poissons Ratio (x) = 0.24350 0.37319
# Poissons Ratio (y) = 0.37940 0.46615
# Poissons Ratio (z) = 0.26101 0.20925
#
# Static dielectric constant tensor:
#      x y z
#    x 1.801540 0.000000 0.000000 
#    y 0.000000 1.781840 0.000000 
#    z 0.000000 0.000000 1.761880 
# 
# From -- ./inp_files/20404.got.cif
#   From: 2010.05.17/outbox.cif.g08.bks.cpg/sg68_11_cif.got.tgz:20404.got - 2010.06.03 18:57:09.
