data_PCOD9509120
_publ_section_title
;
Structure prediction by ZEFSAII (Michael W. Deem and Ramdas Pophale) SiO2 
 PCOD9509120
Probable space group: C C C A
;
_chemical_formula_sum "Si O2"
_cell_formula_units_Z 88
_cell_length_a 17.996796
_cell_length_b 26.607767
_cell_length_c 8.495821
_cell_angle_alpha 90.000000
_cell_angle_beta 90.000000
_cell_angle_gamma 90.000000
_cell_volume 4068.262582
_symmetry_space_group_name_H-M "C C C A"
_symmetry_group_IT_number 68
_space_group.IT_coordinate_system_code '2'
_symmetry_cell_setting 'orthorhombic'
loop_
_space_group_symop_operation_xyz
x,y,z
-x,1/2-y,z
x,1/2-y,1/2-z
-x,y,1/2-z
-x,-y,-z
x,1/2+y,-z
-x,1/2+y,1/2+z
x,-y,1/2+z
1/2+x,1/2+y,z
1/2-x,-y,z
1/2+x,-y,1/2-z
1/2-x,1/2+y,1/2-z
1/2-x,1/2-y,-z
1/2+x,y,-z
1/2-x,y,1/2+z
1/2+x,1/2-y,1/2+z
loop_
_atom_site_type_symbol
_atom_site_label
_atom_site_fract_x
_atom_site_fract_y
_atom_site_fract_z
Si Si1 0.642110 0.054661 0.695392
Si Si2 0.021731 0.807690 0.431872
Si Si3 0.848155 0.869532 0.095398
Si Si4 0.500000 0.628046 0.250000
Si Si5 0.550756 0.463452 0.387057
Si Si6 0.221472 0.408612 0.897070
O O1 0.574061 0.093153 0.730093
O O2 0.715628 0.061040 0.800686
O O3 0.671048 0.061142 0.517435
O O4 0.607966 0.999776 0.701489
O O5 0.109378 0.818456 0.433398
O O6 0.000000 0.750000 0.450465
O O7 0.000000 0.822817 0.250000
O O8 0.996979 0.838890 0.588359
O O9 0.901357 0.917092 0.047363
O O10 0.829230 0.879270 0.275732
O O11 0.771797 0.872092 0.002188
O O12 0.500000 0.441461 0.250000
O O13 0.500000 0.500000 0.500000
#
# Coordination Sequence:
#
# PCOD9509120 Si02
#       6
#    16  16  16   8  16  16
#     4  11  22  39  63  94 139 181 235 278 349 419
#     4  11  24  43  71 101 132 171 235 299 359 418
#     4  11  22  41  62  95 131 181 225 280 354 418
#     4  12  21  44  72 102 138 184 235 294 348 428
#     4  12  23  36  59  94 137 181 234 291 334 400
#     4  10  23  39  63  94 138 189 220 286 348 426
#
# _framework density 21.630856999999999
#
# number of rings (size 3 to 8) (size 9 to 14) (size 15 to 20)
#    0.000    0.909    2.727    5.182    0.000    4.364 
#    0.000    0.000    0.000   19.636    0.000    0.000 
#    0.000    0.000    0.000    0.000    0.000    0.000 
#
# Total GULP energy -245652.178670 kJ/mol
# GULP energy per Si atom -5583.004061 kJ/mol
# Density = 2.158162 g / cm^3
# Si number density = 21.630857 Si / 1000 Ang^3
#
#
#
# Elastic Constant Matrix: (Units=GPa)
#
#
# Indices 1 2 3 4 5 6 
#
# 1 98.7817 47.6846 36.5980 0.0000 0.0000 0.0000
# 2 47.6846 116.6060 38.0937 0.0000 0.0000 0.0000
# 3 36.5980 38.0937 149.3872 0.0000 0.0000 0.0000
# 4 0.0000 0.0000 0.0000 20.6794 0.0000 0.0000
# 5 0.0000 0.0000 0.0000 0.0000 45.4440 0.0000
# 6 0.0000 0.0000 0.0000 0.0000 0.0000 17.8966
#
#
#
# Elastic Compliance Matrix: (Units=1/GPa)
#
#
# Indices 1 2 3 4 5 6 
#
# 1 0.013148 -0.004718 -0.002018 0.000000 0.000000 0.000000
# 2 -0.004718 0.011048 -0.001661 0.000000 0.000000 0.000000
# 3 -0.002018 -0.001661 0.007612 0.000000 0.000000 0.000000
# 4 0.000000 0.000000 0.000000 0.048357 0.000000 0.000000
# 5 0.000000 0.000000 0.000000 0.000000 0.022005 0.000000
# 6 0.000000 0.000000 0.000000 0.000000 0.000000 0.055877
#
#
# Mechanical properties :
#
#
# Convention : Reuss Voigt Hill
#
# Bulk Modulus (GPa) = 66.60493 67.72528 67.16510
# Shear Modulus (GPa) = 27.80151 32.96391 30.38271
#
# Velocity S-wave (km/s) = 3.58896 3.90799 3.75187
# Velocity P-wave (km/s) = 6.93056 7.19310 7.06305
#
# Compressibility (1/GPa) = 0.01501390
#
# Stress axis : x y z
#
# Youngs Moduli (GPa) = 76.05518 90.51544 131.36941
#
# Poissons Ratio (x) = 0.42701 0.26513
# Poissons Ratio (y) = 0.35879 0.21826
# Poissons Ratio (z) = 0.15350 0.15039
#
# Static dielectric constant tensor:
#      x y z
#    x 1.785300 0.000000 0.000000 
#    y 0.000000 1.747590 0.000000 
#    z 0.000000 0.000000 1.883000 
# 
# From -- ./inp_files/6420.got.cif
#   From: 2010.05.17/outbox.cif.g08.bks.cpg/sg68_4_cif.got.tgz:6420.got - 2010.06.03 18:57:09.
