data_PCOD9509121
_publ_section_title
;
Structure prediction by ZEFSAII (Michael W. Deem and Ramdas Pophale) SiO2 
 PCOD9509121
Probable space group: C C C A
;
_chemical_formula_sum "Si O2"
_cell_formula_units_Z 64
_cell_length_a 22.255913
_cell_length_b 8.506641
_cell_length_c 14.068718
_cell_angle_alpha 90.000000
_cell_angle_beta 90.000000
_cell_angle_gamma 90.000000
_cell_volume 2663.532770
_symmetry_space_group_name_H-M "C C C A"
_symmetry_group_IT_number 68
_space_group.IT_coordinate_system_code '2'
_symmetry_cell_setting 'orthorhombic'
loop_
_space_group_symop_operation_xyz
x,y,z
-x,1/2-y,z
x,1/2-y,1/2-z
-x,y,1/2-z
-x,-y,-z
x,1/2+y,-z
-x,1/2+y,1/2+z
x,-y,1/2+z
1/2+x,1/2+y,z
1/2-x,-y,z
1/2+x,-y,1/2-z
1/2-x,1/2+y,1/2-z
1/2-x,1/2-y,-z
1/2+x,y,-z
1/2-x,y,1/2+z
1/2+x,1/2-y,1/2+z
loop_
_atom_site_type_symbol
_atom_site_label
_atom_site_fract_x
_atom_site_fract_y
_atom_site_fract_z
Si Si1 0.182039 0.443519 0.372264
Si Si2 0.631981 0.592475 0.795214
Si Si3 0.000000 0.998083 0.750000
Si Si4 0.627074 0.236894 0.482464
Si Si5 0.500000 0.750000 0.417372
O O1 0.250000 0.500000 0.380029
O O2 0.161743 0.450002 0.262149
O O3 0.143445 0.578989 0.426205
O O4 0.167979 0.282737 0.427363
O O5 0.660194 0.750000 0.750000
O O6 0.561605 0.586550 0.769804
O O7 0.636226 0.620851 0.906727
O O8 0.009546 0.893650 0.655517
O O9 0.558873 0.229159 0.518999
#
# Coordination Sequence:
#
# PCOD9509121 Si02
#       5
#    16  16   8  16   8
#     4  11  24  45  67  96 134 178 229 275 332 402
#     4  10  23  39  63  95 130 173 223 273 334 391
#     4  11  21  40  60  98 137 175 214 278 336 399
#     4  11  24  43  67 102 132 182 221 280 340 400
#     4  11  24  38  67 100 140 168 221 278 345 400
#
# _framework density 24.028238999999999
#
# number of rings (size 3 to 8) (size 9 to 14) (size 15 to 20)
#    0.000    1.250    2.500    2.625    7.000    3.000 
#    0.000   10.000    0.000    0.000    0.000    0.000 
#    0.000    0.000    0.000    0.000    0.000    0.000 
#
# Total GULP energy -179024.921957 kJ/mol
# GULP energy per Si atom -5594.528811 kJ/mol
# Density = 2.397355 g / cm^3
# Si number density = 24.028239 Si / 1000 Ang^3
#
#
#
# Elastic Constant Matrix: (Units=GPa)
#
#
# Indices 1 2 3 4 5 6 
#
# 1 93.3011 -16.5530 16.6800 0.0000 0.0000 0.0000
# 2 -16.5530 50.6636 28.5578 0.0000 0.0000 0.0000
# 3 16.6800 28.5578 154.7182 0.0000 0.0000 0.0000
# 4 0.0000 0.0000 0.0000 23.9572 0.0000 0.0000
# 5 0.0000 0.0000 0.0000 0.0000 10.8034 0.0000
# 6 0.0000 0.0000 0.0000 0.0000 0.0000 139.4374
#
#
#
# Elastic Compliance Matrix: (Units=1/GPa)
#
#
# Indices 1 2 3 4 5 6 
#
# 1 0.012046 0.005210 -0.002260 0.000000 0.000000 0.000000
# 2 0.005210 0.024283 -0.005044 0.000000 0.000000 0.000000
# 3 -0.002260 -0.005044 0.007638 0.000000 0.000000 0.000000
# 4 0.000000 0.000000 0.000000 0.041741 0.000000 0.000000
# 5 0.000000 0.000000 0.000000 0.000000 0.092564 0.000000
# 6 0.000000 0.000000 0.000000 0.000000 0.000000 0.007172
#
#
# Mechanical properties :
#
#
# Convention : Reuss Voigt Hill
#
# Bulk Modulus (GPa) = 25.13875 39.56139 32.35007
# Shear Modulus (GPa) = 24.64355 52.83945 38.74150
#
# Velocity S-wave (km/s) = 3.20599 4.69450 4.01974
# Velocity P-wave (km/s) = 4.91827 6.77382 5.91921
#
# Compressibility (1/GPa) = 0.03977922
#
# Stress axis : x y z
#
# Youngs Moduli (GPa) = 83.01235 41.18045 130.92354
#
# Poissons Ratio (x) = -0.21455 0.29593
# Poissons Ratio (y) = -0.43249 0.66036
# Poissons Ratio (z) = 0.18764 0.20771
#
# Static dielectric constant tensor:
#      x y z
#    x 1.844990 0.000000 0.000000 
#    y 0.000000 1.963100 0.000000 
#    z 0.000000 0.000000 1.946340 
# 
# From -- ./inp_files/19265.got.cif
#   From: 2010.05.17/outbox.cif.g08.bks.cpg/sg68_10_cif.got.tgz:19265.got - 2010.06.03 18:57:09.
