data_PCOD9509301
_publ_section_title
;
Structure prediction by ZEFSAII (Michael W. Deem and Ramdas Pophale) SiO2 
 PCOD9509301
Probable space group: C C C A
;
_chemical_formula_sum "Si O2"
_cell_formula_units_Z 96
_cell_length_a 17.084318
_cell_length_b 18.536367
_cell_length_c 13.930813
_cell_angle_alpha 90.000000
_cell_angle_beta 90.000000
_cell_angle_gamma 90.000000
_cell_volume 4411.626416
_symmetry_space_group_name_H-M "C C C A"
_symmetry_group_IT_number 68
_space_group.IT_coordinate_system_code '2'
_symmetry_cell_setting 'orthorhombic'
loop_
_space_group_symop_operation_xyz
x,y,z
-x,1/2-y,z
x,1/2-y,1/2-z
-x,y,1/2-z
-x,-y,-z
x,1/2+y,-z
-x,1/2+y,1/2+z
x,-y,1/2+z
1/2+x,1/2+y,z
1/2-x,-y,z
1/2+x,-y,1/2-z
1/2-x,1/2+y,1/2-z
1/2-x,1/2-y,-z
1/2+x,y,-z
1/2-x,y,1/2+z
1/2+x,1/2-y,1/2+z
loop_
_atom_site_type_symbol
_atom_site_label
_atom_site_fract_x
_atom_site_fract_y
_atom_site_fract_z
Si Si1 0.764179 0.283822 0.604637
Si Si2 0.812683 0.939598 0.913542
Si Si3 0.123579 0.800957 0.835645
Si Si4 0.090985 0.538634 0.727726
Si Si5 0.951772 0.440032 0.942480
Si Si6 0.935838 0.306488 0.555869
O O1 0.750000 0.250000 0.500000
O O2 0.727462 0.363749 0.613275
O O3 0.713236 0.225392 0.660848
O O4 0.856436 0.294457 0.614379
O O5 0.857683 0.973815 0.822308
O O6 0.750000 0.000000 0.948029
O O7 0.879507 0.917991 0.989893
O O8 0.088868 0.750000 0.750000
O O9 0.119937 0.885396 0.814131
O O10 0.084709 0.793917 0.941797
O O11 0.087652 0.473992 0.651893
O O12 0.000000 0.551512 0.750000
O O13 0.018741 0.380915 0.927271
O O14 0.000000 0.500000 0.000000
O O15 0.000000 0.250000 0.585759
#
# Coordination Sequence:
#
# PCOD9509301 Si02
#       6
#    16  16  16  16  16  16
#     4  10  23  43  69  99 143 184 231 294 366 438
#     4  12  26  46  68 107 147 187 245 307 363 439
#     4  11  22  39  69 106 143 178 239 305 365 438
#     4  12  26  43  71 109 142 192 246 308 370 435
#     4  12  23  45  73 103 141 192 244 299 372 441
#     4  11  24  44  73 101 140 193 240 301 369 439
#
# _framework density 21.760683
#
# number of rings (size 3 to 8) (size 9 to 14) (size 15 to 20)
#    0.000    0.667    5.000    3.000    4.667    0.667 
#    3.000    0.000    0.000    0.000    0.000    0.000 
#    0.000    0.000    0.000    0.000    0.000    0.000 
#
# Total GULP energy -267952.430207 kJ/mol
# GULP energy per Si atom -5582.342296 kJ/mol
# Density = 2.171116 g / cm^3
# Si number density = 21.760683 Si / 1000 Ang^3
#
#
#
# Elastic Constant Matrix: (Units=GPa)
#
#
# Indices 1 2 3 4 5 6 
#
# 1 157.4368 34.4141 24.5623 0.0000 0.0000 0.0000
# 2 34.4141 76.6094 -6.6663 0.0000 0.0000 0.0000
# 3 24.5623 -6.6663 65.5006 0.0000 0.0000 0.0000
# 4 0.0000 0.0000 0.0000 32.7719 0.0000 0.0000
# 5 0.0000 0.0000 0.0000 0.0000 29.1985 0.0000
# 6 0.0000 0.0000 0.0000 0.0000 0.0000 49.9331
#
#
#
# Elastic Compliance Matrix: (Units=1/GPa)
#
#
# Indices 1 2 3 4 5 6 
#
# 1 0.007676 -0.003732 -0.003258 0.000000 0.000000 0.000000
# 2 -0.003732 0.014984 0.002924 0.000000 0.000000 0.000000
# 3 -0.003258 0.002924 0.016786 0.000000 0.000000 0.000000
# 4 0.000000 0.000000 0.000000 0.030514 0.000000 0.000000
# 5 0.000000 0.000000 0.000000 0.000000 0.034248 0.000000
# 6 0.000000 0.000000 0.000000 0.000000 0.000000 0.020027
#
#
# Mechanical properties :
#
#
# Convention : Reuss Voigt Hill
#
# Bulk Modulus (GPa) = 31.93320 44.90742 38.42031
# Shear Modulus (GPa) = 35.01291 38.86315 36.93803
#
# Velocity S-wave (km/s) = 4.01558 4.23062 4.12450
# Velocity P-wave (km/s) = 6.01718 6.67427 6.35423
#
# Compressibility (1/GPa) = 0.03131537
#
# Stress axis : x y z
#
# Youngs Moduli (GPa) = 130.28034 66.73799 59.57186
#
# Poissons Ratio (x) = 0.24904 0.19409
# Poissons Ratio (y) = 0.48615 -0.17421
# Poissons Ratio (z) = 0.42447 -0.19516
#
# Static dielectric constant tensor:
#      x y z
#    x 1.774880 0.000000 0.000000 
#    y 0.000000 1.742930 0.000000 
#    z 0.000000 0.000000 1.881430 
# 
# From -- ./inp_files/22393.got.cif
#   From: 2010.05.17/outbox.cif.g08.bks.cpg/sg68_12_cif.got.tgz:22393.got - 2010.06.03 18:57:09.
