data_PCOD9509204
_publ_section_title
;
Structure prediction by ZEFSAII (Michael W. Deem and Ramdas Pophale) SiO2 
 PCOD9509204
Probable space group: C C C A
;
_chemical_formula_sum "Si O2"
_cell_formula_units_Z 48
_cell_length_a 13.233957
_cell_length_b 15.511685
_cell_length_c 8.566053
_cell_angle_alpha 90.000000
_cell_angle_beta 90.000000
_cell_angle_gamma 90.000000
_cell_volume 1758.447689
_symmetry_space_group_name_H-M "C C C A"
_symmetry_group_IT_number 68
_space_group.IT_coordinate_system_code '2'
_symmetry_cell_setting 'orthorhombic'
loop_
_space_group_symop_operation_xyz
x,y,z
-x,1/2-y,z
x,1/2-y,1/2-z
-x,y,1/2-z
-x,-y,-z
x,1/2+y,-z
-x,1/2+y,1/2+z
x,-y,1/2+z
1/2+x,1/2+y,z
1/2-x,-y,z
1/2+x,-y,1/2-z
1/2-x,1/2+y,1/2-z
1/2-x,1/2-y,-z
1/2+x,y,-z
1/2-x,y,1/2+z
1/2+x,1/2-y,1/2+z
loop_
_atom_site_type_symbol
_atom_site_label
_atom_site_fract_x
_atom_site_fract_y
_atom_site_fract_z
Si Si1 0.812966 0.813693 0.605888
Si Si2 0.000000 0.953409 0.750000
Si Si3 0.500000 0.750000 0.942372
Si Si4 0.121944 0.407888 0.553859
O O1 0.822954 0.750000 0.750000
O O2 0.750000 0.750000 0.500000
O O3 0.741564 0.897579 0.590705
O O4 0.925517 0.814942 0.537450
O O5 0.085355 0.911422 0.629806
O O6 0.068994 0.013302 0.860114
O O7 0.574872 0.679770 0.869162
#
# Coordination Sequence:
#
# PCOD9509204 Si02
#       4
#    16   8   8  16
#     4  10  23  41  71 108 134 185 254 320 376 437
#     4  10  24  46  66 106 160 198 244 306 384 466
#     4  10  23  43  78 102 143 189 260 326 371 439
#     4  10  24  44  71 103 147 199 248 312 377 459
#
# _framework density 27.296804000000002
#
# number of rings (size 3 to 8) (size 9 to 14) (size 15 to 20)
#    0.000    2.000    0.000    0.500   18.667    0.000 
#    0.000   10.000    0.000    0.000    0.000    0.000 
#    0.000    0.000    0.000    0.000    0.000    0.000 
#
# Total GULP energy -133701.863594 kJ/mol
# GULP energy per Si atom -5570.910983 kJ/mol
# Density = 2.723468 g / cm^3
# Si number density = 27.296804 Si / 1000 Ang^3
#
#
#
# Elastic Constant Matrix: (Units=GPa)
#
#
# Indices 1 2 3 4 5 6 
#
# 1 221.8978 60.3875 26.0837 0.0000 0.0000 0.0000
# 2 60.3875 128.7908 24.9726 0.0000 0.0000 0.0000
# 3 26.0837 24.9726 73.6221 0.0000 0.0000 0.0000
# 4 0.0000 0.0000 0.0000 27.4809 0.0000 0.0000
# 5 0.0000 0.0000 0.0000 0.0000 11.0082 0.0000
# 6 0.0000 0.0000 0.0000 0.0000 0.0000 79.3149
#
#
#
# Elastic Compliance Matrix: (Units=1/GPa)
#
#
# Indices 1 2 3 4 5 6 
#
# 1 0.005247 -0.002248 -0.001097 0.000000 0.000000 0.000000
# 2 -0.002248 0.009274 -0.002349 0.000000 0.000000 0.000000
# 3 -0.001097 -0.002349 0.014768 0.000000 0.000000 0.000000
# 4 0.000000 0.000000 0.000000 0.036389 0.000000 0.000000
# 5 0.000000 0.000000 0.000000 0.000000 0.090841 0.000000
# 6 0.000000 0.000000 0.000000 0.000000 0.000000 0.012608
#
#
# Mechanical properties :
#
#
# Convention : Reuss Voigt Hill
#
# Bulk Modulus (GPa) = 55.85941 71.91093 63.88517
# Shear Modulus (GPa) = 26.81219 44.41860 35.61539
#
# Velocity S-wave (km/s) = 3.13748 4.03829 3.61605
# Velocity P-wave (km/s) = 5.79941 6.93866 6.39446
#
# Compressibility (1/GPa) = 0.01790209
#
# Stress axis : x y z
#
# Youngs Moduli (GPa) = 190.57902 107.82878 67.71254
#
# Poissons Ratio (x) = 0.24236 0.07426
# Poissons Ratio (y) = 0.42836 0.15908
# Poissons Ratio (z) = 0.20899 0.25333
#
# Static dielectric constant tensor:
#      x y z
#    x 1.465890 0.000000 0.000000 
#    y 0.000000 2.035660 0.000000 
#    z 0.000000 0.000000 2.403630 
# 
# From -- ./inp_files/4532.got.cif
#   From: 2010.05.17/outbox.cif.g08.bks.cpg/sg68_3_cif.got.tgz:4532.got - 2010.06.03 18:57:09.
