data_PCOD9509461
_publ_section_title
;
Structure prediction by ZEFSAII (Michael W. Deem and Ramdas Pophale) SiO2 
 PCOD9509461
Probable space group: C C C A
;
_chemical_formula_sum "Si O2"
_cell_formula_units_Z 56
_cell_length_a 11.081094
_cell_length_b 22.866130
_cell_length_c 8.686707
_cell_angle_alpha 90.000000
_cell_angle_beta 90.000000
_cell_angle_gamma 90.000000
_cell_volume 2201.052899
_symmetry_space_group_name_H-M "C C C A"
_symmetry_group_IT_number 68
_space_group.IT_coordinate_system_code '2'
_symmetry_cell_setting 'orthorhombic'
loop_
_space_group_symop_operation_xyz
x,y,z
-x,1/2-y,z
x,1/2-y,1/2-z
-x,y,1/2-z
-x,-y,-z
x,1/2+y,-z
-x,1/2+y,1/2+z
x,-y,1/2+z
1/2+x,1/2+y,z
1/2-x,-y,z
1/2+x,-y,1/2-z
1/2-x,1/2+y,1/2-z
1/2-x,1/2-y,-z
1/2+x,y,-z
1/2-x,y,1/2+z
1/2+x,1/2-y,1/2+z
loop_
_atom_site_type_symbol
_atom_site_label
_atom_site_fract_x
_atom_site_fract_y
_atom_site_fract_z
Si Si1 0.650928 0.539981 0.794606
Si Si2 0.878534 0.926426 0.533526
Si Si3 0.195821 0.250000 0.750000
Si Si4 0.405317 0.199582 0.950986
O O1 0.750000 0.500000 0.703712
O O2 0.735888 0.576097 0.913354
O O3 0.585210 0.487483 0.885997
O O4 0.598280 0.573126 0.649435
O O5 0.942269 0.866728 0.584246
O O6 0.283186 0.288361 0.642727
O O7 0.122444 0.290114 0.868287
O O8 0.500000 0.250000 0.912076
#
# Coordination Sequence:
#
# PCOD9509461 Si02
#       4
#    16  16   8  16
#     4   8  13  26  48  88 123 159 203 246 337 389
#     4   9  15  27  52  86 126 154 202 265 316 392
#     4  10  24  40  60  88 126 174 222 268 334 368
#     4  11  22  39  62  95 129 174 225 267 328 401
#
# _framework density 25.442371000000001
#
# number of rings (size 3 to 8) (size 9 to 14) (size 15 to 20)
#    1.714    0.571    2.857    2.571    0.000    0.000 
#    0.000    0.000    0.000    0.000    0.000  136.000 
#    0.000    0.000    0.000    0.000    0.000    0.000 
#
# Total GULP energy -155948.313737 kJ/mol
# GULP energy per Si atom -5569.582633 kJ/mol
# Density = 2.538446 g / cm^3
# Si number density = 25.442371 Si / 1000 Ang^3
#
#
#
# Elastic Constant Matrix: (Units=GPa)
#
#
# Indices 1 2 3 4 5 6 
#
# 1 45.5019 54.3369 43.6929 0.0000 0.0000 0.0000
# 2 54.3369 176.5229 59.3046 0.0000 0.0000 0.0000
# 3 43.6929 59.3046 198.1420 0.0000 0.0000 0.0000
# 4 0.0000 0.0000 0.0000 -52.3502 0.0000 0.0000
# 5 0.0000 0.0000 0.0000 0.0000 39.8142 0.0000
# 6 0.0000 0.0000 0.0000 0.0000 0.0000 14.6921
#
#
#
# Elastic Compliance Matrix: (Units=1/GPa)
#
#
# Indices 1 2 3 4 5 6 
#
# 1 0.039769 -0.010335 -0.005676 0.000000 0.000000 0.000000
# 2 -0.010335 0.008984 -0.000410 0.000000 0.000000 0.000000
# 3 -0.005676 -0.000410 0.006421 0.000000 0.000000 0.000000
# 4 0.000000 0.000000 0.000000 -0.019102 0.000000 0.000000
# 5 0.000000 0.000000 0.000000 0.000000 0.025117 0.000000
# 6 0.000000 0.000000 0.000000 0.000000 0.000000 0.068064
#
#
# Mechanical properties :
#
#
# Convention : Reuss Voigt Hill
#
# Bulk Modulus (GPa) = 44.77828 81.64840 63.21334
# Shear Modulus (GPa) = 29.49179 17.95338 23.72259
#
# Velocity S-wave (km/s) = 3.40834 2.65929 3.05684
# Velocity P-wave (km/s) = 5.75562 6.44905 6.11218
#
# Compressibility (1/GPa) = 0.02233226
#
# Stress axis : x y z
#
# Youngs Moduli (GPa) = 25.14522 111.31038 155.73109
#
# Poissons Ratio (x) = 1.15034 0.88399
# Poissons Ratio (y) = 0.25986 0.06385
# Poissons Ratio (z) = 0.14273 0.04564
#
# Static dielectric constant tensor:
#      x y z
#    x 2.478630 0.000000 0.000000 
#    y 0.000000 1.995480 0.000000 
#    z 0.000000 0.000000 1.960720 
# 
# From -- ./inp_files/3901.got.cif
#   From: 2010.05.17/outbox.cif.g08.bks.cpg/sg68_2_cif.got.tgz:3901.got - 2010.06.03 18:57:09.
