data_PCOD9509288
_publ_section_title
;
Structure prediction by ZEFSAII (Michael W. Deem and Ramdas Pophale) SiO2 
 PCOD9509288
Probable space group: C C C A
;
_chemical_formula_sum "Si O2"
_cell_formula_units_Z 88
_cell_length_a 28.102811
_cell_length_b 10.540629
_cell_length_c 14.011862
_cell_angle_alpha 90.000000
_cell_angle_beta 90.000000
_cell_angle_gamma 90.000000
_cell_volume 4150.612042
_symmetry_space_group_name_H-M "C C C A"
_symmetry_group_IT_number 68
_space_group.IT_coordinate_system_code '2'
_symmetry_cell_setting 'orthorhombic'
loop_
_space_group_symop_operation_xyz
x,y,z
-x,1/2-y,z
x,1/2-y,1/2-z
-x,y,1/2-z
-x,-y,-z
x,1/2+y,-z
-x,1/2+y,1/2+z
x,-y,1/2+z
1/2+x,1/2+y,z
1/2-x,-y,z
1/2+x,-y,1/2-z
1/2-x,1/2+y,1/2-z
1/2-x,1/2-y,-z
1/2+x,y,-z
1/2-x,y,1/2+z
1/2+x,1/2-y,1/2+z
loop_
_atom_site_type_symbol
_atom_site_label
_atom_site_fract_x
_atom_site_fract_y
_atom_site_fract_z
Si Si1 0.469072 0.127412 0.983270
Si Si2 0.906935 0.616040 0.797523
Si Si3 0.697167 0.188478 0.349539
Si Si4 0.750000 0.500000 0.034858
Si Si5 0.654421 0.060941 0.063533
Si Si6 0.106266 0.525879 0.383902
O O1 0.500000 0.250000 0.000696
O O2 0.447905 0.134620 0.876165
O O3 0.426231 0.125176 0.059968
O O4 0.500000 0.000000 0.000000
O O5 0.890576 0.750000 0.750000
O O6 0.869256 0.530002 0.857367
O O7 0.920973 0.535579 0.704168
O O8 0.711214 0.250000 0.250000
O O9 0.670414 0.301036 0.404213
O O10 0.655768 0.082180 0.343469
O O11 0.742379 0.124083 0.399858
O O12 0.703396 0.498798 0.971028
O O13 0.620814 0.068322 0.970180
#
# Coordination Sequence:
#
# PCOD9509288 Si02
#       6
#    16  16  16   8  16  16
#     4  11  26  44  70 104 142 178 229 292 352 416
#     4  11  24  44  71 100 134 184 233 280 344 426
#     4  11  22  43  66  98 136 178 233 276 338 418
#     4  10  24  42  64 102 136 176 218 294 338 394
#     4  10  23  43  67  96 136 180 223 277 344 405
#     4  10  24  41  69  95 134 182 225 277 344 409
#
# _framework density 21.201692999999999
#
# number of rings (size 3 to 8) (size 9 to 14) (size 15 to 20)
#    0.000    1.455    1.818    1.636   12.727    3.273 
#    0.000    0.909    0.000    0.000    0.000    0.000 
#    0.000    0.000    0.000    0.000    0.000    0.000 
#
# Total GULP energy -245576.088941 kJ/mol
# GULP energy per Si atom -5581.274749 kJ/mol
# Density = 2.115344 g / cm^3
# Si number density = 21.201693 Si / 1000 Ang^3
#
#
#
# Elastic Constant Matrix: (Units=GPa)
#
#
# Indices 1 2 3 4 5 6 
#
# 1 56.3237 13.3788 32.3264 0.0000 0.0000 0.0000
# 2 13.3788 99.8457 41.3028 0.0000 0.0000 0.0000
# 3 32.3264 41.3028 132.6914 0.0000 0.0000 0.0000
# 4 0.0000 0.0000 0.0000 15.6337 0.0000 0.0000
# 5 0.0000 0.0000 0.0000 0.0000 34.9889 0.0000
# 6 0.0000 0.0000 0.0000 0.0000 0.0000 35.4852
#
#
#
# Elastic Compliance Matrix: (Units=1/GPa)
#
#
# Indices 1 2 3 4 5 6 
#
# 1 0.020695 -0.000789 -0.004796 0.000000 0.000000 0.000000
# 2 -0.000789 0.011526 -0.003395 0.000000 0.000000 0.000000
# 3 -0.004796 -0.003395 0.009762 0.000000 0.000000 0.000000
# 4 0.000000 0.000000 0.000000 0.063964 0.000000 0.000000
# 5 0.000000 0.000000 0.000000 0.000000 0.028580 0.000000
# 6 0.000000 0.000000 0.000000 0.000000 0.000000 0.028181
#
#
# Mechanical properties :
#
#
# Convention : Reuss Voigt Hill
#
# Bulk Modulus (GPa) = 41.63022 51.43074 46.53048
# Shear Modulus (GPa) = 26.50056 30.67843 28.58949
#
# Velocity S-wave (km/s) = 3.53927 3.80805 3.67611
# Velocity P-wave (km/s) = 6.03157 6.60647 6.32555
#
# Compressibility (1/GPa) = 0.02402101
#
# Stress axis : x y z
#
# Youngs Moduli (GPa) = 48.32190 86.76235 102.44243
#
# Poissons Ratio (x) = 0.06846 0.49132
# Poissons Ratio (y) = 0.03813 0.34783
# Poissons Ratio (z) = 0.23175 0.29459
#
# Static dielectric constant tensor:
#      x y z
#    x 68.259810 0.000000 0.000000 
#    y 0.000000 1.292670 0.000000 
#    z 0.000000 0.000000 1.773990 
# 
# From -- ./inp_files/26346.got.cif
#   From: 2010.05.17/outbox.cif.g08.bks.cpg/sg68_14_cif.got.tgz:26346.got - 2010.06.03 18:57:09.
