data_PCOD9509953
_publ_section_title
;
Structure prediction by ZEFSAII (Michael W. Deem and Ramdas Pophale) SiO2 
 PCOD9509953
Probable space group: C C C A
;
_chemical_formula_sum "Si O2"
_cell_formula_units_Z 104
_cell_length_a 23.254133
_cell_length_b 8.851362
_cell_length_c 27.164624
_cell_angle_alpha 90.000000
_cell_angle_beta 90.000000
_cell_angle_gamma 90.000000
_cell_volume 5591.314909
_symmetry_space_group_name_H-M "C C C A"
_symmetry_group_IT_number 68
_space_group.IT_coordinate_system_code '2'
_symmetry_cell_setting 'orthorhombic'
loop_
_space_group_symop_operation_xyz
x,y,z
-x,1/2-y,z
x,1/2-y,1/2-z
-x,y,1/2-z
-x,-y,-z
x,1/2+y,-z
-x,1/2+y,1/2+z
x,-y,1/2+z
1/2+x,1/2+y,z
1/2-x,-y,z
1/2+x,-y,1/2-z
1/2-x,1/2+y,1/2-z
1/2-x,1/2-y,-z
1/2+x,y,-z
1/2-x,y,1/2+z
1/2+x,1/2-y,1/2+z
loop_
_atom_site_type_symbol
_atom_site_label
_atom_site_fract_x
_atom_site_fract_y
_atom_site_fract_z
Si Si1 0.926180 0.414934 0.411080
Si Si2 0.000000 0.250000 0.009005
Si Si3 0.000000 0.507185 0.750000
Si Si4 0.874477 0.626111 0.642387
Si Si5 0.377127 0.673109 0.532104
Si Si6 0.683438 0.006483 0.444659
Si Si7 0.402674 0.250000 0.750000
Si Si8 0.481623 0.911855 0.646447
O O1 0.970398 0.372877 0.455104
O O2 0.896693 0.267893 0.389073
O O3 0.879373 0.536943 0.428642
O O4 0.967412 0.480166 0.369869
O O5 0.944703 0.296709 0.977712
O O6 0.946559 0.615385 0.764262
O O7 0.980538 0.408206 0.704883
O O8 0.821899 0.556734 0.611285
O O9 0.871547 0.684605 0.699809
O O10 0.922239 0.494294 0.634353
O O11 0.350594 0.604301 0.482097
O O12 0.344393 0.825939 0.548229
O O13 0.750000 0.000000 0.459252
O O14 0.500000 0.750000 0.626246
#
# Coordination Sequence:
#
# PCOD9509953 Si02
#       8
#    16   8   8  16  16  16   8  16
#     4  12  21  35  58  88 128 160 202 243 307 378
#     4  12  22  36  58  87 128 157 198 240 304 376
#     4   9  17  30  50  86 120 162 188 240 310 384
#     4  11  21  39  58  86 116 164 208 252 307 376
#     4  12  25  39  61  94 124 167 203 260 317 375
#     4  12  25  44  64  87 124 167 219 262 311 370
#     4   9  18  34  60  82 118 154 204 245 316 374
#     4  11  20  31  52  86 128 159 193 243 307 379
#
# _framework density 18.600276999999998
#
# number of rings (size 3 to 8) (size 9 to 14) (size 15 to 20)
#    0.000    0.769    6.154    2.077    3.231    0.000 
#    0.000    0.000    0.000    1.846    0.000    0.000 
#    0.000    0.000    0.000    0.000    0.000    0.000 
#
# Total GULP energy -289728.956576 kJ/mol
# GULP energy per Si atom -5571.710703 kJ/mol
# Density = 1.855794 g / cm^3
# Si number density = 18.600277 Si / 1000 Ang^3
#
#
#
# Elastic Constant Matrix: (Units=GPa)
#
#
# Indices 1 2 3 4 5 6 
#
# 1 64.8449 31.1099 21.2427 0.0000 0.0000 0.0000
# 2 31.1099 82.6728 12.4285 0.0000 0.0000 0.0000
# 3 21.2427 12.4285 78.9088 0.0000 0.0000 0.0000
# 4 0.0000 0.0000 0.0000 24.2107 0.0000 0.0000
# 5 0.0000 0.0000 0.0000 0.0000 8.0492 0.0000
# 6 0.0000 0.0000 0.0000 0.0000 0.0000 16.4657
#
#
#
# Elastic Compliance Matrix: (Units=1/GPa)
#
#
# Indices 1 2 3 4 5 6 
#
# 1 0.020171 -0.006938 -0.004337 0.000000 0.000000 0.000000
# 2 -0.006938 0.014776 -0.000459 0.000000 0.000000 0.000000
# 3 -0.004337 -0.000459 0.013913 0.000000 0.000000 0.000000
# 4 0.000000 0.000000 0.000000 0.041304 0.000000 0.000000
# 5 0.000000 0.000000 0.000000 0.000000 0.124236 0.000000
# 6 0.000000 0.000000 0.000000 0.000000 0.000000 0.060732
#
#
# Mechanical properties :
#
#
# Convention : Reuss Voigt Hill
#
# Bulk Modulus (GPa) = 39.38631 39.55430 39.47031
# Shear Modulus (GPa) = 16.28320 20.52148 18.40234
#
# Velocity S-wave (km/s) = 2.96197 3.32518 3.14882
# Velocity P-wave (km/s) = 5.73749 6.00450 5.87251
#
# Compressibility (1/GPa) = 0.02538953
#
# Stress axis : x y z
#
# Youngs Moduli (GPa) = 49.57608 67.67795 71.87595
#
# Poissons Ratio (x) = 0.46957 0.31175
# Poissons Ratio (y) = 0.34398 0.03302
# Poissons Ratio (z) = 0.21503 0.03109
#
# Static dielectric constant tensor:
#      x y z
#    x 1.630720 0.000000 0.000000 
#    y 0.000000 1.718090 0.000000 
#    z 0.000000 0.000000 1.712960 
# 
# From -- ./inp_files/49484.got.cif
#   From: 2010.05.17/outbox.cif.g08.bks.cpg/sg68_25_cif.got.tgz:49484.got - 2010.06.03 18:57:09.
