data_PCOD9509385
_publ_section_title
;
Structure prediction by ZEFSAII (Michael W. Deem and Ramdas Pophale) SiO2 
 PCOD9509385
Probable space group: C C C A
;
_chemical_formula_sum "Si O2"
_cell_formula_units_Z 68
_cell_length_a 15.855673
_cell_length_b 32.060809
_cell_length_c 5.405844
_cell_angle_alpha 90.000000
_cell_angle_beta 90.000000
_cell_angle_gamma 90.000000
_cell_volume 2748.037572
_symmetry_space_group_name_H-M "C C C A"
_symmetry_group_IT_number 68
_space_group.IT_coordinate_system_code '2'
_symmetry_cell_setting 'orthorhombic'
loop_
_space_group_symop_operation_xyz
x,y,z
-x,1/2-y,z
x,1/2-y,1/2-z
-x,y,1/2-z
-x,-y,-z
x,1/2+y,-z
-x,1/2+y,1/2+z
x,-y,1/2+z
1/2+x,1/2+y,z
1/2-x,-y,z
1/2+x,-y,1/2-z
1/2-x,1/2+y,1/2-z
1/2-x,1/2-y,-z
1/2+x,y,-z
1/2-x,y,1/2+z
1/2+x,1/2-y,1/2+z
loop_
_atom_site_type_symbol
_atom_site_label
_atom_site_fract_x
_atom_site_fract_y
_atom_site_fract_z
Si Si1 0.610266 0.814590 0.039006
Si Si2 0.153336 0.983490 0.889952
Si Si3 0.225544 0.155318 0.105728
Si Si4 0.000000 0.250000 0.750000
Si Si5 0.051407 0.407345 0.992400
O O1 0.704125 0.808826 0.928746
O O2 0.553492 0.778619 0.936804
O O3 0.635299 0.825012 0.326186
O O4 0.575359 0.859131 0.952770
O O5 0.133147 0.936435 0.968424
O O6 0.115379 0.990518 0.618384
O O7 0.250000 0.000000 0.867123
O O8 0.261248 0.131884 0.348618
O O9 0.000000 0.409498 0.250000
O O10 0.000000 0.421114 0.750000
#
# Coordination Sequence:
#
# PCOD9509385 Si02
#       5
#    16  16  16   4  16
#     4  10  24  44  74 105 147 197 248 305 372 437
#     4  10  23  45  71 106 141 191 245 289 356 443
#     4   8  20  42  69  96 134 183 250 290 356 430
#     4  12  24  48  74 108 154 198 250 324 386 432
#     4  12  27  43  72 110 156 188 239 306 378 439
#
# _framework density 24.744928999999999
#
# number of rings (size 3 to 8) (size 9 to 14) (size 15 to 20)
#    1.412    0.471    1.176    1.412    3.294    7.529 
#    0.000    4.118    0.000    0.000    0.000    0.000 
#    0.000    0.000    0.000    0.000    0.000    0.000 
#
# Total GULP energy -189338.851534 kJ/mol
# GULP energy per Si atom -5568.789751 kJ/mol
# Density = 2.468861 g / cm^3
# Si number density = 24.744929 Si / 1000 Ang^3
#
#
#
# Elastic Constant Matrix: (Units=GPa)
#
#
# Indices 1 2 3 4 5 6 
#
# 1 79.9665 49.9889 12.4486 0.0000 0.0000 0.0000
# 2 49.9889 110.3812 0.7507 0.0000 0.0000 0.0000
# 3 12.4486 0.7507 175.8661 0.0000 0.0000 0.0000
# 4 0.0000 0.0000 0.0000 61.6598 0.0000 0.0000
# 5 0.0000 0.0000 0.0000 0.0000 30.9570 0.0000
# 6 0.0000 0.0000 0.0000 0.0000 0.0000 42.9438
#
#
#
# Elastic Compliance Matrix: (Units=1/GPa)
#
#
# Indices 1 2 3 4 5 6 
#
# 1 0.017701 -0.008008 -0.001219 0.000000 0.000000 0.000000
# 2 -0.008008 0.012683 0.000513 0.000000 0.000000 0.000000
# 3 -0.001219 0.000513 0.005770 0.000000 0.000000 0.000000
# 4 0.000000 0.000000 0.000000 0.016218 0.000000 0.000000
# 5 0.000000 0.000000 0.000000 0.000000 0.032303 0.000000
# 6 0.000000 0.000000 0.000000 0.000000 0.000000 0.023286
#
#
# Mechanical properties :
#
#
# Convention : Reuss Voigt Hill
#
# Bulk Modulus (GPa) = 53.40265 54.73223 54.06744
# Shear Modulus (GPa) = 37.98494 47.31384 42.64939
#
# Velocity S-wave (km/s) = 3.92223 4.37746 4.15608
# Velocity P-wave (km/s) = 6.49153 6.90768 6.70284
#
# Compressibility (1/GPa) = 0.01872566
#
# Stress axis : x y z
#
# Youngs Moduli (GPa) = 56.49402 78.84770 173.30343
#
# Poissons Ratio (x) = 0.63142 0.21122
# Poissons Ratio (y) = 0.45241 -0.08885
# Poissons Ratio (z) = 0.06885 -0.04043
#
# Static dielectric constant tensor:
#      x y z
#    x 1.934900 0.000000 0.000000 
#    y 0.000000 1.893710 0.000000 
#    z 0.000000 0.000000 2.167000 
# 
# From -- ./inp_files/1634.got.cif
#   From: 2010.05.17/outbox.cif.g08.bks.cpg/sg68_1_cif.got.tgz:1634.got - 2010.06.03 18:57:09.
