data_PCOD9509217
_publ_section_title
;
Structure prediction by ZEFSAII (Michael W. Deem and Ramdas Pophale) SiO2 
 PCOD9509217
Probable space group: C C C A
;
_chemical_formula_sum "Si O2"
_cell_formula_units_Z 64
_cell_length_a 11.463326
_cell_length_b 8.002096
_cell_length_c 32.635120
_cell_angle_alpha 90.000000
_cell_angle_beta 90.000000
_cell_angle_gamma 90.000000
_cell_volume 2993.640285
_symmetry_space_group_name_H-M "C C C A"
_symmetry_group_IT_number 68
_space_group.IT_coordinate_system_code '2'
_symmetry_cell_setting 'orthorhombic'
loop_
_space_group_symop_operation_xyz
x,y,z
-x,1/2-y,z
x,1/2-y,1/2-z
-x,y,1/2-z
-x,-y,-z
x,1/2+y,-z
-x,1/2+y,1/2+z
x,-y,1/2+z
1/2+x,1/2+y,z
1/2-x,-y,z
1/2+x,-y,1/2-z
1/2-x,1/2+y,1/2-z
1/2-x,1/2-y,-z
1/2+x,y,-z
1/2-x,y,1/2+z
1/2+x,1/2-y,1/2+z
loop_
_atom_site_type_symbol
_atom_site_label
_atom_site_fract_x
_atom_site_fract_y
_atom_site_fract_z
Si Si1 0.759958 0.697509 0.796102
Si Si2 0.750000 0.000000 0.517426
Si Si3 0.119412 0.072897 0.140758
Si Si4 0.500000 0.250000 0.327693
Si Si5 0.622584 0.312873 0.547567
O O1 0.790591 0.750000 0.750000
O O2 0.750000 0.500000 0.800962
O O3 0.858523 0.779076 0.825968
O O4 0.623788 0.748791 0.803908
O O5 0.651422 0.957154 0.484408
O O6 0.783273 0.836886 0.543224
O O7 0.108642 0.135299 0.094479
O O8 0.250000 0.000000 0.142364
O O9 0.022688 0.927358 0.148543
O O10 0.500000 0.250000 0.533109
#
# Coordination Sequence:
#
# PCOD9509217 Si02
#       5
#    16   8  16   8  16
#     4  11  24  42  66  95 130 169 219 267 324 393
#     4  10  24  44  62  92 130 164 210 274 318 398
#     4  10  23  42  64  96 130 169 213 271 321 388
#     4  10  23  42  64  90 132 174 214 264 330 378
#     4  11  23  41  66  93 126 168 214 260 332 386
#
# _framework density 21.378654999999998
#
# number of rings (size 3 to 8) (size 9 to 14) (size 15 to 20)
#    0.000    1.500    1.250    3.375    5.250    2.000 
#    2.250    1.250    0.000    0.000    0.000    0.000 
#    0.000    0.000    0.000    0.000    0.000    0.000 
#
# Total GULP energy -178156.108505 kJ/mol
# GULP energy per Si atom -5567.378391 kJ/mol
# Density = 2.133000 g / cm^3
# Si number density = 21.378655 Si / 1000 Ang^3
#
#
#
# Elastic Constant Matrix: (Units=GPa)
#
#
# Indices 1 2 3 4 5 6 
#
# 1 60.8246 12.9320 17.3517 0.0000 0.0000 0.0000
# 2 12.9320 116.5919 62.0769 0.0000 0.0000 0.0000
# 3 17.3517 62.0769 125.1875 0.0000 0.0000 0.0000
# 4 0.0000 0.0000 0.0000 51.9448 0.0000 0.0000
# 5 0.0000 0.0000 0.0000 0.0000 77.4180 0.0000
# 6 0.0000 0.0000 0.0000 0.0000 0.0000 43.4201
#
#
#
# Elastic Compliance Matrix: (Units=1/GPa)
#
#
# Indices 1 2 3 4 5 6 
#
# 1 0.017182 -0.000867 -0.001952 0.000000 0.000000 0.000000
# 2 -0.000867 0.011697 -0.005680 0.000000 0.000000 0.000000
# 3 -0.001952 -0.005680 0.011075 0.000000 0.000000 0.000000
# 4 0.000000 0.000000 0.000000 0.019251 0.000000 0.000000
# 5 0.000000 0.000000 0.000000 0.000000 0.012917 0.000000
# 6 0.000000 0.000000 0.000000 0.000000 0.000000 0.023031
#
#
# Mechanical properties :
#
#
# Convention : Reuss Voigt Hill
#
# Bulk Modulus (GPa) = 43.55949 54.14725 48.85337
# Shear Modulus (GPa) = 41.73521 48.57280 45.15400
#
# Velocity S-wave (km/s) = 4.42315 4.77175 4.60075
# Velocity P-wave (km/s) = 6.81947 7.46606 7.15008
#
# Compressibility (1/GPa) = 0.02295711
#
# Stress axis : x y z
#
# Youngs Moduli (GPa) = 58.20130 85.48915 90.29151
#
# Poissons Ratio (x) = 0.07408 0.17623
# Poissons Ratio (y) = 0.05043 0.51288
# Poissons Ratio (z) = 0.11360 0.48560
#
# Static dielectric constant tensor:
#      x y z
#    x 1.270380 0.000000 0.000000 
#    y 0.000000 1.903480 0.000000 
#    z 0.000000 0.000000 1.453190 
# 
# From -- ./inp_files/54412.got.cif
#   From: 2010.05.17/outbox.cif.g08.bks.cpg/sg68_28_cif.got.tgz:54412.got - 2010.06.03 18:57:09.
