data_PCOD9509798
_publ_section_title
;
Structure prediction by ZEFSAII (Michael W. Deem and Ramdas Pophale) SiO2 
 PCOD9509798
Probable space group: C C C A
;
_chemical_formula_sum "Si O2"
_cell_formula_units_Z 64
_cell_length_a 14.545635
_cell_length_b 22.370229
_cell_length_c 8.091016
_cell_angle_alpha 90.000000
_cell_angle_beta 90.000000
_cell_angle_gamma 90.000000
_cell_volume 2632.729109
_symmetry_space_group_name_H-M "C C C A"
_symmetry_group_IT_number 68
_space_group.IT_coordinate_system_code '2'
_symmetry_cell_setting 'orthorhombic'
loop_
_space_group_symop_operation_xyz
x,y,z
-x,1/2-y,z
x,1/2-y,1/2-z
-x,y,1/2-z
-x,-y,-z
x,1/2+y,-z
-x,1/2+y,1/2+z
x,-y,1/2+z
1/2+x,1/2+y,z
1/2-x,-y,z
1/2+x,-y,1/2-z
1/2-x,1/2+y,1/2-z
1/2-x,1/2-y,-z
1/2+x,y,-z
1/2-x,y,1/2+z
1/2+x,1/2-y,1/2+z
loop_
_atom_site_type_symbol
_atom_site_label
_atom_site_fract_x
_atom_site_fract_y
_atom_site_fract_z
Si Si1 0.855921 0.750917 0.447127
Si Si2 0.940990 0.629070 0.579990
Si Si3 0.616821 0.613906 0.559982
Si Si4 0.273571 0.931180 0.249427
O O1 0.866035 0.750000 0.250000
O O2 0.750000 0.750000 0.500000
O O3 0.908615 0.695243 0.526386
O O4 0.887749 0.816936 0.495347
O O5 0.849396 0.591973 0.619403
O O6 0.000000 0.629983 0.750000
O O7 0.009687 0.597785 0.448274
O O8 0.676615 0.579236 0.423887
O O9 0.679406 0.606446 0.722370
O O10 0.250000 0.000000 0.228371
#
# Coordination Sequence:
#
# PCOD9509798 Si02
#       4
#    16  16  16  16
#     4  12  25  44  76 111 150 189 239 304 374 442
#     4  10  25  44  73 105 143 190 237 298 376 433
#     4  11  24  44  69 101 143 183 235 296 362 429
#     4  11  24  45  69  98 138 191 241 294 353 425
#
# _framework density 24.309376
#
# number of rings (size 3 to 8) (size 9 to 14) (size 15 to 20)
#    0.000    1.000    2.500    3.000    3.500    6.000 
#    0.000    2.500    0.000    0.000    0.000    0.000 
#    0.000    0.000    0.000    0.000    0.000    0.000 
#
# Total GULP energy -179183.479145 kJ/mol
# GULP energy per Si atom -5599.483723 kJ/mol
# Density = 2.425405 g / cm^3
# Si number density = 24.309376 Si / 1000 Ang^3
#
#
#
# Elastic Constant Matrix: (Units=GPa)
#
#
# Indices 1 2 3 4 5 6 
#
# 1 172.9357 53.2815 32.8073 0.0000 0.0000 0.0000
# 2 53.2815 157.0816 29.6892 0.0000 0.0000 0.0000
# 3 32.8073 29.6892 75.0591 0.0000 0.0000 0.0000
# 4 0.0000 0.0000 0.0000 16.6363 0.0000 0.0000
# 5 0.0000 0.0000 0.0000 0.0000 38.6882 0.0000
# 6 0.0000 0.0000 0.0000 0.0000 0.0000 -4.5419
#
#
#
# Elastic Compliance Matrix: (Units=1/GPa)
#
#
# Indices 1 2 3 4 5 6 
#
# 1 0.006783 -0.001881 -0.002221 0.000000 0.000000 0.000000
# 2 -0.001881 0.007402 -0.002106 0.000000 0.000000 0.000000
# 3 -0.002221 -0.002106 0.015126 0.000000 0.000000 0.000000
# 4 0.000000 0.000000 0.000000 0.060109 0.000000 0.000000
# 5 0.000000 0.000000 0.000000 0.000000 0.025848 0.000000
# 6 0.000000 0.000000 0.000000 0.000000 0.000000 -0.220171
#
#
# Mechanical properties :
#
#
# Convention : Reuss Voigt Hill
#
# Bulk Modulus (GPa) = 59.18331 70.73694 64.96013
# Shear Modulus (GPa) = -57.56763 29.44308 -14.06227
#
# Velocity S-wave (km/s) = -4.87162 3.48398 -2.40775
# Velocity P-wave (km/s) = 2.69162 6.73394 4.36470
#
# Compressibility (1/GPa) = 0.01689666
#
# Stress axis : x y z
#
# Youngs Moduli (GPa) = 147.41892 135.09532 66.10952
#
# Poissons Ratio (x) = 0.25413 0.14682
# Poissons Ratio (y) = 0.27732 0.13920
# Poissons Ratio (z) = 0.32740 0.28447
#
# Static dielectric constant tensor:
#      x y z
#    x 2.013530 0.000000 0.000000 
#    y 0.000000 1.886040 0.000000 
#    z 0.000000 0.000000 2.037250 
# 
# From -- ./inp_files/5005.got.cif
#   From: 2010.05.17/outbox.cif.g08.bks.cpg/sg68_3_cif.got.tgz:5005.got - 2010.06.03 18:57:09.
