data_PCOD9509908
_publ_section_title
;
Structure prediction by ZEFSAII (Michael W. Deem and Ramdas Pophale) SiO2 
 PCOD9509908
Probable space group: C C C A
;
_chemical_formula_sum "Si O2"
_cell_formula_units_Z 72
_cell_length_a 8.536155
_cell_length_b 20.076601
_cell_length_c 18.221581
_cell_angle_alpha 90.000000
_cell_angle_beta 90.000000
_cell_angle_gamma 90.000000
_cell_volume 3122.759486
_symmetry_space_group_name_H-M "C C C A"
_symmetry_group_IT_number 68
_space_group.IT_coordinate_system_code '2'
_symmetry_cell_setting 'orthorhombic'
loop_
_space_group_symop_operation_xyz
x,y,z
-x,1/2-y,z
x,1/2-y,1/2-z
-x,y,1/2-z
-x,-y,-z
x,1/2+y,-z
-x,1/2+y,1/2+z
x,-y,1/2+z
1/2+x,1/2+y,z
1/2-x,-y,z
1/2+x,-y,1/2-z
1/2-x,1/2+y,1/2-z
1/2-x,1/2-y,-z
1/2+x,y,-z
1/2-x,y,1/2+z
1/2+x,1/2-y,1/2+z
loop_
_atom_site_type_symbol
_atom_site_label
_atom_site_fract_x
_atom_site_fract_y
_atom_site_fract_z
Si Si1 0.825560 0.782775 0.386010
Si Si2 0.357034 0.602205 0.458975
Si Si3 0.313497 0.128888 0.243566
Si Si4 0.750000 0.500000 0.144721
Si Si5 0.806290 0.356155 0.406720
O O1 0.786713 0.849940 0.431271
O O2 0.769653 0.807686 0.306180
O O3 0.726988 0.721870 0.415964
O O4 0.000000 0.750000 0.383936
O O5 0.366090 0.533019 0.414674
O O6 0.317479 0.600988 0.544860
O O7 0.519003 0.634115 0.434906
O O8 0.500000 0.135669 0.250000
O O9 0.226048 0.127817 0.321184
O O10 0.288834 0.061087 0.198006
#
# Coordination Sequence:
#
# PCOD9509908 Si02
#       5
#    16  16  16   8  16
#     4  11  22  45  73 107 144 184 240 300 369 435
#     4  11  27  47  71 109 145 198 238 308 361 438
#     4  11  25  45  77 103 140 195 236 303 361 432
#     4  10  28  48  70 104 148 180 260 290 364 434
#     4  12  25  44  74 107 146 188 244 298 376 427
#
# _framework density 23.056529999999999
#
# number of rings (size 3 to 8) (size 9 to 14) (size 15 to 20)
#    0.000    0.889    2.222    3.333    6.222    4.444 
#    0.000    4.444    0.000    0.000    0.000    0.000 
#    0.000    0.000    0.000    0.000    0.000    0.000 
#
# Total GULP energy -200866.208505 kJ/mol
# GULP energy per Si atom -5579.616903 kJ/mol
# Density = 2.300405 g / cm^3
# Si number density = 23.056530 Si / 1000 Ang^3
#
#
#
# Elastic Constant Matrix: (Units=GPa)
#
#
# Indices 1 2 3 4 5 6 
#
# 1 75.2297 7.4835 39.7327 0.0000 0.0000 0.0000
# 2 7.4835 52.6368 16.6992 0.0000 0.0000 0.0000
# 3 39.7327 16.6992 140.1606 0.0000 0.0000 0.0000
# 4 0.0000 0.0000 0.0000 9.8468 0.0000 0.0000
# 5 0.0000 0.0000 0.0000 0.0000 55.4881 0.0000
# 6 0.0000 0.0000 0.0000 0.0000 0.0000 7.6275
#
#
#
# Elastic Compliance Matrix: (Units=1/GPa)
#
#
# Indices 1 2 3 4 5 6 
#
# 1 0.015670 -0.000851 -0.004341 0.000000 0.000000 0.000000
# 2 -0.000851 0.019791 -0.002117 0.000000 0.000000 0.000000
# 3 -0.004341 -0.002117 0.008617 0.000000 0.000000 0.000000
# 4 0.000000 0.000000 0.000000 0.101556 0.000000 0.000000
# 5 0.000000 0.000000 0.000000 0.000000 0.018022 0.000000
# 6 0.000000 0.000000 0.000000 0.000000 0.000000 0.131105
#
#
# Mechanical properties :
#
#
# Convention : Reuss Voigt Hill
#
# Bulk Modulus (GPa) = 33.94271 43.98424 38.96348
# Shear Modulus (GPa) = 15.66428 28.19991 21.93209
#
# Velocity S-wave (km/s) = 2.60933 3.50105 3.08755
# Velocity P-wave (km/s) = 4.88176 5.95493 5.44485
#
# Compressibility (1/GPa) = 0.02946140
#
# Stress axis : x y z
#
# Youngs Moduli (GPa) = 63.81703 50.52899 116.04459
#
# Poissons Ratio (x) = 0.04299 0.50372
# Poissons Ratio (y) = 0.05429 0.24564
# Poissons Ratio (z) = 0.27701 0.10696
#
# Static dielectric constant tensor:
#      x y z
#    x 1.867820 0.000000 0.000000 
#    y 0.000000 1.717600 0.000000 
#    z 0.000000 0.000000 1.994880 
# 
# From -- ./inp_files/36056.got.cif
#   From: 2010.05.17/outbox.cif.g08.bks.cpg/sg68_19_cif.got.tgz:36056.got - 2010.06.03 18:57:09.
