data_PCOD9509844
_publ_section_title
;
Structure prediction by ZEFSAII (Michael W. Deem and Ramdas Pophale) SiO2 
 PCOD9509844
Probable space group: C C C A
;
_chemical_formula_sum "Si O2"
_cell_formula_units_Z 56
_cell_length_a 12.154055
_cell_length_b 19.144853
_cell_length_c 8.740392
_cell_angle_alpha 90.000000
_cell_angle_beta 90.000000
_cell_angle_gamma 90.000000
_cell_volume 2033.780805
_symmetry_space_group_name_H-M "C C C A"
_symmetry_group_IT_number 68
_space_group.IT_coordinate_system_code '2'
_symmetry_cell_setting 'orthorhombic'
loop_
_space_group_symop_operation_xyz
x,y,z
-x,1/2-y,z
x,1/2-y,1/2-z
-x,y,1/2-z
-x,-y,-z
x,1/2+y,-z
-x,1/2+y,1/2+z
x,-y,1/2+z
1/2+x,1/2+y,z
1/2-x,-y,z
1/2+x,-y,1/2-z
1/2-x,1/2+y,1/2-z
1/2-x,1/2-y,-z
1/2+x,y,-z
1/2-x,y,1/2+z
1/2+x,1/2-y,1/2+z
loop_
_atom_site_type_symbol
_atom_site_label
_atom_site_fract_x
_atom_site_fract_y
_atom_site_fract_z
Si Si1 0.438374 0.923065 0.093387
Si Si2 0.250000 0.000000 0.936125
Si Si3 0.228387 0.849598 0.781083
Si Si4 0.414793 0.186860 0.059657
O O1 0.500000 0.943939 0.250000
O O2 0.639370 0.015705 0.968034
O O3 0.642759 0.860218 0.356311
O O4 0.518972 0.884840 0.975715
O O5 0.258493 0.071116 0.841672
O O6 0.341242 0.823360 0.710187
O O7 0.169103 0.806903 0.914960
O O8 0.500000 0.250000 0.064461
#
# Coordination Sequence:
#
# PCOD9509844 Si02
#       4
#    16   8  16  16
#     4  10  25  50  84 123 167 229 281 356 435 501
#     4  12  24  52  84 128 174 220 290 364 418 538
#     4  11  25  52  87 126 173 228 285 364 420 518
#     4  11  27  55  88 124 176 233 289 356 433 514
#
# _framework density 27.534924
#
# number of rings (size 3 to 8) (size 9 to 14) (size 15 to 20)
#    0.000    1.143    2.857    0.857    0.000   12.000 
#   10.286    2.857    0.000    0.000    0.000    0.000 
#    0.000    0.000    0.000    0.000    0.000    0.000 
#
# Total GULP energy -157243.023302 kJ/mol
# GULP energy per Si atom -5615.822261 kJ/mol
# Density = 2.747225 g / cm^3
# Si number density = 27.534924 Si / 1000 Ang^3
#
#
#
# Elastic Constant Matrix: (Units=GPa)
#
#
# Indices 1 2 3 4 5 6 
#
# 1 230.2951 132.1848 127.4361 0.0000 0.0000 0.0000
# 2 132.1848 210.4550 98.0683 0.0000 0.0000 0.0000
# 3 127.4361 98.0683 127.1396 0.0000 0.0000 0.0000
# 4 0.0000 0.0000 0.0000 28.4866 0.0000 0.0000
# 5 0.0000 0.0000 0.0000 0.0000 84.9674 0.0000
# 6 0.0000 0.0000 0.0000 0.0000 0.0000 82.4857
#
#
#
# Elastic Compliance Matrix: (Units=1/GPa)
#
#
# Indices 1 2 3 4 5 6 
#
# 1 0.010633 -0.002673 -0.008596 0.000000 0.000000 0.000000
# 2 -0.002673 0.008090 -0.003561 0.000000 0.000000 0.000000
# 3 -0.008596 -0.003561 0.019228 0.000000 0.000000 0.000000
# 4 0.000000 0.000000 0.000000 0.035104 0.000000 0.000000
# 5 0.000000 0.000000 0.000000 0.000000 0.011769 0.000000
# 6 0.000000 0.000000 0.000000 0.000000 0.000000 0.012123
#
#
# Mechanical properties :
#
#
# Convention : Reuss Voigt Hill
#
# Bulk Modulus (GPa) = 120.60925 142.58535 131.59730
# Shear Modulus (GPa) = 38.64816 53.20132 45.92474
#
# Velocity S-wave (km/s) = 3.75054 4.40038 4.08839
# Velocity P-wave (km/s) = 7.91535 8.81554 8.37754
#
# Compressibility (1/GPa) = 0.00829124
#
# Stress axis : x y z
#
# Youngs Moduli (GPa) = 94.04343 123.61363 52.00639
#
# Poissons Ratio (x) = 0.33041 0.44707
# Poissons Ratio (y) = 0.25137 0.18518
# Poissons Ratio (z) = 0.80844 0.44016
#
# Static dielectric constant tensor:
#      x y z
#    x 2.236870 0.000000 0.000000 
#    y 0.000000 2.086940 0.000000 
#    z 0.000000 0.000000 2.196680 
# 
# From -- ./inp_files/4751.got.cif
#   From: 2010.05.17/outbox.cif.g08.bks.cpg/sg68_3_cif.got.tgz:4751.got - 2010.06.03 18:57:09.
