data_PCOD9509781
_publ_section_title
;
Structure prediction by ZEFSAII (Michael W. Deem and Ramdas Pophale) SiO2 
 PCOD9509781
Probable space group: C C C A
;
_chemical_formula_sum "Si O2"
_cell_formula_units_Z 120
_cell_length_a 23.402129
_cell_length_b 18.382302
_cell_length_c 12.934722
_cell_angle_alpha 90.000000
_cell_angle_beta 90.000000
_cell_angle_gamma 90.000000
_cell_volume 5564.323419
_symmetry_space_group_name_H-M "C C C A"
_symmetry_group_IT_number 68
_space_group.IT_coordinate_system_code '2'
_symmetry_cell_setting 'orthorhombic'
loop_
_space_group_symop_operation_xyz
x,y,z
-x,1/2-y,z
x,1/2-y,1/2-z
-x,y,1/2-z
-x,-y,-z
x,1/2+y,-z
-x,1/2+y,1/2+z
x,-y,1/2+z
1/2+x,1/2+y,z
1/2-x,-y,z
1/2+x,-y,1/2-z
1/2-x,1/2+y,1/2-z
1/2-x,1/2-y,-z
1/2+x,y,-z
1/2-x,y,1/2+z
1/2+x,1/2-y,1/2+z
loop_
_atom_site_type_symbol
_atom_site_label
_atom_site_fract_x
_atom_site_fract_y
_atom_site_fract_z
Si Si1 0.464698 0.954449 0.853898
Si Si2 0.170430 0.615554 0.755202
Si Si3 0.928798 0.805542 0.845649
Si Si4 0.331602 0.450076 0.184913
Si Si5 0.026051 0.111973 0.455346
Si Si6 0.856218 0.191866 0.042455
Si Si7 0.250000 0.000000 0.489160
Si Si8 0.282366 0.368145 0.372358
O O1 0.500000 0.944678 0.750000
O O2 0.397761 0.941855 0.840084
O O3 0.471551 0.037058 0.892924
O O4 0.491588 0.903071 0.940592
O O5 0.107403 0.626793 0.801585
O O6 0.179452 0.530415 0.734108
O O7 0.172815 0.660012 0.647252
O O8 0.217571 0.645190 0.835162
O O9 0.932335 0.750000 0.750000
O O10 0.888154 0.766711 0.929891
O O11 0.988902 0.831036 0.889847
O O12 0.292972 0.454019 0.082632
O O13 0.313719 0.388531 0.265876
O O14 0.090046 0.138123 0.477843
O O15 0.813428 0.190028 0.945700
O O16 0.282658 0.941897 0.559268
#
# Coordination Sequence:
#
# PCOD9509781 Si02
#       8
#    16  16  16  16  16  16   8  16
#     4  11  24  38  64  99 135 162 202 274 333 397
#     4  11  21  38  60  96 125 161 213 265 322 376
#     4  10  25  41  67  93 125 170 217 273 316 377
#     4  12  21  38  58  97 128 161 212 256 328 396
#     4  11  23  42  65  99 129 171 211 267 341 385
#     4  11  23  42  61  90 127 167 217 266 305 388
#     4  12  20  34  60  94 120 168 200 260 328 386
#     4  12  22  37  65  89 131 172 208 263 327 386
#
# _framework density 21.565964000000001
#
# number of rings (size 3 to 8) (size 9 to 14) (size 15 to 20)
#    0.000    0.800    5.333    2.000    3.733    4.267 
#    0.000    0.000    0.000    4.800    0.000    0.000 
#    0.000    0.000    0.000    0.000    0.000    0.000 
#
# Total GULP energy -335809.727892 kJ/mol
# GULP energy per Si atom -5596.828798 kJ/mol
# Density = 2.151688 g / cm^3
# Si number density = 21.565964 Si / 1000 Ang^3
#
#
#
# Elastic Constant Matrix: (Units=GPa)
#
#
# Indices 1 2 3 4 5 6 
#
# 1 120.3386 -7.4277 60.8734 0.0000 0.0000 0.0000
# 2 -7.4277 10.6626 -12.0471 0.0000 0.0000 0.0000
# 3 60.8734 -12.0471 90.4761 0.0000 0.0000 0.0000
# 4 0.0000 0.0000 0.0000 18.6218 0.0000 0.0000
# 5 0.0000 0.0000 0.0000 0.0000 49.1235 0.0000
# 6 0.0000 0.0000 0.0000 0.0000 0.0000 19.6592
#
#
#
# Elastic Compliance Matrix: (Units=1/GPa)
#
#
# Indices 1 2 3 4 5 6 
#
# 1 0.012605 -0.000943 -0.008607 0.000000 0.000000 0.000000
# 2 -0.000943 0.110464 0.015343 0.000000 0.000000 0.000000
# 3 -0.008607 0.015343 0.018886 0.000000 0.000000 0.000000
# 4 0.000000 0.000000 0.000000 0.053701 0.000000 0.000000
# 5 0.000000 0.000000 0.000000 0.000000 0.020357 0.000000
# 6 0.000000 0.000000 0.000000 0.000000 0.000000 0.050867
#
#
# Mechanical properties :
#
#
# Convention : Reuss Voigt Hill
#
# Bulk Modulus (GPa) = 6.51284 33.80828 20.16056
# Shear Modulus (GPa) = 16.31458 29.48612 22.90035
#
# Velocity S-wave (km/s) = 2.75343 3.70165 3.26218
# Velocity P-wave (km/s) = 3.62423 5.82927 4.85363
#
# Compressibility (1/GPa) = 0.15354284
#
# Stress axis : x y z
#
# Youngs Moduli (GPa) = 79.33151 9.05269 52.94862
#
# Poissons Ratio (x) = 0.00854 0.45571
# Poissons Ratio (y) = 0.07482 -0.81240
# Poissons Ratio (z) = 0.68277 -0.13890
#
# Static dielectric constant tensor:
#      x y z
#    x 1.777690 0.000000 0.000000 
#    y 0.000000 1.776260 0.000000 
#    z 0.000000 0.000000 1.798160 
# 
# From -- ./inp_files/16604.got.cif
#   From: 2010.05.17/outbox.cif.g08.bks.cpg/sg68_9_cif.got.tgz:16604.got - 2010.06.03 18:57:09.
