data_PCOD9509367
_publ_section_title
;
Structure prediction by ZEFSAII (Michael W. Deem and Ramdas Pophale) SiO2 
 PCOD9509367
Probable space group: C C C A
;
_chemical_formula_sum "Si O2"
_cell_formula_units_Z 48
_cell_length_a 20.366620
_cell_length_b 10.839128
_cell_length_c 8.937105
_cell_angle_alpha 90.000000
_cell_angle_beta 90.000000
_cell_angle_gamma 90.000000
_cell_volume 1972.923136
_symmetry_space_group_name_H-M "C C C A"
_symmetry_group_IT_number 68
_space_group.IT_coordinate_system_code '2'
_symmetry_cell_setting 'orthorhombic'
loop_
_space_group_symop_operation_xyz
x,y,z
-x,1/2-y,z
x,1/2-y,1/2-z
-x,y,1/2-z
-x,-y,-z
x,1/2+y,-z
-x,1/2+y,1/2+z
x,-y,1/2+z
1/2+x,1/2+y,z
1/2-x,-y,z
1/2+x,-y,1/2-z
1/2-x,1/2+y,1/2-z
1/2-x,1/2-y,-z
1/2+x,y,-z
1/2-x,y,1/2+z
1/2+x,1/2-y,1/2+z
loop_
_atom_site_type_symbol
_atom_site_label
_atom_site_fract_x
_atom_site_fract_y
_atom_site_fract_z
Si Si1 0.320519 0.006612 0.075939
Si Si2 0.957927 0.910767 0.893630
Si Si3 0.361883 0.768729 0.925865
O O1 0.330104 0.143734 0.012230
O O2 0.250000 0.000000 0.155115
O O3 0.389724 0.978066 0.158352
O O4 0.320846 0.892750 0.959250
O O5 0.000000 0.882757 0.750000
O O6 0.929714 0.797071 0.989395
O O7 0.000000 0.000000 0.000000
O O8 0.369398 0.750000 0.750000
#
# Coordination Sequence:
#
# PCOD9509367 Si02
#       3
#    16  16  16
#     4  10  23  44  76 111 158 209 272 335 413 496
#     4  10  23  45  75 109 158 210 270 333 408 485
#     4  10  23  44  76 111 159 208 272 333 408 485
#
# _framework density 24.329383
#
# number of rings (size 3 to 8) (size 9 to 14) (size 15 to 20)
#    2.000    0.000    0.000    3.000    0.000    2.667 
#    0.000   11.667    0.000    0.000    0.000    0.000 
#    0.000    0.000    0.000    0.667    0.000    0.000 
#
# Total GULP energy -133974.234273 kJ/mol
# GULP energy per Si atom -5582.259761 kJ/mol
# Density = 2.427401 g / cm^3
# Si number density = 24.329383 Si / 1000 Ang^3
#
#
#
# Elastic Constant Matrix: (Units=GPa)
#
#
# Indices 1 2 3 4 5 6 
#
# 1 221.8738 67.8594 64.8906 0.0000 0.0000 0.0000
# 2 67.8594 220.0386 57.9269 0.0000 0.0000 0.0000
# 3 64.8906 57.9269 108.1324 0.0000 0.0000 0.0000
# 4 0.0000 0.0000 0.0000 30.8679 0.0000 0.0000
# 5 0.0000 0.0000 0.0000 0.0000 31.7631 0.0000
# 6 0.0000 0.0000 0.0000 0.0000 0.0000 -33.5707
#
#
#
# Elastic Compliance Matrix: (Units=1/GPa)
#
#
# Indices 1 2 3 4 5 6 
#
# 1 0.005645 -0.000989 -0.002858 0.000000 0.000000 0.000000
# 2 -0.000989 0.005464 -0.002334 0.000000 0.000000 0.000000
# 3 -0.002858 -0.002334 0.012213 0.000000 0.000000 0.000000
# 4 0.000000 0.000000 0.000000 0.032396 0.000000 0.000000
# 5 0.000000 0.000000 0.000000 0.000000 0.031483 0.000000
# 6 0.000000 0.000000 0.000000 0.000000 0.000000 -0.029788
#
#
# Mechanical properties :
#
#
# Convention : Reuss Voigt Hill
#
# Bulk Modulus (GPa) = 91.22854 103.48872 97.35863
# Shear Modulus (GPa) = 68.09304 29.76992 48.93148
#
# Velocity S-wave (km/s) = 5.29611 3.50182 4.48952
# Velocity P-wave (km/s) = 8.65893 7.67979 8.18402
#
# Compressibility (1/GPa) = 0.01096148
#
# Stress axis : x y z
#
# Youngs Moduli (GPa) = 177.13706 183.01879 81.87749
#
# Poissons Ratio (x) = 0.18093 0.23402
# Poissons Ratio (y) = 0.17511 0.19109
# Poissons Ratio (z) = 0.50630 0.42713
#
# Static dielectric constant tensor:
#      x y z
#    x 2.079180 0.000000 0.000000 
#    y 0.000000 2.018190 0.000000 
#    z 0.000000 0.000000 1.921020 
# 
# From -- ./inp_files/5481.got.cif
#   From: 2010.05.17/outbox.cif.g08.bks.cpg/sg68_3_cif.got.tgz:5481.got - 2010.06.03 18:57:09.
