data_PCOD9509213
_publ_section_title
;
Structure prediction by ZEFSAII (Michael W. Deem and Ramdas Pophale) SiO2 
 PCOD9509213
Probable space group: C C C A
;
_chemical_formula_sum "Si O2"
_cell_formula_units_Z 88
_cell_length_a 13.854389
_cell_length_b 13.723221
_cell_length_c 23.784335
_cell_angle_alpha 90.000000
_cell_angle_beta 90.000000
_cell_angle_gamma 90.000000
_cell_volume 4522.040504
_symmetry_space_group_name_H-M "C C C A"
_symmetry_group_IT_number 68
_space_group.IT_coordinate_system_code '2'
_symmetry_cell_setting 'orthorhombic'
loop_
_space_group_symop_operation_xyz
x,y,z
-x,1/2-y,z
x,1/2-y,1/2-z
-x,y,1/2-z
-x,-y,-z
x,1/2+y,-z
-x,1/2+y,1/2+z
x,-y,1/2+z
1/2+x,1/2+y,z
1/2-x,-y,z
1/2+x,-y,1/2-z
1/2-x,1/2+y,1/2-z
1/2-x,1/2-y,-z
1/2+x,y,-z
1/2-x,y,1/2+z
1/2+x,1/2-y,1/2+z
loop_
_atom_site_type_symbol
_atom_site_label
_atom_site_fract_x
_atom_site_fract_y
_atom_site_fract_z
Si Si1 0.487702 0.634316 0.533349
Si Si2 0.860709 0.017930 0.452915
Si Si3 0.500000 0.945831 0.250000
Si Si4 0.346223 0.222346 0.184760
Si Si5 0.039884 0.597408 0.155884
Si Si6 0.323909 0.083036 0.673844
O O1 0.500000 0.750000 0.542519
O O2 0.412767 0.606407 0.485097
O O3 0.588787 0.580404 0.524157
O O4 0.460292 0.575792 0.590256
O O5 0.862944 0.041177 0.385625
O O6 0.750000 0.000000 0.465792
O O7 0.587992 0.895458 0.283761
O O8 0.548299 0.013470 0.201731
O O9 0.340712 0.250000 0.250000
O O10 0.438017 0.151450 0.172299
O O11 0.375047 0.324287 0.158503
O O12 0.247688 0.173598 0.164589
O O13 0.250000 0.000000 0.697245
#
# Coordination Sequence:
#
# PCOD9509213 Si02
#       6
#    16  16   8  16  16  16
#     4  11  22  39  65  92 120 166 212 256 306 368
#     4  10  23  42  62  89 130 161 209 261 315 369
#     4  12  20  37  65  88 122 158 200 248 321 364
#     4  11  19  33  58  91 116 151 207 252 299 369
#     4  11  18  34  63  89 115 153 210 260 289 360
#     4  11  21  38  60  89 122 165 197 256 324 369
#
# _framework density 19.460241
#
# number of rings (size 3 to 8) (size 9 to 14) (size 15 to 20)
#    0.000    1.091    7.273    1.636    0.000    0.727 
#    0.000    5.000    0.000    0.000    0.000    0.000 
#    0.000    0.000    0.000    0.000    0.000    0.000 
#
# Total GULP energy -245096.382025 kJ/mol
# GULP energy per Si atom -5570.372319 kJ/mol
# Density = 1.941595 g / cm^3
# Si number density = 19.460241 Si / 1000 Ang^3
#
#
#
# Elastic Constant Matrix: (Units=GPa)
#
#
# Indices 1 2 3 4 5 6 
#
# 1 124.1177 34.5065 41.8059 0.0000 0.0000 0.0000
# 2 34.5065 49.7977 12.6841 0.0000 0.0000 0.0000
# 3 41.8059 12.6841 74.7432 0.0000 0.0000 0.0000
# 4 0.0000 0.0000 0.0000 28.5217 0.0000 0.0000
# 5 0.0000 0.0000 0.0000 0.0000 31.6104 0.0000
# 6 0.0000 0.0000 0.0000 0.0000 0.0000 27.5592
#
#
#
# Elastic Compliance Matrix: (Units=1/GPa)
#
#
# Indices 1 2 3 4 5 6 
#
# 1 0.011770 -0.006772 -0.005434 0.000000 0.000000 0.000000
# 2 -0.006772 0.024884 -0.000435 0.000000 0.000000 0.000000
# 3 -0.005434 -0.000435 0.016492 0.000000 0.000000 0.000000
# 4 0.000000 0.000000 0.000000 0.035061 0.000000 0.000000
# 5 0.000000 0.000000 0.000000 0.000000 0.031635 0.000000
# 6 0.000000 0.000000 0.000000 0.000000 0.000000 0.036286
#
#
# Mechanical properties :
#
#
# Convention : Reuss Voigt Hill
#
# Bulk Modulus (GPa) = 35.88776 47.40572 41.64674
# Shear Modulus (GPa) = 26.21938 28.18238 27.20088
#
# Velocity S-wave (km/s) = 3.67458 3.80966 3.74273
# Velocity P-wave (km/s) = 6.04028 6.61547 6.33441
#
# Compressibility (1/GPa) = 0.02786465
#
# Stress axis : x y z
#
# Youngs Moduli (GPa) = 84.96334 40.18576 60.63388
#
# Poissons Ratio (x) = 0.27212 0.32949
# Poissons Ratio (y) = 0.57534 0.02640
# Poissons Ratio (z) = 0.46169 0.01750
#
# Static dielectric constant tensor:
#      x y z
#    x 1.744450 0.000000 0.000000 
#    y 0.000000 1.729280 0.000000 
#    z 0.000000 0.000000 1.785290 
# 
# From -- ./inp_files/50172.got.cif
#   From: 2010.05.17/outbox.cif.g08.bks.cpg/sg68_26_cif.got.tgz:50172.got - 2010.06.03 18:57:09.
