data_PCOD9509538
_publ_section_title
;
Structure prediction by ZEFSAII (Michael W. Deem and Ramdas Pophale) SiO2 
 PCOD9509538
Probable space group: C C C A
;
_chemical_formula_sum "Si O2"
_cell_formula_units_Z 104
_cell_length_a 24.203749
_cell_length_b 20.810868
_cell_length_c 9.085570
_cell_angle_alpha 90.000000
_cell_angle_beta 90.000000
_cell_angle_gamma 90.000000
_cell_volume 4576.410927
_symmetry_space_group_name_H-M "C C C A"
_symmetry_group_IT_number 68
_space_group.IT_coordinate_system_code '2'
_symmetry_cell_setting 'orthorhombic'
loop_
_space_group_symop_operation_xyz
x,y,z
-x,1/2-y,z
x,1/2-y,1/2-z
-x,y,1/2-z
-x,-y,-z
x,1/2+y,-z
-x,1/2+y,1/2+z
x,-y,1/2+z
1/2+x,1/2+y,z
1/2-x,-y,z
1/2+x,-y,1/2-z
1/2-x,1/2+y,1/2-z
1/2-x,1/2-y,-z
1/2+x,y,-z
1/2-x,y,1/2+z
1/2+x,1/2-y,1/2+z
loop_
_atom_site_type_symbol
_atom_site_label
_atom_site_fract_x
_atom_site_fract_y
_atom_site_fract_z
Si Si1 0.744024 0.298386 0.137219
Si Si2 0.500000 0.544664 0.750000
Si Si3 0.385821 0.468241 0.704127
Si Si4 0.421111 0.612254 0.937386
Si Si5 0.171298 0.402459 0.730415
Si Si6 0.647763 0.144928 0.918987
Si Si7 0.562264 0.252840 0.926574
O O1 0.715139 0.250000 0.250000
O O2 0.711776 0.365949 0.155973
O O3 0.806691 0.317722 0.177336
O O4 0.750000 0.250000 0.000000
O O5 0.445843 0.501335 0.724757
O O6 0.481865 0.587438 0.891159
O O7 0.389686 0.439451 0.539834
O O8 0.337213 0.520589 0.725436
O O9 0.377759 0.412374 0.823729
O O10 0.388829 0.620306 0.785308
O O11 0.417141 0.678078 0.024000
O O12 0.180040 0.380304 0.563148
O O13 0.601399 0.194675 0.970851
O O14 0.500000 0.250000 0.984743
O O15 0.560506 0.250000 0.750000
#
# Coordination Sequence:
#
# PCOD9509538 Si02
#       7
#    16   8  16  16  16  16  16
#     4  12  26  48  75 103 139 190 238 304 378 445
#     4  10  24  42  69 105 144 194 238 294 368 432
#     4  11  25  45  75  99 146 194 240 296 362 452
#     4  11  24  43  70 105 146 189 245 301 365 442
#     4  11  26  46  68 109 136 184 244 301 372 438
#     4  12  26  47  74 102 147 189 242 306 367 450
#     4  11  25  42  69 104 141 189 245 293 358 439
#
# _framework density 22.72523
#
# number of rings (size 3 to 8) (size 9 to 14) (size 15 to 20)
#    0.000    0.769    3.077    3.692    8.615    0.615 
#    0.000    1.538    0.000    0.000    0.000    0.000 
#    0.000    0.000    0.000    0.000    0.000    0.000 
#
# Total GULP energy -290191.004835 kJ/mol
# GULP energy per Si atom -5580.596247 kJ/mol
# Density = 2.267351 g / cm^3
# Si number density = 22.725230 Si / 1000 Ang^3
#
#
#
# Elastic Constant Matrix: (Units=GPa)
#
#
# Indices 1 2 3 4 5 6 
#
# 1 92.2062 54.4495 2.7353 0.0000 0.0000 0.0000
# 2 54.4495 166.8129 45.3561 0.0000 0.0000 0.0000
# 3 2.7353 45.3561 77.0654 0.0000 0.0000 0.0000
# 4 0.0000 0.0000 0.0000 29.3277 0.0000 0.0000
# 5 0.0000 0.0000 0.0000 0.0000 17.0360 0.0000
# 6 0.0000 0.0000 0.0000 0.0000 0.0000 43.8549
#
#
#
# Elastic Compliance Matrix: (Units=1/GPa)
#
#
# Indices 1 2 3 4 5 6 
#
# 1 0.013854 -0.005224 0.002583 0.000000 0.000000 0.000000
# 2 -0.005224 0.009107 -0.005174 0.000000 0.000000 0.000000
# 3 0.002583 -0.005174 0.015930 0.000000 0.000000 0.000000
# 4 0.000000 0.000000 0.000000 0.034097 0.000000 0.000000
# 5 0.000000 0.000000 0.000000 0.000000 0.058699 0.000000
# 6 0.000000 0.000000 0.000000 0.000000 0.000000 0.022802
#
#
# Mechanical properties :
#
#
# Convention : Reuss Voigt Hill
#
# Bulk Modulus (GPa) = 42.99427 60.12959 51.56193
# Shear Modulus (GPa) = 28.10986 33.61331 30.86158
#
# Velocity S-wave (km/s) = 3.52084 3.85010 3.68915
# Velocity P-wave (km/s) = 5.95724 6.80303 6.39413
#
# Compressibility (1/GPa) = 0.02325892
#
# Stress axis : x y z
#
# Youngs Moduli (GPa) = 72.18294 109.80671 62.77606
#
# Poissons Ratio (x) = 0.57366 -0.16215
# Poissons Ratio (y) = 0.37711 0.32483
# Poissons Ratio (z) = -0.18645 0.56818
#
# Static dielectric constant tensor:
#      x y z
#    x 1.868400 0.000000 0.000000 
#    y 0.000000 1.924610 0.000000 
#    z 0.000000 0.000000 1.836420 
# 
# From -- ./inp_files/8999.got.cif
#   From: 2010.05.17/outbox.cif.g08.bks.cpg/sg68_5_cif.got.tgz:8999.got - 2010.06.03 18:57:09.
