data_PCOD9509495
_publ_section_title
;
Structure prediction by ZEFSAII (Michael W. Deem and Ramdas Pophale) SiO2 
 PCOD9509495
Probable space group: C C C A
;
_chemical_formula_sum "Si O2"
_cell_formula_units_Z 80
_cell_length_a 25.026394
_cell_length_b 14.405573
_cell_length_c 10.708306
_cell_angle_alpha 90.000000
_cell_angle_beta 90.000000
_cell_angle_gamma 90.000000
_cell_volume 3860.553614
_symmetry_space_group_name_H-M "C C C A"
_symmetry_group_IT_number 68
_space_group.IT_coordinate_system_code '2'
_symmetry_cell_setting 'orthorhombic'
loop_
_space_group_symop_operation_xyz
x,y,z
-x,1/2-y,z
x,1/2-y,1/2-z
-x,y,1/2-z
-x,-y,-z
x,1/2+y,-z
-x,1/2+y,1/2+z
x,-y,1/2+z
1/2+x,1/2+y,z
1/2-x,-y,z
1/2+x,-y,1/2-z
1/2-x,1/2+y,1/2-z
1/2-x,1/2-y,-z
1/2+x,y,-z
1/2-x,y,1/2+z
1/2+x,1/2-y,1/2+z
loop_
_atom_site_type_symbol
_atom_site_label
_atom_site_fract_x
_atom_site_fract_y
_atom_site_fract_z
Si Si1 0.637739 0.070414 0.491331
Si Si2 0.399607 0.143263 0.271758
Si Si3 0.797852 0.888241 0.056653
Si Si4 0.967789 0.492077 0.371478
Si Si5 0.701100 0.778875 0.120547
O O1 0.616014 0.082616 0.350986
O O2 0.588867 0.053460 0.587606
O O3 0.662698 0.168413 0.527116
O O4 0.683936 0.990718 0.508659
O O5 0.410693 0.250000 0.250000
O O6 0.349968 0.139663 0.366121
O O7 0.450196 0.094589 0.332128
O O8 0.748356 0.854832 0.144473
O O9 0.784406 0.819340 0.942215
O O10 0.000000 0.452798 0.250000
O O11 0.000000 0.500000 0.500000
O O12 0.675067 0.750000 0.250000
#
# Coordination Sequence:
#
# PCOD9509495 Si02
#       5
#    16  16  16  16  16
#     4  11  24  43  69  98 132 183 220 282 345 406
#     4  11  22  43  72  96 134 176 230 277 342 411
#     4  10  24  41  64  96 137 176 222 272 326 412
#     4  11  24  45  70  98 132 173 229 288 350 409
#     4  11  24  41  64  99 139 176 223 276 333 403
#
# _framework density 20.722417
#
# number of rings (size 3 to 8) (size 9 to 14) (size 15 to 20)
#    0.000    1.200    4.000    1.200    8.400    0.400 
#    0.000    0.000    0.000    0.000    0.000    0.000 
#    0.000    0.000    0.000    0.000    0.000    0.000 
#
# Total GULP energy -222717.280738 kJ/mol
# GULP energy per Si atom -5567.932018 kJ/mol
# Density = 2.067525 g / cm^3
# Si number density = 20.722417 Si / 1000 Ang^3
#
#
#
# Elastic Constant Matrix: (Units=GPa)
#
#
# Indices 1 2 3 4 5 6 
#
# 1 68.9479 8.0305 23.7698 0.0000 0.0000 0.0000
# 2 8.0305 101.5536 33.7949 0.0000 0.0000 0.0000
# 3 23.7698 33.7949 109.6898 0.0000 0.0000 0.0000
# 4 0.0000 0.0000 0.0000 27.7238 0.0000 0.0000
# 5 0.0000 0.0000 0.0000 0.0000 38.2878 0.0000
# 6 0.0000 0.0000 0.0000 0.0000 0.0000 18.0061
#
#
#
# Elastic Compliance Matrix: (Units=1/GPa)
#
#
# Indices 1 2 3 4 5 6 
#
# 1 0.015676 -0.000122 -0.003360 0.000000 0.000000 0.000000
# 2 -0.000122 0.010973 -0.003354 0.000000 0.000000 0.000000
# 3 -0.003360 -0.003354 0.010878 0.000000 0.000000 0.000000
# 4 0.000000 0.000000 0.000000 0.036070 0.000000 0.000000
# 5 0.000000 0.000000 0.000000 0.000000 0.026118 0.000000
# 6 0.000000 0.000000 0.000000 0.000000 0.000000 0.055537
#
#
# Mechanical properties :
#
#
# Convention : Reuss Voigt Hill
#
# Bulk Modulus (GPa) = 41.91808 45.70907 43.81357
# Shear Modulus (GPa) = 28.26858 31.10996 29.68927
#
# Velocity S-wave (km/s) = 3.69745 3.87883 3.78923
# Velocity P-wave (km/s) = 6.20488 6.49354 6.35085
#
# Compressibility (1/GPa) = 0.02385606
#
# Stress axis : x y z
#
# Youngs Moduli (GPa) = 63.79149 91.13368 91.92794
#
# Poissons Ratio (x) = 0.01108 0.30884
# Poissons Ratio (y) = 0.00776 0.30836
# Poissons Ratio (z) = 0.21431 0.30569
#
# Static dielectric constant tensor:
#      x y z
#    x 1.799530 0.000000 0.000000 
#    y 0.000000 1.741040 0.000000 
#    z 0.000000 0.000000 1.799390 
# 
# From -- ./inp_files/13412.got.cif
#   From: 2010.05.17/outbox.cif.g08.bks.cpg/sg68_7_cif.got.tgz:13412.got - 2010.06.03 18:57:09.
