data_PCOD9509328
_publ_section_title
;
Structure prediction by ZEFSAII (Michael W. Deem and Ramdas Pophale) SiO2 
 PCOD9509328
Probable space group: C C C A
;
_chemical_formula_sum "Si O2"
_cell_formula_units_Z 92
_cell_length_a 23.330090
_cell_length_b 10.835466
_cell_length_c 14.746006
_cell_angle_alpha 90.000000
_cell_angle_beta 90.000000
_cell_angle_gamma 90.000000
_cell_volume 3727.678203
_symmetry_space_group_name_H-M "C C C A"
_symmetry_group_IT_number 68
_space_group.IT_coordinate_system_code '2'
_symmetry_cell_setting 'orthorhombic'
loop_
_space_group_symop_operation_xyz
x,y,z
-x,1/2-y,z
x,1/2-y,1/2-z
-x,y,1/2-z
-x,-y,-z
x,1/2+y,-z
-x,1/2+y,1/2+z
x,-y,1/2+z
1/2+x,1/2+y,z
1/2-x,-y,z
1/2+x,-y,1/2-z
1/2-x,1/2+y,1/2-z
1/2-x,1/2-y,-z
1/2+x,y,-z
1/2-x,y,1/2+z
1/2+x,1/2-y,1/2+z
loop_
_atom_site_type_symbol
_atom_site_label
_atom_site_fract_x
_atom_site_fract_y
_atom_site_fract_z
Si Si1 0.286065 0.123767 0.103654
Si Si2 0.095801 0.915419 0.845808
Si Si3 0.500000 0.250000 0.096243
Si Si4 0.000000 0.250000 0.250000
Si Si5 0.409913 0.931445 0.676206
Si Si6 0.280420 0.129976 0.883844
Si Si7 0.561462 0.936498 0.488985
O O1 0.349678 0.121729 0.144301
O O2 0.256375 0.249103 0.136097
O O3 0.250000 0.000000 0.128026
O O4 0.287540 0.127737 0.993707
O O5 0.042089 0.831380 0.814848
O O6 0.157894 0.855767 0.836824
O O7 0.091596 0.032251 0.779562
O O8 0.097291 0.975510 0.945567
O O9 0.535008 0.348339 0.154569
O O10 0.450187 0.304365 0.031145
O O11 0.417767 0.053751 0.613131
O O12 0.250000 0.000000 0.858718
O O13 0.500000 0.000000 0.500000
#
# Coordination Sequence:
#
# PCOD9509328 Si02
#       7
#    16  16   8   4  16  16  16
#     4  10  23  46  79 111 145 195 256 306 381 454
#     4  12  27  47  70 109 151 191 253 310 386 459
#     4  10  24  42  74 102 146 194 252 318 388 458
#     4  12  28  46  72 108 152 198 244 324 386 466
#     4  11  25  44  73 107 146 196 250 315 385 462
#     4  10  24  49  77 110 148 194 249 318 373 456
#     4  10  23  44  66 104 142 192 245 305 381 454
#
# _framework density 24.680243000000001
#
# number of rings (size 3 to 8) (size 9 to 14) (size 15 to 20)
#    0.000    1.391    1.739    2.087    4.870    9.739 
#    0.000    0.000    0.000    0.000    0.000    0.000 
#    0.000    0.000    0.000    0.000    0.000    0.000 
#
# Total GULP energy -257572.774777 kJ/mol
# GULP energy per Si atom -5599.408147 kJ/mol
# Density = 2.462407 g / cm^3
# Si number density = 24.680243 Si / 1000 Ang^3
#
#
#
# Elastic Constant Matrix: (Units=GPa)
#
#
# Indices 1 2 3 4 5 6 
#
# 1 166.1437 69.6451 16.6656 0.0000 0.0000 0.0000
# 2 69.6451 131.1425 18.3331 0.0000 0.0000 0.0000
# 3 16.6656 18.3331 49.0093 0.0000 0.0000 0.0000
# 4 0.0000 0.0000 0.0000 4.6664 0.0000 0.0000
# 5 0.0000 0.0000 0.0000 0.0000 30.4469 0.0000
# 6 0.0000 0.0000 0.0000 0.0000 0.0000 41.5834
#
#
#
# Elastic Compliance Matrix: (Units=1/GPa)
#
#
# Indices 1 2 3 4 5 6 
#
# 1 0.007805 -0.003982 -0.001164 0.000000 0.000000 0.000000
# 2 -0.003982 0.010078 -0.002416 0.000000 0.000000 0.000000
# 3 -0.001164 -0.002416 0.021704 0.000000 0.000000 0.000000
# 4 0.000000 0.000000 0.000000 0.214297 0.000000 0.000000
# 5 0.000000 0.000000 0.000000 0.000000 0.032844 0.000000
# 6 0.000000 0.000000 0.000000 0.000000 0.000000 0.024048
#
#
# Mechanical properties :
#
#
# Convention : Reuss Voigt Hill
#
# Bulk Modulus (GPa) = 40.87971 61.73146 51.30558
# Shear Modulus (GPa) = 14.96764 31.44945 23.20854
#
# Velocity S-wave (km/s) = 2.46532 3.57357 3.06987
# Velocity P-wave (km/s) = 4.97025 6.48799 5.77916
#
# Compressibility (1/GPa) = 0.02446202
#
# Stress axis : x y z
#
# Youngs Moduli (GPa) = 128.12383 99.22827 46.07467
#
# Poissons Ratio (x) = 0.39514 0.05365
# Poissons Ratio (y) = 0.51021 0.11130
# Poissons Ratio (z) = 0.14919 0.23971
#
# Static dielectric constant tensor:
#      x y z
#    x 1.902870 0.000000 0.000000 
#    y 0.000000 -1.074980 0.000000 
#    z 0.000000 0.000000 2.026710 
# 
# From -- ./inp_files/32829.got.cif
#   From: 2010.05.17/outbox.cif.g08.bks.cpg/sg68_17_cif.got.tgz:32829.got - 2010.06.03 18:57:09.
