data_PCOD9509871
_publ_section_title
;
Structure prediction by ZEFSAII (Michael W. Deem and Ramdas Pophale) SiO2 
 PCOD9509871
Probable space group: C C C A
;
_chemical_formula_sum "Si O2"
_cell_formula_units_Z 108
_cell_length_a 14.246177
_cell_length_b 32.351684
_cell_length_c 11.579424
_cell_angle_alpha 90.000000
_cell_angle_beta 90.000000
_cell_angle_gamma 90.000000
_cell_volume 5336.815444
_symmetry_space_group_name_H-M "C C C A"
_symmetry_group_IT_number 68
_space_group.IT_coordinate_system_code '2'
_symmetry_cell_setting 'orthorhombic'
loop_
_space_group_symop_operation_xyz
x,y,z
-x,1/2-y,z
x,1/2-y,1/2-z
-x,y,1/2-z
-x,-y,-z
x,1/2+y,-z
-x,1/2+y,1/2+z
x,-y,1/2+z
1/2+x,1/2+y,z
1/2-x,-y,z
1/2+x,-y,1/2-z
1/2-x,1/2+y,1/2-z
1/2-x,1/2-y,-z
1/2+x,y,-z
1/2-x,y,1/2+z
1/2+x,1/2-y,1/2+z
loop_
_atom_site_type_symbol
_atom_site_label
_atom_site_fract_x
_atom_site_fract_y
_atom_site_fract_z
Si Si1 0.648945 0.287116 0.584155
Si Si2 0.105461 0.438296 0.242885
Si Si3 0.812040 0.077011 0.995755
Si Si4 0.378004 0.618751 0.462048
Si Si5 0.135595 0.772623 0.132205
Si Si6 0.949763 0.864209 0.373556
Si Si7 0.000000 0.250000 0.250000
Si Si8 0.250000 0.500000 0.859676
O O1 0.652800 0.333977 0.543838
O O2 0.751649 0.278554 0.635829
O O3 0.624056 0.257115 0.477657
O O4 0.567837 0.278999 0.675828
O O5 0.108970 0.400982 0.335541
O O6 0.180273 0.472397 0.283439
O O7 0.000000 0.455337 0.250000
O O8 0.132062 0.423496 0.115313
O O9 0.705773 0.092314 0.018556
O O10 0.859317 0.107664 0.902138
O O11 0.806882 0.031706 0.940327
O O12 0.473385 0.620721 0.533945
O O13 0.106564 0.750000 0.250000
O O14 0.082827 0.816318 0.116201
O O15 0.000000 0.869527 0.250000
#
# Coordination Sequence:
#
# PCOD9509871 Si02
#       8
#    16  16  16  16  16  16   4   8
#     4  11  24  40  68  97 140 181 234 292 342 411
#     4  11  24  46  74 103 139 182 228 287 340 421
#     4  11  25  48  70 104 141 179 230 288 349 422
#     4  11  25  43  68 101 136 186 230 282 347 409
#     4  11  24  46  67  99 140 190 237 294 347 402
#     4  12  26  44  71 103 139 187 236 290 349 418
#     4  12  24  40  62 104 130 180 236 282 356 408
#     4  10  26  46  72 106 142 180 224 284 360 418
#
# _framework density 20.236785999999999
#
# number of rings (size 3 to 8) (size 9 to 14) (size 15 to 20)
#    0.000    0.889    3.704    2.222    5.185    5.037 
#    0.000    0.000    0.000    0.000    0.000    0.000 
#    0.000    0.000    0.000    0.000    0.000    0.000 
#
# Total GULP energy -301914.646396 kJ/mol
# GULP energy per Si atom -5591.011970 kJ/mol
# Density = 2.019073 g / cm^3
# Si number density = 20.236786 Si / 1000 Ang^3
#
#
#
# Elastic Constant Matrix: (Units=GPa)
#
#
# Indices 1 2 3 4 5 6 
#
# 1 102.0771 20.8476 49.6588 0.0000 0.0000 0.0000
# 2 20.8476 105.6949 38.0257 0.0000 0.0000 0.0000
# 3 49.6588 38.0257 101.3316 0.0000 0.0000 0.0000
# 4 0.0000 0.0000 0.0000 12.3952 0.0000 0.0000
# 5 0.0000 0.0000 0.0000 0.0000 36.0093 0.0000
# 6 0.0000 0.0000 0.0000 0.0000 0.0000 32.5710
#
#
#
# Elastic Compliance Matrix: (Units=1/GPa)
#
#
# Indices 1 2 3 4 5 6 
#
# 1 0.012872 -0.000312 -0.006191 0.000000 0.000000 0.000000
# 2 -0.000312 0.010945 -0.003955 0.000000 0.000000 0.000000
# 3 -0.006191 -0.003955 0.014387 0.000000 0.000000 0.000000
# 4 0.000000 0.000000 0.000000 0.080676 0.000000 0.000000
# 5 0.000000 0.000000 0.000000 0.000000 0.027771 0.000000
# 6 0.000000 0.000000 0.000000 0.000000 0.000000 0.030702
#
#
# Mechanical properties :
#
#
# Convention : Reuss Voigt Hill
#
# Bulk Modulus (GPa) = 57.83925 58.46311 58.15118
# Shear Modulus (GPa) = 24.50606 29.56654 27.03630
#
# Velocity S-wave (km/s) = 3.48367 3.82649 3.65910
# Velocity P-wave (km/s) = 6.69511 6.96239 6.83006
#
# Compressibility (1/GPa) = 0.01728930
#
# Stress axis : x y z
#
# Youngs Moduli (GPa) = 77.68765 91.36239 69.50855
#
# Poissons Ratio (x) = 0.02846 0.43034
# Poissons Ratio (y) = 0.02420 0.27489
# Poissons Ratio (z) = 0.48098 0.36131
#
# Static dielectric constant tensor:
#      x y z
#    x 1.759200 0.000000 0.000000 
#    y 0.000000 1.640640 0.000000 
#    z 0.000000 0.000000 1.704530 
# 
# From -- ./inp_files/13639.got.cif
#   From: 2010.05.17/outbox.cif.g08.bks.cpg/sg68_7_cif.got.tgz:13639.got - 2010.06.03 18:57:09.
