data_PCOD9509725
_publ_section_title
;
Structure prediction by ZEFSAII (Michael W. Deem and Ramdas Pophale) SiO2 
 PCOD9509725
Probable space group: C C C A
;
_chemical_formula_sum "Si O2"
_cell_formula_units_Z 64
_cell_length_a 8.709134
_cell_length_b 21.156543
_cell_length_c 16.612554
_cell_angle_alpha 90.000000
_cell_angle_beta 90.000000
_cell_angle_gamma 90.000000
_cell_volume 3060.948928
_symmetry_space_group_name_H-M "C C C A"
_symmetry_group_IT_number 68
_space_group.IT_coordinate_system_code '2'
_symmetry_cell_setting 'orthorhombic'
loop_
_space_group_symop_operation_xyz
x,y,z
-x,1/2-y,z
x,1/2-y,1/2-z
-x,y,1/2-z
-x,-y,-z
x,1/2+y,-z
-x,1/2+y,1/2+z
x,-y,1/2+z
1/2+x,1/2+y,z
1/2-x,-y,z
1/2+x,-y,1/2-z
1/2-x,1/2+y,1/2-z
1/2-x,1/2-y,-z
1/2+x,y,-z
1/2-x,y,1/2+z
1/2+x,1/2-y,1/2+z
loop_
_atom_site_type_symbol
_atom_site_label
_atom_site_fract_x
_atom_site_fract_y
_atom_site_fract_z
Si Si1 0.871498 0.798844 0.539830
Si Si2 0.665551 0.178057 0.721663
Si Si3 0.250000 0.000000 0.508456
Si Si4 0.007364 0.087034 0.928852
Si Si5 0.000000 0.128209 0.750000
O O1 0.750000 0.750000 0.500000
O O2 0.817255 0.828360 0.624592
O O3 0.947003 0.850445 0.478295
O O4 0.000000 0.750000 0.567696
O O5 0.653556 0.250000 0.750000
O O6 0.500000 0.148131 0.750000
O O7 0.830462 0.159616 0.759615
O O8 0.120130 0.033867 0.558647
O O9 0.335812 0.056468 0.461619
O O10 0.020777 0.095126 0.834600
#
# Coordination Sequence:
#
# PCOD9509725 Si02
#       5
#    16  16   8  16   8
#     4  12  23  41  68 104 141 179 224 280 354 420
#     4  11  23  41  62 100 145 183 221 273 341 416
#     4  10  24  48  68  92 136 178 234 284 342 408
#     4  11  25  44  70 100 131 184 228 285 343 410
#     4  12  25  42  68 102 132 178 233 286 340 404
#
# _framework density 20.908550000000002
#
# number of rings (size 3 to 8) (size 9 to 14) (size 15 to 20)
#    0.000    0.750    2.500    6.375    3.500    1.000 
#    0.000    0.000    0.000    0.000    0.000    0.000 
#    0.000    0.000    0.000    0.000    0.000    0.000 
#
# Total GULP energy -178168.133946 kJ/mol
# GULP energy per Si atom -5567.754186 kJ/mol
# Density = 2.086096 g / cm^3
# Si number density = 20.908550 Si / 1000 Ang^3
#
#
#
# Elastic Constant Matrix: (Units=GPa)
#
#
# Indices 1 2 3 4 5 6 
#
# 1 151.7276 23.1770 20.3615 0.0000 0.0000 0.0000
# 2 23.1770 76.0344 35.7416 0.0000 0.0000 0.0000
# 3 20.3615 35.7416 115.7037 0.0000 0.0000 0.0000
# 4 0.0000 0.0000 0.0000 9.3641 0.0000 0.0000
# 5 0.0000 0.0000 0.0000 0.0000 13.8984 0.0000
# 6 0.0000 0.0000 0.0000 0.0000 0.0000 31.7016
#
#
#
# Elastic Compliance Matrix: (Units=1/GPa)
#
#
# Indices 1 2 3 4 5 6 
#
# 1 0.006956 -0.001807 -0.000666 0.000000 0.000000 0.000000
# 2 -0.001807 0.015856 -0.004580 0.000000 0.000000 0.000000
# 3 -0.000666 -0.004580 0.010175 0.000000 0.000000 0.000000
# 4 0.000000 0.000000 0.000000 0.106790 0.000000 0.000000
# 5 0.000000 0.000000 0.000000 0.000000 0.071951 0.000000
# 6 0.000000 0.000000 0.000000 0.000000 0.000000 0.031544
#
#
# Mechanical properties :
#
#
# Convention : Reuss Voigt Hill
#
# Bulk Modulus (GPa) = 52.96496 55.78064 54.37280
# Shear Modulus (GPa) = 18.96297 28.60519 23.78408
#
# Velocity S-wave (km/s) = 3.01482 3.70281 3.37639
# Velocity P-wave (km/s) = 6.12418 6.70950 6.42351
#
# Compressibility (1/GPa) = 0.01888041
#
# Stress axis : x y z
#
# Youngs Moduli (GPa) = 143.75662 63.06860 98.28312
#
# Poissons Ratio (x) = 0.11399 0.06544
# Poissons Ratio (y) = 0.25983 0.45012
# Poissons Ratio (z) = 0.09572 0.28885
#
# Static dielectric constant tensor:
#      x y z
#    x 1.911800 0.000000 0.000000 
#    y 0.000000 1.760940 0.000000 
#    z 0.000000 0.000000 1.746380 
# 
# From -- ./inp_files/19302.got.cif
#   From: 2010.05.17/outbox.cif.g08.bks.cpg/sg68_10_cif.got.tgz:19302.got - 2010.06.03 18:57:09.
