data_PCOD9509570
_publ_section_title
;
Structure prediction by ZEFSAII (Michael W. Deem and Ramdas Pophale) SiO2 
 PCOD9509570
Probable space group: C C C A
;
_chemical_formula_sum "Si O2"
_cell_formula_units_Z 104
_cell_length_a 8.760530
_cell_length_b 20.787296
_cell_length_c 27.264700
_cell_angle_alpha 90.000000
_cell_angle_beta 90.000000
_cell_angle_gamma 90.000000
_cell_volume 4965.112632
_symmetry_space_group_name_H-M "C C C A"
_symmetry_group_IT_number 68
_space_group.IT_coordinate_system_code '2'
_symmetry_cell_setting 'orthorhombic'
loop_
_space_group_symop_operation_xyz
x,y,z
-x,1/2-y,z
x,1/2-y,1/2-z
-x,y,1/2-z
-x,-y,-z
x,1/2+y,-z
-x,1/2+y,1/2+z
x,-y,1/2+z
1/2+x,1/2+y,z
1/2-x,-y,z
1/2+x,-y,1/2-z
1/2-x,1/2+y,1/2-z
1/2-x,1/2-y,-z
1/2+x,y,-z
1/2-x,y,1/2+z
1/2+x,1/2-y,1/2+z
loop_
_atom_site_type_symbol
_atom_site_label
_atom_site_fract_x
_atom_site_fract_y
_atom_site_fract_z
Si Si1 0.110528 0.161020 0.456735
Si Si2 0.232566 0.351958 0.442000
Si Si3 0.250000 0.000000 0.084556
Si Si4 0.355582 0.936721 0.284650
Si Si5 0.830497 0.243096 0.613316
Si Si6 0.410829 0.037639 0.892543
Si Si7 0.664937 0.689702 0.776448
O O1 0.164401 0.167252 0.512168
O O2 0.221268 0.200084 0.420547
O O3 0.106843 0.087221 0.437251
O O4 0.933339 0.176654 0.453198
O O5 0.241067 0.429330 0.439917
O O6 0.274379 0.317197 0.390752
O O7 0.425626 0.000052 0.106852
O O8 0.500000 0.945275 0.250000
O O9 0.410905 0.926275 0.340445
O O10 0.256560 0.875348 0.270200
O O11 0.250000 0.000000 0.282946
O O12 0.845013 0.210541 0.666594
O O13 0.000000 0.250000 0.592616
O O14 0.250000 0.000000 0.893133
O O15 0.743862 0.750000 0.750000
O O16 0.500000 0.682635 0.750000
#
# Coordination Sequence:
#
# PCOD9509570 Si02
#       7
#    16  16   8  16  16  16  16
#     4  11  24  45  68 107 139 189 241 294 366 424
#     4  11  26  43  71 103 149 186 245 296 355 443
#     4  10  26  44  68 110 140 198 244 294 364 430
#     4  11  25  46  71 106 141 185 232 304 366 438
#     4  12  24  44  72  99 141 188 233 299 360 426
#     4  10  24  43  71 101 147 190 240 298 362 433
#     4  11  24  48  71 106 137 185 244 290 362 443
#
# _framework density 20.946152000000001
#
# number of rings (size 3 to 8) (size 9 to 14) (size 15 to 20)
#    0.000    1.077    3.077    2.308    6.462    4.000 
#    2.769    0.000    0.000    0.000    0.000    0.000 
#    0.000    0.000    0.000    0.000    0.000    0.000 
#
# Total GULP energy -289842.081314 kJ/mol
# GULP energy per Si atom -5573.886179 kJ/mol
# Density = 2.089848 g / cm^3
# Si number density = 20.946152 Si / 1000 Ang^3
#
#
#
# Elastic Constant Matrix: (Units=GPa)
#
#
# Indices 1 2 3 4 5 6 
#
# 1 153.1985 50.8504 42.1984 0.0000 0.0000 0.0000
# 2 50.8504 114.1294 29.8577 0.0000 0.0000 0.0000
# 3 42.1984 29.8577 76.8336 0.0000 0.0000 0.0000
# 4 0.0000 0.0000 0.0000 26.6031 0.0000 0.0000
# 5 0.0000 0.0000 0.0000 0.0000 27.2496 0.0000
# 6 0.0000 0.0000 0.0000 0.0000 0.0000 37.2138
#
#
#
# Elastic Compliance Matrix: (Units=1/GPa)
#
#
# Indices 1 2 3 4 5 6 
#
# 1 0.008443 -0.002837 -0.003534 0.000000 0.000000 0.000000
# 2 -0.002837 0.010707 -0.002603 0.000000 0.000000 0.000000
# 3 -0.003534 -0.002603 0.015968 0.000000 0.000000 0.000000
# 4 0.000000 0.000000 0.000000 0.037590 0.000000 0.000000
# 5 0.000000 0.000000 0.000000 0.000000 0.036698 0.000000
# 6 0.000000 0.000000 0.000000 0.000000 0.000000 0.026872
#
#
# Mechanical properties :
#
#
# Convention : Reuss Voigt Hill
#
# Bulk Modulus (GPa) = 58.24366 65.55272 61.89819
# Shear Modulus (GPa) = 31.26026 32.96363 32.11194
#
# Velocity S-wave (km/s) = 3.86736 3.97133 3.91969
# Velocity P-wave (km/s) = 6.91439 7.23826 7.07818
#
# Compressibility (1/GPa) = 0.01716925
#
# Stress axis : x y z
#
# Youngs Moduli (GPa) = 118.44546 93.39789 62.62655
#
# Poissons Ratio (x) = 0.26497 0.22135
# Poissons Ratio (y) = 0.33603 0.16299
# Poissons Ratio (z) = 0.41864 0.24308
#
# Static dielectric constant tensor:
#      x y z
#    x 1.906950 0.000000 0.000000 
#    y 0.000000 1.794840 0.000000 
#    z 0.000000 0.000000 1.746810 
# 
# From -- ./inp_files/49444.got.cif
#   From: 2010.05.17/outbox.cif.g08.bks.cpg/sg68_25_cif.got.tgz:49444.got - 2010.06.03 18:57:09.
