data_PCOD9509646
_publ_section_title
;
Structure prediction by ZEFSAII (Michael W. Deem and Ramdas Pophale) SiO2 
 PCOD9509646
Probable space group: C C C A
;
_chemical_formula_sum "Si O2"
_cell_formula_units_Z 68
_cell_length_a 17.829250
_cell_length_b 9.249492
_cell_length_c 20.540875
_cell_angle_alpha 90.000000
_cell_angle_beta 90.000000
_cell_angle_gamma 90.000000
_cell_volume 3387.426615
_symmetry_space_group_name_H-M "C C C A"
_symmetry_group_IT_number 68
_space_group.IT_coordinate_system_code '2'
_symmetry_cell_setting 'orthorhombic'
loop_
_space_group_symop_operation_xyz
x,y,z
-x,1/2-y,z
x,1/2-y,1/2-z
-x,y,1/2-z
-x,-y,-z
x,1/2+y,-z
-x,1/2+y,1/2+z
x,-y,1/2+z
1/2+x,1/2+y,z
1/2-x,-y,z
1/2+x,-y,1/2-z
1/2-x,1/2+y,1/2-z
1/2-x,1/2-y,-z
1/2+x,y,-z
1/2-x,y,1/2+z
1/2+x,1/2-y,1/2+z
loop_
_atom_site_type_symbol
_atom_site_label
_atom_site_fract_x
_atom_site_fract_y
_atom_site_fract_z
Si Si1 0.460536 0.975362 0.814353
Si Si2 0.461195 0.096216 0.054969
Si Si3 0.703746 0.650197 0.814305
Si Si4 0.285644 0.657997 0.941251
Si Si5 0.500000 0.750000 0.250000
O O1 0.500000 0.912852 0.750000
O O2 0.516940 0.967133 0.874534
O O3 0.382690 0.896694 0.826077
O O4 0.450404 0.143445 0.794079
O O5 0.500000 0.250000 0.052052
O O6 0.373331 0.124144 0.047025
O O7 0.500000 0.000000 0.000000
O O8 0.709734 0.750000 0.750000
O O9 0.750000 0.500000 0.808743
O O10 0.725961 0.747205 0.876241
O O11 0.250000 0.500000 0.935063
O O12 0.250000 0.750000 0.000000
#
# Coordination Sequence:
#
# PCOD9509646 Si02
#       5
#    16  16  16  16   4
#     4  10  24  45  73 103 144 183 246 299 359 428
#     4  12  26  44  73 105 139 192 242 290 359 433
#     4  12  27  45  74 106 147 191 244 303 378 439
#     4  12  27  48  72 105 151 193 238 307 368 434
#     4   8  24  40  78 104 144 180 230 312 352 428
#
# _framework density 20.074235999999999
#
# number of rings (size 3 to 8) (size 9 to 14) (size 15 to 20)
#    0.706    0.000    2.353    4.235    6.588    1.882 
#    0.000    0.000    0.000    0.000    0.000    0.000 
#    0.000    0.000    0.000    0.000    0.000    0.000 
#
# Total GULP energy -189979.958969 kJ/mol
# GULP energy per Si atom -5587.645852 kJ/mol
# Density = 2.002855 g / cm^3
# Si number density = 20.074236 Si / 1000 Ang^3
#
#
#
# Elastic Constant Matrix: (Units=GPa)
#
#
# Indices 1 2 3 4 5 6 
#
# 1 144.8046 56.7861 56.2799 0.0000 0.0000 0.0000
# 2 56.7861 178.1337 75.4640 0.0000 0.0000 0.0000
# 3 56.2799 75.4640 185.8400 0.0000 0.0000 0.0000
# 4 0.0000 0.0000 0.0000 51.1585 0.0000 0.0000
# 5 0.0000 0.0000 0.0000 0.0000 28.5612 0.0000
# 6 0.0000 0.0000 0.0000 0.0000 0.0000 42.0818
#
#
#
# Elastic Compliance Matrix: (Units=1/GPa)
#
#
# Indices 1 2 3 4 5 6 
#
# 1 0.008337 -0.001918 -0.001746 0.000000 0.000000 0.000000
# 2 -0.001918 0.007221 -0.002352 0.000000 0.000000 0.000000
# 3 -0.001746 -0.002352 0.006865 0.000000 0.000000 0.000000
# 4 0.000000 0.000000 0.000000 0.019547 0.000000 0.000000
# 5 0.000000 0.000000 0.000000 0.000000 0.035012 0.000000
# 6 0.000000 0.000000 0.000000 0.000000 0.000000 0.023763
#
#
# Mechanical properties :
#
#
# Convention : Reuss Voigt Hill
#
# Bulk Modulus (GPa) = 96.22940 98.42649 97.32794
# Shear Modulus (GPa) = 43.01450 45.71020 44.36235
#
# Velocity S-wave (km/s) = 4.63403 4.77703 4.70607
# Velocity P-wave (km/s) = 8.75632 8.91989 8.83848
#
# Compressibility (1/GPa) = 0.01039183
#
# Stress axis : x y z
#
# Youngs Moduli (GPa) = 119.95401 138.47777 145.67558
#
# Poissons Ratio (x) = 0.26559 0.25432
# Poissons Ratio (y) = 0.23007 0.34256
# Poissons Ratio (z) = 0.20942 0.32564
#
# Static dielectric constant tensor:
#      x y z
#    x 1.642260 0.000000 0.000000 
#    y 0.000000 1.694910 0.000000 
#    z 0.000000 0.000000 1.681100 
# 
# From -- ./inp_files/39185.got.cif
#   From: 2010.05.17/outbox.cif.g08.bks.cpg/sg68_20_cif.got.tgz:39185.got - 2010.06.03 18:57:09.
