data_PCOD9509800
_publ_section_title
;
Structure prediction by ZEFSAII (Michael W. Deem and Ramdas Pophale) SiO2 
 PCOD9509800
Probable space group: C C C A
;
_chemical_formula_sum "Si O2"
_cell_formula_units_Z 64
_cell_length_a 9.246861
_cell_length_b 21.587187
_cell_length_c 13.525309
_cell_angle_alpha 90.000000
_cell_angle_beta 90.000000
_cell_angle_gamma 90.000000
_cell_volume 2699.837211
_symmetry_space_group_name_H-M "C C C A"
_symmetry_group_IT_number 68
_space_group.IT_coordinate_system_code '2'
_symmetry_cell_setting 'orthorhombic'
loop_
_space_group_symop_operation_xyz
x,y,z
-x,1/2-y,z
x,1/2-y,1/2-z
-x,y,1/2-z
-x,-y,-z
x,1/2+y,-z
-x,1/2+y,1/2+z
x,-y,1/2+z
1/2+x,1/2+y,z
1/2-x,-y,z
1/2+x,-y,1/2-z
1/2-x,1/2+y,1/2-z
1/2-x,1/2-y,-z
1/2+x,y,-z
1/2-x,y,1/2+z
1/2+x,1/2-y,1/2+z
loop_
_atom_site_type_symbol
_atom_site_label
_atom_site_fract_x
_atom_site_fract_y
_atom_site_fract_z
Si Si1 0.250000 0.500000 0.336889
Si Si2 0.785707 0.812199 0.693517
Si Si3 0.836245 0.127396 0.881299
Si Si4 0.000000 0.588198 0.750000
Si Si5 0.407248 0.191950 0.494323
O O1 0.164650 0.553676 0.392364
O O2 0.371874 0.541846 0.282937
O O3 0.831853 0.750000 0.750000
O O4 0.674784 0.847660 0.768630
O O5 0.913655 0.862579 0.679363
O O6 0.703835 0.791011 0.594601
O O7 0.973263 0.151962 0.938478
O O8 0.689907 0.154167 0.929916
O O9 0.500000 0.250000 0.533715
#
# Coordination Sequence:
#
# PCOD9509800 Si02
#       5
#     8  16  16   8  16
#     4  10  26  48  70 106 148 194 252 288 368 430
#     4  11  24  45  76 104 143 191 242 298 375 421
#     4  11  27  45  71 107 147 190 249 294 361 434
#     4  10  25  44  74 106 143 192 248 302 346 448
#     4  12  26  46  74 108 147 190 243 305 364 437
#
# _framework density 23.705134999999999
#
# number of rings (size 3 to 8) (size 9 to 14) (size 15 to 20)
#    0.000    1.000    2.500    1.875   14.000    1.000 
#    0.000    0.000    0.000    0.000    0.000    0.000 
#    0.000    0.000    0.000    0.000    0.000    0.000 
#
# Total GULP energy -178897.718567 kJ/mol
# GULP energy per Si atom -5590.553705 kJ/mol
# Density = 2.365118 g / cm^3
# Si number density = 23.705135 Si / 1000 Ang^3
#
#
#
# Elastic Constant Matrix: (Units=GPa)
#
#
# Indices 1 2 3 4 5 6 
#
# 1 157.1840 53.5851 19.0972 0.0000 0.0000 0.0000
# 2 53.5851 198.8968 17.8537 0.0000 0.0000 0.0000
# 3 19.0972 17.8537 65.6444 0.0000 0.0000 0.0000
# 4 0.0000 0.0000 0.0000 29.6334 0.0000 0.0000
# 5 0.0000 0.0000 0.0000 0.0000 42.2812 0.0000
# 6 0.0000 0.0000 0.0000 0.0000 0.0000 53.7271
#
#
#
# Elastic Compliance Matrix: (Units=1/GPa)
#
#
# Indices 1 2 3 4 5 6 
#
# 1 0.007165 -0.001787 -0.001599 0.000000 0.000000 0.000000
# 2 -0.001787 0.005599 -0.001003 0.000000 0.000000 0.000000
# 3 -0.001599 -0.001003 0.015971 0.000000 0.000000 0.000000
# 4 0.000000 0.000000 0.000000 0.033746 0.000000 0.000000
# 5 0.000000 0.000000 0.000000 0.000000 0.023651 0.000000
# 6 0.000000 0.000000 0.000000 0.000000 0.000000 0.018613
#
#
# Mechanical properties :
#
#
# Convention : Reuss Voigt Hill
#
# Bulk Modulus (GPa) = 50.10260 66.97749 58.54005
# Shear Modulus (GPa) = 41.60583 47.20760 44.40671
#
# Velocity S-wave (km/s) = 4.19398 4.46741 4.33285
# Velocity P-wave (km/s) = 6.68089 7.41121 7.05551
#
# Compressibility (1/GPa) = 0.01995904
#
# Stress axis : x y z
#
# Youngs Moduli (GPa) = 139.56012 178.59732 62.61179
#
# Poissons Ratio (x) = 0.31914 0.10009
# Poissons Ratio (y) = 0.24939 0.06280
# Poissons Ratio (z) = 0.22309 0.17913
#
# Static dielectric constant tensor:
#      x y z
#    x 1.937560 0.000000 0.000000 
#    y 0.000000 1.862560 0.000000 
#    z 0.000000 0.000000 1.960560 
# 
# From -- ./inp_files/19308.got.cif
#   From: 2010.05.17/outbox.cif.g08.bks.cpg/sg68_10_cif.got.tgz:19308.got - 2010.06.03 18:57:09.
