data_PCOD9509207
_publ_section_title
;
Structure prediction by ZEFSAII (Michael W. Deem and Ramdas Pophale) SiO2 
 PCOD9509207
Probable space group: C C C A
;
_chemical_formula_sum "Si O2"
_cell_formula_units_Z 72
_cell_length_a 20.910976
_cell_length_b 8.854588
_cell_length_c 18.366901
_cell_angle_alpha 90.000000
_cell_angle_beta 90.000000
_cell_angle_gamma 90.000000
_cell_volume 3400.780073
_symmetry_space_group_name_H-M "C C C A"
_symmetry_group_IT_number 68
_space_group.IT_coordinate_system_code '2'
_symmetry_cell_setting 'orthorhombic'
loop_
_space_group_symop_operation_xyz
x,y,z
-x,1/2-y,z
x,1/2-y,1/2-z
-x,y,1/2-z
-x,-y,-z
x,1/2+y,-z
-x,1/2+y,1/2+z
x,-y,1/2+z
1/2+x,1/2+y,z
1/2-x,-y,z
1/2+x,-y,1/2-z
1/2-x,1/2+y,1/2-z
1/2-x,1/2-y,-z
1/2+x,y,-z
1/2-x,y,1/2+z
1/2+x,1/2-y,1/2+z
loop_
_atom_site_type_symbol
_atom_site_label
_atom_site_fract_x
_atom_site_fract_y
_atom_site_fract_z
Si Si1 0.413305 0.991819 0.931887
Si Si2 0.809536 0.613033 0.192290
Si Si3 0.700813 0.370879 0.031518
Si Si4 0.929258 0.930936 0.234806
Si Si5 0.000000 0.750000 0.510862
O O1 0.405849 0.965573 0.846411
O O2 0.445575 0.839450 0.964890
O O3 0.352354 0.056879 0.977459
O O4 0.465988 0.122072 0.942494
O O5 0.801073 0.750000 0.250000
O O6 0.750000 0.500000 0.198768
O O7 0.822510 0.679020 0.111364
O O8 0.873344 0.518586 0.211476
O O9 0.750000 0.500000 0.050864
O O10 0.750000 0.250000 0.000000
O O11 0.933294 0.750000 0.250000
O O12 0.000000 0.992517 0.250000
#
# Coordination Sequence:
#
# PCOD9509207 Si02
#       5
#    16  16  16  16   8
#     4  11  24  43  72 103 143 186 240 299 361 446
#     4  10  25  44  68  98 139 182 237 287 360 429
#     4  11  26  43  71 104 140 183 240 295 357 430
#     4  10  23  41  71  99 136 183 235 287 363 432
#     4  10  24  40  70 100 142 180 238 286 366 422
#
# _framework density 21.171613000000001
#
# number of rings (size 3 to 8) (size 9 to 14) (size 15 to 20)
#    0.000    1.556    0.000    2.667   21.778    0.000 
#    0.000    0.556    0.000    0.000    0.000    0.000 
#    0.000    0.000    0.000    0.000    0.000    0.000 
#
# Total GULP energy -200664.069054 kJ/mol
# GULP energy per Si atom -5574.001918 kJ/mol
# Density = 2.112342 g / cm^3
# Si number density = 21.171613 Si / 1000 Ang^3
#
#
#
# Elastic Constant Matrix: (Units=GPa)
#
#
# Indices 1 2 3 4 5 6 
#
# 1 167.8849 22.4354 67.2432 0.0000 0.0000 0.0000
# 2 22.4354 74.4321 36.3207 0.0000 0.0000 0.0000
# 3 67.2432 36.3207 186.8657 0.0000 0.0000 0.0000
# 4 0.0000 0.0000 0.0000 9.1954 0.0000 0.0000
# 5 0.0000 0.0000 0.0000 0.0000 31.3867 0.0000
# 6 0.0000 0.0000 0.0000 0.0000 0.0000 40.4135
#
#
#
# Elastic Compliance Matrix: (Units=1/GPa)
#
#
# Indices 1 2 3 4 5 6 
#
# 1 0.007023 -0.000976 -0.002338 0.000000 0.000000 0.000000
# 2 -0.000976 0.014979 -0.002560 0.000000 0.000000 0.000000
# 3 -0.002338 -0.002560 0.006690 0.000000 0.000000 0.000000
# 4 0.000000 0.000000 0.000000 0.108750 0.000000 0.000000
# 5 0.000000 0.000000 0.000000 0.000000 0.031861 0.000000
# 6 0.000000 0.000000 0.000000 0.000000 0.000000 0.024744
#
#
# Mechanical properties :
#
#
# Convention : Reuss Voigt Hill
#
# Bulk Modulus (GPa) = 59.01715 75.68681 67.35198
# Shear Modulus (GPa) = 23.64709 36.41134 30.02922
#
# Velocity S-wave (km/s) = 3.34567 4.15157 3.77021
# Velocity P-wave (km/s) = 6.54681 7.66861 7.12981
#
# Compressibility (1/GPa) = 0.01694423
#
# Stress axis : x y z
#
# Youngs Moduli (GPa) = 142.38563 66.76209 149.47286
#
# Poissons Ratio (x) = 0.06518 0.34940
# Poissons Ratio (y) = 0.13901 0.38266
# Poissons Ratio (z) = 0.33283 0.17091
#
# Static dielectric constant tensor:
#      x y z
#    x 1.852970 0.000000 0.000000 
#    y 0.000000 1.708570 0.000000 
#    z 0.000000 0.000000 1.851260 
# 
# From -- ./inp_files/33443.got.cif
#   From: 2010.05.17/outbox.cif.g08.bks.cpg/sg68_17_cif.got.tgz:33443.got - 2010.06.03 18:57:09.
