data_PCOD9509986
_publ_section_title
;
Structure prediction by ZEFSAII (Michael W. Deem and Ramdas Pophale) SiO2 
 PCOD9509986
Probable space group: C C C A
;
_chemical_formula_sum "Si O2"
_cell_formula_units_Z 84
_cell_length_a 14.453965
_cell_length_b 18.733613
_cell_length_c 14.968538
_cell_angle_alpha 90.000000
_cell_angle_beta 90.000000
_cell_angle_gamma 90.000000
_cell_volume 4053.105677
_symmetry_space_group_name_H-M "C C C A"
_symmetry_group_IT_number 68
_space_group.IT_coordinate_system_code '2'
_symmetry_cell_setting 'orthorhombic'
loop_
_space_group_symop_operation_xyz
x,y,z
-x,1/2-y,z
x,1/2-y,1/2-z
-x,y,1/2-z
-x,-y,-z
x,1/2+y,-z
-x,1/2+y,1/2+z
x,-y,1/2+z
1/2+x,1/2+y,z
1/2-x,-y,z
1/2+x,-y,1/2-z
1/2-x,1/2+y,1/2-z
1/2-x,1/2-y,-z
1/2+x,y,-z
1/2-x,y,1/2+z
1/2+x,1/2-y,1/2+z
loop_
_atom_site_type_symbol
_atom_site_label
_atom_site_fract_x
_atom_site_fract_y
_atom_site_fract_z
Si Si1 0.760638 0.665518 0.991239
Si Si2 0.912676 0.632076 0.126881
Si Si3 0.156314 0.951887 0.875875
Si Si4 0.639960 0.015894 0.820503
Si Si5 0.500000 0.750000 0.750000
Si Si6 0.423464 0.576214 0.507151
O O1 0.822363 0.625905 0.915764
O O2 0.661426 0.630103 0.976392
O O3 0.750000 0.750000 0.000000
O O4 0.813351 0.642029 0.081055
O O5 0.905859 0.561843 0.186899
O O6 0.940355 0.699201 0.185992
O O7 0.987955 0.615201 0.049588
O O8 0.126525 0.946084 0.773770
O O9 0.250000 0.000000 0.874697
O O10 0.092460 0.001623 0.939033
O O11 0.750000 0.000000 0.837554
O O12 0.592638 0.056186 0.903318
#
# Coordination Sequence:
#
# PCOD9509986 Si02
#       6
#    16  16  16  16   4  16
#     4  11  23  42  64  93 138 184 217 272 349 406
#     4  12  24  42  67  98 138 175 222 289 339 404
#     4   9  20  37  63  94 133 174 225 278 325 399
#     4  11  20  38  67  99 131 176 234 281 331 392
#     4  12  28  44  64 108 138 170 230 280 360 420
#     4  11  21  43  64  96 136 175 227 282 337 397
#
# _framework density 20.724848999999999
#
# number of rings (size 3 to 8) (size 9 to 14) (size 15 to 20)
#    0.000    1.143    3.810    3.429    0.000    3.048 
#    0.000    0.000    0.000    0.000    0.000    4.000 
#    0.000    0.000    0.000    0.000    0.000    0.000 
#
# Total GULP energy -234541.476190 kJ/mol
# GULP energy per Si atom -5584.320862 kJ/mol
# Density = 2.067768 g / cm^3
# Si number density = 20.724849 Si / 1000 Ang^3
#
#
#
# Elastic Constant Matrix: (Units=GPa)
#
#
# Indices 1 2 3 4 5 6 
#
# 1 83.1896 30.0224 18.0985 0.0000 0.0000 0.0000
# 2 30.0224 153.6919 56.4945 0.0000 0.0000 0.0000
# 3 18.0985 56.4945 125.5581 0.0000 0.0000 0.0000
# 4 0.0000 0.0000 0.0000 38.4194 0.0000 0.0000
# 5 0.0000 0.0000 0.0000 0.0000 9.4275 0.0000
# 6 0.0000 0.0000 0.0000 0.0000 0.0000 29.2130
#
#
#
# Elastic Compliance Matrix: (Units=1/GPa)
#
#
# Indices 1 2 3 4 5 6 
#
# 1 0.013013 -0.002220 -0.000877 0.000000 0.000000 0.000000
# 2 -0.002220 0.008174 -0.003358 0.000000 0.000000 0.000000
# 3 -0.000877 -0.003358 0.009602 0.000000 0.000000 0.000000
# 4 0.000000 0.000000 0.000000 0.026028 0.000000 0.000000
# 5 0.000000 0.000000 0.000000 0.000000 0.106072 0.000000
# 6 0.000000 0.000000 0.000000 0.000000 0.000000 0.034231
#
#
# Mechanical properties :
#
#
# Convention : Reuss Voigt Hill
#
# Bulk Modulus (GPa) = 55.92998 63.51893 59.72445
# Shear Modulus (GPa) = 23.14919 32.60027 27.87473
#
# Velocity S-wave (km/s) = 3.34575 3.97041 3.67139
# Velocity P-wave (km/s) = 6.47849 7.19264 6.84489
#
# Compressibility (1/GPa) = 0.01787950
#
# Stress axis : x y z
#
# Youngs Moduli (GPa) = 76.84900 122.33184 104.14656
#
# Poissons Ratio (x) = 0.27152 0.09134
# Poissons Ratio (y) = 0.17057 0.34974
# Poissons Ratio (z) = 0.06740 0.41081
#
# Static dielectric constant tensor:
#      x y z
#    x 1.818130 0.000000 0.000000 
#    y 0.000000 1.709980 0.000000 
#    z 0.000000 0.000000 1.756770 
# 
# From -- ./inp_files/22251.got.cif
#   From: 2010.05.17/outbox.cif.g08.bks.cpg/sg68_12_cif.got.tgz:22251.got - 2010.06.03 18:57:09.
