data_PCOD9509426
_publ_section_title
;
Structure prediction by ZEFSAII (Michael W. Deem and Ramdas Pophale) SiO2 
 PCOD9509426
Probable space group: C C C A
;
_chemical_formula_sum "Si O2"
_cell_formula_units_Z 68
_cell_length_a 18.783807
_cell_length_b 9.480849
_cell_length_c 15.275835
_cell_angle_alpha 90.000000
_cell_angle_beta 90.000000
_cell_angle_gamma 90.000000
_cell_volume 2720.419040
_symmetry_space_group_name_H-M "C C C A"
_symmetry_group_IT_number 68
_space_group.IT_coordinate_system_code '2'
_symmetry_cell_setting 'orthorhombic'
loop_
_space_group_symop_operation_xyz
x,y,z
-x,1/2-y,z
x,1/2-y,1/2-z
-x,y,1/2-z
-x,-y,-z
x,1/2+y,-z
-x,1/2+y,1/2+z
x,-y,1/2+z
1/2+x,1/2+y,z
1/2-x,-y,z
1/2+x,-y,1/2-z
1/2-x,1/2+y,1/2-z
1/2-x,1/2-y,-z
1/2+x,y,-z
1/2-x,y,1/2+z
1/2+x,1/2-y,1/2+z
loop_
_atom_site_type_symbol
_atom_site_label
_atom_site_fract_x
_atom_site_fract_y
_atom_site_fract_z
Si Si1 0.429973 0.060763 0.110346
Si Si2 0.087240 0.042409 0.423007
Si Si3 0.500000 0.750000 0.750000
Si Si4 0.312307 0.113886 0.542171
Si Si5 0.209545 0.648473 0.670438
O O1 0.506655 0.988616 0.098706
O O2 0.414910 0.129894 0.014370
O O3 0.445827 0.164324 0.188594
O O4 0.366515 0.948337 0.117490
O O5 0.137120 0.912043 0.456787
O O6 0.126564 0.110026 0.341512
O O7 0.280916 0.258698 0.581367
O O8 0.250000 0.000000 0.535291
O O9 0.227877 0.750000 0.750000
O O10 0.250000 0.500000 0.675474
#
# Coordination Sequence:
#
# PCOD9509426 Si02
#       5
#    16  16   4  16  16
#     4   9  24  44  71 117 152 201 265 321 404 477
#     4   9  23  46  75 107 155 209 258 328 382 492
#     4  12  24  40  84 110 158 200 242 362 404 464
#     4  10  23  48  74 109 151 205 261 319 400 486
#     4  12  28  48  76 114 162 211 262 336 402 480
#
# _framework density 24.996148999999999
#
# number of rings (size 3 to 8) (size 9 to 14) (size 15 to 20)
#    1.412    0.471    0.000    1.412    6.588    6.588 
#    4.235    1.176    0.000    0.000    0.000    0.000 
#    0.000    0.000    0.000    0.000    0.000    0.000 
#
# Total GULP energy -189653.222267 kJ/mol
# GULP energy per Si atom -5578.035949 kJ/mol
# Density = 2.493926 g / cm^3
# Si number density = 24.996149 Si / 1000 Ang^3
#
#
#
# Elastic Constant Matrix: (Units=GPa)
#
#
# Indices 1 2 3 4 5 6 
#
# 1 113.9315 53.9230 9.6295 0.0000 0.0000 0.0000
# 2 53.9230 153.3320 54.7979 0.0000 0.0000 0.0000
# 3 9.6295 54.7979 119.4922 0.0000 0.0000 0.0000
# 4 0.0000 0.0000 0.0000 19.0905 0.0000 0.0000
# 5 0.0000 0.0000 0.0000 0.0000 3.4218 0.0000
# 6 0.0000 0.0000 0.0000 0.0000 0.0000 25.3875
#
#
#
# Elastic Compliance Matrix: (Units=1/GPa)
#
#
# Indices 1 2 3 4 5 6 
#
# 1 0.010634 -0.004106 0.001026 0.000000 0.000000 0.000000
# 2 -0.004106 0.009386 -0.003973 0.000000 0.000000 0.000000
# 3 0.001026 -0.003973 0.010108 0.000000 0.000000 0.000000
# 4 0.000000 0.000000 0.000000 0.052382 0.000000 0.000000
# 5 0.000000 0.000000 0.000000 0.000000 0.292244 0.000000
# 6 0.000000 0.000000 0.000000 0.000000 0.000000 0.039390
#
#
# Mechanical properties :
#
#
# Convention : Reuss Voigt Hill
#
# Bulk Modulus (GPa) = 62.41836 69.27295 65.84565
# Shear Modulus (GPa) = 11.53158 27.47364 19.50261
#
# Velocity S-wave (km/s) = 2.15020 3.31889 2.79628
# Velocity P-wave (km/s) = 5.58479 6.51616 6.06837
#
# Compressibility (1/GPa) = 0.01602093
#
# Stress axis : x y z
#
# Youngs Moduli (GPa) = 94.03777 106.54231 98.92965
#
# Poissons Ratio (x) = 0.43751 -0.10152
# Poissons Ratio (y) = 0.38616 0.39308
# Poissons Ratio (z) = -0.09650 0.42333
#
# Static dielectric constant tensor:
#      x y z
#    x 1.977150 0.000000 0.000000 
#    y 0.000000 2.047170 0.000000 
#    z 0.000000 0.000000 2.028890 
# 
# From -- ./inp_files/39205.got.cif
#   From: 2010.05.17/outbox.cif.g08.bks.cpg/sg68_20_cif.got.tgz:39205.got - 2010.06.03 18:57:09.
