data_PCOD9509808
_publ_section_title
;
Structure prediction by ZEFSAII (Michael W. Deem and Ramdas Pophale) SiO2 
 PCOD9509808
Probable space group: C C C A
;
_chemical_formula_sum "Si O2"
_cell_formula_units_Z 120
_cell_length_a 20.221281
_cell_length_b 12.290207
_cell_length_c 24.362883
_cell_angle_alpha 90.000000
_cell_angle_beta 90.000000
_cell_angle_gamma 90.000000
_cell_volume 6054.754540
_symmetry_space_group_name_H-M "C C C A"
_symmetry_group_IT_number 68
_space_group.IT_coordinate_system_code '2'
_symmetry_cell_setting 'orthorhombic'
loop_
_space_group_symop_operation_xyz
x,y,z
-x,1/2-y,z
x,1/2-y,1/2-z
-x,y,1/2-z
-x,-y,-z
x,1/2+y,-z
-x,1/2+y,1/2+z
x,-y,1/2+z
1/2+x,1/2+y,z
1/2-x,-y,z
1/2+x,-y,1/2-z
1/2-x,1/2+y,1/2-z
1/2-x,1/2-y,-z
1/2+x,y,-z
1/2-x,y,1/2+z
1/2+x,1/2-y,1/2+z
loop_
_atom_site_type_symbol
_atom_site_label
_atom_site_fract_x
_atom_site_fract_y
_atom_site_fract_z
Si Si1 0.500000 0.029613 0.750000
Si Si2 0.890917 0.874398 0.829511
Si Si3 0.678538 0.457737 0.761681
Si Si4 0.317594 0.209589 0.387452
Si Si5 0.905642 0.143078 0.717296
Si Si6 0.159834 0.839831 0.873070
Si Si7 0.329438 0.488243 0.036124
Si Si8 0.172960 0.963558 0.088585
O O1 0.548045 0.102941 0.788061
O O2 0.535436 0.943174 0.708680
O O3 0.828928 0.871937 0.786740
O O4 0.886119 0.764984 0.864597
O O5 0.874682 0.973079 0.869969
O O6 0.750000 0.500000 0.773491
O O7 0.640124 0.566829 0.744340
O O8 0.651202 0.409633 0.817819
O O9 0.361032 0.175755 0.334561
O O10 0.238366 0.191574 0.377423
O O11 0.328728 0.334513 0.402802
O O12 0.340742 0.128623 0.436060
O O13 0.925381 0.250000 0.750000
O O14 0.143770 0.916104 0.924695
O O15 0.250000 0.500000 0.037418
O O16 0.347768 0.503368 0.973068
O O17 0.250000 0.000000 0.097113
#
# Coordination Sequence:
#
# PCOD9509808 Si02
#       8
#     8  16  16  16  16  16  16  16
#     4  10  25  46  59  90 126 176 222 258 322 384
#     4  11  24  38  61  89 127 169 212 267 313 382
#     4  11  20  34  54  92 129 158 200 256 335 394
#     4  11  20  36  59  92 127 167 207 263 332 386
#     4  11  22  37  62  87 122 166 211 261 316 386
#     4  11  20  36  58  92 130 165 206 257 330 399
#     4   9  21  35  57  88 131 173 200 253 331 399
#     4  11  22  36  59  98 128 163 216 265 323 386
#
# _framework density 19.819136
#
# number of rings (size 3 to 8) (size 9 to 14) (size 15 to 20)
#    0.000    1.333    4.000    3.000    3.733    1.600 
#    0.000    5.333    0.000    0.800    3.467    0.000 
#    0.000    0.000    0.000    0.000    0.000    0.000 
#
# Total GULP energy -334588.541563 kJ/mol
# GULP energy per Si atom -5576.475693 kJ/mol
# Density = 1.977403 g / cm^3
# Si number density = 19.819136 Si / 1000 Ang^3
#
#
#
# Elastic Constant Matrix: (Units=GPa)
#
#
# Indices 1 2 3 4 5 6 
#
# 1 40.5973 49.0538 26.5371 0.0000 0.0000 0.0000
# 2 49.0538 143.7314 57.3689 0.0000 0.0000 0.0000
# 3 26.5371 57.3689 127.6887 0.0000 0.0000 0.0000
# 4 0.0000 0.0000 0.0000 22.0602 0.0000 0.0000
# 5 0.0000 0.0000 0.0000 0.0000 21.5088 0.0000
# 6 0.0000 0.0000 0.0000 0.0000 0.0000 -175.2927
#
#
#
# Elastic Compliance Matrix: (Units=1/GPa)
#
#
# Indices 1 2 3 4 5 6 
#
# 1 0.042746 -0.013456 -0.002838 0.000000 0.000000 0.000000
# 2 -0.013456 0.012713 -0.002915 0.000000 0.000000 0.000000
# 3 -0.002838 -0.002915 0.009731 0.000000 0.000000 0.000000
# 4 0.000000 0.000000 0.000000 0.045330 0.000000 0.000000
# 5 0.000000 0.000000 0.000000 0.000000 0.046493 0.000000
# 6 0.000000 0.000000 0.000000 0.000000 0.000000 -0.005705
#
#
# Mechanical properties :
#
#
# Convention : Reuss Voigt Hill
#
# Bulk Modulus (GPa) = 37.35285 64.21521 50.78403
# Shear Modulus (GPa) = 25.16955 -14.40757 5.38099
#
# Velocity S-wave (km/s) = 3.56752 -2.69913 1.64953
# Velocity P-wave (km/s) = 5.98810 4.77045 5.41362
#
# Compressibility (1/GPa) = 0.02677172
#
# Stress axis : x y z
#
# Youngs Moduli (GPa) = 23.39383 78.65671 102.76125
#
# Poissons Ratio (x) = 1.05840 0.29166
# Poissons Ratio (y) = 0.31479 0.29960
# Poissons Ratio (z) = 0.06640 0.22932
#
# Static dielectric constant tensor:
#      x y z
#    x 1.805770 0.000000 0.000000 
#    y 0.000000 1.738310 0.000000 
#    z 0.000000 0.000000 1.698620 
# 
# From -- ./inp_files/51968.got.cif
#   From: 2010.05.17/outbox.cif.g08.bks.cpg/sg68_26_cif.got.tgz:51968.got - 2010.06.03 18:57:09.
