data_PCOD9509782
_publ_section_title
;
Structure prediction by ZEFSAII (Michael W. Deem and Ramdas Pophale) SiO2 
 PCOD9509782
Probable space group: C C C A
;
_chemical_formula_sum "Si O2"
_cell_formula_units_Z 92
_cell_length_a 15.939047
_cell_length_b 11.387666
_cell_length_c 23.260733
_cell_angle_alpha 90.000000
_cell_angle_beta 90.000000
_cell_angle_gamma 90.000000
_cell_volume 4222.021770
_symmetry_space_group_name_H-M "C C C A"
_symmetry_group_IT_number 68
_space_group.IT_coordinate_system_code '2'
_symmetry_cell_setting 'orthorhombic'
loop_
_space_group_symop_operation_xyz
x,y,z
-x,1/2-y,z
x,1/2-y,1/2-z
-x,y,1/2-z
-x,-y,-z
x,1/2+y,-z
-x,1/2+y,1/2+z
x,-y,1/2+z
1/2+x,1/2+y,z
1/2-x,-y,z
1/2+x,-y,1/2-z
1/2-x,1/2+y,1/2-z
1/2-x,1/2-y,-z
1/2+x,y,-z
1/2-x,y,1/2+z
1/2+x,1/2-y,1/2+z
loop_
_atom_site_type_symbol
_atom_site_label
_atom_site_fract_x
_atom_site_fract_y
_atom_site_fract_z
Si Si1 0.750000 0.500000 0.981268
Si Si2 0.000000 0.750000 0.250000
Si Si3 0.136048 0.157637 0.301641
Si Si4 0.632655 0.425664 0.573879
Si Si5 0.737095 0.221931 0.101891
Si Si6 0.500000 0.250000 0.888903
Si Si7 0.872381 0.870615 0.335156
Si Si8 0.250000 0.500000 0.261505
O O1 0.743224 0.617072 0.943130
O O2 0.665274 0.499696 0.019953
O O3 0.057096 0.668997 0.291103
O O4 0.123274 0.250000 0.250000
O O5 0.217071 0.179303 0.340799
O O6 0.059855 0.174539 0.346069
O O7 0.165635 0.037666 0.271903
O O8 0.711141 0.336907 0.582521
O O9 0.554211 0.338223 0.572435
O O10 0.616080 0.510718 0.628047
O O11 0.645576 0.265927 0.119850
O O12 0.785542 0.895320 0.300612
#
# Coordination Sequence:
#
# PCOD9509782 Si02
#       8
#     8   4  16  16  16   8  16   8
#     4  12  24  44  84 106 136 196 262 328 358 418
#     4  12  32  40  74 110 170 194 220 308 388 452
#     4  11  21  38  65 102 136 183 226 288 352 441
#     4  11  23  46  72 105 140 194 244 315 362 438
#     4  11  22  44  72 109 137 188 257 302 363 441
#     4  10  25  42  63 108 149 178 239 290 378 438
#     4  12  23  47  68 109 149 195 240 298 373 442
#     4  12  20  38  72  94 140 190 242 280 348 424
#
# _framework density 21.790507999999999
#
# number of rings (size 3 to 8) (size 9 to 14) (size 15 to 20)
#    0.000    0.696    5.217    3.391    2.435    0.000 
#    3.130    4.348    0.000    0.000    0.000    0.000 
#    0.000    0.000    0.000    0.000    0.000    0.000 
#
# Total GULP energy -256690.677416 kJ/mol
# GULP energy per Si atom -5580.232118 kJ/mol
# Density = 2.174091 g / cm^3
# Si number density = 21.790508 Si / 1000 Ang^3
#
#
#
# Elastic Constant Matrix: (Units=GPa)
#
#
# Indices 1 2 3 4 5 6 
#
# 1 95.9038 58.4097 37.9393 0.0000 0.0000 0.0000
# 2 58.4097 111.0109 64.1662 0.0000 0.0000 0.0000
# 3 37.9393 64.1662 85.6911 0.0000 0.0000 0.0000
# 4 0.0000 0.0000 0.0000 38.4031 0.0000 0.0000
# 5 0.0000 0.0000 0.0000 0.0000 10.6110 0.0000
# 6 0.0000 0.0000 0.0000 0.0000 0.0000 35.4110
#
#
#
# Elastic Compliance Matrix: (Units=1/GPa)
#
#
# Indices 1 2 3 4 5 6 
#
# 1 0.015429 -0.007352 -0.001326 0.000000 0.000000 0.000000
# 2 -0.007352 0.019385 -0.011261 0.000000 0.000000 0.000000
# 3 -0.001326 -0.011261 0.020689 0.000000 0.000000 0.000000
# 4 0.000000 0.000000 0.000000 0.026040 0.000000 0.000000
# 5 0.000000 0.000000 0.000000 0.000000 0.094241 0.000000
# 6 0.000000 0.000000 0.000000 0.000000 0.000000 0.028240
#
#
# Mechanical properties :
#
#
# Convention : Reuss Voigt Hill
#
# Bulk Modulus (GPa) = 63.99537 68.18180 66.08859
# Shear Modulus (GPa) = 20.07135 25.69106 22.88121
#
# Velocity S-wave (km/s) = 3.03826 3.43739 3.24397
# Velocity P-wave (km/s) = 6.46067 6.86380 6.66529
#
# Compressibility (1/GPa) = 0.01562613
#
# Stress axis : x y z
#
# Youngs Moduli (GPa) = 64.81177 51.58540 48.33420
#
# Poissons Ratio (x) = 0.37924 0.06410
# Poissons Ratio (y) = 0.47648 0.54429
# Poissons Ratio (z) = 0.08595 0.58090
#
# Static dielectric constant tensor:
#      x y z
#    x 1.787610 0.000000 0.000000 
#    y 0.000000 1.864540 0.000000 
#    z 0.000000 0.000000 1.876010 
# 
# From -- ./inp_files/39504.got.cif
#   From: 2010.05.17/outbox.cif.g08.bks.cpg/sg68_20_cif.got.tgz:39504.got - 2010.06.03 18:57:09.
