data_PCOD9509094
_publ_section_title
;
Structure prediction by ZEFSAII (Michael W. Deem and Ramdas Pophale) SiO2 
 PCOD9509094
Probable space group: C C C A
;
_chemical_formula_sum "Si O2"
_cell_formula_units_Z 96
_cell_length_a 8.562443
_cell_length_b 26.716962
_cell_length_c 20.191364
_cell_angle_alpha 90.000000
_cell_angle_beta 90.000000
_cell_angle_gamma 90.000000
_cell_volume 4619.026185
_symmetry_space_group_name_H-M "C C C A"
_symmetry_group_IT_number 68
_space_group.IT_coordinate_system_code '2'
_symmetry_cell_setting 'orthorhombic'
loop_
_space_group_symop_operation_xyz
x,y,z
-x,1/2-y,z
x,1/2-y,1/2-z
-x,y,1/2-z
-x,-y,-z
x,1/2+y,-z
-x,1/2+y,1/2+z
x,-y,1/2+z
1/2+x,1/2+y,z
1/2-x,-y,z
1/2+x,-y,1/2-z
1/2-x,1/2+y,1/2-z
1/2-x,1/2-y,-z
1/2+x,y,-z
1/2-x,y,1/2+z
1/2+x,1/2-y,1/2+z
loop_
_atom_site_type_symbol
_atom_site_label
_atom_site_fract_x
_atom_site_fract_y
_atom_site_fract_z
Si Si1 0.404319 0.116472 0.085910
Si Si2 0.859718 0.453022 0.702626
Si Si3 0.841111 0.545255 0.904254
Si Si4 0.383182 0.422307 0.975882
Si Si5 0.562093 0.806740 0.679732
Si Si6 0.838699 0.373595 0.288834
O O1 0.431913 0.070448 0.136082
O O2 0.221251 0.112555 0.070901
O O3 0.475791 0.163748 0.121932
O O4 0.493180 0.109454 0.017301
O O5 0.750000 0.500000 0.688981
O O6 0.762836 0.408630 0.738868
O O7 0.000000 0.469140 0.750000
O O8 0.750000 0.500000 0.869081
O O9 0.856640 0.591502 0.853963
O O10 0.015304 0.538299 0.933701
O O11 0.730092 0.555233 0.968058
O O12 0.500000 0.750000 0.675156
O O13 0.500000 0.825849 0.750000
O O14 0.742728 0.824394 0.686176
O O15 0.000000 0.362618 0.250000
#
# Coordination Sequence:
#
# PCOD9509094 Si02
#       6
#    16  16  16  16  16  16
#     4  11  21  44  63  93 132 176 226 275 327 394
#     4  12  23  39  63  96 138 184 224 270 339 399
#     4  11  22  38  60  94 138 181 231 270 325 400
#     4  10  23  37  64  88 134 186 225 273 321 389
#     4  11  23  46  75  94 125 173 215 276 355 408
#     4  12  23  40  66 100 136 166 219 288 339 403
#
# _framework density 20.783601000000001
#
# number of rings (size 3 to 8) (size 9 to 14) (size 15 to 20)
#    0.000    0.833    5.000    2.500    0.000    6.667 
#    0.000    2.500    0.000    0.000    0.000    0.000 
#    0.000    0.000    0.000    0.000    0.000    0.000 
#
# Total GULP energy -268058.245649 kJ/mol
# GULP energy per Si atom -5584.546784 kJ/mol
# Density = 2.073630 g / cm^3
# Si number density = 20.783601 Si / 1000 Ang^3
#
#
#
# Elastic Constant Matrix: (Units=GPa)
#
#
# Indices 1 2 3 4 5 6 
#
# 1 143.0343 58.4430 41.6759 0.0000 0.0000 0.0000
# 2 58.4430 101.8152 29.3847 0.0000 0.0000 0.0000
# 3 41.6759 29.3847 83.0414 0.0000 0.0000 0.0000
# 4 0.0000 0.0000 0.0000 20.6175 0.0000 0.0000
# 5 0.0000 0.0000 0.0000 0.0000 50.5759 0.0000
# 6 0.0000 0.0000 0.0000 0.0000 0.0000 19.0739
#
#
#
# Elastic Compliance Matrix: (Units=1/GPa)
#
#
# Indices 1 2 3 4 5 6 
#
# 1 0.009878 -0.004722 -0.003287 0.000000 0.000000 0.000000
# 2 -0.004722 0.013196 -0.002300 0.000000 0.000000 0.000000
# 3 -0.003287 -0.002300 0.014506 0.000000 0.000000 0.000000
# 4 0.000000 0.000000 0.000000 0.048502 0.000000 0.000000
# 5 0.000000 0.000000 0.000000 0.000000 0.019772 0.000000
# 6 0.000000 0.000000 0.000000 0.000000 0.000000 0.052428
#
#
# Mechanical properties :
#
#
# Convention : Reuss Voigt Hill
#
# Bulk Modulus (GPa) = 58.95146 65.21089 62.08117
# Shear Modulus (GPa) = 27.09258 31.27930 29.18594
#
# Velocity S-wave (km/s) = 3.61440 3.88364 3.75143
# Velocity P-wave (km/s) = 6.77085 7.18014 6.97850
#
# Compressibility (1/GPa) = 0.01696311
#
# Stress axis : x y z
#
# Youngs Moduli (GPa) = 101.23275 75.78232 68.93931
#
# Poissons Ratio (x) = 0.35781 0.22659
# Poissons Ratio (y) = 0.47798 0.15854
# Poissons Ratio (z) = 0.33273 0.17428
#
# Static dielectric constant tensor:
#      x y z
#    x 1.851520 0.000000 0.000000 
#    y 0.000000 1.751240 0.000000 
#    z 0.000000 0.000000 1.778600 
# 
# From -- ./inp_files/36469.got.cif
#   From: 2010.05.17/outbox.cif.g08.bks.cpg/sg68_19_cif.got.tgz:36469.got - 2010.06.03 18:57:09.
