data_PCOD9509864
_publ_section_title
;
Structure prediction by ZEFSAII (Michael W. Deem and Ramdas Pophale) SiO2 
 PCOD9509864
Probable space group: C C C A
;
_chemical_formula_sum "Si O2"
_cell_formula_units_Z 72
_cell_length_a 7.601283
_cell_length_b 16.375456
_cell_length_c 22.534556
_cell_angle_alpha 90.000000
_cell_angle_beta 90.000000
_cell_angle_gamma 90.000000
_cell_volume 2804.977034
_symmetry_space_group_name_H-M "C C C A"
_symmetry_group_IT_number 68
_space_group.IT_coordinate_system_code '2'
_symmetry_cell_setting 'orthorhombic'
loop_
_space_group_symop_operation_xyz
x,y,z
-x,1/2-y,z
x,1/2-y,1/2-z
-x,y,1/2-z
-x,-y,-z
x,1/2+y,-z
-x,1/2+y,1/2+z
x,-y,1/2+z
1/2+x,1/2+y,z
1/2-x,-y,z
1/2+x,-y,1/2-z
1/2-x,1/2+y,1/2-z
1/2-x,1/2-y,-z
1/2+x,y,-z
1/2-x,y,1/2+z
1/2+x,1/2-y,1/2+z
loop_
_atom_site_type_symbol
_atom_site_label
_atom_site_fract_x
_atom_site_fract_y
_atom_site_fract_z
Si Si1 0.000000 0.467129 0.750000
Si Si2 0.795914 0.905288 0.551634
Si Si3 0.153033 0.823680 0.329856
Si Si4 0.750000 0.000000 0.343817
Si Si5 0.500000 0.250000 0.661489
Si Si6 0.691170 0.133349 0.925944
O O1 0.894721 0.402183 0.790073
O O2 0.902299 0.522405 0.701898
O O3 0.689156 0.860322 0.603912
O O4 0.771451 0.855836 0.490295
O O5 0.001885 0.908160 0.565451
O O6 0.750000 0.000000 0.542328
O O7 0.348708 0.799605 0.305576
O O8 0.000000 0.750000 0.327184
O O9 0.694560 0.073428 0.385695
O O10 0.635928 0.293470 0.615791
#
# Coordination Sequence:
#
# PCOD9509864 Si02
#       6
#     8  16  16   8   8  16
#     4  12  29  48  78 101 148 196 254 318 372 451
#     4  11  24  41  73 104 149 185 237 307 371 445
#     4  11  26  48  74 108 147 197 249 304 378 450
#     4  12  28  48  74 108 142 192 258 308 380 454
#     4  10  26  44  73 106 148 191 248 302 372 452
#     4  11  25  43  69 108 143 190 240 301 378 449
#
# _framework density 25.668658000000001
#
# number of rings (size 3 to 8) (size 9 to 14) (size 15 to 20)
#    0.000    0.889    1.111    3.667   15.556    1.778 
#    0.000    6.667    0.000    0.000    0.000    0.000 
#    0.000    0.000    0.000    0.000    0.000    0.000 
#
# Total GULP energy -201061.287851 kJ/mol
# GULP energy per Si atom -5585.035774 kJ/mol
# Density = 2.561024 g / cm^3
# Si number density = 25.668658 Si / 1000 Ang^3
#
#
#
# Elastic Constant Matrix: (Units=GPa)
#
#
# Indices 1 2 3 4 5 6 
#
# 1 108.1005 -5.2651 15.3962 0.0000 0.0000 0.0000
# 2 -5.2651 45.1209 -2.0572 0.0000 0.0000 0.0000
# 3 15.3962 -2.0572 141.8951 0.0000 0.0000 0.0000
# 4 0.0000 0.0000 0.0000 30.3339 0.0000 0.0000
# 5 0.0000 0.0000 0.0000 0.0000 51.5353 0.0000
# 6 0.0000 0.0000 0.0000 0.0000 0.0000 40.5807
#
#
#
# Elastic Compliance Matrix: (Units=1/GPa)
#
#
# Indices 1 2 3 4 5 6 
#
# 1 0.009446 0.001056 -0.001010 0.000000 0.000000 0.000000
# 2 0.001056 0.022295 0.000209 0.000000 0.000000 0.000000
# 3 -0.001010 0.000209 0.007160 0.000000 0.000000 0.000000
# 4 0.000000 0.000000 0.000000 0.032966 0.000000 0.000000
# 5 0.000000 0.000000 0.000000 0.000000 0.019404 0.000000
# 6 0.000000 0.000000 0.000000 0.000000 0.000000 0.024642
#
#
# Mechanical properties :
#
#
# Convention : Reuss Voigt Hill
#
# Bulk Modulus (GPa) = 25.37312 34.58493 29.97903
# Shear Modulus (GPa) = 38.89808 43.62615 41.26212
#
# Velocity S-wave (km/s) = 3.89703 4.12708 4.01370
# Velocity P-wave (km/s) = 5.49139 6.01774 5.76058
#
# Compressibility (1/GPa) = 0.03941179
#
# Stress axis : x y z
#
# Youngs Moduli (GPa) = 105.86618 44.85224 139.66421
#
# Poissons Ratio (x) = -0.04737 0.14101
# Poissons Ratio (y) = -0.11181 -0.02914
# Poissons Ratio (z) = 0.10688 -0.00936
#
# Static dielectric constant tensor:
#      x y z
#    x 2.216810 0.000000 0.000000 
#    y 0.000000 2.099710 0.000000 
#    z 0.000000 0.000000 2.006790 
# 
# From -- ./inp_files/36074.got.cif
#   From: 2010.05.17/outbox.cif.g08.bks.cpg/sg68_19_cif.got.tgz:36074.got - 2010.06.03 18:57:09.
