data_PCOD9509964
_publ_section_title
;
Structure prediction by ZEFSAII (Michael W. Deem and Ramdas Pophale) SiO2 
 PCOD9509964
Probable space group: C C C A
;
_chemical_formula_sum "Si O2"
_cell_formula_units_Z 116
_cell_length_a 10.592464
_cell_length_b 21.891013
_cell_length_c 24.874965
_cell_angle_alpha 90.000000
_cell_angle_beta 90.000000
_cell_angle_gamma 90.000000
_cell_volume 5768.001091
_symmetry_space_group_name_H-M "C C C A"
_symmetry_group_IT_number 68
_space_group.IT_coordinate_system_code '2'
_symmetry_cell_setting 'orthorhombic'
loop_
_space_group_symop_operation_xyz
x,y,z
-x,1/2-y,z
x,1/2-y,1/2-z
-x,y,1/2-z
-x,-y,-z
x,1/2+y,-z
-x,1/2+y,1/2+z
x,-y,1/2+z
1/2+x,1/2+y,z
1/2-x,-y,z
1/2+x,-y,1/2-z
1/2-x,1/2+y,1/2-z
1/2-x,1/2-y,-z
1/2+x,y,-z
1/2-x,y,1/2+z
1/2+x,1/2-y,1/2+z
loop_
_atom_site_type_symbol
_atom_site_label
_atom_site_fract_x
_atom_site_fract_y
_atom_site_fract_z
Si Si1 0.532364 0.820877 0.420334
Si Si2 0.147654 0.552360 0.750120
Si Si3 0.362765 0.240727 0.186066
Si Si4 0.342869 0.163662 0.830244
Si Si5 0.136698 0.579222 0.994776
Si Si6 0.108260 0.551813 0.447489
Si Si7 0.249777 0.379403 0.852101
Si Si8 0.000000 0.250000 0.250000
O O1 0.500000 0.750000 0.429539
O O2 0.415695 0.847045 0.385861
O O3 0.576559 0.858887 0.471731
O O4 0.652036 0.834822 0.382374
O O5 0.250000 0.500000 0.742400
O O6 0.172879 0.602354 0.703721
O O7 0.175582 0.581092 0.808697
O O8 0.000000 0.533918 0.750000
O O9 0.500000 0.250000 0.163302
O O10 0.358133 0.250000 0.250000
O O11 0.276448 0.293097 0.160340
O O12 0.332465 0.169968 0.178606
O O13 0.424092 0.206389 0.789814
O O14 0.113753 0.521707 0.953965
O O15 0.291034 0.577851 0.993485
O O16 0.040299 0.566143 0.043761
O O17 0.167398 0.580094 0.393315
#
# Coordination Sequence:
#
# PCOD9509964 Si02
#       8
#    16  16  16  16  16  16  16   4
#     4  11  20  34  66  96 118 154 219 272 309 376
#     4  12  26  39  61  92 134 177 225 270 320 385
#     4  11  22  36  56  86 125 166 207 262 321 382
#     4  12  19  37  60  88 120 167 218 259 310 380
#     4   9  20  40  64  92 121 161 214 268 333 394
#     4   9  20  40  68  89 121 166 211 269 331 398
#     4  11  21  39  65  92 120 171 219 262 326 389
#     4  12  16  32  66  88 104 156 232 264 276 380
#
# _framework density 20.110954
#
# number of rings (size 3 to 8) (size 9 to 14) (size 15 to 20)
#    0.000    1.241    6.207    0.000    3.862    1.103 
#    2.483    3.448    3.034    0.000    0.000    0.000 
#    0.000    0.000    0.000    0.000    0.000    0.000 
#
# Total GULP energy -323122.802882 kJ/mol
# GULP energy per Si atom -5571.082808 kJ/mol
# Density = 2.006518 g / cm^3
# Si number density = 20.110954 Si / 1000 Ang^3
#
#
#
# Elastic Constant Matrix: (Units=GPa)
#
#
# Indices 1 2 3 4 5 6 
#
# 1 97.3228 31.0240 6.6535 0.0000 0.0000 0.0000
# 2 31.0240 124.1072 18.4565 0.0000 0.0000 0.0000
# 3 6.6535 18.4565 25.2410 0.0000 0.0000 0.0000
# 4 0.0000 0.0000 0.0000 20.9176 0.0000 0.0000
# 5 0.0000 0.0000 0.0000 0.0000 16.0185 0.0000
# 6 0.0000 0.0000 0.0000 0.0000 0.0000 42.6068
#
#
#
# Elastic Compliance Matrix: (Units=1/GPa)
#
#
# Indices 1 2 3 4 5 6 
#
# 1 0.011188 -0.002646 -0.001014 0.000000 0.000000 0.000000
# 2 -0.002646 0.009666 -0.006371 0.000000 0.000000 0.000000
# 3 -0.001014 -0.006371 0.044544 0.000000 0.000000 0.000000
# 4 0.000000 0.000000 0.000000 0.047807 0.000000 0.000000
# 5 0.000000 0.000000 0.000000 0.000000 0.062428 0.000000
# 6 0.000000 0.000000 0.000000 0.000000 0.000000 0.023470
#
#
# Mechanical properties :
#
#
# Convention : Reuss Voigt Hill
#
# Bulk Modulus (GPa) = 22.05748 39.88210 30.96979
# Shear Modulus (GPa) = 21.34224 28.61104 24.97664
#
# Velocity S-wave (km/s) = 3.26118 3.77591 3.52794
# Velocity P-wave (km/s) = 5.01718 6.23571 5.65934
#
# Compressibility (1/GPa) = 0.04533609
#
# Stress axis : x y z
#
# Youngs Moduli (GPa) = 89.38259 103.45152 22.44978
#
# Poissons Ratio (x) = 0.27372 0.02277
# Poissons Ratio (y) = 0.23649 0.14302
# Poissons Ratio (z) = 0.09067 0.65906
#
# Static dielectric constant tensor:
#      x y z
#    x 1.775920 0.000000 0.000000 
#    y 0.000000 1.738120 0.000000 
#    z 0.000000 0.000000 -0.168730 
# 
# From -- ./inp_files/50345.got.cif
#   From: 2010.05.17/outbox.cif.g08.bks.cpg/sg68_26_cif.got.tgz:50345.got - 2010.06.03 18:57:09.
