data_PCOD9509143
_publ_section_title
;
Structure prediction by ZEFSAII (Michael W. Deem and Ramdas Pophale) SiO2 
 PCOD9509143
Probable space group: C C C A
;
_chemical_formula_sum "Si O2"
_cell_formula_units_Z 88
_cell_length_a 23.100746
_cell_length_b 8.338019
_cell_length_c 23.024304
_cell_angle_alpha 90.000000
_cell_angle_beta 90.000000
_cell_angle_gamma 90.000000
_cell_volume 4434.813860
_symmetry_space_group_name_H-M "C C C A"
_symmetry_group_IT_number 68
_space_group.IT_coordinate_system_code '2'
_symmetry_cell_setting 'orthorhombic'
loop_
_space_group_symop_operation_xyz
x,y,z
-x,1/2-y,z
x,1/2-y,1/2-z
-x,y,1/2-z
-x,-y,-z
x,1/2+y,-z
-x,1/2+y,1/2+z
x,-y,1/2+z
1/2+x,1/2+y,z
1/2-x,-y,z
1/2+x,-y,1/2-z
1/2-x,1/2+y,1/2-z
1/2-x,1/2-y,-z
1/2+x,y,-z
1/2-x,y,1/2+z
1/2+x,1/2-y,1/2+z
loop_
_atom_site_type_symbol
_atom_site_label
_atom_site_fract_x
_atom_site_fract_y
_atom_site_fract_z
Si Si1 0.250000 0.500000 0.884169
Si Si2 0.557145 0.856030 0.657921
Si Si3 0.125078 0.441700 0.877323
Si Si4 0.608196 0.583682 0.250626
Si Si5 0.229434 0.677359 0.690946
Si Si6 0.507853 0.561677 0.065118
O O1 0.186111 0.466958 0.909502
O O2 0.238383 0.670979 0.851000
O O3 0.500000 0.750000 0.667752
O O4 0.608647 0.742435 0.635534
O O5 0.574984 0.945733 0.715996
O O6 0.538344 0.979488 0.607989
O O7 0.126109 0.523773 0.813201
O O8 0.071369 0.514253 0.912093
O O9 0.572968 0.750000 0.250000
O O10 0.663917 0.633587 0.289495
O O11 0.258490 0.750000 0.750000
O O12 0.250000 0.500000 0.672245
O O13 0.500000 0.750000 0.066922
O O14 0.500000 0.500000 0.000000
#
# Coordination Sequence:
#
# PCOD9509143 Si02
#       6
#     8  16  16  16  16  16
#     4  12  22  38  58  94 138 180 214 260 318 398
#     4  10  23  40  61  90 125 169 218 273 334 385
#     4  11  22  38  62  95 132 171 218 266 325 397
#     4  11  20  34  54  89 130 170 215 257 321 389
#     4  11  19  31  52  81 127 179 215 250 303 381
#     4  11  24  45  72  93 119 161 222 286 338 398
#
# _framework density 19.842995999999999
#
# number of rings (size 3 to 8) (size 9 to 14) (size 15 to 20)
#    0.000    1.091    4.545    4.364    0.000    5.091 
#    0.000    4.545    0.000    4.364    0.000    0.000 
#    0.000    0.000    0.000    0.000    0.000    0.000 
#
# Total GULP energy -245365.668262 kJ/mol
# GULP energy per Si atom -5576.492460 kJ/mol
# Density = 1.979783 g / cm^3
# Si number density = 19.842996 Si / 1000 Ang^3
#
#
#
# Elastic Constant Matrix: (Units=GPa)
#
#
# Indices 1 2 3 4 5 6 
#
# 1 87.1112 32.7996 24.1305 0.0000 0.0000 0.0000
# 2 32.7996 160.2459 25.0146 0.0000 0.0000 0.0000
# 3 24.1305 25.0146 53.7141 0.0000 0.0000 0.0000
# 4 0.0000 0.0000 0.0000 29.5826 0.0000 0.0000
# 5 0.0000 0.0000 0.0000 0.0000 5.4017 0.0000
# 6 0.0000 0.0000 0.0000 0.0000 0.0000 26.7127
#
#
#
# Elastic Compliance Matrix: (Units=1/GPa)
#
#
# Indices 1 2 3 4 5 6 
#
# 1 0.013672 -0.001984 -0.005218 0.000000 0.000000 0.000000
# 2 -0.001984 0.007017 -0.002377 0.000000 0.000000 0.000000
# 3 -0.005218 -0.002377 0.022068 0.000000 0.000000 0.000000
# 4 0.000000 0.000000 0.000000 0.033804 0.000000 0.000000
# 5 0.000000 0.000000 0.000000 0.000000 0.185127 0.000000
# 6 0.000000 0.000000 0.000000 0.000000 0.000000 0.037435
#
#
# Mechanical properties :
#
#
# Convention : Reuss Voigt Hill
#
# Bulk Modulus (GPa) = 42.37280 51.66231 47.01755
# Shear Modulus (GPa) = 15.33046 26.94783 21.13915
#
# Velocity S-wave (km/s) = 2.78256 3.68917 3.26747
# Velocity P-wave (km/s) = 5.63240 6.65122 6.16290
#
# Compressibility (1/GPa) = 0.02360005
#
# Stress axis : x y z
#
# Youngs Moduli (GPa) = 73.14203 142.50097 45.31418
#
# Poissons Ratio (x) = 0.28270 0.23646
# Poissons Ratio (y) = 0.14510 0.10770
# Poissons Ratio (z) = 0.38166 0.33870
#
# Static dielectric constant tensor:
#      x y z
#    x 1.744590 0.000000 0.000000 
#    y 0.000000 1.783900 0.000000 
#    z 0.000000 0.000000 1.666800 
# 
# From -- ./inp_files/40735.got.cif
#   From: 2010.05.17/outbox.cif.g08.bks.cpg/sg68_21_cif.got.tgz:40735.got - 2010.06.03 18:57:09.
