data_PCOD9509003
_publ_section_title
;
Structure prediction by ZEFSAII (Michael W. Deem and Ramdas Pophale) SiO2 
 PCOD9509003
Probable space group: C C C A
;
_chemical_formula_sum "Si O2"
_cell_formula_units_Z 64
_cell_length_a 13.050191
_cell_length_b 16.825682
_cell_length_c 13.523066
_cell_angle_alpha 90.000000
_cell_angle_beta 90.000000
_cell_angle_gamma 90.000000
_cell_volume 2969.372706
_symmetry_space_group_name_H-M "C C C A"
_symmetry_group_IT_number 68
_space_group.IT_coordinate_system_code '2'
_symmetry_cell_setting 'orthorhombic'
loop_
_space_group_symop_operation_xyz
x,y,z
-x,1/2-y,z
x,1/2-y,1/2-z
-x,y,1/2-z
-x,-y,-z
x,1/2+y,-z
-x,1/2+y,1/2+z
x,-y,1/2+z
1/2+x,1/2+y,z
1/2-x,-y,z
1/2+x,-y,1/2-z
1/2-x,1/2+y,1/2-z
1/2-x,1/2-y,-z
1/2+x,y,-z
1/2-x,y,1/2+z
1/2+x,1/2-y,1/2+z
loop_
_atom_site_type_symbol
_atom_site_label
_atom_site_fract_x
_atom_site_fract_y
_atom_site_fract_z
Si Si1 0.214023 0.168955 0.125167
Si Si2 0.066816 0.080535 0.991097
Si Si3 0.377240 0.680462 0.042041
Si Si4 0.768852 0.411794 0.822811
O O1 0.137796 0.243944 0.113537
O O2 0.257073 0.147802 0.231874
O O3 0.152912 0.094537 0.076059
O O4 0.309038 0.192489 0.055552
O O5 0.127483 0.089527 0.887640
O O6 0.987254 0.152124 0.007472
O O7 0.000000 0.000000 0.000000
O O8 0.322382 0.609155 0.101387
O O9 0.750000 0.500000 0.784332
#
# Coordination Sequence:
#
# PCOD9509003 Si02
#       4
#    16  16  16  16
#     4  10  24  41  69  96 139 183 233 291 358 422
#     4  11  23  42  68  98 141 184 234 290 358 425
#     4  10  22  45  65  97 138 184 230 294 355 422
#     4  11  23  40  67 102 139 182 232 293 357 426
#
# _framework density 21.553374000000002
#
# number of rings (size 3 to 8) (size 9 to 14) (size 15 to 20)
#    0.000    1.500    2.500    1.500    3.500    2.000 
#    0.000    2.500    0.000    9.000    0.000    0.000 
#    0.000    0.000    0.000    0.000    0.000    0.000 
#
# Total GULP energy -178630.811503 kJ/mol
# GULP energy per Si atom -5582.212859 kJ/mol
# Density = 2.150432 g / cm^3
# Si number density = 21.553374 Si / 1000 Ang^3
#
#
#
# Elastic Constant Matrix: (Units=GPa)
#
#
# Indices 1 2 3 4 5 6 
#
# 1 117.5781 46.2206 70.8349 0.0000 0.0000 0.0000
# 2 46.2206 114.5383 47.9519 0.0000 0.0000 0.0000
# 3 70.8349 47.9519 137.3077 0.0000 0.0000 0.0000
# 4 0.0000 0.0000 0.0000 29.5705 0.0000 0.0000
# 5 0.0000 0.0000 0.0000 0.0000 20.9700 0.0000
# 6 0.0000 0.0000 0.0000 0.0000 0.0000 35.7127
#
#
#
# Elastic Compliance Matrix: (Units=1/GPa)
#
#
# Indices 1 2 3 4 5 6 
#
# 1 0.013103 -0.002879 -0.005755 0.000000 0.000000 0.000000
# 2 -0.002879 0.010858 -0.002307 0.000000 0.000000 0.000000
# 3 -0.005755 -0.002307 0.011057 0.000000 0.000000 0.000000
# 4 0.000000 0.000000 0.000000 0.033817 0.000000 0.000000
# 5 0.000000 0.000000 0.000000 0.000000 0.047687 0.000000
# 6 0.000000 0.000000 0.000000 0.000000 0.000000 0.028001
#
#
# Mechanical properties :
#
#
# Convention : Reuss Voigt Hill
#
# Bulk Modulus (GPa) = 76.11158 77.71545 76.91351
# Shear Modulus (GPa) = 29.27667 30.87841 30.07754
#
# Velocity S-wave (km/s) = 3.68956 3.78914 3.73968
# Velocity P-wave (km/s) = 7.31711 7.43498 7.37628
#
# Compressibility (1/GPa) = 0.01313861
#
# Stress axis : x y z
#
# Youngs Moduli (GPa) = 76.31603 92.09680 90.43822
#
# Poissons Ratio (x) = 0.26511 0.52043
# Poissons Ratio (y) = 0.21968 0.20864
# Poissons Ratio (z) = 0.43917 0.21247
#
# Static dielectric constant tensor:
#      x y z
#    x 1.790380 0.000000 0.000000 
#    y 0.000000 1.859590 0.000000 
#    z 0.000000 0.000000 1.754550 
# 
# From -- ./inp_files/12800.got.cif
#   From: 2010.05.17/outbox.cif.g08.bks.cpg/sg68_7_cif.got.tgz:12800.got - 2010.06.03 18:57:09.
