data_PCOD9509232
_publ_section_title
;
Structure prediction by ZEFSAII (Michael W. Deem and Ramdas Pophale) SiO2 
 PCOD9509232
Probable space group: C C C A
;
_chemical_formula_sum "Si O2"
_cell_formula_units_Z 64
_cell_length_a 23.982470
_cell_length_b 7.535410
_cell_length_c 16.129266
_cell_angle_alpha 90.000000
_cell_angle_beta 90.000000
_cell_angle_gamma 90.000000
_cell_volume 2914.844568
_symmetry_space_group_name_H-M "C C C A"
_symmetry_group_IT_number 68
_space_group.IT_coordinate_system_code '2'
_symmetry_cell_setting 'orthorhombic'
loop_
_space_group_symop_operation_xyz
x,y,z
-x,1/2-y,z
x,1/2-y,1/2-z
-x,y,1/2-z
-x,-y,-z
x,1/2+y,-z
-x,1/2+y,1/2+z
x,-y,1/2+z
1/2+x,1/2+y,z
1/2-x,-y,z
1/2+x,-y,1/2-z
1/2-x,1/2+y,1/2-z
1/2-x,1/2-y,-z
1/2+x,y,-z
1/2-x,y,1/2+z
1/2+x,1/2-y,1/2+z
loop_
_atom_site_type_symbol
_atom_site_label
_atom_site_fract_x
_atom_site_fract_y
_atom_site_fract_z
Si Si1 0.813365 0.046246 0.224138
Si Si2 0.441110 0.808380 0.076022
Si Si3 0.081408 0.120407 0.682615
Si Si4 0.617892 0.945246 0.577772
O O1 0.821445 0.250000 0.250000
O O2 0.750000 0.000000 0.245370
O O3 0.860405 0.945041 0.277019
O O4 0.825233 0.988528 0.127883
O O5 0.500000 0.750000 0.034879
O O6 0.416286 0.620593 0.103153
O O7 0.451117 0.949230 0.149435
O O8 0.394946 0.910402 0.019260
O O9 0.055240 0.250000 0.750000
O O10 0.095019 0.259642 0.610957
#
# Coordination Sequence:
#
# PCOD9509232 Si02
#       4
#    16  16  16  16
#     4  11  22  44  70  95 133 179 222 282 348 397
#     4  12  24  42  70  96 139 184 221 278 345 393
#     4  10  23  42  65  98 136 174 227 279 328 409
#     4  11  23  41  66 100 132 176 229 274 329 413
#
# _framework density 21.956574
#
# number of rings (size 3 to 8) (size 9 to 14) (size 15 to 20)
#    0.000    1.000    5.000    3.000    0.000    0.000 
#    0.000   16.250    0.000    0.000    0.000    0.000 
#    0.000    0.000    0.000    0.000    0.000    0.000 
#
# Total GULP energy -178210.001363 kJ/mol
# GULP energy per Si atom -5569.062543 kJ/mol
# Density = 2.190660 g / cm^3
# Si number density = 21.956574 Si / 1000 Ang^3
#
#
#
# Elastic Constant Matrix: (Units=GPa)
#
#
# Indices 1 2 3 4 5 6 
#
# 1 86.1853 46.8642 28.8128 0.0000 0.0000 0.0000
# 2 46.8642 192.2341 28.6083 0.0000 0.0000 0.0000
# 3 28.8128 28.6083 59.5623 0.0000 0.0000 0.0000
# 4 0.0000 0.0000 0.0000 39.0004 0.0000 0.0000
# 5 0.0000 0.0000 0.0000 0.0000 27.2477 0.0000
# 6 0.0000 0.0000 0.0000 0.0000 0.0000 12.6795
#
#
#
# Elastic Compliance Matrix: (Units=1/GPa)
#
#
# Indices 1 2 3 4 5 6 
#
# 1 0.015120 -0.002798 -0.005971 0.000000 0.000000 0.000000
# 2 -0.002798 0.006120 -0.001586 0.000000 0.000000 0.000000
# 3 -0.005971 -0.001586 0.020439 0.000000 0.000000 0.000000
# 4 0.000000 0.000000 0.000000 0.025641 0.000000 0.000000
# 5 0.000000 0.000000 0.000000 0.000000 0.036700 0.000000
# 6 0.000000 0.000000 0.000000 0.000000 0.000000 0.078868
#
#
# Mechanical properties :
#
#
# Convention : Reuss Voigt Hill
#
# Bulk Modulus (GPa) = 47.68547 60.72804 54.20675
# Shear Modulus (GPa) = 23.74313 31.36526 27.55420
#
# Velocity S-wave (km/s) = 3.29198 3.78367 3.54636
# Velocity P-wave (km/s) = 6.01787 6.84153 6.44287
#
# Compressibility (1/GPa) = 0.02097075
#
# Stress axis : x y z
#
# Youngs Moduli (GPa) = 66.13694 163.39704 48.92555
#
# Poissons Ratio (x) = 0.45711 0.29211
# Poissons Ratio (y) = 0.18502 0.07761
# Poissons Ratio (z) = 0.39487 0.25918
#
# Static dielectric constant tensor:
#      x y z
#    x 1.813070 0.000000 0.000000 
#    y 0.000000 1.794490 0.000000 
#    z 0.000000 0.000000 1.819480 
# 
# From -- ./inp_files/24995.got.cif
#   From: 2010.05.17/outbox.cif.g08.bks.cpg/sg68_13_cif.got.tgz:24995.got - 2010.06.03 18:57:09.
