data_PCOD9509854
_publ_section_title
;
Structure prediction by ZEFSAII (Michael W. Deem and Ramdas Pophale) SiO2 
 PCOD9509854
Probable space group: C C C A
;
_chemical_formula_sum "Si O2"
_cell_formula_units_Z 68
_cell_length_a 5.937299
_cell_length_b 18.504638
_cell_length_c 23.789294
_cell_angle_alpha 90.000000
_cell_angle_beta 90.000000
_cell_angle_gamma 90.000000
_cell_volume 2613.671893
_symmetry_space_group_name_H-M "C C C A"
_symmetry_group_IT_number 68
_space_group.IT_coordinate_system_code '2'
_symmetry_cell_setting 'orthorhombic'
loop_
_space_group_symop_operation_xyz
x,y,z
-x,1/2-y,z
x,1/2-y,1/2-z
-x,y,1/2-z
-x,-y,-z
x,1/2+y,-z
-x,1/2+y,1/2+z
x,-y,1/2+z
1/2+x,1/2+y,z
1/2-x,-y,z
1/2+x,-y,1/2-z
1/2-x,1/2+y,1/2-z
1/2-x,1/2-y,-z
1/2+x,y,-z
1/2-x,y,1/2+z
1/2+x,1/2-y,1/2+z
loop_
_atom_site_type_symbol
_atom_site_label
_atom_site_fract_x
_atom_site_fract_y
_atom_site_fract_z
Si Si1 0.236744 0.717667 0.855561
Si Si2 0.500000 0.750000 0.750000
Si Si3 0.000000 0.461722 0.250000
Si Si4 0.090585 0.069481 0.126573
Si Si5 0.000000 0.250000 0.955873
Si Si6 0.382339 0.100460 0.981962
O O1 0.360619 0.706152 0.796074
O O2 0.238874 0.640258 0.884398
O O3 0.319325 0.770030 0.906318
O O4 0.000000 0.750000 0.839640
O O5 0.750000 0.500000 0.249891
O O6 0.997288 0.422844 0.190083
O O7 0.888860 0.078751 0.083415
O O8 0.250000 0.000000 0.121074
O O9 0.088147 0.316026 0.994540
O O10 0.136071 0.073351 0.001421
#
# Coordination Sequence:
#
# PCOD9509854 Si02
#       6
#    16   4   8  16   8  16
#     4  11  24  47  72 112 152 199 259 325 390 462
#     4  10  26  42  80 110 146 190 272 322 380 450
#     4  10  26  53  79 104 152 206 252 306 388 465
#     4  11  27  49  76 112 155 205 257 318 393 473
#     4  11  24  45  74 107 152 209 246 322 394 467
#     4  12  26  46  76 110 154 202 258 313 385 462
#
# _framework density 26.017037999999999
#
# number of rings (size 3 to 8) (size 9 to 14) (size 15 to 20)
#    0.000    0.941    2.353    2.471    4.941    8.471 
#    8.471    0.000    0.000    0.000    0.000    0.000 
#    0.000    0.000    0.000    0.000    0.000    0.000 
#
# Total GULP energy -189399.770121 kJ/mol
# GULP energy per Si atom -5570.581474 kJ/mol
# Density = 2.595782 g / cm^3
# Si number density = 26.017038 Si / 1000 Ang^3
#
#
#
# Elastic Constant Matrix: (Units=GPa)
#
#
# Indices 1 2 3 4 5 6 
#
# 1 139.9348 34.2505 41.9679 0.0000 0.0000 0.0000
# 2 34.2505 99.2614 17.3538 0.0000 0.0000 0.0000
# 3 41.9679 17.3538 226.5254 0.0000 0.0000 0.0000
# 4 0.0000 0.0000 0.0000 33.3652 0.0000 0.0000
# 5 0.0000 0.0000 0.0000 0.0000 37.5255 0.0000
# 6 0.0000 0.0000 0.0000 0.0000 0.0000 28.4516
#
#
#
# Elastic Compliance Matrix: (Units=1/GPa)
#
#
# Indices 1 2 3 4 5 6 
#
# 1 0.008175 -0.002591 -0.001316 0.000000 0.000000 0.000000
# 2 -0.002591 0.011032 -0.000365 0.000000 0.000000 0.000000
# 3 -0.001316 -0.000365 0.004686 0.000000 0.000000 0.000000
# 4 0.000000 0.000000 0.000000 0.029971 0.000000 0.000000
# 5 0.000000 0.000000 0.000000 0.000000 0.026649 0.000000
# 6 0.000000 0.000000 0.000000 0.000000 0.000000 0.035147
#
#
# Mechanical properties :
#
#
# Convention : Reuss Voigt Hill
#
# Bulk Modulus (GPa) = 65.14864 72.54067 68.84466
# Shear Modulus (GPa) = 38.66337 44.67840 41.67089
#
# Velocity S-wave (km/s) = 3.85915 4.14850 4.00644
# Velocity P-wave (km/s) = 6.70466 7.13367 6.92249
#
# Compressibility (1/GPa) = 0.01534951
#
# Stress axis : x y z
#
# Youngs Moduli (GPa) = 122.32408 90.64381 213.38692
#
# Poissons Ratio (x) = 0.23483 0.28084
# Poissons Ratio (y) = 0.31691 0.07793
# Poissons Ratio (z) = 0.16099 0.03310
#
# Static dielectric constant tensor:
#      x y z
#    x 2.338410 0.000000 0.000000 
#    y 0.000000 2.259390 0.000000 
#    z 0.000000 0.000000 2.016240 
# 
# From -- ./inp_files/48209.got.cif
#   From: 2010.05.17/outbox.cif.g08.bks.cpg/sg68_25_cif.got.tgz:48209.got - 2010.06.03 18:57:09.
