data_PCOD9509146
_publ_section_title
;
Structure prediction by ZEFSAII (Michael W. Deem and Ramdas Pophale) SiO2 
 PCOD9509146
Probable space group: C C C A
;
_chemical_formula_sum "Si O2"
_cell_formula_units_Z 64
_cell_length_a 10.427338
_cell_length_b 12.694572
_cell_length_c 20.754770
_cell_angle_alpha 90.000000
_cell_angle_beta 90.000000
_cell_angle_gamma 90.000000
_cell_volume 2747.321213
_symmetry_space_group_name_H-M "C C C A"
_symmetry_group_IT_number 68
_space_group.IT_coordinate_system_code '2'
_symmetry_cell_setting 'orthorhombic'
loop_
_space_group_symop_operation_xyz
x,y,z
-x,1/2-y,z
x,1/2-y,1/2-z
-x,y,1/2-z
-x,-y,-z
x,1/2+y,-z
-x,1/2+y,1/2+z
x,-y,1/2+z
1/2+x,1/2+y,z
1/2-x,-y,z
1/2+x,-y,1/2-z
1/2-x,1/2+y,1/2-z
1/2-x,1/2-y,-z
1/2+x,y,-z
1/2-x,y,1/2+z
1/2+x,1/2-y,1/2+z
loop_
_atom_site_type_symbol
_atom_site_label
_atom_site_fract_x
_atom_site_fract_y
_atom_site_fract_z
Si Si1 0.696798 0.157941 0.955059
Si Si2 0.558187 0.442992 0.184817
Si Si3 0.170946 0.827441 0.688073
Si Si4 0.015617 0.875970 0.053582
O O1 0.651331 0.207239 0.886596
O O2 0.832443 0.095321 0.949653
O O3 0.750000 0.250000 0.000000
O O4 0.575913 0.105790 0.992130
O O5 0.500000 0.403015 0.250000
O O6 0.685940 0.373152 0.182566
O O7 0.588543 0.566124 0.193466
O O8 0.474085 0.428224 0.120840
O O9 0.155311 0.750000 0.750000
O O10 0.000000 0.750000 0.064170
#
# Coordination Sequence:
#
# PCOD9509146 Si02
#       4
#    16  16  16  16
#     4   9  19  38  64 100 129 178 227 275 345 409
#     4  10  23  40  64 101 126 176 238 277 345 410
#     4  10  23  43  66  92 142 177 222 291 345 409
#     4   9  19  37  65  98 136 174 225 287 336 408
#
# _framework density 23.295421000000001
#
# number of rings (size 3 to 8) (size 9 to 14) (size 15 to 20)
#    0.000    2.500    0.000    0.000   10.500    1.500 
#   13.500    0.000    0.000    0.000    0.000    0.000 
#    0.000    0.000    0.000    0.000    0.000    0.000 
#
# Total GULP energy -178194.348833 kJ/mol
# GULP energy per Si atom -5568.573401 kJ/mol
# Density = 2.324240 g / cm^3
# Si number density = 23.295421 Si / 1000 Ang^3
#
#
#
# Elastic Constant Matrix: (Units=GPa)
#
#
# Indices 1 2 3 4 5 6 
#
# 1 96.2912 24.2990 71.2647 0.0000 0.0000 0.0000
# 2 24.2990 78.5267 58.7544 0.0000 0.0000 0.0000
# 3 71.2647 58.7544 239.8351 0.0000 0.0000 0.0000
# 4 0.0000 0.0000 0.0000 24.7963 0.0000 0.0000
# 5 0.0000 0.0000 0.0000 0.0000 36.8344 0.0000
# 6 0.0000 0.0000 0.0000 0.0000 0.0000 -42.2506
#
#
#
# Elastic Compliance Matrix: (Units=1/GPa)
#
#
# Indices 1 2 3 4 5 6 
#
# 1 0.013443 -0.001434 -0.003643 0.000000 0.000000 0.000000
# 2 -0.001434 0.015746 -0.003431 0.000000 0.000000 0.000000
# 3 -0.003643 -0.003431 0.006093 0.000000 0.000000 0.000000
# 4 0.000000 0.000000 0.000000 0.040329 0.000000 0.000000
# 5 0.000000 0.000000 0.000000 0.000000 0.027149 0.000000
# 6 0.000000 0.000000 0.000000 0.000000 0.000000 -0.023668
#
#
# Mechanical properties :
#
#
# Convention : Reuss Voigt Hill
#
# Bulk Modulus (GPa) = 54.75045 80.36546 67.55796
# Shear Modulus (GPa) = 48.92575 21.23166 35.07871
#
# Velocity S-wave (km/s) = 4.58780 3.02223 3.88470
# Velocity P-wave (km/s) = 7.18454 6.83753 7.01318
#
# Compressibility (1/GPa) = 0.01826469
#
# Stress axis : x y z
#
# Youngs Moduli (GPa) = 74.38595 63.51012 164.13135
#
# Poissons Ratio (x) = 0.09107 0.59798
# Poissons Ratio (y) = 0.10666 0.56317
# Poissons Ratio (z) = 0.27101 0.21792
#
# Static dielectric constant tensor:
#      x y z
#    x 1.387860 0.000000 0.000000 
#    y 0.000000 1.861450 0.000000 
#    z 0.000000 0.000000 2.098540 
# 
# From -- ./inp_files/29113.got.cif
#   From: 2010.05.17/outbox.cif.g08.bks.cpg/sg68_15_cif.got.tgz:29113.got - 2010.06.03 18:57:09.
