data_PCOD9509906
_publ_section_title
;
Structure prediction by ZEFSAII (Michael W. Deem and Ramdas Pophale) SiO2 
 PCOD9509906
Probable space group: C C C A
;
_chemical_formula_sum "Si O2"
_cell_formula_units_Z 88
_cell_length_a 18.861106
_cell_length_b 9.442315
_cell_length_c 23.527925
_cell_angle_alpha 90.000000
_cell_angle_beta 90.000000
_cell_angle_gamma 90.000000
_cell_volume 4190.147080
_symmetry_space_group_name_H-M "C C C A"
_symmetry_group_IT_number 68
_space_group.IT_coordinate_system_code '2'
_symmetry_cell_setting 'orthorhombic'
loop_
_space_group_symop_operation_xyz
x,y,z
-x,1/2-y,z
x,1/2-y,1/2-z
-x,y,1/2-z
-x,-y,-z
x,1/2+y,-z
-x,1/2+y,1/2+z
x,-y,1/2+z
1/2+x,1/2+y,z
1/2-x,-y,z
1/2+x,-y,1/2-z
1/2-x,1/2+y,1/2-z
1/2-x,1/2-y,-z
1/2+x,y,-z
1/2-x,y,1/2+z
1/2+x,1/2-y,1/2+z
loop_
_atom_site_type_symbol
_atom_site_label
_atom_site_fract_x
_atom_site_fract_y
_atom_site_fract_z
Si Si1 0.874631 0.803309 0.603602
Si Si2 0.750000 0.500000 0.379586
Si Si3 0.615964 0.485574 0.117033
Si Si4 0.450543 0.132739 0.011922
Si Si5 0.348235 0.215792 0.313783
Si Si6 0.529783 0.512985 0.314136
O O1 0.809578 0.907631 0.589339
O O2 0.852382 0.642822 0.616887
O O3 0.922504 0.803931 0.547051
O O4 0.918692 0.868725 0.657063
O O5 0.707222 0.389308 0.341710
O O6 0.609481 0.422201 0.053954
O O7 0.651064 0.364058 0.153928
O O8 0.537020 0.501904 0.143808
O O9 0.500000 0.250000 0.041412
O O10 0.500000 0.000000 0.000000
O O11 0.329058 0.250000 0.250000
O O12 0.423681 0.131556 0.313855
O O13 0.500000 0.540737 0.250000
#
# Coordination Sequence:
#
# PCOD9509906 Si02
#       6
#    16   8  16  16  16  16
#     4  11  25  45  64 101 134 183 226 270 334 399
#     4  10  28  48  64  88 138 184 236 268 314 404
#     4  12  24  39  71 103 135 170 220 281 346 392
#     4  12  22  41  70 103 138 167 216 279 346 403
#     4  11  24  44  67  94 133 180 221 273 329 400
#     4  11  21  40  66 104 139 167 214 278 347 400
#
# _framework density 21.001650000000001
#
# number of rings (size 3 to 8) (size 9 to 14) (size 15 to 20)
#    0.000    0.727    5.455    2.182    2.545    3.636 
#    0.000    3.636    0.000    0.000    0.000    0.000 
#    0.000    0.000    0.000    0.000    0.000    0.000 
#
# Total GULP energy -245924.600291 kJ/mol
# GULP energy per Si atom -5589.195461 kJ/mol
# Density = 2.095385 g / cm^3
# Si number density = 21.001650 Si / 1000 Ang^3
#
#
#
# Elastic Constant Matrix: (Units=GPa)
#
#
# Indices 1 2 3 4 5 6 
#
# 1 55.4466 20.3183 2.6351 0.0000 0.0000 0.0000
# 2 20.3183 166.3651 32.6343 0.0000 0.0000 0.0000
# 3 2.6351 32.6343 96.1757 0.0000 0.0000 0.0000
# 4 0.0000 0.0000 0.0000 32.6895 0.0000 0.0000
# 5 0.0000 0.0000 0.0000 0.0000 -4.0639 0.0000
# 6 0.0000 0.0000 0.0000 0.0000 0.0000 -21.8959
#
#
#
# Elastic Compliance Matrix: (Units=1/GPa)
#
#
# Indices 1 2 3 4 5 6 
#
# 1 0.018888 -0.002362 0.000284 0.000000 0.000000 0.000000
# 2 -0.002362 0.006735 -0.002221 0.000000 0.000000 0.000000
# 3 0.000284 -0.002221 0.011143 0.000000 0.000000 0.000000
# 4 0.000000 0.000000 0.000000 0.030591 0.000000 0.000000
# 5 0.000000 0.000000 0.000000 0.000000 -0.246072 0.000000
# 6 0.000000 0.000000 0.000000 0.000000 0.000000 -0.045671
#
#
# Mechanical properties :
#
#
# Convention : Reuss Voigt Hill
#
# Bulk Modulus (GPa) = 35.50120 47.68476 41.59298
# Shear Modulus (GPa) = -24.22501 18.83925 -2.69288
#
# Velocity S-wave (km/s) = -3.39998 2.99831 -1.13358
# Velocity P-wave (km/s) = 1.23595 5.89415 4.25844
#
# Compressibility (1/GPa) = 0.02816806
#
# Stress axis : x y z
#
# Youngs Moduli (GPa) = 52.94477 148.47812 89.73968
#
# Poissons Ratio (x) = 0.35078 -0.02550
# Poissons Ratio (y) = 0.12508 0.19927
# Poissons Ratio (z) = -0.01504 0.32971
#
# Static dielectric constant tensor:
#      x y z
#    x 1.762390 0.000000 0.000000 
#    y 0.000000 1.698330 0.000000 
#    z 0.000000 0.000000 1.700230 
# 
# From -- ./inp_files/46479.got.cif
#   From: 2010.05.17/outbox.cif.g08.bks.cpg/sg68_24_cif.got.tgz:46479.got - 2010.06.03 18:57:09.
