data_PCOD9509162
_publ_section_title
;
Structure prediction by ZEFSAII (Michael W. Deem and Ramdas Pophale) SiO2 
 PCOD9509162
Probable space group: C C C A
;
_chemical_formula_sum "Si O2"
_cell_formula_units_Z 104
_cell_length_a 20.542080
_cell_length_b 16.590108
_cell_length_c 15.855208
_cell_angle_alpha 90.000000
_cell_angle_beta 90.000000
_cell_angle_gamma 90.000000
_cell_volume 5403.380775
_symmetry_space_group_name_H-M "C C C A"
_symmetry_group_IT_number 68
_space_group.IT_coordinate_system_code '2'
_symmetry_cell_setting 'orthorhombic'
loop_
_space_group_symop_operation_xyz
x,y,z
-x,1/2-y,z
x,1/2-y,1/2-z
-x,y,1/2-z
-x,-y,-z
x,1/2+y,-z
-x,1/2+y,1/2+z
x,-y,1/2+z
1/2+x,1/2+y,z
1/2-x,-y,z
1/2+x,-y,1/2-z
1/2-x,1/2+y,1/2-z
1/2-x,1/2-y,-z
1/2+x,y,-z
1/2-x,y,1/2+z
1/2+x,1/2-y,1/2+z
loop_
_atom_site_type_symbol
_atom_site_label
_atom_site_fract_x
_atom_site_fract_y
_atom_site_fract_z
Si Si1 0.964918 0.095719 0.923924
Si Si2 0.858646 0.821489 0.306248
Si Si3 0.070072 0.968783 0.893637
Si Si4 0.000000 0.750000 0.981141
Si Si5 0.748927 0.220927 0.595531
Si Si6 0.305087 0.063732 0.336705
Si Si7 0.898914 0.292430 0.339704
O O1 0.909786 0.136002 0.867113
O O2 0.934832 0.056165 0.008192
O O3 0.008525 0.027816 0.878362
O O4 0.006080 0.170926 0.961010
O O5 0.890139 0.750000 0.250000
O O6 0.798902 0.778206 0.354073
O O7 0.829517 0.888086 0.244467
O O8 0.077513 0.885958 0.840819
O O9 0.134441 0.019100 0.877557
O O10 0.938857 0.744953 0.917976
O O11 0.750000 0.250000 0.500000
O O12 0.775816 0.130418 0.601192
O O13 0.677351 0.217620 0.637482
O O14 0.250000 0.000000 0.313905
O O15 0.912126 0.250000 0.250000
#
# Coordination Sequence:
#
# PCOD9509162 Si02
#       7
#    16  16  16   8  16  16  16
#     4  10  23  46  63  96 131 173 225 265 329 399
#     4  10  24  44  67  99 129 173 222 272 333 395
#     4  10  23  43  65  93 134 172 216 276 324 396
#     4  10  23  40  69  92 132 172 224 266 325 404
#     4  11  23  42  70  94 129 173 224 268 330 403
#     4  11  23  43  63  98 135 166 214 276 334 386
#     4  11  22  43  66  97 131 174 221 271 333 395
#
# _framework density 19.247209999999999
#
# number of rings (size 3 to 8) (size 9 to 14) (size 15 to 20)
#    0.000    1.538    1.538    3.462    6.462    0.615 
#   16.615    0.000    0.000    0.000    0.000    0.000 
#    0.000    0.000    0.000    0.000    0.000    0.000 
#
# Total GULP energy -290452.241141 kJ/mol
# GULP energy per Si atom -5585.620022 kJ/mol
# Density = 1.920340 g / cm^3
# Si number density = 19.247210 Si / 1000 Ang^3
#
#
#
# Elastic Constant Matrix: (Units=GPa)
#
#
# Indices 1 2 3 4 5 6 
#
# 1 107.0638 81.0861 34.0950 0.0000 0.0000 0.0000
# 2 81.0861 163.7199 70.0057 0.0000 0.0000 0.0000
# 3 34.0950 70.0057 65.6917 0.0000 0.0000 0.0000
# 4 0.0000 0.0000 0.0000 12.6594 0.0000 0.0000
# 5 0.0000 0.0000 0.0000 0.0000 69.9607 0.0000
# 6 0.0000 0.0000 0.0000 0.0000 0.0000 27.6828
#
#
#
# Elastic Compliance Matrix: (Units=1/GPa)
#
#
# Indices 1 2 3 4 5 6 
#
# 1 0.014949 -0.007507 0.000241 0.000000 0.000000 0.000000
# 2 -0.007507 0.014991 -0.012079 0.000000 0.000000 0.000000
# 3 0.000241 -0.012079 0.027970 0.000000 0.000000 0.000000
# 4 0.000000 0.000000 0.000000 0.078992 0.000000 0.000000
# 5 0.000000 0.000000 0.000000 0.000000 0.014294 0.000000
# 6 0.000000 0.000000 0.000000 0.000000 0.000000 0.036123
#
#
# Mechanical properties :
#
#
# Convention : Reuss Voigt Hill
#
# Bulk Modulus (GPa) = 52.02945 78.53878 65.28411
# Shear Modulus (GPa) = 21.51313 32.14649 26.82981
#
# Velocity S-wave (km/s) = 3.34687 4.09123 3.73763
# Velocity P-wave (km/s) = 6.48277 7.95056 7.25388
#
# Compressibility (1/GPa) = 0.01921988
#
# Stress axis : x y z
#
# Youngs Moduli (GPa) = 66.89472 66.70671 35.75261
#
# Poissons Ratio (x) = 0.50076 -0.00862
# Poissons Ratio (y) = 0.50217 0.43187
# Poissons Ratio (z) = -0.01614 0.80577
#
# Static dielectric constant tensor:
#      x y z
#    x 1.682900 0.000000 0.000000 
#    y 0.000000 1.685270 0.000000 
#    z 0.000000 0.000000 1.649390 
# 
# From -- ./inp_files/24628.got.cif
#   From: 2010.05.17/outbox.cif.g08.bks.cpg/sg68_13_cif.got.tgz:24628.got - 2010.06.03 18:57:09.
