data_PCOD9509481
_publ_section_title
;
Structure prediction by ZEFSAII (Michael W. Deem and Ramdas Pophale) SiO2 
 PCOD9509481
Probable space group: C C C A
;
_chemical_formula_sum "Si O2"
_cell_formula_units_Z 60
_cell_length_a 5.213218
_cell_length_b 21.119996
_cell_length_c 21.703170
_cell_angle_alpha 90.000000
_cell_angle_beta 90.000000
_cell_angle_gamma 90.000000
_cell_volume 2389.587237
_symmetry_space_group_name_H-M "C C C A"
_symmetry_group_IT_number 68
_space_group.IT_coordinate_system_code '2'
_symmetry_cell_setting 'orthorhombic'
loop_
_space_group_symop_operation_xyz
x,y,z
-x,1/2-y,z
x,1/2-y,1/2-z
-x,y,1/2-z
-x,-y,-z
x,1/2+y,-z
-x,1/2+y,1/2+z
x,-y,1/2+z
1/2+x,1/2+y,z
1/2-x,-y,z
1/2+x,-y,1/2-z
1/2-x,1/2+y,1/2-z
1/2-x,1/2-y,-z
1/2+x,y,-z
1/2-x,y,1/2+z
1/2+x,1/2-y,1/2+z
loop_
_atom_site_type_symbol
_atom_site_label
_atom_site_fract_x
_atom_site_fract_y
_atom_site_fract_z
Si Si1 0.000000 0.750000 0.750000
Si Si2 0.572130 0.561741 0.678129
Si Si3 0.357326 0.311957 0.148089
Si Si4 0.750000 0.000000 0.071658
Si Si5 0.558019 0.369930 0.964775
O O1 0.814017 0.707605 0.792951
O O2 0.500000 0.559244 0.750000
O O3 0.750000 0.500000 0.674493
O O4 0.579366 0.637097 0.666022
O O5 0.398766 0.544261 0.619652
O O6 0.500000 0.250000 0.124588
O O7 0.159155 0.338771 0.097635
O O8 0.925341 0.052811 0.038553
O O9 0.272308 0.352293 0.984363
#
# Coordination Sequence:
#
# PCOD9509481 Si02
#       5
#     4  16  16   8  16
#     4  12  26  52  80 110 164 208 266 324 406 508
#     4  11  23  42  70 110 153 195 256 325 399 478
#     4  11  28  49  79 112 154 209 258 328 404 480
#     4  10  24  40  70 106 148 212 248 326 400 472
#     4  11  27  48  76 110 155 205 270 328 393 474
#
# _framework density 25.108937999999998
#
# number of rings (size 3 to 8) (size 9 to 14) (size 15 to 20)
#    0.000    1.067    1.333    2.800   11.200    7.467 
#    2.400    0.000    0.000    0.000    0.000    0.000 
#    0.000    0.000    0.000    0.000    0.000    0.000 
#
# Total GULP energy -167344.019160 kJ/mol
# GULP energy per Si atom -5578.133972 kJ/mol
# Density = 2.505179 g / cm^3
# Si number density = 25.108938 Si / 1000 Ang^3
#
#
#
# Elastic Constant Matrix: (Units=GPa)
#
#
# Indices 1 2 3 4 5 6 
#
# 1 44.5644 39.6691 22.9398 0.0000 0.0000 0.0000
# 2 39.6691 167.3600 35.1475 0.0000 0.0000 0.0000
# 3 22.9398 35.1475 96.0379 0.0000 0.0000 0.0000
# 4 0.0000 0.0000 0.0000 61.9382 0.0000 0.0000
# 5 0.0000 0.0000 0.0000 0.0000 -41.3751 0.0000
# 6 0.0000 0.0000 0.0000 0.0000 0.0000 29.2070
#
#
#
# Elastic Compliance Matrix: (Units=1/GPa)
#
#
# Indices 1 2 3 4 5 6 
#
# 1 0.030530 -0.006180 -0.005031 0.000000 0.000000 0.000000
# 2 -0.006180 0.007724 -0.001350 0.000000 0.000000 0.000000
# 3 -0.005031 -0.001350 0.012108 0.000000 0.000000 0.000000
# 4 0.000000 0.000000 0.000000 0.016145 0.000000 0.000000
# 5 0.000000 0.000000 0.000000 0.000000 -0.024169 0.000000
# 6 0.000000 0.000000 0.000000 0.000000 0.000000 0.034238
#
#
# Mechanical properties :
#
#
# Convention : Reuss Voigt Hill
#
# Bulk Modulus (GPa) = 39.62002 55.94168 47.78085
# Shear Modulus (GPa) = 45.40813 23.96776 34.68795
#
# Velocity S-wave (km/s) = 4.25719 3.09293 3.72088
# Velocity P-wave (km/s) = 6.32285 5.92308 6.12623
#
# Compressibility (1/GPa) = 0.02523976
#
# Stress axis : x y z
#
# Youngs Moduli (GPa) = 32.75440 129.47325 82.58694
#
# Poissons Ratio (x) = 0.80015 0.41548
# Poissons Ratio (y) = 0.20242 0.11153
# Poissons Ratio (z) = 0.16478 0.17485
#
# Static dielectric constant tensor:
#      x y z
#    x 1.770660 0.000000 0.000000 
#    y 0.000000 -31.004400 0.000000 
#    z 0.000000 0.000000 1.889560 
# 
# From -- ./inp_files/40573.got.cif
#   From: 2010.05.17/outbox.cif.g08.bks.cpg/sg68_21_cif.got.tgz:40573.got - 2010.06.03 18:57:09.
