data_PCOD9509189
_publ_section_title
;
Structure prediction by ZEFSAII (Michael W. Deem and Ramdas Pophale) SiO2 
 PCOD9509189
Probable space group: C C C A
;
_chemical_formula_sum "Si O2"
_cell_formula_units_Z 80
_cell_length_a 21.009604
_cell_length_b 13.074668
_cell_length_c 14.449864
_cell_angle_alpha 90.000000
_cell_angle_beta 90.000000
_cell_angle_gamma 90.000000
_cell_volume 3969.285120
_symmetry_space_group_name_H-M "C C C A"
_symmetry_group_IT_number 68
_space_group.IT_coordinate_system_code '2'
_symmetry_cell_setting 'orthorhombic'
loop_
_space_group_symop_operation_xyz
x,y,z
-x,1/2-y,z
x,1/2-y,1/2-z
-x,y,1/2-z
-x,-y,-z
x,1/2+y,-z
-x,1/2+y,1/2+z
x,-y,1/2+z
1/2+x,1/2+y,z
1/2-x,-y,z
1/2+x,-y,1/2-z
1/2-x,1/2+y,1/2-z
1/2-x,1/2-y,-z
1/2+x,y,-z
1/2-x,y,1/2+z
1/2+x,1/2-y,1/2+z
loop_
_atom_site_type_symbol
_atom_site_label
_atom_site_fract_x
_atom_site_fract_y
_atom_site_fract_z
Si Si1 0.500000 0.750000 0.489496
Si Si2 0.084749 0.876064 0.385701
Si Si3 0.350042 0.028428 0.555236
Si Si4 0.012193 0.559307 0.856779
Si Si5 0.267200 0.666068 0.923444
Si Si6 0.158625 0.750000 0.250000
O O1 0.441966 0.720994 0.557103
O O2 0.510088 0.651364 0.424268
O O3 0.135306 0.929145 0.452941
O O4 0.113931 0.839847 0.289483
O O5 0.028208 0.956984 0.374127
O O6 0.414908 0.036439 0.614142
O O7 0.296375 0.101792 0.598260
O O8 0.319966 0.916649 0.545606
O O9 0.000000 0.588271 0.750000
O O10 0.297068 0.717650 0.834029
O O11 0.250000 0.750000 0.000000
#
# Coordination Sequence:
#
# PCOD9509189 Si02
#       6
#     8  16  16  16  16   8
#     4  10  23  41  66  96 142 178 212 270 362 402
#     4  11  25  41  72 101 134 178 225 287 342 414
#     4  10  23  46  67  94 138 179 222 286 339 409
#     4  11  24  43  67 108 133 177 224 286 349 409
#     4  11  24  47  68  95 135 181 233 280 340 403
#     4  12  26  45  70 106 131 184 238 278 342 414
#
# _framework density 20.154762000000002
#
# number of rings (size 3 to 8) (size 9 to 14) (size 15 to 20)
#    0.000    1.200    2.000    3.900    8.400    0.000 
#   18.000    0.000    0.000    0.000    0.000    0.000 
#    0.000    0.000    0.000    0.000    0.000    0.000 
#
# Total GULP energy -223631.770448 kJ/mol
# GULP energy per Si atom -5590.794261 kJ/mol
# Density = 2.010889 g / cm^3
# Si number density = 20.154762 Si / 1000 Ang^3
#
#
#
# Elastic Constant Matrix: (Units=GPa)
#
#
# Indices 1 2 3 4 5 6 
#
# 1 111.1276 75.0602 48.7581 0.0000 0.0000 0.0000
# 2 75.0602 128.1496 61.3692 0.0000 0.0000 0.0000
# 3 48.7581 61.3692 124.7353 0.0000 0.0000 0.0000
# 4 0.0000 0.0000 0.0000 27.1045 0.0000 0.0000
# 5 0.0000 0.0000 0.0000 0.0000 28.5833 0.0000
# 6 0.0000 0.0000 0.0000 0.0000 0.0000 17.1522
#
#
#
# Elastic Compliance Matrix: (Units=1/GPa)
#
#
# Indices 1 2 3 4 5 6 
#
# 1 0.015281 -0.007967 -0.002053 0.000000 0.000000 0.000000
# 2 -0.007967 0.014362 -0.003952 0.000000 0.000000 0.000000
# 3 -0.002053 -0.003952 0.010764 0.000000 0.000000 0.000000
# 4 0.000000 0.000000 0.000000 0.036894 0.000000 0.000000
# 5 0.000000 0.000000 0.000000 0.000000 0.034985 0.000000
# 6 0.000000 0.000000 0.000000 0.000000 0.000000 0.058302
#
#
# Mechanical properties :
#
#
# Convention : Reuss Voigt Hill
#
# Bulk Modulus (GPa) = 80.24135 81.59861 80.91998
# Shear Modulus (GPa) = 24.66852 26.48967 25.57909
#
# Velocity S-wave (km/s) = 3.50230 3.62928 3.56636
# Velocity P-wave (km/s) = 7.50026 7.62471 7.56274
#
# Compressibility (1/GPa) = 0.01246240
#
# Stress axis : x y z
#
# Youngs Moduli (GPa) = 65.44129 69.62627 92.90206
#
# Poissons Ratio (x) = 0.55471 0.19077
# Poissons Ratio (y) = 0.52137 0.36715
# Poissons Ratio (z) = 0.13438 0.27516
#
# Static dielectric constant tensor:
#      x y z
#    x 1.716520 0.000000 0.000000 
#    y 0.000000 1.731430 0.000000 
#    z 0.000000 0.000000 1.697670 
# 
# From -- ./inp_files/25215.got.cif
#   From: 2010.05.17/outbox.cif.g08.bks.cpg/sg68_13_cif.got.tgz:25215.got - 2010.06.03 18:57:09.
