data_PCOD9509776
_publ_section_title
;
Structure prediction by ZEFSAII (Michael W. Deem and Ramdas Pophale) SiO2 
 PCOD9509776
Probable space group: C C C A
;
_chemical_formula_sum "Si O2"
_cell_formula_units_Z 92
_cell_length_a 10.664626
_cell_length_b 20.412927
_cell_length_c 18.046383
_cell_angle_alpha 90.000000
_cell_angle_beta 90.000000
_cell_angle_gamma 90.000000
_cell_volume 3928.629581
_symmetry_space_group_name_H-M "C C C A"
_symmetry_group_IT_number 68
_space_group.IT_coordinate_system_code '2'
_symmetry_cell_setting 'orthorhombic'
loop_
_space_group_symop_operation_xyz
x,y,z
-x,1/2-y,z
x,1/2-y,1/2-z
-x,y,1/2-z
-x,-y,-z
x,1/2+y,-z
-x,1/2+y,1/2+z
x,-y,1/2+z
1/2+x,1/2+y,z
1/2-x,-y,z
1/2+x,-y,1/2-z
1/2-x,1/2+y,1/2-z
1/2-x,1/2-y,-z
1/2+x,y,-z
1/2-x,y,1/2+z
1/2+x,1/2-y,1/2+z
loop_
_atom_site_type_symbol
_atom_site_label
_atom_site_fract_x
_atom_site_fract_y
_atom_site_fract_z
Si Si1 0.096240 0.804666 0.400691
Si Si2 0.623235 0.458646 0.432279
Si Si3 0.000000 0.750000 0.750000
Si Si4 0.000000 0.150380 0.750000
Si Si5 0.251003 0.077516 0.729935
Si Si6 0.444852 0.433937 0.901257
Si Si7 0.351238 0.337164 0.636127
O O1 0.092231 0.881999 0.420054
O O2 0.246505 0.795228 0.407340
O O3 0.000000 0.750000 0.433013
O O4 0.064693 0.807575 0.313734
O O5 0.750000 0.500000 0.418538
O O6 0.615459 0.457076 0.521963
O O7 0.523961 0.500496 0.384164
O O8 0.916731 0.791740 0.695307
O O9 0.113992 0.107856 0.715845
O O10 0.349411 0.089159 0.662554
O O11 0.292261 0.108304 0.808453
O O12 0.250000 0.000000 0.736768
O O13 0.546649 0.375760 0.912524
#
# Coordination Sequence:
#
# PCOD9509776 Si02
#       7
#    16  16   4   8  16  16  16
#     4  11  25  44  68 101 140 189 241 302 377 448
#     4  11  24  45  71 103 146 193 249 315 366 452
#     4  12  24  46  66 102 144 184 218 304 372 440
#     4  10  25  39  66  99 138 181 232 302 372 445
#     4  11  23  39  68 103 135 174 236 305 366 443
#     4  11  23  45  71 102 140 189 242 298 380 441
#     4  11  25  42  71 100 139 185 240 298 374 455
#
# _framework density 23.417835
#
# number of rings (size 3 to 8) (size 9 to 14) (size 15 to 20)
#    0.000    1.043    3.478    1.826   12.174    1.391 
#    1.565    0.870    0.000    0.000    0.000    0.000 
#    0.000    0.000    0.000    0.000    0.000    0.000 
#
# Total GULP energy -256368.351336 kJ/mol
# GULP energy per Si atom -5573.225029 kJ/mol
# Density = 2.336454 g / cm^3
# Si number density = 23.417835 Si / 1000 Ang^3
#
#
#
# Elastic Constant Matrix: (Units=GPa)
#
#
# Indices 1 2 3 4 5 6 
#
# 1 141.6336 64.0428 30.5312 0.0000 0.0000 0.0000
# 2 64.0428 125.0516 -3.8952 0.0000 0.0000 0.0000
# 3 30.5312 -3.8952 44.0074 0.0000 0.0000 0.0000
# 4 0.0000 0.0000 0.0000 19.1307 0.0000 0.0000
# 5 0.0000 0.0000 0.0000 0.0000 9.4283 0.0000
# 6 0.0000 0.0000 0.0000 0.0000 0.0000 39.7750
#
#
#
# Elastic Compliance Matrix: (Units=1/GPa)
#
#
# Indices 1 2 3 4 5 6 
#
# 1 0.011802 -0.006317 -0.008747 0.000000 0.000000 0.000000
# 2 -0.006317 0.011400 0.005391 0.000000 0.000000 0.000000
# 3 -0.008747 0.005391 0.029269 0.000000 0.000000 0.000000
# 4 0.000000 0.000000 0.000000 0.052272 0.000000 0.000000
# 5 0.000000 0.000000 0.000000 0.000000 0.106063 0.000000
# 6 0.000000 0.000000 0.000000 0.000000 0.000000 0.025141
#
#
# Mechanical properties :
#
#
# Convention : Reuss Voigt Hill
#
# Bulk Modulus (GPa) = 30.18771 54.67227 42.42999
# Shear Modulus (GPa) = 18.77331 28.33437 23.55384
#
# Velocity S-wave (km/s) = 2.83444 3.48221 3.17489
# Velocity P-wave (km/s) = 4.86117 6.29005 5.62120
#
# Compressibility (1/GPa) = 0.03312606
#
# Stress axis : x y z
#
# Youngs Moduli (GPa) = 84.72864 87.72172 34.16542
#
# Poissons Ratio (x) = 0.55412 0.29886
# Poissons Ratio (y) = 0.53522 -0.18420
# Poissons Ratio (z) = 0.74115 -0.47295
#
# Static dielectric constant tensor:
#      x y z
#    x 1.905890 0.000000 0.000000 
#    y 0.000000 1.867970 0.000000 
#    z 0.000000 0.000000 1.861130 
# 
# From -- ./inp_files/37507.got.cif
#   From: 2010.05.17/outbox.cif.g08.bks.cpg/sg68_19_cif.got.tgz:37507.got - 2010.06.03 18:57:09.
