data_PCOD9509562
_publ_section_title
;
Structure prediction by ZEFSAII (Michael W. Deem and Ramdas Pophale) SiO2 
 PCOD9509562
Probable space group: C C C A
;
_chemical_formula_sum "Si O2"
_cell_formula_units_Z 36
_cell_length_a 7.536935
_cell_length_b 5.526750
_cell_length_c 34.135568
_cell_angle_alpha 90.000000
_cell_angle_beta 90.000000
_cell_angle_gamma 90.000000
_cell_volume 1421.908739
_symmetry_space_group_name_H-M "C C C A"
_symmetry_group_IT_number 68
_space_group.IT_coordinate_system_code '2'
_symmetry_cell_setting 'orthorhombic'
loop_
_space_group_symop_operation_xyz
x,y,z
-x,1/2-y,z
x,1/2-y,1/2-z
-x,y,1/2-z
-x,-y,-z
x,1/2+y,-z
-x,1/2+y,1/2+z
x,-y,1/2+z
1/2+x,1/2+y,z
1/2-x,-y,z
1/2+x,-y,1/2-z
1/2-x,1/2+y,1/2-z
1/2-x,1/2-y,-z
1/2+x,y,-z
1/2-x,y,1/2+z
1/2+x,1/2-y,1/2+z
loop_
_atom_site_type_symbol
_atom_site_label
_atom_site_fract_x
_atom_site_fract_y
_atom_site_fract_z
Si Si1 0.250000 0.000000 0.422080
Si Si2 0.500000 0.250000 0.523956
Si Si3 0.000000 0.750000 0.250000
Si Si4 0.000000 0.750000 0.868433
Si Si5 0.250000 0.500000 0.310727
O O1 0.183317 0.217706 0.450490
O O2 0.075441 0.023856 0.394167
O O3 0.500000 0.500000 0.500000
O O4 0.893802 0.909685 0.280416
O O5 0.161895 0.687507 0.840268
#
# Coordination Sequence:
#
# PCOD9509562 Si02
#       5
#     8   8   4   8   8
#     4  10  24  43  69 102 140 188 240 298 368 436
#     4  11  24  44  71 105 144 191 246 307 370 441
#     4  12  24  40  66  96 130 180 228 292 354 432
#     4  11  24  43  66  99 137 184 232 296 361 439
#     4  12  24  43  67  98 138 180 236 292 362 428
#
# _framework density 25.318079000000001
#
# number of rings (size 3 to 8) (size 9 to 14) (size 15 to 20)
#    0.000    0.889    0.000    6.667    0.000    7.111 
#    0.000    0.000    0.000    0.000    0.000    0.000 
#    0.000    0.000    0.000    0.000    0.000    0.000 
#
# Total GULP energy -100243.333965 kJ/mol
# GULP energy per Si atom -5569.074109 kJ/mol
# Density = 2.526045 g / cm^3
# Si number density = 25.318079 Si / 1000 Ang^3
#
#
#
# Elastic Constant Matrix: (Units=GPa)
#
#
# Indices 1 2 3 4 5 6 
#
# 1 103.0544 63.4346 63.4061 0.0000 0.0000 0.0000
# 2 63.4346 136.9937 87.5920 0.0000 0.0000 0.0000
# 3 63.4061 87.5920 152.5326 0.0000 0.0000 0.0000
# 4 0.0000 0.0000 0.0000 9.0367 0.0000 0.0000
# 5 0.0000 0.0000 0.0000 0.0000 -529.1208 0.0000
# 6 0.0000 0.0000 0.0000 0.0000 0.0000 55.1333
#
#
#
# Elastic Compliance Matrix: (Units=1/GPa)
#
#
# Indices 1 2 3 4 5 6 
#
# 1 0.014647 -0.004566 -0.003467 0.000000 0.000000 0.000000
# 2 -0.004566 0.012958 -0.005543 0.000000 0.000000 0.000000
# 3 -0.003467 -0.005543 0.011180 0.000000 0.000000 0.000000
# 4 0.000000 0.000000 0.000000 0.110659 0.000000 0.000000
# 5 0.000000 0.000000 0.000000 0.000000 -0.001890 0.000000
# 6 0.000000 0.000000 0.000000 0.000000 0.000000 0.018138
#
#
# Mechanical properties :
#
#
# Convention : Reuss Voigt Hill
#
# Bulk Modulus (GPa) = 85.95541 91.27180 88.61360
# Shear Modulus (GPa) = 25.41661 -81.11362 -27.84850
#
# Velocity S-wave (km/s) = 3.17186 -5.66634 -3.32014
# Velocity P-wave (km/s) = 6.88754 2.58486 4.51424
#
# Compressibility (1/GPa) = 0.01163394
#
# Stress axis : x y z
#
# Youngs Moduli (GPa) = 68.27356 77.17237 89.44317
#
# Poissons Ratio (x) = 0.35234 0.31008
# Poissons Ratio (y) = 0.31171 0.49581
# Poissons Ratio (z) = 0.23669 0.42779
#
# Static dielectric constant tensor:
#      x y z
#    x 1.983710 0.000000 0.000000 
#    y 0.000000 1.936460 0.000000 
#    z 0.000000 0.000000 2.074800 
# 
# From -- ./inp_files/53584.got.cif
#   From: 2010.05.17/outbox.cif.g08.bks.cpg/sg68_27_cif.got.tgz:53584.got - 2010.06.03 18:57:09.
