data_PCOD9509633
_publ_section_title
;
Structure prediction by ZEFSAII (Michael W. Deem and Ramdas Pophale) SiO2 
 PCOD9509633
Probable space group: C C C A
;
_chemical_formula_sum "Si O2"
_cell_formula_units_Z 40
_cell_length_a 13.220091
_cell_length_b 5.382364
_cell_length_c 23.093740
_cell_angle_alpha 90.000000
_cell_angle_beta 90.000000
_cell_angle_gamma 90.000000
_cell_volume 1643.242965
_symmetry_space_group_name_H-M "C C C A"
_symmetry_group_IT_number 68
_space_group.IT_coordinate_system_code '2'
_symmetry_cell_setting 'orthorhombic'
loop_
_space_group_symop_operation_xyz
x,y,z
-x,1/2-y,z
x,1/2-y,1/2-z
-x,y,1/2-z
-x,-y,-z
x,1/2+y,-z
-x,1/2+y,1/2+z
x,-y,1/2+z
1/2+x,1/2+y,z
1/2-x,-y,z
1/2+x,-y,1/2-z
1/2-x,1/2+y,1/2-z
1/2-x,1/2-y,-z
1/2+x,y,-z
1/2-x,y,1/2+z
1/2+x,1/2-y,1/2+z
loop_
_atom_site_type_symbol
_atom_site_label
_atom_site_fract_x
_atom_site_fract_y
_atom_site_fract_z
Si Si1 0.135072 0.274446 0.523105
Si Si2 0.863869 0.001820 0.288397
Si Si3 0.000000 0.750000 0.125392
O O1 0.096196 0.494246 0.482550
O O2 0.250000 0.250000 0.500000
O O3 0.095123 0.345702 0.586630
O O4 0.868702 0.750000 0.250000
O O5 0.951045 0.963602 0.335231
O O6 0.874070 0.250000 0.250000
O O7 0.750000 0.000000 0.314592
#
# Coordination Sequence:
#
# PCOD9509633 Si02
#       3
#    16  16   8
#     4  10  24  45  67 107 150 184 247 304 352 445
#     4  10  25  48  70 108 149 186 250 313 361 449
#     4  12  25  44  84 104 144 210 235 296 394 430
#
# _framework density 24.342109000000001
#
# number of rings (size 3 to 8) (size 9 to 14) (size 15 to 20)
#    0.000    1.600    0.000    1.800    5.600    9.600 
#   14.400    0.000    0.000    0.000    0.000    0.000 
#    0.000    0.000    0.000    0.000    0.000    0.000 
#
# Total GULP energy -111413.085202 kJ/mol
# GULP energy per Si atom -5570.654260 kJ/mol
# Density = 2.428671 g / cm^3
# Si number density = 24.342109 Si / 1000 Ang^3
#
#
#
# Elastic Constant Matrix: (Units=GPa)
#
#
# Indices 1 2 3 4 5 6 
#
# 1 221.2057 24.9665 78.4974 0.0000 0.0000 0.0000
# 2 24.9665 171.8590 41.6172 0.0000 0.0000 0.0000
# 3 78.4974 41.6172 96.3587 0.0000 0.0000 0.0000
# 4 0.0000 0.0000 0.0000 26.5299 0.0000 0.0000
# 5 0.0000 0.0000 0.0000 0.0000 50.9087 0.0000
# 6 0.0000 0.0000 0.0000 0.0000 0.0000 6.3350
#
#
#
# Elastic Compliance Matrix: (Units=1/GPa)
#
#
# Indices 1 2 3 4 5 6 
#
# 1 0.006380 0.000371 -0.005357 0.000000 0.000000 0.000000
# 2 0.000371 0.006520 -0.003118 0.000000 0.000000 0.000000
# 3 -0.005357 -0.003118 0.016089 0.000000 0.000000 0.000000
# 4 0.000000 0.000000 0.000000 0.037693 0.000000 0.000000
# 5 0.000000 0.000000 0.000000 0.000000 0.019643 0.000000
# 6 0.000000 0.000000 0.000000 0.000000 0.000000 0.157854
#
#
# Mechanical properties :
#
#
# Convention : Reuss Voigt Hill
#
# Bulk Modulus (GPa) = 78.25120 86.62063 82.43592
# Shear Modulus (GPa) = 18.89303 39.71087 29.30195
#
# Velocity S-wave (km/s) = 2.78896 4.04340 3.47328
# Velocity P-wave (km/s) = 6.52589 7.58028 7.07276
#
# Compressibility (1/GPa) = 0.01277936
#
# Stress axis : x y z
#
# Youngs Moduli (GPa) = 156.73991 153.37675 62.15511
#
# Poissons Ratio (x) = -0.05683 0.33299
# Poissons Ratio (y) = -0.05807 0.19378
# Poissons Ratio (z) = 0.83972 0.47819
#
# Static dielectric constant tensor:
#      x y z
#    x 2.038280 0.000000 0.000000 
#    y 0.000000 1.961150 0.000000 
#    z 0.000000 0.000000 1.969890 
# 
# From -- ./inp_files/41784.got.cif
#   From: 2010.05.17/outbox.cif.g08.bks.cpg/sg68_21_cif.got.tgz:41784.got - 2010.06.03 18:57:09.
