data_PCOD9509546
_publ_section_title
;
Structure prediction by ZEFSAII (Michael W. Deem and Ramdas Pophale) SiO2 
 PCOD9509546
Probable space group: C C C A
;
_chemical_formula_sum "Si O2"
_cell_formula_units_Z 72
_cell_length_a 10.215398
_cell_length_b 22.311683
_cell_length_c 13.206674
_cell_angle_alpha 90.000000
_cell_angle_beta 90.000000
_cell_angle_gamma 90.000000
_cell_volume 3010.101085
_symmetry_space_group_name_H-M "C C C A"
_symmetry_group_IT_number 68
_space_group.IT_coordinate_system_code '2'
_symmetry_cell_setting 'orthorhombic'
loop_
_space_group_symop_operation_xyz
x,y,z
-x,1/2-y,z
x,1/2-y,1/2-z
-x,y,1/2-z
-x,-y,-z
x,1/2+y,-z
-x,1/2+y,1/2+z
x,-y,1/2+z
1/2+x,1/2+y,z
1/2-x,-y,z
1/2+x,-y,1/2-z
1/2-x,1/2+y,1/2-z
1/2-x,1/2-y,-z
1/2+x,y,-z
1/2-x,y,1/2+z
1/2+x,1/2-y,1/2+z
loop_
_atom_site_type_symbol
_atom_site_label
_atom_site_fract_x
_atom_site_fract_y
_atom_site_fract_z
Si Si1 0.500000 0.250000 0.421692
Si Si2 0.500000 0.651305 0.750000
Si Si3 0.155821 0.334009 0.048458
Si Si4 0.750000 0.000000 0.082931
Si Si5 0.605283 0.093584 0.956327
Si Si6 0.213305 0.105373 0.263264
O O1 0.523129 0.305051 0.345351
O O2 0.386679 0.272548 0.496393
O O3 0.367260 0.613426 0.763174
O O4 0.170819 0.336716 0.170237
O O5 0.036763 0.379809 0.022898
O O6 0.286709 0.360422 0.000220
O O7 0.698419 0.949052 0.158328
O O8 0.857856 0.968260 0.012017
O O9 0.631786 0.092719 0.836718
#
# Coordination Sequence:
#
# PCOD9509546 Si02
#       6
#     8   8  16   8  16  16
#     4  11  22  46  71 102 136 196 229 296 355 434
#     4  11  24  44  72 104 142 186 240 291 364 420
#     4  11  25  44  73 100 145 182 244 288 362 417
#     4  10  24  42  74 100 136 196 232 284 376 408
#     4  11  24  46  66 104 142 185 232 306 341 440
#     4  11  24  46  67 106 143 183 236 305 342 437
#
# _framework density 23.919460999999998
#
# number of rings (size 3 to 8) (size 9 to 14) (size 15 to 20)
#    0.000    1.111    2.222    4.000    0.000    7.111 
#    8.000    1.111    0.000    0.000    0.000    0.000 
#    0.000    0.000    0.000    0.000    0.000    0.000 
#
# Total GULP energy -201477.825331 kJ/mol
# GULP energy per Si atom -5596.606259 kJ/mol
# Density = 2.386502 g / cm^3
# Si number density = 23.919461 Si / 1000 Ang^3
#
#
#
# Elastic Constant Matrix: (Units=GPa)
#
#
# Indices 1 2 3 4 5 6 
#
# 1 130.9371 51.0853 12.6636 0.0000 0.0000 0.0000
# 2 51.0853 88.2444 50.4229 0.0000 0.0000 0.0000
# 3 12.6636 50.4229 176.5975 0.0000 0.0000 0.0000
# 4 0.0000 0.0000 0.0000 47.1903 0.0000 0.0000
# 5 0.0000 0.0000 0.0000 0.0000 35.1854 0.0000
# 6 0.0000 0.0000 0.0000 0.0000 0.0000 38.2668
#
#
#
# Elastic Compliance Matrix: (Units=1/GPa)
#
#
# Indices 1 2 3 4 5 6 
#
# 1 0.010049 -0.006459 0.001124 0.000000 0.000000 0.000000
# 2 -0.006459 0.017694 -0.004589 0.000000 0.000000 0.000000
# 3 0.001124 -0.004589 0.006892 0.000000 0.000000 0.000000
# 4 0.000000 0.000000 0.000000 0.021191 0.000000 0.000000
# 5 0.000000 0.000000 0.000000 0.000000 0.028421 0.000000
# 6 0.000000 0.000000 0.000000 0.000000 0.000000 0.026132
#
#
# Mechanical properties :
#
#
# Convention : Reuss Voigt Hill
#
# Bulk Modulus (GPa) = 67.63296 69.34697 68.48996
# Shear Modulus (GPa) = 36.99435 42.90231 39.94833
#
# Velocity S-wave (km/s) = 3.93698 4.23970 4.09114
# Velocity P-wave (km/s) = 7.00022 7.28159 7.14229
#
# Compressibility (1/GPa) = 0.01478569
#
# Stress axis : x y z
#
# Youngs Moduli (GPa) = 99.51528 56.51779 145.09124
#
# Poissons Ratio (x) = 0.36507 -0.16304
# Poissons Ratio (y) = 0.64281 0.66579
# Poissons Ratio (z) = -0.11183 0.25935
#
# Static dielectric constant tensor:
#      x y z
#    x 1.907390 0.000000 0.000000 
#    y 0.000000 1.979400 0.000000 
#    z 0.000000 0.000000 1.916310 
# 
# From -- ./inp_files/20805.got.cif
#   From: 2010.05.17/outbox.cif.g08.bks.cpg/sg68_11_cif.got.tgz:20805.got - 2010.06.03 18:57:09.
