data_PCOD9509401
_publ_section_title
;
Structure prediction by ZEFSAII (Michael W. Deem and Ramdas Pophale) SiO2 
 PCOD9509401
Probable space group: C C C A
;
_chemical_formula_sum "Si O2"
_cell_formula_units_Z 72
_cell_length_a 16.195664
_cell_length_b 17.592042
_cell_length_c 11.207237
_cell_angle_alpha 90.000000
_cell_angle_beta 90.000000
_cell_angle_gamma 90.000000
_cell_volume 3193.107703
_symmetry_space_group_name_H-M "C C C A"
_symmetry_group_IT_number 68
_space_group.IT_coordinate_system_code '2'
_symmetry_cell_setting 'orthorhombic'
loop_
_space_group_symop_operation_xyz
x,y,z
-x,1/2-y,z
x,1/2-y,1/2-z
-x,y,1/2-z
-x,-y,-z
x,1/2+y,-z
-x,1/2+y,1/2+z
x,-y,1/2+z
1/2+x,1/2+y,z
1/2-x,-y,z
1/2+x,-y,1/2-z
1/2-x,1/2+y,1/2-z
1/2-x,1/2-y,-z
1/2+x,y,-z
1/2-x,y,1/2+z
1/2+x,1/2-y,1/2+z
loop_
_atom_site_type_symbol
_atom_site_label
_atom_site_fract_x
_atom_site_fract_y
_atom_site_fract_z
Si Si1 0.273984 0.659371 0.254199
Si Si2 0.891946 0.904967 0.951190
Si Si3 0.088231 0.837679 0.291919
Si Si4 0.659360 0.468038 0.882286
Si Si5 0.500000 0.046529 0.750000
O O1 0.280551 0.750000 0.250000
O O2 0.318202 0.626850 0.371130
O O3 0.177813 0.636825 0.255434
O O4 0.322801 0.620947 0.142002
O O5 0.972137 0.907678 0.867453
O O6 0.905862 0.853143 0.066732
O O7 0.869518 0.990091 0.997437
O O8 0.086034 0.750000 0.250000
O O9 0.000000 0.870095 0.250000
O O10 0.750000 0.500000 0.854913
O O11 0.586020 0.490466 0.791252
#
# Coordination Sequence:
#
# PCOD9509401 Si02
#       5
#    16  16  16  16   8
#     4  10  24  48  72 106 147 196 250 301 382 440
#     4  11  24  46  72 108 146 193 256 309 375 443
#     4  10  23  46  69 108 147 199 250 301 375 446
#     4  11  23  45  72 107 141 195 246 310 368 441
#     4  10  26  46  71 110 147 192 248 310 380 438
#
# _framework density 22.548566000000001
#
# number of rings (size 3 to 8) (size 9 to 14) (size 15 to 20)
#    0.000    1.556    2.222    0.667    1.556    8.889 
#   16.000    5.000    0.000    0.000    0.000    0.000 
#    0.000    0.000    0.000    0.000    0.000    0.000 
#
# Total GULP energy -200721.245074 kJ/mol
# GULP energy per Si atom -5575.590141 kJ/mol
# Density = 2.249724 g / cm^3
# Si number density = 22.548566 Si / 1000 Ang^3
#
#
#
# Elastic Constant Matrix: (Units=GPa)
#
#
# Indices 1 2 3 4 5 6 
#
# 1 181.5300 43.0215 78.3604 0.0000 0.0000 0.0000
# 2 43.0215 116.7903 50.7325 0.0000 0.0000 0.0000
# 3 78.3604 50.7325 149.3137 0.0000 0.0000 0.0000
# 4 0.0000 0.0000 0.0000 23.4139 0.0000 0.0000
# 5 0.0000 0.0000 0.0000 0.0000 40.8901 0.0000
# 6 0.0000 0.0000 0.0000 0.0000 0.0000 33.5748
#
#
#
# Elastic Compliance Matrix: (Units=1/GPa)
#
#
# Indices 1 2 3 4 5 6 
#
# 1 0.007262 -0.001196 -0.003405 0.000000 0.000000 0.000000
# 2 -0.001196 0.010242 -0.002852 0.000000 0.000000 0.000000
# 3 -0.003405 -0.002852 0.009453 0.000000 0.000000 0.000000
# 4 0.000000 0.000000 0.000000 0.042710 0.000000 0.000000
# 5 0.000000 0.000000 0.000000 0.000000 0.024456 0.000000
# 6 0.000000 0.000000 0.000000 0.000000 0.000000 0.029784
#
#
# Mechanical properties :
#
#
# Convention : Reuss Voigt Hill
#
# Bulk Modulus (GPa) = 82.98005 87.98475 85.48240
# Shear Modulus (GPa) = 35.00677 37.94375 36.47526
#
# Velocity S-wave (km/s) = 3.94446 4.10659 4.02634
# Velocity P-wave (km/s) = 7.59115 7.84795 7.72061
#
# Compressibility (1/GPa) = 0.01205109
#
# Stress axis : x y z
#
# Youngs Moduli (GPa) = 137.70552 97.63797 105.78434
#
# Poissons Ratio (x) = 0.11678 0.36016
# Poissons Ratio (y) = 0.16470 0.30172
# Poissons Ratio (z) = 0.46884 0.27848
#
# Static dielectric constant tensor:
#      x y z
#    x 1.833900 0.000000 0.000000 
#    y 0.000000 1.935990 0.000000 
#    z 0.000000 0.000000 1.836950 
# 
# From -- ./inp_files/14315.got.cif
#   From: 2010.05.17/outbox.cif.g08.bks.cpg/sg68_8_cif.got.tgz:14315.got - 2010.06.03 18:57:09.
