data_PCOD9509547
_publ_section_title
;
Structure prediction by ZEFSAII (Michael W. Deem and Ramdas Pophale) SiO2 
 PCOD9509547
Probable space group: C C C A
;
_chemical_formula_sum "Si O2"
_cell_formula_units_Z 64
_cell_length_a 29.616564
_cell_length_b 11.174504
_cell_length_c 8.798550
_cell_angle_alpha 90.000000
_cell_angle_beta 90.000000
_cell_angle_gamma 90.000000
_cell_volume 2911.883755
_symmetry_space_group_name_H-M "C C C A"
_symmetry_group_IT_number 68
_space_group.IT_coordinate_system_code '2'
_symmetry_cell_setting 'orthorhombic'
loop_
_space_group_symop_operation_xyz
x,y,z
-x,1/2-y,z
x,1/2-y,1/2-z
-x,y,1/2-z
-x,-y,-z
x,1/2+y,-z
-x,1/2+y,1/2+z
x,-y,1/2+z
1/2+x,1/2+y,z
1/2-x,-y,z
1/2+x,-y,1/2-z
1/2-x,1/2+y,1/2-z
1/2-x,1/2-y,-z
1/2+x,y,-z
1/2-x,y,1/2+z
1/2+x,1/2-y,1/2+z
loop_
_atom_site_type_symbol
_atom_site_label
_atom_site_fract_x
_atom_site_fract_y
_atom_site_fract_z
Si Si1 0.750000 0.500000 0.321218
Si Si2 0.712016 0.842098 0.441521
Si Si3 0.466548 0.495814 0.858747
Si Si4 0.430609 0.250000 0.250000
Si Si5 0.892931 0.808551 0.914364
O O1 0.729915 0.601038 0.213615
O O2 0.712244 0.446129 0.431130
O O3 0.750000 0.750000 0.500000
O O4 0.661204 0.802152 0.420095
O O5 0.500000 0.420536 0.750000
O O6 0.455692 0.623390 0.780055
O O7 0.419143 0.435047 0.900562
O O8 0.500000 0.500000 0.000000
O O9 0.406818 0.237181 0.416410
O O10 0.905601 0.750000 0.750000
#
# Coordination Sequence:
#
# PCOD9509547 Si02
#       5
#     8  16  16   8  16
#     4  10  24  42  74 100 148 194 242 312 400 456
#     4  11  25  46  72 109 147 196 253 320 389 475
#     4  12  26  48  77 109 156 204 262 323 399 465
#     4  12  29  48  80 112 158 206 262 334 389 468
#     4  12  29  47  77 115 155 204 268 321 403 481
#
# _framework density 21.978899999999999
#
# number of rings (size 3 to 8) (size 9 to 14) (size 15 to 20)
#    0.000    0.500    2.500    4.125    7.000    4.500 
#    0.000    0.000    0.000    0.000    0.000    0.000 
#    0.000    0.000    0.000    0.000    0.000    0.000 
#
# Total GULP energy -178213.527349 kJ/mol
# GULP energy per Si atom -5569.172730 kJ/mol
# Density = 2.192887 g / cm^3
# Si number density = 21.978900 Si / 1000 Ang^3
#
#
#
# Elastic Constant Matrix: (Units=GPa)
#
#
# Indices 1 2 3 4 5 6 
#
# 1 138.4342 51.0531 50.9178 0.0000 0.0000 0.0000
# 2 51.0531 81.9748 42.6544 0.0000 0.0000 0.0000
# 3 50.9178 42.6544 204.1725 0.0000 0.0000 0.0000
# 4 0.0000 0.0000 0.0000 47.3233 0.0000 0.0000
# 5 0.0000 0.0000 0.0000 0.0000 14.1405 0.0000
# 6 0.0000 0.0000 0.0000 0.0000 0.0000 21.8042
#
#
#
# Elastic Compliance Matrix: (Units=1/GPa)
#
#
# Indices 1 2 3 4 5 6 
#
# 1 0.009673 -0.005351 -0.001294 0.000000 0.000000 0.000000
# 2 -0.005351 0.016646 -0.002143 0.000000 0.000000 0.000000
# 3 -0.001294 -0.002143 0.005668 0.000000 0.000000 0.000000
# 4 0.000000 0.000000 0.000000 0.021131 0.000000 0.000000
# 5 0.000000 0.000000 0.000000 0.000000 0.070719 0.000000
# 6 0.000000 0.000000 0.000000 0.000000 0.000000 0.045863
#
#
# Mechanical properties :
#
#
# Convention : Reuss Voigt Hill
#
# Bulk Modulus (GPa) = 69.39162 79.31470 74.35316
# Shear Modulus (GPa) = 26.03063 35.31734 30.67399
#
# Velocity S-wave (km/s) = 3.44517 4.01293 3.73984
# Velocity P-wave (km/s) = 6.88956 7.59188 7.24923
#
# Compressibility (1/GPa) = 0.01441096
#
# Stress axis : x y z
#
# Youngs Moduli (GPa) = 103.37975 60.07275 176.41640
#
# Poissons Ratio (x) = 0.32143 0.22837
# Poissons Ratio (y) = 0.55316 0.37811
# Poissons Ratio (z) = 0.13382 0.12875
#
# Static dielectric constant tensor:
#      x y z
#    x 1.858360 0.000000 0.000000 
#    y 0.000000 1.901480 0.000000 
#    z 0.000000 0.000000 1.821670 
# 
# From -- ./inp_files/9361.got.cif
#   From: 2010.05.17/outbox.cif.g08.bks.cpg/sg68_5_cif.got.tgz:9361.got - 2010.06.03 18:57:09.
