data_PCOD9509604
_publ_section_title
;
Structure prediction by ZEFSAII (Michael W. Deem and Ramdas Pophale) SiO2 
 PCOD9509604
Probable space group: C C C A
;
_chemical_formula_sum "Si O2"
_cell_formula_units_Z 80
_cell_length_a 23.187429
_cell_length_b 8.844116
_cell_length_c 18.691031
_cell_angle_alpha 90.000000
_cell_angle_beta 90.000000
_cell_angle_gamma 90.000000
_cell_volume 3833.012937
_symmetry_space_group_name_H-M "C C C A"
_symmetry_group_IT_number 68
_space_group.IT_coordinate_system_code '2'
_symmetry_cell_setting 'orthorhombic'
loop_
_space_group_symop_operation_xyz
x,y,z
-x,1/2-y,z
x,1/2-y,1/2-z
-x,y,1/2-z
-x,-y,-z
x,1/2+y,-z
-x,1/2+y,1/2+z
x,-y,1/2+z
1/2+x,1/2+y,z
1/2-x,-y,z
1/2+x,-y,1/2-z
1/2-x,1/2+y,1/2-z
1/2-x,1/2-y,-z
1/2+x,y,-z
1/2-x,y,1/2+z
1/2+x,1/2-y,1/2+z
loop_
_atom_site_type_symbol
_atom_site_label
_atom_site_fract_x
_atom_site_fract_y
_atom_site_fract_z
Si Si1 0.500000 0.250000 0.344516
Si Si2 0.256572 0.250000 0.250000
Si Si3 0.101152 0.935159 0.419532
Si Si4 0.933610 0.722388 0.558644
Si Si5 0.944029 0.044292 0.293210
Si Si6 0.670850 0.011551 0.708939
O O1 0.543646 0.360574 0.385990
O O2 0.457005 0.366898 0.305916
O O3 0.299395 0.391355 0.263422
O O4 0.212202 0.157394 0.301586
O O5 0.103229 0.860723 0.497571
O O6 0.091614 0.113240 0.427243
O O7 0.153913 0.923187 0.363699
O O8 0.936608 0.625697 0.631121
O O9 0.000000 0.750000 0.534597
O O10 0.888423 0.063647 0.244404
O O11 0.000000 0.096487 0.250000
#
# Coordination Sequence:
#
# PCOD9509604 Si02
#       6
#     8   8  16  16  16  16
#     4  12  21  38  58  96 139 176 212 274 329 418
#     4  10  24  44  70  92 128 170 230 280 334 394
#     4  12  24  39  65  92 142 183 225 268 339 414
#     4  12  23  40  58  97 147 191 215 266 341 430
#     4  12  24  39  67 103 141 172 224 281 350 414
#     4  11  23  44  69  99 128 175 224 288 340 407
#
# _framework density 20.871310000000001
#
# number of rings (size 3 to 8) (size 9 to 14) (size 15 to 20)
#    0.000    0.400    5.000    4.500    0.000    2.000 
#    0.000    0.000    0.000   21.600    0.000    0.000 
#    0.000    0.000    0.000    0.000    0.000    0.000 
#
# Total GULP energy -223205.175652 kJ/mol
# GULP energy per Si atom -5580.129391 kJ/mol
# Density = 2.082381 g / cm^3
# Si number density = 20.871310 Si / 1000 Ang^3
#
#
#
# Elastic Constant Matrix: (Units=GPa)
#
#
# Indices 1 2 3 4 5 6 
#
# 1 108.3782 26.5508 37.1364 0.0000 0.0000 0.0000
# 2 26.5508 151.1577 58.4514 0.0000 0.0000 0.0000
# 3 37.1364 58.4514 118.0850 0.0000 0.0000 0.0000
# 4 0.0000 0.0000 0.0000 29.4372 0.0000 0.0000
# 5 0.0000 0.0000 0.0000 0.0000 -1.0890 0.0000
# 6 0.0000 0.0000 0.0000 0.0000 0.0000 31.2567
#
#
#
# Elastic Compliance Matrix: (Units=1/GPa)
#
#
# Indices 1 2 3 4 5 6 
#
# 1 0.010400 -0.000695 -0.002927 0.000000 0.000000 0.000000
# 2 -0.000695 0.008228 -0.003854 0.000000 0.000000 0.000000
# 3 -0.002927 -0.003854 0.011297 0.000000 0.000000 0.000000
# 4 0.000000 0.000000 0.000000 0.033971 0.000000 0.000000
# 5 0.000000 0.000000 0.000000 0.000000 -0.918237 0.000000
# 6 0.000000 0.000000 0.000000 0.000000 0.000000 0.031993
#
#
# Mechanical properties :
#
#
# Convention : Reuss Voigt Hill
#
# Bulk Modulus (GPa) = 66.78725 69.09978 67.94352
# Shear Modulus (GPa) = -6.23127 28.95314 11.36094
#
# Velocity S-wave (km/s) = -1.72975 3.72858 2.33562
# Velocity P-wave (km/s) = 5.29902 7.19137 6.31647
#
# Compressibility (1/GPa) = 0.01497292
#
# Stress axis : x y z
#
# Youngs Moduli (GPa) = 96.15334 121.53456 88.52131
#
# Poissons Ratio (x) = 0.08447 0.25907
# Poissons Ratio (y) = 0.06683 0.34119
# Poissons Ratio (z) = 0.28141 0.46843
#
# Static dielectric constant tensor:
#      x y z
#    x 1.782480 0.000000 0.000000 
#    y 0.000000 1.768760 0.000000 
#    z 0.000000 0.000000 1.833760 
# 
# From -- ./inp_files/28361.got.cif
#   From: 2010.05.17/outbox.cif.g08.bks.cpg/sg68_15_cif.got.tgz:28361.got - 2010.06.03 18:57:09.
