data_PCOD9509446
_publ_section_title
;
Structure prediction by ZEFSAII (Michael W. Deem and Ramdas Pophale) SiO2 
 PCOD9509446
Probable space group: C C C A
;
_chemical_formula_sum "Si O2"
_cell_formula_units_Z 56
_cell_length_a 9.610357
_cell_length_b 28.996300
_cell_length_c 8.875695
_cell_angle_alpha 90.000000
_cell_angle_beta 90.000000
_cell_angle_gamma 90.000000
_cell_volume 2473.343725
_symmetry_space_group_name_H-M "C C C A"
_symmetry_group_IT_number 68
_space_group.IT_coordinate_system_code '2'
_symmetry_cell_setting 'orthorhombic'
loop_
_space_group_symop_operation_xyz
x,y,z
-x,1/2-y,z
x,1/2-y,1/2-z
-x,y,1/2-z
-x,-y,-z
x,1/2+y,-z
-x,1/2+y,1/2+z
x,-y,1/2+z
1/2+x,1/2+y,z
1/2-x,-y,z
1/2+x,-y,1/2-z
1/2-x,1/2+y,1/2-z
1/2-x,1/2-y,-z
1/2+x,y,-z
1/2-x,y,1/2+z
1/2+x,1/2-y,1/2+z
loop_
_atom_site_type_symbol
_atom_site_label
_atom_site_fract_x
_atom_site_fract_y
_atom_site_fract_z
Si Si1 0.750000 0.000000 0.504627
Si Si2 0.050385 0.197485 0.965615
Si Si3 0.217790 0.163137 0.673776
Si Si4 0.348544 0.433974 0.263028
O O1 0.648898 0.027485 0.392840
O O2 0.811800 0.038990 0.612112
O O3 0.150856 0.185743 0.823255
O O4 0.000000 0.250000 0.959614
O O5 0.908528 0.168085 0.947636
O O6 0.144954 0.187293 0.110343
O O7 0.249161 0.109144 0.701596
O O8 0.500000 0.412512 0.250000
#
# Coordination Sequence:
#
# PCOD9509446 Si02
#       4
#     8  16  16  16
#     4  10  24  38  64  96 132 178 222 280 332 404
#     4  11  24  44  68  99 133 173 225 280 345 399
#     4  11  23  43  69  97 137 177 222 288 331 409
#     4  11  21  41  64  95 135 174 227 273 343 394
#
# _framework density 22.641411999999999
#
# number of rings (size 3 to 8) (size 9 to 14) (size 15 to 20)
#    0.000    1.143    2.857    5.143    0.000    1.143 
#    0.000    2.857    0.000    0.000    0.000    0.000 
#    0.000    0.000    0.000    0.000    0.000    0.000 
#
# Total GULP energy -156546.146434 kJ/mol
# GULP energy per Si atom -5590.933801 kJ/mol
# Density = 2.258988 g / cm^3
# Si number density = 22.641412 Si / 1000 Ang^3
#
#
#
# Elastic Constant Matrix: (Units=GPa)
#
#
# Indices 1 2 3 4 5 6 
#
# 1 60.5787 20.3937 25.1692 0.0000 0.0000 0.0000
# 2 20.3937 145.5645 37.8268 0.0000 0.0000 0.0000
# 3 25.1692 37.8268 78.0383 0.0000 0.0000 0.0000
# 4 0.0000 0.0000 0.0000 6.9761 0.0000 0.0000
# 5 0.0000 0.0000 0.0000 0.0000 25.7519 0.0000
# 6 0.0000 0.0000 0.0000 0.0000 0.0000 12.1998
#
#
#
# Elastic Compliance Matrix: (Units=1/GPa)
#
#
# Indices 1 2 3 4 5 6 
#
# 1 0.019255 -0.001240 -0.005609 0.000000 0.000000 0.000000
# 2 -0.001240 0.007940 -0.003449 0.000000 0.000000 0.000000
# 3 -0.005609 -0.003449 0.016295 0.000000 0.000000 0.000000
# 4 0.000000 0.000000 0.000000 0.143347 0.000000 0.000000
# 5 0.000000 0.000000 0.000000 0.000000 0.038832 0.000000
# 6 0.000000 0.000000 0.000000 0.000000 0.000000 0.081969
#
#
# Mechanical properties :
#
#
# Convention : Reuss Voigt Hill
#
# Bulk Modulus (GPa) = 43.67905 50.10677 46.89291
# Shear Modulus (GPa) = 14.88694 22.37169 18.62931
#
# Velocity S-wave (km/s) = 2.56698 3.14680 2.87156
# Velocity P-wave (km/s) = 5.30277 5.94825 5.63476
#
# Compressibility (1/GPa) = 0.02289427
#
# Stress axis : x y z
#
# Youngs Moduli (GPa) = 51.93337 125.94940 61.36878
#
# Poissons Ratio (x) = 0.15619 0.34423
# Poissons Ratio (y) = 0.06440 0.21164
# Poissons Ratio (z) = 0.29131 0.43435
#
# Static dielectric constant tensor:
#      x y z
#    x 1.982760 0.000000 0.000000 
#    y 0.000000 1.787120 0.000000 
#    z 0.000000 0.000000 1.870550 
# 
# From -- ./inp_files/4009.got.cif
#   From: 2010.05.17/outbox.cif.g08.bks.cpg/sg68_3_cif.got.tgz:4009.got - 2010.06.03 18:57:09.
