data_PCOD9509404
_publ_section_title
;
Structure prediction by ZEFSAII (Michael W. Deem and Ramdas Pophale) SiO2 
 PCOD9509404
Probable space group: C C C A
;
_chemical_formula_sum "Si O2"
_cell_formula_units_Z 84
_cell_length_a 8.712017
_cell_length_b 18.007660
_cell_length_c 22.865074
_cell_angle_alpha 90.000000
_cell_angle_beta 90.000000
_cell_angle_gamma 90.000000
_cell_volume 3587.142320
_symmetry_space_group_name_H-M "C C C A"
_symmetry_group_IT_number 68
_space_group.IT_coordinate_system_code '2'
_symmetry_cell_setting 'orthorhombic'
loop_
_space_group_symop_operation_xyz
x,y,z
-x,1/2-y,z
x,1/2-y,1/2-z
-x,y,1/2-z
-x,-y,-z
x,1/2+y,-z
-x,1/2+y,1/2+z
x,-y,1/2+z
1/2+x,1/2+y,z
1/2-x,-y,z
1/2+x,-y,1/2-z
1/2-x,1/2+y,1/2-z
1/2-x,1/2-y,-z
1/2+x,y,-z
1/2-x,y,1/2+z
1/2+x,1/2-y,1/2+z
loop_
_atom_site_type_symbol
_atom_site_label
_atom_site_fract_x
_atom_site_fract_y
_atom_site_fract_z
Si Si1 0.000000 0.014155 0.250000
Si Si2 0.750000 0.500000 0.838202
Si Si3 0.972148 0.830035 0.961296
Si Si4 0.312661 0.123075 0.427892
Si Si5 0.250000 0.500000 0.832157
Si Si6 0.000000 0.250000 0.250000
Si Si7 0.500000 0.250000 0.362437
Si Si8 0.203340 0.666095 0.845271
O O1 0.110725 0.970712 0.207459
O O2 0.129189 0.044537 0.296036
O O3 0.667121 0.556172 0.882312
O O4 0.131850 0.863768 0.938797
O O5 0.000000 0.750000 0.991106
O O6 0.863589 0.807479 0.907264
O O7 0.891654 0.883353 0.008502
O O8 0.394535 0.192434 0.397618
O O9 0.194316 0.577301 0.857597
O O10 0.097868 0.196197 0.207331
O O11 0.628318 0.198372 0.332138
#
# Coordination Sequence:
#
# PCOD9509404 Si02
#       8
#     8   8  16  16   8   4   8  16
#     4  10  23  46  70  94 151 186 236 296 399 444
#     4  11  26  47  74 116 140 207 252 323 378 489
#     4  12  23  46  71 106 146 206 241 326 387 466
#     4  12  25  43  75 106 150 194 266 304 400 459
#     4  11  24  43  68 100 134 193 230 315 376 449
#     4  12  26  48  68 104 142 206 264 318 374 510
#     4  12  24  44  68 106 140 194 248 326 376 482
#     4  12  26  44  73 103 148 192 261 315 395 459
#
# _framework density 23.416968000000001
#
# number of rings (size 3 to 8) (size 9 to 14) (size 15 to 20)
#    0.000    0.381    3.810    4.571    0.000    8.000 
#    0.000    0.000    0.000    0.000    0.000    0.000 
#    0.000    0.000    0.000    0.000    0.000    0.000 
#
# Total GULP energy -234078.606547 kJ/mol
# GULP energy per Si atom -5573.300156 kJ/mol
# Density = 2.336367 g / cm^3
# Si number density = 23.416968 Si / 1000 Ang^3
#
#
#
# Elastic Constant Matrix: (Units=GPa)
#
#
# Indices 1 2 3 4 5 6 
#
# 1 139.9171 27.5331 47.3111 0.0000 0.0000 0.0000
# 2 27.5331 122.2685 46.2598 0.0000 0.0000 0.0000
# 3 47.3111 46.2598 115.3225 0.0000 0.0000 0.0000
# 4 0.0000 0.0000 0.0000 89.9109 0.0000 0.0000
# 5 0.0000 0.0000 0.0000 0.0000 27.1153 0.0000
# 6 0.0000 0.0000 0.0000 0.0000 0.0000 28.9643
#
#
#
# Elastic Compliance Matrix: (Units=1/GPa)
#
#
# Indices 1 2 3 4 5 6 
#
# 1 0.008347 -0.000689 -0.003148 0.000000 0.000000 0.000000
# 2 -0.000689 0.009699 -0.003608 0.000000 0.000000 0.000000
# 3 -0.003148 -0.003608 0.011410 0.000000 0.000000 0.000000
# 4 0.000000 0.000000 0.000000 0.011122 0.000000 0.000000
# 5 0.000000 0.000000 0.000000 0.000000 0.036880 0.000000
# 6 0.000000 0.000000 0.000000 0.000000 0.000000 0.034525
#
#
# Mechanical properties :
#
#
# Convention : Reuss Voigt Hill
#
# Bulk Modulus (GPa) = 68.65047 68.85736 68.75391
# Shear Modulus (GPa) = 37.95694 46.29172 42.12433
#
# Velocity S-wave (km/s) = 4.03043 4.45100 4.24592
# Velocity P-wave (km/s) = 7.14418 7.47555 7.31174
#
# Compressibility (1/GPa) = 0.01456654
#
# Stress axis : x y z
#
# Youngs Moduli (GPa) = 119.80207 103.10475 87.64081
#
# Poissons Ratio (x) = 0.07099 0.27591
# Poissons Ratio (y) = 0.08249 0.31622
# Poissons Ratio (z) = 0.37716 0.37201
#
# Static dielectric constant tensor:
#      x y z
#    x 1.904220 0.000000 0.000000 
#    y 0.000000 1.812440 0.000000 
#    z 0.000000 0.000000 1.868170 
# 
# From -- ./inp_files/43101.got.cif
#   From: 2010.05.17/outbox.cif.g08.bks.cpg/sg68_22_cif.got.tgz:43101.got - 2010.06.03 18:57:09.
