data_PCOD9509794
_publ_section_title
;
Structure prediction by ZEFSAII (Michael W. Deem and Ramdas Pophale) SiO2 
 PCOD9509794
Probable space group: C C C A
;
_chemical_formula_sum "Si O2"
_cell_formula_units_Z 64
_cell_length_a 18.590137
_cell_length_b 15.922616
_cell_length_c 9.889516
_cell_angle_alpha 90.000000
_cell_angle_beta 90.000000
_cell_angle_gamma 90.000000
_cell_volume 2927.332465
_symmetry_space_group_name_H-M "C C C A"
_symmetry_group_IT_number 68
_space_group.IT_coordinate_system_code '2'
_symmetry_cell_setting 'orthorhombic'
loop_
_space_group_symop_operation_xyz
x,y,z
-x,1/2-y,z
x,1/2-y,1/2-z
-x,y,1/2-z
-x,-y,-z
x,1/2+y,-z
-x,1/2+y,1/2+z
x,-y,1/2+z
1/2+x,1/2+y,z
1/2-x,-y,z
1/2+x,-y,1/2-z
1/2-x,1/2+y,1/2-z
1/2-x,1/2-y,-z
1/2+x,y,-z
1/2-x,y,1/2+z
1/2+x,1/2-y,1/2+z
loop_
_atom_site_type_symbol
_atom_site_label
_atom_site_fract_x
_atom_site_fract_y
_atom_site_fract_z
Si Si1 0.579522 0.213259 0.111355
Si Si2 0.189552 0.218512 0.100199
Si Si3 0.828336 0.968740 0.810620
Si Si4 0.419395 0.987578 0.941028
O O1 0.500000 0.250000 0.110604
O O2 0.613948 0.250000 0.250000
O O3 0.617142 0.244935 0.975576
O O4 0.583075 0.111637 0.103622
O O5 0.197846 0.250000 0.250000
O O6 0.188418 0.119407 0.119387
O O7 0.250000 0.250000 0.000000
O O8 0.866913 0.015260 0.935803
O O9 0.750000 0.000000 0.761754
O O10 0.887192 0.965553 0.690652
O O11 0.500000 0.000000 0.000000
#
# Coordination Sequence:
#
# PCOD9509794 Si02
#       4
#    16  16  16  16
#     4  10  25  44  72 102 138 184 233 292 359 436
#     4  11  27  44  70 100 139 184 236 295 354 432
#     4  11  27  44  73 102 143 187 237 298 363 433
#     4  11  26  45  72 107 141 187 237 298 367 437
#
# _framework density 21.862908999999998
#
# number of rings (size 3 to 8) (size 9 to 14) (size 15 to 20)
#    0.000    1.250    0.000    2.250   24.500    0.500 
#    0.000    0.000    0.000    0.000    0.000    0.000 
#    0.000    0.000    0.000    0.000    0.000    0.000 
#
# Total GULP energy -178503.296782 kJ/mol
# GULP energy per Si atom -5578.228024 kJ/mol
# Density = 2.181315 g / cm^3
# Si number density = 21.862909 Si / 1000 Ang^3
#
#
#
# Elastic Constant Matrix: (Units=GPa)
#
#
# Indices 1 2 3 4 5 6 
#
# 1 118.5839 29.9413 66.4663 0.0000 0.0000 0.0000
# 2 29.9413 45.4766 28.9966 0.0000 0.0000 0.0000
# 3 66.4663 28.9966 192.8358 0.0000 0.0000 0.0000
# 4 0.0000 0.0000 0.0000 32.0879 0.0000 0.0000
# 5 0.0000 0.0000 0.0000 0.0000 60.8117 0.0000
# 6 0.0000 0.0000 0.0000 0.0000 0.0000 24.9047
#
#
#
# Elastic Compliance Matrix: (Units=1/GPa)
#
#
# Indices 1 2 3 4 5 6 
#
# 1 0.011628 -0.005641 -0.003160 0.000000 0.000000 0.000000
# 2 -0.005641 0.027058 -0.002124 0.000000 0.000000 0.000000
# 3 -0.003160 -0.002124 0.006594 0.000000 0.000000 0.000000
# 4 0.000000 0.000000 0.000000 0.031164 0.000000 0.000000
# 5 0.000000 0.000000 0.000000 0.000000 0.016444 0.000000
# 6 0.000000 0.000000 0.000000 0.000000 0.000000 0.040153
#
#
# Mechanical properties :
#
#
# Convention : Reuss Voigt Hill
#
# Bulk Modulus (GPa) = 42.68036 67.52276 55.10156
# Shear Modulus (GPa) = 30.73094 38.99367 34.86231
#
# Velocity S-wave (km/s) = 3.75323 4.22780 3.99756
# Velocity P-wave (km/s) = 6.19245 7.40162 6.82387
#
# Compressibility (1/GPa) = 0.02342998
#
# Stress axis : x y z
#
# Youngs Moduli (GPa) = 85.99753 36.95775 151.64663
#
# Poissons Ratio (x) = 0.20849 0.47916
# Poissons Ratio (y) = 0.48513 0.32214
# Poissons Ratio (z) = 0.27173 0.07851
#
# Static dielectric constant tensor:
#      x y z
#    x 1.851750 0.000000 0.000000 
#    y 0.000000 1.787130 0.000000 
#    z 0.000000 0.000000 2.761480 
# 
# From -- ./inp_files/6764.got.cif
#   From: 2010.05.17/outbox.cif.g08.bks.cpg/sg68_4_cif.got.tgz:6764.got - 2010.06.03 18:57:09.
