data_PCOD9509865
_publ_section_title
;
Structure prediction by ZEFSAII (Michael W. Deem and Ramdas Pophale) SiO2 
 PCOD9509865
Probable space group: C C C A
;
_chemical_formula_sum "Si O2"
_cell_formula_units_Z 60
_cell_length_a 27.300700
_cell_length_b 17.917966
_cell_length_c 4.945998
_cell_angle_alpha 90.000000
_cell_angle_beta 90.000000
_cell_angle_gamma 90.000000
_cell_volume 2419.448751
_symmetry_space_group_name_H-M "C C C A"
_symmetry_group_IT_number 68
_space_group.IT_coordinate_system_code '2'
_symmetry_cell_setting 'orthorhombic'
loop_
_space_group_symop_operation_xyz
x,y,z
-x,1/2-y,z
x,1/2-y,1/2-z
-x,y,1/2-z
-x,-y,-z
x,1/2+y,-z
-x,1/2+y,1/2+z
x,-y,1/2+z
1/2+x,1/2+y,z
1/2-x,-y,z
1/2+x,-y,1/2-z
1/2-x,1/2+y,1/2-z
1/2-x,1/2-y,-z
1/2+x,y,-z
1/2-x,y,1/2+z
1/2+x,1/2-y,1/2+z
loop_
_atom_site_type_symbol
_atom_site_label
_atom_site_fract_x
_atom_site_fract_y
_atom_site_fract_z
Si Si1 0.716306 0.628505 0.582226
Si Si2 0.885299 0.953803 0.452025
Si Si3 0.500000 0.250000 0.750000
Si Si4 0.663880 0.750000 0.250000
Si Si5 0.084205 0.676465 0.077607
O O1 0.738314 0.618937 0.878830
O O2 0.671531 0.570665 0.560555
O O3 0.695130 0.708464 0.480144
O O4 0.914396 0.889214 0.294708
O O5 0.895981 0.974631 0.760476
O O6 0.534278 0.305003 0.576533
O O7 0.629449 0.815806 0.368882
O O8 0.093081 0.750000 0.250000
#
# Coordination Sequence:
#
# PCOD9509865 Si02
#       5
#    16  16   4   8  16
#     4  12  25  41  68 104 148 198 256 313 359 422
#     4  12  27  47  71 105 153 203 247 300 377 450
#     4  10  26  44  84 114 144 176 264 316 390 462
#     4  11  22  41  70 110 148 196 256 319 388 437
#     4  11  23  47  78 107 146 195 248 314 386 468
#
# _framework density 24.799037999999999
#
# number of rings (size 3 to 8) (size 9 to 14) (size 15 to 20)
#    0.000    0.533    2.667    6.000    3.733    3.200 
#    0.000    1.333    0.000    0.000    0.000    0.000 
#    0.000    0.000    0.000    0.000    0.000    0.000 
#
# Total GULP energy -167961.807299 kJ/mol
# GULP energy per Si atom -5598.726910 kJ/mol
# Density = 2.474259 g / cm^3
# Si number density = 24.799038 Si / 1000 Ang^3
#
#
#
# Elastic Constant Matrix: (Units=GPa)
#
#
# Indices 1 2 3 4 5 6 
#
# 1 78.3459 -14.4922 20.3688 0.0000 0.0000 0.0000
# 2 -14.4922 78.6323 13.1205 0.0000 0.0000 0.0000
# 3 20.3688 13.1205 82.9173 0.0000 0.0000 0.0000
# 4 0.0000 0.0000 0.0000 45.2240 0.0000 0.0000
# 5 0.0000 0.0000 0.0000 0.0000 66.5624 0.0000
# 6 0.0000 0.0000 0.0000 0.0000 0.0000 -30.8986
#
#
#
# Elastic Compliance Matrix: (Units=1/GPa)
#
#
# Indices 1 2 3 4 5 6 
#
# 1 0.014442 0.003342 -0.004076 0.000000 0.000000 0.000000
# 2 0.003342 0.013836 -0.003010 0.000000 0.000000 0.000000
# 3 -0.004076 -0.003010 0.013538 0.000000 0.000000 0.000000
# 4 0.000000 0.000000 0.000000 0.022112 0.000000 0.000000
# 5 0.000000 0.000000 0.000000 0.000000 0.015024 0.000000
# 6 0.000000 0.000000 0.000000 0.000000 0.000000 -0.032364
#
#
# Mechanical properties :
#
#
# Convention : Reuss Voigt Hill
#
# Bulk Modulus (GPa) = 29.13258 30.87661 30.00459
# Shear Modulus (GPa) = 76.31393 30.90411 53.60902
#
# Velocity S-wave (km/s) = 5.55335 3.53396 4.65449
# Velocity P-wave (km/s) = 7.27273 5.39718 6.40399
#
# Compressibility (1/GPa) = 0.03432584
#
# Stress axis : x y z
#
# Youngs Moduli (GPa) = 69.24286 72.27713 73.86652
#
# Poissons Ratio (x) = -0.24154 0.30112
# Poissons Ratio (y) = -0.23140 0.22236
# Poissons Ratio (z) = 0.28227 0.21757
#
# Static dielectric constant tensor:
#      x y z
#    x 2.091880 0.000000 0.000000 
#    y 0.000000 2.027250 0.000000 
#    z 0.000000 0.000000 2.149540 
# 
# From -- ./inp_files/2227.got.cif
#   From: 2010.05.17/outbox.cif.g08.bks.cpg/sg68_2_cif.got.tgz:2227.got - 2010.06.03 18:57:09.
