data_PCOD9509740
_publ_section_title
;
Structure prediction by ZEFSAII (Michael W. Deem and Ramdas Pophale) SiO2 
 PCOD9509740
Probable space group: C C C A
;
_chemical_formula_sum "Si O2"
_cell_formula_units_Z 64
_cell_length_a 15.445504
_cell_length_b 7.474342
_cell_length_c 24.566087
_cell_angle_alpha 90.000000
_cell_angle_beta 90.000000
_cell_angle_gamma 90.000000
_cell_volume 2836.031404
_symmetry_space_group_name_H-M "C C C A"
_symmetry_group_IT_number 68
_space_group.IT_coordinate_system_code '2'
_symmetry_cell_setting 'orthorhombic'
loop_
_space_group_symop_operation_xyz
x,y,z
-x,1/2-y,z
x,1/2-y,1/2-z
-x,y,1/2-z
-x,-y,-z
x,1/2+y,-z
-x,1/2+y,1/2+z
x,-y,1/2+z
1/2+x,1/2+y,z
1/2-x,-y,z
1/2+x,-y,1/2-z
1/2-x,1/2+y,1/2-z
1/2-x,1/2-y,-z
1/2+x,y,-z
1/2-x,y,1/2+z
1/2+x,1/2-y,1/2+z
loop_
_atom_site_type_symbol
_atom_site_label
_atom_site_fract_x
_atom_site_fract_y
_atom_site_fract_z
Si Si1 0.552435 0.594087 0.807503
Si Si2 0.241808 0.716961 0.308541
Si Si3 0.000000 0.750000 0.875034
Si Si4 0.250000 0.000000 0.001313
Si Si5 0.672407 0.215979 0.579302
O O1 0.500000 0.750000 0.838111
O O2 0.500000 0.571673 0.750000
O O3 0.649086 0.678046 0.802948
O O4 0.537957 0.410405 0.838848
O O5 0.286873 0.750000 0.250000
O O6 0.250000 0.500000 0.316024
O O7 0.286028 0.800404 0.361299
O O8 0.080153 0.693849 0.911948
O O9 0.327721 0.039358 0.958304
O O10 0.232033 0.157316 0.043388
#
# Coordination Sequence:
#
# PCOD9509740 Si02
#       5
#    16  16   8   8  16
#     4  11  24  44  67 107 154 197 243 303 370 456
#     4  12  26  44  72 111 152 199 247 306 389 459
#     4  12  27  44  74 108 146 196 251 316 376 450
#     4  10  24  48  74  98 144 192 252 314 374 454
#     4  11  25  46  72 106 140 198 248 308 377 451
#
# _framework density 22.566746999999999
#
# number of rings (size 3 to 8) (size 9 to 14) (size 15 to 20)
#    0.000    0.750    3.750    3.375    5.250    1.000 
#    0.000    0.000    0.000    0.000    0.000    0.000 
#    0.000    0.000    0.000    0.000    0.000    0.000 
#
# Total GULP energy -178313.717230 kJ/mol
# GULP energy per Si atom -5572.303663 kJ/mol
# Density = 2.251538 g / cm^3
# Si number density = 22.566747 Si / 1000 Ang^3
#
#
#
# Elastic Constant Matrix: (Units=GPa)
#
#
# Indices 1 2 3 4 5 6 
#
# 1 109.2120 12.9122 52.8880 0.0000 0.0000 0.0000
# 2 12.9122 113.7324 25.1985 0.0000 0.0000 0.0000
# 3 52.8880 25.1985 141.5946 0.0000 0.0000 0.0000
# 4 0.0000 0.0000 0.0000 21.3533 0.0000 0.0000
# 5 0.0000 0.0000 0.0000 0.0000 80.1870 0.0000
# 6 0.0000 0.0000 0.0000 0.0000 0.0000 30.0812
#
#
#
# Elastic Compliance Matrix: (Units=1/GPa)
#
#
# Indices 1 2 3 4 5 6 
#
# 1 0.011193 -0.000359 -0.004117 0.000000 0.000000 0.000000
# 2 -0.000359 0.009165 -0.001497 0.000000 0.000000 0.000000
# 3 -0.004117 -0.001497 0.008867 0.000000 0.000000 0.000000
# 4 0.000000 0.000000 0.000000 0.046831 0.000000 0.000000
# 5 0.000000 0.000000 0.000000 0.000000 0.012471 0.000000
# 6 0.000000 0.000000 0.000000 0.000000 0.000000 0.033243
#
#
# Mechanical properties :
#
#
# Convention : Reuss Voigt Hill
#
# Bulk Modulus (GPa) = 57.87332 60.72627 59.29979
# Shear Modulus (GPa) = 35.84894 44.56031 40.20463
#
# Velocity S-wave (km/s) = 3.99002 4.44847 4.22546
# Velocity P-wave (km/s) = 6.85040 7.30433 7.08100
#
# Compressibility (1/GPa) = 0.01727912
#
# Stress axis : x y z
#
# Youngs Moduli (GPa) = 89.34526 109.11109 112.78370
#
# Poissons Ratio (x) = 0.03913 0.46431
# Poissons Ratio (y) = 0.03204 0.16885
# Poissons Ratio (z) = 0.36782 0.16335
#
# Static dielectric constant tensor:
#      x y z
#    x 2.165800 0.000000 0.000000 
#    y 0.000000 2.214230 0.000000 
#    z 0.000000 0.000000 1.825830 
# 
# From -- ./inp_files/50667.got.cif
#   From: 2010.05.17/outbox.cif.g08.bks.cpg/sg68_26_cif.got.tgz:50667.got - 2010.06.03 18:57:09.
