data_PCOD9509427
_publ_section_title
;
Structure prediction by ZEFSAII (Michael W. Deem and Ramdas Pophale) SiO2 
 PCOD9509427
Probable space group: C C C A
;
_chemical_formula_sum "Si O2"
_cell_formula_units_Z 60
_cell_length_a 13.793005
_cell_length_b 20.968218
_cell_length_c 8.647027
_cell_angle_alpha 90.000000
_cell_angle_beta 90.000000
_cell_angle_gamma 90.000000
_cell_volume 2500.847629
_symmetry_space_group_name_H-M "C C C A"
_symmetry_group_IT_number 68
_space_group.IT_coordinate_system_code '2'
_symmetry_cell_setting 'orthorhombic'
loop_
_space_group_symop_operation_xyz
x,y,z
-x,1/2-y,z
x,1/2-y,1/2-z
-x,y,1/2-z
-x,-y,-z
x,1/2+y,-z
-x,1/2+y,1/2+z
x,-y,1/2+z
1/2+x,1/2+y,z
1/2-x,-y,z
1/2+x,-y,1/2-z
1/2-x,1/2+y,1/2-z
1/2-x,1/2-y,-z
1/2+x,y,-z
1/2-x,y,1/2+z
1/2+x,1/2-y,1/2+z
loop_
_atom_site_type_symbol
_atom_site_label
_atom_site_fract_x
_atom_site_fract_y
_atom_site_fract_z
Si Si1 0.500000 0.750000 0.750000
Si Si2 0.500000 0.474155 0.250000
Si Si3 0.874544 0.647451 0.073154
Si Si4 0.830664 0.326502 0.220889
Si Si5 0.059488 0.419237 0.493018
O O1 0.568394 0.791673 0.859559
O O2 0.451538 0.528040 0.366266
O O3 0.600103 0.449797 0.351657
O O4 0.773578 0.650056 0.161786
O O5 0.854921 0.647957 0.890425
O O6 0.957713 0.594069 0.086946
O O7 0.832979 0.250000 0.250000
O O8 0.902210 0.355159 0.088530
#
# Coordination Sequence:
#
# PCOD9509427 Si02
#       5
#     4   8  16  16  16
#     4  12  26  44  74 104 158 216 244 312 394 490
#     4  10  23  48  77 103 142 201 272 308 382 454
#     4  12  26  44  70 111 146 198 249 310 396 466
#     4  12  26  46  71 113 154 191 254 316 397 481
#     4  11  24  48  76 103 147 202 252 328 382 458
#
# _framework density 23.991866000000002
#
# number of rings (size 3 to 8) (size 9 to 14) (size 15 to 20)
#    0.000    0.533    4.000    3.200    7.467    1.067 
#    0.000    8.000    0.000    0.000    0.000    0.000 
#    0.000    0.000    0.000    0.000    0.000    0.000 
#
# Total GULP energy -167019.920332 kJ/mol
# GULP energy per Si atom -5567.330678 kJ/mol
# Density = 2.393726 g / cm^3
# Si number density = 23.991866 Si / 1000 Ang^3
#
#
#
# Elastic Constant Matrix: (Units=GPa)
#
#
# Indices 1 2 3 4 5 6 
#
# 1 66.4157 -0.7321 24.4782 0.0000 0.0000 0.0000
# 2 -0.7321 84.6189 -7.4737 0.0000 0.0000 0.0000
# 3 24.4782 -7.4737 158.6649 0.0000 0.0000 0.0000
# 4 0.0000 0.0000 0.0000 31.8164 0.0000 0.0000
# 5 0.0000 0.0000 0.0000 0.0000 62.5819 0.0000
# 6 0.0000 0.0000 0.0000 0.0000 0.0000 -36.6033
#
#
#
# Elastic Compliance Matrix: (Units=1/GPa)
#
#
# Indices 1 2 3 4 5 6 
#
# 1 0.015965 -0.000080 -0.002467 0.000000 0.000000 0.000000
# 2 -0.000080 0.011867 0.000571 0.000000 0.000000 0.000000
# 3 -0.002467 0.000571 0.006710 0.000000 0.000000 0.000000
# 4 0.000000 0.000000 0.000000 0.031430 0.000000 0.000000
# 5 0.000000 0.000000 0.000000 0.000000 0.015979 0.000000
# 6 0.000000 0.000000 0.000000 0.000000 0.000000 -0.027320
#
#
# Mechanical properties :
#
#
# Convention : Reuss Voigt Hill
#
# Bulk Modulus (GPa) = 32.68822 38.02716 35.35769
# Shear Modulus (GPa) = 72.69590 31.12081 51.90836
#
# Velocity S-wave (km/s) = 5.51054 3.60549 4.65648
# Velocity P-wave (km/s) = 7.35815 5.76343 6.60906
#
# Compressibility (1/GPa) = 0.03059206
#
# Stress axis : x y z
#
# Youngs Moduli (GPa) = 62.63721 84.26405 149.02987
#
# Poissons Ratio (x) = 0.00672 0.36762
# Poissons Ratio (y) = 0.00499 -0.08514
# Poissons Ratio (z) = 0.15451 -0.04814
#
# Static dielectric constant tensor:
#      x y z
#    x 2.010200 0.000000 0.000000 
#    y 0.000000 2.450070 0.000000 
#    z 0.000000 0.000000 0.900640 
# 
# From -- ./inp_files/4914.got.cif
#   From: 2010.05.17/outbox.cif.g08.bks.cpg/sg68_3_cif.got.tgz:4914.got - 2010.06.03 18:57:09.
