data_PCOD9509335
_publ_section_title
;
Structure prediction by ZEFSAII (Michael W. Deem and Ramdas Pophale) SiO2 
 PCOD9509335
Probable space group: C C C A
;
_chemical_formula_sum "Si O2"
_cell_formula_units_Z 64
_cell_length_a 15.322670
_cell_length_b 21.062926
_cell_length_c 8.525483
_cell_angle_alpha 90.000000
_cell_angle_beta 90.000000
_cell_angle_gamma 90.000000
_cell_volume 2751.516637
_symmetry_space_group_name_H-M "C C C A"
_symmetry_group_IT_number 68
_space_group.IT_coordinate_system_code '2'
_symmetry_cell_setting 'orthorhombic'
loop_
_space_group_symop_operation_xyz
x,y,z
-x,1/2-y,z
x,1/2-y,1/2-z
-x,y,1/2-z
-x,-y,-z
x,1/2+y,-z
-x,1/2+y,1/2+z
x,-y,1/2+z
1/2+x,1/2+y,z
1/2-x,-y,z
1/2+x,-y,1/2-z
1/2-x,1/2+y,1/2-z
1/2-x,1/2-y,-z
1/2+x,y,-z
1/2-x,y,1/2+z
1/2+x,1/2-y,1/2+z
loop_
_atom_site_type_symbol
_atom_site_label
_atom_site_fract_x
_atom_site_fract_y
_atom_site_fract_z
Si Si1 0.901998 0.255061 0.563608
Si Si2 0.437285 0.531669 0.626863
Si Si3 0.262247 0.312432 0.863201
Si Si4 0.322024 0.054071 0.651199
O O1 0.912638 0.250000 0.750000
O O2 0.833695 0.314227 0.555375
O O3 0.840634 0.202569 0.483567
O O4 0.000000 0.250000 0.495537
O O5 0.500000 0.568554 0.750000
O O6 0.500000 0.500000 0.500000
O O7 0.389225 0.476870 0.726139
O O8 0.367342 0.565969 0.517565
O O9 0.264505 0.250000 0.750000
O O10 0.281638 0.380275 0.789485
O O11 0.250000 0.000000 0.626536
#
# Coordination Sequence:
#
# PCOD9509335 Si02
#       4
#    16  16  16  16
#     4   9  20  42  65  94 132 180 226 278 348 415
#     4   9  21  44  64  95 139 185 230 291 353 421
#     4  10  23  44  67  98 140 182 229 291 352 418
#     4  11  23  42  71 102 137 187 237 290 356 427
#
# _framework density 23.259898
#
# number of rings (size 3 to 8) (size 9 to 14) (size 15 to 20)
#    0.000    2.250    0.000    0.750    0.000   12.500 
#   31.500    0.000    0.000    0.000    0.000    0.000 
#    0.000    0.000    0.000    0.000    0.000    0.000 
#
# Total GULP energy -178231.031593 kJ/mol
# GULP energy per Si atom -5569.719737 kJ/mol
# Density = 2.320696 g / cm^3
# Si number density = 23.259898 Si / 1000 Ang^3
#
#
#
# Elastic Constant Matrix: (Units=GPa)
#
#
# Indices 1 2 3 4 5 6 
#
# 1 201.1831 45.2441 51.3298 0.0000 0.0000 0.0000
# 2 45.2441 121.1099 32.1473 0.0000 0.0000 0.0000
# 3 51.3298 32.1473 95.5026 0.0000 0.0000 0.0000
# 4 0.0000 0.0000 0.0000 20.6369 0.0000 0.0000
# 5 0.0000 0.0000 0.0000 0.0000 44.6706 0.0000
# 6 0.0000 0.0000 0.0000 0.0000 0.0000 9.4725
#
#
#
# Elastic Compliance Matrix: (Units=1/GPa)
#
#
# Indices 1 2 3 4 5 6 
#
# 1 0.006006 -0.001523 -0.002715 0.000000 0.000000 0.000000
# 2 -0.001523 0.009453 -0.002364 0.000000 0.000000 0.000000
# 3 -0.002715 -0.002364 0.012726 0.000000 0.000000 0.000000
# 4 0.000000 0.000000 0.000000 0.048457 0.000000 0.000000
# 5 0.000000 0.000000 0.000000 0.000000 0.022386 0.000000
# 6 0.000000 0.000000 0.000000 0.000000 0.000000 0.105568
#
#
# Mechanical properties :
#
#
# Convention : Reuss Voigt Hill
#
# Bulk Modulus (GPa) = 66.74926 75.02646 70.88786
# Shear Modulus (GPa) = 22.44227 34.22764 28.33495
#
# Velocity S-wave (km/s) = 3.10957 3.84021 3.49404
# Velocity P-wave (km/s) = 6.45384 7.21032 6.84254
#
# Compressibility (1/GPa) = 0.01498144
#
# Stress axis : x y z
#
# Youngs Moduli (GPa) = 166.50361 105.78346 78.57968
#
# Poissons Ratio (x) = 0.16110 0.21337
# Poissons Ratio (y) = 0.25357 0.18573
# Poissons Ratio (z) = 0.45211 0.25003
#
# Static dielectric constant tensor:
#      x y z
#    x 1.991720 0.000000 0.000000 
#    y 0.000000 1.844320 0.000000 
#    z 0.000000 0.000000 1.965970 
# 
# From -- ./inp_files/5016.got.cif
#   From: 2010.05.17/outbox.cif.g08.bks.cpg/sg68_3_cif.got.tgz:5016.got - 2010.06.03 18:57:09.
