data_PCOD9509856
_publ_section_title
;
Structure prediction by ZEFSAII (Michael W. Deem and Ramdas Pophale) SiO2 
 PCOD9509856
Probable space group: C C C A
;
_chemical_formula_sum "Si O2"
_cell_formula_units_Z 88
_cell_length_a 13.612634
_cell_length_b 12.912848
_cell_length_c 23.160327
_cell_angle_alpha 90.000000
_cell_angle_beta 90.000000
_cell_angle_gamma 90.000000
_cell_volume 4071.073035
_symmetry_space_group_name_H-M "C C C A"
_symmetry_group_IT_number 68
_space_group.IT_coordinate_system_code '2'
_symmetry_cell_setting 'orthorhombic'
loop_
_space_group_symop_operation_xyz
x,y,z
-x,1/2-y,z
x,1/2-y,1/2-z
-x,y,1/2-z
-x,-y,-z
x,1/2+y,-z
-x,1/2+y,1/2+z
x,-y,1/2+z
1/2+x,1/2+y,z
1/2-x,-y,z
1/2+x,-y,1/2-z
1/2-x,1/2+y,1/2-z
1/2-x,1/2-y,-z
1/2+x,y,-z
1/2-x,y,1/2+z
1/2+x,1/2-y,1/2+z
loop_
_atom_site_type_symbol
_atom_site_label
_atom_site_fract_x
_atom_site_fract_y
_atom_site_fract_z
Si Si1 0.013639 0.366486 0.533415
Si Si2 0.700228 0.250000 0.750000
Si Si3 0.735038 0.877222 0.357566
Si Si4 0.029119 0.067029 0.093079
Si Si5 0.664175 0.416864 0.842983
Si Si6 0.218149 0.297968 0.560629
O O1 0.996573 0.372240 0.464816
O O2 0.129618 0.377562 0.547179
O O3 0.000000 0.250000 0.553720
O O4 0.951253 0.454548 0.564576
O O5 0.753726 0.325556 0.704622
O O6 0.649094 0.331927 0.792739
O O7 0.620627 0.873852 0.378488
O O8 0.796944 0.805053 0.400593
O O9 0.750000 0.000000 0.356973
O O10 0.943393 0.045725 0.138999
O O11 0.750000 0.500000 0.827238
O O12 0.705305 0.360632 0.900411
O O13 0.250000 0.250000 0.500000
#
# Coordination Sequence:
#
# PCOD9509856 Si02
#       6
#    16   8  16  16  16  16
#     4  11  22  39  58  97 139 168 208 260 320 402
#     4  10  26  43  70  91 126 168 228 287 322 383
#     4  11  24  43  66  96 129 173 223 271 334 390
#     4  11  24  39  65  97 131 174 213 268 323 398
#     4  11  23  43  66  92 131 172 222 269 335 384
#     4  11  21  37  63  95 131 177 205 258 328 394
#
# _framework density 21.615922999999999
#
# number of rings (size 3 to 8) (size 9 to 14) (size 15 to 20)
#    0.000    1.091    3.636    2.727    2.545    3.636 
#    0.000    0.000    0.000    1.091    0.000    0.000 
#    0.000    0.000    0.000    0.000    0.000    0.000 
#
# Total GULP energy -245165.351665 kJ/mol
# GULP energy per Si atom -5571.939811 kJ/mol
# Density = 2.156672 g / cm^3
# Si number density = 21.615923 Si / 1000 Ang^3
#
#
#
# Elastic Constant Matrix: (Units=GPa)
#
#
# Indices 1 2 3 4 5 6 
#
# 1 58.6991 1.9417 13.1422 0.0000 0.0000 0.0000
# 2 1.9417 108.6240 21.3269 0.0000 0.0000 0.0000
# 3 13.1422 21.3269 120.5807 0.0000 0.0000 0.0000
# 4 0.0000 0.0000 0.0000 29.7825 0.0000 0.0000
# 5 0.0000 0.0000 0.0000 0.0000 5.0777 0.0000
# 6 0.0000 0.0000 0.0000 0.0000 0.0000 30.4795
#
#
#
# Elastic Compliance Matrix: (Units=1/GPa)
#
#
# Indices 1 2 3 4 5 6 
#
# 1 0.017463 0.000064 -0.001915 0.000000 0.000000 0.000000
# 2 0.000064 0.009537 -0.001694 0.000000 0.000000 0.000000
# 3 -0.001915 -0.001694 0.008801 0.000000 0.000000 0.000000
# 4 0.000000 0.000000 0.000000 0.033577 0.000000 0.000000
# 5 0.000000 0.000000 0.000000 0.000000 0.196941 0.000000
# 6 0.000000 0.000000 0.000000 0.000000 0.000000 0.032809
#
#
# Mechanical properties :
#
#
# Convention : Reuss Voigt Hill
#
# Bulk Modulus (GPa) = 34.82832 40.08061 37.45447
# Shear Modulus (GPa) = 15.83339 29.83413 22.83376
#
# Velocity S-wave (km/s) = 2.70939 3.71912 3.25366
# Velocity P-wave (km/s) = 5.09264 6.08481 5.61070
#
# Compressibility (1/GPa) = 0.02871227
#
# Stress axis : x y z
#
# Youngs Moduli (GPa) = 57.26529 104.84942 113.61755
#
# Poissons Ratio (x) = -0.00668 0.21753
# Poissons Ratio (y) = -0.00365 0.19245
# Poissons Ratio (z) = 0.10964 0.17760
#
# Static dielectric constant tensor:
#      x y z
#    x 1.893040 0.000000 0.000000 
#    y 0.000000 1.837670 0.000000 
#    z 0.000000 0.000000 1.792430 
# 
# From -- ./inp_files/38465.got.cif
#   From: 2010.05.17/outbox.cif.g08.bks.cpg/sg68_20_cif.got.tgz:38465.got - 2010.06.03 18:57:09.
