data_PCOD9509686
_publ_section_title
;
Structure prediction by ZEFSAII (Michael W. Deem and Ramdas Pophale) SiO2 
 PCOD9509686
Probable space group: C C C A
;
_chemical_formula_sum "Si O2"
_cell_formula_units_Z 96
_cell_length_a 24.155144
_cell_length_b 8.940376
_cell_length_c 20.920544
_cell_angle_alpha 90.000000
_cell_angle_beta 90.000000
_cell_angle_gamma 90.000000
_cell_volume 4517.918458
_symmetry_space_group_name_H-M "C C C A"
_symmetry_group_IT_number 68
_space_group.IT_coordinate_system_code '2'
_symmetry_cell_setting 'orthorhombic'
loop_
_space_group_symop_operation_xyz
x,y,z
-x,1/2-y,z
x,1/2-y,1/2-z
-x,y,1/2-z
-x,-y,-z
x,1/2+y,-z
-x,1/2+y,1/2+z
x,-y,1/2+z
1/2+x,1/2+y,z
1/2-x,-y,z
1/2+x,-y,1/2-z
1/2-x,1/2+y,1/2-z
1/2-x,1/2-y,-z
1/2+x,y,-z
1/2-x,y,1/2+z
1/2+x,1/2-y,1/2+z
loop_
_atom_site_type_symbol
_atom_site_label
_atom_site_fract_x
_atom_site_fract_y
_atom_site_fract_z
Si Si1 0.826198 0.854737 0.812663
Si Si2 0.311463 0.429846 0.064624
Si Si3 0.969464 0.095078 0.944353
Si Si4 0.205361 0.202189 0.675847
Si Si5 0.876228 0.292751 0.477246
Si Si6 0.553249 0.663669 0.132632
O O1 0.820269 0.750000 0.750000
O O2 0.769388 0.808195 0.848543
O O3 0.888922 0.824600 0.832163
O O4 0.819987 0.035423 0.818763
O O5 0.250000 0.500000 0.057757
O O6 0.318708 0.326754 0.127725
O O7 0.349755 0.576652 0.064923
O O8 0.332373 0.326352 0.005119
O O9 0.000000 0.250000 0.936198
O O10 0.967891 0.002481 0.879619
O O11 0.906276 0.126793 0.963883
O O12 0.000000 0.000000 0.000000
O O13 0.204070 0.250000 0.750000
O O14 0.926949 0.222163 0.437515
O O15 0.500000 0.750000 0.157683
#
# Coordination Sequence:
#
# PCOD9509686 Si02
#       6
#    16  16  16  16  16  16
#     4  10  24  46  73  99 135 172 235 295 352 421
#     4  12  26  41  65 102 148 186 229 295 361 426
#     4  12  20  39  61  92 130 176 228 277 328 414
#     4  10  24  46  75 103 134 183 237 288 359 427
#     4  12  23  40  64  96 141 181 229 283 358 424
#     4  12  24  41  67  97 134 187 230 285 350 420
#
# _framework density 21.248723999999999
#
# number of rings (size 3 to 8) (size 9 to 14) (size 15 to 20)
#    0.000    0.667    5.000    2.500    7.000    0.333 
#    0.000    0.000    0.000    0.000    0.000    0.000 
#    0.000    0.000    0.000    0.000    0.000    0.000 
#
# Total GULP energy -267463.649102 kJ/mol
# GULP energy per Si atom -5572.159356 kJ/mol
# Density = 2.120036 g / cm^3
# Si number density = 21.248724 Si / 1000 Ang^3
#
#
#
# Elastic Constant Matrix: (Units=GPa)
#
#
# Indices 1 2 3 4 5 6 
#
# 1 126.0695 59.4772 30.2351 0.0000 0.0000 0.0000
# 2 59.4772 146.1952 40.7311 0.0000 0.0000 0.0000
# 3 30.2351 40.7311 43.7482 0.0000 0.0000 0.0000
# 4 0.0000 0.0000 0.0000 26.8692 0.0000 0.0000
# 5 0.0000 0.0000 0.0000 0.0000 40.7311 0.0000
# 6 0.0000 0.0000 0.0000 0.0000 0.0000 41.3343
#
#
#
# Elastic Compliance Matrix: (Units=1/GPa)
#
#
# Indices 1 2 3 4 5 6 
#
# 1 0.010405 -0.003010 -0.004388 0.000000 0.000000 0.000000
# 2 -0.003010 0.010107 -0.007329 0.000000 0.000000 0.000000
# 3 -0.004388 -0.007329 0.032715 0.000000 0.000000 0.000000
# 4 0.000000 0.000000 0.000000 0.037217 0.000000 0.000000
# 5 0.000000 0.000000 0.000000 0.000000 0.024551 0.000000
# 6 0.000000 0.000000 0.000000 0.000000 0.000000 0.024193
#
#
# Mechanical properties :
#
#
# Convention : Reuss Voigt Hill
#
# Bulk Modulus (GPa) = 42.06876 64.09996 53.08436
# Shear Modulus (GPa) = 28.31783 34.15823 31.23803
#
# Velocity S-wave (km/s) = 3.65455 4.01377 3.83837
# Velocity P-wave (km/s) = 6.13587 7.19113 6.68436
#
# Compressibility (1/GPa) = 0.02377061
#
# Stress axis : x y z
#
# Youngs Moduli (GPa) = 96.10950 98.94183 30.56739
#
# Poissons Ratio (x) = 0.29786 0.13413
# Poissons Ratio (y) = 0.28934 0.22404
# Poissons Ratio (z) = 0.42173 0.72518
#
# Static dielectric constant tensor:
#      x y z
#    x 1.828950 0.000000 0.000000 
#    y 0.000000 1.852460 0.000000 
#    z 0.000000 0.000000 1.884150 
# 
# From -- ./inp_files/46943.got.cif
#   From: 2010.05.17/outbox.cif.g08.bks.cpg/sg68_24_cif.got.tgz:46943.got - 2010.06.03 18:57:09.
