data_PCOD9509194
_publ_section_title
;
Structure prediction by ZEFSAII (Michael W. Deem and Ramdas Pophale) SiO2 
 PCOD9509194
Probable space group: C C C A
;
_chemical_formula_sum "Si O2"
_cell_formula_units_Z 64
_cell_length_a 21.085046
_cell_length_b 10.877765
_cell_length_c 12.096778
_cell_angle_alpha 90.000000
_cell_angle_beta 90.000000
_cell_angle_gamma 90.000000
_cell_volume 2774.494930
_symmetry_space_group_name_H-M "C C C A"
_symmetry_group_IT_number 68
_space_group.IT_coordinate_system_code '2'
_symmetry_cell_setting 'orthorhombic'
loop_
_space_group_symop_operation_xyz
x,y,z
-x,1/2-y,z
x,1/2-y,1/2-z
-x,y,1/2-z
-x,-y,-z
x,1/2+y,-z
-x,1/2+y,1/2+z
x,-y,1/2+z
1/2+x,1/2+y,z
1/2-x,-y,z
1/2+x,-y,1/2-z
1/2-x,1/2+y,1/2-z
1/2-x,1/2-y,-z
1/2+x,y,-z
1/2-x,y,1/2+z
1/2+x,1/2-y,1/2+z
loop_
_atom_site_type_symbol
_atom_site_label
_atom_site_fract_x
_atom_site_fract_y
_atom_site_fract_z
Si Si1 0.718506 0.628919 0.443200
Si Si2 0.118463 0.890720 0.104822
Si Si3 0.000000 0.750000 0.028715
Si Si4 0.721393 0.750000 0.750000
Si Si5 0.937988 0.629881 0.681057
O O1 0.750000 0.500000 0.478255
O O2 0.750000 0.750000 0.500000
O O3 0.645794 0.612646 0.479613
O O4 0.734777 0.655435 0.316544
O O5 0.172621 0.820233 0.170751
O O6 0.050641 0.824580 0.100510
O O7 0.111140 0.022488 0.160935
O O8 0.961432 0.835120 0.942333
O O9 0.916566 0.750000 0.750000
O O10 0.000000 0.586758 0.750000
#
# Coordination Sequence:
#
# PCOD9509194 Si02
#       5
#    16  16   8   8  16
#     4  10  25  49  72 105 143 194 253 307 379 437
#     4  11  24  43  75 100 150 187 243 305 365 455
#     4  10  23  41  68 108 140 194 238 296 376 430
#     4  10  26  45  66 111 136 190 244 312 362 436
#     4   9  22  43  64 107 147 188 237 295 367 442
#
# _framework density 23.067260999999998
#
# number of rings (size 3 to 8) (size 9 to 14) (size 15 to 20)
#    0.000    2.250    0.000    0.750   10.500    8.000 
#    9.000    0.000    0.000    0.000    0.000    0.000 
#    0.000    0.000    0.000    0.000    0.000    0.000 
#
# Total GULP energy -178724.250472 kJ/mol
# GULP energy per Si atom -5585.132827 kJ/mol
# Density = 2.301476 g / cm^3
# Si number density = 23.067261 Si / 1000 Ang^3
#
#
#
# Elastic Constant Matrix: (Units=GPa)
#
#
# Indices 1 2 3 4 5 6 
#
# 1 113.4816 76.3052 44.7936 0.0000 0.0000 0.0000
# 2 76.3052 126.1365 45.6340 0.0000 0.0000 0.0000
# 3 44.7936 45.6340 82.9692 0.0000 0.0000 0.0000
# 4 0.0000 0.0000 0.0000 22.9550 0.0000 0.0000
# 5 0.0000 0.0000 0.0000 0.0000 42.7779 0.0000
# 6 0.0000 0.0000 0.0000 0.0000 0.0000 -0.5873
#
#
#
# Elastic Compliance Matrix: (Units=1/GPa)
#
#
# Indices 1 2 3 4 5 6 
#
# 1 0.015904 -0.008133 -0.004113 0.000000 0.000000 0.000000
# 2 -0.008133 0.014056 -0.003340 0.000000 0.000000 0.000000
# 3 -0.004113 -0.003340 0.016110 0.000000 0.000000 0.000000
# 4 0.000000 0.000000 0.000000 0.043564 0.000000 0.000000
# 5 0.000000 0.000000 0.000000 0.000000 0.023377 0.000000
# 6 0.000000 0.000000 0.000000 0.000000 0.000000 -1.702655
#
#
# Mechanical properties :
#
#
# Convention : Reuss Voigt Hill
#
# Bulk Modulus (GPa) = 67.12250 72.89478 70.00864
# Shear Modulus (GPa) = -3.21853 23.41941 10.10044
#
# Velocity S-wave (km/s) = -1.18250 3.18978 2.09480
# Velocity P-wave (km/s) = 5.22469 6.72576 6.02218
#
# Compressibility (1/GPa) = 0.01489813
#
# Stress axis : x y z
#
# Youngs Moduli (GPa) = 62.87629 71.14191 62.07137
#
# Poissons Ratio (x) = 0.57860 0.25531
# Poissons Ratio (y) = 0.51138 0.20734
# Poissons Ratio (z) = 0.25862 0.23763
#
# Static dielectric constant tensor:
#      x y z
#    x 1.853780 0.000000 0.000000 
#    y 0.000000 1.853420 0.000000 
#    z 0.000000 0.000000 2.102770 
# 
# From -- ./inp_files/23206.got.cif
#   From: 2010.05.17/outbox.cif.g08.bks.cpg/sg68_12_cif.got.tgz:23206.got - 2010.06.03 18:57:09.
