data_PCOD9509456
_publ_section_title
;
Structure prediction by ZEFSAII (Michael W. Deem and Ramdas Pophale) SiO2 
 PCOD9509456
Probable space group: C C C A
;
_chemical_formula_sum "Si O2"
_cell_formula_units_Z 92
_cell_length_a 22.082504
_cell_length_b 22.383886
_cell_length_c 9.548315
_cell_angle_alpha 90.000000
_cell_angle_beta 90.000000
_cell_angle_gamma 90.000000
_cell_volume 4719.658125
_symmetry_space_group_name_H-M "C C C A"
_symmetry_group_IT_number 68
_space_group.IT_coordinate_system_code '2'
_symmetry_cell_setting 'orthorhombic'
loop_
_space_group_symop_operation_xyz
x,y,z
-x,1/2-y,z
x,1/2-y,1/2-z
-x,y,1/2-z
-x,-y,-z
x,1/2+y,-z
-x,1/2+y,1/2+z
x,-y,1/2+z
1/2+x,1/2+y,z
1/2-x,-y,z
1/2+x,-y,1/2-z
1/2-x,1/2+y,1/2-z
1/2-x,1/2-y,-z
1/2+x,y,-z
1/2-x,y,1/2+z
1/2+x,1/2-y,1/2+z
loop_
_atom_site_type_symbol
_atom_site_label
_atom_site_fract_x
_atom_site_fract_y
_atom_site_fract_z
Si Si1 0.750000 0.000000 0.602791
Si Si2 0.704324 0.577460 0.656339
Si Si3 0.643002 0.336727 0.989697
Si Si4 0.740459 0.814170 0.679706
Si Si5 0.070012 0.177964 0.227982
Si Si6 0.500000 0.250000 0.250000
Si Si7 0.394192 0.295693 0.071653
O O1 0.703669 0.969268 0.714429
O O2 0.774807 0.952045 0.490390
O O3 0.644491 0.612890 0.607807
O O4 0.748041 0.629783 0.715985
O O5 0.615194 0.275140 0.042890
O O6 0.711808 0.321057 0.944667
O O7 0.609110 0.353357 0.847316
O O8 0.752276 0.750000 0.750000
O O9 0.670189 0.815525 0.634004
O O10 0.076178 0.250000 0.250000
O O11 0.000000 0.163363 0.250000
O O12 0.093228 0.169096 0.071361
O O13 0.455274 0.292907 0.161838
#
# Coordination Sequence:
#
# PCOD9509456 Si02
#       7
#     8  16  16  16  16   4  16
#     4  10  24  40  56  78 118 174 208 252 284 372
#     4  11  22  39  58  83 121 161 209 244 305 364
#     4  11  21  34  57  85 123 156 196 247 309 365
#     4  12  22  33  55  93 128 157 184 248 316 374
#     4   9  19  34  52  79 120 170 200 236 288 376
#     4  12  20  36  50  72 124 188 198 238 272 380
#     4  11  21  33  53  83 127 161 204 238 301 372
#
# _framework density 19.492937000000001
#
# number of rings (size 3 to 8) (size 9 to 14) (size 15 to 20)
#    0.000    1.217    4.348    4.174    2.435    0.000 
#    0.000    0.000    0.000    0.000    0.000    1.217 
#    2.609    1.565    0.000    0.000    0.000    0.000 
#
# Total GULP energy -256450.856868 kJ/mol
# GULP energy per Si atom -5575.018628 kJ/mol
# Density = 1.944857 g / cm^3
# Si number density = 19.492937 Si / 1000 Ang^3
#
#
#
# Elastic Constant Matrix: (Units=GPa)
#
#
# Indices 1 2 3 4 5 6 
#
# 1 79.9178 7.8448 32.2749 0.0000 0.0000 0.0000
# 2 7.8448 63.5244 34.5707 0.0000 0.0000 0.0000
# 3 32.2749 34.5707 123.1120 0.0000 0.0000 0.0000
# 4 0.0000 0.0000 0.0000 24.6698 0.0000 0.0000
# 5 0.0000 0.0000 0.0000 0.0000 30.9865 0.0000
# 6 0.0000 0.0000 0.0000 0.0000 0.0000 8.7221
#
#
#
# Elastic Compliance Matrix: (Units=1/GPa)
#
#
# Indices 1 2 3 4 5 6 
#
# 1 0.014000 0.000317 -0.003759 0.000000 0.000000 0.000000
# 2 0.000317 0.018589 -0.005303 0.000000 0.000000 0.000000
# 3 -0.003759 -0.005303 0.010597 0.000000 0.000000 0.000000
# 4 0.000000 0.000000 0.000000 0.040535 0.000000 0.000000
# 5 0.000000 0.000000 0.000000 0.000000 0.032272 0.000000
# 6 0.000000 0.000000 0.000000 0.000000 0.000000 0.114651
#
#
# Mechanical properties :
#
#
# Convention : Reuss Voigt Hill
#
# Bulk Modulus (GPa) = 38.91730 46.21502 42.56616
# Shear Modulus (GPa) = 19.47799 25.66660 22.57230
#
# Velocity S-wave (km/s) = 3.16449 3.63259 3.40659
# Velocity P-wave (km/s) = 5.77583 6.43073 6.11206
#
# Compressibility (1/GPa) = 0.02569551
#
# Stress axis : x y z
#
# Youngs Moduli (GPa) = 71.42907 53.79595 94.36376
#
# Poissons Ratio (x) = -0.01705 0.35473
# Poissons Ratio (y) = -0.02264 0.50040
# Poissons Ratio (z) = 0.26852 0.28528
#
# Static dielectric constant tensor:
#      x y z
#    x 1.685650 0.000000 0.000000 
#    y 0.000000 1.741980 0.000000 
#    z 0.000000 0.000000 1.780910 
# 
# From -- ./inp_files/7158.got.cif
#   From: 2010.05.17/outbox.cif.g08.bks.cpg/sg68_4_cif.got.tgz:7158.got - 2010.06.03 18:57:09.
