data_PCOD9509122
_publ_section_title
;
Structure prediction by ZEFSAII (Michael W. Deem and Ramdas Pophale) SiO2 
 PCOD9509122
Probable space group: C C C A
;
_chemical_formula_sum "Si O2"
_cell_formula_units_Z 84
_cell_length_a 9.503447
_cell_length_b 21.590551
_cell_length_c 21.182342
_cell_angle_alpha 90.000000
_cell_angle_beta 90.000000
_cell_angle_gamma 90.000000
_cell_volume 4346.291580
_symmetry_space_group_name_H-M "C C C A"
_symmetry_group_IT_number 68
_space_group.IT_coordinate_system_code '2'
_symmetry_cell_setting 'orthorhombic'
loop_
_space_group_symop_operation_xyz
x,y,z
-x,1/2-y,z
x,1/2-y,1/2-z
-x,y,1/2-z
-x,-y,-z
x,1/2+y,-z
-x,1/2+y,1/2+z
x,-y,1/2+z
1/2+x,1/2+y,z
1/2-x,-y,z
1/2+x,-y,1/2-z
1/2-x,1/2+y,1/2-z
1/2-x,1/2-y,-z
1/2+x,y,-z
1/2-x,y,1/2+z
1/2+x,1/2-y,1/2+z
loop_
_atom_site_type_symbol
_atom_site_label
_atom_site_fract_x
_atom_site_fract_y
_atom_site_fract_z
Si Si1 0.500000 0.250000 0.750000
Si Si2 0.250000 0.500000 0.503524
Si Si3 0.589583 0.975303 0.186595
Si Si4 0.503565 0.560652 0.577049
Si Si5 0.622778 0.835899 0.141211
Si Si6 0.500000 0.250000 0.966122
Si Si7 0.920978 0.306456 0.911406
O O1 0.415828 0.204539 0.797187
O O2 0.352573 0.544549 0.544052
O O3 0.363905 0.463527 0.462229
O O4 0.500000 0.968719 0.250000
O O5 0.592140 0.908154 0.152511
O O6 0.750000 0.000000 0.196403
O O7 0.509418 0.024304 0.142373
O O8 0.517664 0.633723 0.583091
O O9 0.546574 0.804927 0.080607
O O10 0.785190 0.827019 0.125521
O O11 0.606658 0.219705 0.017586
O O12 0.000000 0.250000 0.878264
#
# Coordination Sequence:
#
# PCOD9509122 Si02
#       7
#     4   8  16  16  16   8  16
#     4  10  24  44  70  92 124 182 226 272 320 394
#     4  10  24  38  68  98 132 174 214 274 342 406
#     4  12  26  47  70  94 134 182 233 282 324 395
#     4  11  23  43  65  99 137 172 219 277 336 400
#     4  11  21  47  66  97 132 172 226 269 332 393
#     4   9  24  35  70 101 132 173 208 268 336 413
#     4  10  23  39  64 101 132 169 208 270 339 392
#
# _framework density 19.326822
#
# number of rings (size 3 to 8) (size 9 to 14) (size 15 to 20)
#    0.571    0.762    3.810    0.571    9.333    0.000 
#    6.857    0.476    0.000    0.000    0.000    0.000 
#    0.000    0.000    0.000    0.000    0.000    0.000 
#
# Total GULP energy -234233.147569 kJ/mol
# GULP energy per Si atom -5576.979704 kJ/mol
# Density = 1.928283 g / cm^3
# Si number density = 19.326822 Si / 1000 Ang^3
#
#
#
# Elastic Constant Matrix: (Units=GPa)
#
#
# Indices 1 2 3 4 5 6 
#
# 1 56.2668 27.7896 23.3889 0.0000 0.0000 0.0000
# 2 27.7896 151.7755 36.8703 0.0000 0.0000 0.0000
# 3 23.3889 36.8703 91.9893 0.0000 0.0000 0.0000
# 4 0.0000 0.0000 0.0000 23.3707 0.0000 0.0000
# 5 0.0000 0.0000 0.0000 0.0000 25.9513 0.0000
# 6 0.0000 0.0000 0.0000 0.0000 0.0000 23.4140
#
#
#
# Elastic Compliance Matrix: (Units=1/GPa)
#
#
# Indices 1 2 3 4 5 6 
#
# 1 0.020901 -0.002809 -0.004188 0.000000 0.000000 0.000000
# 2 -0.002809 0.007677 -0.002363 0.000000 0.000000 0.000000
# 3 -0.004188 -0.002363 0.012883 0.000000 0.000000 0.000000
# 4 0.000000 0.000000 0.000000 0.042789 0.000000 0.000000
# 5 0.000000 0.000000 0.000000 0.000000 0.038534 0.000000
# 6 0.000000 0.000000 0.000000 0.000000 0.000000 0.042710
#
#
# Mechanical properties :
#
#
# Convention : Reuss Voigt Hill
#
# Bulk Modulus (GPa) = 43.97535 52.90326 48.43930
# Shear Modulus (GPa) = 26.06974 28.67938 27.37456
#
# Velocity S-wave (km/s) = 3.67671 3.85634 3.76760
# Velocity P-wave (km/s) = 6.38961 6.87466 6.63657
#
# Compressibility (1/GPa) = 0.02274001
#
# Stress axis : x y z
#
# Youngs Moduli (GPa) = 47.84469 130.25831 77.62346
#
# Poissons Ratio (x) = 0.36596 0.32510
# Poissons Ratio (y) = 0.13442 0.18340
# Poissons Ratio (z) = 0.20038 0.30776
#
# Static dielectric constant tensor:
#      x y z
#    x 1.671630 0.000000 0.000000 
#    y 0.000000 1.679230 0.000000 
#    z 0.000000 0.000000 1.671930 
# 
# From -- ./inp_files/36243.got.cif
#   From: 2010.05.17/outbox.cif.g08.bks.cpg/sg68_19_cif.got.tgz:36243.got - 2010.06.03 18:57:09.
