data_PCOD9509994
_publ_section_title
;
Structure prediction by ZEFSAII (Michael W. Deem and Ramdas Pophale) SiO2 
 PCOD9509994
Probable space group: C C C A
;
_chemical_formula_sum "Si O2"
_cell_formula_units_Z 72
_cell_length_a 14.280575
_cell_length_b 19.372708
_cell_length_c 12.561661
_cell_angle_alpha 90.000000
_cell_angle_beta 90.000000
_cell_angle_gamma 90.000000
_cell_volume 3475.226345
_symmetry_space_group_name_H-M "C C C A"
_symmetry_group_IT_number 68
_space_group.IT_coordinate_system_code '2'
_symmetry_cell_setting 'orthorhombic'
loop_
_space_group_symop_operation_xyz
x,y,z
-x,1/2-y,z
x,1/2-y,1/2-z
-x,y,1/2-z
-x,-y,-z
x,1/2+y,-z
-x,1/2+y,1/2+z
x,-y,1/2+z
1/2+x,1/2+y,z
1/2-x,-y,z
1/2+x,-y,1/2-z
1/2-x,1/2+y,1/2-z
1/2-x,1/2-y,-z
1/2+x,y,-z
1/2-x,y,1/2+z
1/2+x,1/2-y,1/2+z
loop_
_atom_site_type_symbol
_atom_site_label
_atom_site_fract_x
_atom_site_fract_y
_atom_site_fract_z
Si Si1 0.625810 0.379795 0.663217
Si Si2 0.557734 0.320617 0.886735
Si Si3 0.610870 0.032438 0.264863
Si Si4 0.187344 0.372472 0.940735
Si Si5 0.750000 0.500000 0.416744
O O1 0.610208 0.343016 0.777872
O O2 0.527105 0.375324 0.602243
O O3 0.645658 0.460370 0.682580
O O4 0.711717 0.346953 0.599823
O O5 0.500000 0.250000 0.875435
O O6 0.626205 0.321993 0.986753
O O7 0.500000 0.026290 0.250000
O O8 0.634098 0.097721 0.337973
O O9 0.669221 0.033809 0.156032
O O10 0.205700 0.439166 0.014600
#
# Coordination Sequence:
#
# PCOD9509994 Si02
#       5
#    16  16  16  16   8
#     4  11  20  41  65  95 129 169 219 278 333 395
#     4  11  25  44  65  92 128 185 232 265 323 415
#     4  12  22  36  61 100 133 167 204 281 348 397
#     4  12  23  38  67 100 131 170 222 277 348 409
#     4  12  20  38  60 104 138 158 212 270 354 422
#
# _framework density 20.718074999999999
#
# number of rings (size 3 to 8) (size 9 to 14) (size 15 to 20)
#    0.000    0.444    8.889    1.333    3.111    2.667 
#    0.000    0.000    0.000    0.000    0.000    0.000 
#    0.000    0.000    0.000    0.000    0.000    0.000 
#
# Total GULP energy -201214.604838 kJ/mol
# GULP energy per Si atom -5589.294579 kJ/mol
# Density = 2.067092 g / cm^3
# Si number density = 20.718075 Si / 1000 Ang^3
#
#
#
# Elastic Constant Matrix: (Units=GPa)
#
#
# Indices 1 2 3 4 5 6 
#
# 1 134.1510 9.8019 70.0190 0.0000 0.0000 0.0000
# 2 9.8019 39.0463 15.3267 0.0000 0.0000 0.0000
# 3 70.0190 15.3267 92.2658 0.0000 0.0000 0.0000
# 4 0.0000 0.0000 0.0000 19.3111 0.0000 0.0000
# 5 0.0000 0.0000 0.0000 0.0000 46.5675 0.0000
# 6 0.0000 0.0000 0.0000 0.0000 0.0000 21.0449
#
#
#
# Elastic Compliance Matrix: (Units=1/GPa)
#
#
# Indices 1 2 3 4 5 6 
#
# 1 0.012357 0.000619 -0.009481 0.000000 0.000000 0.000000
# 2 0.000619 0.027428 -0.005026 0.000000 0.000000 0.000000
# 3 -0.009481 -0.005026 0.018868 0.000000 0.000000 0.000000
# 4 0.000000 0.000000 0.000000 0.051784 0.000000 0.000000
# 5 0.000000 0.000000 0.000000 0.000000 0.021474 0.000000
# 6 0.000000 0.000000 0.000000 0.000000 0.000000 0.047518
#
#
# Mechanical properties :
#
#
# Convention : Reuss Voigt Hill
#
# Bulk Modulus (GPa) = 32.38527 50.63980 41.51254
# Shear Modulus (GPa) = 22.98884 28.73905 25.86394
#
# Velocity S-wave (km/s) = 3.33468 3.72848 3.53707
# Velocity P-wave (km/s) = 5.52197 6.55979 6.06313
#
# Compressibility (1/GPa) = 0.03087823
#
# Stress axis : x y z
#
# Youngs Moduli (GPa) = 80.92303 36.45902 52.99997
#
# Poissons Ratio (x) = -0.02258 0.50248
# Poissons Ratio (y) = -0.05012 0.26639
# Poissons Ratio (z) = 0.76721 0.18325
#
# Static dielectric constant tensor:
#      x y z
#    x 1.768080 0.000000 0.000000 
#    y 0.000000 1.770370 0.000000 
#    z 0.000000 0.000000 1.758170 
# 
# From -- ./inp_files/13101.got.cif
#   From: 2010.05.17/outbox.cif.g08.bks.cpg/sg68_7_cif.got.tgz:13101.got - 2010.06.03 18:57:09.
