data_PCOD9509525
_publ_section_title
;
Structure prediction by ZEFSAII (Michael W. Deem and Ramdas Pophale) SiO2 
 PCOD9509525
Probable space group: C C C A
;
_chemical_formula_sum "Si O2"
_cell_formula_units_Z 48
_cell_length_a 9.439811
_cell_length_b 22.385232
_cell_length_c 9.475001
_cell_angle_alpha 90.000000
_cell_angle_beta 90.000000
_cell_angle_gamma 90.000000
_cell_volume 2002.184815
_symmetry_space_group_name_H-M "C C C A"
_symmetry_group_IT_number 68
_space_group.IT_coordinate_system_code '2'
_symmetry_cell_setting 'orthorhombic'
loop_
_space_group_symop_operation_xyz
x,y,z
-x,1/2-y,z
x,1/2-y,1/2-z
-x,y,1/2-z
-x,-y,-z
x,1/2+y,-z
-x,1/2+y,1/2+z
x,-y,1/2+z
1/2+x,1/2+y,z
1/2-x,-y,z
1/2+x,-y,1/2-z
1/2-x,1/2+y,1/2-z
1/2-x,1/2-y,-z
1/2+x,y,-z
1/2-x,y,1/2+z
1/2+x,1/2-y,1/2+z
loop_
_atom_site_type_symbol
_atom_site_label
_atom_site_fract_x
_atom_site_fract_y
_atom_site_fract_z
Si Si1 0.250000 0.000000 0.510814
Si Si2 0.345956 0.082225 0.257479
Si Si3 0.708965 0.305218 0.655767
Si Si4 0.000000 0.250000 0.960120
O O1 0.341995 0.962189 0.622468
O O2 0.177977 0.953646 0.402231
O O3 0.500000 0.110626 0.250000
O O4 0.226740 0.132463 0.234516
O O5 0.660268 0.250000 0.750000
O O6 0.589786 0.303097 0.536264
O O7 0.866270 0.284501 0.608087
#
# Coordination Sequence:
#
# PCOD9509525 Si02
#       4
#     8  16  16   8
#     4  10  26  46  66 106 136 194 242 294 352 420
#     4  11  24  45  73  99 146 185 244 294 356 427
#     4  11  24  43  69 104 137 184 229 295 360 428
#     4  10  24  42  66 104 140 174 236 282 376 418
#
# _framework density 23.97381
#
# number of rings (size 3 to 8) (size 9 to 14) (size 15 to 20)
#    0.000    1.333    0.000    4.000   14.000    0.000 
#    0.000    0.000    0.000    0.000    0.000    0.000 
#    0.000    0.000    0.000    0.000    0.000    0.000 
#
# Total GULP energy -133940.525786 kJ/mol
# GULP energy per Si atom -5580.855241 kJ/mol
# Density = 2.391924 g / cm^3
# Si number density = 23.973810 Si / 1000 Ang^3
#
#
#
# Elastic Constant Matrix: (Units=GPa)
#
#
# Indices 1 2 3 4 5 6 
#
# 1 119.2236 8.5652 28.3841 0.0000 0.0000 0.0000
# 2 8.5652 93.5575 22.9355 0.0000 0.0000 0.0000
# 3 28.3841 22.9355 107.2613 0.0000 0.0000 0.0000
# 4 0.0000 0.0000 0.0000 41.2652 0.0000 0.0000
# 5 0.0000 0.0000 0.0000 0.0000 18.4631 0.0000
# 6 0.0000 0.0000 0.0000 0.0000 0.0000 30.4771
#
#
#
# Elastic Compliance Matrix: (Units=1/GPa)
#
#
# Indices 1 2 3 4 5 6 
#
# 1 0.008957 -0.000252 -0.002316 0.000000 0.000000 0.000000
# 2 -0.000252 0.011287 -0.002347 0.000000 0.000000 0.000000
# 3 -0.002316 -0.002347 0.010438 0.000000 0.000000 0.000000
# 4 0.000000 0.000000 0.000000 0.024233 0.000000 0.000000
# 5 0.000000 0.000000 0.000000 0.000000 0.054162 0.000000
# 6 0.000000 0.000000 0.000000 0.000000 0.000000 0.032812
#
#
# Mechanical properties :
#
#
# Convention : Reuss Voigt Hill
#
# Bulk Modulus (GPa) = 47.95845 48.86801 48.41323
# Shear Modulus (GPa) = 31.51190 35.38491 33.44841
#
# Velocity S-wave (km/s) = 3.62944 3.84602 3.73930
# Velocity P-wave (km/s) = 6.13284 6.33645 6.23548
#
# Compressibility (1/GPa) = 0.02085138
#
# Stress axis : x y z
#
# Youngs Moduli (GPa) = 111.64220 88.59744 95.80561
#
# Poissons Ratio (x) = 0.02234 0.22192
# Poissons Ratio (y) = 0.02815 0.22483
# Poissons Ratio (z) = 0.25861 0.20792
#
# Static dielectric constant tensor:
#      x y z
#    x 1.952280 0.000000 0.000000 
#    y 0.000000 1.906920 0.000000 
#    z 0.000000 0.000000 2.153610 
# 
# From -- ./inp_files/9283.got.cif
#   From: 2010.05.17/outbox.cif.g08.bks.cpg/sg68_5_cif.got.tgz:9283.got - 2010.06.03 18:57:09.
