data_PCOD9509152
_publ_section_title
;
Structure prediction by ZEFSAII (Michael W. Deem and Ramdas Pophale) SiO2 
 PCOD9509152
Probable space group: C C C A
;
_chemical_formula_sum "Si O2"
_cell_formula_units_Z 108
_cell_length_a 24.125986
_cell_length_b 14.637431
_cell_length_c 15.278677
_cell_angle_alpha 90.000000
_cell_angle_beta 90.000000
_cell_angle_gamma 90.000000
_cell_volume 5395.549511
_symmetry_space_group_name_H-M "C C C A"
_symmetry_group_IT_number 68
_space_group.IT_coordinate_system_code '2'
_symmetry_cell_setting 'orthorhombic'
loop_
_space_group_symop_operation_xyz
x,y,z
-x,1/2-y,z
x,1/2-y,1/2-z
-x,y,1/2-z
-x,-y,-z
x,1/2+y,-z
-x,1/2+y,1/2+z
x,-y,1/2+z
1/2+x,1/2+y,z
1/2-x,-y,z
1/2+x,-y,1/2-z
1/2-x,1/2+y,1/2-z
1/2-x,1/2-y,-z
1/2+x,y,-z
1/2-x,y,1/2+z
1/2+x,1/2-y,1/2+z
loop_
_atom_site_type_symbol
_atom_site_label
_atom_site_fract_x
_atom_site_fract_y
_atom_site_fract_z
Si Si1 0.115740 0.280628 0.490953
Si Si2 0.500000 0.750000 0.551617
Si Si3 0.135462 0.507671 0.703384
Si Si4 0.000000 0.750000 0.750000
Si Si5 0.810288 0.803958 0.660305
Si Si6 0.679788 0.314031 0.329343
Si Si7 0.433744 0.592416 0.359643
Si Si8 0.519480 0.940114 0.648824
O O1 0.157543 0.235250 0.422747
O O2 0.144028 0.293675 0.584515
O O3 0.098326 0.374339 0.444478
O O4 0.056534 0.229532 0.499271
O O5 0.513351 0.841275 0.605964
O O6 0.170676 0.591846 0.668713
O O7 0.172019 0.416980 0.704698
O O8 0.108546 0.542439 0.794049
O O9 0.081631 0.478447 0.647544
O O10 0.962486 0.679537 0.691343
O O11 0.825996 0.750000 0.750000
O O12 0.744277 0.795909 0.651188
O O13 0.660743 0.250000 0.250000
O O14 0.480152 0.519800 0.386805
O O15 0.500000 0.930542 0.750000
#
# Coordination Sequence:
#
# PCOD9509152 Si02
#       8
#    16   8  16   4  16  16  16  16
#     4  12  26  43  70 107 143 184 235 289 359 427
#     4  12  26  40  63  99 150 186 225 276 362 429
#     4  11  21  44  72 100 133 181 240 289 351 414
#     4  12  18  40  64 104 142 184 226 276 364 414
#     4  11  24  48  75  99 137 183 240 304 354 408
#     4  11  27  48  72 100 140 192 240 290 356 426
#     4  11  23  37  70 101 140 182 230 293 353 421
#     4  10  23  40  65  97 140 191 228 280 344 429
#
# _framework density 20.016497999999999
#
# number of rings (size 3 to 8) (size 9 to 14) (size 15 to 20)
#    0.000    0.889    5.185    2.444    6.222    1.778 
#    0.000    0.000    3.259    0.000    0.000    0.000 
#    0.000    0.000    0.000    0.000    0.000    0.000 
#
# Total GULP energy -301773.241161 kJ/mol
# GULP energy per Si atom -5588.393355 kJ/mol
# Density = 1.997094 g / cm^3
# Si number density = 20.016498 Si / 1000 Ang^3
#
#
#
# Elastic Constant Matrix: (Units=GPa)
#
#
# Indices 1 2 3 4 5 6 
#
# 1 96.8323 31.1549 65.5772 0.0000 0.0000 0.0000
# 2 31.1549 129.5359 62.4471 0.0000 0.0000 0.0000
# 3 65.5772 62.4471 133.2104 0.0000 0.0000 0.0000
# 4 0.0000 0.0000 0.0000 24.6436 0.0000 0.0000
# 5 0.0000 0.0000 0.0000 0.0000 29.6823 0.0000
# 6 0.0000 0.0000 0.0000 0.0000 0.0000 28.8189
#
#
#
# Elastic Compliance Matrix: (Units=1/GPa)
#
#
# Indices 1 2 3 4 5 6 
#
# 1 0.015492 -0.000064 -0.007597 0.000000 0.000000 0.000000
# 2 -0.000064 0.009974 -0.004644 0.000000 0.000000 0.000000
# 3 -0.007597 -0.004644 0.013424 0.000000 0.000000 0.000000
# 4 0.000000 0.000000 0.000000 0.040578 0.000000 0.000000
# 5 0.000000 0.000000 0.000000 0.000000 0.033690 0.000000
# 6 0.000000 0.000000 0.000000 0.000000 0.000000 0.034699
#
#
# Mechanical properties :
#
#
# Convention : Reuss Voigt Hill
#
# Bulk Modulus (GPa) = 70.02489 75.32634 72.67562
# Shear Modulus (GPa) = 28.21222 29.98894 29.10058
#
# Velocity S-wave (km/s) = 3.75833 3.87487 3.81705
# Velocity P-wave (km/s) = 7.34118 7.59825 7.47082
#
# Compressibility (1/GPa) = 0.01428064
#
# Stress axis : x y z
#
# Youngs Moduli (GPa) = 64.54809 100.25896 74.49444
#
# Poissons Ratio (x) = 0.00640 0.56591
# Poissons Ratio (y) = 0.00412 0.34598
# Poissons Ratio (z) = 0.49035 0.46563
#
# Static dielectric constant tensor:
#      x y z
#    x 1.720380 0.000000 0.000000 
#    y 0.000000 1.710640 0.000000 
#    z 0.000000 0.000000 1.731440 
# 
# From -- ./inp_files/25501.got.cif
#   From: 2010.05.17/outbox.cif.g08.bks.cpg/sg68_13_cif.got.tgz:25501.got - 2010.06.03 18:57:09.
