data_PCOD9509616
_publ_section_title
;
Structure prediction by ZEFSAII (Michael W. Deem and Ramdas Pophale) SiO2 
 PCOD9509616
Probable space group: C C C A
;
_chemical_formula_sum "Si O2"
_cell_formula_units_Z 56
_cell_length_a 5.798883
_cell_length_b 14.344309
_cell_length_c 29.087645
_cell_angle_alpha 90.000000
_cell_angle_beta 90.000000
_cell_angle_gamma 90.000000
_cell_volume 2419.538515
_symmetry_space_group_name_H-M "C C C A"
_symmetry_group_IT_number 68
_space_group.IT_coordinate_system_code '2'
_symmetry_cell_setting 'orthorhombic'
loop_
_space_group_symop_operation_xyz
x,y,z
-x,1/2-y,z
x,1/2-y,1/2-z
-x,y,1/2-z
-x,-y,-z
x,1/2+y,-z
-x,1/2+y,1/2+z
x,-y,1/2+z
1/2+x,1/2+y,z
1/2-x,-y,z
1/2+x,-y,1/2-z
1/2-x,1/2+y,1/2-z
1/2-x,1/2-y,-z
1/2+x,y,-z
1/2-x,y,1/2+z
1/2+x,1/2-y,1/2+z
loop_
_atom_site_type_symbol
_atom_site_label
_atom_site_fract_x
_atom_site_fract_y
_atom_site_fract_z
Si Si1 0.702217 0.643424 0.984475
Si Si2 0.172401 0.107602 0.879068
Si Si3 0.159328 0.895046 0.206308
Si Si4 0.500000 0.250000 0.827149
O O1 0.628336 0.635257 0.931447
O O2 0.750000 0.750000 0.000000
O O3 0.469391 0.604969 0.010515
O O4 0.358198 0.179560 0.859302
O O5 0.965580 0.114029 0.842887
O O6 0.250000 0.000000 0.878036
O O7 0.350733 0.817300 0.204102
O O8 0.000000 0.877918 0.250000
O O9 0.250000 0.000000 0.210604
#
# Coordination Sequence:
#
# PCOD9509616 Si02
#       4
#    16  16  16   8
#     4  10  24  44  73 114 161 217 276 349 414 495
#     4  12  27  49  81 116 161 221 275 348 419 503
#     4  12  29  54  81 119 165 210 276 347 418 512
#     4  12  28  51  80 112 156 214 268 332 425 496
#
# _framework density 23.144911
#
# number of rings (size 3 to 8) (size 9 to 14) (size 15 to 20)
#    0.000    0.571    2.857    3.429   12.000    4.571 
#    0.000    0.000    0.000    0.000    0.000    0.000 
#    0.000    0.000    0.000    0.000    0.000    0.000 
#
# Total GULP energy -156643.248433 kJ/mol
# GULP energy per Si atom -5594.401730 kJ/mol
# Density = 2.309223 g / cm^3
# Si number density = 23.144911 Si / 1000 Ang^3
#
#
#
# Elastic Constant Matrix: (Units=GPa)
#
#
# Indices 1 2 3 4 5 6 
#
# 1 84.5075 16.0214 40.7006 0.0000 0.0000 0.0000
# 2 16.0214 159.3686 25.6698 0.0000 0.0000 0.0000
# 3 40.7006 25.6698 161.9771 0.0000 0.0000 0.0000
# 4 0.0000 0.0000 0.0000 41.7731 0.0000 0.0000
# 5 0.0000 0.0000 0.0000 0.0000 55.4021 0.0000
# 6 0.0000 0.0000 0.0000 0.0000 0.0000 34.3808
#
#
#
# Elastic Compliance Matrix: (Units=1/GPa)
#
#
# Indices 1 2 3 4 5 6 
#
# 1 0.013570 -0.000836 -0.003277 0.000000 0.000000 0.000000
# 2 -0.000836 0.006491 -0.000818 0.000000 0.000000 0.000000
# 3 -0.003277 -0.000818 0.007127 0.000000 0.000000 0.000000
# 4 0.000000 0.000000 0.000000 0.023939 0.000000 0.000000
# 5 0.000000 0.000000 0.000000 0.000000 0.018050 0.000000
# 6 0.000000 0.000000 0.000000 0.000000 0.000000 0.029086
#
#
# Mechanical properties :
#
#
# Convention : Reuss Voigt Hill
#
# Bulk Modulus (GPa) = 57.72475 63.40409 60.56442
# Shear Modulus (GPa) = 43.89764 47.87528 45.88646
#
# Velocity S-wave (km/s) = 4.35977 4.55301 4.45744
# Velocity P-wave (km/s) = 7.09494 7.42252 7.26058
#
# Compressibility (1/GPa) = 0.01732359
#
# Stress axis : x y z
#
# Youngs Moduli (GPa) = 73.69069 154.06724 140.31303
#
# Poissons Ratio (x) = 0.12885 0.45985
# Poissons Ratio (y) = 0.06163 0.11484
# Poissons Ratio (z) = 0.24151 0.12610
#
# Static dielectric constant tensor:
#      x y z
#    x 1.962000 0.000000 0.000000 
#    y 0.000000 1.870470 0.000000 
#    z 0.000000 0.000000 1.854730 
# 
# From -- ./inp_files/52753.got.cif
#   From: 2010.05.17/outbox.cif.g08.bks.cpg/sg68_27_cif.got.tgz:52753.got - 2010.06.03 18:57:09.
