data_PCOD9509982
_publ_section_title
;
Structure prediction by ZEFSAII (Michael W. Deem and Ramdas Pophale) SiO2 
 PCOD9509982
Probable space group: C C C A
;
_chemical_formula_sum "Si O2"
_cell_formula_units_Z 64
_cell_length_a 17.403054
_cell_length_b 17.667495
_cell_length_c 8.046883
_cell_angle_alpha 90.000000
_cell_angle_beta 90.000000
_cell_angle_gamma 90.000000
_cell_volume 2474.161996
_symmetry_space_group_name_H-M "C C C A"
_symmetry_group_IT_number 68
_space_group.IT_coordinate_system_code '2'
_symmetry_cell_setting 'orthorhombic'
loop_
_space_group_symop_operation_xyz
x,y,z
-x,1/2-y,z
x,1/2-y,1/2-z
-x,y,1/2-z
-x,-y,-z
x,1/2+y,-z
-x,1/2+y,1/2+z
x,-y,1/2+z
1/2+x,1/2+y,z
1/2-x,-y,z
1/2+x,-y,1/2-z
1/2-x,1/2+y,1/2-z
1/2-x,1/2-y,-z
1/2+x,y,-z
1/2-x,y,1/2+z
1/2+x,1/2-y,1/2+z
loop_
_atom_site_type_symbol
_atom_site_label
_atom_site_fract_x
_atom_site_fract_y
_atom_site_fract_z
Si Si1 0.123989 0.259858 0.925414
Si Si2 0.703844 0.627882 0.807972
Si Si3 0.885141 0.386505 0.345302
Si Si4 0.920389 0.479386 0.671620
O O1 0.078295 0.250000 0.750000
O O2 0.164251 0.179496 0.951070
O O3 0.188210 0.318019 0.851947
O O4 0.091225 0.303824 0.083410
O O5 0.792905 0.613687 0.829215
O O6 0.653025 0.554570 0.770295
O O7 0.912541 0.443684 0.490850
O O8 0.917750 0.429703 0.184574
O O9 0.000000 0.451474 0.750000
#
# Coordination Sequence:
#
# PCOD9509982 Si02
#       4
#    16  16  16  16
#     4   7  17  35  60  93 118 152 208 276 307 347
#     4   8  18  35  61  87 117 158 213 255 307 363
#     4  11  20  38  61  90 121 166 216 259 313 375
#     4  11  24  39  58  90 134 168 199 257 323 381
#
# _framework density 25.867343000000002
#
# number of rings (size 3 to 8) (size 9 to 14) (size 15 to 20)
#    1.500    1.000    0.000    2.250    0.000    8.000 
#    0.000   10.000    0.000    6.000    0.000    1.750 
#    0.000    0.000    0.000    0.000    0.000    0.000 
#
# Total GULP energy -178293.357921 kJ/mol
# GULP energy per Si atom -5571.667435 kJ/mol
# Density = 2.580847 g / cm^3
# Si number density = 25.867343 Si / 1000 Ang^3
#
#
#
# Elastic Constant Matrix: (Units=GPa)
#
#
# Indices 1 2 3 4 5 6 
#
# 1 113.5103 -1.5436 28.9083 0.0000 0.0000 0.0000
# 2 -1.5436 75.6530 41.0650 0.0000 0.0000 0.0000
# 3 28.9083 41.0650 70.0747 0.0000 0.0000 0.0000
# 4 0.0000 0.0000 0.0000 68.1741 0.0000 0.0000
# 5 0.0000 0.0000 0.0000 0.0000 19.5303 0.0000
# 6 0.0000 0.0000 0.0000 0.0000 0.0000 -6.1654
#
#
#
# Elastic Compliance Matrix: (Units=1/GPa)
#
#
# Indices 1 2 3 4 5 6 
#
# 1 0.010531 0.003773 -0.006555 0.000000 0.000000 0.000000
# 2 0.003773 0.020736 -0.013708 0.000000 0.000000 0.000000
# 3 -0.006555 -0.013708 0.025008 0.000000 0.000000 0.000000
# 4 0.000000 0.000000 0.000000 0.014668 0.000000 0.000000
# 5 0.000000 0.000000 0.000000 0.000000 0.051203 0.000000
# 6 0.000000 0.000000 0.000000 0.000000 0.000000 -0.162195
#
#
# Mechanical properties :
#
#
# Convention : Reuss Voigt Hill
#
# Bulk Modulus (GPa) = 42.92984 44.01082 43.47033
# Shear Modulus (GPa) = 7182.81007 29.02835 3605.91921
#
# Velocity S-wave (km/s) = 52.75239 3.35356 37.37687
# Velocity P-wave (km/s) = 61.04959 5.66093 43.35377
#
# Compressibility (1/GPa) = 0.02329382
#
# Stress axis : x y z
#
# Youngs Moduli (GPa) = 94.96158 48.22483 39.98702
#
# Poissons Ratio (x) = -0.18196 0.26213
# Poissons Ratio (y) = -0.35831 0.54816
# Poissons Ratio (z) = 0.62251 0.66108
#
# Static dielectric constant tensor:
#      x y z
#    x 1.973060 0.000000 0.000000 
#    y 0.000000 2.083650 0.000000 
#    z 0.000000 0.000000 2.217460 
# 
# From -- ./inp_files/6037.got.cif
#   From: 2010.05.17/outbox.cif.g08.bks.cpg/sg68_4_cif.got.tgz:6037.got - 2010.06.03 18:57:09.
