data_PCOD9509394
_publ_section_title
;
Structure prediction by ZEFSAII (Michael W. Deem and Ramdas Pophale) SiO2 
 PCOD9509394
Probable space group: C C C A
;
_chemical_formula_sum "Si O2"
_cell_formula_units_Z 68
_cell_length_a 10.570623
_cell_length_b 13.831426
_cell_length_c 19.693780
_cell_angle_alpha 90.000000
_cell_angle_beta 90.000000
_cell_angle_gamma 90.000000
_cell_volume 2879.364353
_symmetry_space_group_name_H-M "C C C A"
_symmetry_group_IT_number 68
_space_group.IT_coordinate_system_code '2'
_symmetry_cell_setting 'orthorhombic'
loop_
_space_group_symop_operation_xyz
x,y,z
-x,1/2-y,z
x,1/2-y,1/2-z
-x,y,1/2-z
-x,-y,-z
x,1/2+y,-z
-x,1/2+y,1/2+z
x,-y,1/2+z
1/2+x,1/2+y,z
1/2-x,-y,z
1/2+x,-y,1/2-z
1/2-x,1/2+y,1/2-z
1/2-x,1/2-y,-z
1/2+x,y,-z
1/2-x,y,1/2+z
1/2+x,1/2-y,1/2+z
loop_
_atom_site_type_symbol
_atom_site_label
_atom_site_fract_x
_atom_site_fract_y
_atom_site_fract_z
Si Si1 0.463999 0.097685 0.462337
Si Si2 0.677409 0.092800 0.173048
Si Si3 0.143775 0.252059 0.331940
Si Si4 0.500000 0.750000 0.750000
Si Si5 0.243784 0.616479 0.438356
O O1 0.411560 0.065116 0.389184
O O2 0.350081 0.144606 0.505869
O O3 0.599590 0.149434 0.452921
O O4 0.500000 0.000000 0.500000
O O5 0.790949 0.155387 0.142428
O O6 0.594194 0.173044 0.213232
O O7 0.750000 0.000000 0.205654
O O8 0.147596 0.250000 0.250000
O O9 0.215266 0.340759 0.365937
O O10 0.000000 0.250000 0.353599
O O11 0.250000 0.500000 0.435560
#
# Coordination Sequence:
#
# PCOD9509394 Si02
#       5
#    16  16  16   4  16
#     4  10  23  45  77 117 149 202 264 328 418 486
#     4  12  27  50  79 110 167 210 267 350 407 492
#     4  11  27  48  70 112 155 203 273 321 403 498
#     4  12  28  56  78 126 160 220 298 326 432 514
#     4  10  23  45  78 108 153 199 257 329 407 479
#
# _framework density 23.616323999999999
#
# number of rings (size 3 to 8) (size 9 to 14) (size 15 to 20)
#    0.000    1.176    1.176    3.529    9.882    3.765 
#    2.118    0.000    0.000    0.000    0.000    0.000 
#    0.000    0.000    0.000    0.000    0.000    0.000 
#
# Total GULP energy -189851.918836 kJ/mol
# GULP energy per Si atom -5583.879966 kJ/mol
# Density = 2.356257 g / cm^3
# Si number density = 23.616324 Si / 1000 Ang^3
#
#
#
# Elastic Constant Matrix: (Units=GPa)
#
#
# Indices 1 2 3 4 5 6 
#
# 1 219.9879 58.6760 54.5933 0.0000 0.0000 0.0000
# 2 58.6760 132.0190 47.5494 0.0000 0.0000 0.0000
# 3 54.5933 47.5494 89.9405 0.0000 0.0000 0.0000
# 4 0.0000 0.0000 0.0000 38.6829 0.0000 0.0000
# 5 0.0000 0.0000 0.0000 0.0000 18.7321 0.0000
# 6 0.0000 0.0000 0.0000 0.0000 0.0000 21.2091
#
#
#
# Elastic Compliance Matrix: (Units=1/GPa)
#
#
# Indices 1 2 3 4 5 6 
#
# 1 0.005601 -0.001562 -0.002574 0.000000 0.000000 0.000000
# 2 -0.001562 0.009792 -0.004228 0.000000 0.000000 0.000000
# 3 -0.002574 -0.004228 0.014916 0.000000 0.000000 0.000000
# 4 0.000000 0.000000 0.000000 0.025851 0.000000 0.000000
# 5 0.000000 0.000000 0.000000 0.000000 0.053384 0.000000
# 6 0.000000 0.000000 0.000000 0.000000 0.000000 0.047150
#
#
# Mechanical properties :
#
#
# Convention : Reuss Voigt Hill
#
# Bulk Modulus (GPa) = 73.63758 84.84278 79.24018
# Shear Modulus (GPa) = 28.09768 34.46674 31.28221
#
# Velocity S-wave (km/s) = 3.45303 3.82441 3.64346
# Velocity P-wave (km/s) = 6.86632 7.45017 7.16419
#
# Compressibility (1/GPa) = 0.01358002
#
# Stress axis : x y z
#
# Youngs Moduli (GPa) = 178.53371 102.12367 67.04096
#
# Poissons Ratio (x) = 0.15956 0.17255
# Poissons Ratio (y) = 0.27894 0.28348
# Poissons Ratio (z) = 0.45952 0.43182
#
# Static dielectric constant tensor:
#      x y z
#    x 2.942820 0.000000 0.000000 
#    y 0.000000 1.897590 0.000000 
#    z 0.000000 0.000000 1.945250 
# 
# From -- ./inp_files/37210.got.cif
#   From: 2010.05.17/outbox.cif.g08.bks.cpg/sg68_19_cif.got.tgz:37210.got - 2010.06.03 18:57:09.
