data_PCOD9509365
_publ_section_title
;
Structure prediction by ZEFSAII (Michael W. Deem and Ramdas Pophale) SiO2 
 PCOD9509365
Probable space group: C C C A
;
_chemical_formula_sum "Si O2"
_cell_formula_units_Z 88
_cell_length_a 7.489775
_cell_length_b 22.431952
_cell_length_c 22.738660
_cell_angle_alpha 90.000000
_cell_angle_beta 90.000000
_cell_angle_gamma 90.000000
_cell_volume 3820.328481
_symmetry_space_group_name_H-M "C C C A"
_symmetry_group_IT_number 68
_space_group.IT_coordinate_system_code '2'
_symmetry_cell_setting 'orthorhombic'
loop_
_space_group_symop_operation_xyz
x,y,z
-x,1/2-y,z
x,1/2-y,1/2-z
-x,y,1/2-z
-x,-y,-z
x,1/2+y,-z
-x,1/2+y,1/2+z
x,-y,1/2+z
1/2+x,1/2+y,z
1/2-x,-y,z
1/2+x,-y,1/2-z
1/2-x,1/2+y,1/2-z
1/2-x,1/2-y,-z
1/2+x,y,-z
1/2-x,y,1/2+z
1/2+x,1/2-y,1/2+z
loop_
_atom_site_type_symbol
_atom_site_label
_atom_site_fract_x
_atom_site_fract_y
_atom_site_fract_z
Si Si1 0.616686 0.123552 0.069996
Si Si2 0.750000 0.000000 0.598564
Si Si3 0.398942 0.117177 0.189360
Si Si4 0.465144 0.556830 0.315140
Si Si5 0.417873 0.185566 0.663856
Si Si6 0.466842 0.183701 0.962338
O O1 0.525674 0.123526 0.133496
O O2 0.773728 0.172284 0.065508
O O3 0.697669 0.057920 0.062262
O O4 0.490135 0.138801 0.015644
O O5 0.582606 0.020149 0.639202
O O6 0.500000 0.106442 0.250000
O O7 0.273842 0.175844 0.193170
O O8 0.246894 0.066856 0.176105
O O9 0.500000 0.533785 0.250000
O O10 0.530239 0.626856 0.317050
O O11 0.500000 0.250000 0.675100
O O12 0.400495 0.177077 0.593128
O O13 0.500000 0.250000 0.985008
#
# Coordination Sequence:
#
# PCOD9509365 Si02
#       6
#    16   8  16  16  16  16
#     4  12  25  46  71 111 141 196 249 302 375 441
#     4  12  26  44  72 104 148 188 258 318 362 430
#     4  10  23  44  74 108 151 189 245 300 372 455
#     4  10  23  46  73 104 145 199 244 298 370 442
#     4   9  21  45  76 104 144 191 239 308 370 439
#     4  11  24  46  78 101 147 194 245 308 371 456
#
# _framework density 23.034669000000001
#
# number of rings (size 3 to 8) (size 9 to 14) (size 15 to 20)
#    1.091    0.364    1.818    2.727    0.000    5.455 
#    0.000    0.909    8.000    0.000    0.000    0.000 
#    0.000    0.000    0.000    0.000    0.000    0.000 
#
# Total GULP energy -245849.998843 kJ/mol
# GULP energy per Si atom -5587.499974 kJ/mol
# Density = 2.298224 g / cm^3
# Si number density = 23.034669 Si / 1000 Ang^3
#
#
#
# Elastic Constant Matrix: (Units=GPa)
#
#
# Indices 1 2 3 4 5 6 
#
# 1 135.3247 48.7511 56.3762 0.0000 0.0000 0.0000
# 2 48.7511 138.8406 46.2613 0.0000 0.0000 0.0000
# 3 56.3762 46.2613 128.3973 0.0000 0.0000 0.0000
# 4 0.0000 0.0000 0.0000 -7.2767 0.0000 0.0000
# 5 0.0000 0.0000 0.0000 0.0000 29.2404 0.0000
# 6 0.0000 0.0000 0.0000 0.0000 0.0000 34.4294
#
#
#
# Elastic Compliance Matrix: (Units=1/GPa)
#
#
# Indices 1 2 3 4 5 6 
#
# 1 0.009620 -0.002239 -0.003417 0.000000 0.000000 0.000000
# 2 -0.002239 0.008706 -0.002154 0.000000 0.000000 0.000000
# 3 -0.003417 -0.002154 0.010065 0.000000 0.000000 0.000000
# 4 0.000000 0.000000 0.000000 -0.137424 0.000000 0.000000
# 5 0.000000 0.000000 0.000000 0.000000 0.034199 0.000000
# 6 0.000000 0.000000 0.000000 0.000000 0.000000 0.029045
#
#
# Mechanical properties :
#
#
# Convention : Reuss Voigt Hill
#
# Bulk Modulus (GPa) = 78.30312 78.37108 78.33710
# Shear Modulus (GPa) = -192.95875 28.02355 -82.46760
#
# Velocity S-wave (km/s) = -9.16246 3.49174 -5.98993
# Velocity P-wave (km/s) = 8.82422 7.09600 3.70902
#
# Compressibility (1/GPa) = 0.01277088
#
# Stress axis : x y z
#
# Youngs Moduli (GPa) = 103.95138 114.85824 99.35778
#
# Poissons Ratio (x) = 0.25720 0.33951
# Poissons Ratio (y) = 0.23278 0.21398
# Poissons Ratio (z) = 0.35521 0.24737
#
# Static dielectric constant tensor:
#      x y z
#    x 1.931820 0.000000 0.000000 
#    y 0.000000 1.905620 0.000000 
#    z 0.000000 0.000000 1.860490 
# 
# From -- ./inp_files/43123.got.cif
#   From: 2010.05.17/outbox.cif.g08.bks.cpg/sg68_22_cif.got.tgz:43123.got - 2010.06.03 18:57:09.
