data_PCOD9509215
_publ_section_title
;
Structure prediction by ZEFSAII (Michael W. Deem and Ramdas Pophale) SiO2 
 PCOD9509215
Probable space group: C C C A
;
_chemical_formula_sum "Si O2"
_cell_formula_units_Z 88
_cell_length_a 28.982611
_cell_length_b 13.863639
_cell_length_c 11.152883
_cell_angle_alpha 90.000000
_cell_angle_beta 90.000000
_cell_angle_gamma 90.000000
_cell_volume 4481.278089
_symmetry_space_group_name_H-M "C C C A"
_symmetry_group_IT_number 68
_space_group.IT_coordinate_system_code '2'
_symmetry_cell_setting 'orthorhombic'
loop_
_space_group_symop_operation_xyz
x,y,z
-x,1/2-y,z
x,1/2-y,1/2-z
-x,y,1/2-z
-x,-y,-z
x,1/2+y,-z
-x,1/2+y,1/2+z
x,-y,1/2+z
1/2+x,1/2+y,z
1/2-x,-y,z
1/2+x,-y,1/2-z
1/2-x,1/2+y,1/2-z
1/2-x,1/2-y,-z
1/2+x,y,-z
1/2-x,y,1/2+z
1/2+x,1/2-y,1/2+z
loop_
_atom_site_type_symbol
_atom_site_label
_atom_site_fract_x
_atom_site_fract_y
_atom_site_fract_z
Si Si1 0.472668 0.020145 0.625181
Si Si2 0.342633 0.569091 0.530432
Si Si3 0.604154 0.616830 0.543864
Si Si4 0.091019 0.794513 0.618712
Si Si5 0.250000 0.000000 0.089562
Si Si6 0.314361 0.648329 0.780336
O O1 0.500000 0.012526 0.750000
O O2 0.432856 0.938722 0.624907
O O3 0.500000 0.000000 0.500000
O O4 0.450033 0.126959 0.621346
O O5 0.372247 0.470331 0.530772
O O6 0.366824 0.643800 0.438828
O O7 0.290635 0.547177 0.488276
O O8 0.339565 0.608853 0.663287
O O9 0.582441 0.701695 0.465315
O O10 0.645974 0.660204 0.620574
O O11 0.100230 0.750000 0.750000
O O12 0.223826 0.923558 0.171627
O O13 0.292280 0.750000 0.750000
#
# Coordination Sequence:
#
# PCOD9509215 Si02
#       6
#    16  16  16  16   8  16
#     4  11  26  44  69 101 134 169 216 274 329 390
#     4  10  23  42  63  95 128 173 215 265 325 377
#     4  10  24  41  68  92 131 172 213 263 325 388
#     4  11  24  43  69  94 129 173 216 260 326 398
#     4  10  24  40  60  98 132 170 210 278 322 378
#     4  11  22  42  66  93 129 170 224 265 318 389
#
# _framework density 19.637253999999999
#
# number of rings (size 3 to 8) (size 9 to 14) (size 15 to 20)
#    0.000    1.455    1.818    1.636   12.727    4.000 
#    0.000    0.909    0.000    0.000    0.000    0.000 
#    0.000    0.000    0.000    0.000    0.000    0.000 
#
# Total GULP energy -245707.041540 kJ/mol
# GULP energy per Si atom -5584.250944 kJ/mol
# Density = 1.959256 g / cm^3
# Si number density = 19.637254 Si / 1000 Ang^3
#
#
#
# Elastic Constant Matrix: (Units=GPa)
#
#
# Indices 1 2 3 4 5 6 
#
# 1 72.0284 29.5886 15.1208 0.0000 0.0000 0.0000
# 2 29.5886 119.9227 46.2891 0.0000 0.0000 0.0000
# 3 15.1208 46.2891 74.7662 0.0000 0.0000 0.0000
# 4 0.0000 0.0000 0.0000 15.3767 0.0000 0.0000
# 5 0.0000 0.0000 0.0000 0.0000 11.0876 0.0000
# 6 0.0000 0.0000 0.0000 0.0000 0.0000 21.2338
#
#
#
# Elastic Compliance Matrix: (Units=1/GPa)
#
#
# Indices 1 2 3 4 5 6 
#
# 1 0.015507 -0.003437 -0.001008 0.000000 0.000000 0.000000
# 2 -0.003437 0.011719 -0.006560 0.000000 0.000000 0.000000
# 3 -0.001008 -0.006560 0.017641 0.000000 0.000000 0.000000
# 4 0.000000 0.000000 0.000000 0.065033 0.000000 0.000000
# 5 0.000000 0.000000 0.000000 0.000000 0.090191 0.000000
# 6 0.000000 0.000000 0.000000 0.000000 0.000000 0.047095
#
#
# Mechanical properties :
#
#
# Convention : Reuss Voigt Hill
#
# Bulk Modulus (GPa) = 43.75329 49.85715 46.80522
# Shear Modulus (GPa) = 18.06264 21.25423 19.65843
#
# Velocity S-wave (km/s) = 3.03614 3.29347 3.16742
# Velocity P-wave (km/s) = 5.88387 6.31718 6.10437
#
# Compressibility (1/GPa) = 0.02285543
#
# Stress axis : x y z
#
# Youngs Moduli (GPa) = 64.48738 85.33224 56.68756
#
# Poissons Ratio (x) = 0.29327 0.05716
# Poissons Ratio (y) = 0.22163 0.37189
# Poissons Ratio (z) = 0.06502 0.55981
#
# Static dielectric constant tensor:
#      x y z
#    x 1.683030 0.000000 0.000000 
#    y 0.000000 1.181590 0.000000 
#    z 0.000000 0.000000 1.681050 
# 
# From -- ./inp_files/17633.got.cif
#   From: 2010.05.17/outbox.cif.g08.bks.cpg/sg68_9_cif.got.tgz:17633.got - 2010.06.03 18:57:09.
