data_PCOD9509046
_publ_section_title
;
Structure prediction by ZEFSAII (Michael W. Deem and Ramdas Pophale) SiO2 
 PCOD9509046
Probable space group: C C C A
;
_chemical_formula_sum "Si O2"
_cell_formula_units_Z 48
_cell_length_a 21.721567
_cell_length_b 9.837297
_cell_length_c 8.809817
_cell_angle_alpha 90.000000
_cell_angle_beta 90.000000
_cell_angle_gamma 90.000000
_cell_volume 1882.494963
_symmetry_space_group_name_H-M "C C C A"
_symmetry_group_IT_number 68
_space_group.IT_coordinate_system_code '2'
_symmetry_cell_setting 'orthorhombic'
loop_
_space_group_symop_operation_xyz
x,y,z
-x,1/2-y,z
x,1/2-y,1/2-z
-x,y,1/2-z
-x,-y,-z
x,1/2+y,-z
-x,1/2+y,1/2+z
x,-y,1/2+z
1/2+x,1/2+y,z
1/2-x,-y,z
1/2+x,-y,1/2-z
1/2-x,1/2+y,1/2-z
1/2-x,1/2-y,-z
1/2+x,y,-z
1/2-x,y,1/2+z
1/2+x,1/2-y,1/2+z
loop_
_atom_site_type_symbol
_atom_site_label
_atom_site_fract_x
_atom_site_fract_y
_atom_site_fract_z
Si Si1 0.106956 0.750000 0.750000
Si Si2 0.454914 0.520447 0.640346
Si Si3 0.829185 0.371471 0.998614
Si Si4 0.750000 0.500000 0.756607
O O1 0.065572 0.616281 0.730726
O O2 0.148913 0.756841 0.902386
O O3 0.500000 0.602617 0.750000
O O4 0.500000 0.500000 0.500000
O O5 0.391643 0.584173 0.583233
O O6 0.804338 0.461541 0.140090
O O7 0.776831 0.383530 0.869746
#
# Coordination Sequence:
#
# PCOD9509046 Si02
#       4
#     8  16  16   8
#     4  12  25  44  74 104 140 192 237 284 382 420
#     4  12  24  44  72 102 143 181 233 299 353 430
#     4  11  23  44  70 104 141 190 235 298 348 427
#     4  10  22  46  70 100 152 182 240 304 342 418
#
# _framework density 25.498076000000001
#
# number of rings (size 3 to 8) (size 9 to 14) (size 15 to 20)
#    0.000    0.667    6.667    0.500    0.000    1.333 
#    0.000    6.667    0.000    0.000    0.000    0.000 
#    0.000    0.000    0.000    0.000    0.000    0.000 
#
# Total GULP energy -133892.933893 kJ/mol
# GULP energy per Si atom -5578.872246 kJ/mol
# Density = 2.544004 g / cm^3
# Si number density = 25.498076 Si / 1000 Ang^3
#
#
#
# Elastic Constant Matrix: (Units=GPa)
#
#
# Indices 1 2 3 4 5 6 
#
# 1 223.6396 38.6873 80.9451 0.0000 0.0000 0.0000
# 2 38.6873 59.6066 29.1178 0.0000 0.0000 0.0000
# 3 80.9451 29.1178 178.2702 0.0000 0.0000 0.0000
# 4 0.0000 0.0000 0.0000 38.9145 0.0000 0.0000
# 5 0.0000 0.0000 0.0000 0.0000 77.8986 0.0000
# 6 0.0000 0.0000 0.0000 0.0000 0.0000 11.4508
#
#
#
# Elastic Compliance Matrix: (Units=1/GPa)
#
#
# Indices 1 2 3 4 5 6 
#
# 1 0.005712 -0.002652 -0.002161 0.000000 0.000000 0.000000
# 2 -0.002652 0.019463 -0.001975 0.000000 0.000000 0.000000
# 3 -0.002161 -0.001975 0.006913 0.000000 0.000000 0.000000
# 4 0.000000 0.000000 0.000000 0.025697 0.000000 0.000000
# 5 0.000000 0.000000 0.000000 0.000000 0.012837 0.000000
# 6 0.000000 0.000000 0.000000 0.000000 0.000000 0.087330
#
#
# Mechanical properties :
#
#
# Convention : Reuss Voigt Hill
#
# Bulk Modulus (GPa) = 54.01542 84.33520 69.17531
# Shear Modulus (GPa) = 28.13757 46.50388 37.32072
#
# Velocity S-wave (km/s) = 3.32553 4.27525 3.82994
# Velocity P-wave (km/s) = 5.99797 7.58402 6.83714
#
# Compressibility (1/GPa) = 0.01851323
#
# Stress axis : x y z
#
# Youngs Moduli (GPa) = 175.06236 51.38046 144.65486
#
# Poissons Ratio (x) = 0.13627 0.31253
# Poissons Ratio (y) = 0.46428 0.28565
# Poissons Ratio (z) = 0.37823 0.10146
#
# Static dielectric constant tensor:
#      x y z
#    x 2.042010 0.000000 0.000000 
#    y 0.000000 2.139850 0.000000 
#    z 0.000000 0.000000 2.086380 
# 
# From -- ./inp_files/3745.got.cif
#   From: 2010.05.17/outbox.cif.g08.bks.cpg/sg68_2_cif.got.tgz:3745.got - 2010.06.03 18:57:09.
