data_PCOD9509755
_publ_section_title
;
Structure prediction by ZEFSAII (Michael W. Deem and Ramdas Pophale) SiO2 
 PCOD9509755
Probable space group: C C C A
;
_chemical_formula_sum "Si O2"
_cell_formula_units_Z 64
_cell_length_a 15.730562
_cell_length_b 23.035963
_cell_length_c 7.812153
_cell_angle_alpha 90.000000
_cell_angle_beta 90.000000
_cell_angle_gamma 90.000000
_cell_volume 2830.879291
_symmetry_space_group_name_H-M "C C C A"
_symmetry_group_IT_number 68
_space_group.IT_coordinate_system_code '2'
_symmetry_cell_setting 'orthorhombic'
loop_
_space_group_symop_operation_xyz
x,y,z
-x,1/2-y,z
x,1/2-y,1/2-z
-x,y,1/2-z
-x,-y,-z
x,1/2+y,-z
-x,1/2+y,1/2+z
x,-y,1/2+z
1/2+x,1/2+y,z
1/2-x,-y,z
1/2+x,-y,1/2-z
1/2-x,1/2+y,1/2-z
1/2-x,1/2-y,-z
1/2+x,y,-z
1/2-x,y,1/2+z
1/2+x,1/2-y,1/2+z
loop_
_atom_site_type_symbol
_atom_site_label
_atom_site_fract_x
_atom_site_fract_y
_atom_site_fract_z
Si Si1 0.671971 0.568801 0.165942
Si Si2 0.221038 0.750000 0.750000
Si Si3 0.354191 0.184792 0.451268
Si Si4 0.000000 0.862459 0.250000
Si Si5 0.134815 0.945115 0.062127
O O1 0.773853 0.561038 0.155425
O O2 0.621903 0.514431 0.081163
O O3 0.645194 0.571543 0.363605
O O4 0.656008 0.625429 0.054701
O O5 0.283658 0.697434 0.695109
O O6 0.163727 0.765047 0.588167
O O7 0.445608 0.179244 0.370262
O O8 0.934616 0.904551 0.349748
#
# Coordination Sequence:
#
# PCOD9509755 Si02
#       5
#    16   8  16   8  16
#     4  11  22  43  68  93 132 184 222 258 329 422
#     4  10  24  49  74  93 126 186 240 266 320 410
#     4  11  24  44  71  97 131 176 228 281 330 385
#     4  12  26  43  66 104 142 167 212 288 346 382
#     4  11  23  39  67 102 135 172 220 267 332 418
#
# _framework density 22.607818000000002
#
# number of rings (size 3 to 8) (size 9 to 14) (size 15 to 20)
#    0.000    1.000    0.000    9.000    0.000    7.500 
#    0.000    2.500    0.000    1.500    0.000    0.000 
#    0.000    0.000    0.000    0.000    0.000    0.000 
#
# Total GULP energy -179140.343861 kJ/mol
# GULP energy per Si atom -5598.135746 kJ/mol
# Density = 2.255636 g / cm^3
# Si number density = 22.607818 Si / 1000 Ang^3
#
#
#
# Elastic Constant Matrix: (Units=GPa)
#
#
# Indices 1 2 3 4 5 6 
#
# 1 119.0615 43.1821 64.9238 0.0000 0.0000 0.0000
# 2 43.1821 70.5100 34.6662 0.0000 0.0000 0.0000
# 3 64.9238 34.6662 139.9313 0.0000 0.0000 0.0000
# 4 0.0000 0.0000 0.0000 13.9159 0.0000 0.0000
# 5 0.0000 0.0000 0.0000 0.0000 130.0346 0.0000
# 6 0.0000 0.0000 0.0000 0.0000 0.0000 37.8572
#
#
#
# Elastic Compliance Matrix: (Units=1/GPa)
#
#
# Indices 1 2 3 4 5 6 
#
# 1 0.012973 -0.005677 -0.004613 0.000000 0.000000 0.000000
# 2 -0.005677 0.018634 -0.001982 0.000000 0.000000 0.000000
# 3 -0.004613 -0.001982 0.009778 0.000000 0.000000 0.000000
# 4 0.000000 0.000000 0.000000 0.071860 0.000000 0.000000
# 5 0.000000 0.000000 0.000000 0.000000 0.007690 0.000000
# 6 0.000000 0.000000 0.000000 0.000000 0.000000 0.026415
#
#
# Mechanical properties :
#
#
# Convention : Reuss Voigt Hill
#
# Bulk Modulus (GPa) = 59.38149 68.33855 63.86002
# Shear Modulus (GPa) = 28.16762 48.81025 38.48893
#
# Velocity S-wave (km/s) = 3.53359 4.65154 4.13057
# Velocity P-wave (km/s) = 6.55525 7.69042 7.14542
#
# Compressibility (1/GPa) = 0.01684026
#
# Stress axis : x y z
#
# Youngs Moduli (GPa) = 77.08028 53.66563 102.27447
#
# Poissons Ratio (x) = 0.30468 0.47177
# Poissons Ratio (y) = 0.43762 0.20273
# Poissons Ratio (z) = 0.35556 0.10637
#
# Static dielectric constant tensor:
#      x y z
#    x 1.814180 0.000000 0.000000 
#    y 0.000000 1.887140 0.000000 
#    z 0.000000 0.000000 1.844110 
# 
# From -- ./inp_files/5056.got.cif
#   From: 2010.05.17/outbox.cif.g08.bks.cpg/sg68_3_cif.got.tgz:5056.got - 2010.06.03 18:57:09.
