data_PCOD9509613
_publ_section_title
;
Structure prediction by ZEFSAII (Michael W. Deem and Ramdas Pophale) SiO2 
 PCOD9509613
Probable space group: C C C A
;
_chemical_formula_sum "Si O2"
_cell_formula_units_Z 56
_cell_length_a 26.089783
_cell_length_b 10.847971
_cell_length_c 8.595638
_cell_angle_alpha 90.000000
_cell_angle_beta 90.000000
_cell_angle_gamma 90.000000
_cell_volume 2432.747862
_symmetry_space_group_name_H-M "C C C A"
_symmetry_group_IT_number 68
_space_group.IT_coordinate_system_code '2'
_symmetry_cell_setting 'orthorhombic'
loop_
_space_group_symop_operation_xyz
x,y,z
-x,1/2-y,z
x,1/2-y,1/2-z
-x,y,1/2-z
-x,-y,-z
x,1/2+y,-z
-x,1/2+y,1/2+z
x,-y,1/2+z
1/2+x,1/2+y,z
1/2-x,-y,z
1/2+x,-y,1/2-z
1/2-x,1/2+y,1/2-z
1/2-x,1/2-y,-z
1/2+x,y,-z
1/2-x,y,1/2+z
1/2+x,1/2-y,1/2+z
loop_
_atom_site_type_symbol
_atom_site_label
_atom_site_fract_x
_atom_site_fract_y
_atom_site_fract_z
Si Si1 0.750000 0.500000 0.836984
Si Si2 0.835908 0.315429 0.915156
Si Si3 0.044516 0.349087 0.545072
Si Si4 0.500000 0.561739 0.250000
Si Si5 0.299031 0.750000 0.250000
O O1 0.800766 0.439689 0.918552
O O2 0.729904 0.380907 0.745432
O O3 0.823504 0.250000 0.750000
O O4 0.897271 0.324597 0.913526
O O5 0.824611 0.246100 0.078247
O O6 0.038415 0.365374 0.360160
O O7 0.000000 0.250000 0.585003
O O8 0.031100 0.474641 0.633795
#
# Coordination Sequence:
#
# PCOD9509613 Si02
#       5
#     8  16  16   8   8
#     4  12  28  54  78 122 164 218 286 344 420 502
#     4  12  29  48  81 116 163 220 272 347 416 500
#     4  11  25  46  74 112 154 203 268 330 417 493
#     4  10  24  44  72 108 154 200 256 340 398 506
#     4  12  30  50  81 114 163 218 278 348 414 496
#
# _framework density 23.019237
#
# number of rings (size 3 to 8) (size 9 to 14) (size 15 to 20)
#    0.000    0.571    1.429    4.286   12.000    2.286 
#    0.000    0.000    0.000    0.000    0.000    0.000 
#    0.000    0.000    0.000    0.000    0.000    0.000 
#
# Total GULP energy -156023.697583 kJ/mol
# GULP energy per Si atom -5572.274914 kJ/mol
# Density = 2.296684 g / cm^3
# Si number density = 23.019237 Si / 1000 Ang^3
#
#
#
# Elastic Constant Matrix: (Units=GPa)
#
#
# Indices 1 2 3 4 5 6 
#
# 1 173.5430 68.8449 64.2112 0.0000 0.0000 0.0000
# 2 68.8449 101.4738 55.9974 0.0000 0.0000 0.0000
# 3 64.2112 55.9974 186.6429 0.0000 0.0000 0.0000
# 4 0.0000 0.0000 0.0000 51.0753 0.0000 0.0000
# 5 0.0000 0.0000 0.0000 0.0000 50.1097 0.0000
# 6 0.0000 0.0000 0.0000 0.0000 0.0000 17.9285
#
#
#
# Elastic Compliance Matrix: (Units=1/GPa)
#
#
# Indices 1 2 3 4 5 6 
#
# 1 0.008169 -0.004783 -0.001375 0.000000 0.000000 0.000000
# 2 -0.004783 0.014611 -0.002738 0.000000 0.000000 0.000000
# 3 -0.001375 -0.002738 0.006652 0.000000 0.000000 0.000000
# 4 0.000000 0.000000 0.000000 0.019579 0.000000 0.000000
# 5 0.000000 0.000000 0.000000 0.000000 0.019956 0.000000
# 6 0.000000 0.000000 0.000000 0.000000 0.000000 0.055777
#
#
# Mechanical properties :
#
#
# Convention : Reuss Voigt Hill
#
# Bulk Modulus (GPa) = 85.91725 93.30741 89.61233
# Shear Modulus (GPa) = 34.14920 41.99645 38.07282
#
# Velocity S-wave (km/s) = 3.85581 4.27594 4.07130
# Velocity P-wave (km/s) = 7.56493 8.06231 7.81757
#
# Compressibility (1/GPa) = 0.01163911
#
# Stress axis : x y z
#
# Youngs Moduli (GPa) = 122.42093 68.44252 150.32105
#
# Poissons Ratio (x) = 0.32736 0.20672
# Poissons Ratio (y) = 0.58555 0.41159
# Poissons Ratio (z) = 0.16835 0.18740
#
# Static dielectric constant tensor:
#      x y z
#    x 1.936430 0.000000 0.000000 
#    y 0.000000 1.881190 0.000000 
#    z 0.000000 0.000000 2.059720 
# 
# From -- ./inp_files/9316.got.cif
#   From: 2010.05.17/outbox.cif.g08.bks.cpg/sg68_5_cif.got.tgz:9316.got - 2010.06.03 18:57:09.
