data_PCOD9509742
_publ_section_title
;
Structure prediction by ZEFSAII (Michael W. Deem and Ramdas Pophale) SiO2 
 PCOD9509742
Probable space group: C C C A
;
_chemical_formula_sum "Si O2"
_cell_formula_units_Z 68
_cell_length_a 19.686908
_cell_length_b 8.251521
_cell_length_c 17.951438
_cell_angle_alpha 90.000000
_cell_angle_beta 90.000000
_cell_angle_gamma 90.000000
_cell_volume 2916.156078
_symmetry_space_group_name_H-M "C C C A"
_symmetry_group_IT_number 68
_space_group.IT_coordinate_system_code '2'
_symmetry_cell_setting 'orthorhombic'
loop_
_space_group_symop_operation_xyz
x,y,z
-x,1/2-y,z
x,1/2-y,1/2-z
-x,y,1/2-z
-x,-y,-z
x,1/2+y,-z
-x,1/2+y,1/2+z
x,-y,1/2+z
1/2+x,1/2+y,z
1/2-x,-y,z
1/2+x,-y,1/2-z
1/2-x,1/2+y,1/2-z
1/2-x,1/2-y,-z
1/2+x,y,-z
1/2-x,y,1/2+z
1/2+x,1/2-y,1/2+z
loop_
_atom_site_type_symbol
_atom_site_label
_atom_site_fract_x
_atom_site_fract_y
_atom_site_fract_z
Si Si1 0.925470 0.542347 0.973316
Si Si2 0.125524 0.368359 0.658295
Si Si3 0.500000 0.750000 0.750000
Si Si4 0.825222 0.540530 0.111342
Si Si5 0.387651 0.716217 0.170643
O O1 0.893689 0.393014 0.927788
O O2 0.926414 0.676592 0.906925
O O3 0.876131 0.565869 0.042668
O O4 0.000000 0.500000 0.000000
O O5 0.153933 0.545829 0.679751
O O6 0.052778 0.350920 0.700006
O O7 0.167361 0.202185 0.662461
O O8 0.750000 0.500000 0.083989
O O9 0.847488 0.379369 0.154393
O O10 0.423100 0.750000 0.250000
#
# Coordination Sequence:
#
# PCOD9509742 Si02
#       5
#    16  16   4  16  16
#     4  10  24  48  75 113 156 196 266 324 391 464
#     4  10  25  42  72 107 151 189 256 325 376 473
#     4  12  20  48  74 100 148 198 250 322 418 436
#     4  12  26  49  76 112 154 213 262 322 400 480
#     4  10  25  48  71 112 150 204 259 325 394 469
#
# _framework density 23.318368
#
# number of rings (size 3 to 8) (size 9 to 14) (size 15 to 20)
#    1.412    0.000    0.000    4.235    0.000    7.529 
#   10.588    0.000    0.000    0.000    0.000    0.000 
#    0.000    0.000    0.000    0.000    0.000    0.000 
#
# Total GULP energy -189389.756407 kJ/mol
# GULP energy per Si atom -5570.286953 kJ/mol
# Density = 2.326529 g / cm^3
# Si number density = 23.318368 Si / 1000 Ang^3
#
#
#
# Elastic Constant Matrix: (Units=GPa)
#
#
# Indices 1 2 3 4 5 6 
#
# 1 80.0400 36.6738 41.9317 0.0000 0.0000 0.0000
# 2 36.6738 215.5221 47.4711 0.0000 0.0000 0.0000
# 3 41.9317 47.4711 128.5588 0.0000 0.0000 0.0000
# 4 0.0000 0.0000 0.0000 15.6827 0.0000 0.0000
# 5 0.0000 0.0000 0.0000 0.0000 2.3817 0.0000
# 6 0.0000 0.0000 0.0000 0.0000 0.0000 4.9594
#
#
#
# Elastic Compliance Matrix: (Units=1/GPa)
#
#
# Indices 1 2 3 4 5 6 
#
# 1 0.015602 -0.001670 -0.004472 0.000000 0.000000 0.000000
# 2 -0.001670 0.005229 -0.001386 0.000000 0.000000 0.000000
# 3 -0.004472 -0.001386 0.009749 0.000000 0.000000 0.000000
# 4 0.000000 0.000000 0.000000 0.063765 0.000000 0.000000
# 5 0.000000 0.000000 0.000000 0.000000 0.419869 0.000000
# 6 0.000000 0.000000 0.000000 0.000000 0.000000 0.201636
#
#
# Mechanical properties :
#
#
# Convention : Reuss Voigt Hill
#
# Bulk Modulus (GPa) = 64.41804 75.14157 69.77980
# Shear Modulus (GPa) = 6.79273 24.47438 15.63355
#
# Velocity S-wave (km/s) = 1.70861 3.24323 2.59209
# Velocity P-wave (km/s) = 5.61942 6.80580 6.24086
#
# Compressibility (1/GPa) = 0.01552360
#
# Stress axis : x y z
#
# Youngs Moduli (GPa) = 64.09540 191.22684 102.57310
#
# Poissons Ratio (x) = 0.31931 0.45873
# Poissons Ratio (y) = 0.10703 0.14220
# Poissons Ratio (z) = 0.28665 0.26511
#
# Static dielectric constant tensor:
#      x y z
#    x 1.830500 0.000000 0.000000 
#    y 0.000000 1.984010 0.000000 
#    z 0.000000 0.000000 1.315780 
# 
# From -- ./inp_files/32585.got.cif
#   From: 2010.05.17/outbox.cif.g08.bks.cpg/sg68_17_cif.got.tgz:32585.got - 2010.06.03 18:57:09.
