data_PCOD9509370
_publ_section_title
;
Structure prediction by ZEFSAII (Michael W. Deem and Ramdas Pophale) SiO2 
 PCOD9509370
Probable space group: C C C A
;
_chemical_formula_sum "Si O2"
_cell_formula_units_Z 60
_cell_length_a 11.551220
_cell_length_b 10.466220
_cell_length_c 25.866675
_cell_angle_alpha 90.000000
_cell_angle_beta 90.000000
_cell_angle_gamma 90.000000
_cell_volume 3127.219181
_symmetry_space_group_name_H-M "C C C A"
_symmetry_group_IT_number 68
_space_group.IT_coordinate_system_code '2'
_symmetry_cell_setting 'orthorhombic'
loop_
_space_group_symop_operation_xyz
x,y,z
-x,1/2-y,z
x,1/2-y,1/2-z
-x,y,1/2-z
-x,-y,-z
x,1/2+y,-z
-x,1/2+y,1/2+z
x,-y,1/2+z
1/2+x,1/2+y,z
1/2-x,-y,z
1/2+x,-y,1/2-z
1/2-x,1/2+y,1/2-z
1/2-x,1/2-y,-z
1/2+x,y,-z
1/2-x,y,1/2+z
1/2+x,1/2-y,1/2+z
loop_
_atom_site_type_symbol
_atom_site_label
_atom_site_fract_x
_atom_site_fract_y
_atom_site_fract_z
Si Si1 0.170756 0.627307 0.487681
Si Si2 0.390944 0.342371 0.367740
Si Si3 0.000000 0.750000 0.750000
Si Si4 0.139961 0.861724 0.656751
Si Si5 0.000000 0.250000 0.062503
O O1 0.250000 0.500000 0.492767
O O2 0.250000 0.750000 0.500000
O O3 0.124218 0.643224 0.429577
O O4 0.063137 0.644043 0.527086
O O5 0.500000 0.250000 0.356640
O O6 0.268072 0.300016 0.343976
O O7 0.387105 0.487671 0.347458
O O8 0.079898 0.824633 0.709868
O O9 0.089672 0.811007 0.602450
#
# Coordination Sequence:
#
# PCOD9509370 Si02
#       5
#    16  16   4  16   8
#     4  12  23  36  60  96 140 186 216 262 324 406
#     4  11  22  41  64  96 139 164 217 271 333 405
#     4  10  24  52  72  80 124 164 224 290 352 386
#     4  10  23  45  64  95 124 174 221 286 332 399
#     4  11  22  35  66  92 132 175 228 253 330 398
#
# _framework density 19.186375000000002
#
# number of rings (size 3 to 8) (size 9 to 14) (size 15 to 20)
#    0.000    1.067    6.667    0.000    3.733    2.133 
#    9.600    2.667    0.000    0.000    0.000    0.000 
#    0.000    0.000    0.000    0.000    0.000    0.000 
#
# Total GULP energy -167052.430044 kJ/mol
# GULP energy per Si atom -5568.414335 kJ/mol
# Density = 1.914271 g / cm^3
# Si number density = 19.186375 Si / 1000 Ang^3
#
#
#
# Elastic Constant Matrix: (Units=GPa)
#
#
# Indices 1 2 3 4 5 6 
#
# 1 156.1342 56.0292 56.2128 0.0000 0.0000 0.0000
# 2 56.0292 72.9899 12.5049 0.0000 0.0000 0.0000
# 3 56.2128 12.5049 125.9088 0.0000 0.0000 0.0000
# 4 0.0000 0.0000 0.0000 46.4730 0.0000 0.0000
# 5 0.0000 0.0000 0.0000 0.0000 43.7492 0.0000
# 6 0.0000 0.0000 0.0000 0.0000 0.0000 35.5024
#
#
#
# Elastic Compliance Matrix: (Units=1/GPa)
#
#
# Indices 1 2 3 4 5 6 
#
# 1 0.010464 -0.007357 -0.003941 0.000000 0.000000 0.000000
# 2 -0.007357 0.019110 0.001387 0.000000 0.000000 0.000000
# 3 -0.003941 0.001387 0.009564 0.000000 0.000000 0.000000
# 4 0.000000 0.000000 0.000000 0.021518 0.000000 0.000000
# 5 0.000000 0.000000 0.000000 0.000000 0.022858 0.000000
# 6 0.000000 0.000000 0.000000 0.000000 0.000000 0.028167
#
#
# Mechanical properties :
#
#
# Convention : Reuss Voigt Hill
#
# Bulk Modulus (GPa) = 51.77209 67.16965 59.47087
# Shear Modulus (GPa) = 36.24715 40.49732 38.37224
#
# Velocity S-wave (km/s) = 4.35122 4.59926 4.47696
# Velocity P-wave (km/s) = 7.23094 7.95545 7.60184
#
# Compressibility (1/GPa) = 0.01931543
#
# Stress axis : x y z
#
# Youngs Moduli (GPa) = 95.56852 52.32732 104.55897
#
# Poissons Ratio (x) = 0.38498 0.41206
# Poissons Ratio (y) = 0.70310 -0.14498
# Poissons Ratio (z) = 0.37663 -0.07256
#
# Static dielectric constant tensor:
#      x y z
#    x 1.778860 0.000000 0.000000 
#    y 0.000000 1.693350 0.000000 
#    z 0.000000 0.000000 1.627660 
# 
# From -- ./inp_files/37070.got.cif
#   From: 2010.05.17/outbox.cif.g08.bks.cpg/sg68_19_cif.got.tgz:37070.got - 2010.06.03 18:57:09.
