data_PCOD9509272
_publ_section_title
;
Structure prediction by ZEFSAII (Michael W. Deem and Ramdas Pophale) SiO2 
 PCOD9509272
Probable space group: C C C A
;
_chemical_formula_sum "Si O2"
_cell_formula_units_Z 96
_cell_length_a 22.352301
_cell_length_b 17.879249
_cell_length_c 11.639945
_cell_angle_alpha 90.000000
_cell_angle_beta 90.000000
_cell_angle_gamma 90.000000
_cell_volume 4651.815035
_symmetry_space_group_name_H-M "C C C A"
_symmetry_group_IT_number 68
_space_group.IT_coordinate_system_code '2'
_symmetry_cell_setting 'orthorhombic'
loop_
_space_group_symop_operation_xyz
x,y,z
-x,1/2-y,z
x,1/2-y,1/2-z
-x,y,1/2-z
-x,-y,-z
x,1/2+y,-z
-x,1/2+y,1/2+z
x,-y,1/2+z
1/2+x,1/2+y,z
1/2-x,-y,z
1/2+x,-y,1/2-z
1/2-x,1/2+y,1/2-z
1/2-x,1/2-y,-z
1/2+x,y,-z
1/2-x,y,1/2+z
1/2+x,1/2-y,1/2+z
loop_
_atom_site_type_symbol
_atom_site_label
_atom_site_fract_x
_atom_site_fract_y
_atom_site_fract_z
Si Si1 0.421766 0.468778 0.133049
Si Si2 0.766740 0.414181 0.122229
Si Si3 0.197685 0.326037 0.180898
Si Si4 0.936198 0.541760 0.113566
Si Si5 0.168893 0.160708 0.912792
Si Si6 0.145187 0.828581 0.064043
O O1 0.492174 0.451232 0.115691
O O2 0.419261 0.499852 0.265737
O O3 0.375019 0.400615 0.139193
O O4 0.411079 0.509073 0.008362
O O5 0.750000 0.500000 0.098985
O O6 0.798411 0.400678 0.243413
O O7 0.705909 0.365091 0.116112
O O8 0.811441 0.376032 0.032936
O O9 0.183153 0.250000 0.250000
O O10 0.266179 0.319880 0.139225
O O11 0.155033 0.335688 0.072832
O O12 0.908660 0.624121 0.112975
O O13 0.138310 0.241034 0.915084
#
# Coordination Sequence:
#
# PCOD9509272 Si02
#       6
#    16  16  16  16  16  16
#     4  10  23  43  66  91 125 162 215 265 325 379
#     4  11  22  36  57  88 124 165 214 258 316 387
#     4  11  20  38  58  86 127 172 209 260 322 385
#     4  10  23  43  65  93 123 165 211 270 320 385
#     4  11  22  36  60  88 123 164 205 264 319 382
#     4  11  22  37  60  89 126 164 209 264 324 379
#
# _framework density 20.637105999999999
#
# number of rings (size 3 to 8) (size 9 to 14) (size 15 to 20)
#    0.000    1.333    3.333    3.000    0.000    7.333 
#    0.000    1.667    0.000    0.000    0.000    0.000 
#    0.000    0.000    0.000    0.000    0.000    0.000 
#
# Total GULP energy -267443.895624 kJ/mol
# GULP energy per Si atom -5571.747826 kJ/mol
# Density = 2.059013 g / cm^3
# Si number density = 20.637106 Si / 1000 Ang^3
#
#
#
# Elastic Constant Matrix: (Units=GPa)
#
#
# Indices 1 2 3 4 5 6 
#
# 1 23.8838 7.1348 -7.7796 0.0000 0.0000 0.0000
# 2 7.1348 53.3288 -9.2959 0.0000 0.0000 0.0000
# 3 -7.7796 -9.2959 89.4203 0.0000 0.0000 0.0000
# 4 0.0000 0.0000 0.0000 23.2231 0.0000 0.0000
# 5 0.0000 0.0000 0.0000 0.0000 9.0773 0.0000
# 6 0.0000 0.0000 0.0000 0.0000 0.0000 -2.4276
#
#
#
# Elastic Compliance Matrix: (Units=1/GPa)
#
#
# Indices 1 2 3 4 5 6 
#
# 1 0.044558 -0.005383 0.003317 0.000000 0.000000 0.000000
# 2 -0.005383 0.019748 0.001585 0.000000 0.000000 0.000000
# 3 0.003317 0.001585 0.011636 0.000000 0.000000 0.000000
# 4 0.000000 0.000000 0.000000 0.043060 0.000000 0.000000
# 5 0.000000 0.000000 0.000000 0.000000 0.110165 0.000000
# 6 0.000000 0.000000 0.000000 0.000000 0.000000 -0.411929
#
#
# Mechanical properties :
#
#
# Convention : Reuss Voigt Hill
#
# Bulk Modulus (GPa) = 13.33702 16.30570 14.82136
# Shear Modulus (GPa) = -31.88667 17.74615 -7.07026
#
# Velocity S-wave (km/s) = -3.93506 2.93561 -1.85295
# Velocity P-wave (km/s) = 3.76425 4.40553 1.61851
#
# Compressibility (1/GPa) = 0.07497925
#
# Stress axis : x y z
#
# Youngs Moduli (GPa) = 22.44271 50.63802 85.93683
#
# Poissons Ratio (x) = 0.27259 -0.28505
# Poissons Ratio (y) = 0.12081 -0.13618
# Poissons Ratio (z) = -0.07444 -0.08024
#
# Static dielectric constant tensor:
#      x y z
#    x 1.780450 0.000000 0.000000 
#    y 0.000000 1.744050 0.000000 
#    z 0.000000 0.000000 1.757430 
# 
# From -- ./inp_files/16427.got.cif
#   From: 2010.05.17/outbox.cif.g08.bks.cpg/sg68_9_cif.got.tgz:16427.got - 2010.06.03 18:57:09.
