data_PCOD9509393
_publ_section_title
;
Structure prediction by ZEFSAII (Michael W. Deem and Ramdas Pophale) SiO2 
 PCOD9509393
Probable space group: C C C A
;
_chemical_formula_sum "Si O2"
_cell_formula_units_Z 60
_cell_length_a 14.997070
_cell_length_b 32.029110
_cell_length_c 5.412353
_cell_angle_alpha 90.000000
_cell_angle_beta 90.000000
_cell_angle_gamma 90.000000
_cell_volume 2599.784820
_symmetry_space_group_name_H-M "C C C A"
_symmetry_group_IT_number 68
_space_group.IT_coordinate_system_code '2'
_symmetry_cell_setting 'orthorhombic'
loop_
_space_group_symop_operation_xyz
x,y,z
-x,1/2-y,z
x,1/2-y,1/2-z
-x,y,1/2-z
-x,-y,-z
x,1/2+y,-z
-x,1/2+y,1/2+z
x,-y,1/2+z
1/2+x,1/2+y,z
1/2-x,-y,z
1/2+x,-y,1/2-z
1/2-x,1/2+y,1/2-z
1/2-x,1/2-y,-z
1/2+x,y,-z
1/2-x,y,1/2+z
1/2+x,1/2-y,1/2+z
loop_
_atom_site_type_symbol
_atom_site_label
_atom_site_fract_x
_atom_site_fract_y
_atom_site_fract_z
Si Si1 0.690807 0.103037 0.400943
Si Si2 0.602490 0.016941 0.482433
Si Si3 0.000000 0.250000 0.750000
Si Si4 0.916980 0.320071 0.407501
Si Si5 0.304202 0.750000 0.250000
O O1 0.758132 0.100861 0.637821
O O2 0.620289 0.064988 0.421528
O O3 0.635337 0.145405 0.440328
O O4 0.500000 0.000000 0.500000
O O5 0.642783 0.007942 0.751123
O O6 0.053613 0.218225 0.580078
O O7 0.855607 0.294016 0.223094
O O8 0.000000 0.337545 0.250000
O O9 0.250000 0.750000 0.500000
#
# Coordination Sequence:
#
# PCOD9509393 Si02
#       5
#    16  16   4  16   8
#     4  12  29  49  74 114 154 192 247 315 380 442
#     4  10  23  45  77 109 144 196 243 292 369 452
#     4  12  24  48  76 108 144 202 270 302 358 446
#     4  12  27  46  74 107 147 202 251 309 371 452
#     4  12  24  44  71 101 144 188 242 302 372 430
#
# _framework density 23.078835000000002
#
# number of rings (size 3 to 8) (size 9 to 14) (size 15 to 20)
#    0.000    0.533    2.667    4.000    7.467    5.333 
#    0.000    0.000    0.000    0.000    0.000    0.000 
#    0.000    0.000    0.000    0.000    0.000    0.000 
#
# Total GULP energy -167699.006362 kJ/mol
# GULP energy per Si atom -5589.966879 kJ/mol
# Density = 2.302631 g / cm^3
# Si number density = 23.078835 Si / 1000 Ang^3
#
#
#
# Elastic Constant Matrix: (Units=GPa)
#
#
# Indices 1 2 3 4 5 6 
#
# 1 81.7581 22.3588 14.3524 0.0000 0.0000 0.0000
# 2 22.3588 124.9951 -8.0377 0.0000 0.0000 0.0000
# 3 14.3524 -8.0377 133.2464 0.0000 0.0000 0.0000
# 4 0.0000 0.0000 0.0000 21.6169 0.0000 0.0000
# 5 0.0000 0.0000 0.0000 0.0000 -10.9374 0.0000
# 6 0.0000 0.0000 0.0000 0.0000 0.0000 -12.3399
#
#
#
# Elastic Compliance Matrix: (Units=1/GPa)
#
#
# Indices 1 2 3 4 5 6 
#
# 1 0.013179 -0.002458 -0.001568 0.000000 0.000000 0.000000
# 2 -0.002458 0.008490 0.000777 0.000000 0.000000 0.000000
# 3 -0.001568 0.000777 0.007721 0.000000 0.000000 0.000000
# 4 0.000000 0.000000 0.000000 0.046260 0.000000 0.000000
# 5 0.000000 0.000000 0.000000 0.000000 -0.091430 0.000000
# 6 0.000000 0.000000 0.000000 0.000000 0.000000 -0.081038
#
#
# Mechanical properties :
#
#
# Convention : Reuss Voigt Hill
#
# Bulk Modulus (GPa) = 43.68501 44.14963 43.91732
# Shear Modulus (GPa) = -60.46701 20.42300 -20.02201
#
# Velocity S-wave (km/s) = -5.12417 2.97799 -2.94861
# Velocity P-wave (km/s) = 4.00496 5.56741 2.73462
#
# Compressibility (1/GPa) = 0.02289115
#
# Stress axis : x y z
#
# Youngs Moduli (GPa) = 75.88009 117.78584 129.52306
#
# Poissons Ratio (x) = 0.28954 0.20307
# Poissons Ratio (y) = 0.18653 -0.10063
# Poissons Ratio (z) = 0.11897 -0.09151
#
# Static dielectric constant tensor:
#      x y z
#    x 86.725450 0.000000 0.000000 
#    y 0.000000 1.872820 0.000000 
#    z 0.000000 0.000000 2.017520 
# 
# From -- ./inp_files/992.got.cif
#   From: 2010.05.17/outbox.cif.g08.bks.cpg/sg68_1_cif.got.tgz:992.got - 2010.06.03 18:57:09.
