data_PCOD9509110
_publ_section_title
;
Structure prediction by ZEFSAII (Michael W. Deem and Ramdas Pophale) SiO2 
 PCOD9509110
Probable space group: C C C A
;
_chemical_formula_sum "Si O2"
_cell_formula_units_Z 112
_cell_length_a 32.596393
_cell_length_b 15.441628
_cell_length_c 11.286398
_cell_angle_alpha 90.000000
_cell_angle_beta 90.000000
_cell_angle_gamma 90.000000
_cell_volume 5680.911086
_symmetry_space_group_name_H-M "C C C A"
_symmetry_group_IT_number 68
_space_group.IT_coordinate_system_code '2'
_symmetry_cell_setting 'orthorhombic'
loop_
_space_group_symop_operation_xyz
x,y,z
-x,1/2-y,z
x,1/2-y,1/2-z
-x,y,1/2-z
-x,-y,-z
x,1/2+y,-z
-x,1/2+y,1/2+z
x,-y,1/2+z
1/2+x,1/2+y,z
1/2-x,-y,z
1/2+x,-y,1/2-z
1/2-x,1/2+y,1/2-z
1/2-x,1/2-y,-z
1/2+x,y,-z
1/2-x,y,1/2+z
1/2+x,1/2-y,1/2+z
loop_
_atom_site_type_symbol
_atom_site_label
_atom_site_fract_x
_atom_site_fract_y
_atom_site_fract_z
Si Si1 0.325579 0.633274 0.864440
Si Si2 0.599640 0.596360 0.498457
Si Si3 0.389713 0.902312 0.047920
Si Si4 0.451182 0.252488 0.606921
Si Si5 0.842777 0.647672 0.778858
Si Si6 0.686656 0.335983 0.400881
Si Si7 0.730522 0.590183 0.427960
O O1 0.311293 0.624568 0.730645
O O2 0.318979 0.733495 0.897004
O O3 0.373857 0.616961 0.884000
O O4 0.298807 0.579242 0.957829
O O5 0.591440 0.494313 0.509447
O O6 0.563520 0.661533 0.463344
O O7 0.631102 0.619897 0.392872
O O8 0.424493 0.828366 0.058364
O O9 0.363953 0.903540 0.171246
O O10 0.353670 0.875660 0.958772
O O11 0.500000 0.250000 0.592618
O O12 0.443162 0.250000 0.750000
O O13 0.845963 0.750000 0.750000
O O14 0.796470 0.627703 0.820010
O O15 0.729998 0.353201 0.462737
O O16 0.750000 0.500000 0.392710
#
# Coordination Sequence:
#
# PCOD9509110 Si02
#       7
#    16  16  16  16  16  16  16
#     4  10  23  39  57  86 129 170 222 265 324 408
#     4  11  22  41  68  99 129 172 223 267 339 397
#     4  12  23  40  72  96 134 176 222 283 329 403
#     4  11  23  46  75 104 135 171 219 277 340 417
#     4  11  22  44  67  94 131 183 234 277 332 399
#     4  11  23  38  60  90 122 182 219 266 340 382
#     4  11  25  39  57  92 128 171 229 288 331 374
#
# _framework density 19.715147999999999
#
# number of rings (size 3 to 8) (size 9 to 14) (size 15 to 20)
#    0.000    1.000    4.286    3.000    8.000    1.143 
#    0.000    0.000    0.000    1.714    0.000    0.000 
#    0.000    0.000    0.000    0.000    0.000    0.000 
#
# Total GULP energy -312584.220746 kJ/mol
# GULP energy per Si atom -5581.861085 kJ/mol
# Density = 1.967028 g / cm^3
# Si number density = 19.715148 Si / 1000 Ang^3
#
#
#
# Elastic Constant Matrix: (Units=GPa)
#
#
# Indices 1 2 3 4 5 6 
#
# 1 134.6999 65.1340 15.0699 0.0000 0.0000 0.0000
# 2 65.1340 113.5626 42.4619 0.0000 0.0000 0.0000
# 3 15.0699 42.4619 26.8763 0.0000 0.0000 0.0000
# 4 0.0000 0.0000 0.0000 19.9251 0.0000 0.0000
# 5 0.0000 0.0000 0.0000 0.0000 23.3726 0.0000
# 6 0.0000 0.0000 0.0000 0.0000 0.0000 -5.5444
#
#
#
# Elastic Compliance Matrix: (Units=1/GPa)
#
#
# Indices 1 2 3 4 5 6 
#
# 1 0.011172 -0.009934 0.009430 0.000000 0.000000 0.000000
# 2 -0.009934 0.030349 -0.042378 0.000000 0.000000 0.000000
# 3 0.009430 -0.042378 0.098873 0.000000 0.000000 0.000000
# 4 0.000000 0.000000 0.000000 0.050188 0.000000 0.000000
# 5 0.000000 0.000000 0.000000 0.000000 0.042785 0.000000
# 6 0.000000 0.000000 0.000000 0.000000 0.000000 -0.180361
#
#
# Mechanical properties :
#
#
# Convention : Reuss Voigt Hill
#
# Bulk Modulus (GPa) = 18.30478 57.83006 38.06742
# Shear Modulus (GPa) = 31.85112 17.71553 24.78332
#
# Velocity S-wave (km/s) = 4.02377 3.00088 3.54936
# Velocity P-wave (km/s) = 5.55810 6.43455 6.01232
#
# Compressibility (1/GPa) = 0.05463054
#
# Stress axis : x y z
#
# Youngs Moduli (GPa) = 89.50584 32.95020 10.11399
#
# Poissons Ratio (x) = 0.32733 -0.09538
# Poissons Ratio (y) = 0.88915 0.42861
# Poissons Ratio (z) = -0.84405 1.39636
#
# Static dielectric constant tensor:
#      x y z
#    x 1.711980 0.000000 0.000000 
#    y 0.000000 1.767070 0.000000 
#    z 0.000000 0.000000 1.735960 
# 
# From -- ./inp_files/17768.got.cif
#   From: 2010.05.17/outbox.cif.g08.bks.cpg/sg68_9_cif.got.tgz:17768.got - 2010.06.03 18:57:09.
