data_PCOD9509441
_publ_section_title
;
Structure prediction by ZEFSAII (Michael W. Deem and Ramdas Pophale) SiO2 
 PCOD9509441
Probable space group: C C C A
;
_chemical_formula_sum "Si O2"
_cell_formula_units_Z 72
_cell_length_a 20.278401
_cell_length_b 20.122693
_cell_length_c 8.686397
_cell_angle_alpha 90.000000
_cell_angle_beta 90.000000
_cell_angle_gamma 90.000000
_cell_volume 3544.536743
_symmetry_space_group_name_H-M "C C C A"
_symmetry_group_IT_number 68
_space_group.IT_coordinate_system_code '2'
_symmetry_cell_setting 'orthorhombic'
loop_
_space_group_symop_operation_xyz
x,y,z
-x,1/2-y,z
x,1/2-y,1/2-z
-x,y,1/2-z
-x,-y,-z
x,1/2+y,-z
-x,1/2+y,1/2+z
x,-y,1/2+z
1/2+x,1/2+y,z
1/2-x,-y,z
1/2+x,-y,1/2-z
1/2-x,1/2+y,1/2-z
1/2-x,1/2-y,-z
1/2+x,y,-z
1/2-x,y,1/2+z
1/2+x,1/2-y,1/2+z
loop_
_atom_site_type_symbol
_atom_site_label
_atom_site_fract_x
_atom_site_fract_y
_atom_site_fract_z
Si Si1 0.428478 0.670651 0.941551
Si Si2 0.950949 0.459644 0.388303
Si Si3 0.836706 0.442192 0.933360
Si Si4 0.250000 0.500000 0.803660
Si Si5 0.914899 0.183587 0.573394
O O1 0.412534 0.671945 0.759200
O O2 0.399363 0.742443 0.987064
O O3 0.507888 0.673725 0.960265
O O4 0.414368 0.603106 0.032394
O O5 0.894639 0.513932 0.355945
O O6 0.000000 0.439207 0.250000
O O7 0.000000 0.500000 0.500000
O O8 0.778082 0.442573 0.808230
O O9 0.867151 0.372840 0.986240
O O10 0.807575 0.476645 0.083839
#
# Coordination Sequence:
#
# PCOD9509441 Si02
#       5
#    16  16  16   8  16
#     4   9  18  32  54  93 119 153 186 234 322 389
#     4  12  22  34  61  96 126 156 198 259 327 374
#     4  11  21  38  60  84 119 160 208 258 295 364
#     4  10  24  38  58  84 116 168 224 250 286 344
#     4   9  17  33  59  81 122 159 190 236 309 381
#
# _framework density 20.312949
#
# number of rings (size 3 to 8) (size 9 to 14) (size 15 to 20)
#    0.000    1.778    2.222    5.333    0.000    0.000 
#    0.000    2.222    0.000   24.000    0.000    0.000 
#    0.000    0.000    0.000    0.000    0.000    0.000 
#
# Total GULP energy -200575.187618 kJ/mol
# GULP energy per Si atom -5571.532989 kJ/mol
# Density = 2.026672 g / cm^3
# Si number density = 20.312949 Si / 1000 Ang^3
#
#
#
# Elastic Constant Matrix: (Units=GPa)
#
#
# Indices 1 2 3 4 5 6 
#
# 1 52.0533 24.1437 14.8852 0.0000 0.0000 0.0000
# 2 24.1437 148.6881 27.0783 0.0000 0.0000 0.0000
# 3 14.8852 27.0783 62.2522 0.0000 0.0000 0.0000
# 4 0.0000 0.0000 0.0000 18.6018 0.0000 0.0000
# 5 0.0000 0.0000 0.0000 0.0000 22.2231 0.0000
# 6 0.0000 0.0000 0.0000 0.0000 0.0000 25.9277
#
#
#
# Elastic Compliance Matrix: (Units=1/GPa)
#
#
# Indices 1 2 3 4 5 6 
#
# 1 0.021639 -0.002793 -0.003959 0.000000 0.000000 0.000000
# 2 -0.002793 0.007664 -0.002666 0.000000 0.000000 0.000000
# 3 -0.003959 -0.002666 0.018170 0.000000 0.000000 0.000000
# 4 0.000000 0.000000 0.000000 0.053758 0.000000 0.000000
# 5 0.000000 0.000000 0.000000 0.000000 0.044998 0.000000
# 6 0.000000 0.000000 0.000000 0.000000 0.000000 0.038569
#
#
# Mechanical properties :
#
#
# Convention : Reuss Voigt Hill
#
# Bulk Modulus (GPa) = 34.91976 43.91201 39.41589
# Shear Modulus (GPa) = 23.45435 26.47630 24.96532
#
# Velocity S-wave (km/s) = 3.40170 3.61421 3.50956
# Velocity P-wave (km/s) = 5.71463 6.25151 5.98909
#
# Compressibility (1/GPa) = 0.02863708
#
# Stress axis : x y z
#
# Youngs Moduli (GPa) = 46.21379 130.47196 55.03539
#
# Poissons Ratio (x) = 0.36435 0.21790
# Poissons Ratio (y) = 0.12906 0.14673
# Poissons Ratio (z) = 0.18298 0.34786
#
# Static dielectric constant tensor:
#      x y z
#    x 1.733110 0.000000 0.000000 
#    y 0.000000 1.795600 0.000000 
#    z 0.000000 0.000000 1.763560 
# 
# From -- ./inp_files/6965.got.cif
#   From: 2010.05.17/outbox.cif.g08.bks.cpg/sg68_4_cif.got.tgz:6965.got - 2010.06.03 18:57:09.
