data_PCOD9509919
_publ_section_title
;
Structure prediction by ZEFSAII (Michael W. Deem and Ramdas Pophale) SiO2 
 PCOD9509919
Probable space group: C C C A
;
_chemical_formula_sum "Si O2"
_cell_formula_units_Z 96
_cell_length_a 25.362367
_cell_length_b 9.705221
_cell_length_c 18.786661
_cell_angle_alpha 90.000000
_cell_angle_beta 90.000000
_cell_angle_gamma 90.000000
_cell_volume 4624.287324
_symmetry_space_group_name_H-M "C C C A"
_symmetry_group_IT_number 68
_space_group.IT_coordinate_system_code '2'
_symmetry_cell_setting 'orthorhombic'
loop_
_space_group_symop_operation_xyz
x,y,z
-x,1/2-y,z
x,1/2-y,1/2-z
-x,y,1/2-z
-x,-y,-z
x,1/2+y,-z
-x,1/2+y,1/2+z
x,-y,1/2+z
1/2+x,1/2+y,z
1/2-x,-y,z
1/2+x,-y,1/2-z
1/2-x,1/2+y,1/2-z
1/2-x,1/2-y,-z
1/2+x,y,-z
1/2-x,y,1/2+z
1/2+x,1/2-y,1/2+z
loop_
_atom_site_type_symbol
_atom_site_label
_atom_site_fract_x
_atom_site_fract_y
_atom_site_fract_z
Si Si1 0.693106 0.563183 0.584387
Si Si2 0.888268 0.902542 0.287673
Si Si3 0.152747 0.150388 0.965666
Si Si4 0.901945 0.469348 0.356595
Si Si5 0.557489 0.804833 0.029339
Si Si6 0.483726 0.408513 0.394864
O O1 0.750000 0.500000 0.601436
O O2 0.658612 0.578623 0.655978
O O3 0.689358 0.716127 0.548528
O O4 0.670251 0.454357 0.526951
O O5 0.888044 0.750000 0.250000
O O6 0.890365 0.016538 0.225809
O O7 0.940962 0.921681 0.333676
O O8 0.141965 0.063835 0.894367
O O9 0.094683 0.206922 0.983580
O O10 0.905417 0.331076 0.402410
O O11 0.962413 0.516384 0.373781
O O12 0.500000 0.750000 0.051342
O O13 0.544531 0.927694 0.972114
O O14 0.500000 0.250000 0.398173
#
# Coordination Sequence:
#
# PCOD9509919 Si02
#       6
#    16  16  16  16  16  16
#     4  12  27  47  71  99 125 176 238 299 344 393
#     4  12  22  40  64  95 136 173 226 273 334 412
#     4  12  22  44  73  97 133 171 230 288 339 398
#     4  12  22  36  66 100 136 178 215 267 340 410
#     4  11  22  37  63 101 139 177 217 263 332 411
#     4  11  18  33  60  96 128 168 217 259 309 408
#
# _framework density 20.759955000000001
#
# number of rings (size 3 to 8) (size 9 to 14) (size 15 to 20)
#    0.000    0.333   10.000    1.500    2.333    0.000 
#    0.000    3.333    0.000    0.000    0.000    0.000 
#    0.000    0.000    0.000    0.000    0.000    0.000 
#
# Total GULP energy -267703.005114 kJ/mol
# GULP energy per Si atom -5577.145940 kJ/mol
# Density = 2.071270 g / cm^3
# Si number density = 20.759955 Si / 1000 Ang^3
#
#
#
# Elastic Constant Matrix: (Units=GPa)
#
#
# Indices 1 2 3 4 5 6 
#
# 1 64.0664 6.2113 22.0714 0.0000 0.0000 0.0000
# 2 6.2113 30.3477 24.2060 0.0000 0.0000 0.0000
# 3 22.0714 24.2060 150.9764 0.0000 0.0000 0.0000
# 4 0.0000 0.0000 0.0000 23.3770 0.0000 0.0000
# 5 0.0000 0.0000 0.0000 0.0000 18.2496 0.0000
# 6 0.0000 0.0000 0.0000 0.0000 0.0000 33.7133
#
#
#
# Elastic Compliance Matrix: (Units=1/GPa)
#
#
# Indices 1 2 3 4 5 6 
#
# 1 0.016510 -0.001667 -0.002146 0.000000 0.000000 0.000000
# 2 -0.001667 0.037952 -0.005841 0.000000 0.000000 0.000000
# 3 -0.002146 -0.005841 0.007874 0.000000 0.000000 0.000000
# 4 0.000000 0.000000 0.000000 0.042777 0.000000 0.000000
# 5 0.000000 0.000000 0.000000 0.000000 0.054796 0.000000
# 6 0.000000 0.000000 0.000000 0.000000 0.000000 0.029662
#
#
# Mechanical properties :
#
#
# Convention : Reuss Voigt Hill
#
# Bulk Modulus (GPa) = 23.24161 38.92977 31.08569
# Shear Modulus (GPa) = 22.39932 27.92810 25.16371
#
# Velocity S-wave (km/s) = 3.28833 3.67179 3.48534
# Velocity P-wave (km/s) = 5.06332 6.06376 5.58598
#
# Compressibility (1/GPa) = 0.04302628
#
# Stress axis : x y z
#
# Youngs Moduli (GPa) = 60.56985 26.34934 127.00315
#
# Poissons Ratio (x) = 0.04393 0.27259
# Poissons Ratio (y) = 0.10098 0.74183
# Poissons Ratio (z) = 0.13000 0.15391
#
# Static dielectric constant tensor:
#      x y z
#    x 1.740540 0.000000 0.000000 
#    y 0.000000 1.876520 0.000000 
#    z 0.000000 0.000000 1.769820 
# 
# From -- ./inp_files/33529.got.cif
#   From: 2010.05.17/outbox.cif.g08.bks.cpg/sg68_17_cif.got.tgz:33529.got - 2010.06.03 18:57:09.
