data_PCOD9509251
_publ_section_title
;
Structure prediction by ZEFSAII (Michael W. Deem and Ramdas Pophale) SiO2 
 PCOD9509251
Probable space group: C C C A
;
_chemical_formula_sum "Si O2"
_cell_formula_units_Z 96
_cell_length_a 13.970977
_cell_length_b 16.334140
_cell_length_c 20.934006
_cell_angle_alpha 90.000000
_cell_angle_beta 90.000000
_cell_angle_gamma 90.000000
_cell_volume 4777.221692
_symmetry_space_group_name_H-M "C C C A"
_symmetry_group_IT_number 68
_space_group.IT_coordinate_system_code '2'
_symmetry_cell_setting 'orthorhombic'
loop_
_space_group_symop_operation_xyz
x,y,z
-x,1/2-y,z
x,1/2-y,1/2-z
-x,y,1/2-z
-x,-y,-z
x,1/2+y,-z
-x,1/2+y,1/2+z
x,-y,1/2+z
1/2+x,1/2+y,z
1/2-x,-y,z
1/2+x,-y,1/2-z
1/2-x,1/2+y,1/2-z
1/2-x,1/2-y,-z
1/2+x,y,-z
1/2-x,y,1/2+z
1/2+x,1/2-y,1/2+z
loop_
_atom_site_type_symbol
_atom_site_label
_atom_site_fract_x
_atom_site_fract_y
_atom_site_fract_z
Si Si1 0.472793 0.153814 0.354191
Si Si2 0.684407 0.115452 0.339496
Si Si3 0.778401 0.413433 0.801558
Si Si4 0.500000 0.750000 0.076221
Si Si5 0.673083 0.240457 0.674035
Si Si6 0.940877 0.585418 0.495556
Si Si7 0.250000 0.000000 0.048128
O O1 0.500000 0.250000 0.354399
O O2 0.571253 0.114687 0.330385
O O3 0.382559 0.125190 0.313047
O O4 0.447685 0.120990 0.424372
O O5 0.733246 0.083584 0.274919
O O6 0.735135 0.203902 0.343963
O O7 0.702181 0.064820 0.403371
O O8 0.750000 0.500000 0.829188
O O9 0.704362 0.352011 0.832152
O O10 0.410312 0.754361 0.124231
O O11 0.515268 0.663589 0.036565
O O12 0.649413 0.250000 0.750000
O O13 0.832701 0.553349 0.512529
O O14 0.000000 0.500000 0.500000
#
# Coordination Sequence:
#
# PCOD9509251 Si02
#       7
#    16  16  16   8  16  16   8
#     4  12  25  45  68 102 138 181 232 279 340 415
#     4  11  22  46  69  97 137 183 221 281 350 411
#     4  11  25  41  69 107 138 175 228 288 345 409
#     4  12  25  46  70 100 137 186 232 288 342 410
#     4  10  23  42  69 102 142 178 225 281 351 413
#     4  12  28  45  68  99 137 183 235 281 344 415
#     4  12  24  46  70  96 140 180 224 284 348 408
#
# _framework density 20.095362000000002
#
# number of rings (size 3 to 8) (size 9 to 14) (size 15 to 20)
#    0.000    0.667    6.667    0.750    3.500    0.667 
#    0.000    5.000    0.000    0.000    0.000    0.000 
#    0.000    0.000    0.000    0.000    0.000    0.000 
#
# Total GULP energy -267358.421023 kJ/mol
# GULP energy per Si atom -5569.967105 kJ/mol
# Density = 2.004962 g / cm^3
# Si number density = 20.095362 Si / 1000 Ang^3
#
#
#
# Elastic Constant Matrix: (Units=GPa)
#
#
# Indices 1 2 3 4 5 6 
#
# 1 52.5686 15.7435 6.9679 0.0000 0.0000 0.0000
# 2 15.7435 151.9476 22.3309 0.0000 0.0000 0.0000
# 3 6.9679 22.3309 60.9958 0.0000 0.0000 0.0000
# 4 0.0000 0.0000 0.0000 -9.7905 0.0000 0.0000
# 5 0.0000 0.0000 0.0000 0.0000 26.0485 0.0000
# 6 0.0000 0.0000 0.0000 0.0000 0.0000 31.7884
#
#
#
# Elastic Compliance Matrix: (Units=1/GPa)
#
#
# Indices 1 2 3 4 5 6 
#
# 1 0.019778 -0.001815 -0.001595 0.000000 0.000000 0.000000
# 2 -0.001815 0.007122 -0.002400 0.000000 0.000000 0.000000
# 3 -0.001595 -0.002400 0.017455 0.000000 0.000000 0.000000
# 4 0.000000 0.000000 0.000000 -0.102140 0.000000 0.000000
# 5 0.000000 0.000000 0.000000 0.000000 0.038390 0.000000
# 6 0.000000 0.000000 0.000000 0.000000 0.000000 0.031458
#
#
# Mechanical properties :
#
#
# Convention : Reuss Voigt Hill
#
# Bulk Modulus (GPa) = 30.54785 39.51074 35.02930
# Shear Modulus (GPa) = 144.53296 24.30727 84.42012
#
# Velocity S-wave (km/s) = 8.48998 3.48170 6.48852
# Velocity P-wave (km/s) = 10.55181 5.98893 8.57928
#
# Compressibility (1/GPa) = 0.03273552
#
# Stress axis : x y z
#
# Youngs Moduli (GPa) = 50.56212 140.41047 57.28874
#
# Poissons Ratio (x) = 0.25482 0.09137
# Poissons Ratio (y) = 0.09176 0.13750
# Poissons Ratio (z) = 0.08064 0.33700
#
# Static dielectric constant tensor:
#      x y z
#    x 1.594800 0.000000 0.000000 
#    y 0.000000 1.717000 0.000000 
#    z 0.000000 0.000000 1.700990 
# 
# From -- ./inp_files/38600.got.cif
#   From: 2010.05.17/outbox.cif.g08.bks.cpg/sg68_20_cif.got.tgz:38600.got - 2010.06.03 18:57:09.
