data_PCOD9509666
_publ_section_title
;
Structure prediction by ZEFSAII (Michael W. Deem and Ramdas Pophale) SiO2 
 PCOD9509666
Probable space group: C C C A
;
_chemical_formula_sum "Si O2"
_cell_formula_units_Z 80
_cell_length_a 22.268361
_cell_length_b 17.486318
_cell_length_c 8.515340
_cell_angle_alpha 90.000000
_cell_angle_beta 90.000000
_cell_angle_gamma 90.000000
_cell_volume 3315.802223
_symmetry_space_group_name_H-M "C C C A"
_symmetry_group_IT_number 68
_space_group.IT_coordinate_system_code '2'
_symmetry_cell_setting 'orthorhombic'
loop_
_space_group_symop_operation_xyz
x,y,z
-x,1/2-y,z
x,1/2-y,1/2-z
-x,y,1/2-z
-x,-y,-z
x,1/2+y,-z
-x,1/2+y,1/2+z
x,-y,1/2+z
1/2+x,1/2+y,z
1/2-x,-y,z
1/2+x,-y,1/2-z
1/2-x,1/2+y,1/2-z
1/2-x,1/2-y,-z
1/2+x,y,-z
1/2-x,y,1/2+z
1/2+x,1/2-y,1/2+z
loop_
_atom_site_type_symbol
_atom_site_label
_atom_site_fract_x
_atom_site_fract_y
_atom_site_fract_z
Si Si1 0.328898 0.674881 0.542109
Si Si2 0.539160 0.148669 0.093240
Si Si3 0.681476 0.999808 0.938292
Si Si4 0.235089 0.750000 0.750000
Si Si5 0.000000 0.129638 0.250000
Si Si6 0.401393 0.993155 0.320147
O O1 0.396688 0.691286 0.594627
O O2 0.329903 0.588368 0.479525
O O3 0.280933 0.685962 0.682063
O O4 0.305402 0.724441 0.395879
O O5 0.500000 0.162569 0.250000
O O6 0.556364 0.056987 0.099292
O O7 0.509137 0.165781 0.923616
O O8 0.630717 0.966454 0.825411
O O9 0.750000 0.000000 0.891300
O O10 0.659533 0.960565 0.098370
O O11 0.057933 0.076411 0.271490
#
# Coordination Sequence:
#
# PCOD9509666 Si02
#       6
#    16  16  16   8   8  16
#     4  10  24  46  70  98 128 179 235 283 346 402
#     4  11  23  40  67 102 137 180 225 278 342 415
#     4  11  24  35  62 103 136 169 214 278 348 408
#     4  10  24  50  73  89 130 184 238 286 332 408
#     4  12  20  40  62  99 144 189 218 258 342 434
#     4  11  20  37  57  94 142 175 211 256 337 425
#
# _framework density 24.126892000000002
#
# number of rings (size 3 to 8) (size 9 to 14) (size 15 to 20)
#    0.000    1.200    5.000    2.400    8.400    0.000 
#    7.200    0.500    0.000    0.000    0.000    0.000 
#    0.000    0.000    0.000    0.000    0.000    0.000 
#
# Total GULP energy -223079.507381 kJ/mol
# GULP energy per Si atom -5576.987685 kJ/mol
# Density = 2.407198 g / cm^3
# Si number density = 24.126892 Si / 1000 Ang^3
#
#
#
# Elastic Constant Matrix: (Units=GPa)
#
#
# Indices 1 2 3 4 5 6 
#
# 1 180.9686 34.5845 78.5185 0.0000 0.0000 0.0000
# 2 34.5845 36.0287 35.1235 0.0000 0.0000 0.0000
# 3 78.5185 35.1235 124.9651 0.0000 0.0000 0.0000
# 4 0.0000 0.0000 0.0000 -13.3605 0.0000 0.0000
# 5 0.0000 0.0000 0.0000 0.0000 47.7082 0.0000
# 6 0.0000 0.0000 0.0000 0.0000 0.0000 53.7168
#
#
#
# Elastic Compliance Matrix: (Units=1/GPa)
#
#
# Indices 1 2 3 4 5 6 
#
# 1 0.007959 -0.003808 -0.003930 0.000000 0.000000 0.000000
# 2 -0.003808 0.040053 -0.008865 0.000000 0.000000 0.000000
# 3 -0.003930 -0.008865 0.012963 0.000000 0.000000 0.000000
# 4 0.000000 0.000000 0.000000 -0.074847 0.000000 0.000000
# 5 0.000000 0.000000 0.000000 0.000000 0.020961 0.000000
# 6 0.000000 0.000000 0.000000 0.000000 0.000000 0.018616
#
#
# Mechanical properties :
#
#
# Convention : Reuss Voigt Hill
#
# Bulk Modulus (GPa) = 36.01172 70.93502 53.47337
# Shear Modulus (GPa) = 73.34745 30.52862 51.93803
#
# Velocity S-wave (km/s) = 5.51966 3.56101 4.64476
# Velocity P-wave (km/s) = 7.45524 6.80973 7.13978
#
# Compressibility (1/GPa) = 0.02776874
#
# Stress axis : x y z
#
# Youngs Moduli (GPa) = 125.64507 24.96666 77.14008
#
# Poissons Ratio (x) = 0.09508 0.30319
# Poissons Ratio (y) = 0.47848 0.68384
# Poissons Ratio (z) = 0.49384 0.22133
#
# Static dielectric constant tensor:
#      x y z
#    x 1.956550 0.000000 0.000000 
#    y 0.000000 1.928970 0.000000 
#    z 0.000000 0.000000 2.148860 
# 
# From -- ./inp_files/7239.got.cif
#   From: 2010.05.17/outbox.cif.g08.bks.cpg/sg68_4_cif.got.tgz:7239.got - 2010.06.03 18:57:09.
