data_PCOD9509558
_publ_section_title
;
Structure prediction by ZEFSAII (Michael W. Deem and Ramdas Pophale) SiO2 
 PCOD9509558
Probable space group: C C C A
;
_chemical_formula_sum "Si O2"
_cell_formula_units_Z 88
_cell_length_a 10.029453
_cell_length_b 24.865038
_cell_length_c 15.538977
_cell_angle_alpha 90.000000
_cell_angle_beta 90.000000
_cell_angle_gamma 90.000000
_cell_volume 3875.152505
_symmetry_space_group_name_H-M "C C C A"
_symmetry_group_IT_number 68
_space_group.IT_coordinate_system_code '2'
_symmetry_cell_setting 'orthorhombic'
loop_
_space_group_symop_operation_xyz
x,y,z
-x,1/2-y,z
x,1/2-y,1/2-z
-x,y,1/2-z
-x,-y,-z
x,1/2+y,-z
-x,1/2+y,1/2+z
x,-y,1/2+z
1/2+x,1/2+y,z
1/2-x,-y,z
1/2+x,-y,1/2-z
1/2-x,1/2+y,1/2-z
1/2-x,1/2-y,-z
1/2+x,y,-z
1/2-x,y,1/2+z
1/2+x,1/2-y,1/2+z
loop_
_atom_site_type_symbol
_atom_site_label
_atom_site_fract_x
_atom_site_fract_y
_atom_site_fract_z
Si Si1 0.149424 0.966190 0.724125
Si Si2 0.377813 0.147169 0.686486
Si Si3 0.880633 0.971821 0.452952
Si Si4 0.055396 0.356195 0.020690
Si Si5 0.818870 0.706552 0.433656
Si Si6 0.219914 0.250000 0.750000
O O1 0.204712 0.906368 0.708175
O O2 0.000000 0.954784 0.750000
O O3 0.250000 0.000000 0.783134
O O4 0.124673 0.007194 0.644750
O O5 0.500000 0.155959 0.750000
O O6 0.448649 0.132731 0.596441
O O7 0.298561 0.202277 0.699029
O O8 0.901327 0.908577 0.466995
O O9 0.750000 0.000000 0.492093
O O10 0.000000 0.000000 0.500000
O O11 0.194293 0.335647 0.062621
O O12 0.963041 0.314504 0.966864
O O13 0.750000 0.750000 0.500000
O O14 0.843495 0.722324 0.334083
#
# Coordination Sequence:
#
# PCOD9509558 Si02
#       6
#    16  16  16  16  16   8
#     4  10  24  43  66 100 142 183 241 305 368 451
#     4  11  22  42  72 103 136 193 257 297 371 459
#     4  11  23  42  68 101 142 186 234 300 371 447
#     4  12  25  45  73 107 146 190 251 313 375 464
#     4  12  27  45  73 109 150 195 257 320 383 460
#     4  12  25  44  77 106 152 203 257 316 384 465
#
# _framework density 22.708784000000001
#
# number of rings (size 3 to 8) (size 9 to 14) (size 15 to 20)
#    0.000    0.727    5.455    1.909    2.545    2.182 
#    0.000    1.818    0.000    0.000    0.000    0.000 
#    0.000    0.000    0.000    0.000    0.000    0.000 
#
# Total GULP energy -244961.418282 kJ/mol
# GULP energy per Si atom -5567.304961 kJ/mol
# Density = 2.265710 g / cm^3
# Si number density = 22.708784 Si / 1000 Ang^3
#
#
#
# Elastic Constant Matrix: (Units=GPa)
#
#
# Indices 1 2 3 4 5 6 
#
# 1 100.7562 26.8554 1.0836 0.0000 0.0000 0.0000
# 2 26.8554 123.0318 6.9830 0.0000 0.0000 0.0000
# 3 1.0836 6.9830 81.2678 0.0000 0.0000 0.0000
# 4 0.0000 0.0000 0.0000 -33.2652 0.0000 0.0000
# 5 0.0000 0.0000 0.0000 0.0000 13.7036 0.0000
# 6 0.0000 0.0000 0.0000 0.0000 0.0000 30.1353
#
#
#
# Elastic Compliance Matrix: (Units=1/GPa)
#
#
# Indices 1 2 3 4 5 6 
#
# 1 0.010538 -0.002304 0.000057 0.000000 0.000000 0.000000
# 2 -0.002304 0.008671 -0.000714 0.000000 0.000000 0.000000
# 3 0.000057 -0.000714 0.012366 0.000000 0.000000 0.000000
# 4 0.000000 0.000000 0.000000 -0.030061 0.000000 0.000000
# 5 0.000000 0.000000 0.000000 0.000000 0.072974 0.000000
# 6 0.000000 0.000000 0.000000 0.000000 0.000000 0.033184
#
#
# Mechanical properties :
#
#
# Convention : Reuss Voigt Hill
#
# Bulk Modulus (GPa) = 38.97990 41.65553 40.31771
# Shear Modulus (GPa) = 40.93546 20.12366 30.52956
#
# Velocity S-wave (km/s) = 4.25034 2.98008 3.67058
# Velocity P-wave (km/s) = 6.42570 5.49766 5.97971
#
# Compressibility (1/GPa) = 0.02565425
#
# Stress axis : x y z
#
# Youngs Moduli (GPa) = 94.89183 115.32233 80.86940
#
# Poissons Ratio (x) = 0.26565 -0.00464
# Poissons Ratio (y) = 0.21859 0.05777
# Poissons Ratio (z) = -0.00545 0.08238
#
# Static dielectric constant tensor:
#      x y z
#    x 2.272070 0.000000 0.000000 
#    y 0.000000 2.061260 0.000000 
#    z 0.000000 0.000000 1.968410 
# 
# From -- ./inp_files/20983.got.cif
#   From: 2010.05.17/outbox.cif.g08.bks.cpg/sg68_11_cif.got.tgz:20983.got - 2010.06.03 18:57:09.
