data_PCOD9509176
_publ_section_title
;
Structure prediction by ZEFSAII (Michael W. Deem and Ramdas Pophale) SiO2 
 PCOD9509176
Probable space group: C C C A
;
_chemical_formula_sum "Si O2"
_cell_formula_units_Z 52
_cell_length_a 10.158729
_cell_length_b 16.842168
_cell_length_c 14.330718
_cell_angle_alpha 90.000000
_cell_angle_beta 90.000000
_cell_angle_gamma 90.000000
_cell_volume 2451.914490
_symmetry_space_group_name_H-M "C C C A"
_symmetry_group_IT_number 68
_space_group.IT_coordinate_system_code '2'
_symmetry_cell_setting 'orthorhombic'
loop_
_space_group_symop_operation_xyz
x,y,z
-x,1/2-y,z
x,1/2-y,1/2-z
-x,y,1/2-z
-x,-y,-z
x,1/2+y,-z
-x,1/2+y,1/2+z
x,-y,1/2+z
1/2+x,1/2+y,z
1/2-x,-y,z
1/2+x,-y,1/2-z
1/2-x,1/2+y,1/2-z
1/2-x,1/2-y,-z
1/2+x,y,-z
1/2-x,y,1/2+z
1/2+x,1/2-y,1/2+z
loop_
_atom_site_type_symbol
_atom_site_label
_atom_site_fract_x
_atom_site_fract_y
_atom_site_fract_z
Si Si1 0.936513 0.173065 0.909917
Si Si2 0.000000 0.250000 0.250000
Si Si3 0.609538 0.004034 0.318485
Si Si4 0.632952 0.346171 0.583277
O O1 0.934799 0.090709 0.852644
O O2 0.782342 0.181424 0.935727
O O3 0.000000 0.250000 0.859970
O O4 0.029263 0.166913 0.000844
O O5 0.086775 0.302904 0.321356
O O6 0.500000 0.972472 0.250000
O O7 0.750000 0.000000 0.267229
O O8 0.631310 0.940960 0.400551
#
# Coordination Sequence:
#
# PCOD9509176 Si02
#       4
#    16   4  16  16
#     4  11  24  41  67  96 131 169 221 267 329 391
#     4  12  24  40  74  88 128 164 218 268 328 384
#     4  10  23  41  64  97 132 172 219 272 328 389
#     4  11  24  44  66  96 130 173 217 271 329 390
#
# _framework density 21.207916000000001
#
# number of rings (size 3 to 8) (size 9 to 14) (size 15 to 20)
#    0.000    1.231    3.077    1.846    0.000    8.000 
#    0.000    0.000    0.000    0.000    0.000    0.000 
#    0.000    0.000    0.000    0.000    0.000    0.000 
#
# Total GULP energy -145029.146957 kJ/mol
# GULP energy per Si atom -5578.044114 kJ/mol
# Density = 2.115965 g / cm^3
# Si number density = 21.207916 Si / 1000 Ang^3
#
#
#
# Elastic Constant Matrix: (Units=GPa)
#
#
# Indices 1 2 3 4 5 6 
#
# 1 213.9233 55.2925 64.7006 0.0000 0.0000 0.0000
# 2 55.2925 162.4432 18.3029 0.0000 0.0000 0.0000
# 3 64.7006 18.3029 67.0142 0.0000 0.0000 0.0000
# 4 0.0000 0.0000 0.0000 23.6511 0.0000 0.0000
# 5 0.0000 0.0000 0.0000 0.0000 22.8701 0.0000
# 6 0.0000 0.0000 0.0000 0.0000 0.0000 38.1031
#
#
#
# Elastic Compliance Matrix: (Units=1/GPa)
#
#
# Indices 1 2 3 4 5 6 
#
# 1 0.007019 -0.001677 -0.006319 0.000000 0.000000 0.000000
# 2 -0.001677 0.006752 -0.000225 0.000000 0.000000 0.000000
# 3 -0.006319 -0.000225 0.021084 0.000000 0.000000 0.000000
# 4 0.000000 0.000000 0.000000 0.042281 0.000000 0.000000
# 5 0.000000 0.000000 0.000000 0.000000 0.043725 0.000000
# 6 0.000000 0.000000 0.000000 0.000000 0.000000 0.026245
#
#
# Mechanical properties :
#
#
# Convention : Reuss Voigt Hill
#
# Bulk Modulus (GPa) = 54.30660 79.99698 67.15179
# Shear Modulus (GPa) = 29.46612 37.26384 33.36498
#
# Velocity S-wave (km/s) = 3.73150 4.19629 3.97070
# Velocity P-wave (km/s) = 6.65040 7.82820 7.26321
#
# Compressibility (1/GPa) = 0.01841397
#
# Stress axis : x y z
#
# Youngs Moduli (GPa) = 142.46680 148.09925 47.42881
#
# Poissons Ratio (x) = 0.24840 0.29969
# Poissons Ratio (y) = 0.23895 0.01066
# Poissons Ratio (z) = 0.90021 0.03330
#
# Static dielectric constant tensor:
#      x y z
#    x 1.799860 0.000000 0.000000 
#    y 0.000000 1.857260 0.000000 
#    z 0.000000 0.000000 1.736140 
# 
# From -- ./inp_files/24087.got.cif
#   From: 2010.05.17/outbox.cif.g08.bks.cpg/sg68_13_cif.got.tgz:24087.got - 2010.06.03 18:57:09.
