data_PCOD9509997
_publ_section_title
;
Structure prediction by ZEFSAII (Michael W. Deem and Ramdas Pophale) SiO2 
 PCOD9509997
Probable space group: C C C A
;
_chemical_formula_sum "Si O2"
_cell_formula_units_Z 116
_cell_length_a 16.608629
_cell_length_b 17.167637
_cell_length_c 17.867913
_cell_angle_alpha 90.000000
_cell_angle_beta 90.000000
_cell_angle_gamma 90.000000
_cell_volume 5094.694360
_symmetry_space_group_name_H-M "C C C A"
_symmetry_group_IT_number 68
_space_group.IT_coordinate_system_code '2'
_symmetry_cell_setting 'orthorhombic'
loop_
_space_group_symop_operation_xyz
x,y,z
-x,1/2-y,z
x,1/2-y,1/2-z
-x,y,1/2-z
-x,-y,-z
x,1/2+y,-z
-x,1/2+y,1/2+z
x,-y,1/2+z
1/2+x,1/2+y,z
1/2-x,-y,z
1/2+x,-y,1/2-z
1/2-x,1/2+y,1/2-z
1/2-x,1/2-y,-z
1/2+x,y,-z
1/2-x,y,1/2+z
1/2+x,1/2-y,1/2+z
loop_
_atom_site_type_symbol
_atom_site_label
_atom_site_fract_x
_atom_site_fract_y
_atom_site_fract_z
Si Si1 0.719950 0.356515 0.606460
Si Si2 0.954763 0.828416 0.949872
Si Si3 0.055745 0.861993 0.380616
Si Si4 0.736683 0.817057 0.625678
Si Si5 0.188678 0.066978 0.481327
Si Si6 0.500000 0.250000 0.250000
Si Si7 0.550026 0.035544 0.621085
Si Si8 0.310454 0.927231 0.261419
O O1 0.642084 0.330461 0.557822
O O2 0.764306 0.275585 0.625546
O O3 0.784373 0.410782 0.564055
O O4 0.683909 0.404851 0.675256
O O5 0.000000 0.750000 0.923988
O O6 0.986327 0.898588 0.898047
O O7 0.977033 0.837805 0.037756
O O8 0.151921 0.858181 0.389308
O O9 0.042954 0.806812 0.309289
O O10 0.022041 0.947960 0.365099
O O11 0.796877 0.852905 0.563729
O O12 0.769878 0.851155 0.702398
O O13 0.103193 0.034862 0.455927
O O14 0.250000 0.000000 0.455064
O O15 0.609149 0.056679 0.690372
O O16 0.250000 0.000000 0.270834
#
# Coordination Sequence:
#
# PCOD9509997 Si02
#       8
#    16  16  16  16  16   4  16  16
#     4  12  26  39  70 111 141 185 246 306 363 432
#     4  12  26  46  69 107 151 191 246 300 371 452
#     4  12  25  48  69 102 142 195 247 297 369 442
#     4  11  22  42  68  95 136 184 235 298 352 421
#     4  11  20  41  69 101 128 181 242 299 353 419
#     4  12  32  44  72 108 150 186 238 312 376 440
#     4  11  24  46  75  98 147 200 238 301 375 446
#     4  11  23  44  68 104 139 184 246 301 363 426
#
# _framework density 22.768785000000001
#
# number of rings (size 3 to 8) (size 9 to 14) (size 15 to 20)
#    0.000    0.552    4.828    4.138    3.862    1.655 
#    0.000    0.690    0.000    0.000    0.000    0.000 
#    0.000    0.000    0.000    0.000    0.000    0.000 
#
# Total GULP energy -324051.121317 kJ/mol
# GULP energy per Si atom -5587.088299 kJ/mol
# Density = 2.271696 g / cm^3
# Si number density = 22.768785 Si / 1000 Ang^3
#
#
#
# Elastic Constant Matrix: (Units=GPa)
#
#
# Indices 1 2 3 4 5 6 
#
# 1 10.4833 4.2452 0.0420 0.0000 0.0000 0.0000
# 2 4.2452 126.1194 33.0284 0.0000 0.0000 0.0000
# 3 0.0420 33.0284 123.5119 0.0000 0.0000 0.0000
# 4 0.0000 0.0000 0.0000 20.6856 0.0000 0.0000
# 5 0.0000 0.0000 0.0000 0.0000 13.6586 0.0000
# 6 0.0000 0.0000 0.0000 0.0000 0.0000 30.9611
#
#
#
# Elastic Compliance Matrix: (Units=1/GPa)
#
#
# Indices 1 2 3 4 5 6 
#
# 1 0.096801 -0.003494 0.000902 0.000000 0.000000 0.000000
# 2 -0.003494 0.008652 -0.002313 0.000000 0.000000 0.000000
# 3 0.000902 -0.002313 0.008714 0.000000 0.000000 0.000000
# 4 0.000000 0.000000 0.000000 0.048343 0.000000 0.000000
# 5 0.000000 0.000000 0.000000 0.000000 0.073214 0.000000
# 6 0.000000 0.000000 0.000000 0.000000 0.000000 0.032299
#
#
# Mechanical properties :
#
#
# Convention : Reuss Voigt Hill
#
# Bulk Modulus (GPa) = 9.58251 37.19398 23.38825
# Shear Modulus (GPa) = 15.99388 27.91432 21.95410
#
# Velocity S-wave (km/s) = 2.65325 3.50521 3.10856
# Velocity P-wave (km/s) = 3.68837 5.72302 4.81441
#
# Compressibility (1/GPa) = 0.10435677
#
# Stress axis : x y z
#
# Youngs Moduli (GPa) = 10.33048 115.57720 114.75170
#
# Poissons Ratio (x) = 0.40388 -0.10345
# Poissons Ratio (y) = 0.03610 0.26536
# Poissons Ratio (z) = -0.00931 0.26727
#
# Static dielectric constant tensor:
#      x y z
#    x 1.870440 0.000000 0.000000 
#    y 0.000000 1.843470 0.000000 
#    z 0.000000 0.000000 1.883040 
# 
# From -- ./inp_files/32161.got.cif
#   From: 2010.05.17/outbox.cif.g08.bks.cpg/sg68_17_cif.got.tgz:32161.got - 2010.06.03 18:57:09.
