data_PCOD9509658
_publ_section_title
;
Structure prediction by ZEFSAII (Michael W. Deem and Ramdas Pophale) SiO2 
 PCOD9509658
Probable space group: C C C A
;
_chemical_formula_sum "Si O2"
_cell_formula_units_Z 88
_cell_length_a 18.096728
_cell_length_b 9.865394
_cell_length_c 21.051445
_cell_angle_alpha 90.000000
_cell_angle_beta 90.000000
_cell_angle_gamma 90.000000
_cell_volume 3758.342934
_symmetry_space_group_name_H-M "C C C A"
_symmetry_group_IT_number 68
_space_group.IT_coordinate_system_code '2'
_symmetry_cell_setting 'orthorhombic'
loop_
_space_group_symop_operation_xyz
x,y,z
-x,1/2-y,z
x,1/2-y,1/2-z
-x,y,1/2-z
-x,-y,-z
x,1/2+y,-z
-x,1/2+y,1/2+z
x,-y,1/2+z
1/2+x,1/2+y,z
1/2-x,-y,z
1/2+x,-y,1/2-z
1/2-x,1/2+y,1/2-z
1/2-x,1/2-y,-z
1/2+x,y,-z
1/2-x,y,1/2+z
1/2+x,1/2-y,1/2+z
loop_
_atom_site_type_symbol
_atom_site_label
_atom_site_fract_x
_atom_site_fract_y
_atom_site_fract_z
Si Si1 0.949387 0.373889 0.519532
Si Si2 0.250000 0.500000 0.395137
Si Si3 0.346899 0.601546 0.779744
Si Si4 0.356383 0.225313 0.578144
Si Si5 0.375623 0.368474 0.697085
Si Si6 0.030837 0.517190 0.855758
O O1 0.877855 0.329287 0.478486
O O2 0.951393 0.396838 0.594336
O O3 0.000000 0.250000 0.504229
O O4 0.000000 0.500000 0.500000
O O5 0.302042 0.418412 0.345303
O O6 0.298937 0.604553 0.436115
O O7 0.343563 0.750000 0.750000
O O8 0.327993 0.484109 0.730027
O O9 0.429176 0.544734 0.794912
O O10 0.328884 0.306132 0.639401
O O11 0.425337 0.143079 0.611345
O O12 0.392507 0.250000 0.750000
O O13 0.449302 0.431415 0.662822
#
# Coordination Sequence:
#
# PCOD9509658 Si02
#       6
#    16   8  16  16  16  16
#     4  12  23  41  68  97 141 173 232 304 370 436
#     4  10  24  46  68  88 138 188 248 280 342 440
#     4  11  27  40  62  99 140 176 225 289 355 429
#     4  11  23  42  66  99 132 192 238 289 357 442
#     4  12  22  38  68 100 135 179 224 285 374 448
#     4  11  24  39  66 101 136 172 228 290 366 436
#
# _framework density 23.414574000000002
#
# number of rings (size 3 to 8) (size 9 to 14) (size 15 to 20)
#    0.000    0.727    7.273    1.091    7.636    0.727 
#    0.000    3.636    0.000    0.000    0.000    0.000 
#    0.000    0.000    0.000    0.000    0.000    0.000 
#
# Total GULP energy -245077.124361 kJ/mol
# GULP energy per Si atom -5569.934645 kJ/mol
# Density = 2.336128 g / cm^3
# Si number density = 23.414574 Si / 1000 Ang^3
#
#
#
# Elastic Constant Matrix: (Units=GPa)
#
#
# Indices 1 2 3 4 5 6 
#
# 1 97.9348 42.0118 29.1056 0.0000 0.0000 0.0000
# 2 42.0118 162.3605 46.3797 0.0000 0.0000 0.0000
# 3 29.1056 46.3797 91.3895 0.0000 0.0000 0.0000
# 4 0.0000 0.0000 0.0000 43.7978 0.0000 0.0000
# 5 0.0000 0.0000 0.0000 0.0000 13.9348 0.0000
# 6 0.0000 0.0000 0.0000 0.0000 0.0000 20.6791
#
#
#
# Elastic Compliance Matrix: (Units=1/GPa)
#
#
# Indices 1 2 3 4 5 6 
#
# 1 0.012002 -0.002355 -0.002627 0.000000 0.000000 0.000000
# 2 -0.002355 0.007666 -0.003140 0.000000 0.000000 0.000000
# 3 -0.002627 -0.003140 0.013372 0.000000 0.000000 0.000000
# 4 0.000000 0.000000 0.000000 0.022832 0.000000 0.000000
# 5 0.000000 0.000000 0.000000 0.000000 0.071763 0.000000
# 6 0.000000 0.000000 0.000000 0.000000 0.000000 0.048358
#
#
# Mechanical properties :
#
#
# Convention : Reuss Voigt Hill
#
# Bulk Modulus (GPa) = 59.54116 65.18655 62.36385
# Shear Modulus (GPa) = 25.27344 31.29486 28.28415
#
# Velocity S-wave (km/s) = 3.28897 3.65986 3.47936
# Velocity P-wave (km/s) = 6.31723 6.76462 6.54475
#
# Compressibility (1/GPa) = 0.01679510
#
# Stress axis : x y z
#
# Youngs Moduli (GPa) = 83.31986 130.45382 74.78043
#
# Poissons Ratio (x) = 0.30723 0.19646
# Poissons Ratio (y) = 0.19623 0.23482
# Poissons Ratio (z) = 0.21889 0.40965
#
# Static dielectric constant tensor:
#      x y z
#    x 2.009590 0.000000 0.000000 
#    y 0.000000 1.888890 0.000000 
#    z 0.000000 0.000000 2.098760 
# 
# From -- ./inp_files/46484.got.cif
#   From: 2010.05.17/outbox.cif.g08.bks.cpg/sg68_24_cif.got.tgz:46484.got - 2010.06.03 18:57:09.
