data_PCOD9509449
_publ_section_title
;
Structure prediction by ZEFSAII (Michael W. Deem and Ramdas Pophale) SiO2 
 PCOD9509449
Probable space group: C C C A
;
_chemical_formula_sum "Si O2"
_cell_formula_units_Z 68
_cell_length_a 21.405647
_cell_length_b 4.776662
_cell_length_c 29.253274
_cell_angle_alpha 90.000000
_cell_angle_beta 90.000000
_cell_angle_gamma 90.000000
_cell_volume 2991.075321
_symmetry_space_group_name_H-M "C C C A"
_symmetry_group_IT_number 68
_space_group.IT_coordinate_system_code '2'
_symmetry_cell_setting 'orthorhombic'
loop_
_space_group_symop_operation_xyz
x,y,z
-x,1/2-y,z
x,1/2-y,1/2-z
-x,y,1/2-z
-x,-y,-z
x,1/2+y,-z
-x,1/2+y,1/2+z
x,-y,1/2+z
1/2+x,1/2+y,z
1/2-x,-y,z
1/2+x,-y,1/2-z
1/2-x,1/2+y,1/2-z
1/2-x,1/2-y,-z
1/2+x,y,-z
1/2-x,y,1/2+z
1/2+x,1/2-y,1/2+z
loop_
_atom_site_type_symbol
_atom_site_label
_atom_site_fract_x
_atom_site_fract_y
_atom_site_fract_z
Si Si1 0.093188 0.250000 0.750000
Si Si2 0.157481 0.346020 0.031349
Si Si3 0.500000 0.750000 0.250000
Si Si4 0.635038 0.123280 0.347908
Si Si5 0.250000 0.500000 0.905742
Si Si6 0.931303 0.128498 0.111583
O O1 0.049840 0.512592 0.733340
O O2 0.133037 0.174920 0.705685
O O3 0.211411 0.217884 0.063112
O O4 0.093999 0.318653 0.060369
O O5 0.160757 0.664253 0.014875
O O6 0.700257 0.160348 0.373804
O O7 0.582654 0.311339 0.373774
O O8 0.614460 0.805792 0.356196
O O9 0.000000 0.250000 0.117928
#
# Coordination Sequence:
#
# PCOD9509449 Si02
#       6
#     8  16   4  16   8  16
#     4  11  24  42  67 102 129 182 219 268 334 392
#     4  11  23  41  68  93 126 173 223 274 332 398
#     4  10  24  38  66  98 134 158 228 274 310 402
#     4  11  25  42  68  95 136 174 223 270 331 393
#     4  10  24  46  64  98 130 172 224 278 326 394
#     4  11  25  42  64  99 135 172 215 280 338 396
#
# _framework density 22.734297999999999
#
# number of rings (size 3 to 8) (size 9 to 14) (size 15 to 20)
#    0.000    1.176    0.000    5.647    9.882    8.471 
#    0.000    5.882    0.000    0.000    0.000    0.000 
#    0.000    0.000    0.000    0.000    0.000    0.000 
#
# Total GULP energy -189921.502835 kJ/mol
# GULP energy per Si atom -5585.926554 kJ/mol
# Density = 2.268255 g / cm^3
# Si number density = 22.734298 Si / 1000 Ang^3
#
#
#
# Elastic Constant Matrix: (Units=GPa)
#
#
# Indices 1 2 3 4 5 6 
#
# 1 59.6095 -16.2895 29.4491 0.0000 0.0000 0.0000
# 2 -16.2895 78.3212 -6.2592 0.0000 0.0000 0.0000
# 3 29.4491 -6.2592 120.7118 0.0000 0.0000 0.0000
# 4 0.0000 0.0000 0.0000 27.7468 0.0000 0.0000
# 5 0.0000 0.0000 0.0000 0.0000 -119.2631 0.0000
# 6 0.0000 0.0000 0.0000 0.0000 0.0000 32.3440
#
#
#
# Elastic Compliance Matrix: (Units=1/GPa)
#
#
# Indices 1 2 3 4 5 6 
#
# 1 0.020149 0.003814 -0.004718 0.000000 0.000000 0.000000
# 2 0.003814 0.013543 -0.000228 0.000000 0.000000 0.000000
# 3 -0.004718 -0.000228 0.009423 0.000000 0.000000 0.000000
# 4 0.000000 0.000000 0.000000 0.036040 0.000000 0.000000
# 5 0.000000 0.000000 0.000000 0.000000 -0.008385 0.000000
# 6 0.000000 0.000000 0.000000 0.000000 0.000000 0.030918
#
#
# Mechanical properties :
#
#
# Convention : Reuss Voigt Hill
#
# Bulk Modulus (GPa) = 24.47969 30.27148 27.37559
# Shear Modulus (GPa) = 42.52809 4.94835 23.73822
#
# Velocity S-wave (km/s) = 4.32980 1.47693 3.23485
# Velocity P-wave (km/s) = 5.98225 4.03146 5.10098
#
# Compressibility (1/GPa) = 0.04085019
#
# Stress axis : x y z
#
# Youngs Moduli (GPa) = 49.63096 73.83964 106.11960
#
# Poissons Ratio (x) = -0.28159 0.50065
# Poissons Ratio (y) = -0.18927 0.02421
# Poissons Ratio (z) = 0.23415 0.01685
#
# Static dielectric constant tensor:
#      x y z
#    x 1.834270 0.000000 0.000000 
#    y 0.000000 1.816880 0.000000 
#    z 0.000000 0.000000 1.846190 
# 
# From -- ./inp_files/51641.got.cif
#   From: 2010.05.17/outbox.cif.g08.bks.cpg/sg68_26_cif.got.tgz:51641.got - 2010.06.03 18:57:09.
