data_PCOD9509757
_publ_section_title
;
Structure prediction by ZEFSAII (Michael W. Deem and Ramdas Pophale) SiO2 
 PCOD9509757
Probable space group: C C C A
;
_chemical_formula_sum "Si O2"
_cell_formula_units_Z 108
_cell_length_a 24.010783
_cell_length_b 13.734895
_cell_length_c 14.771366
_cell_angle_alpha 90.000000
_cell_angle_beta 90.000000
_cell_angle_gamma 90.000000
_cell_volume 4871.383554
_symmetry_space_group_name_H-M "C C C A"
_symmetry_group_IT_number 68
_space_group.IT_coordinate_system_code '2'
_symmetry_cell_setting 'orthorhombic'
loop_
_space_group_symop_operation_xyz
x,y,z
-x,1/2-y,z
x,1/2-y,1/2-z
-x,y,1/2-z
-x,-y,-z
x,1/2+y,-z
-x,1/2+y,1/2+z
x,-y,1/2+z
1/2+x,1/2+y,z
1/2-x,-y,z
1/2+x,-y,1/2-z
1/2-x,1/2+y,1/2-z
1/2-x,1/2-y,-z
1/2+x,y,-z
1/2-x,y,1/2+z
1/2+x,1/2-y,1/2+z
loop_
_atom_site_type_symbol
_atom_site_label
_atom_site_fract_x
_atom_site_fract_y
_atom_site_fract_z
Si Si1 0.338385 0.750000 0.750000
Si Si2 0.867419 0.090218 0.513557
Si Si3 0.361373 0.886328 0.382626
Si Si4 0.911366 0.904342 0.809946
Si Si5 0.944427 0.377587 0.694687
Si Si6 0.237040 0.113787 0.880321
Si Si7 0.560512 0.229260 0.488513
Si Si8 0.500000 0.750000 0.250000
O O1 0.384121 0.829707 0.716644
O O2 0.297062 0.815068 0.813072
O O3 0.882204 0.086442 0.407699
O O4 0.802653 0.111339 0.532107
O O5 0.907543 0.175937 0.550394
O O6 0.874750 0.991155 0.571350
O O7 0.370702 0.887280 0.275236
O O8 0.298817 0.851862 0.401680
O O9 0.401678 0.813723 0.433622
O O10 0.958605 0.822487 0.803328
O O11 0.938935 0.008269 0.793161
O O12 0.951041 0.347481 0.590784
O O13 0.000000 0.348101 0.750000
O O14 0.250000 0.000000 0.849581
O O15 0.500000 0.250000 0.524646
#
# Coordination Sequence:
#
# PCOD9509757 Si02
#       8
#     8  16  16  16  16  16  16   4
#     4  12  23  47  80 116 152 208 258 328 396 450
#     4  11  25  50  74 108 153 203 262 320 389 464
#     4  11  27  51  73 111 154 200 262 320 390 462
#     4  12  27  48  78 112 156 211 254 325 390 477
#     4  12  25  46  76 119 156 198 262 322 393 465
#     4  10  24  49  76 110 154 197 263 328 377 471
#     4  12  27  44  74 110 147 199 252 320 389 468
#     4  12  28  50  72 114 154 210 256 296 402 486
#
# _framework density 22.170292
#
# number of rings (size 3 to 8) (size 9 to 14) (size 15 to 20)
#    0.000    0.593    3.704    3.778    6.222    2.963 
#    2.667    3.704    0.000    0.000    0.000    0.000 
#    0.000    0.000    0.000    0.000    0.000    0.000 
#
# Total GULP energy -301656.683807 kJ/mol
# GULP energy per Si atom -5586.234885 kJ/mol
# Density = 2.211983 g / cm^3
# Si number density = 22.170292 Si / 1000 Ang^3
#
#
#
# Elastic Constant Matrix: (Units=GPa)
#
#
# Indices 1 2 3 4 5 6 
#
# 1 182.0102 57.9961 41.1274 0.0000 0.0000 0.0000
# 2 57.9961 113.4773 11.1889 0.0000 0.0000 0.0000
# 3 41.1274 11.1889 73.5694 0.0000 0.0000 0.0000
# 4 0.0000 0.0000 0.0000 37.7048 0.0000 0.0000
# 5 0.0000 0.0000 0.0000 0.0000 39.8208 0.0000
# 6 0.0000 0.0000 0.0000 0.0000 0.0000 73.6548
#
#
#
# Elastic Compliance Matrix: (Units=1/GPa)
#
#
# Indices 1 2 3 4 5 6 
#
# 1 0.007404 -0.003427 -0.003618 0.000000 0.000000 0.000000
# 2 -0.003427 0.010533 0.000314 0.000000 0.000000 0.000000
# 3 -0.003618 0.000314 0.015567 0.000000 0.000000 0.000000
# 4 0.000000 0.000000 0.000000 0.026522 0.000000 0.000000
# 5 0.000000 0.000000 0.000000 0.000000 0.025113 0.000000
# 6 0.000000 0.000000 0.000000 0.000000 0.000000 0.013577
#
#
# Mechanical properties :
#
#
# Convention : Reuss Voigt Hill
#
# Bulk Modulus (GPa) = 49.89486 65.52020 57.70753
# Shear Modulus (GPa) = 42.06718 47.48570 44.77644
#
# Velocity S-wave (km/s) = 4.36071 4.63305 4.49894
# Velocity P-wave (km/s) = 6.92160 7.63135 7.28512
#
# Compressibility (1/GPa) = 0.02004215
#
# Stress axis : x y z
#
# Youngs Moduli (GPa) = 135.06775 94.94019 64.23753
#
# Poissons Ratio (x) = 0.32538 0.23239
# Poissons Ratio (y) = 0.46290 -0.02017
# Poissons Ratio (z) = 0.48863 -0.02981
#
# Static dielectric constant tensor:
#      x y z
#    x 1.818620 0.000000 0.000000 
#    y 0.000000 1.937890 0.000000 
#    z 0.000000 0.000000 2.064810 
# 
# From -- ./inp_files/25518.got.cif
#   From: 2010.05.17/outbox.cif.g08.bks.cpg/sg68_13_cif.got.tgz:25518.got - 2010.06.03 18:57:09.
