data_PCOD9509265
_publ_section_title
;
Structure prediction by ZEFSAII (Michael W. Deem and Ramdas Pophale) SiO2 
 PCOD9509265
Probable space group: C C C A
;
_chemical_formula_sum "Si O2"
_cell_formula_units_Z 68
_cell_length_a 17.966553
_cell_length_b 7.506696
_cell_length_c 22.860834
_cell_angle_alpha 90.000000
_cell_angle_beta 90.000000
_cell_angle_gamma 90.000000
_cell_volume 3083.228143
_symmetry_space_group_name_H-M "C C C A"
_symmetry_group_IT_number 68
_space_group.IT_coordinate_system_code '2'
_symmetry_cell_setting 'orthorhombic'
loop_
_space_group_symop_operation_xyz
x,y,z
-x,1/2-y,z
x,1/2-y,1/2-z
-x,y,1/2-z
-x,-y,-z
x,1/2+y,-z
-x,1/2+y,1/2+z
x,-y,1/2+z
1/2+x,1/2+y,z
1/2-x,-y,z
1/2+x,-y,1/2-z
1/2-x,1/2+y,1/2-z
1/2-x,1/2-y,-z
1/2+x,y,-z
1/2-x,y,1/2+z
1/2+x,1/2-y,1/2+z
loop_
_atom_site_type_symbol
_atom_site_label
_atom_site_fract_x
_atom_site_fract_y
_atom_site_fract_z
Si Si1 0.423758 0.504922 0.657380
Si Si2 0.000000 0.750000 0.750000
Si Si3 0.319002 0.820470 0.687939
Si Si4 0.168989 0.332494 0.371580
Si Si5 0.466987 0.445154 0.937635
O O1 0.455105 0.383178 0.708801
O O2 0.384963 0.684103 0.677469
O O3 0.363226 0.366765 0.630737
O O4 0.489671 0.549780 0.612620
O O5 0.286134 0.750000 0.750000
O O6 0.257678 0.808911 0.635898
O O7 0.344419 0.027099 0.682702
O O8 0.121277 0.428025 0.423847
O O9 0.500000 0.250000 0.927607
O O10 0.500000 0.500000 0.000000
#
# Coordination Sequence:
#
# PCOD9509265 Si02
#       5
#    16   4  16  16  16
#     4  11  23  41  63  96 134 179 219 288 345 411
#     4  12  20  40  66  96 152 166 236 292 350 436
#     4  11  25  37  67  95 136 180 213 276 345 432
#     4  10  23  43  59  97 129 173 231 268 345 415
#     4  10  23  44  69  91 129 175 229 292 339 397
#
# _framework density 22.054807
#
# number of rings (size 3 to 8) (size 9 to 14) (size 15 to 20)
#    0.000    1.412    3.529    2.118   11.529    0.000 
#    0.000    1.176    5.176    0.000    0.000    0.000 
#    0.000    0.000    0.000    0.000    0.000    0.000 
#
# Total GULP energy -189306.864845 kJ/mol
# GULP energy per Si atom -5567.848966 kJ/mol
# Density = 2.200461 g / cm^3
# Si number density = 22.054807 Si / 1000 Ang^3
#
#
#
# Elastic Constant Matrix: (Units=GPa)
#
#
# Indices 1 2 3 4 5 6 
#
# 1 91.3909 7.8704 43.9713 0.0000 0.0000 0.0000
# 2 7.8704 111.8933 1.6641 0.0000 0.0000 0.0000
# 3 43.9713 1.6641 88.5677 0.0000 0.0000 0.0000
# 4 0.0000 0.0000 0.0000 25.1508 0.0000 0.0000
# 5 0.0000 0.0000 0.0000 0.0000 26.6438 0.0000
# 6 0.0000 0.0000 0.0000 0.0000 0.0000 44.2352
#
#
#
# Elastic Compliance Matrix: (Units=1/GPa)
#
#
# Indices 1 2 3 4 5 6 
#
# 1 0.014468 -0.000911 -0.007166 0.000000 0.000000 0.000000
# 2 -0.000911 0.008997 0.000283 0.000000 0.000000 0.000000
# 3 -0.007166 0.000283 0.014843 0.000000 0.000000 0.000000
# 4 0.000000 0.000000 0.000000 0.039760 0.000000 0.000000
# 5 0.000000 0.000000 0.000000 0.000000 0.037532 0.000000
# 6 0.000000 0.000000 0.000000 0.000000 0.000000 0.022606
#
#
# Mechanical properties :
#
#
# Convention : Reuss Voigt Hill
#
# Bulk Modulus (GPa) = 44.01244 44.31817 44.16531
# Shear Modulus (GPa) = 30.98503 35.09571 33.04037
#
# Velocity S-wave (km/s) = 3.75228 3.99343 3.87473
# Velocity P-wave (km/s) = 6.22672 6.43440 6.33141
#
# Compressibility (1/GPa) = 0.02272085
#
# Stress axis : x y z
#
# Youngs Moduli (GPa) = 69.11680 111.14867 67.37109
#
# Poissons Ratio (x) = 0.10127 0.48278
# Poissons Ratio (y) = 0.06297 -0.01909
# Poissons Ratio (z) = 0.49529 -0.03149
#
# Static dielectric constant tensor:
#      x y z
#    x 1.970050 0.000000 0.000000 
#    y 0.000000 1.819620 0.000000 
#    z 0.000000 0.000000 1.696310 
# 
# From -- ./inp_files/39183.got.cif
#   From: 2010.05.17/outbox.cif.g08.bks.cpg/sg68_20_cif.got.tgz:39183.got - 2010.06.03 18:57:09.
