data_PCOD9509737
_publ_section_title
;
Structure prediction by ZEFSAII (Michael W. Deem and Ramdas Pophale) SiO2 
 PCOD9509737
Probable space group: C C C A
;
_chemical_formula_sum "Si O2"
_cell_formula_units_Z 48
_cell_length_a 11.426586
_cell_length_b 7.514041
_cell_length_c 21.512437
_cell_angle_alpha 90.000000
_cell_angle_beta 90.000000
_cell_angle_gamma 90.000000
_cell_volume 1847.054306
_symmetry_space_group_name_H-M "C C C A"
_symmetry_group_IT_number 68
_space_group.IT_coordinate_system_code '2'
_symmetry_cell_setting 'orthorhombic'
loop_
_space_group_symop_operation_xyz
x,y,z
-x,1/2-y,z
x,1/2-y,1/2-z
-x,y,1/2-z
-x,-y,-z
x,1/2+y,-z
-x,1/2+y,1/2+z
x,-y,1/2+z
1/2+x,1/2+y,z
1/2-x,-y,z
1/2+x,-y,1/2-z
1/2-x,1/2+y,1/2-z
1/2-x,1/2-y,-z
1/2+x,y,-z
1/2-x,y,1/2+z
1/2+x,1/2-y,1/2+z
loop_
_atom_site_type_symbol
_atom_site_label
_atom_site_fract_x
_atom_site_fract_y
_atom_site_fract_z
Si Si1 0.655874 0.650535 0.313792
Si Si2 0.501858 0.952657 0.086564
Si Si3 0.692513 0.754197 0.932911
O O1 0.640774 0.750000 0.250000
O O2 0.750000 0.500000 0.299292
O O3 0.534459 0.572591 0.340821
O O4 0.718333 0.745781 0.373941
O O5 0.500000 0.750000 0.059967
O O6 0.389456 0.072888 0.074524
O O7 0.610316 0.078039 0.067067
O O8 0.750000 0.750000 0.000000
#
# Coordination Sequence:
#
# PCOD9509737 Si02
#       3
#    16  16  16
#     4  10  24  48  74 112 160 213 272 337 413 491
#     4  10  24  48  77 121 152 211 276 336 410 494
#     4  10  24  51  79 112 168 214 268 346 415 493
#
# _framework density 25.987324000000001
#
# number of rings (size 3 to 8) (size 9 to 14) (size 15 to 20)
#    0.000    2.000    0.000    0.000    4.667    3.333 
#   30.000    1.667    0.000    0.000    8.667    0.000 
#    0.000    0.000    0.000    0.000    0.000    0.000 
#
# Total GULP energy -134495.415620 kJ/mol
# GULP energy per Si atom -5603.975651 kJ/mol
# Density = 2.592818 g / cm^3
# Si number density = 25.987324 Si / 1000 Ang^3
#
#
#
# Elastic Constant Matrix: (Units=GPa)
#
#
# Indices 1 2 3 4 5 6 
#
# 1 158.3297 80.4346 118.8026 0.0000 0.0000 0.0000
# 2 80.4346 229.2647 103.7968 0.0000 0.0000 0.0000
# 3 118.8026 103.7968 280.5563 0.0000 0.0000 0.0000
# 4 0.0000 0.0000 0.0000 61.9932 0.0000 0.0000
# 5 0.0000 0.0000 0.0000 0.0000 16.3590 0.0000
# 6 0.0000 0.0000 0.0000 0.0000 0.0000 57.0006
#
#
#
# Elastic Compliance Matrix: (Units=1/GPa)
#
#
# Indices 1 2 3 4 5 6 
#
# 1 0.009896 -0.001892 -0.003491 0.000000 0.000000 0.000000
# 2 -0.001892 0.005601 -0.001271 0.000000 0.000000 0.000000
# 3 -0.003491 -0.001271 0.005513 0.000000 0.000000 0.000000
# 4 0.000000 0.000000 0.000000 0.016131 0.000000 0.000000
# 5 0.000000 0.000000 0.000000 0.000000 0.061128 0.000000
# 6 0.000000 0.000000 0.000000 0.000000 0.000000 0.017544
#
#
# Mechanical properties :
#
#
# Convention : Reuss Voigt Hill
#
# Bulk Modulus (GPa) = 129.82071 141.57989 135.70030
# Shear Modulus (GPa) = 37.96873 51.41167 44.69020
#
# Velocity S-wave (km/s) = 3.82651 4.45267 4.15142
# Velocity P-wave (km/s) = 8.34187 9.00187 8.67815
#
# Compressibility (1/GPa) = 0.00770293
#
# Stress axis : x y z
#
# Youngs Moduli (GPa) = 101.04926 178.54264 181.39563
#
# Poissons Ratio (x) = 0.33772 0.63321
# Poissons Ratio (y) = 0.19114 0.23059
# Poissons Ratio (z) = 0.35274 0.22696
#
# Static dielectric constant tensor:
#      x y z
#    x 2.180770 0.000000 0.000000 
#    y 0.000000 2.167860 0.000000 
#    z 0.000000 0.000000 1.965340 
# 
# From -- ./inp_files/30229.got.cif
#   From: 2010.05.17/outbox.cif.g08.bks.cpg/sg68_16_cif.got.tgz:30229.got - 2010.06.03 18:57:09.
