data_PCOD9509541
_publ_section_title
;
Structure prediction by ZEFSAII (Michael W. Deem and Ramdas Pophale) SiO2 
 PCOD9509541
Probable space group: C C C A
;
_chemical_formula_sum "Si O2"
_cell_formula_units_Z 88
_cell_length_a 16.557213
_cell_length_b 15.892571
_cell_length_c 16.015451
_cell_angle_alpha 90.000000
_cell_angle_beta 90.000000
_cell_angle_gamma 90.000000
_cell_volume 4214.252656
_symmetry_space_group_name_H-M "C C C A"
_symmetry_group_IT_number 68
_space_group.IT_coordinate_system_code '2'
_symmetry_cell_setting 'orthorhombic'
loop_
_space_group_symop_operation_xyz
x,y,z
-x,1/2-y,z
x,1/2-y,1/2-z
-x,y,1/2-z
-x,-y,-z
x,1/2+y,-z
-x,1/2+y,1/2+z
x,-y,1/2+z
1/2+x,1/2+y,z
1/2-x,-y,z
1/2+x,-y,1/2-z
1/2-x,1/2+y,1/2-z
1/2-x,1/2-y,-z
1/2+x,y,-z
1/2-x,y,1/2+z
1/2+x,1/2-y,1/2+z
loop_
_atom_site_type_symbol
_atom_site_label
_atom_site_fract_x
_atom_site_fract_y
_atom_site_fract_z
Si Si1 0.613015 0.258908 0.654269
Si Si2 0.750000 0.500000 0.367524
Si Si3 0.052420 0.825292 0.377645
Si Si4 0.232674 0.692198 0.080808
Si Si5 0.003735 0.872742 0.563817
Si Si6 0.566854 0.003695 0.682970
O O1 0.588502 0.250000 0.750000
O O2 0.704689 0.230475 0.646618
O O3 0.586269 0.347038 0.612892
O O4 0.563240 0.191908 0.599247
O O5 0.759490 0.588763 0.419279
O O6 0.665086 0.516455 0.316453
O O7 0.141277 0.791992 0.395408
O O8 0.016709 0.856545 0.466869
O O9 0.058911 0.904266 0.318317
O O10 0.000000 0.750000 0.345308
O O11 0.250000 0.750000 0.000000
O O12 0.967092 0.959948 0.595315
O O13 0.500000 0.037481 0.750000
#
# Coordination Sequence:
#
# PCOD9509541 Si02
#       6
#    16   8  16  16  16  16
#     4  11  21  36  67 100 128 167 217 281 337 393
#     4  10  24  42  70  98 134 180 228 280 344 402
#     4  11  23  42  64  93 131 184 221 266 340 421
#     4  11  21  43  66  94 137 173 218 276 338 401
#     4  11  19  39  67  97 129 161 225 276 341 393
#     4  11  24  43  68  95 138 178 226 288 343 400
#
# _framework density 20.881519000000001
#
# number of rings (size 3 to 8) (size 9 to 14) (size 15 to 20)
#    0.000    1.091    5.455    2.727    0.000    0.364 
#    6.545    0.000    0.000    1.091    0.000    0.000 
#    0.000    0.000    0.000    0.000    0.000    0.000 
#
# Total GULP energy -245106.561588 kJ/mol
# GULP energy per Si atom -5570.603672 kJ/mol
# Density = 2.083399 g / cm^3
# Si number density = 20.881519 Si / 1000 Ang^3
#
#
#
# Elastic Constant Matrix: (Units=GPa)
#
#
# Indices 1 2 3 4 5 6 
#
# 1 157.6573 47.2949 32.8836 0.0000 0.0000 0.0000
# 2 47.2949 91.4155 -10.5137 0.0000 0.0000 0.0000
# 3 32.8836 -10.5137 62.2538 0.0000 0.0000 0.0000
# 4 0.0000 0.0000 0.0000 13.5838 0.0000 0.0000
# 5 0.0000 0.0000 0.0000 0.0000 12.6497 0.0000
# 6 0.0000 0.0000 0.0000 0.0000 0.0000 33.1720
#
#
#
# Elastic Compliance Matrix: (Units=1/GPa)
#
#
# Indices 1 2 3 4 5 6 
#
# 1 0.009163 -0.005402 -0.005753 0.000000 0.000000 0.000000
# 2 -0.005402 0.014341 0.005276 0.000000 0.000000 0.000000
# 3 -0.005753 0.005276 0.019993 0.000000 0.000000 0.000000
# 4 0.000000 0.000000 0.000000 0.073617 0.000000 0.000000
# 5 0.000000 0.000000 0.000000 0.000000 0.079053 0.000000
# 6 0.000000 0.000000 0.000000 0.000000 0.000000 0.030146
#
#
# Mechanical properties :
#
#
# Convention : Reuss Voigt Hill
#
# Bulk Modulus (GPa) = 31.50780 50.07289 40.79034
# Shear Modulus (GPa) = 20.10844 27.99189 24.05017
#
# Velocity S-wave (km/s) = 3.10655 3.66527 3.39742
# Velocity P-wave (km/s) = 5.29048 6.47641 5.91325
#
# Compressibility (1/GPa) = 0.03173818
#
# Stress axis : x y z
#
# Youngs Moduli (GPa) = 109.13011 69.73108 50.01779
#
# Poissons Ratio (x) = 0.37671 0.28773
# Poissons Ratio (y) = 0.58956 -0.26387
# Poissons Ratio (z) = 0.62779 -0.36787
#
# Static dielectric constant tensor:
#      x y z
#    x 1.784710 0.000000 0.000000 
#    y 0.000000 1.845970 0.000000 
#    z 0.000000 0.000000 1.791510 
# 
# From -- ./inp_files/30949.got.cif
#   From: 2010.05.17/outbox.cif.g08.bks.cpg/sg68_16_cif.got.tgz:30949.got - 2010.06.03 18:57:09.
