data_PCOD9509158
_publ_section_title
;
Structure prediction by ZEFSAII (Michael W. Deem and Ramdas Pophale) SiO2 
 PCOD9509158
Probable space group: C C C A
;
_chemical_formula_sum "Si O2"
_cell_formula_units_Z 72
_cell_length_a 18.342517
_cell_length_b 25.163468
_cell_length_c 8.110416
_cell_angle_alpha 90.000000
_cell_angle_beta 90.000000
_cell_angle_gamma 90.000000
_cell_volume 3743.454473
_symmetry_space_group_name_H-M "C C C A"
_symmetry_group_IT_number 68
_space_group.IT_coordinate_system_code '2'
_symmetry_cell_setting 'orthorhombic'
loop_
_space_group_symop_operation_xyz
x,y,z
-x,1/2-y,z
x,1/2-y,1/2-z
-x,y,1/2-z
-x,-y,-z
x,1/2+y,-z
-x,1/2+y,1/2+z
x,-y,1/2+z
1/2+x,1/2+y,z
1/2-x,-y,z
1/2+x,-y,1/2-z
1/2-x,1/2+y,1/2-z
1/2-x,1/2-y,-z
1/2+x,y,-z
1/2-x,y,1/2+z
1/2+x,1/2-y,1/2+z
loop_
_atom_site_type_symbol
_atom_site_label
_atom_site_fract_x
_atom_site_fract_y
_atom_site_fract_z
Si Si1 0.000000 0.871653 0.750000
Si Si2 0.533248 0.553703 0.568102
Si Si3 0.651950 0.811817 0.292538
Si Si4 0.195576 0.549729 0.325701
Si Si5 0.726087 0.869685 0.570566
O O1 0.982918 0.904911 0.581312
O O2 0.927864 0.836673 0.776112
O O3 0.500000 0.567535 0.750000
O O4 0.500000 0.500000 0.500000
O O5 0.618534 0.538518 0.591495
O O6 0.651916 0.750000 0.250000
O O7 0.680948 0.825186 0.475305
O O8 0.709386 0.841943 0.173080
O O9 0.250000 0.500000 0.287065
O O10 0.238655 0.589056 0.444609
O O11 0.177963 0.589448 0.175672
#
# Coordination Sequence:
#
# PCOD9509158 Si02
#       5
#     8  16  16  16  16
#     4  12  25  46  68 100 136 174 225 276 344 402
#     4  12  27  41  65  96 138 179 215 267 336 410
#     4  11  23  44  69  94 127 174 226 284 340 390
#     4  11  24  39  64  97 132 173 218 268 332 405
#     4  10  23  40  67  95 130 168 224 278 326 405
#
# _framework density 19.233571000000001
#
# number of rings (size 3 to 8) (size 9 to 14) (size 15 to 20)
#    0.000    0.889    3.333    3.000   12.444    0.000 
#    0.000    0.000    0.000    1.333    0.000    0.000 
#    0.000    0.000    0.000    0.000    0.000    0.000 
#
# Total GULP energy -200738.632081 kJ/mol
# GULP energy per Si atom -5576.073113 kJ/mol
# Density = 1.918979 g / cm^3
# Si number density = 19.233571 Si / 1000 Ang^3
#
#
#
# Elastic Constant Matrix: (Units=GPa)
#
#
# Indices 1 2 3 4 5 6 
#
# 1 145.8308 75.7417 45.5581 0.0000 0.0000 0.0000
# 2 75.7417 140.9122 52.1650 0.0000 0.0000 0.0000
# 3 45.5581 52.1650 106.2611 0.0000 0.0000 0.0000
# 4 0.0000 0.0000 0.0000 23.9585 0.0000 0.0000
# 5 0.0000 0.0000 0.0000 0.0000 25.2611 0.0000
# 6 0.0000 0.0000 0.0000 0.0000 0.0000 58.7267
#
#
#
# Elastic Compliance Matrix: (Units=1/GPa)
#
#
# Indices 1 2 3 4 5 6 
#
# 1 0.009844 -0.004557 -0.001983 0.000000 0.000000 0.000000
# 2 -0.004557 0.010782 -0.003339 0.000000 0.000000 0.000000
# 3 -0.001983 -0.003339 0.011900 0.000000 0.000000 0.000000
# 4 0.000000 0.000000 0.000000 0.041739 0.000000 0.000000
# 5 0.000000 0.000000 0.000000 0.000000 0.039587 0.000000
# 6 0.000000 0.000000 0.000000 0.000000 0.000000 0.017028
#
#
# Mechanical properties :
#
#
# Convention : Reuss Voigt Hill
#
# Bulk Modulus (GPa) = 78.32623 82.21486 80.27054
# Shear Modulus (GPa) = 32.28005 36.22522 34.25264
#
# Velocity S-wave (km/s) = 4.10117 4.34457 4.22462
# Velocity P-wave (km/s) = 7.95225 8.24653 8.10073
#
# Compressibility (1/GPa) = 0.01276712
#
# Stress axis : x y z
#
# Youngs Moduli (GPa) = 101.58913 92.74551 84.03026
#
# Poissons Ratio (x) = 0.42262 0.16666
# Poissons Ratio (y) = 0.46292 0.28061
# Poissons Ratio (z) = 0.20148 0.30972
#
# Static dielectric constant tensor:
#      x y z
#    x 1.637800 0.000000 0.000000 
#    y 0.000000 1.658130 0.000000 
#    z 0.000000 0.000000 1.999430 
# 
# From -- ./inp_files/6088.got.cif
#   From: 2010.05.17/outbox.cif.g08.bks.cpg/sg68_4_cif.got.tgz:6088.got - 2010.06.03 18:57:09.
