data_PCOD9509583
_publ_section_title
;
Structure prediction by ZEFSAII (Michael W. Deem and Ramdas Pophale) SiO2 
 PCOD9509583
Probable space group: C C C A
;
_chemical_formula_sum "Si O2"
_cell_formula_units_Z 88
_cell_length_a 11.513906
_cell_length_b 12.212999
_cell_length_c 32.508509
_cell_angle_alpha 90.000000
_cell_angle_beta 90.000000
_cell_angle_gamma 90.000000
_cell_volume 4571.324510
_symmetry_space_group_name_H-M "C C C A"
_symmetry_group_IT_number 68
_space_group.IT_coordinate_system_code '2'
_symmetry_cell_setting 'orthorhombic'
loop_
_space_group_symop_operation_xyz
x,y,z
-x,1/2-y,z
x,1/2-y,1/2-z
-x,y,1/2-z
-x,-y,-z
x,1/2+y,-z
-x,1/2+y,1/2+z
x,-y,1/2+z
1/2+x,1/2+y,z
1/2-x,-y,z
1/2+x,-y,1/2-z
1/2-x,1/2+y,1/2-z
1/2-x,1/2-y,-z
1/2+x,y,-z
1/2-x,y,1/2+z
1/2+x,1/2-y,1/2+z
loop_
_atom_site_type_symbol
_atom_site_label
_atom_site_fract_x
_atom_site_fract_y
_atom_site_fract_z
Si Si1 0.946430 0.134866 0.112941
Si Si2 0.874595 0.804251 0.448766
Si Si3 0.250000 0.500000 0.664984
Si Si4 0.309180 0.884921 0.466792
Si Si5 0.872376 0.047226 0.870062
Si Si6 0.031655 0.379012 0.704742
O O1 0.905380 0.146363 0.066264
O O2 0.000000 0.250000 0.128938
O O3 0.837593 0.079514 0.138328
O O4 0.050215 0.048639 0.111090
O O5 0.786612 0.707587 0.459416
O O6 0.858332 0.886635 0.486964
O O7 0.854367 0.860620 0.404817
O O8 0.000000 0.750000 0.448228
O O9 0.160370 0.421872 0.690886
O O10 0.250000 0.000000 0.456910
O O11 0.945149 0.082604 0.830770
O O12 0.750000 0.000000 0.857012
O O13 0.000000 0.250000 0.706417
O O14 0.000000 0.423988 0.750000
#
# Coordination Sequence:
#
# PCOD9509583 Si02
#       6
#    16  16   8  16  16  16
#     4  11  23  40  65  96 128 177 216 266 329 384
#     4  11  24  38  59  90 125 174 218 269 325 390
#     4  10  24  44  66 100 136 168 220 278 324 404
#     4  11  23  39  59  88 132 170 220 272 320 383
#     4  11  24  40  65  95 127 168 217 272 329 398
#     4  10  24  44  70  99 129 175 214 274 341 400
#
# _framework density 19.250437999999999
#
# number of rings (size 3 to 8) (size 9 to 14) (size 15 to 20)
#    0.000    1.273    0.909    3.818    8.909    5.818 
#    0.000    0.000    0.000    4.909    0.000    0.000 
#    0.000    0.000    0.000    0.000    0.000    0.000 
#
# Total GULP energy -245430.407886 kJ/mol
# GULP energy per Si atom -5577.963816 kJ/mol
# Density = 1.920662 g / cm^3
# Si number density = 19.250438 Si / 1000 Ang^3
#
#
#
# Elastic Constant Matrix: (Units=GPa)
#
#
# Indices 1 2 3 4 5 6 
#
# 1 101.9911 35.1622 38.6808 0.0000 0.0000 0.0000
# 2 35.1622 82.3751 25.1519 0.0000 0.0000 0.0000
# 3 38.6808 25.1519 102.6304 0.0000 0.0000 0.0000
# 4 0.0000 0.0000 0.0000 21.9882 0.0000 0.0000
# 5 0.0000 0.0000 0.0000 0.0000 22.7253 0.0000
# 6 0.0000 0.0000 0.0000 0.0000 0.0000 24.0847
#
#
#
# Elastic Compliance Matrix: (Units=1/GPa)
#
#
# Indices 1 2 3 4 5 6 
#
# 1 0.012697 -0.004279 -0.003737 0.000000 0.000000 0.000000
# 2 -0.004279 0.014563 -0.001956 0.000000 0.000000 0.000000
# 3 -0.003737 -0.001956 0.011632 0.000000 0.000000 0.000000
# 4 0.000000 0.000000 0.000000 0.045479 0.000000 0.000000
# 5 0.000000 0.000000 0.000000 0.000000 0.044004 0.000000
# 6 0.000000 0.000000 0.000000 0.000000 0.000000 0.041520
#
#
# Mechanical properties :
#
#
# Convention : Reuss Voigt Hill
#
# Bulk Modulus (GPa) = 52.77638 53.88739 53.33188
# Shear Modulus (GPa) = 25.49000 26.29308 25.89154
#
# Velocity S-wave (km/s) = 3.64280 3.69974 3.67138
# Velocity P-wave (km/s) = 6.72075 6.80473 6.76287
#
# Compressibility (1/GPa) = 0.01894787
#
# Stress axis : x y z
#
# Youngs Moduli (GPa) = 78.75759 68.66522 85.97295
#
# Poissons Ratio (x) = 0.29381 0.32127
# Poissons Ratio (y) = 0.33699 0.16820
# Poissons Ratio (z) = 0.29431 0.13434
#
# Static dielectric constant tensor:
#      x y z
#    x 1.630910 0.000000 0.000000 
#    y 0.000000 1.804970 0.000000 
#    z 0.000000 0.000000 1.698440 
# 
# From -- ./inp_files/54639.got.cif
#   From: 2010.05.17/outbox.cif.g08.bks.cpg/sg68_28_cif.got.tgz:54639.got - 2010.06.03 18:57:09.
