data_PCOD9509261
_publ_section_title
;
Structure prediction by ZEFSAII (Michael W. Deem and Ramdas Pophale) SiO2 
 PCOD9509261
Probable space group: C C C A
;
_chemical_formula_sum "Si O2"
_cell_formula_units_Z 68
_cell_length_a 18.236017
_cell_length_b 14.693773
_cell_length_c 11.053336
_cell_angle_alpha 90.000000
_cell_angle_beta 90.000000
_cell_angle_gamma 90.000000
_cell_volume 2961.806532
_symmetry_space_group_name_H-M "C C C A"
_symmetry_group_IT_number 68
_space_group.IT_coordinate_system_code '2'
_symmetry_cell_setting 'orthorhombic'
loop_
_space_group_symop_operation_xyz
x,y,z
-x,1/2-y,z
x,1/2-y,1/2-z
-x,y,1/2-z
-x,-y,-z
x,1/2+y,-z
-x,1/2+y,1/2+z
x,-y,1/2+z
1/2+x,1/2+y,z
1/2-x,-y,z
1/2+x,-y,1/2-z
1/2-x,1/2+y,1/2-z
1/2-x,1/2-y,-z
1/2+x,y,-z
1/2-x,y,1/2+z
1/2+x,1/2-y,1/2+z
loop_
_atom_site_type_symbol
_atom_site_label
_atom_site_fract_x
_atom_site_fract_y
_atom_site_fract_z
Si Si1 0.057929 0.423644 0.140523
Si Si2 0.786088 0.651081 0.513148
Si Si3 0.783244 0.359714 0.270839
Si Si4 0.500000 0.250000 0.250000
Si Si5 0.055105 0.128214 0.955914
O O1 0.134965 0.386977 0.188420
O O2 0.066054 0.523400 0.082021
O O3 0.000000 0.429805 0.250000
O O4 0.018307 0.364377 0.036187
O O5 0.750000 0.750000 0.500000
O O6 0.759896 0.605338 0.637733
O O7 0.767821 0.609158 0.382183
O O8 0.873177 0.658662 0.527165
O O9 0.780349 0.250000 0.250000
O O10 0.451860 0.313060 0.164261
#
# Coordination Sequence:
#
# PCOD9509261 Si02
#       5
#    16  16  16   4  16
#     4  11  23  47  68 105 138 179 241 295 357 425
#     4  10  23  43  65 101 133 182 231 289 346 426
#     4  10  23  42  72  99 137 181 232 289 351 436
#     4  12  28  40  70 108 130 184 218 302 356 424
#     4  11  26  43  71 101 141 181 233 300 362 421
#
# _framework density 22.958960999999999
#
# number of rings (size 3 to 8) (size 9 to 14) (size 15 to 20)
#    0.000    1.412    3.529    0.000   11.529    1.412 
#    0.000    2.353    0.000    0.000    0.000    0.000 
#    0.000    0.000    0.000    0.000    0.000    0.000 
#
# Total GULP energy -190040.070210 kJ/mol
# GULP energy per Si atom -5589.413830 kJ/mol
# Density = 2.290671 g / cm^3
# Si number density = 22.958961 Si / 1000 Ang^3
#
#
#
# Elastic Constant Matrix: (Units=GPa)
#
#
# Indices 1 2 3 4 5 6 
#
# 1 71.3112 10.6824 35.9843 0.0000 0.0000 0.0000
# 2 10.6824 76.5147 16.8505 0.0000 0.0000 0.0000
# 3 35.9843 16.8505 191.6405 0.0000 0.0000 0.0000
# 4 0.0000 0.0000 0.0000 11.8036 0.0000 0.0000
# 5 0.0000 0.0000 0.0000 0.0000 47.0156 0.0000
# 6 0.0000 0.0000 0.0000 0.0000 0.0000 27.5257
#
#
#
# Elastic Compliance Matrix: (Units=1/GPa)
#
#
# Indices 1 2 3 4 5 6 
#
# 1 0.015674 -0.001571 -0.002805 0.000000 0.000000 0.000000
# 2 -0.001571 0.013485 -0.000891 0.000000 0.000000 0.000000
# 3 -0.002805 -0.000891 0.005823 0.000000 0.000000 0.000000
# 4 0.000000 0.000000 0.000000 0.084720 0.000000 0.000000
# 5 0.000000 0.000000 0.000000 0.000000 0.021270 0.000000
# 6 0.000000 0.000000 0.000000 0.000000 0.000000 0.036330
#
#
# Mechanical properties :
#
#
# Convention : Reuss Voigt Hill
#
# Bulk Modulus (GPa) = 40.90130 51.83344 46.36737
# Shear Modulus (GPa) = 25.51237 35.66558 30.58897
#
# Velocity S-wave (km/s) = 3.33711 3.94566 3.65407
# Velocity P-wave (km/s) = 5.71857 6.58659 6.16787
#
# Compressibility (1/GPa) = 0.02444910
#
# Stress axis : x y z
#
# Youngs Moduli (GPa) = 63.80110 74.15742 171.72937
#
# Poissons Ratio (x) = 0.11647 0.48169
# Poissons Ratio (y) = 0.10020 0.15298
# Poissons Ratio (z) = 0.17896 0.06606
#
# Static dielectric constant tensor:
#      x y z
#    x 1.846780 0.000000 0.000000 
#    y 0.000000 1.874080 0.000000 
#    z 0.000000 0.000000 1.856660 
# 
# From -- ./inp_files/14194.got.cif
#   From: 2010.05.17/outbox.cif.g08.bks.cpg/sg68_8_cif.got.tgz:14194.got - 2010.06.03 18:57:09.
