data_PCOD9509192
_publ_section_title
;
Structure prediction by ZEFSAII (Michael W. Deem and Ramdas Pophale) SiO2 
 PCOD9509192
Probable space group: C C C A
;
_chemical_formula_sum "Si O2"
_cell_formula_units_Z 48
_cell_length_a 15.465993
_cell_length_b 5.122721
_cell_length_c 24.826674
_cell_angle_alpha 90.000000
_cell_angle_beta 90.000000
_cell_angle_gamma 90.000000
_cell_volume 1966.966912
_symmetry_space_group_name_H-M "C C C A"
_symmetry_group_IT_number 68
_space_group.IT_coordinate_system_code '2'
_symmetry_cell_setting 'orthorhombic'
loop_
_space_group_symop_operation_xyz
x,y,z
-x,1/2-y,z
x,1/2-y,1/2-z
-x,y,1/2-z
-x,-y,-z
x,1/2+y,-z
-x,1/2+y,1/2+z
x,-y,1/2+z
1/2+x,1/2+y,z
1/2-x,-y,z
1/2+x,-y,1/2-z
1/2-x,1/2+y,1/2-z
1/2-x,1/2-y,-z
1/2+x,y,-z
1/2-x,y,1/2+z
1/2+x,1/2-y,1/2+z
loop_
_atom_site_type_symbol
_atom_site_label
_atom_site_fract_x
_atom_site_fract_y
_atom_site_fract_z
Si Si1 0.090976 0.143849 0.362917
Si Si2 0.653102 0.754791 0.024315
Si Si3 0.655516 0.383064 0.191609
O O1 0.155413 0.200294 0.412337
O O2 0.101967 0.350192 0.314059
O O3 0.000000 0.250000 0.385857
O O4 0.111604 0.847665 0.344331
O O5 0.609228 0.489313 0.007116
O O6 0.750000 0.750000 0.000000
O O7 0.662031 0.250000 0.250000
O O8 0.750000 0.500000 0.177056
#
# Coordination Sequence:
#
# PCOD9509192 Si02
#       3
#    16  16  16
#     4  12  27  45  74 111 150 193 246 313 384 451
#     4  10  23  41  67 103 137 195 241 303 364 448
#     4  12  27  48  75 108 146 196 253 306 370 459
#
# _framework density 24.403054000000001
#
# number of rings (size 3 to 8) (size 9 to 14) (size 15 to 20)
#    0.000    0.667    0.000    7.000   14.000    5.333 
#    0.000    0.000    0.000    0.000    0.000    0.000 
#    0.000    0.000    0.000    0.000    0.000    0.000 
#
# Total GULP energy -133801.362980 kJ/mol
# GULP energy per Si atom -5575.056791 kJ/mol
# Density = 2.434751 g / cm^3
# Si number density = 24.403054 Si / 1000 Ang^3
#
#
#
# Elastic Constant Matrix: (Units=GPa)
#
#
# Indices 1 2 3 4 5 6 
#
# 1 95.4783 13.6489 23.3569 0.0000 0.0000 0.0000
# 2 13.6489 186.6522 19.7296 0.0000 0.0000 0.0000
# 3 23.3569 19.7296 93.3408 0.0000 0.0000 0.0000
# 4 0.0000 0.0000 0.0000 35.0237 0.0000 0.0000
# 5 0.0000 0.0000 0.0000 0.0000 8.1246 0.0000
# 6 0.0000 0.0000 0.0000 0.0000 0.0000 32.4324
#
#
#
# Elastic Compliance Matrix: (Units=1/GPa)
#
#
# Indices 1 2 3 4 5 6 
#
# 1 0.011209 -0.000535 -0.002692 0.000000 0.000000 0.000000
# 2 -0.000535 0.005506 -0.001030 0.000000 0.000000 0.000000
# 3 -0.002692 -0.001030 0.011605 0.000000 0.000000 0.000000
# 4 0.000000 0.000000 0.000000 0.028552 0.000000 0.000000
# 5 0.000000 0.000000 0.000000 0.000000 0.123083 0.000000
# 6 0.000000 0.000000 0.000000 0.000000 0.000000 0.030833
#
#
# Mechanical properties :
#
#
# Convention : Reuss Voigt Hill
#
# Bulk Modulus (GPa) = 50.49080 54.32692 52.40886
# Shear Modulus (GPa) = 22.13343 36.36519 29.24931
#
# Velocity S-wave (km/s) = 3.01490 3.86449 3.46583
# Velocity P-wave (km/s) = 5.73191 6.49792 6.12690
#
# Compressibility (1/GPa) = 0.01980559
#
# Stress axis : x y z
#
# Youngs Moduli (GPa) = 89.21775 181.63516 86.17248
#
# Poissons Ratio (x) = 0.09719 0.23194
# Poissons Ratio (y) = 0.04774 0.08874
# Poissons Ratio (z) = 0.24014 0.18705
#
# Static dielectric constant tensor:
#      x y z
#    x 2.086850 0.000000 0.000000 
#    y 0.000000 1.886600 0.000000 
#    z 0.000000 0.000000 1.928020 
# 
# From -- ./inp_files/47761.got.cif
#   From: 2010.05.17/outbox.cif.g08.bks.cpg/sg68_24_cif.got.tgz:47761.got - 2010.06.03 18:57:09.
