data_PCOD9509696
_publ_section_title
;
Structure prediction by ZEFSAII (Michael W. Deem and Ramdas Pophale) SiO2 
 PCOD9509696
Probable space group: C C C A
;
_chemical_formula_sum "Si O2"
_cell_formula_units_Z 72
_cell_length_a 23.476104
_cell_length_b 9.026979
_cell_length_c 13.780119
_cell_angle_alpha 90.000000
_cell_angle_beta 90.000000
_cell_angle_gamma 90.000000
_cell_volume 2920.259362
_symmetry_space_group_name_H-M "C C C A"
_symmetry_group_IT_number 68
_space_group.IT_coordinate_system_code '2'
_symmetry_cell_setting 'orthorhombic'
loop_
_space_group_symop_operation_xyz
x,y,z
-x,1/2-y,z
x,1/2-y,1/2-z
-x,y,1/2-z
-x,-y,-z
x,1/2+y,-z
-x,1/2+y,1/2+z
x,-y,1/2+z
1/2+x,1/2+y,z
1/2-x,-y,z
1/2+x,-y,1/2-z
1/2-x,1/2+y,1/2-z
1/2-x,1/2-y,-z
1/2+x,y,-z
1/2-x,y,1/2+z
1/2+x,1/2-y,1/2+z
loop_
_atom_site_type_symbol
_atom_site_label
_atom_site_fract_x
_atom_site_fract_y
_atom_site_fract_z
Si Si1 0.094568 0.113242 0.188079
Si Si2 0.750000 0.500000 0.512413
Si Si3 0.171679 0.759429 0.527584
Si Si4 0.493436 0.573992 0.603136
Si Si5 0.630469 0.886765 0.677379
O O1 0.072489 0.250000 0.250000
O O2 0.117705 0.191433 0.089920
O O3 0.143887 0.024965 0.249215
O O4 0.044338 0.998961 0.164138
O O5 0.779526 0.632289 0.568224
O O6 0.802511 0.406011 0.462962
O O7 0.162493 0.810553 0.415244
O O8 0.500000 0.750000 0.600834
O O9 0.500000 0.500000 0.500000
O O10 0.428948 0.552075 0.635879
O O11 0.622485 0.750000 0.750000
#
# Coordination Sequence:
#
# PCOD9509696 Si02
#       5
#    16   8  16  16  16
#     4  12  27  45  75 113 154 208 257 314 383 465
#     4  10  24  46  78 104 146 190 246 346 386 448
#     4  11  24  49  74 109 148 195 260 317 396 453
#     4  12  27  46  72 111 158 209 260 313 376 461
#     4  12  25  45  74 106 158 206 252 315 380 459
#
# _framework density 24.655343999999999
#
# number of rings (size 3 to 8) (size 9 to 14) (size 15 to 20)
#    0.000    0.444    4.444    3.333    3.111    0.889 
#    0.000   16.667    0.000    0.000    0.000    0.000 
#    0.000    0.000    0.000    0.000    0.000    0.000 
#
# Total GULP energy -200848.500091 kJ/mol
# GULP energy per Si atom -5579.125003 kJ/mol
# Density = 2.459923 g / cm^3
# Si number density = 24.655344 Si / 1000 Ang^3
#
#
#
# Elastic Constant Matrix: (Units=GPa)
#
#
# Indices 1 2 3 4 5 6 
#
# 1 84.6315 42.5033 37.8068 0.0000 0.0000 0.0000
# 2 42.5033 212.3107 56.1838 0.0000 0.0000 0.0000
# 3 37.8068 56.1838 137.3368 0.0000 0.0000 0.0000
# 4 0.0000 0.0000 0.0000 35.6518 0.0000 0.0000
# 5 0.0000 0.0000 0.0000 0.0000 -0.1749 0.0000
# 6 0.0000 0.0000 0.0000 0.0000 0.0000 47.2882
#
#
#
# Elastic Compliance Matrix: (Units=1/GPa)
#
#
# Indices 1 2 3 4 5 6 
#
# 1 0.014212 -0.002030 -0.003082 0.000000 0.000000 0.000000
# 2 -0.002030 0.005572 -0.001721 0.000000 0.000000 0.000000
# 3 -0.003082 -0.001721 0.008834 0.000000 0.000000 0.000000
# 4 0.000000 0.000000 0.000000 0.028049 0.000000 0.000000
# 5 0.000000 0.000000 0.000000 0.000000 -5.716635 0.000000
# 6 0.000000 0.000000 0.000000 0.000000 0.000000 0.021147
#
#
# Mechanical properties :
#
#
# Convention : Reuss Voigt Hill
#
# Bulk Modulus (GPa) = 66.87663 78.58521 72.73092
# Shear Modulus (GPa) = -0.88965 36.40534 17.75784
#
# Velocity S-wave (km/s) = -0.60135 3.84678 2.68665
# Velocity P-wave (km/s) = 5.16733 7.18840 6.25997
#
# Compressibility (1/GPa) = 0.01495291
#
# Stress axis : x y z
#
# Youngs Moduli (GPa) = 70.36282 179.47777 113.20234
#
# Poissons Ratio (x) = 0.36426 0.34890
# Poissons Ratio (y) = 0.14280 0.19478
# Poissons Ratio (z) = 0.21686 0.30882
#
# Static dielectric constant tensor:
#      x y z
#    x 2.089950 0.000000 0.000000 
#    y 0.000000 1.939670 0.000000 
#    z 0.000000 0.000000 2.075990 
# 
# From -- ./inp_files/25819.got.cif
#   From: 2010.05.17/outbox.cif.g08.bks.cpg/sg68_13_cif.got.tgz:25819.got - 2010.06.03 18:57:09.
