data_PCOD9509489
_publ_section_title
;
Structure prediction by ZEFSAII (Michael W. Deem and Ramdas Pophale) SiO2 
 PCOD9509489
Probable space group: C C C A
;
_chemical_formula_sum "Si O2"
_cell_formula_units_Z 96
_cell_length_a 13.918311
_cell_length_b 22.312849
_cell_length_c 14.026865
_cell_angle_alpha 90.000000
_cell_angle_beta 90.000000
_cell_angle_gamma 90.000000
_cell_volume 4356.143522
_symmetry_space_group_name_H-M "C C C A"
_symmetry_group_IT_number 68
_space_group.IT_coordinate_system_code '2'
_symmetry_cell_setting 'orthorhombic'
loop_
_space_group_symop_operation_xyz
x,y,z
-x,1/2-y,z
x,1/2-y,1/2-z
-x,y,1/2-z
-x,-y,-z
x,1/2+y,-z
-x,1/2+y,1/2+z
x,-y,1/2+z
1/2+x,1/2+y,z
1/2-x,-y,z
1/2+x,-y,1/2-z
1/2-x,1/2+y,1/2-z
1/2-x,1/2-y,-z
1/2+x,y,-z
1/2-x,y,1/2+z
1/2+x,1/2-y,1/2+z
loop_
_atom_site_type_symbol
_atom_site_label
_atom_site_fract_x
_atom_site_fract_y
_atom_site_fract_z
Si Si1 0.695323 0.842513 0.064535
Si Si2 0.394529 0.106863 0.131313
Si Si3 0.096015 0.278904 0.381785
Si Si4 0.583297 0.130801 0.047102
Si Si5 0.145839 0.476394 0.421950
Si Si6 0.203287 0.878834 0.733432
O O1 0.660278 0.774676 0.076684
O O2 0.810102 0.847106 0.069512
O O3 0.667146 0.880856 0.158188
O O4 0.657637 0.868501 0.965042
O O5 0.501792 0.132779 0.127291
O O6 0.318706 0.120026 0.215421
O O7 0.404870 0.035638 0.116346
O O8 0.055836 0.324348 0.461817
O O9 0.159650 0.318023 0.310341
O O10 0.000000 0.250000 0.342577
O O11 0.594763 0.064346 0.001221
O O12 0.250000 0.500000 0.458181
O O13 0.166057 0.432788 0.332460
#
# Coordination Sequence:
#
# PCOD9509489 Si02
#       6
#    16  16  16  16  16  16
#     4  12  23  40  67  93 130 172 210 259 336 369
#     4  11  22  43  66  93 130 167 217 265 313 386
#     4  11  22  42  66  97 125 166 214 272 309 386
#     4  11  22  39  70  93 123 171 213 258 330 377
#     4   9  18  42  62  88 130 161 210 270 303 369
#     4  10  24  41  63  97 133 167 212 267 319 381
#
# _framework density 22.037842000000001
#
# number of rings (size 3 to 8) (size 9 to 14) (size 15 to 20)
#    0.000    1.333    6.667    1.500    0.000    2.000 
#    9.000    0.000    7.333    2.000    0.000    0.000 
#    0.000    0.000    0.000    0.000    0.000    0.000 
#
# Total GULP energy -268087.051187 kJ/mol
# GULP energy per Si atom -5585.146900 kJ/mol
# Density = 2.198768 g / cm^3
# Si number density = 22.037842 Si / 1000 Ang^3
#
#
#
# Elastic Constant Matrix: (Units=GPa)
#
#
# Indices 1 2 3 4 5 6 
#
# 1 99.4899 38.0473 -8.0605 0.0000 0.0000 0.0000
# 2 38.0473 100.4128 14.0647 0.0000 0.0000 0.0000
# 3 -8.0605 14.0647 52.7219 0.0000 0.0000 0.0000
# 4 0.0000 0.0000 0.0000 -46.0897 0.0000 0.0000
# 5 0.0000 0.0000 0.0000 0.0000 -1.5342 0.0000
# 6 0.0000 0.0000 0.0000 0.0000 0.0000 14.1378
#
#
#
# Elastic Compliance Matrix: (Units=1/GPa)
#
#
# Indices 1 2 3 4 5 6 
#
# 1 0.012264 -0.005100 0.003236 0.000000 0.000000 0.000000
# 2 -0.005100 0.012466 -0.004105 0.000000 0.000000 0.000000
# 3 0.003236 -0.004105 0.020557 0.000000 0.000000 0.000000
# 4 0.000000 0.000000 0.000000 -0.021697 0.000000 0.000000
# 5 0.000000 0.000000 0.000000 0.000000 -0.651804 0.000000
# 6 0.000000 0.000000 0.000000 0.000000 0.000000 0.070733
#
#
# Mechanical properties :
#
#
# Convention : Reuss Voigt Hill
#
# Bulk Modulus (GPa) = 29.98715 37.85863 33.92289
# Shear Modulus (GPa) = -9.35586 7.20764 -1.07411
#
# Velocity S-wave (km/s) = -2.06266 1.81043 -0.69889
# Velocity P-wave (km/s) = 2.82204 4.64612 3.84385
#
# Compressibility (1/GPa) = 0.03334762
#
# Stress axis : x y z
#
# Youngs Moduli (GPa) = 81.54089 80.21575 48.64445
#
# Poissons Ratio (x) = 0.40910 -0.15739
# Poissons Ratio (y) = 0.41586 0.19971
# Poissons Ratio (z) = -0.26383 0.32932
#
# Static dielectric constant tensor:
#      x y z
#    x 1.636960 0.000000 0.000000 
#    y 0.000000 1.797020 0.000000 
#    z 0.000000 0.000000 1.845010 
# 
# From -- ./inp_files/22331.got.cif
#   From: 2010.05.17/outbox.cif.g08.bks.cpg/sg68_12_cif.got.tgz:22331.got - 2010.06.03 18:57:09.
