data_PCOD9509157
_publ_section_title
;
Structure prediction by ZEFSAII (Michael W. Deem and Ramdas Pophale) SiO2 
 PCOD9509157
Probable space group: C C C A
;
_chemical_formula_sum "Si O2"
_cell_formula_units_Z 88
_cell_length_a 13.231998
_cell_length_b 24.205498
_cell_length_c 13.690599
_cell_angle_alpha 90.000000
_cell_angle_beta 90.000000
_cell_angle_gamma 90.000000
_cell_volume 4384.922266
_symmetry_space_group_name_H-M "C C C A"
_symmetry_group_IT_number 68
_space_group.IT_coordinate_system_code '2'
_symmetry_cell_setting 'orthorhombic'
loop_
_space_group_symop_operation_xyz
x,y,z
-x,1/2-y,z
x,1/2-y,1/2-z
-x,y,1/2-z
-x,-y,-z
x,1/2+y,-z
-x,1/2+y,1/2+z
x,-y,1/2+z
1/2+x,1/2+y,z
1/2-x,-y,z
1/2+x,-y,1/2-z
1/2-x,1/2+y,1/2-z
1/2-x,1/2-y,-z
1/2+x,y,-z
1/2-x,y,1/2+z
1/2+x,1/2-y,1/2+z
loop_
_atom_site_type_symbol
_atom_site_label
_atom_site_fract_x
_atom_site_fract_y
_atom_site_fract_z
Si Si1 0.467548 0.173959 0.523201
Si Si2 0.750000 0.500000 0.639765
Si Si3 0.832612 0.735562 0.918409
Si Si4 0.385520 0.425910 0.223176
Si Si5 0.083331 0.951459 0.498617
Si Si6 0.640670 0.698279 0.815945
O O1 0.394694 0.207478 0.598551
O O2 0.580899 0.194732 0.541790
O O3 0.461016 0.108239 0.528452
O O4 0.424629 0.192355 0.416234
O O5 0.690084 0.542209 0.707742
O O6 0.828762 0.531787 0.571792
O O7 0.759920 0.707932 0.838897
O O8 0.750000 0.750000 0.000000
O O9 0.500000 0.440998 0.250000
O O10 0.372675 0.442264 0.110072
O O11 0.373124 0.360272 0.236081
O O12 0.000000 0.000000 0.500000
O O13 0.609961 0.750000 0.750000
#
# Coordination Sequence:
#
# PCOD9509157 Si02
#       6
#    16   8  16  16  16  16
#     4   9  21  40  63  96 129 175 222 274 328 416
#     4  12  26  46  74  96 142 188 224 290 348 408
#     4   9  19  38  62  93 127 170 216 260 337 404
#     4  11  25  46  68 107 136 171 240 281 336 422
#     4  11  24  44  71 100 135 186 229 286 347 404
#     4  10  23  40  66  98 132 170 213 286 335 397
#
# _framework density 20.068771000000002
#
# number of rings (size 3 to 8) (size 9 to 14) (size 15 to 20)
#    0.000    1.818    1.818    0.545    2.545   16.364 
#    0.000    1.818    0.000    0.000    0.000    0.000 
#    0.000    0.000    0.000    0.000    0.000    0.000 
#
# Total GULP energy -245724.343965 kJ/mol
# GULP energy per Si atom -5584.644181 kJ/mol
# Density = 2.002309 g / cm^3
# Si number density = 20.068771 Si / 1000 Ang^3
#
#
#
# Elastic Constant Matrix: (Units=GPa)
#
#
# Indices 1 2 3 4 5 6 
#
# 1 169.6309 79.3485 47.3683 0.0000 0.0000 0.0000
# 2 79.3485 177.7565 55.0662 0.0000 0.0000 0.0000
# 3 47.3683 55.0662 67.0745 0.0000 0.0000 0.0000
# 4 0.0000 0.0000 0.0000 33.9731 0.0000 0.0000
# 5 0.0000 0.0000 0.0000 0.0000 26.2678 0.0000
# 6 0.0000 0.0000 0.0000 0.0000 0.0000 14.4084
#
#
#
# Elastic Compliance Matrix: (Units=1/GPa)
#
#
# Indices 1 2 3 4 5 6 
#
# 1 0.008076 -0.002465 -0.003679 0.000000 0.000000 0.000000
# 2 -0.002465 0.008297 -0.005071 0.000000 0.000000 0.000000
# 3 -0.003679 -0.005071 0.021670 0.000000 0.000000 0.000000
# 4 0.000000 0.000000 0.000000 0.029435 0.000000 0.000000
# 5 0.000000 0.000000 0.000000 0.000000 0.038069 0.000000
# 6 0.000000 0.000000 0.000000 0.000000 0.000000 0.069404
#
#
# Mechanical properties :
#
#
# Convention : Reuss Voigt Hill
#
# Bulk Modulus (GPa) = 64.05140 86.44756 75.24948
# Shear Modulus (GPa) = 24.68100 30.44179 27.56139
#
# Velocity S-wave (km/s) = 3.51069 3.89893 3.70989
# Velocity P-wave (km/s) = 6.95834 7.96480 7.47852
#
# Compressibility (1/GPa) = 0.01561246
#
# Stress axis : x y z
#
# Youngs Moduli (GPa) = 123.82860 120.52748 46.14682
#
# Poissons Ratio (x) = 0.29711 0.16979
# Poissons Ratio (y) = 0.30525 0.23399
# Poissons Ratio (z) = 0.45560 0.61115
#
# Static dielectric constant tensor:
#      x y z
#    x 1.699250 0.000000 0.000000 
#    y 0.000000 1.695160 0.000000 
#    z 0.000000 0.000000 1.744790 
# 
# From -- ./inp_files/20946.got.cif
#   From: 2010.05.17/outbox.cif.g08.bks.cpg/sg68_11_cif.got.tgz:20946.got - 2010.06.03 18:57:09.
