data_PCOD9509694
_publ_section_title
;
Structure prediction by ZEFSAII (Michael W. Deem and Ramdas Pophale) SiO2 
 PCOD9509694
Probable space group: C C C A
;
_chemical_formula_sum "Si O2"
_cell_formula_units_Z 100
_cell_length_a 9.342520
_cell_length_b 25.378286
_cell_length_c 21.404521
_cell_angle_alpha 90.000000
_cell_angle_beta 90.000000
_cell_angle_gamma 90.000000
_cell_volume 5074.950809
_symmetry_space_group_name_H-M "C C C A"
_symmetry_group_IT_number 68
_space_group.IT_coordinate_system_code '2'
_symmetry_cell_setting 'orthorhombic'
loop_
_space_group_symop_operation_xyz
x,y,z
-x,1/2-y,z
x,1/2-y,1/2-z
-x,y,1/2-z
-x,-y,-z
x,1/2+y,-z
-x,1/2+y,1/2+z
x,-y,1/2+z
1/2+x,1/2+y,z
1/2-x,-y,z
1/2+x,-y,1/2-z
1/2-x,1/2+y,1/2-z
1/2-x,1/2-y,-z
1/2+x,y,-z
1/2-x,y,1/2+z
1/2+x,1/2-y,1/2+z
loop_
_atom_site_type_symbol
_atom_site_label
_atom_site_fract_x
_atom_site_fract_y
_atom_site_fract_z
Si Si1 0.500000 0.750000 0.250000
Si Si2 0.186100 0.196577 0.880475
Si Si3 0.002423 0.930070 0.449609
Si Si4 0.750000 0.000000 0.995063
Si Si5 0.188760 0.689779 0.847632
Si Si6 0.945348 0.343603 0.442453
Si Si7 0.026156 0.628270 0.318205
Si Si8 0.500000 0.250000 0.019910
O O1 0.409374 0.789812 0.208115
O O2 0.244260 0.254811 0.868674
O O3 0.309309 0.154071 0.896242
O O4 0.087485 0.176240 0.824361
O O5 0.083130 0.207621 0.938891
O O6 0.867471 0.969368 0.454252
O O7 0.970029 0.888476 0.506076
O O8 0.004890 0.905297 0.380716
O O9 0.150930 0.960062 0.464861
O O10 0.314266 0.650854 0.827046
O O11 0.088884 0.665574 0.902072
O O12 0.907971 0.288280 0.476832
O O13 0.000000 0.603554 0.250000
#
# Coordination Sequence:
#
# PCOD9509694 Si02
#       8
#     4  16  16   8  16  16  16   8
#     4  12  22  40  54  80 138 196 232 252 288 366
#     4  12  21  37  55  88 132 181 217 258 298 360
#     4  11  23  45  70  98 124 157 208 271 333 386
#     4  10  24  46  76  96 118 150 204 278 344 386
#     4  12  23  38  57  85 134 187 222 253 295 362
#     4  12  23  37  64  95 131 169 216 266 313 370
#     4  12  26  40  62  91 128 171 219 259 313 381
#     4  12  21  32  59  95 133 164 212 258 310 365
#
# _framework density 19.704625
#
# number of rings (size 3 to 8) (size 9 to 14) (size 15 to 20)
#    0.000    0.320    6.400    3.360    2.240    0.640 
#    0.000    0.800    0.000    0.000    0.000    0.000 
#    0.000    0.000    0.000    0.000    0.000    0.000 
#
# Total GULP energy -279132.867012 kJ/mol
# GULP energy per Si atom -5582.657340 kJ/mol
# Density = 1.965978 g / cm^3
# Si number density = 19.704625 Si / 1000 Ang^3
#
#
#
# Elastic Constant Matrix: (Units=GPa)
#
#
# Indices 1 2 3 4 5 6 
#
# 1 100.0493 23.9193 33.5401 0.0000 0.0000 0.0000
# 2 23.9193 56.0530 24.9679 0.0000 0.0000 0.0000
# 3 33.5401 24.9679 99.1172 0.0000 0.0000 0.0000
# 4 0.0000 0.0000 0.0000 16.5768 0.0000 0.0000
# 5 0.0000 0.0000 0.0000 0.0000 -5.4755 0.0000
# 6 0.0000 0.0000 0.0000 0.0000 0.0000 25.5193
#
#
#
# Elastic Compliance Matrix: (Units=1/GPa)
#
#
# Indices 1 2 3 4 5 6 
#
# 1 0.011920 -0.003706 -0.003100 0.000000 0.000000 0.000000
# 2 -0.003706 0.021247 -0.004098 0.000000 0.000000 0.000000
# 3 -0.003100 -0.004098 0.012170 0.000000 0.000000 0.000000
# 4 0.000000 0.000000 0.000000 0.060325 0.000000 0.000000
# 5 0.000000 0.000000 0.000000 0.000000 -0.182633 0.000000
# 6 0.000000 0.000000 0.000000 0.000000 0.000000 0.039186
#
#
# Mechanical properties :
#
#
# Convention : Reuss Voigt Hill
#
# Bulk Modulus (GPa) = 42.49981 46.67491 44.58736
# Shear Modulus (GPa) = -614.87734 18.84360 -298.01687
#
# Velocity S-wave (km/s) = -17.68402 3.09577 -12.31139
# Velocity P-wave (km/s) = 19.88343 6.04294 13.39466
#
# Compressibility (1/GPa) = 0.02352951
#
# Stress axis : x y z
#
# Youngs Moduli (GPa) = 83.89029 47.06523 82.16598
#
# Poissons Ratio (x) = 0.17441 0.25473
# Poissons Ratio (y) = 0.31088 0.33673
# Poissons Ratio (z) = 0.26008 0.19288
#
# Static dielectric constant tensor:
#      x y z
#    x 0.980170 0.000000 0.000000 
#    y 0.000000 1.749420 0.000000 
#    z 0.000000 0.000000 2.076720 
# 
# From -- ./inp_files/36740.got.cif
#   From: 2010.05.17/outbox.cif.g08.bks.cpg/sg68_19_cif.got.tgz:36740.got - 2010.06.03 18:57:09.
