data_PCOD9509107
_publ_section_title
;
Structure prediction by ZEFSAII (Michael W. Deem and Ramdas Pophale) SiO2 
 PCOD9509107
Probable space group: C C C A
;
_chemical_formula_sum "Si O2"
_cell_formula_units_Z 72
_cell_length_a 18.097954
_cell_length_b 8.625775
_cell_length_c 22.745798
_cell_angle_alpha 90.000000
_cell_angle_beta 90.000000
_cell_angle_gamma 90.000000
_cell_volume 3550.821031
_symmetry_space_group_name_H-M "C C C A"
_symmetry_group_IT_number 68
_space_group.IT_coordinate_system_code '2'
_symmetry_cell_setting 'orthorhombic'
loop_
_space_group_symop_operation_xyz
x,y,z
-x,1/2-y,z
x,1/2-y,1/2-z
-x,y,1/2-z
-x,-y,-z
x,1/2+y,-z
-x,1/2+y,1/2+z
x,-y,1/2+z
1/2+x,1/2+y,z
1/2-x,-y,z
1/2+x,-y,1/2-z
1/2-x,1/2+y,1/2-z
1/2-x,1/2-y,-z
1/2+x,y,-z
1/2-x,y,1/2+z
1/2+x,1/2-y,1/2+z
loop_
_atom_site_type_symbol
_atom_site_label
_atom_site_fract_x
_atom_site_fract_y
_atom_site_fract_z
Si Si1 0.326603 0.588824 0.125877
Si Si2 0.000000 0.250000 0.884034
Si Si3 0.577257 0.433035 0.474750
Si Si4 0.706557 0.155566 0.948806
Si Si5 0.977430 0.074599 0.182289
O O1 0.250000 0.500000 0.133230
O O2 0.371016 0.543347 0.065472
O O3 0.300313 0.760876 0.113094
O O4 0.388767 0.567056 0.174565
O O5 0.934906 0.289472 0.929934
O O6 0.007147 0.414648 0.849183
O O7 0.500000 0.500000 0.500000
O O8 0.624963 0.379941 0.528895
O O9 0.750000 0.000000 0.942042
O O10 0.750000 0.250000 0.000000
O O11 0.000000 0.250000 0.159624
O O12 0.000000 0.068177 0.250000
#
# Coordination Sequence:
#
# PCOD9509107 Si02
#       5
#    16   8  16  16  16
#     4  11  23  41  62  95 134 180 216 286 346 416
#     4  10  23  38  70  98 128 180 225 274 352 402
#     4  11  22  35  59 100 139 176 226 261 320 425
#     4  12  22  37  56  88 145 180 213 261 330 416
#     4  10  24  46  73  95 128 169 243 311 357 411
#
# _framework density 20.277000999999998
#
# number of rings (size 3 to 8) (size 9 to 14) (size 15 to 20)
#    0.000    1.111    4.444    1.667    6.222    0.000 
#    0.000    0.000   19.556    0.000    0.000    0.000 
#    0.000    0.000    0.000    0.000    0.000    0.000 
#
# Total GULP energy -200562.017308 kJ/mol
# GULP energy per Si atom -5571.167147 kJ/mol
# Density = 2.023085 g / cm^3
# Si number density = 20.277001 Si / 1000 Ang^3
#
#
#
# Elastic Constant Matrix: (Units=GPa)
#
#
# Indices 1 2 3 4 5 6 
#
# 1 164.9769 62.4949 49.6385 0.0000 0.0000 0.0000
# 2 62.4949 164.1518 46.0249 0.0000 0.0000 0.0000
# 3 49.6385 46.0249 75.9087 0.0000 0.0000 0.0000
# 4 0.0000 0.0000 0.0000 7.6619 0.0000 0.0000
# 5 0.0000 0.0000 0.0000 0.0000 30.4596 0.0000
# 6 0.0000 0.0000 0.0000 0.0000 0.0000 35.9388
#
#
#
# Elastic Compliance Matrix: (Units=1/GPa)
#
#
# Indices 1 2 3 4 5 6 
#
# 1 0.008012 -0.001905 -0.004084 0.000000 0.000000 0.000000
# 2 -0.001905 0.007793 -0.003479 0.000000 0.000000 0.000000
# 3 -0.004084 -0.003479 0.017954 0.000000 0.000000 0.000000
# 4 0.000000 0.000000 0.000000 0.130516 0.000000 0.000000
# 5 0.000000 0.000000 0.000000 0.000000 0.032830 0.000000
# 6 0.000000 0.000000 0.000000 0.000000 0.000000 0.027825
#
#
# Mechanical properties :
#
#
# Convention : Reuss Voigt Hill
#
# Bulk Modulus (GPa) = 67.46765 80.15044 73.80904
# Shear Modulus (GPa) = 20.09587 31.27065 25.68326
#
# Velocity S-wave (km/s) = 3.15154 3.93131 3.56282
# Velocity P-wave (km/s) = 6.82555 7.76019 7.30783
#
# Compressibility (1/GPa) = 0.01482192
#
# Stress axis : x y z
#
# Youngs Moduli (GPa) = 124.81308 128.32517 55.69854
#
# Poissons Ratio (x) = 0.24448 0.22748
# Poissons Ratio (y) = 0.23779 0.19378
# Poissons Ratio (z) = 0.50975 0.44645
#
# Static dielectric constant tensor:
#      x y z
#    x 1.593770 0.000000 0.000000 
#    y 0.000000 1.385430 0.000000 
#    z 0.000000 0.000000 1.809790 
# 
# From -- ./inp_files/45866.got.cif
#   From: 2010.05.17/outbox.cif.g08.bks.cpg/sg68_23_cif.got.tgz:45866.got - 2010.06.03 18:57:09.
