data_PCOD9509164
_publ_section_title
;
Structure prediction by ZEFSAII (Michael W. Deem and Ramdas Pophale) SiO2 
 PCOD9509164
Probable space group: C C C A
;
_chemical_formula_sum "Si O2"
_cell_formula_units_Z 64
_cell_length_a 28.652577
_cell_length_b 5.389168
_cell_length_c 16.287271
_cell_angle_alpha 90.000000
_cell_angle_beta 90.000000
_cell_angle_gamma 90.000000
_cell_volume 2514.975353
_symmetry_space_group_name_H-M "C C C A"
_symmetry_group_IT_number 68
_space_group.IT_coordinate_system_code '2'
_symmetry_cell_setting 'orthorhombic'
loop_
_space_group_symop_operation_xyz
x,y,z
-x,1/2-y,z
x,1/2-y,1/2-z
-x,y,1/2-z
-x,-y,-z
x,1/2+y,-z
-x,1/2+y,1/2+z
x,-y,1/2+z
1/2+x,1/2+y,z
1/2-x,-y,z
1/2+x,-y,1/2-z
1/2-x,1/2+y,1/2-z
1/2-x,1/2-y,-z
1/2+x,y,-z
1/2-x,y,1/2+z
1/2+x,1/2-y,1/2+z
loop_
_atom_site_type_symbol
_atom_site_label
_atom_site_fract_x
_atom_site_fract_y
_atom_site_fract_z
Si Si1 0.340647 0.978270 0.447804
Si Si2 0.608447 0.696926 0.658169
Si Si3 0.019296 0.998620 0.594016
Si Si4 0.715180 0.299555 0.157781
O O1 0.339619 0.214222 0.510144
O O2 0.385086 0.043929 0.391080
O O3 0.296990 0.044658 0.389403
O O4 0.592105 0.750000 0.750000
O O5 0.574481 0.526923 0.604953
O O6 0.661671 0.594003 0.665084
O O7 0.000000 0.750000 0.632947
O O8 0.000000 0.250000 0.632894
O O9 0.000000 0.000000 0.500000
O O10 0.731464 0.250000 0.250000
O O11 0.750000 0.500000 0.118594
#
# Coordination Sequence:
#
# PCOD9509164 Si02
#       4
#    16  16  16  16
#     4  10  23  40  69  99 141 182 237 291 354 421
#     4   9  22  46  67 103 144 190 237 297 356 428
#     4  10  23  40  70 100 135 180 233 290 354 422
#     4   9  21  42  66 101 141 194 239 291 354 431
#
# _framework density 25.447566999999999
#
# number of rings (size 3 to 8) (size 9 to 14) (size 15 to 20)
#    1.500    1.000    0.000    0.000    7.000    3.500 
#    0.000    6.250    0.000    0.000    0.000    0.000 
#    0.000    0.000    0.000    0.000    0.000    0.000 
#
# Total GULP energy -178629.226652 kJ/mol
# GULP energy per Si atom -5582.163333 kJ/mol
# Density = 2.538965 g / cm^3
# Si number density = 25.447567 Si / 1000 Ang^3
#
#
#
# Elastic Constant Matrix: (Units=GPa)
#
#
# Indices 1 2 3 4 5 6 
#
# 1 122.7287 29.9414 3.1509 0.0000 0.0000 0.0000
# 2 29.9414 134.0681 22.5487 0.0000 0.0000 0.0000
# 3 3.1509 22.5487 128.0511 0.0000 0.0000 0.0000
# 4 0.0000 0.0000 0.0000 14.9567 0.0000 0.0000
# 5 0.0000 0.0000 0.0000 0.0000 -75.3696 0.0000
# 6 0.0000 0.0000 0.0000 0.0000 0.0000 45.6503
#
#
#
# Elastic Compliance Matrix: (Units=1/GPa)
#
#
# Indices 1 2 3 4 5 6 
#
# 1 0.008620 -0.001947 0.000131 0.000000 0.000000 0.000000
# 2 -0.001947 0.008126 -0.001383 0.000000 0.000000 0.000000
# 3 0.000131 -0.001383 0.008050 0.000000 0.000000 0.000000
# 4 0.000000 0.000000 0.000000 0.066860 0.000000 0.000000
# 5 0.000000 0.000000 0.000000 0.000000 -0.013268 0.000000
# 6 0.000000 0.000000 0.000000 0.000000 0.000000 0.021906
#
#
# Mechanical properties :
#
#
# Convention : Reuss Voigt Hill
#
# Bulk Modulus (GPa) = 54.35650 55.12555 54.74102
# Shear Modulus (GPa) = 44.31679 18.99461 31.65570
#
# Velocity S-wave (km/s) = 4.17765 2.73504 3.53080
# Velocity P-wave (km/s) = 6.68408 5.62879 6.17901
#
# Compressibility (1/GPa) = 0.01839707
#
# Stress axis : x y z
#
# Youngs Moduli (GPa) = 116.01334 123.05664 124.22808
#
# Poissons Ratio (x) = 0.23959 -0.01624
# Poissons Ratio (y) = 0.22588 0.17182
# Poissons Ratio (z) = -0.01517 0.17020
#
# Static dielectric constant tensor:
#      x y z
#    x 2.679450 0.000000 0.000000 
#    y 0.000000 2.056220 0.000000 
#    z 0.000000 0.000000 1.970270 
# 
# From -- ./inp_files/34284.got.cif
#   From: 2010.05.17/outbox.cif.g08.bks.cpg/sg68_18_cif.got.tgz:34284.got - 2010.06.03 18:57:09.
