data_PCOD9509679
_publ_section_title
;
Structure prediction by ZEFSAII (Michael W. Deem and Ramdas Pophale) SiO2 
 PCOD9509679
Probable space group: C C C A
;
_chemical_formula_sum "Si O2"
_cell_formula_units_Z 88
_cell_length_a 20.383387
_cell_length_b 22.877345
_cell_length_c 8.839894
_cell_angle_alpha 90.000000
_cell_angle_beta 90.000000
_cell_angle_gamma 90.000000
_cell_volume 4122.199716
_symmetry_space_group_name_H-M "C C C A"
_symmetry_group_IT_number 68
_space_group.IT_coordinate_system_code '2'
_symmetry_cell_setting 'orthorhombic'
loop_
_space_group_symop_operation_xyz
x,y,z
-x,1/2-y,z
x,1/2-y,1/2-z
-x,y,1/2-z
-x,-y,-z
x,1/2+y,-z
-x,1/2+y,1/2+z
x,-y,1/2+z
1/2+x,1/2+y,z
1/2-x,-y,z
1/2+x,-y,1/2-z
1/2-x,1/2+y,1/2-z
1/2-x,1/2-y,-z
1/2+x,y,-z
1/2-x,y,1/2+z
1/2+x,1/2-y,1/2+z
loop_
_atom_site_type_symbol
_atom_site_label
_atom_site_fract_x
_atom_site_fract_y
_atom_site_fract_z
Si Si1 0.389321 0.067854 0.146460
Si Si2 0.570653 0.038470 0.686531
Si Si3 0.500000 0.750000 0.006147
Si Si4 0.500000 0.845397 0.750000
Si Si5 0.758839 0.570327 0.970632
Si Si6 0.666201 0.375047 0.689749
Si Si7 0.386489 0.250000 0.750000
O O1 0.435717 0.115722 0.221099
O O2 0.318326 0.085625 0.086236
O O3 0.382440 0.013875 0.260483
O O4 0.425645 0.046826 0.992109
O O5 0.500000 0.023031 0.750000
O O6 0.596022 0.096300 0.770784
O O7 0.489628 0.805031 0.896459
O O8 0.563753 0.760561 0.110015
O O9 0.750000 0.500000 0.968934
O O10 0.694119 0.602785 0.030443
O O11 0.785637 0.595956 0.814059
O O12 0.657460 0.306346 0.712325
#
# Coordination Sequence:
#
# PCOD9509679 Si02
#       7
#    16  16   8   8  16  16   8
#     4  11  24  38  65 100 141 173 226 273 346 410
#     4  11  23  39  62 102 136 175 218 282 341 407
#     4  10  24  46  72  92 140 176 230 280 350 416
#     4  11  24  44  66 104 136 181 220 294 346 407
#     4  11  23  44  66 101 139 184 228 279 347 417
#     4  11  26  42  69  96 137 183 229 282 337 406
#     4  11  26  48  70 102 124 185 240 282 338 415
#
# _framework density 21.347826999999999
#
# number of rings (size 3 to 8) (size 9 to 14) (size 15 to 20)
#    0.000    1.091    2.727    3.273    7.636    2.182 
#    0.000    1.818    0.000    0.000    0.000    0.000 
#    0.000    0.000    0.000    0.000    0.000    0.000 
#
# Total GULP energy -246164.503853 kJ/mol
# GULP energy per Si atom -5594.647815 kJ/mol
# Density = 2.129924 g / cm^3
# Si number density = 21.347827 Si / 1000 Ang^3
#
#
#
# Elastic Constant Matrix: (Units=GPa)
#
#
# Indices 1 2 3 4 5 6 
#
# 1 59.2390 7.6259 32.1592 0.0000 0.0000 0.0000
# 2 7.6259 81.5244 6.9914 0.0000 0.0000 0.0000
# 3 32.1592 6.9914 69.2211 0.0000 0.0000 0.0000
# 4 0.0000 0.0000 0.0000 10.4668 0.0000 0.0000
# 5 0.0000 0.0000 0.0000 0.0000 33.8879 0.0000
# 6 0.0000 0.0000 0.0000 0.0000 0.0000 24.7817
#
#
#
# Elastic Compliance Matrix: (Units=1/GPa)
#
#
# Indices 1 2 3 4 5 6 
#
# 1 0.022696 -0.001229 -0.010420 0.000000 0.000000 0.000000
# 2 -0.001229 0.012440 -0.000685 0.000000 0.000000 0.000000
# 3 -0.010420 -0.000685 0.019357 0.000000 0.000000 0.000000
# 4 0.000000 0.000000 0.000000 0.095540 0.000000 0.000000
# 5 0.000000 0.000000 0.000000 0.000000 0.029509 0.000000
# 6 0.000000 0.000000 0.000000 0.000000 0.000000 0.040352
#
#
# Mechanical properties :
#
#
# Convention : Reuss Voigt Hill
#
# Bulk Modulus (GPa) = 33.53103 33.72638 33.62870
# Shear Modulus (GPa) = 19.64605 24.70781 22.17693
#
# Velocity S-wave (km/s) = 3.03691 3.40574 3.22660
# Velocity P-wave (km/s) = 5.29511 5.59448 5.44685
#
# Compressibility (1/GPa) = 0.02982313
#
# Stress axis : x y z
#
# Youngs Moduli (GPa) = 44.06116 80.38558 51.66182
#
# Poissons Ratio (x) = 0.09882 0.53831
# Poissons Ratio (y) = 0.05417 0.03540
# Poissons Ratio (z) = 0.45912 0.05509
#
# Static dielectric constant tensor:
#      x y z
#    x 1.771360 0.000000 0.000000 
#    y 0.000000 1.753700 0.000000 
#    z 0.000000 0.000000 1.818780 
# 
# From -- ./inp_files/7173.got.cif
#   From: 2010.05.17/outbox.cif.g08.bks.cpg/sg68_4_cif.got.tgz:7173.got - 2010.06.03 18:57:09.
