data_PCOD9509715
_publ_section_title
;
Structure prediction by ZEFSAII (Michael W. Deem and Ramdas Pophale) SiO2 
 PCOD9509715
Probable space group: C C C A
;
_chemical_formula_sum "Si O2"
_cell_formula_units_Z 60
_cell_length_a 5.062569
_cell_length_b 16.820662
_cell_length_c 31.051973
_cell_angle_alpha 90.000000
_cell_angle_beta 90.000000
_cell_angle_gamma 90.000000
_cell_volume 2644.254422
_symmetry_space_group_name_H-M "C C C A"
_symmetry_group_IT_number 68
_space_group.IT_coordinate_system_code '2'
_symmetry_cell_setting 'orthorhombic'
loop_
_space_group_symop_operation_xyz
x,y,z
-x,1/2-y,z
x,1/2-y,1/2-z
-x,y,1/2-z
-x,-y,-z
x,1/2+y,-z
-x,1/2+y,1/2+z
x,-y,1/2+z
1/2+x,1/2+y,z
1/2-x,-y,z
1/2+x,-y,1/2-z
1/2-x,1/2+y,1/2-z
1/2-x,1/2-y,-z
1/2+x,y,-z
1/2-x,y,1/2+z
1/2+x,1/2-y,1/2+z
loop_
_atom_site_type_symbol
_atom_site_label
_atom_site_fract_x
_atom_site_fract_y
_atom_site_fract_z
Si Si1 0.825037 0.335984 0.529473
Si Si2 0.321114 0.171768 0.331174
Si Si3 0.000000 0.250000 0.750000
Si Si4 0.000000 0.250000 0.398538
Si Si5 0.750000 0.500000 0.576595
Si Si6 0.250000 0.500000 0.137057
O O1 0.611645 0.325405 0.491391
O O2 0.723001 0.284496 0.569885
O O3 0.814128 0.425180 0.547001
O O4 0.500000 0.250000 0.345452
O O5 0.318805 0.194997 0.280840
O O6 0.084545 0.183005 0.364640
O O7 0.360472 0.076972 0.336301
O O8 0.496724 0.481382 0.605951
#
# Coordination Sequence:
#
# PCOD9509715 Si02
#       6
#    16  16   4   8   8   8
#     4  12  26  42  66 102 143 194 253 309 365 430
#     4  10  24  47  74 108 146 194 237 313 374 457
#     4   8  24  46  74 108 146 178 242 306 384 446
#     4  12  24  43  71  96 146 196 249 301 380 444
#     4  12  24  45  67 104 144 194 252 310 367 435
#     4  12  24  45  79 106 144 196 254 292 377 467
#
# _framework density 22.690704
#
# number of rings (size 3 to 8) (size 9 to 14) (size 15 to 20)
#    0.800    0.000    2.667    4.800    3.733    0.533 
#    0.000    4.000    0.000    0.000    0.000    0.000 
#    0.000    0.000    0.000    0.000    0.000    0.000 
#
# Total GULP energy -167073.229773 kJ/mol
# GULP energy per Si atom -5569.107659 kJ/mol
# Density = 2.263906 g / cm^3
# Si number density = 22.690704 Si / 1000 Ang^3
#
#
#
# Elastic Constant Matrix: (Units=GPa)
#
#
# Indices 1 2 3 4 5 6 
#
# 1 107.6987 27.2607 43.5157 0.0000 0.0000 0.0000
# 2 27.2607 150.2401 59.6918 0.0000 0.0000 0.0000
# 3 43.5157 59.6918 164.8506 0.0000 0.0000 0.0000
# 4 0.0000 0.0000 0.0000 96.2979 0.0000 0.0000
# 5 0.0000 0.0000 0.0000 0.0000 37.2290 0.0000
# 6 0.0000 0.0000 0.0000 0.0000 0.0000 22.7791
#
#
#
# Elastic Compliance Matrix: (Units=1/GPa)
#
#
# Indices 1 2 3 4 5 6 
#
# 1 0.010506 -0.000940 -0.002433 0.000000 0.000000 0.000000
# 2 -0.000940 0.007859 -0.002598 0.000000 0.000000 0.000000
# 3 -0.002433 -0.002598 0.007649 0.000000 0.000000 0.000000
# 4 0.000000 0.000000 0.000000 0.010384 0.000000 0.000000
# 5 0.000000 0.000000 0.000000 0.000000 0.026861 0.000000
# 6 0.000000 0.000000 0.000000 0.000000 0.000000 0.043900
#
#
# Mechanical properties :
#
#
# Convention : Reuss Voigt Hill
#
# Bulk Modulus (GPa) = 71.05747 75.96953 73.51350
# Shear Modulus (GPa) = 40.39099 50.74928 45.57014
#
# Velocity S-wave (km/s) = 4.22366 4.73437 4.48629
# Velocity P-wave (km/s) = 7.42761 7.96485 7.70092
#
# Compressibility (1/GPa) = 0.01407312
#
# Stress axis : x y z
#
# Youngs Moduli (GPa) = 95.18302 127.25042 130.73776
#
# Poissons Ratio (x) = 0.11957 0.31809
# Poissons Ratio (y) = 0.08944 0.33959
# Poissons Ratio (z) = 0.23159 0.33053
#
# Static dielectric constant tensor:
#      x y z
#    x 2.036930 0.000000 0.000000 
#    y 0.000000 -1.298660 0.000000 
#    z 0.000000 0.000000 1.814390 
# 
# From -- ./inp_files/48046.got.cif
#   From: 2010.05.17/outbox.cif.g08.bks.cpg/sg68_25_cif.got.tgz:48046.got - 2010.06.03 18:57:09.
