data_PCOD9509594
_publ_section_title
;
Structure prediction by ZEFSAII (Michael W. Deem and Ramdas Pophale) SiO2 
 PCOD9509594
Probable space group: C C C A
;
_chemical_formula_sum "Si O2"
_cell_formula_units_Z 56
_cell_length_a 28.630578
_cell_length_b 10.240010
_cell_length_c 8.888629
_cell_angle_alpha 90.000000
_cell_angle_beta 90.000000
_cell_angle_gamma 90.000000
_cell_volume 2605.945184
_symmetry_space_group_name_H-M "C C C A"
_symmetry_group_IT_number 68
_space_group.IT_coordinate_system_code '2'
_symmetry_cell_setting 'orthorhombic'
loop_
_space_group_symop_operation_xyz
x,y,z
-x,1/2-y,z
x,1/2-y,1/2-z
-x,y,1/2-z
-x,-y,-z
x,1/2+y,-z
-x,1/2+y,1/2+z
x,-y,1/2+z
1/2+x,1/2+y,z
1/2-x,-y,z
1/2+x,-y,1/2-z
1/2-x,1/2+y,1/2-z
1/2-x,1/2-y,-z
1/2+x,y,-z
1/2-x,y,1/2+z
1/2+x,1/2-y,1/2+z
loop_
_atom_site_type_symbol
_atom_site_label
_atom_site_fract_x
_atom_site_fract_y
_atom_site_fract_z
Si Si1 0.250000 0.500000 0.686694
Si Si2 0.520986 0.877428 0.918254
Si Si3 0.369189 0.821289 0.588633
Si Si4 0.184287 0.597228 0.935210
O O1 0.218134 0.411823 0.579314
O O2 0.217677 0.591492 0.790446
O O3 0.500000 0.750000 0.995518
O O4 0.500000 0.882320 0.750000
O O5 0.576391 0.859465 0.920577
O O6 0.500000 0.000000 0.000000
O O7 0.362441 0.750000 0.750000
O O8 0.350360 0.718187 0.464132
O O9 0.342144 0.957868 0.573688
#
# Coordination Sequence:
#
# PCOD9509594 Si02
#       4
#     8  16  16  16
#     4  10  24  44  68 104 136 194 232 294 350 418
#     4  11  24  45  71 101 142 180 228 290 350 418
#     4  12  24  45  70 104 140 186 235 291 349 417
#     4  11  25  43  70 100 143 183 239 288 352 412
#
# _framework density 21.489322999999999
#
# number of rings (size 3 to 8) (size 9 to 14) (size 15 to 20)
#    0.000    0.857    5.714    1.714    0.000    8.571 
#    0.000    2.857    0.000    0.000    0.000    0.000 
#    0.000    0.000    0.000    0.000    0.000    0.000 
#
# Total GULP energy -156596.453103 kJ/mol
# GULP energy per Si atom -5592.730468 kJ/mol
# Density = 2.144041 g / cm^3
# Si number density = 21.489323 Si / 1000 Ang^3
#
#
#
# Elastic Constant Matrix: (Units=GPa)
#
#
# Indices 1 2 3 4 5 6 
#
# 1 165.3797 69.3947 50.7469 0.0000 0.0000 0.0000
# 2 69.3947 170.0037 31.8890 0.0000 0.0000 0.0000
# 3 50.7469 31.8890 78.4799 0.0000 0.0000 0.0000
# 4 0.0000 0.0000 0.0000 21.3500 0.0000 0.0000
# 5 0.0000 0.0000 0.0000 0.0000 23.7814 0.0000
# 6 0.0000 0.0000 0.0000 0.0000 0.0000 -44.8483
#
#
#
# Elastic Compliance Matrix: (Units=1/GPa)
#
#
# Indices 1 2 3 4 5 6 
#
# 1 0.008517 -0.002645 -0.004432 0.000000 0.000000 0.000000
# 2 -0.002645 0.007189 -0.001211 0.000000 0.000000 0.000000
# 3 -0.004432 -0.001211 0.016100 0.000000 0.000000 0.000000
# 4 0.000000 0.000000 0.000000 0.046838 0.000000 0.000000
# 5 0.000000 0.000000 0.000000 0.000000 0.042050 0.000000
# 6 0.000000 0.000000 0.000000 0.000000 0.000000 -0.022297
#
#
# Mechanical properties :
#
#
# Convention : Reuss Voigt Hill
#
# Bulk Modulus (GPa) = 65.66187 79.76939 72.71563
# Shear Modulus (GPa) = 41.64966 17.51216 29.58091
#
# Velocity S-wave (km/s) = 4.40723 2.85778 3.71420
# Velocity P-wave (km/s) = 7.51798 6.93472 7.23223
#
# Compressibility (1/GPa) = 0.01522954
#
# Stress axis : x y z
#
# Youngs Moduli (GPa) = 117.41743 139.10066 62.11138
#
# Poissons Ratio (x) = 0.36793 0.27529
# Poissons Ratio (y) = 0.31057 0.07520
# Poissons Ratio (z) = 0.52043 0.16842
#
# Static dielectric constant tensor:
#      x y z
#    x 1.812690 0.000000 0.000000 
#    y 0.000000 1.770100 0.000000 
#    z 0.000000 0.000000 1.775140 
# 
# From -- ./inp_files/8514.got.cif
#   From: 2010.05.17/outbox.cif.g08.bks.cpg/sg68_5_cif.got.tgz:8514.got - 2010.06.03 18:57:09.
