data_PCOD9509765
_publ_section_title
;
Structure prediction by ZEFSAII (Michael W. Deem and Ramdas Pophale) SiO2 
 PCOD9509765
Probable space group: C C C A
;
_chemical_formula_sum "Si O2"
_cell_formula_units_Z 44
_cell_length_a 5.094044
_cell_length_b 14.011088
_cell_length_c 23.989510
_cell_angle_alpha 90.000000
_cell_angle_beta 90.000000
_cell_angle_gamma 90.000000
_cell_volume 1712.205666
_symmetry_space_group_name_H-M "C C C A"
_symmetry_group_IT_number 68
_space_group.IT_coordinate_system_code '2'
_symmetry_cell_setting 'orthorhombic'
loop_
_space_group_symop_operation_xyz
x,y,z
-x,1/2-y,z
x,1/2-y,1/2-z
-x,y,1/2-z
-x,-y,-z
x,1/2+y,-z
-x,1/2+y,1/2+z
x,-y,1/2+z
1/2+x,1/2+y,z
1/2-x,-y,z
1/2+x,-y,1/2-z
1/2-x,1/2+y,1/2-z
1/2-x,1/2-y,-z
1/2+x,y,-z
1/2-x,y,1/2+z
1/2+x,1/2-y,1/2+z
loop_
_atom_site_type_symbol
_atom_site_label
_atom_site_fract_x
_atom_site_fract_y
_atom_site_fract_z
Si Si1 0.750000 0.500000 0.118020
Si Si2 0.461565 0.640537 0.036916
Si Si3 0.351252 0.103518 0.301793
Si Si4 0.000000 0.750000 0.750000
O O1 0.551301 0.564156 0.081965
O O2 0.562220 0.424748 0.151044
O O3 0.500000 0.750000 0.055989
O O4 0.666770 0.628368 0.985475
O O5 0.500000 0.147686 0.250000
O O6 0.109953 0.175035 0.298004
O O7 0.250000 0.000000 0.284964
#
# Coordination Sequence:
#
# PCOD9509765 Si02
#       4
#     8  16  16   4
#     4  12  26  46  82 116 160 208 270 330 408 482
#     4  10  24  50  78 119 161 204 267 340 411 486
#     4  12  25  52  74 114 160 209 272 326 397 486
#     4  12  26  52  80 104 168 226 256 352 402 462
#
# _framework density 25.697849999999999
#
# number of rings (size 3 to 8) (size 9 to 14) (size 15 to 20)
#    0.000    0.727    3.636    1.636    5.091    0.000 
#   19.636    0.000    0.000    0.000    0.000    0.000 
#    0.000    0.000    0.000    0.000    0.000    0.000 
#
# Total GULP energy -122737.868782 kJ/mol
# GULP energy per Si atom -5578.994036 kJ/mol
# Density = 2.563936 g / cm^3
# Si number density = 25.697850 Si / 1000 Ang^3
#
#
#
# Elastic Constant Matrix: (Units=GPa)
#
#
# Indices 1 2 3 4 5 6 
#
# 1 71.4450 58.0243 18.8457 0.0000 0.0000 0.0000
# 2 58.0243 223.1433 63.9292 0.0000 0.0000 0.0000
# 3 18.8457 63.9292 88.0286 0.0000 0.0000 0.0000
# 4 0.0000 0.0000 0.0000 13.7829 0.0000 0.0000
# 5 0.0000 0.0000 0.0000 0.0000 29.1224 0.0000
# 6 0.0000 0.0000 0.0000 0.0000 0.0000 36.1632
#
#
#
# Elastic Compliance Matrix: (Units=1/GPa)
#
#
# Indices 1 2 3 4 5 6 
#
# 1 0.017766 -0.004458 -0.000566 0.000000 0.000000 0.000000
# 2 -0.004458 0.006777 -0.003968 0.000000 0.000000 0.000000
# 3 -0.000566 -0.003968 0.014363 0.000000 0.000000 0.000000
# 4 0.000000 0.000000 0.000000 0.072554 0.000000 0.000000
# 5 0.000000 0.000000 0.000000 0.000000 0.034338 0.000000
# 6 0.000000 0.000000 0.000000 0.000000 0.000000 0.027652
#
#
# Mechanical properties :
#
#
# Convention : Reuss Voigt Hill
#
# Bulk Modulus (GPa) = 47.79355 73.80171 60.79763
# Shear Modulus (GPa) = 25.20070 31.93488 28.56779
#
# Velocity S-wave (km/s) = 3.13494 3.52903 3.33780
# Velocity P-wave (km/s) = 5.63404 6.73697 6.21004
#
# Compressibility (1/GPa) = 0.02092332
#
# Stress axis : x y z
#
# Youngs Moduli (GPa) = 56.28602 147.55338 69.62563
#
# Poissons Ratio (x) = 0.65773 0.03943
# Poissons Ratio (y) = 0.25090 0.27624
# Poissons Ratio (z) = 0.03187 0.58542
#
# Static dielectric constant tensor:
#      x y z
#    x 1.399140 0.000000 0.000000 
#    y 0.000000 1.915870 0.000000 
#    z 0.000000 0.000000 2.231460 
# 
# From -- ./inp_files/47806.got.cif
#   From: 2010.05.17/outbox.cif.g08.bks.cpg/sg68_24_cif.got.tgz:47806.got - 2010.06.03 18:57:09.
