data_PCOD9509115
_publ_section_title
;
Structure prediction by ZEFSAII (Michael W. Deem and Ramdas Pophale) SiO2 
 PCOD9509115
Probable space group: C C C A
;
_chemical_formula_sum "Si O2"
_cell_formula_units_Z 56
_cell_length_a 13.107632
_cell_length_b 5.281711
_cell_length_c 32.842677
_cell_angle_alpha 90.000000
_cell_angle_beta 90.000000
_cell_angle_gamma 90.000000
_cell_volume 2273.722311
_symmetry_space_group_name_H-M "C C C A"
_symmetry_group_IT_number 68
_space_group.IT_coordinate_system_code '2'
_symmetry_cell_setting 'orthorhombic'
loop_
_space_group_symop_operation_xyz
x,y,z
-x,1/2-y,z
x,1/2-y,1/2-z
-x,y,1/2-z
-x,-y,-z
x,1/2+y,-z
-x,1/2+y,1/2+z
x,-y,1/2+z
1/2+x,1/2+y,z
1/2-x,-y,z
1/2+x,-y,1/2-z
1/2-x,1/2+y,1/2-z
1/2-x,1/2-y,-z
1/2+x,y,-z
1/2-x,y,1/2+z
1/2+x,1/2-y,1/2+z
loop_
_atom_site_type_symbol
_atom_site_label
_atom_site_fract_x
_atom_site_fract_y
_atom_site_fract_z
Si Si1 0.378303 0.219273 0.295224
Si Si2 0.250000 0.000000 0.411679
Si Si3 0.384375 0.468999 0.016521
Si Si4 0.621147 0.219418 0.846633
O O1 0.500000 0.250000 0.291020
O O2 0.333420 0.250000 0.250000
O O3 0.356716 0.447460 0.326642
O O4 0.360033 0.941428 0.313415
O O5 0.343898 0.110521 0.439205
O O6 0.306560 0.793086 0.383992
O O7 0.500000 0.500000 0.000000
O O8 0.345071 0.254356 0.986381
O O9 0.500000 0.250000 0.857718
#
# Coordination Sequence:
#
# PCOD9509115 Si02
#       4
#    16   8  16  16
#     4   9  18  39  67  96 137 186 235 279 334 420
#     4  12  26  44  72 100 150 178 230 308 354 420
#     4  10  24  46  70  99 130 183 236 279 355 434
#     4  10  23  39  62 103 136 183 232 287 358 402
#
# _framework density 24.629217000000001
#
# number of rings (size 3 to 8) (size 9 to 14) (size 15 to 20)
#    0.000    2.000    0.000    1.714    4.000    9.143 
#   10.286    2.857    0.000    0.000    0.000    0.000 
#    0.000    0.000    0.000    0.000    0.000    0.000 
#
# Total GULP energy -156119.189884 kJ/mol
# GULP energy per Si atom -5575.685353 kJ/mol
# Density = 2.457316 g / cm^3
# Si number density = 24.629217 Si / 1000 Ang^3
#
#
#
# Elastic Constant Matrix: (Units=GPa)
#
#
# Indices 1 2 3 4 5 6 
#
# 1 168.0965 -13.8737 44.1351 0.0000 0.0000 0.0000
# 2 -13.8737 133.2061 31.4222 0.0000 0.0000 0.0000
# 3 44.1351 31.4222 145.1980 0.0000 0.0000 0.0000
# 4 0.0000 0.0000 0.0000 50.2282 0.0000 0.0000
# 5 0.0000 0.0000 0.0000 0.0000 38.2634 0.0000
# 6 0.0000 0.0000 0.0000 0.0000 0.0000 9.3980
#
#
#
# Elastic Compliance Matrix: (Units=1/GPa)
#
#
# Indices 1 2 3 4 5 6 
#
# 1 0.006652 0.001233 -0.002289 0.000000 0.000000 0.000000
# 2 0.001233 0.008139 -0.002136 0.000000 0.000000 0.000000
# 3 -0.002289 -0.002136 0.008045 0.000000 0.000000 0.000000
# 4 0.000000 0.000000 0.000000 0.019909 0.000000 0.000000
# 5 0.000000 0.000000 0.000000 0.000000 0.026135 0.000000
# 6 0.000000 0.000000 0.000000 0.000000 0.000000 0.106406
#
#
# Mechanical properties :
#
#
# Convention : Reuss Voigt Hill
#
# Bulk Modulus (GPa) = 60.78318 63.31865 62.05091
# Shear Modulus (GPa) = 26.71603 45.23239 35.97421
#
# Velocity S-wave (km/s) = 3.29710 4.29013 3.82597
# Velocity P-wave (km/s) = 6.26317 7.09259 6.69075
#
# Compressibility (1/GPa) = 0.01645192
#
# Stress axis : x y z
#
# Youngs Moduli (GPa) = 150.34003 122.85860 124.29955
#
# Poissons Ratio (x) = -0.15144 0.28447
# Poissons Ratio (y) = -0.18531 0.26552
# Poissons Ratio (z) = 0.34407 0.26244
#
# Static dielectric constant tensor:
#      x y z
#    x 2.058530 0.000000 0.000000 
#    y 0.000000 1.980360 0.000000 
#    z 0.000000 0.000000 1.938980 
# 
# From -- ./inp_files/55061.got.cif
#   From: 2010.05.17/outbox.cif.g08.bks.cpg/sg68_28_cif.got.tgz:55061.got - 2010.06.03 18:57:09.
