data_PCOD9509721
_publ_section_title
;
Structure prediction by ZEFSAII (Michael W. Deem and Ramdas Pophale) SiO2 
 PCOD9509721
Probable space group: C C C A
;
_chemical_formula_sum "Si O2"
_cell_formula_units_Z 92
_cell_length_a 17.125632
_cell_length_b 22.594523
_cell_length_c 12.038320
_cell_angle_alpha 90.000000
_cell_angle_beta 90.000000
_cell_angle_gamma 90.000000
_cell_volume 4658.173584
_symmetry_space_group_name_H-M "C C C A"
_symmetry_group_IT_number 68
_space_group.IT_coordinate_system_code '2'
_symmetry_cell_setting 'orthorhombic'
loop_
_space_group_symop_operation_xyz
x,y,z
-x,1/2-y,z
x,1/2-y,1/2-z
-x,y,1/2-z
-x,-y,-z
x,1/2+y,-z
-x,1/2+y,1/2+z
x,-y,1/2+z
1/2+x,1/2+y,z
1/2-x,-y,z
1/2+x,-y,1/2-z
1/2-x,1/2+y,1/2-z
1/2-x,1/2-y,-z
1/2+x,y,-z
1/2-x,y,1/2+z
1/2+x,1/2-y,1/2+z
loop_
_atom_site_type_symbol
_atom_site_label
_atom_site_fract_x
_atom_site_fract_y
_atom_site_fract_z
Si Si1 0.763472 0.750000 0.750000
Si Si2 0.803171 0.060669 0.970069
Si Si3 0.910636 0.070388 0.764641
Si Si4 0.000000 0.750000 0.250000
Si Si5 0.170059 0.460376 0.215725
Si Si6 0.327017 0.142671 0.614607
Si Si7 0.133334 0.321419 0.626797
O O1 0.813904 0.699399 0.691255
O O2 0.706719 0.779945 0.657695
O O3 0.877482 0.058301 0.888207
O O4 0.755045 0.117056 0.929224
O O5 0.750000 0.000000 0.966872
O O6 0.820669 0.070559 0.098304
O O7 0.859500 0.120033 0.703011
O O8 0.000000 0.087696 0.750000
O O9 0.896614 0.008973 0.702688
O O10 0.056737 0.788040 0.328596
O O11 0.250000 0.500000 0.236855
O O12 0.147852 0.413321 0.310008
O O13 0.371906 0.159799 0.501752
#
# Coordination Sequence:
#
# PCOD9509721 Si02
#       7
#     8  16  16   4  16  16  16
#     4  11  22  39  64  97 120 161 224 280 330 371
#     4  11  21  39  65  92 132 168 213 277 327 384
#     4  12  23  40  63  97 129 173 218 262 328 403
#     4  10  24  48  60  90 128 186 212 264 322 402
#     4  11  22  40  64  95 134 169 210 267 339 385
#     4  12  21  39  67  97 124 163 218 279 327 384
#     4  11  23  41  67  91 129 169 223 266 324 390
#
# _framework density 19.750229000000001
#
# number of rings (size 3 to 8) (size 9 to 14) (size 15 to 20)
#    0.000    0.696    6.087    3.652    0.000    0.696 
#    0.000    0.000    0.000    0.000    0.000    0.000 
#    0.000    0.000    0.000    0.000    0.000    0.000 
#
# Total GULP energy -256642.558316 kJ/mol
# GULP energy per Si atom -5579.186050 kJ/mol
# Density = 1.970528 g / cm^3
# Si number density = 19.750229 Si / 1000 Ang^3
#
#
#
# Elastic Constant Matrix: (Units=GPa)
#
#
# Indices 1 2 3 4 5 6 
#
# 1 45.6373 13.9098 18.6636 0.0000 0.0000 0.0000
# 2 13.9098 118.8130 37.9262 0.0000 0.0000 0.0000
# 3 18.6636 37.9262 118.8679 0.0000 0.0000 0.0000
# 4 0.0000 0.0000 0.0000 34.9788 0.0000 0.0000
# 5 0.0000 0.0000 0.0000 0.0000 7.2175 0.0000
# 6 0.0000 0.0000 0.0000 0.0000 0.0000 20.8576
#
#
#
# Elastic Compliance Matrix: (Units=1/GPa)
#
#
# Indices 1 2 3 4 5 6 
#
# 1 0.023745 -0.001770 -0.003163 0.000000 0.000000 0.000000
# 2 -0.001770 0.009503 -0.002754 0.000000 0.000000 0.000000
# 3 -0.003163 -0.002754 0.009788 0.000000 0.000000 0.000000
# 4 0.000000 0.000000 0.000000 0.028589 0.000000 0.000000
# 5 0.000000 0.000000 0.000000 0.000000 0.138553 0.000000
# 6 0.000000 0.000000 0.000000 0.000000 0.000000 0.047944
#
#
# Mechanical properties :
#
#
# Convention : Reuss Voigt Hill
#
# Bulk Modulus (GPa) = 36.15220 47.14640 41.64930
# Shear Modulus (GPa) = 17.68549 26.79868 22.24209
#
# Velocity S-wave (km/s) = 2.99567 3.68758 3.35948
# Velocity P-wave (km/s) = 5.50543 6.48492 6.01514
#
# Compressibility (1/GPa) = 0.02766083
#
# Stress axis : x y z
#
# Youngs Moduli (GPa) = 42.11388 105.23041 102.16453
#
# Poissons Ratio (x) = 0.18627 0.32320
# Poissons Ratio (y) = 0.07455 0.28137
# Poissons Ratio (z) = 0.13323 0.28982
#
# Static dielectric constant tensor:
#      x y z
#    x 1.743620 0.000000 0.000000 
#    y 0.000000 1.747640 0.000000 
#    z 0.000000 0.000000 1.718530 
# 
# From -- ./inp_files/14511.got.cif
#   From: 2010.05.17/outbox.cif.g08.bks.cpg/sg68_8_cif.got.tgz:14511.got - 2010.06.03 18:57:09.
