data_PCOD9509927
_publ_section_title
;
Structure prediction by ZEFSAII (Michael W. Deem and Ramdas Pophale) SiO2 
 PCOD9509927
Probable space group: C C C A
;
_chemical_formula_sum "Si O2"
_cell_formula_units_Z 88
_cell_length_a 17.987289
_cell_length_b 23.850272
_cell_length_c 8.615820
_cell_angle_alpha 90.000000
_cell_angle_beta 90.000000
_cell_angle_gamma 90.000000
_cell_volume 3696.201730
_symmetry_space_group_name_H-M "C C C A"
_symmetry_group_IT_number 68
_space_group.IT_coordinate_system_code '2'
_symmetry_cell_setting 'orthorhombic'
loop_
_space_group_symop_operation_xyz
x,y,z
-x,1/2-y,z
x,1/2-y,1/2-z
-x,y,1/2-z
-x,-y,-z
x,1/2+y,-z
-x,1/2+y,1/2+z
x,-y,1/2+z
1/2+x,1/2+y,z
1/2-x,-y,z
1/2+x,-y,1/2-z
1/2-x,1/2+y,1/2-z
1/2-x,1/2-y,-z
1/2+x,y,-z
1/2-x,y,1/2+z
1/2+x,1/2-y,1/2+z
loop_
_atom_site_type_symbol
_atom_site_label
_atom_site_fract_x
_atom_site_fract_y
_atom_site_fract_z
Si Si1 0.417053 0.266408 0.073767
Si Si2 0.152151 0.027892 0.989277
Si Si3 0.035390 0.886344 0.422416
Si Si4 0.500000 0.157461 0.750000
Si Si5 0.839950 0.301656 0.330634
Si Si6 0.704231 0.071513 0.673114
O O1 0.500000 0.250000 0.011744
O O2 0.419073 0.250000 0.250000
O O3 0.407646 0.333384 0.070356
O O4 0.359533 0.225144 0.994427
O O5 0.074582 0.054485 0.943792
O O6 0.212250 0.053737 0.869014
O O7 0.157388 0.961582 0.959479
O O8 0.176307 0.048423 0.160342
O O9 0.000000 0.882474 0.250000
O O10 0.992182 0.876174 0.586324
O O11 0.579360 0.189396 0.754626
O O12 0.798039 0.250000 0.250000
O O13 0.803475 0.361968 0.332284
#
# Coordination Sequence:
#
# PCOD9509927 Si02
#       6
#    16  16  16   8  16  16
#     4  11  19  34  60  96 138 183 230 282 363 429
#     4  11  25  49  71 103 138 191 254 298 375 439
#     4  12  24  43  71 108 145 191 244 298 365 448
#     4  12  21  38  72  98 144 190 230 299 370 430
#     4  12  21  40  70 102 140 186 243 293 368 444
#     4  11  25  47  76  98 139 196 245 310 365 439
#
# _framework density 23.808225
#
# number of rings (size 3 to 8) (size 9 to 14) (size 15 to 20)
#    0.000    0.545    7.273    2.455    0.000    5.818 
#    1.636    6.364    0.000    0.000    0.000    0.000 
#    0.000    0.000    0.000    0.000    0.000    0.000 
#
# Total GULP energy -245666.134609 kJ/mol
# GULP energy per Si atom -5583.321241 kJ/mol
# Density = 2.375404 g / cm^3
# Si number density = 23.808225 Si / 1000 Ang^3
#
#
#
# Elastic Constant Matrix: (Units=GPa)
#
#
# Indices 1 2 3 4 5 6 
#
# 1 13.9136 14.9321 8.5625 0.0000 0.0000 0.0000
# 2 14.9321 162.4667 27.3792 0.0000 0.0000 0.0000
# 3 8.5625 27.3792 160.0833 0.0000 0.0000 0.0000
# 4 0.0000 0.0000 0.0000 24.5985 0.0000 0.0000
# 5 0.0000 0.0000 0.0000 0.0000 14.9155 0.0000
# 6 0.0000 0.0000 0.0000 0.0000 0.0000 40.9322
#
#
#
# Elastic Compliance Matrix: (Units=1/GPa)
#
#
# Indices 1 2 3 4 5 6 
#
# 1 0.081261 -0.006936 -0.003160 0.000000 0.000000 0.000000
# 2 -0.006936 0.006930 -0.000814 0.000000 0.000000 0.000000
# 3 -0.003160 -0.000814 0.006555 0.000000 0.000000 0.000000
# 4 0.000000 0.000000 0.000000 0.040653 0.000000 0.000000
# 5 0.000000 0.000000 0.000000 0.000000 0.067044 0.000000
# 6 0.000000 0.000000 0.000000 0.000000 0.000000 0.024431
#
#
# Mechanical properties :
#
#
# Convention : Reuss Voigt Hill
#
# Bulk Modulus (GPa) = 13.71275 48.69014 31.20144
# Shear Modulus (GPa) = 18.31484 35.12856 26.72170
#
# Velocity S-wave (km/s) = 2.77657 3.84537 3.35382
# Velocity P-wave (km/s) = 4.00641 6.34123 5.30389
#
# Compressibility (1/GPa) = 0.07292483
#
# Stress axis : x y z
#
# Youngs Moduli (GPa) = 12.30605 144.30422 152.55453
#
# Poissons Ratio (x) = 1.00090 0.48210
# Poissons Ratio (y) = 0.08536 0.12421
# Poissons Ratio (z) = 0.03889 0.11750
#
# Static dielectric constant tensor:
#      x y z
#    x 1.956010 0.000000 0.000000 
#    y 0.000000 1.961400 0.000000 
#    z 0.000000 0.000000 1.971480 
# 
# From -- ./inp_files/7990.got.cif
#   From: 2010.05.17/outbox.cif.g08.bks.cpg/sg68_4_cif.got.tgz:7990.got - 2010.06.03 18:57:09.
