data_PCOD9509269
_publ_section_title
;
Structure prediction by ZEFSAII (Michael W. Deem and Ramdas Pophale) SiO2 
 PCOD9509269
Probable space group: C C C A
;
_chemical_formula_sum "Si O2"
_cell_formula_units_Z 44
_cell_length_a 18.370897
_cell_length_b 4.805915
_cell_length_c 22.860708
_cell_angle_alpha 90.000000
_cell_angle_beta 90.000000
_cell_angle_gamma 90.000000
_cell_volume 2018.348350
_symmetry_space_group_name_H-M "C C C A"
_symmetry_group_IT_number 68
_space_group.IT_coordinate_system_code '2'
_symmetry_cell_setting 'orthorhombic'
loop_
_space_group_symop_operation_xyz
x,y,z
-x,1/2-y,z
x,1/2-y,1/2-z
-x,y,1/2-z
-x,-y,-z
x,1/2+y,-z
-x,1/2+y,1/2+z
x,-y,1/2+z
1/2+x,1/2+y,z
1/2-x,-y,z
1/2+x,-y,1/2-z
1/2-x,1/2+y,1/2-z
1/2-x,1/2-y,-z
1/2+x,y,-z
1/2-x,y,1/2+z
1/2+x,1/2-y,1/2+z
loop_
_atom_site_type_symbol
_atom_site_label
_atom_site_fract_x
_atom_site_fract_y
_atom_site_fract_z
Si Si1 0.916689 0.782801 0.540126
Si Si2 0.103315 0.250000 0.250000
Si Si3 0.697751 0.256389 0.860381
Si Si4 0.000000 0.750000 0.250000
O O1 0.907510 0.596456 0.482074
O O2 0.860169 0.695201 0.589087
O O3 0.000000 0.750000 0.560952
O O4 0.153142 0.349821 0.196729
O O5 0.056169 0.513559 0.274521
O O6 0.750000 0.500000 0.881697
O O7 0.750000 0.000000 0.845751
#
# Coordination Sequence:
#
# PCOD9509269 Si02
#       4
#    16   8  16   4
#     4  10  23  43  64  94 130 172 220 271 320 377
#     4  11  24  45  64 103 131 172 214 270 329 383
#     4  12  25  42  68  98 136 175 211 270 326 395
#     4  10  24  40  68  96 124 174 218 270 308 382
#
# _framework density 21.800003
#
# number of rings (size 3 to 8) (size 9 to 14) (size 15 to 20)
#    0.000    1.091    0.000    5.455    5.091    4.364 
#    6.545    0.000    0.000    0.000    0.000    0.000 
#    0.000    0.000    0.000    0.000    0.000    0.000 
#
# Total GULP energy -122740.183208 kJ/mol
# GULP energy per Si atom -5579.099237 kJ/mol
# Density = 2.175039 g / cm^3
# Si number density = 21.800003 Si / 1000 Ang^3
#
#
#
# Elastic Constant Matrix: (Units=GPa)
#
#
# Indices 1 2 3 4 5 6 
#
# 1 108.4955 12.6467 53.1724 0.0000 0.0000 0.0000
# 2 12.6467 87.7018 -13.1206 0.0000 0.0000 0.0000
# 3 53.1724 -13.1206 64.9452 0.0000 0.0000 0.0000
# 4 0.0000 0.0000 0.0000 119.2545 0.0000 0.0000
# 5 0.0000 0.0000 0.0000 0.0000 11.1277 0.0000
# 6 0.0000 0.0000 0.0000 0.0000 0.0000 26.8499
#
#
#
# Elastic Compliance Matrix: (Units=1/GPa)
#
#
# Indices 1 2 3 4 5 6 
#
# 1 0.017085 -0.004698 -0.014937 0.000000 0.000000 0.000000
# 2 -0.004698 0.013050 0.006483 0.000000 0.000000 0.000000
# 3 -0.014937 0.006483 0.028937 0.000000 0.000000 0.000000
# 4 0.000000 0.000000 0.000000 0.008385 0.000000 0.000000
# 5 0.000000 0.000000 0.000000 0.000000 0.089866 0.000000
# 6 0.000000 0.000000 0.000000 0.000000 0.000000 0.037244
#
#
# Mechanical properties :
#
#
# Convention : Reuss Voigt Hill
#
# Bulk Modulus (GPa) = 30.51889 40.72659 35.62274
# Shear Modulus (GPa) = 21.57079 45.34270 33.45675
#
# Velocity S-wave (km/s) = 3.14902 4.56558 3.92179
# Velocity P-wave (km/s) = 5.22031 6.82021 6.07317
#
# Compressibility (1/GPa) = 0.03276659
#
# Stress axis : x y z
#
# Youngs Moduli (GPa) = 58.52991 76.63011 34.55781
#
# Poissons Ratio (x) = 0.36004 0.51620
# Poissons Ratio (y) = 0.27500 -0.22404
# Poissons Ratio (z) = 0.87428 -0.49680
#
# Static dielectric constant tensor:
#      x y z
#    x 1.982280 0.000000 0.000000 
#    y 0.000000 1.776850 0.000000 
#    z 0.000000 0.000000 1.718400 
# 
# From -- ./inp_files/18268.got.cif
#   From: 2010.05.17/outbox.cif.g08.bks.cpg/sg68_10_cif.got.tgz:18268.got - 2010.06.03 18:57:09.
