data_PCOD9509302
_publ_section_title
;
Structure prediction by ZEFSAII (Michael W. Deem and Ramdas Pophale) SiO2 
 PCOD9509302
Probable space group: C C C A
;
_chemical_formula_sum "Si O2"
_cell_formula_units_Z 72
_cell_length_a 16.462339
_cell_length_b 8.061423
_cell_length_c 26.304111
_cell_angle_alpha 90.000000
_cell_angle_beta 90.000000
_cell_angle_gamma 90.000000
_cell_volume 3490.815368
_symmetry_space_group_name_H-M "C C C A"
_symmetry_group_IT_number 68
_space_group.IT_coordinate_system_code '2'
_symmetry_cell_setting 'orthorhombic'
loop_
_space_group_symop_operation_xyz
x,y,z
-x,1/2-y,z
x,1/2-y,1/2-z
-x,y,1/2-z
-x,-y,-z
x,1/2+y,-z
-x,1/2+y,1/2+z
x,-y,1/2+z
1/2+x,1/2+y,z
1/2-x,-y,z
1/2+x,-y,1/2-z
1/2-x,1/2+y,1/2-z
1/2-x,1/2-y,-z
1/2+x,y,-z
1/2-x,y,1/2+z
1/2+x,1/2-y,1/2+z
loop_
_atom_site_type_symbol
_atom_site_label
_atom_site_fract_x
_atom_site_fract_y
_atom_site_fract_z
Si Si1 0.324537 0.694810 0.320170
Si Si2 0.750000 0.000000 0.738321
Si Si3 0.443644 0.033856 0.951361
Si Si4 0.160228 0.271403 0.978502
Si Si5 0.500000 0.250000 0.862921
Si Si6 0.250000 0.500000 0.909629
O O1 0.320639 0.540433 0.280139
O O2 0.417601 0.741854 0.330265
O O3 0.284975 0.640860 0.373036
O O4 0.267184 0.841632 0.297605
O O5 0.488190 0.090839 0.900437
O O6 0.382453 0.877505 0.948236
O O7 0.391960 0.187993 0.972001
O O8 0.500000 0.000000 0.000000
O O9 0.175414 0.429245 0.942531
O O10 0.250000 0.250000 0.000000
#
# Coordination Sequence:
#
# PCOD9509302 Si02
#       6
#    16   8  16  16   8   8
#     4  10  23  43  70  93 125 157 217 278 341 420
#     4   9  22  46  69  90 116 156 199 284 362 401
#     4  12  23  39  57  91 144 184 219 268 321 371
#     4  12  22  38  59  89 135 191 228 262 301 369
#     4  12  24  39  66 104 128 174 224 271 338 408
#     4  11  22  38  65  96 126 176 237 262 298 397
#
# _framework density 20.625554000000001
#
# number of rings (size 3 to 8) (size 9 to 14) (size 15 to 20)
#    0.000    0.889    4.444    2.667    3.111    1.778 
#    0.000    0.000    0.000    5.333    0.000    0.000 
#    0.000    0.000    0.000    0.000    0.000    0.000 
#
# Total GULP energy -200514.515818 kJ/mol
# GULP energy per Si atom -5569.847662 kJ/mol
# Density = 2.057861 g / cm^3
# Si number density = 20.625554 Si / 1000 Ang^3
#
#
#
# Elastic Constant Matrix: (Units=GPa)
#
#
# Indices 1 2 3 4 5 6 
#
# 1 108.5863 44.7493 32.7980 0.0000 0.0000 0.0000
# 2 44.7493 104.2101 38.6760 0.0000 0.0000 0.0000
# 3 32.7980 38.6760 89.2447 0.0000 0.0000 0.0000
# 4 0.0000 0.0000 0.0000 58.7806 0.0000 0.0000
# 5 0.0000 0.0000 0.0000 0.0000 30.6808 0.0000
# 6 0.0000 0.0000 0.0000 0.0000 0.0000 46.4869
#
#
#
# Elastic Compliance Matrix: (Units=1/GPa)
#
#
# Indices 1 2 3 4 5 6 
#
# 1 0.011645 -0.004066 -0.002518 0.000000 0.000000 0.000000
# 2 -0.004066 0.012855 -0.004077 0.000000 0.000000 0.000000
# 3 -0.002518 -0.004077 0.013897 0.000000 0.000000 0.000000
# 4 0.000000 0.000000 0.000000 0.017012 0.000000 0.000000
# 5 0.000000 0.000000 0.000000 0.000000 0.032594 0.000000
# 6 0.000000 0.000000 0.000000 0.000000 0.000000 0.021511
#
#
# Mechanical properties :
#
#
# Convention : Reuss Voigt Hill
#
# Bulk Modulus (GPa) = 58.55972 59.38751 58.97362
# Shear Modulus (GPa) = 36.62242 39.57753 38.09997
#
# Velocity S-wave (km/s) = 4.21834 4.38523 4.30259
# Velocity P-wave (km/s) = 7.22353 7.38214 7.30326
#
# Compressibility (1/GPa) = 0.01707658
#
# Stress axis : x y z
#
# Youngs Moduli (GPa) = 85.87030 77.78991 71.95782
#
# Poissons Ratio (x) = 0.31632 0.18116
# Poissons Ratio (y) = 0.34918 0.29334
# Poissons Ratio (z) = 0.21618 0.31712
#
# Static dielectric constant tensor:
#      x y z
#    x 4.649550 0.000000 0.000000 
#    y 0.000000 1.865460 0.000000 
#    z 0.000000 0.000000 1.793400 
# 
# From -- ./inp_files/48997.got.cif
#   From: 2010.05.17/outbox.cif.g08.bks.cpg/sg68_25_cif.got.tgz:48997.got - 2010.06.03 18:57:09.
