data_PCOD9509153
_publ_section_title
;
Structure prediction by ZEFSAII (Michael W. Deem and Ramdas Pophale) SiO2 
 PCOD9509153
Probable space group: C C C A
;
_chemical_formula_sum "Si O2"
_cell_formula_units_Z 104
_cell_length_a 24.758193
_cell_length_b 20.310782
_cell_length_c 8.556235
_cell_angle_alpha 90.000000
_cell_angle_beta 90.000000
_cell_angle_gamma 90.000000
_cell_volume 4302.573451
_symmetry_space_group_name_H-M "C C C A"
_symmetry_group_IT_number 68
_space_group.IT_coordinate_system_code '2'
_symmetry_cell_setting 'orthorhombic'
loop_
_space_group_symop_operation_xyz
x,y,z
-x,1/2-y,z
x,1/2-y,1/2-z
-x,y,1/2-z
-x,-y,-z
x,1/2+y,-z
-x,1/2+y,1/2+z
x,-y,1/2+z
1/2+x,1/2+y,z
1/2-x,-y,z
1/2+x,-y,1/2-z
1/2-x,1/2+y,1/2-z
1/2-x,1/2-y,-z
1/2+x,y,-z
1/2-x,y,1/2+z
1/2+x,1/2-y,1/2+z
loop_
_atom_site_type_symbol
_atom_site_label
_atom_site_fract_x
_atom_site_fract_y
_atom_site_fract_z
Si Si1 0.011159 0.827154 0.565191
Si Si2 0.680704 0.706558 0.876324
Si Si3 0.295588 0.320756 0.623064
Si Si4 0.885824 0.989449 0.226800
Si Si5 0.126661 0.128792 0.114083
Si Si6 0.500000 0.087852 0.250000
Si Si7 0.195638 0.043698 0.536935
O O1 0.074798 0.832467 0.561106
O O2 0.000000 0.750000 0.547492
O O3 0.000000 0.847507 0.750000
O O4 0.990507 0.869966 0.413325
O O5 0.647760 0.750000 0.750000
O O6 0.737824 0.689229 0.797527
O O7 0.690098 0.758327 0.017686
O O8 0.662136 0.639975 0.960505
O O9 0.342799 0.337577 0.742525
O O10 0.287223 0.386159 0.524170
O O11 0.945114 0.955577 0.215674
O O12 0.842917 0.944772 0.316899
O O13 0.890941 0.056890 0.328576
O O14 0.848521 0.013058 0.082668
O O15 0.250000 0.000000 0.563869
#
# Coordination Sequence:
#
# PCOD9509153 Si02
#       7
#    16  16  16  16  16   8  16
#     4  11  29  51  83 116 152 205 259 328 397 456
#     4  11  23  40  67 104 143 192 250 314 381 465
#     4  10  23  40  66 100 146 196 244 307 387 467
#     4  11  27  46  75 110 149 208 253 321 393 463
#     4  11  25  46  71 104 151 194 253 313 389 465
#     4  12  29  54  82 118 161 200 278 322 390 490
#     4  11  24  44  71 105 152 198 257 318 392 471
#
# _framework density 24.171581
#
# number of rings (size 3 to 8) (size 9 to 14) (size 15 to 20)
#    0.000    1.077    0.000    4.846    9.692    8.615 
#    0.000    0.000    0.000    0.000    0.000    0.000 
#    0.000    0.000    0.000    0.000    0.000    0.000 
#
# Total GULP energy -290020.533344 kJ/mol
# GULP energy per Si atom -5577.317949 kJ/mol
# Density = 2.411657 g / cm^3
# Si number density = 24.171581 Si / 1000 Ang^3
#
#
#
# Elastic Constant Matrix: (Units=GPa)
#
#
# Indices 1 2 3 4 5 6 
#
# 1 124.8788 43.4859 28.4362 0.0000 0.0000 0.0000
# 2 43.4859 111.6444 38.0572 0.0000 0.0000 0.0000
# 3 28.4362 38.0572 104.4675 0.0000 0.0000 0.0000
# 4 0.0000 0.0000 0.0000 72.3562 0.0000 0.0000
# 5 0.0000 0.0000 0.0000 0.0000 31.7735 0.0000
# 6 0.0000 0.0000 0.0000 0.0000 0.0000 13.8752
#
#
#
# Elastic Compliance Matrix: (Units=1/GPa)
#
#
# Indices 1 2 3 4 5 6 
#
# 1 0.009441 -0.003199 -0.001405 0.000000 0.000000 0.000000
# 2 -0.003199 0.011311 -0.003250 0.000000 0.000000 0.000000
# 3 -0.001405 -0.003250 0.011139 0.000000 0.000000 0.000000
# 4 0.000000 0.000000 0.000000 0.013821 0.000000 0.000000
# 5 0.000000 0.000000 0.000000 0.000000 0.031473 0.000000
# 6 0.000000 0.000000 0.000000 0.000000 0.000000 0.072071
#
#
# Mechanical properties :
#
#
# Convention : Reuss Voigt Hill
#
# Bulk Modulus (GPa) = 61.78762 62.32770 62.05766
# Shear Modulus (GPa) = 29.35026 39.00172 34.17599
#
# Velocity S-wave (km/s) = 3.48838 4.02124 3.76425
# Velocity P-wave (km/s) = 6.46859 6.88491 6.68000
#
# Compressibility (1/GPa) = 0.01618447
#
# Stress axis : x y z
#
# Youngs Moduli (GPa) = 105.91551 88.41207 89.77785
#
# Poissons Ratio (x) = 0.28280 0.12611
# Poissons Ratio (y) = 0.33879 0.29176
# Poissons Ratio (z) = 0.14878 0.28732
#
# Static dielectric constant tensor:
#      x y z
#    x 2.037470 0.000000 0.000000 
#    y 0.000000 1.800350 0.000000 
#    z 0.000000 0.000000 2.200440 
# 
# From -- ./inp_files/9028.got.cif
#   From: 2010.05.17/outbox.cif.g08.bks.cpg/sg68_5_cif.got.tgz:9028.got - 2010.06.03 18:57:09.
