data_PCOD9509970
_publ_section_title
;
Structure prediction by ZEFSAII (Michael W. Deem and Ramdas Pophale) SiO2 
 PCOD9509970
Probable space group: C C C A
;
_chemical_formula_sum "Si O2"
_cell_formula_units_Z 96
_cell_length_a 22.516732
_cell_length_b 8.693026
_cell_length_c 22.586062
_cell_angle_alpha 90.000000
_cell_angle_beta 90.000000
_cell_angle_gamma 90.000000
_cell_volume 4420.962726
_symmetry_space_group_name_H-M "C C C A"
_symmetry_group_IT_number 68
_space_group.IT_coordinate_system_code '2'
_symmetry_cell_setting 'orthorhombic'
loop_
_space_group_symop_operation_xyz
x,y,z
-x,1/2-y,z
x,1/2-y,1/2-z
-x,y,1/2-z
-x,-y,-z
x,1/2+y,-z
-x,1/2+y,1/2+z
x,-y,1/2+z
1/2+x,1/2+y,z
1/2-x,-y,z
1/2+x,-y,1/2-z
1/2-x,1/2+y,1/2-z
1/2-x,1/2-y,-z
1/2+x,y,-z
1/2-x,y,1/2+z
1/2+x,1/2-y,1/2+z
loop_
_atom_site_type_symbol
_atom_site_label
_atom_site_fract_x
_atom_site_fract_y
_atom_site_fract_z
Si Si1 0.526995 0.014647 0.186941
Si Si2 0.140170 0.203240 0.320385
Si Si3 0.750000 0.000000 0.179160
Si Si4 0.435408 0.819220 0.083072
Si Si5 0.324515 0.750000 0.750000
Si Si6 0.061299 0.652500 0.468144
Si Si7 0.087172 0.332584 0.844964
O O1 0.500000 0.974653 0.250000
O O2 0.465794 0.040605 0.151086
O O3 0.556665 0.181075 0.182363
O O4 0.581566 0.903248 0.176931
O O5 0.148650 0.250000 0.250000
O O6 0.117489 0.330128 0.368042
O O7 0.196354 0.107654 0.345475
O O8 0.786200 0.873953 0.215848
O O9 0.500000 0.750000 0.104120
O O10 0.444765 0.969876 0.041668
O O11 0.416590 0.692259 0.033367
O O12 0.361433 0.648285 0.797610
O O13 0.103142 0.700820 0.412773
O O14 0.000000 0.750000 0.458624
#
# Coordination Sequence:
#
# PCOD9509970 Si02
#       7
#    16  16   8  16   8  16  16
#     4  11  20  35  60  98 135 164 213 276 348 406
#     4  12  28  43  67  99 141 179 228 290 350 407
#     4  12  26  46  66  92 140 184 236 280 350 400
#     4  11  26  41  66 101 141 184 227 280 347 415
#     4  12  24  41  66  96 135 180 228 286 334 412
#     4  11  23  39  66  96 143 181 225 270 342 430
#     4  11  20  35  66  95 126 170 222 273 338 406
#
# _framework density 21.714728999999998
#
# number of rings (size 3 to 8) (size 9 to 14) (size 15 to 20)
#    0.000    0.667    5.833    3.500    9.333    0.000 
#    0.000    0.000    0.000    5.000    0.000    0.000 
#    0.000    0.000    0.000    0.000    0.000    0.000 
#
# Total GULP energy -267261.126685 kJ/mol
# GULP energy per Si atom -5567.940139 kJ/mol
# Density = 2.166530 g / cm^3
# Si number density = 21.714729 Si / 1000 Ang^3
#
#
#
# Elastic Constant Matrix: (Units=GPa)
#
#
# Indices 1 2 3 4 5 6 
#
# 1 91.4991 25.9415 37.2551 0.0000 0.0000 0.0000
# 2 25.9415 81.8300 -9.3166 0.0000 0.0000 0.0000
# 3 37.2551 -9.3166 94.7952 0.0000 0.0000 0.0000
# 4 0.0000 0.0000 0.0000 13.6557 0.0000 0.0000
# 5 0.0000 0.0000 0.0000 0.0000 14.1043 0.0000
# 6 0.0000 0.0000 0.0000 0.0000 0.0000 31.7914
#
#
#
# Elastic Compliance Matrix: (Units=1/GPa)
#
#
# Indices 1 2 3 4 5 6 
#
# 1 0.015145 -0.005541 -0.006497 0.000000 0.000000 0.000000
# 2 -0.005541 0.014386 0.003592 0.000000 0.000000 0.000000
# 3 -0.006497 0.003592 0.013455 0.000000 0.000000 0.000000
# 4 0.000000 0.000000 0.000000 0.073229 0.000000 0.000000
# 5 0.000000 0.000000 0.000000 0.000000 0.070900 0.000000
# 6 0.000000 0.000000 0.000000 0.000000 0.000000 0.031455
#
#
# Mechanical properties :
#
#
# Convention : Reuss Voigt Hill
#
# Bulk Modulus (GPa) = 38.32292 41.76494 40.04393
# Shear Modulus (GPa) = 20.47822 26.19323 23.33572
#
# Velocity S-wave (km/s) = 3.07425 3.47687 3.28174
# Velocity P-wave (km/s) = 5.50346 5.94923 5.73068
#
# Compressibility (1/GPa) = 0.02609404
#
# Stress axis : x y z
#
# Youngs Moduli (GPa) = 66.02714 69.51228 74.32011
#
# Poissons Ratio (x) = 0.38517 0.48284
# Poissons Ratio (y) = 0.36586 -0.26692
# Poissons Ratio (z) = 0.42896 -0.24965
#
# Static dielectric constant tensor:
#      x y z
#    x 1.811490 0.000000 0.000000 
#    y 0.000000 2.099300 0.000000 
#    z 0.000000 0.000000 1.958810 
# 
# From -- ./inp_files/46965.got.cif
#   From: 2010.05.17/outbox.cif.g08.bks.cpg/sg68_24_cif.got.tgz:46965.got - 2010.06.03 18:57:09.
