data_PCOD9509400
_publ_section_title
;
Structure prediction by ZEFSAII (Michael W. Deem and Ramdas Pophale) SiO2 
 PCOD9509400
Probable space group: C C C A
;
_chemical_formula_sum "Si O2"
_cell_formula_units_Z 96
_cell_length_a 19.246150
_cell_length_b 14.720693
_cell_length_c 14.858373
_cell_angle_alpha 90.000000
_cell_angle_beta 90.000000
_cell_angle_gamma 90.000000
_cell_volume 4209.624694
_symmetry_space_group_name_H-M "C C C A"
_symmetry_group_IT_number 68
_space_group.IT_coordinate_system_code '2'
_symmetry_cell_setting 'orthorhombic'
loop_
_space_group_symop_operation_xyz
x,y,z
-x,1/2-y,z
x,1/2-y,1/2-z
-x,y,1/2-z
-x,-y,-z
x,1/2+y,-z
-x,1/2+y,1/2+z
x,-y,1/2+z
1/2+x,1/2+y,z
1/2-x,-y,z
1/2+x,-y,1/2-z
1/2-x,1/2+y,1/2-z
1/2-x,1/2-y,-z
1/2+x,y,-z
1/2-x,y,1/2+z
1/2+x,1/2-y,1/2+z
loop_
_atom_site_type_symbol
_atom_site_label
_atom_site_fract_x
_atom_site_fract_y
_atom_site_fract_z
Si Si1 0.575557 0.933946 0.642153
Si Si2 0.918180 0.458458 0.655692
Si Si3 0.344536 0.178772 0.506616
Si Si4 0.797461 0.128143 0.962766
Si Si5 0.190445 0.074473 0.332903
Si Si6 0.607189 0.830629 0.307695
O O1 0.494478 0.935376 0.619325
O O2 0.586454 0.906979 0.747406
O O3 0.614430 0.878342 0.565980
O O4 0.615800 0.029235 0.645285
O O5 0.854165 0.429657 0.591811
O O6 0.921284 0.567069 0.674667
O O7 0.284210 0.120671 0.557632
O O8 0.317169 0.266493 0.453977
O O9 0.387675 0.210313 0.592514
O O10 0.791380 0.112290 0.069929
O O11 0.175902 0.144922 0.253258
O O12 0.250000 0.000000 0.308439
O O13 0.573457 0.750000 0.250000
#
# Coordination Sequence:
#
# PCOD9509400 Si02
#       6
#    16  16  16  16  16  16
#     4  10  23  46  69 102 138 191 243 298 357 442
#     4  10  25  45  73 101 143 192 247 298 369 442
#     4  11  24  41  68 101 147 183 241 300 362 438
#     4  11  24  41  65 108 139 187 236 304 367 431
#     4  11  22  41  69  97 136 184 239 299 355 437
#     4  11  24  43  67 101 139 188 241 300 369 430
#
# _framework density 22.804883
#
# number of rings (size 3 to 8) (size 9 to 14) (size 15 to 20)
#    0.000    1.333    3.333    1.000    4.667    4.000 
#    0.000    8.333    3.667    0.000    0.000    0.000 
#    0.000    0.000    0.000    0.000    0.000    0.000 
#
# Total GULP energy -267423.990322 kJ/mol
# GULP energy per Si atom -5571.333132 kJ/mol
# Density = 2.275298 g / cm^3
# Si number density = 22.804883 Si / 1000 Ang^3
#
#
#
# Elastic Constant Matrix: (Units=GPa)
#
#
# Indices 1 2 3 4 5 6 
#
# 1 112.9241 64.8353 45.7030 0.0000 0.0000 0.0000
# 2 64.8353 100.1679 47.2301 0.0000 0.0000 0.0000
# 3 45.7030 47.2301 105.5068 0.0000 0.0000 0.0000
# 4 0.0000 0.0000 0.0000 20.2756 0.0000 0.0000
# 5 0.0000 0.0000 0.0000 0.0000 23.4192 0.0000
# 6 0.0000 0.0000 0.0000 0.0000 0.0000 8.7823
#
#
#
# Elastic Compliance Matrix: (Units=1/GPa)
#
#
# Indices 1 2 3 4 5 6 
#
# 1 0.014661 -0.008233 -0.002665 0.000000 0.000000 0.000000
# 2 -0.008233 0.017277 -0.004168 0.000000 0.000000 0.000000
# 3 -0.002665 -0.004168 0.012498 0.000000 0.000000 0.000000
# 4 0.000000 0.000000 0.000000 0.049320 0.000000 0.000000
# 5 0.000000 0.000000 0.000000 0.000000 0.042700 0.000000
# 6 0.000000 0.000000 0.000000 0.000000 0.000000 0.113866
#
#
# Mechanical properties :
#
#
# Convention : Reuss Voigt Hill
#
# Bulk Modulus (GPa) = 69.90816 70.45952 70.18384
# Shear Modulus (GPa) = 17.53010 21.21745 19.37377
#
# Velocity S-wave (km/s) = 2.77555 3.05354 2.91786
# Velocity P-wave (km/s) = 6.40258 6.58756 6.49573
#
# Compressibility (1/GPa) = 0.01430448
#
# Stress axis : x y z
#
# Youngs Moduli (GPa) = 68.20730 57.87932 80.01015
#
# Poissons Ratio (x) = 0.47652 0.21326
# Poissons Ratio (y) = 0.56155 0.33347
# Poissons Ratio (z) = 0.18180 0.24123
#
# Static dielectric constant tensor:
#      x y z
#    x 1.900330 0.000000 0.000000 
#    y 0.000000 1.884370 0.000000 
#    z 0.000000 0.000000 1.943270 
# 
# From -- ./inp_files/24437.got.cif
#   From: 2010.05.17/outbox.cif.g08.bks.cpg/sg68_13_cif.got.tgz:24437.got - 2010.06.03 18:57:09.
