data_PCOD9509271
_publ_section_title
;
Structure prediction by ZEFSAII (Michael W. Deem and Ramdas Pophale) SiO2 
 PCOD9509271
Probable space group: C C C A
;
_chemical_formula_sum "Si O2"
_cell_formula_units_Z 88
_cell_length_a 5.548252
_cell_length_b 22.909659
_cell_length_c 32.265499
_cell_angle_alpha 90.000000
_cell_angle_beta 90.000000
_cell_angle_gamma 90.000000
_cell_volume 4101.221160
_symmetry_space_group_name_H-M "C C C A"
_symmetry_group_IT_number 68
_space_group.IT_coordinate_system_code '2'
_symmetry_cell_setting 'orthorhombic'
loop_
_space_group_symop_operation_xyz
x,y,z
-x,1/2-y,z
x,1/2-y,1/2-z
-x,y,1/2-z
-x,-y,-z
x,1/2+y,-z
-x,1/2+y,1/2+z
x,-y,1/2+z
1/2+x,1/2+y,z
1/2-x,-y,z
1/2+x,-y,1/2-z
1/2-x,1/2+y,1/2-z
1/2-x,1/2-y,-z
1/2+x,y,-z
1/2-x,y,1/2+z
1/2+x,1/2-y,1/2+z
loop_
_atom_site_type_symbol
_atom_site_label
_atom_site_fract_x
_atom_site_fract_y
_atom_site_fract_z
Si Si1 0.250000 0.000000 0.641827
Si Si2 0.142560 0.334891 0.206636
Si Si3 0.500000 0.250000 0.331389
Si Si4 0.431695 0.451293 0.205614
Si Si5 0.540348 0.656067 0.596552
Si Si6 0.968975 0.104336 0.119385
Si Si7 0.000000 0.750000 0.025610
O O1 0.457807 0.035998 0.619582
O O2 0.142811 0.048753 0.672694
O O3 0.279533 0.274592 0.195852
O O4 0.331412 0.387629 0.213247
O O5 0.000000 0.331238 0.250000
O O6 0.023473 0.360813 0.164101
O O7 0.446371 0.302688 0.362778
O O8 0.500000 0.476365 0.250000
O O9 0.250000 0.500000 0.188934
O O10 0.807572 0.629764 0.593186
O O11 0.492719 0.694760 0.556319
O O12 0.304072 0.615609 0.603844
O O13 0.750000 0.750000 0.000000
#
# Coordination Sequence:
#
# PCOD9509271 Si02
#       7
#     8  16   8  16  16  16   8
#     4  12  22  34  62  88 118 170 234 270 328 410
#     4  11  23  41  60  84 118 174 237 289 340 394
#     4   9  22  42  60  80 124 170 208 264 337 406
#     4  12  22  38  55  82 115 160 221 316 364 377
#     4  10  23  43  64  96 136 165 197 260 331 386
#     4  11  23  40  61  91 131 174 216 273 331 379
#     4  11  22  42  77 110 129 162 209 252 309 398
#
# _framework density 21.457023
#
# number of rings (size 3 to 8) (size 9 to 14) (size 15 to 20)
#    0.000    1.091    2.727    4.909    0.000    5.818 
#    0.000    9.545    0.000    0.000    0.000   12.727 
#    0.000    0.000    0.000    0.000    0.000    0.000 
#
# Total GULP energy -245468.751712 kJ/mol
# GULP energy per Si atom -5578.835266 kJ/mol
# Density = 2.140819 g / cm^3
# Si number density = 21.457023 Si / 1000 Ang^3
#
#
#
# Elastic Constant Matrix: (Units=GPa)
#
#
# Indices 1 2 3 4 5 6 
#
# 1 134.5380 53.5478 43.8820 0.0000 0.0000 0.0000
# 2 53.5478 90.2997 26.7416 0.0000 0.0000 0.0000
# 3 43.8820 26.7416 87.7092 0.0000 0.0000 0.0000
# 4 0.0000 0.0000 0.0000 26.9687 0.0000 0.0000
# 5 0.0000 0.0000 0.0000 0.0000 71.4012 0.0000
# 6 0.0000 0.0000 0.0000 0.0000 0.0000 58.6132
#
#
#
# Elastic Compliance Matrix: (Units=1/GPa)
#
#
# Indices 1 2 3 4 5 6 
#
# 1 0.010759 -0.005261 -0.003779 0.000000 0.000000 0.000000
# 2 -0.005261 0.014746 -0.001864 0.000000 0.000000 0.000000
# 3 -0.003779 -0.001864 0.013860 0.000000 0.000000 0.000000
# 4 0.000000 0.000000 0.000000 0.037080 0.000000 0.000000
# 5 0.000000 0.000000 0.000000 0.000000 0.014005 0.000000
# 6 0.000000 0.000000 0.000000 0.000000 0.000000 0.017061
#
#
# Mechanical properties :
#
#
# Convention : Reuss Voigt Hill
#
# Bulk Modulus (GPa) = 56.95430 62.32108 59.63769
# Shear Modulus (GPa) = 36.98976 43.95500 40.47238
#
# Velocity S-wave (km/s) = 4.15649 4.53096 4.34776
# Velocity P-wave (km/s) = 7.04530 7.51535 7.28412
#
# Compressibility (1/GPa) = 0.01755794
#
# Stress axis : x y z
#
# Youngs Moduli (GPa) = 92.94131 67.81468 72.14900
#
# Poissons Ratio (x) = 0.35679 0.27265
# Poissons Ratio (y) = 0.48899 0.13446
# Poissons Ratio (z) = 0.35123 0.12638
#
# Static dielectric constant tensor:
#      x y z
#    x 1.746020 0.000000 0.000000 
#    y 0.000000 1.626320 0.000000 
#    z 0.000000 0.000000 1.766050 
# 
# From -- ./inp_files/53309.got.cif
#   From: 2010.05.17/outbox.cif.g08.bks.cpg/sg68_27_cif.got.tgz:53309.got - 2010.06.03 18:57:09.
