data_PCOD9509377
_publ_section_title
;
Structure prediction by ZEFSAII (Michael W. Deem and Ramdas Pophale) SiO2 
 PCOD9509377
Probable space group: C C C A
;
_chemical_formula_sum "Si O2"
_cell_formula_units_Z 104
_cell_length_a 25.915707
_cell_length_b 8.463167
_cell_length_c 19.825590
_cell_angle_alpha 90.000000
_cell_angle_beta 90.000000
_cell_angle_gamma 90.000000
_cell_volume 4348.325962
_symmetry_space_group_name_H-M "C C C A"
_symmetry_group_IT_number 68
_space_group.IT_coordinate_system_code '2'
_symmetry_cell_setting 'orthorhombic'
loop_
_space_group_symop_operation_xyz
x,y,z
-x,1/2-y,z
x,1/2-y,1/2-z
-x,y,1/2-z
-x,-y,-z
x,1/2+y,-z
-x,1/2+y,1/2+z
x,-y,1/2+z
1/2+x,1/2+y,z
1/2-x,-y,z
1/2+x,-y,1/2-z
1/2-x,1/2+y,1/2-z
1/2-x,1/2-y,-z
1/2+x,y,-z
1/2-x,y,1/2+z
1/2+x,1/2-y,1/2+z
loop_
_atom_site_type_symbol
_atom_site_label
_atom_site_fract_x
_atom_site_fract_y
_atom_site_fract_z
Si Si1 0.438242 0.513038 0.924768
Si Si2 0.362783 0.967534 0.343149
Si Si3 0.871629 0.691801 0.173494
Si Si4 0.714752 0.657059 0.572458
Si Si5 0.000000 0.750000 0.866855
Si Si6 0.750000 0.500000 0.386983
Si Si7 0.115181 0.217506 0.479284
Si Si8 0.584215 0.750000 0.250000
O O1 0.415516 0.575369 0.853648
O O2 0.488688 0.408012 0.910123
O O3 0.396465 0.396597 0.959558
O O4 0.433512 0.657396 0.976555
O O5 0.378303 0.863661 0.407037
O O6 0.380191 0.896500 0.271626
O O7 0.384848 0.138940 0.360060
O O8 0.301420 0.982855 0.343853
O O9 0.868892 0.750000 0.250000
O O10 0.816791 0.637025 0.143148
O O11 0.750000 0.500000 0.562142
O O12 0.743039 0.829414 0.575198
O O13 0.667544 0.683342 0.520214
O O14 0.952403 0.752161 0.815025
#
# Coordination Sequence:
#
# PCOD9509377 Si02
#       8
#    16  16  16  16   8   8  16   8
#     4  11  23  45  71 110 150 191 254 318 393 476
#     4  11  24  46  71 108 148 204 254 323 388 468
#     4  10  23  45  68 101 149 201 251 315 385 457
#     4  10  24  44  69 107 155 203 259 321 387 470
#     4  11  24  44  78 114 134 204 261 316 409 478
#     4  10  24  42  66 112 144 204 260 302 384 466
#     4  11  24  43  70 105 151 201 241 321 404 461
#     4  11  24  48  78 104 150 192 264 323 392 474
#
# _framework density 23.917251
#
# number of rings (size 3 to 8) (size 9 to 14) (size 15 to 20)
#    0.000    1.385    1.538    3.692    5.385    1.231 
#   13.846    0.769    0.000    2.769    0.000    0.000 
#    0.000    0.000    0.000    0.000    0.000    0.000 
#
# Total GULP energy -290222.748369 kJ/mol
# GULP energy per Si atom -5581.206699 kJ/mol
# Density = 2.386281 g / cm^3
# Si number density = 23.917251 Si / 1000 Ang^3
#
#
#
# Elastic Constant Matrix: (Units=GPa)
#
#
# Indices 1 2 3 4 5 6 
#
# 1 104.7230 62.5980 72.0100 0.0000 0.0000 0.0000
# 2 62.5980 150.3485 28.5605 0.0000 0.0000 0.0000
# 3 72.0100 28.5605 109.9444 0.0000 0.0000 0.0000
# 4 0.0000 0.0000 0.0000 47.8008 0.0000 0.0000
# 5 0.0000 0.0000 0.0000 0.0000 49.5194 0.0000
# 6 0.0000 0.0000 0.0000 0.0000 0.0000 43.2402
#
#
#
# Elastic Compliance Matrix: (Units=1/GPa)
#
#
# Indices 1 2 3 4 5 6 
#
# 1 0.022686 -0.006967 -0.013049 0.000000 0.000000 0.000000
# 2 -0.006967 0.009136 0.002190 0.000000 0.000000 0.000000
# 3 -0.013049 0.002190 0.017073 0.000000 0.000000 0.000000
# 4 0.000000 0.000000 0.000000 0.020920 0.000000 0.000000
# 5 0.000000 0.000000 0.000000 0.000000 0.020194 0.000000
# 6 0.000000 0.000000 0.000000 0.000000 0.000000 0.023127
#
#
# Mechanical properties :
#
#
# Convention : Reuss Voigt Hill
#
# Bulk Modulus (GPa) = 75.50877 76.81702 76.16289
# Shear Modulus (GPa) = 32.63665 41.56857 37.10261
#
# Velocity S-wave (km/s) = 3.69801 4.17347 3.94292
# Velocity P-wave (km/s) = 7.06209 7.44388 7.25550
#
# Compressibility (1/GPa) = 0.01324349
#
# Stress axis : x y z
#
# Youngs Moduli (GPa) = 44.08011 109.45931 58.57110
#
# Poissons Ratio (x) = 0.76256 0.76429
# Poissons Ratio (y) = 0.30709 -0.12825
# Poissons Ratio (z) = 0.57519 -0.23968
#
# Static dielectric constant tensor:
#      x y z
#    x 1.922090 0.000000 0.000000 
#    y 0.000000 2.013250 0.000000 
#    z 0.000000 0.000000 1.976160 
# 
# From -- ./inp_files/41362.got.cif
#   From: 2010.05.17/outbox.cif.g08.bks.cpg/sg68_21_cif.got.tgz:41362.got - 2010.06.03 18:57:09.
