data_PCOD9509212
_publ_section_title
;
Structure prediction by ZEFSAII (Michael W. Deem and Ramdas Pophale) SiO2 
 PCOD9509212
Probable space group: C C C A
;
_chemical_formula_sum "Si O2"
_cell_formula_units_Z 80
_cell_length_a 9.795159
_cell_length_b 12.539919
_cell_length_c 27.840790
_cell_angle_alpha 90.000000
_cell_angle_beta 90.000000
_cell_angle_gamma 90.000000
_cell_volume 3419.698169
_symmetry_space_group_name_H-M "C C C A"
_symmetry_group_IT_number 68
_space_group.IT_coordinate_system_code '2'
_symmetry_cell_setting 'orthorhombic'
loop_
_space_group_symop_operation_xyz
x,y,z
-x,1/2-y,z
x,1/2-y,1/2-z
-x,y,1/2-z
-x,-y,-z
x,1/2+y,-z
-x,1/2+y,1/2+z
x,-y,1/2+z
1/2+x,1/2+y,z
1/2-x,-y,z
1/2+x,-y,1/2-z
1/2-x,1/2+y,1/2-z
1/2-x,1/2-y,-z
1/2+x,y,-z
1/2-x,y,1/2+z
1/2+x,1/2-y,1/2+z
loop_
_atom_site_type_symbol
_atom_site_label
_atom_site_fract_x
_atom_site_fract_y
_atom_site_fract_z
Si Si1 0.750000 0.000000 0.514170
Si Si2 0.392041 0.382573 0.591164
Si Si3 0.250000 0.000000 0.735346
Si Si4 0.199094 0.348956 0.427307
Si Si5 0.107432 0.111378 0.658805
Si Si6 0.797266 0.655690 0.321485
O O1 0.630663 0.026713 0.551721
O O2 0.787058 0.095425 0.478381
O O3 0.315747 0.278466 0.568713
O O4 0.553320 0.373557 0.597188
O O5 0.317328 0.386073 0.642017
O O6 0.129696 0.015121 0.696309
O O7 0.234448 0.099198 0.771339
O O8 0.321422 0.390189 0.393265
O O9 0.185217 0.216168 0.680738
O O10 0.945954 0.126089 0.657187
#
# Coordination Sequence:
#
# PCOD9509212 Si02
#       6
#     8  16   8  16  16  16
#     4  12  22  36  64  94 122 160 204 250 306 368
#     4  10  23  42  62  88 123 161 204 254 305 360
#     4  12  22  34  64  96 118 148 200 254 294 350
#     4  10  23  42  62  88 123 161 204 254 305 360
#     4  10  23  43  64  88 123 165 205 248 304 368
#     4  10  23  43  64  88 123 165 205 248 304 368
#
# _framework density 23.393878000000001
#
# number of rings (size 3 to 8) (size 9 to 14) (size 15 to 20)
#    0.000    1.600    0.000    3.600    0.000   11.200 
#    0.000    4.000    0.000    9.600    0.000    0.000 
#    0.000    0.000    0.000    0.000    0.000    0.000 
#
# Total GULP energy -223356.413404 kJ/mol
# GULP energy per Si atom -5583.910335 kJ/mol
# Density = 2.334063 g / cm^3
# Si number density = 23.393878 Si / 1000 Ang^3
#
#
#
# Elastic Constant Matrix: (Units=GPa)
#
#
# Indices 1 2 3 4 5 6 
#
# 1 81.4920 4.3189 60.5730 0.0000 0.0000 0.0000
# 2 4.3189 57.0373 29.8602 0.0000 0.0000 0.0000
# 3 60.5730 29.8602 160.4020 0.0000 0.0000 0.0000
# 4 0.0000 0.0000 0.0000 16.6691 0.0000 0.0000
# 5 0.0000 0.0000 0.0000 0.0000 24.8839 0.0000
# 6 0.0000 0.0000 0.0000 0.0000 0.0000 35.2106
#
#
#
# Elastic Compliance Matrix: (Units=1/GPa)
#
#
# Indices 1 2 3 4 5 6 
#
# 1 0.017338 0.002343 -0.006984 0.000000 0.000000 0.000000
# 2 0.002343 0.019742 -0.004560 0.000000 0.000000 0.000000
# 3 -0.006984 -0.004560 0.009720 0.000000 0.000000 0.000000
# 4 0.000000 0.000000 0.000000 0.059991 0.000000 0.000000
# 5 0.000000 0.000000 0.000000 0.000000 0.040187 0.000000
# 6 0.000000 0.000000 0.000000 0.000000 0.000000 0.028400
#
#
# Mechanical properties :
#
#
# Convention : Reuss Voigt Hill
#
# Bulk Modulus (GPa) = 35.21158 54.27061 44.74109
# Shear Modulus (GPa) = 24.60070 28.96468 26.78269
#
# Velocity S-wave (km/s) = 3.24634 3.52253 3.38725
# Velocity P-wave (km/s) = 5.39777 6.30819 5.87065
#
# Compressibility (1/GPa) = 0.02839975
#
# Stress axis : x y z
#
# Youngs Moduli (GPa) = 57.67739 50.65276 102.87600
#
# Poissons Ratio (x) = -0.11869 0.71844
# Poissons Ratio (y) = -0.13515 0.46912
# Poissons Ratio (z) = 0.40279 0.23098
#
# Static dielectric constant tensor:
#      x y z
#    x 1.876240 0.000000 0.000000 
#    y 0.000000 2.091750 0.000000 
#    z 0.000000 0.000000 1.821980 
# 
# From -- ./inp_files/44139.got.cif
#   From: 2010.05.17/outbox.cif.g08.bks.cpg/sg68_23_cif.got.tgz:44139.got - 2010.06.03 18:57:09.
