data_PCOD9509705
_publ_section_title
;
Structure prediction by ZEFSAII (Michael W. Deem and Ramdas Pophale) SiO2 
 PCOD9509705
Probable space group: C C C A
;
_chemical_formula_sum "Si O2"
_cell_formula_units_Z 88
_cell_length_a 14.394368
_cell_length_b 12.392295
_cell_length_c 23.528860
_cell_angle_alpha 90.000000
_cell_angle_beta 90.000000
_cell_angle_gamma 90.000000
_cell_volume 4197.060508
_symmetry_space_group_name_H-M "C C C A"
_symmetry_group_IT_number 68
_space_group.IT_coordinate_system_code '2'
_symmetry_cell_setting 'orthorhombic'
loop_
_space_group_symop_operation_xyz
x,y,z
-x,1/2-y,z
x,1/2-y,1/2-z
-x,y,1/2-z
-x,-y,-z
x,1/2+y,-z
-x,1/2+y,1/2+z
x,-y,1/2+z
1/2+x,1/2+y,z
1/2-x,-y,z
1/2+x,-y,1/2-z
1/2-x,1/2+y,1/2-z
1/2-x,1/2-y,-z
1/2+x,y,-z
1/2-x,y,1/2+z
1/2+x,1/2-y,1/2+z
loop_
_atom_site_type_symbol
_atom_site_label
_atom_site_fract_x
_atom_site_fract_y
_atom_site_fract_z
Si Si1 0.809458 0.106080 0.153445
Si Si2 0.226536 0.887116 0.050446
Si Si3 0.004374 0.374113 0.316106
Si Si4 0.111556 0.730433 0.543749
Si Si5 0.297589 0.250000 0.250000
Si Si6 0.158330 0.555279 0.323482
O O1 0.841450 0.160300 0.094303
O O2 0.765292 0.190319 0.200226
O O3 0.908807 0.065314 0.173923
O O4 0.750000 0.000000 0.145166
O O5 0.329499 0.838002 0.052856
O O6 0.186556 0.903761 0.113731
O O7 0.250000 0.000000 0.021451
O O8 0.152057 0.820051 0.014474
O O9 0.086008 0.457050 0.330249
O O10 0.000000 0.250000 0.340407
O O11 0.000000 0.357103 0.250000
O O12 0.000000 0.750000 0.541714
O O13 0.357496 0.341728 0.282720
O O14 0.250000 0.500000 0.297455
#
# Coordination Sequence:
#
# PCOD9509705 Si02
#       6
#    16  16  16  16   8  16
#     4  12  25  42  67 103 137 185 233 285 345 426
#     4  10  24  47  70 102 141 176 233 296 346 412
#     4  11  23  41  67 100 136 183 237 286 350 431
#     4  11  25  47  73 101 136 184 233 285 348 420
#     4  12  22  44  72 100 148 188 228 298 354 412
#     4  11  23  42  69 103 139 185 233 295 359 413
#
# _framework density 20.967055999999999
#
# number of rings (size 3 to 8) (size 9 to 14) (size 15 to 20)
#    0.000    0.909    1.818    6.000    7.636    0.727 
#    6.545    4.091    0.000    0.000    0.000    0.000 
#    0.000    0.000    0.000    0.000    0.000    0.000 
#
# Total GULP energy -245028.631710 kJ/mol
# GULP energy per Si atom -5568.832539 kJ/mol
# Density = 2.091933 g / cm^3
# Si number density = 20.967056 Si / 1000 Ang^3
#
#
#
# Elastic Constant Matrix: (Units=GPa)
#
#
# Indices 1 2 3 4 5 6 
#
# 1 177.2659 98.1079 31.7284 0.0000 0.0000 0.0000
# 2 98.1079 143.7369 44.6920 0.0000 0.0000 0.0000
# 3 31.7284 44.6920 88.2834 0.0000 0.0000 0.0000
# 4 0.0000 0.0000 0.0000 -155.5184 0.0000 0.0000
# 5 0.0000 0.0000 0.0000 0.0000 5.7103 0.0000
# 6 0.0000 0.0000 0.0000 0.0000 0.0000 41.3839
#
#
#
# Elastic Compliance Matrix: (Units=1/GPa)
#
#
# Indices 1 2 3 4 5 6 
#
# 1 0.009068 -0.006143 -0.000149 0.000000 0.000000 0.000000
# 2 -0.006143 0.012418 -0.004079 0.000000 0.000000 0.000000
# 3 -0.000149 -0.004079 0.013446 0.000000 0.000000 0.000000
# 4 0.000000 0.000000 0.000000 -0.006430 0.000000 0.000000
# 5 0.000000 0.000000 0.000000 0.000000 0.175122 0.000000
# 6 0.000000 0.000000 0.000000 0.000000 0.000000 0.024164
#
#
# Mechanical properties :
#
#
# Convention : Reuss Voigt Hill
#
# Bulk Modulus (GPa) = 70.47269 84.26030 77.36650
# Shear Modulus (GPa) = 19.74269 -6.03431 6.85419
#
# Velocity S-wave (km/s) = 3.07189 -1.69831 1.81001
# Velocity P-wave (km/s) = 6.80192 6.03561 6.43019
#
# Compressibility (1/GPa) = 0.01418989
#
# Stress axis : x y z
#
# Youngs Moduli (GPa) = 110.28207 80.52739 74.37370
#
# Poissons Ratio (x) = 0.49466 0.01109
# Poissons Ratio (y) = 0.67744 0.30336
# Poissons Ratio (z) = 0.01645 0.32846
#
# Static dielectric constant tensor:
#      x y z
#    x 1.746860 0.000000 0.000000 
#    y 0.000000 1.815030 0.000000 
#    z 0.000000 0.000000 1.768140 
# 
# From -- ./inp_files/45307.got.cif
#   From: 2010.05.17/outbox.cif.g08.bks.cpg/sg68_23_cif.got.tgz:45307.got - 2010.06.03 18:57:09.
