data_PCOD9509106
_publ_section_title
;
Structure prediction by ZEFSAII (Michael W. Deem and Ramdas Pophale) SiO2 
 PCOD9509106
Probable space group: C C C A
;
_chemical_formula_sum "Si O2"
_cell_formula_units_Z 80
_cell_length_a 19.513908
_cell_length_b 15.417008
_cell_length_c 12.601456
_cell_angle_alpha 90.000000
_cell_angle_beta 90.000000
_cell_angle_gamma 90.000000
_cell_volume 3791.098586
_symmetry_space_group_name_H-M "C C C A"
_symmetry_group_IT_number 68
_space_group.IT_coordinate_system_code '2'
_symmetry_cell_setting 'orthorhombic'
loop_
_space_group_symop_operation_xyz
x,y,z
-x,1/2-y,z
x,1/2-y,1/2-z
-x,y,1/2-z
-x,-y,-z
x,1/2+y,-z
-x,1/2+y,1/2+z
x,-y,1/2+z
1/2+x,1/2+y,z
1/2-x,-y,z
1/2+x,-y,1/2-z
1/2-x,1/2+y,1/2-z
1/2-x,1/2-y,-z
1/2+x,y,-z
1/2-x,y,1/2+z
1/2+x,1/2-y,1/2+z
loop_
_atom_site_type_symbol
_atom_site_label
_atom_site_fract_x
_atom_site_fract_y
_atom_site_fract_z
Si Si1 0.250000 0.500000 0.777077
Si Si2 0.067345 0.201535 0.639413
Si Si3 0.500000 0.045207 0.250000
Si Si4 0.128891 0.003287 0.880546
Si Si5 0.314807 0.369978 0.946517
Si Si6 0.173316 0.684401 0.542920
O O1 0.188282 0.468003 0.702070
O O2 0.282352 0.427858 0.854028
O O3 0.081821 0.250000 0.750000
O O4 0.043166 0.106420 0.671051
O O5 0.132804 0.199553 0.566713
O O6 0.000000 0.250000 0.592265
O O7 0.556046 0.000819 0.176997
O O8 0.144661 0.904317 0.910079
O O9 0.135719 0.069411 0.981004
O O10 0.339447 0.277135 0.900926
O O11 0.252472 0.338846 0.022252
#
# Coordination Sequence:
#
# PCOD9509106 Si02
#       6
#     8  16   8  16  16  16
#     4  12  22  44  70  92 140 178 218 288 330 406
#     4   9  19  40  63  98 129 179 230 281 335 407
#     4  10  23  38  70  95 134 184 226 274 341 409
#     4  12  24  46  64 104 135 177 232 279 337 419
#     4  11  23  42  66 100 130 175 226 281 339 399
#     4  11  22  41  67  98 135 173 223 288 335 395
#
# _framework density 21.102062
#
# number of rings (size 3 to 8) (size 9 to 14) (size 15 to 20)
#    0.000    1.400    4.000    3.600    0.000    1.600 
#    3.600    0.000    0.000    0.000    0.000    0.000 
#    0.000    0.000    0.000    0.000    0.000    0.000 
#
# Total GULP energy -223223.624979 kJ/mol
# GULP energy per Si atom -5580.590624 kJ/mol
# Density = 2.105403 g / cm^3
# Si number density = 21.102062 Si / 1000 Ang^3
#
#
#
# Elastic Constant Matrix: (Units=GPa)
#
#
# Indices 1 2 3 4 5 6 
#
# 1 85.7407 25.6257 28.9991 0.0000 0.0000 0.0000
# 2 25.6257 127.8047 30.3453 0.0000 0.0000 0.0000
# 3 28.9991 30.3453 52.9208 0.0000 0.0000 0.0000
# 4 0.0000 0.0000 0.0000 -6.9316 0.0000 0.0000
# 5 0.0000 0.0000 0.0000 0.0000 42.7354 0.0000
# 6 0.0000 0.0000 0.0000 0.0000 0.0000 50.6913
#
#
#
# Elastic Compliance Matrix: (Units=1/GPa)
#
#
# Indices 1 2 3 4 5 6 
#
# 1 0.014468 -0.001179 -0.007252 0.000000 0.000000 0.000000
# 2 -0.001179 0.009154 -0.004603 0.000000 0.000000 0.000000
# 3 -0.007252 -0.004603 0.025509 0.000000 0.000000 0.000000
# 4 0.000000 0.000000 0.000000 -0.144267 0.000000 0.000000
# 5 0.000000 0.000000 0.000000 0.000000 0.023400 0.000000
# 6 0.000000 0.000000 0.000000 0.000000 0.000000 0.019727
#
#
# Mechanical properties :
#
#
# Convention : Reuss Voigt Hill
#
# Bulk Modulus (GPa) = 43.35851 48.48958 45.92405
# Shear Modulus (GPa) = -273.92423 29.39878 -122.26272
#
# Velocity S-wave (km/s) = -11.40575 3.73657 -7.62001
# Velocity P-wave (km/s) = 12.36378 6.45325 7.45717
#
# Compressibility (1/GPa) = 0.02306352
#
# Stress axis : x y z
#
# Youngs Moduli (GPa) = 69.11681 109.24555 39.20131
#
# Poissons Ratio (x) = 0.12881 0.28429
# Poissons Ratio (y) = 0.08149 0.18043
# Poissons Ratio (z) = 0.50124 0.50283
#
# Static dielectric constant tensor:
#      x y z
#    x 1.798370 0.000000 0.000000 
#    y 0.000000 1.872340 0.000000 
#    z 0.000000 0.000000 1.719820 
# 
# From -- ./inp_files/15361.got.cif
#   From: 2010.05.17/outbox.cif.g08.bks.cpg/sg68_8_cif.got.tgz:15361.got - 2010.06.03 18:57:09.
