data_PCOD9509105
_publ_section_title
;
Structure prediction by ZEFSAII (Michael W. Deem and Ramdas Pophale) SiO2 
 PCOD9509105
Probable space group: C C C A
;
_chemical_formula_sum "Si O2"
_cell_formula_units_Z 116
_cell_length_a 30.761225
_cell_length_b 8.251727
_cell_length_c 22.760245
_cell_angle_alpha 90.000000
_cell_angle_beta 90.000000
_cell_angle_gamma 90.000000
_cell_volume 5777.306524
_symmetry_space_group_name_H-M "C C C A"
_symmetry_group_IT_number 68
_space_group.IT_coordinate_system_code '2'
_symmetry_cell_setting 'orthorhombic'
loop_
_space_group_symop_operation_xyz
x,y,z
-x,1/2-y,z
x,1/2-y,1/2-z
-x,y,1/2-z
-x,-y,-z
x,1/2+y,-z
-x,1/2+y,1/2+z
x,-y,1/2+z
1/2+x,1/2+y,z
1/2-x,-y,z
1/2+x,-y,1/2-z
1/2-x,1/2+y,1/2-z
1/2-x,1/2-y,-z
1/2+x,y,-z
1/2-x,y,1/2+z
1/2+x,1/2-y,1/2+z
loop_
_atom_site_type_symbol
_atom_site_label
_atom_site_fract_x
_atom_site_fract_y
_atom_site_fract_z
Si Si1 0.492420 0.053013 0.433515
Si Si2 0.603544 0.534071 0.959893
Si Si3 0.796006 0.437125 0.270701
Si Si4 0.643275 0.824910 0.133361
Si Si5 0.000000 0.250000 0.250000
Si Si6 0.380393 0.889448 0.583118
Si Si7 0.060943 0.096742 0.154190
Si Si8 0.800373 0.004930 0.360302
O O1 0.500000 0.250000 0.426021
O O2 0.442441 0.001748 0.427948
O O3 0.500000 0.000000 0.500000
O O4 0.523676 0.943914 0.393703
O O5 0.637806 0.421809 0.926676
O O6 0.609409 0.719549 0.944734
O O7 0.606552 0.510913 0.029950
O O8 0.790106 0.250000 0.250000
O O9 0.750000 0.500000 0.295751
O O10 0.836428 0.436623 0.315195
O O11 0.804482 0.529801 0.209475
O O12 0.597130 0.739403 0.148651
O O13 0.678004 0.680014 0.128236
O O14 0.032263 0.137857 0.211151
O O15 0.407859 0.940655 0.640934
O O16 0.330359 0.890899 0.601035
O O17 0.750000 0.000000 0.374860
#
# Coordination Sequence:
#
# PCOD9509105 Si02
#       8
#    16  16  16  16   4  16  16  16
#     4  12  24  41  69  99 130 174 235 288 333 397
#     4  12  23  41  63  99 126 171 218 284 334 406
#     4   9  19  38  65  94 127 170 226 269 324 400
#     4  10  23  38  66  96 135 169 222 275 341 404
#     4  12  28  40  74  92 136 192 230 270 356 416
#     4  11  23  41  66  92 135 166 224 276 344 394
#     4  11  24  43  64  96 132 181 224 277 334 414
#     4   9  20  40  65  91 128 174 222 273 329 410
#
# _framework density 20.078562000000002
#
# number of rings (size 3 to 8) (size 9 to 14) (size 15 to 20)
#    0.000    1.379    2.759    2.483    7.724    3.310 
#    0.000    3.793    0.000    0.000    0.000    0.000 
#    0.000    0.000    0.000    0.000    0.000    0.000 
#
# Total GULP energy -323125.490514 kJ/mol
# GULP energy per Si atom -5571.129147 kJ/mol
# Density = 2.003286 g / cm^3
# Si number density = 20.078562 Si / 1000 Ang^3
#
#
#
# Elastic Constant Matrix: (Units=GPa)
#
#
# Indices 1 2 3 4 5 6 
#
# 1 151.7900 30.4102 63.6712 0.0000 0.0000 0.0000
# 2 30.4102 45.3957 33.8530 0.0000 0.0000 0.0000
# 3 63.6712 33.8530 83.3883 0.0000 0.0000 0.0000
# 4 0.0000 0.0000 0.0000 24.9522 0.0000 0.0000
# 5 0.0000 0.0000 0.0000 0.0000 31.7312 0.0000
# 6 0.0000 0.0000 0.0000 0.0000 0.0000 34.4955
#
#
#
# Elastic Compliance Matrix: (Units=1/GPa)
#
#
# Indices 1 2 3 4 5 6 
#
# 1 0.009755 -0.001406 -0.006877 0.000000 0.000000 0.000000
# 2 -0.001406 0.031796 -0.011835 0.000000 0.000000 0.000000
# 3 -0.006877 -0.011835 0.022048 0.000000 0.000000 0.000000
# 4 0.000000 0.000000 0.000000 0.040077 0.000000 0.000000
# 5 0.000000 0.000000 0.000000 0.000000 0.031515 0.000000
# 6 0.000000 0.000000 0.000000 0.000000 0.000000 0.028989
#
#
# Mechanical properties :
#
#
# Convention : Reuss Voigt Hill
#
# Bulk Modulus (GPa) = 42.80383 59.60477 51.20430
# Shear Modulus (GPa) = 23.56247 28.41175 25.98711
#
# Velocity S-wave (km/s) = 3.42938 3.76577 3.60150
# Velocity P-wave (km/s) = 6.08648 6.97555 6.54613
#
# Compressibility (1/GPa) = 0.02336239
#
# Stress axis : x y z
#
# Youngs Moduli (GPa) = 102.51642 31.45076 45.35600
#
# Poissons Ratio (x) = 0.04421 0.31193
# Poissons Ratio (y) = 0.14412 0.53677
# Poissons Ratio (z) = 0.70504 0.37221
#
# Static dielectric constant tensor:
#      x y z
#    x 1.902040 0.000000 0.000000 
#    y 0.000000 1.875640 0.000000 
#    z 0.000000 0.000000 2.071930 
# 
# From -- ./inp_files/47598.got.cif
#   From: 2010.05.17/outbox.cif.g08.bks.cpg/sg68_24_cif.got.tgz:47598.got - 2010.06.03 18:57:09.
