data_PCOD9509508
_publ_section_title
;
Structure prediction by ZEFSAII (Michael W. Deem and Ramdas Pophale) SiO2 
 PCOD9509508
Probable space group: C C C A
;
_chemical_formula_sum "Si O2"
_cell_formula_units_Z 64
_cell_length_a 8.667408
_cell_length_b 22.031750
_cell_length_c 16.188798
_cell_angle_alpha 90.000000
_cell_angle_beta 90.000000
_cell_angle_gamma 90.000000
_cell_volume 3091.383179
_symmetry_space_group_name_H-M "C C C A"
_symmetry_group_IT_number 68
_space_group.IT_coordinate_system_code '2'
_symmetry_cell_setting 'orthorhombic'
loop_
_space_group_symop_operation_xyz
x,y,z
-x,1/2-y,z
x,1/2-y,1/2-z
-x,y,1/2-z
-x,-y,-z
x,1/2+y,-z
-x,1/2+y,1/2+z
x,-y,1/2+z
1/2+x,1/2+y,z
1/2-x,-y,z
1/2+x,-y,1/2-z
1/2-x,1/2+y,1/2-z
1/2-x,1/2-y,-z
1/2+x,y,-z
1/2-x,y,1/2+z
1/2+x,1/2-y,1/2+z
loop_
_atom_site_type_symbol
_atom_site_label
_atom_site_fract_x
_atom_site_fract_y
_atom_site_fract_z
Si Si1 0.137906 0.356978 0.388414
Si Si2 0.822548 0.239628 0.650771
Si Si3 0.250000 0.500000 0.638756
Si Si4 0.000000 0.938109 0.750000
Si Si5 0.793750 0.622633 0.948132
O O1 0.191309 0.287951 0.375368
O O2 0.113553 0.394467 0.303640
O O3 0.263381 0.378156 0.454519
O O4 0.974607 0.367615 0.432384
O O5 0.823994 0.250000 0.750000
O O6 0.779328 0.176160 0.607933
O O7 0.000000 0.250000 0.623419
O O8 0.395929 0.480855 0.693468
O O9 0.273705 0.559613 0.584761
#
# Coordination Sequence:
#
# PCOD9509508 Si02
#       5
#    16  16   8   8  16
#     4  11  23  42  64  94 127 167 212 264 323 374
#     4  11  23  40  65  95 127 166 212 264 318 375
#     4  10  24  42  62  94 124 168 212 254 320 380
#     4  10  24  42  67  92 127 172 212 264 318 384
#     4  11  24  40  63  92 127 165 211 264 318 381
#
# _framework density 20.702707
#
# number of rings (size 3 to 8) (size 9 to 14) (size 15 to 20)
#    0.000    1.250    0.000    6.000    0.000   12.000 
#    0.000    0.000    0.000    0.000    0.000    0.000 
#    0.000    0.000    0.000    0.000    0.000    0.000 
#
# Total GULP energy -178443.883064 kJ/mol
# GULP energy per Si atom -5576.371346 kJ/mol
# Density = 2.065559 g / cm^3
# Si number density = 20.702707 Si / 1000 Ang^3
#
#
#
# Elastic Constant Matrix: (Units=GPa)
#
#
# Indices 1 2 3 4 5 6 
#
# 1 59.6265 28.3201 -0.5492 0.0000 0.0000 0.0000
# 2 28.3201 167.7580 42.8153 0.0000 0.0000 0.0000
# 3 -0.5492 42.8153 76.5340 0.0000 0.0000 0.0000
# 4 0.0000 0.0000 0.0000 11.6836 0.0000 0.0000
# 5 0.0000 0.0000 0.0000 0.0000 29.1075 0.0000
# 6 0.0000 0.0000 0.0000 0.0000 0.0000 38.5208
#
#
#
# Elastic Compliance Matrix: (Units=1/GPa)
#
#
# Indices 1 2 3 4 5 6 
#
# 1 0.018545 -0.003692 0.002198 0.000000 0.000000 0.000000
# 2 -0.003692 0.007689 -0.004328 0.000000 0.000000 0.000000
# 3 0.002198 -0.004328 0.015503 0.000000 0.000000 0.000000
# 4 0.000000 0.000000 0.000000 0.085590 0.000000 0.000000
# 5 0.000000 0.000000 0.000000 0.000000 0.034355 0.000000
# 6 0.000000 0.000000 0.000000 0.000000 0.000000 0.025960
#
#
# Mechanical properties :
#
#
# Convention : Reuss Voigt Hill
#
# Bulk Modulus (GPa) = 33.22912 49.45453 41.34182
# Shear Modulus (GPa) = 23.88736 31.41787 27.65261
#
# Velocity S-wave (km/s) = 3.40049 3.89983 3.65869
# Velocity P-wave (km/s) = 5.61277 6.64967 6.15310
#
# Compressibility (1/GPa) = 0.03009409
#
# Stress axis : x y z
#
# Youngs Moduli (GPa) = 53.92372 130.06063 64.50379
#
# Poissons Ratio (x) = 0.48014 -0.14180
# Poissons Ratio (y) = 0.19907 0.27916
# Poissons Ratio (z) = -0.11854 0.56288
#
# Static dielectric constant tensor:
#      x y z
#    x 1.761580 0.000000 0.000000 
#    y 0.000000 1.734070 0.000000 
#    z 0.000000 0.000000 1.840200 
# 
# From -- ./inp_files/27897.got.cif
#   From: 2010.05.17/outbox.cif.g08.bks.cpg/sg68_14_cif.got.tgz:27897.got - 2010.06.03 18:57:09.
