data_PCOD9509009
_publ_section_title
;
Structure prediction by ZEFSAII (Michael W. Deem and Ramdas Pophale) SiO2 
 PCOD9509009
Probable space group: C C C A
;
_chemical_formula_sum "Si O2"
_cell_formula_units_Z 108
_cell_length_a 13.681893
_cell_length_b 32.948481
_cell_length_c 11.526897
_cell_angle_alpha 90.000000
_cell_angle_beta 90.000000
_cell_angle_gamma 90.000000
_cell_volume 5196.297406
_symmetry_space_group_name_H-M "C C C A"
_symmetry_group_IT_number 68
_space_group.IT_coordinate_system_code '2'
_symmetry_cell_setting 'orthorhombic'
loop_
_space_group_symop_operation_xyz
x,y,z
-x,1/2-y,z
x,1/2-y,1/2-z
-x,y,1/2-z
-x,-y,-z
x,1/2+y,-z
-x,1/2+y,1/2+z
x,-y,1/2+z
1/2+x,1/2+y,z
1/2-x,-y,z
1/2+x,-y,1/2-z
1/2-x,1/2+y,1/2-z
1/2-x,1/2-y,-z
1/2+x,y,-z
1/2-x,y,1/2+z
1/2+x,1/2-y,1/2+z
loop_
_atom_site_type_symbol
_atom_site_label
_atom_site_fract_x
_atom_site_fract_y
_atom_site_fract_z
Si Si1 0.750000 0.500000 0.561269
Si Si2 0.403898 0.446477 0.305279
Si Si3 0.996448 0.622417 0.032266
Si Si4 0.000000 0.250000 0.750000
Si Si5 0.319046 0.653460 0.114099
Si Si6 0.320680 0.579897 0.563490
Si Si7 0.377831 0.303072 0.072436
Si Si8 0.890782 0.292236 0.199648
O O1 0.665430 0.520672 0.637085
O O2 0.710396 0.463304 0.484393
O O3 0.500000 0.466654 0.250000
O O4 0.436613 0.410347 0.392146
O O5 0.354703 0.425747 0.195211
O O6 0.089083 0.596444 0.984748
O O7 0.058960 0.656288 0.100137
O O8 0.923293 0.647502 0.949775
O O9 0.075334 0.227581 0.836909
O O10 0.265906 0.611976 0.077036
O O11 0.237650 0.686825 0.077705
O O12 0.339066 0.667743 0.246414
O O13 0.394345 0.291253 0.938574
O O14 0.847297 0.250000 0.250000
O O15 0.000000 0.293714 0.250000
#
# Coordination Sequence:
#
# PCOD9509009 Si02
#       8
#     8  16  16   4  16  16  16  16
#     4  12  22  44  66 102 140 176 242 292 348 432
#     4  10  23  42  66  95 137 178 228 290 349 411
#     4  10  22  45  67  97 136 181 228 288 348 424
#     4  12  28  48  70 108 142 184 240 306 352 432
#     4  11  24  44  72  98 138 186 232 292 358 433
#     4  10  24  41  70 102 130 188 233 287 357 420
#     4  11  27  44  72 103 136 185 241 288 357 434
#     4  11  24  45  67 101 143 181 227 297 359 418
#
# _framework density 20.784029
#
# number of rings (size 3 to 8) (size 9 to 14) (size 15 to 20)
#    0.000    1.333    2.963    1.333    8.296    2.963 
#    2.667    0.000    0.000    0.000    0.000    0.000 
#    0.000    0.000    0.000    0.000    0.000    0.000 
#
# Total GULP energy -300860.261849 kJ/mol
# GULP energy per Si atom -5571.486331 kJ/mol
# Density = 2.073672 g / cm^3
# Si number density = 20.784029 Si / 1000 Ang^3
#
#
#
# Elastic Constant Matrix: (Units=GPa)
#
#
# Indices 1 2 3 4 5 6 
#
# 1 96.7798 59.3021 45.5886 0.0000 0.0000 0.0000
# 2 59.3021 111.9570 62.5286 0.0000 0.0000 0.0000
# 3 45.5886 62.5286 115.7270 0.0000 0.0000 0.0000
# 4 0.0000 0.0000 0.0000 16.8615 0.0000 0.0000
# 5 0.0000 0.0000 0.0000 0.0000 24.7791 0.0000
# 6 0.0000 0.0000 0.0000 0.0000 0.0000 22.0462
#
#
#
# Elastic Compliance Matrix: (Units=1/GPa)
#
#
# Indices 1 2 3 4 5 6 
#
# 1 0.015762 -0.006991 -0.002432 0.000000 0.000000 0.000000
# 2 -0.006991 0.015893 -0.005833 0.000000 0.000000 0.000000
# 3 -0.002432 -0.005833 0.012751 0.000000 0.000000 0.000000
# 4 0.000000 0.000000 0.000000 0.059307 0.000000 0.000000
# 5 0.000000 0.000000 0.000000 0.000000 0.040357 0.000000
# 6 0.000000 0.000000 0.000000 0.000000 0.000000 0.045359
#
#
# Mechanical properties :
#
#
# Convention : Reuss Voigt Hill
#
# Bulk Modulus (GPa) = 71.97451 73.25583 72.61517
# Shear Modulus (GPa) = 22.26472 23.20699 22.73586
#
# Velocity S-wave (km/s) = 3.27653 3.34515 3.31102
# Velocity P-wave (km/s) = 7.00137 7.08821 7.04492
#
# Compressibility (1/GPa) = 0.01389381
#
# Stress axis : x y z
#
# Youngs Moduli (GPa) = 63.44446 62.92219 78.42631
#
# Poissons Ratio (x) = 0.43986 0.19074
# Poissons Ratio (y) = 0.44351 0.45748
# Poissons Ratio (z) = 0.15430 0.36704
#
# Static dielectric constant tensor:
#      x y z
#    x 1.816910 0.000000 0.000000 
#    y 0.000000 1.768240 0.000000 
#    z 0.000000 0.000000 1.723860 
# 
# From -- ./inp_files/13640.got.cif
#   From: 2010.05.17/outbox.cif.g08.bks.cpg/sg68_7_cif.got.tgz:13640.got - 2010.06.03 18:57:09.
