data_PCOD9509361
_publ_section_title
;
Structure prediction by ZEFSAII (Michael W. Deem and Ramdas Pophale) SiO2 
 PCOD9509361
Probable space group: C C C A
;
_chemical_formula_sum "Si O2"
_cell_formula_units_Z 48
_cell_length_a 4.897497
_cell_length_b 13.528726
_cell_length_c 29.348530
_cell_angle_alpha 90.000000
_cell_angle_beta 90.000000
_cell_angle_gamma 90.000000
_cell_volume 1944.542471
_symmetry_space_group_name_H-M "C C C A"
_symmetry_group_IT_number 68
_space_group.IT_coordinate_system_code '2'
_symmetry_cell_setting 'orthorhombic'
loop_
_space_group_symop_operation_xyz
x,y,z
-x,1/2-y,z
x,1/2-y,1/2-z
-x,y,1/2-z
-x,-y,-z
x,1/2+y,-z
-x,1/2+y,1/2+z
x,-y,1/2+z
1/2+x,1/2+y,z
1/2-x,-y,z
1/2+x,-y,1/2-z
1/2-x,1/2+y,1/2-z
1/2-x,1/2-y,-z
1/2+x,y,-z
1/2-x,y,1/2+z
1/2+x,1/2-y,1/2+z
loop_
_atom_site_type_symbol
_atom_site_label
_atom_site_fract_x
_atom_site_fract_y
_atom_site_fract_z
Si Si1 0.931144 0.857329 0.031246
Si Si2 0.734523 0.680561 0.163067
Si Si3 0.000000 0.931471 0.750000
Si Si4 0.750000 0.500000 0.093516
O O1 0.000000 0.750000 0.053454
O O2 0.023249 0.950669 0.060634
O O3 0.122520 0.858223 0.986062
O O4 0.500000 0.750000 0.144937
O O5 0.638126 0.635325 0.211365
O O6 0.726336 0.590235 0.128460
O O7 0.000000 0.750000 0.167912
O O8 0.250000 0.000000 0.768357
#
# Coordination Sequence:
#
# PCOD9509361 Si02
#       4
#    16  16   8   8
#     4  10  23  44  72 106 144 195 247 301 369 448
#     4  12  29  49  76 111 151 197 247 312 378 447
#     4  12  25  52  81 106 146 204 257 306 383 460
#     4  12  26  48  76 108 154 188 256 302 386 432
#
# _framework density 24.684472
#
# number of rings (size 3 to 8) (size 9 to 14) (size 15 to 20)
#    0.000    0.667    1.667    4.500    0.000   10.667 
#    0.000    0.000    0.000    0.000    0.000    0.000 
#    0.000    0.000    0.000    0.000    0.000    0.000 
#
# Total GULP energy -134282.986093 kJ/mol
# GULP energy per Si atom -5595.124421 kJ/mol
# Density = 2.462829 g / cm^3
# Si number density = 24.684472 Si / 1000 Ang^3
#
#
#
# Elastic Constant Matrix: (Units=GPa)
#
#
# Indices 1 2 3 4 5 6 
#
# 1 136.7119 95.4058 23.4027 0.0000 0.0000 0.0000
# 2 95.4058 241.8416 79.1230 0.0000 0.0000 0.0000
# 3 23.4027 79.1230 94.9222 0.0000 0.0000 0.0000
# 4 0.0000 0.0000 0.0000 69.3185 0.0000 0.0000
# 5 0.0000 0.0000 0.0000 0.0000 114.5636 0.0000
# 6 0.0000 0.0000 0.0000 0.0000 0.0000 49.1987
#
#
#
# Elastic Compliance Matrix: (Units=1/GPa)
#
#
# Indices 1 2 3 4 5 6 
#
# 1 0.010184 -0.004395 0.001152 0.000000 0.000000 0.000000
# 2 -0.004395 0.007582 -0.005236 0.000000 0.000000 0.000000
# 3 0.001152 -0.005236 0.014616 0.000000 0.000000 0.000000
# 4 0.000000 0.000000 0.000000 0.014426 0.000000 0.000000
# 5 0.000000 0.000000 0.000000 0.000000 0.008729 0.000000
# 6 0.000000 0.000000 0.000000 0.000000 0.000000 0.020326
#
#
# Mechanical properties :
#
#
# Convention : Reuss Voigt Hill
#
# Bulk Modulus (GPa) = 64.83287 96.59318 80.71303
# Shear Modulus (GPa) = 51.04060 64.98578 58.01319
#
# Velocity S-wave (km/s) = 4.55215 5.13651 4.85313
# Velocity P-wave (km/s) = 7.34514 8.62522 8.01079
#
# Compressibility (1/GPa) = 0.01542427
#
# Stress axis : x y z
#
# Youngs Moduli (GPa) = 98.19076 131.89492 68.41977
#
# Poissons Ratio (x) = 0.57963 -0.07884
# Poissons Ratio (y) = 0.43151 0.35827
# Poissons Ratio (z) = -0.11315 0.69065
#
# Static dielectric constant tensor:
#      x y z
#    x 1.928490 0.000000 0.000000 
#    y 0.000000 1.879300 0.000000 
#    z 0.000000 0.000000 1.988070 
# 
# From -- ./inp_files/47845.got.cif
#   From: 2010.05.17/outbox.cif.g08.bks.cpg/sg68_24_cif.got.tgz:47845.got - 2010.06.03 18:57:09.
