data_PCOD9509587
_publ_section_title
;
Structure prediction by ZEFSAII (Michael W. Deem and Ramdas Pophale) SiO2 
 PCOD9509587
Probable space group: C C C A
;
_chemical_formula_sum "Si O2"
_cell_formula_units_Z 60
_cell_length_a 26.979155
_cell_length_b 17.106423
_cell_length_c 5.097363
_cell_angle_alpha 90.000000
_cell_angle_beta 90.000000
_cell_angle_gamma 90.000000
_cell_volume 2352.518852
_symmetry_space_group_name_H-M "C C C A"
_symmetry_group_IT_number 68
_space_group.IT_coordinate_system_code '2'
_symmetry_cell_setting 'orthorhombic'
loop_
_space_group_symop_operation_xyz
x,y,z
-x,1/2-y,z
x,1/2-y,1/2-z
-x,y,1/2-z
-x,-y,-z
x,1/2+y,-z
-x,1/2+y,1/2+z
x,-y,1/2+z
1/2+x,1/2+y,z
1/2-x,-y,z
1/2+x,-y,1/2-z
1/2-x,1/2+y,1/2-z
1/2-x,1/2-y,-z
1/2+x,y,-z
1/2-x,y,1/2+z
1/2+x,1/2-y,1/2+z
loop_
_atom_site_type_symbol
_atom_site_label
_atom_site_fract_x
_atom_site_fract_y
_atom_site_fract_z
Si Si1 0.947833 0.946332 0.183332
Si Si2 0.362703 0.166169 0.115578
Si Si3 0.805158 0.032989 0.735891
Si Si4 0.075198 0.750000 0.750000
Si Si5 0.500000 0.250000 0.250000
O O1 0.902246 0.891826 0.250276
O O2 0.000000 0.901073 0.250000
O O3 0.948845 0.017751 0.393607
O O4 0.356985 0.250000 0.250000
O O5 0.311722 0.118258 0.142846
O O6 0.387107 0.180980 0.832386
O O7 0.828937 0.023620 0.451448
O O8 0.750000 0.000000 0.689532
O O9 0.042302 0.763557 0.489759
#
# Coordination Sequence:
#
# PCOD9509587 Si02
#       5
#    16  16  16   8   4
#     4  10  24  44  66  96 140 200 254 298 353 446
#     4  12  27  43  74 114 152 195 257 331 389 448
#     4  10  24  49  79 105 144 202 253 310 398 486
#     4  11  26  42  66 106 153 204 243 314 372 463
#     4  10  24  46  60  98 158 210 234 282 394 450
#
# _framework density 25.504580000000001
#
# number of rings (size 3 to 8) (size 9 to 14) (size 15 to 20)
#    0.000    1.333    1.333    1.600    9.333    0.533 
#    4.800    5.333    0.000    0.000    0.000    0.000 
#    0.000    0.000    0.000    0.000    0.000    0.000 
#
# Total GULP energy -167316.997484 kJ/mol
# GULP energy per Si atom -5577.233249 kJ/mol
# Density = 2.544653 g / cm^3
# Si number density = 25.504580 Si / 1000 Ang^3
#
#
#
# Elastic Constant Matrix: (Units=GPa)
#
#
# Indices 1 2 3 4 5 6 
#
# 1 108.0906 54.1386 5.8778 0.0000 0.0000 0.0000
# 2 54.1386 92.8106 18.5148 0.0000 0.0000 0.0000
# 3 5.8778 18.5148 171.4139 0.0000 0.0000 0.0000
# 4 0.0000 0.0000 0.0000 53.5167 0.0000 0.0000
# 5 0.0000 0.0000 0.0000 0.0000 35.1037 0.0000
# 6 0.0000 0.0000 0.0000 0.0000 0.0000 57.0187
#
#
#
# Elastic Compliance Matrix: (Units=1/GPa)
#
#
# Indices 1 2 3 4 5 6 
#
# 1 0.013095 -0.007715 0.000384 0.000000 0.000000 0.000000
# 2 -0.007715 0.015558 -0.001416 0.000000 0.000000 0.000000
# 3 0.000384 -0.001416 0.005974 0.000000 0.000000 0.000000
# 4 0.000000 0.000000 0.000000 0.018686 0.000000 0.000000
# 5 0.000000 0.000000 0.000000 0.000000 0.028487 0.000000
# 6 0.000000 0.000000 0.000000 0.000000 0.000000 0.017538
#
#
# Mechanical properties :
#
#
# Convention : Reuss Voigt Hill
#
# Bulk Modulus (GPa) = 58.36861 58.81972 58.59417
# Shear Modulus (GPa) = 40.80258 48.71340 44.75799
#
# Velocity S-wave (km/s) = 4.00411 4.37508 4.19370
# Velocity P-wave (km/s) = 6.65675 6.97383 6.81713
#
# Compressibility (1/GPa) = 0.01713250
#
# Stress axis : x y z
#
# Youngs Moduli (GPa) = 76.36579 64.27747 167.40367
#
# Poissons Ratio (x) = 0.49591 -0.06434
# Poissons Ratio (y) = 0.58918 0.23702
# Poissons Ratio (z) = -0.02935 0.09101
#
# Static dielectric constant tensor:
#      x y z
#    x 2.478310 0.000000 0.000000 
#    y 0.000000 1.941770 0.000000 
#    z 0.000000 0.000000 2.099800 
# 
# From -- ./inp_files/2602.got.cif
#   From: 2010.05.17/outbox.cif.g08.bks.cpg/sg68_2_cif.got.tgz:2602.got - 2010.06.03 18:57:09.
