data_PCOD9509314
_publ_section_title
;
Structure prediction by ZEFSAII (Michael W. Deem and Ramdas Pophale) SiO2 
 PCOD9509314
Probable space group: C C C A
;
_chemical_formula_sum "Si O2"
_cell_formula_units_Z 112
_cell_length_a 13.285686
_cell_length_b 11.982627
_cell_length_c 33.554041
_cell_angle_alpha 90.000000
_cell_angle_beta 90.000000
_cell_angle_gamma 90.000000
_cell_volume 5341.716750
_symmetry_space_group_name_H-M "C C C A"
_symmetry_group_IT_number 68
_space_group.IT_coordinate_system_code '2'
_symmetry_cell_setting 'orthorhombic'
loop_
_space_group_symop_operation_xyz
x,y,z
-x,1/2-y,z
x,1/2-y,1/2-z
-x,y,1/2-z
-x,-y,-z
x,1/2+y,-z
-x,1/2+y,1/2+z
x,-y,1/2+z
1/2+x,1/2+y,z
1/2-x,-y,z
1/2+x,-y,1/2-z
1/2-x,1/2+y,1/2-z
1/2-x,1/2-y,-z
1/2+x,y,-z
1/2-x,y,1/2+z
1/2+x,1/2-y,1/2+z
loop_
_atom_site_type_symbol
_atom_site_label
_atom_site_fract_x
_atom_site_fract_y
_atom_site_fract_z
Si Si1 0.896835 0.683994 0.583571
Si Si2 0.567580 0.854503 0.575654
Si Si3 0.068049 0.521364 0.367905
Si Si4 0.714227 0.771642 0.871274
Si Si5 0.429801 0.480991 0.210934
Si Si6 0.803552 0.123009 0.498065
Si Si7 0.765088 0.174562 0.211559
O O1 0.896237 0.601392 0.621537
O O2 0.796402 0.751320 0.594565
O O3 0.874542 0.631017 0.540763
O O4 0.000000 0.750000 0.582783
O O5 0.500000 0.750000 0.561820
O O6 0.498676 0.950771 0.593127
O O7 0.625580 0.810826 0.614831
O O8 0.636822 0.887535 0.539320
O O9 0.160036 0.608325 0.369203
O O10 0.002485 0.529340 0.327672
O O11 0.758800 0.743530 0.828812
O O12 0.500000 0.482491 0.250000
O O13 0.344265 0.385489 0.214372
O O14 0.358528 0.589791 0.208284
O O15 0.750000 0.250000 0.500000
O O16 0.750000 0.000000 0.493262
O O17 0.779351 0.250000 0.250000
#
# Coordination Sequence:
#
# PCOD9509314 Si02
#       7
#    16  16  16  16  16  16  16
#     4  12  27  45  70 102 144 187 237 291 362 427
#     4  10  23  43  73 101 138 182 237 291 358 423
#     4  11  24  43  73 103 132 184 231 296 354 434
#     4  11  22  45  71 100 136 178 233 289 358 429
#     4  11  25  44  66  99 136 176 233 287 355 426
#     4  12  27  46  73 105 147 194 244 302 365 433
#     4  11  25  43  68  97 135 180 229 289 352 425
#
# _framework density 20.967043
#
# number of rings (size 3 to 8) (size 9 to 14) (size 15 to 20)
#    0.000    0.857    2.857    3.429    6.000    3.429 
#    0.000    0.000    0.000    0.000    0.000    0.000 
#    0.000    0.000    0.000    0.000    0.000    0.000 
#
# Total GULP energy -312431.003404 kJ/mol
# GULP energy per Si atom -5579.125061 kJ/mol
# Density = 2.091932 g / cm^3
# Si number density = 20.967043 Si / 1000 Ang^3
#
#
#
# Elastic Constant Matrix: (Units=GPa)
#
#
# Indices 1 2 3 4 5 6 
#
# 1 110.3756 38.6219 59.2556 0.0000 0.0000 0.0000
# 2 38.6219 71.4924 42.4238 0.0000 0.0000 0.0000
# 3 59.2556 42.4238 153.1429 0.0000 0.0000 0.0000
# 4 0.0000 0.0000 0.0000-1103.8583 0.0000 0.0000
# 5 0.0000 0.0000 0.0000 0.0000 42.5614 0.0000
# 6 0.0000 0.0000 0.0000 0.0000 0.0000 16.9234
#
#
#
# Elastic Compliance Matrix: (Units=1/GPa)
#
#
# Indices 1 2 3 4 5 6 
#
# 1 0.012627 -0.004694 -0.003586 0.000000 0.000000 0.000000
# 2 -0.004694 0.018484 -0.003304 0.000000 0.000000 0.000000
# 3 -0.003586 -0.003304 0.008833 0.000000 0.000000 0.000000
# 4 0.000000 0.000000 0.000000 -0.000906 0.000000 0.000000
# 5 0.000000 0.000000 0.000000 0.000000 0.023495 0.000000
# 6 0.000000 0.000000 0.000000 0.000000 0.000000 0.059090
#
#
# Mechanical properties :
#
#
# Convention : Reuss Voigt Hill
#
# Bulk Modulus (GPa) = 59.60733 68.40151 64.00442
# Shear Modulus (GPa) = 33.24843 -195.89405 -81.32281
#
# Velocity S-wave (km/s) = 3.98646 -9.67638 -6.23460
# Velocity P-wave (km/s) = 7.04840 9.59942 4.60809
#
# Compressibility (1/GPa) = 0.01677646
#
# Stress axis : x y z
#
# Youngs Moduli (GPa) = 79.19303 54.10078 113.21728
#
# Poissons Ratio (x) = 0.25394 0.40595
# Poissons Ratio (y) = 0.37172 0.37410
# Poissons Ratio (z) = 0.28395 0.17876
#
# Static dielectric constant tensor:
#      x y z
#    x 1.742080 0.000000 0.000000 
#    y 0.000000 1.787190 0.000000 
#    z 0.000000 0.000000 1.703910 
# 
# From -- ./inp_files/55267.got.cif
#   From: 2010.05.17/outbox.cif.g08.bks.cpg/sg68_28_cif.got.tgz:55267.got - 2010.06.03 18:57:09.
