data_PCOD9509459
_publ_section_title
;
Structure prediction by ZEFSAII (Michael W. Deem and Ramdas Pophale) SiO2 
 PCOD9509459
Probable space group: C C C A
;
_chemical_formula_sum "Si O2"
_cell_formula_units_Z 76
_cell_length_a 24.661887
_cell_length_b 11.270047
_cell_length_c 13.342671
_cell_angle_alpha 90.000000
_cell_angle_beta 90.000000
_cell_angle_gamma 90.000000
_cell_volume 3708.470325
_symmetry_space_group_name_H-M "C C C A"
_symmetry_group_IT_number 68
_space_group.IT_coordinate_system_code '2'
_symmetry_cell_setting 'orthorhombic'
loop_
_space_group_symop_operation_xyz
x,y,z
-x,1/2-y,z
x,1/2-y,1/2-z
-x,y,1/2-z
-x,-y,-z
x,1/2+y,-z
-x,1/2+y,1/2+z
x,-y,1/2+z
1/2+x,1/2+y,z
1/2-x,-y,z
1/2+x,-y,1/2-z
1/2-x,1/2+y,1/2-z
1/2-x,1/2-y,-z
1/2+x,y,-z
1/2-x,y,1/2+z
1/2+x,1/2-y,1/2+z
loop_
_atom_site_type_symbol
_atom_site_label
_atom_site_fract_x
_atom_site_fract_y
_atom_site_fract_z
Si Si1 0.682090 0.750000 0.250000
Si Si2 0.061898 0.106831 0.711531
Si Si3 0.258157 0.858248 0.918587
Si Si4 0.500000 0.750000 0.250000
Si Si5 0.409486 0.874884 0.119789
Si Si6 0.115129 0.162341 0.890137
O O1 0.718764 0.828223 0.174611
O O2 0.643662 0.668627 0.179926
O O3 0.093750 0.064379 0.811952
O O4 0.085399 0.224713 0.659056
O O5 0.000000 0.114431 0.750000
O O6 0.076810 0.012114 0.628048
O O7 0.320366 0.840854 0.885871
O O8 0.250000 0.000000 0.949204
O O9 0.250000 0.750000 0.000000
O O10 0.460424 0.819513 0.176520
O O11 0.402663 0.844449 0.004084
#
# Coordination Sequence:
#
# PCOD9509459 Si02
#       6
#     8  16  16   4  16  16
#     4  11  24  47  70 106 147 182 257 316 368 458
#     4  11  25  46  70 108 144 188 246 305 368 461
#     4  12  27  47  74 109 148 199 254 315 386 456
#     4  10  24  40  60 108 136 184 238 300 362 444
#     4  11  24  43  71 100 144 190 239 304 376 437
#     4  11  25  44  72 100 143 189 247 296 376 437
#
# _framework density 20.493625000000002
#
# number of rings (size 3 to 8) (size 9 to 14) (size 15 to 20)
#    0.000    0.842    3.158    3.789    5.895    5.053 
#    0.000    0.000    0.000    0.000    0.000    0.000 
#    0.000    0.000    0.000    0.000    0.000    0.000 
#
# Total GULP energy -211731.711531 kJ/mol
# GULP energy per Si atom -5571.887146 kJ/mol
# Density = 2.044698 g / cm^3
# Si number density = 20.493625 Si / 1000 Ang^3
#
#
#
# Elastic Constant Matrix: (Units=GPa)
#
#
# Indices 1 2 3 4 5 6 
#
# 1 171.2670 39.3476 70.5887 0.0000 0.0000 0.0000
# 2 39.3476 106.0239 54.5154 0.0000 0.0000 0.0000
# 3 70.5887 54.5154 171.7082 0.0000 0.0000 0.0000
# 4 0.0000 0.0000 0.0000 33.5143 0.0000 0.0000
# 5 0.0000 0.0000 0.0000 0.0000 -33.0275 0.0000
# 6 0.0000 0.0000 0.0000 0.0000 0.0000 11.1769
#
#
#
# Elastic Compliance Matrix: (Units=1/GPa)
#
#
# Indices 1 2 3 4 5 6 
#
# 1 0.007193 -0.001373 -0.002521 0.000000 0.000000 0.000000
# 2 -0.001373 0.011534 -0.003097 0.000000 0.000000 0.000000
# 3 -0.002521 -0.003097 0.007844 0.000000 0.000000 0.000000
# 4 0.000000 0.000000 0.000000 0.029838 0.000000 0.000000
# 5 0.000000 0.000000 0.000000 0.000000 -0.030278 0.000000
# 6 0.000000 0.000000 0.000000 0.000000 0.000000 0.089471
#
#
# Mechanical properties :
#
#
# Convention : Reuss Voigt Hill
#
# Bulk Modulus (GPa) = 79.44401 86.43361 82.93881
# Shear Modulus (GPa) = 37.37432 21.30257 29.33845
#
# Velocity S-wave (km/s) = 4.27512 3.22758 3.78774
# Velocity P-wave (km/s) = 7.95099 7.49381 7.72578
#
# Compressibility (1/GPa) = 0.01258748
#
# Stress axis : x y z
#
# Youngs Moduli (GPa) = 139.01497 86.69945 127.49120
#
# Poissons Ratio (x) = 0.11906 0.32143
# Poissons Ratio (y) = 0.19091 0.39489
# Poissons Ratio (z) = 0.35049 0.26854
#
# Static dielectric constant tensor:
#      x y z
#    x 1.712630 0.000000 0.000000 
#    y 0.000000 1.564150 0.000000 
#    z 0.000000 0.000000 1.706700 
# 
# From -- ./inp_files/25188.got.cif
#   From: 2010.05.17/outbox.cif.g08.bks.cpg/sg68_13_cif.got.tgz:25188.got - 2010.06.03 18:57:09.
