data_PCOD9509690
_publ_section_title
;
Structure prediction by ZEFSAII (Michael W. Deem and Ramdas Pophale) SiO2 
 PCOD9509690
Probable space group: C C C A
;
_chemical_formula_sum "Si O2"
_cell_formula_units_Z 108
_cell_length_a 13.990855
_cell_length_b 33.467958
_cell_length_c 9.979175
_cell_angle_alpha 90.000000
_cell_angle_beta 90.000000
_cell_angle_gamma 90.000000
_cell_volume 4672.702266
_symmetry_space_group_name_H-M "C C C A"
_symmetry_group_IT_number 68
_space_group.IT_coordinate_system_code '2'
_symmetry_cell_setting 'orthorhombic'
loop_
_space_group_symop_operation_xyz
x,y,z
-x,1/2-y,z
x,1/2-y,1/2-z
-x,y,1/2-z
-x,-y,-z
x,1/2+y,-z
-x,1/2+y,1/2+z
x,-y,1/2+z
1/2+x,1/2+y,z
1/2-x,-y,z
1/2+x,-y,1/2-z
1/2-x,1/2+y,1/2-z
1/2-x,1/2-y,-z
1/2+x,y,-z
1/2-x,y,1/2+z
1/2+x,1/2-y,1/2+z
loop_
_atom_site_type_symbol
_atom_site_label
_atom_site_fract_x
_atom_site_fract_y
_atom_site_fract_z
Si Si1 0.000000 0.750000 0.750000
Si Si2 0.724915 0.276816 0.874417
Si Si3 0.000000 0.904364 0.250000
Si Si4 0.807802 0.102247 0.422722
Si Si5 0.485284 0.453242 0.980738
Si Si6 0.886826 0.337878 0.865888
Si Si7 0.031119 0.818086 0.942221
Si Si8 0.130662 0.601465 0.623799
O O1 0.970767 0.785257 0.858832
O O2 0.693296 0.250000 0.750000
O O3 0.810225 0.305322 0.826027
O O4 0.637677 0.302438 0.926973
O O5 0.750000 0.250000 0.000000
O O6 0.989717 0.931116 0.379943
O O7 0.910109 0.874820 0.229407
O O8 0.852115 0.141584 0.494454
O O9 0.812213 0.107751 0.262474
O O10 0.707581 0.098413 0.502524
O O11 0.879633 0.064581 0.448995
O O12 0.500000 0.500000 0.000000
O O13 0.565177 0.437811 0.876881
O O14 0.986858 0.318449 0.910600
O O15 0.050960 0.863551 0.895173
#
# Coordination Sequence:
#
# PCOD9509690 Si02
#       8
#     4  16   8  16  16  16  16  16
#     4  12  24  40  66 102 144 190 260 322 374 440
#     4  12  29  47  69 108 149 195 251 316 382 433
#     4  10  24  46  76 110 140 202 250 300 382 460
#     4  11  26  45  74 113 141 199 249 298 376 451
#     4  11  27  49  78 113 152 190 245 318 386 459
#     4  11  25  46  75 103 152 194 261 305 376 458
#     4  12  24  44  70 102 144 194 250 310 373 440
#     4  12  26  46  78 105 152 197 248 307 375 460
#
# _framework density 23.112963000000001
#
# number of rings (size 3 to 8) (size 9 to 14) (size 15 to 20)
#    0.000    0.593    5.185    2.222   10.370    0.593 
#    0.000    1.481    0.000    0.000    0.000    0.000 
#    0.000    0.000    0.000    0.000    0.000    0.000 
#
# Total GULP energy -301575.261297 kJ/mol
# GULP energy per Si atom -5584.727061 kJ/mol
# Density = 2.306036 g / cm^3
# Si number density = 23.112963 Si / 1000 Ang^3
#
#
#
# Elastic Constant Matrix: (Units=GPa)
#
#
# Indices 1 2 3 4 5 6 
#
# 1 96.4186 24.9696 22.6966 0.0000 0.0000 0.0000
# 2 24.9696 132.1482 11.7285 0.0000 0.0000 0.0000
# 3 22.6966 11.7285 95.3865 0.0000 0.0000 0.0000
# 4 0.0000 0.0000 0.0000 17.8438 0.0000 0.0000
# 5 0.0000 0.0000 0.0000 0.0000 34.9874 0.0000
# 6 0.0000 0.0000 0.0000 0.0000 0.0000 29.4513
#
#
#
# Elastic Compliance Matrix: (Units=1/GPa)
#
#
# Indices 1 2 3 4 5 6 
#
# 1 0.011461 -0.001945 -0.002488 0.000000 0.000000 0.000000
# 2 -0.001945 0.007981 -0.000519 0.000000 0.000000 0.000000
# 3 -0.002488 -0.000519 0.011139 0.000000 0.000000 0.000000
# 4 0.000000 0.000000 0.000000 0.056042 0.000000 0.000000
# 5 0.000000 0.000000 0.000000 0.000000 0.028582 0.000000
# 6 0.000000 0.000000 0.000000 0.000000 0.000000 0.033954
#
#
# Mechanical properties :
#
#
# Convention : Reuss Voigt Hill
#
# Bulk Modulus (GPa) = 48.35933 49.19363 48.77648
# Shear Modulus (GPa) = 30.12881 34.09373 32.11127
#
# Velocity S-wave (km/s) = 3.61438 3.84486 3.73140
# Velocity P-wave (km/s) = 6.19571 6.40631 6.30189
#
# Compressibility (1/GPa) = 0.02067853
#
# Stress axis : x y z
#
# Youngs Moduli (GPa) = 87.25467 125.30159 89.77139
#
# Poissons Ratio (x) = 0.24368 0.22334
# Poissons Ratio (y) = 0.16969 0.04655
# Poissons Ratio (z) = 0.21708 0.06498
#
# Static dielectric constant tensor:
#      x y z
#    x 5.208890 0.000000 0.000000 
#    y 0.000000 2.425450 0.000000 
#    z 0.000000 0.000000 1.967420 
# 
# From -- ./inp_files/13644.got.cif
#   From: 2010.05.17/outbox.cif.g08.bks.cpg/sg68_7_cif.got.tgz:13644.got - 2010.06.03 18:57:09.
