data_PCOD9509859
_publ_section_title
;
Structure prediction by ZEFSAII (Michael W. Deem and Ramdas Pophale) SiO2 
 PCOD9509859
Probable space group: C C C A
;
_chemical_formula_sum "Si O2"
_cell_formula_units_Z 72
_cell_length_a 9.495855
_cell_length_b 29.593115
_cell_length_c 13.483126
_cell_angle_alpha 90.000000
_cell_angle_beta 90.000000
_cell_angle_gamma 90.000000
_cell_volume 3788.919247
_symmetry_space_group_name_H-M "C C C A"
_symmetry_group_IT_number 68
_space_group.IT_coordinate_system_code '2'
_symmetry_cell_setting 'orthorhombic'
loop_
_space_group_symop_operation_xyz
x,y,z
-x,1/2-y,z
x,1/2-y,1/2-z
-x,y,1/2-z
-x,-y,-z
x,1/2+y,-z
-x,1/2+y,1/2+z
x,-y,1/2+z
1/2+x,1/2+y,z
1/2-x,-y,z
1/2+x,-y,1/2-z
1/2-x,1/2+y,1/2-z
1/2-x,1/2-y,-z
1/2+x,y,-z
1/2-x,y,1/2+z
1/2+x,1/2-y,1/2+z
loop_
_atom_site_type_symbol
_atom_site_label
_atom_site_fract_x
_atom_site_fract_y
_atom_site_fract_z
Si Si1 0.750000 0.000000 0.503061
Si Si2 0.562579 0.150732 0.390736
Si Si3 0.688005 0.300890 0.279043
Si Si4 0.132299 0.281835 0.051452
Si Si5 0.001223 0.454864 0.869985
O O1 0.635839 0.024110 0.429490
O O2 0.855750 0.028891 0.575616
O O3 0.428271 0.179600 0.354059
O O4 0.683511 0.165401 0.312957
O O5 0.609817 0.171575 0.493553
O O6 0.521802 0.098922 0.383494
O O7 0.649223 0.250000 0.250000
O O8 0.830358 0.295368 0.337655
O O9 0.000000 0.250000 0.048109
O O10 0.250000 0.250000 0.000000
O O11 0.000000 0.464681 0.750000
#
# Coordination Sequence:
#
# PCOD9509859 Si02
#       5
#     8  16  16  16  16
#     4  10  26  44  68 102 130 164 218 272 350 414
#     4  11  22  38  64  90 120 171 215 256 318 386
#     4  11  21  39  59  84 126 172 207 248 309 376
#     4  12  23  37  58  86 126 167 212 263 308 365
#     4  11  23  44  71  96 132 171 214 275 342 405
#
# _framework density 19.002780999999999
#
# number of rings (size 3 to 8) (size 9 to 14) (size 15 to 20)
#    0.000    0.889    6.667    2.000    3.111    0.444 
#    0.000    0.000    0.000    2.667    0.000    0.000 
#    0.000    0.000    0.000    0.000    0.000    0.000 
#
# Total GULP energy -200633.488305 kJ/mol
# GULP energy per Si atom -5573.152453 kJ/mol
# Density = 1.895953 g / cm^3
# Si number density = 19.002781 Si / 1000 Ang^3
#
#
#
# Elastic Constant Matrix: (Units=GPa)
#
#
# Indices 1 2 3 4 5 6 
#
# 1 122.1801 59.2569 64.6636 0.0000 0.0000 0.0000
# 2 59.2569 143.1643 73.4581 0.0000 0.0000 0.0000
# 3 64.6636 73.4581 120.5754 0.0000 0.0000 0.0000
# 4 0.0000 0.0000 0.0000 29.6301 0.0000 0.0000
# 5 0.0000 0.0000 0.0000 0.0000 33.6337 0.0000
# 6 0.0000 0.0000 0.0000 0.0000 0.0000 12.7580
#
#
#
# Elastic Compliance Matrix: (Units=1/GPa)
#
#
# Indices 1 2 3 4 5 6 
#
# 1 0.011977 -0.002417 -0.004951 0.000000 0.000000 0.000000
# 2 -0.002417 0.010649 -0.005191 0.000000 0.000000 0.000000
# 3 -0.004951 -0.005191 0.014111 0.000000 0.000000 0.000000
# 4 0.000000 0.000000 0.000000 0.033749 0.000000 0.000000
# 5 0.000000 0.000000 0.000000 0.000000 0.029732 0.000000
# 6 0.000000 0.000000 0.000000 0.000000 0.000000 0.078382
#
#
# Mechanical properties :
#
#
# Convention : Reuss Voigt Hill
#
# Bulk Modulus (GPa) = 86.06545 86.74188 86.40366
# Shear Modulus (GPa) = 24.08560 27.77377 25.92968
#
# Velocity S-wave (km/s) = 3.56403 3.82719 3.69795
# Velocity P-wave (km/s) = 7.89466 8.07935 7.98754
#
# Compressibility (1/GPa) = 0.01161906
#
# Stress axis : x y z
#
# Youngs Moduli (GPa) = 83.49289 93.90306 70.86522
#
# Poissons Ratio (x) = 0.22699 0.35082
# Poissons Ratio (y) = 0.20183 0.36790
# Poissons Ratio (z) = 0.41333 0.48750
#
# Static dielectric constant tensor:
#      x y z
#    x 4.192560 0.000000 0.000000 
#    y 0.000000 1.605320 0.000000 
#    z 0.000000 0.000000 1.721140 
# 
# From -- ./inp_files/19466.got.cif
#   From: 2010.05.17/outbox.cif.g08.bks.cpg/sg68_10_cif.got.tgz:19466.got - 2010.06.03 18:57:09.
