data_PCOD9509483
_publ_section_title
;
Structure prediction by ZEFSAII (Michael W. Deem and Ramdas Pophale) SiO2 
 PCOD9509483
Probable space group: C C C A
;
_chemical_formula_sum "Si O2"
_cell_formula_units_Z 52
_cell_length_a 12.056828
_cell_length_b 8.817301
_cell_length_c 18.237146
_cell_angle_alpha 90.000000
_cell_angle_beta 90.000000
_cell_angle_gamma 90.000000
_cell_volume 1938.766947
_symmetry_space_group_name_H-M "C C C A"
_symmetry_group_IT_number 68
_space_group.IT_coordinate_system_code '2'
_symmetry_cell_setting 'orthorhombic'
loop_
_space_group_symop_operation_xyz
x,y,z
-x,1/2-y,z
x,1/2-y,1/2-z
-x,y,1/2-z
-x,-y,-z
x,1/2+y,-z
-x,1/2+y,1/2+z
x,-y,1/2+z
1/2+x,1/2+y,z
1/2-x,-y,z
1/2+x,-y,1/2-z
1/2-x,1/2+y,1/2-z
1/2-x,1/2-y,-z
1/2+x,y,-z
1/2-x,y,1/2+z
1/2+x,1/2-y,1/2+z
loop_
_atom_site_type_symbol
_atom_site_label
_atom_site_fract_x
_atom_site_fract_y
_atom_site_fract_z
Si Si1 0.500000 0.750000 0.250000
Si Si2 0.571549 0.513752 0.850646
Si Si3 0.372745 0.230661 0.942647
Si Si4 0.653461 0.686466 0.613714
O O1 0.426518 0.625554 0.206148
O O2 0.636299 0.444660 0.920239
O O3 0.632909 0.670537 0.832575
O O4 0.444788 0.568478 0.867444
O O5 0.500000 0.250000 0.921053
O O6 0.285550 0.333969 0.898053
O O7 0.368944 0.242481 0.029837
#
# Coordination Sequence:
#
# PCOD9509483 Si02
#       4
#     4  16  16  16
#     4  12  28  46  76  92 146 190 268 302 348 392
#     4  11  23  47  65 104 142 191 240 306 342 436
#     4  11  21  41  72 111 148 177 222 294 373 451
#     4  10  24  40  75 110 143 185 228 294 384 440
#
# _framework density 26.821169999999999
#
# number of rings (size 3 to 8) (size 9 to 14) (size 15 to 20)
#    0.000    1.231    4.615    1.846    0.000    3.692 
#    0.000    6.154    0.000    0.000    0.000    0.000 
#    0.000    0.000    0.000    0.000    0.000    0.000 
#
# Total GULP energy -144837.290899 kJ/mol
# GULP energy per Si atom -5570.665035 kJ/mol
# Density = 2.676012 g / cm^3
# Si number density = 26.821170 Si / 1000 Ang^3
#
#
#
# Elastic Constant Matrix: (Units=GPa)
#
#
# Indices 1 2 3 4 5 6 
#
# 1 217.1335 43.3748 2.3003 0.0000 0.0000 0.0000
# 2 43.3748 150.7142 47.1968 0.0000 0.0000 0.0000
# 3 2.3003 47.1968 62.7266 0.0000 0.0000 0.0000
# 4 0.0000 0.0000 0.0000 26.0514 0.0000 0.0000
# 5 0.0000 0.0000 0.0000 0.0000 -4.6528 0.0000
# 6 0.0000 0.0000 0.0000 0.0000 0.0000 51.3527
#
#
#
# Elastic Compliance Matrix: (Units=1/GPa)
#
#
# Indices 1 2 3 4 5 6 
#
# 1 0.004951 -0.001790 0.001165 0.000000 0.000000 0.000000
# 2 -0.001790 0.009327 -0.006952 0.000000 0.000000 0.000000
# 3 0.001165 -0.006952 0.021131 0.000000 0.000000 0.000000
# 4 0.000000 0.000000 0.000000 0.038386 0.000000 0.000000
# 5 0.000000 0.000000 0.000000 0.000000 -0.214925 0.000000
# 6 0.000000 0.000000 0.000000 0.000000 0.000000 0.019473
#
#
# Mechanical properties :
#
#
# Convention : Reuss Voigt Hill
#
# Bulk Modulus (GPa) = 49.37182 68.47976 58.92579
# Shear Modulus (GPa) = -50.12401 37.06376 -6.53012
#
# Velocity S-wave (km/s) = -4.32768 3.72140 -1.56204
# Velocity P-wave (km/s) = 2.55421 6.63721 4.33177
#
# Compressibility (1/GPa) = 0.02025447
#
# Stress axis : x y z
#
# Youngs Moduli (GPa) = 201.99540 107.21240 47.32470
#
# Poissons Ratio (x) = 0.19186 -0.05513
# Poissons Ratio (y) = 0.36149 0.32902
# Poissons Ratio (z) = -0.23532 0.74538
#
# Static dielectric constant tensor:
#      x y z
#    x 2.260430 0.000000 0.000000 
#    y 0.000000 2.382740 0.000000 
#    z 0.000000 0.000000 2.206770 
# 
# From -- ./inp_files/38109.got.cif
#   From: 2010.05.17/outbox.cif.g08.bks.cpg/sg68_20_cif.got.tgz:38109.got - 2010.06.03 18:57:09.
