data_PCOD9509034
_publ_section_title
;
Structure prediction by ZEFSAII (Michael W. Deem and Ramdas Pophale) SiO2 
 PCOD9509034
Probable space group: C C C A
;
_chemical_formula_sum "Si O2"
_cell_formula_units_Z 80
_cell_length_a 14.603685
_cell_length_b 23.297741
_cell_length_c 11.067005
_cell_angle_alpha 90.000000
_cell_angle_beta 90.000000
_cell_angle_gamma 90.000000
_cell_volume 3765.358882
_symmetry_space_group_name_H-M "C C C A"
_symmetry_group_IT_number 68
_space_group.IT_coordinate_system_code '2'
_symmetry_cell_setting 'orthorhombic'
loop_
_space_group_symop_operation_xyz
x,y,z
-x,1/2-y,z
x,1/2-y,1/2-z
-x,y,1/2-z
-x,-y,-z
x,1/2+y,-z
-x,1/2+y,1/2+z
x,-y,1/2+z
1/2+x,1/2+y,z
1/2-x,-y,z
1/2+x,-y,1/2-z
1/2-x,1/2+y,1/2-z
1/2-x,1/2-y,-z
1/2+x,y,-z
1/2-x,y,1/2+z
1/2+x,1/2-y,1/2+z
loop_
_atom_site_type_symbol
_atom_site_label
_atom_site_fract_x
_atom_site_fract_y
_atom_site_fract_z
Si Si1 0.608894 0.683286 0.229645
Si Si2 0.876076 0.096941 0.467340
Si Si3 0.323200 0.400907 0.567894
Si Si4 0.358388 0.490739 0.751809
Si Si5 0.453725 0.897254 0.642549
O O1 0.627800 0.750000 0.250000
O O2 0.500000 0.673666 0.250000
O O3 0.629431 0.659321 0.096261
O O4 0.664260 0.645619 0.326905
O O5 0.782082 0.086049 0.538523
O O6 0.886215 0.053902 0.355463
O O7 0.963618 0.090958 0.551078
O O8 0.370007 0.458913 0.622685
O O9 0.372332 0.378725 0.446666
O O10 0.250000 0.500000 0.764950
O O11 0.410203 0.548711 0.785645
O O12 0.500000 0.860120 0.750000
#
# Coordination Sequence:
#
# PCOD9509034 Si02
#       5
#    16  16  16  16  16
#     4  10  22  45  75  96 120 169 224 280 344 398
#     4  11  24  42  65  95 131 172 218 274 321 390
#     4  11  25  43  62  96 134 166 225 269 319 397
#     4  11  24  38  60  92 130 178 212 255 310 384
#     4  12  26  38  61  93 131 176 214 260 320 375
#
# _framework density 21.246314999999999
#
# number of rings (size 3 to 8) (size 9 to 14) (size 15 to 20)
#    0.000    1.000    4.000    1.800   11.200    0.800 
#    0.000    0.000    0.000    1.200    0.000    0.000 
#    0.000    0.000    0.000    0.000    0.000    0.000 
#
# Total GULP energy -223512.244947 kJ/mol
# GULP energy per Si atom -5587.806124 kJ/mol
# Density = 2.119796 g / cm^3
# Si number density = 21.246315 Si / 1000 Ang^3
#
#
#
# Elastic Constant Matrix: (Units=GPa)
#
#
# Indices 1 2 3 4 5 6 
#
# 1 95.3811 -6.1270 21.1139 0.0000 0.0000 0.0000
# 2 -6.1270 58.2212 23.7133 0.0000 0.0000 0.0000
# 3 21.1139 23.7133 74.7574 0.0000 0.0000 0.0000
# 4 0.0000 0.0000 0.0000 18.2618 0.0000 0.0000
# 5 0.0000 0.0000 0.0000 0.0000 43.9219 0.0000
# 6 0.0000 0.0000 0.0000 0.0000 0.0000 8.8387
#
#
#
# Elastic Compliance Matrix: (Units=1/GPa)
#
#
# Indices 1 2 3 4 5 6 
#
# 1 0.011604 0.002935 -0.004209 0.000000 0.000000 0.000000
# 2 0.002935 0.020467 -0.007321 0.000000 0.000000 0.000000
# 3 -0.004209 -0.007321 0.016888 0.000000 0.000000 0.000000
# 4 0.000000 0.000000 0.000000 0.054759 0.000000 0.000000
# 5 0.000000 0.000000 0.000000 0.000000 0.022768 0.000000
# 6 0.000000 0.000000 0.000000 0.000000 0.000000 0.113138
#
#
# Mechanical properties :
#
#
# Convention : Reuss Voigt Hill
#
# Bulk Modulus (GPa) = 31.47632 33.97334 32.72483
# Shear Modulus (GPa) = 18.69840 26.84845 22.77342
#
# Velocity S-wave (km/s) = 2.96983 3.55868 3.27750
# Velocity P-wave (km/s) = 5.15819 5.73677 5.45516
#
# Compressibility (1/GPa) = 0.03176991
#
# Stress axis : x y z
#
# Youngs Moduli (GPa) = 86.17396 48.86000 59.21532
#
# Poissons Ratio (x) = -0.14342 0.24921
# Poissons Ratio (y) = -0.25295 0.43352
# Poissons Ratio (z) = 0.36267 0.35771
#
# Static dielectric constant tensor:
#      x y z
#    x 1.774100 0.000000 0.000000 
#    y 0.000000 1.802920 0.000000 
#    z 0.000000 0.000000 1.795890 
# 
# From -- ./inp_files/13223.got.cif
#   From: 2010.05.17/outbox.cif.g08.bks.cpg/sg68_7_cif.got.tgz:13223.got - 2010.06.03 18:57:09.
