data_PCOD9509795
_publ_section_title
;
Structure prediction by ZEFSAII (Michael W. Deem and Ramdas Pophale) SiO2 
 PCOD9509795
Probable space group: C C C A
;
_chemical_formula_sum "Si O2"
_cell_formula_units_Z 64
_cell_length_a 11.235188
_cell_length_b 28.241532
_cell_length_c 9.036002
_cell_angle_alpha 90.000000
_cell_angle_beta 90.000000
_cell_angle_gamma 90.000000
_cell_volume 2867.113689
_symmetry_space_group_name_H-M "C C C A"
_symmetry_group_IT_number 68
_space_group.IT_coordinate_system_code '2'
_symmetry_cell_setting 'orthorhombic'
loop_
_space_group_symop_operation_xyz
x,y,z
-x,1/2-y,z
x,1/2-y,1/2-z
-x,y,1/2-z
-x,-y,-z
x,1/2+y,-z
-x,1/2+y,1/2+z
x,-y,1/2+z
1/2+x,1/2+y,z
1/2-x,-y,z
1/2+x,-y,1/2-z
1/2-x,1/2+y,1/2-z
1/2-x,1/2-y,-z
1/2+x,y,-z
1/2-x,y,1/2+z
1/2+x,1/2-y,1/2+z
loop_
_atom_site_type_symbol
_atom_site_label
_atom_site_fract_x
_atom_site_fract_y
_atom_site_fract_z
Si Si1 0.871581 0.267744 0.920083
Si Si2 0.915290 0.544323 0.976412
Si Si3 0.392566 0.121587 0.479425
Si Si4 0.257608 0.428071 0.775396
O O1 0.864506 0.250000 0.750000
O O2 0.885862 0.324264 0.932683
O O3 0.000000 0.250000 0.981813
O O4 0.750000 0.250000 0.000000
O O5 0.815896 0.544346 0.102118
O O6 0.982646 0.594742 0.995357
O O7 0.855787 0.543127 0.815628
O O8 0.000000 0.500000 0.000000
O O9 0.321718 0.113375 0.632026
O O10 0.329229 0.092518 0.348556
#
# Coordination Sequence:
#
# PCOD9509795 Si02
#       4
#    16  16  16  16
#     4  11  27  47  75 110 152 196 261 316 392 459
#     4  11  26  46  72 108 145 196 250 305 378 456
#     4  11  24  44  73 102 144 193 242 312 373 451
#     4  10  25  44  73 100 148 185 246 302 374 440
#
# _framework density 22.322098
#
# number of rings (size 3 to 8) (size 9 to 14) (size 15 to 20)
#    0.000    1.250    0.000    3.000   14.000   10.500 
#    4.500    3.750    0.000    0.000    0.000    0.000 
#    0.000    0.000    0.000    0.000    0.000    0.000 
#
# Total GULP energy -179120.190139 kJ/mol
# GULP energy per Si atom -5597.505942 kJ/mol
# Density = 2.227129 g / cm^3
# Si number density = 22.322098 Si / 1000 Ang^3
#
#
#
# Elastic Constant Matrix: (Units=GPa)
#
#
# Indices 1 2 3 4 5 6 
#
# 1 146.7849 66.2898 55.6064 0.0000 0.0000 0.0000
# 2 66.2898 154.9380 42.8946 0.0000 0.0000 0.0000
# 3 55.6064 42.8946 133.3737 0.0000 0.0000 0.0000
# 4 0.0000 0.0000 0.0000 32.4084 0.0000 0.0000
# 5 0.0000 0.0000 0.0000 0.0000 46.1285 0.0000
# 6 0.0000 0.0000 0.0000 0.0000 0.0000 31.3086
#
#
#
# Elastic Compliance Matrix: (Units=1/GPa)
#
#
# Indices 1 2 3 4 5 6 
#
# 1 0.009346 -0.003205 -0.002866 0.000000 0.000000 0.000000
# 2 -0.003205 0.008184 -0.001296 0.000000 0.000000 0.000000
# 3 -0.002866 -0.001296 0.009109 0.000000 0.000000 0.000000
# 4 0.000000 0.000000 0.000000 0.030856 0.000000 0.000000
# 5 0.000000 0.000000 0.000000 0.000000 0.021679 0.000000
# 6 0.000000 0.000000 0.000000 0.000000 0.000000 0.031940
#
#
# Mechanical properties :
#
#
# Convention : Reuss Voigt Hill
#
# Bulk Modulus (GPa) = 83.99172 84.96425 84.47799
# Shear Modulus (GPa) = 38.51600 39.98949 39.25274
#
# Velocity S-wave (km/s) = 4.15838 4.23717 4.19796
# Velocity P-wave (km/s) = 7.79519 7.87932 7.83737
#
# Compressibility (1/GPa) = 0.01190594
#
# Stress axis : x y z
#
# Youngs Moduli (GPa) = 107.00005 122.18524 109.77882
#
# Poissons Ratio (x) = 0.39163 0.31458
# Poissons Ratio (y) = 0.34296 0.14226
# Poissons Ratio (z) = 0.30662 0.15833
#
# Static dielectric constant tensor:
#      x y z
#    x 1.901930 0.000000 0.000000 
#    y 0.000000 1.766330 0.000000 
#    z 0.000000 0.000000 2.933150 
# 
# From -- ./inp_files/4080.got.cif
#   From: 2010.05.17/outbox.cif.g08.bks.cpg/sg68_3_cif.got.tgz:4080.got - 2010.06.03 18:57:09.
