data_PCOD9509612
_publ_section_title
;
Structure prediction by ZEFSAII (Michael W. Deem and Ramdas Pophale) SiO2 
 PCOD9509612
Probable space group: C C C A
;
_chemical_formula_sum "Si O2"
_cell_formula_units_Z 80
_cell_length_a 23.218621
_cell_length_b 28.291765
_cell_length_c 5.619589
_cell_angle_alpha 90.000000
_cell_angle_beta 90.000000
_cell_angle_gamma 90.000000
_cell_volume 3691.484237
_symmetry_space_group_name_H-M "C C C A"
_symmetry_group_IT_number 68
_space_group.IT_coordinate_system_code '2'
_symmetry_cell_setting 'orthorhombic'
loop_
_space_group_symop_operation_xyz
x,y,z
-x,1/2-y,z
x,1/2-y,1/2-z
-x,y,1/2-z
-x,-y,-z
x,1/2+y,-z
-x,1/2+y,1/2+z
x,-y,1/2+z
1/2+x,1/2+y,z
1/2-x,-y,z
1/2+x,-y,1/2-z
1/2-x,1/2+y,1/2-z
1/2-x,1/2-y,-z
1/2+x,y,-z
1/2-x,y,1/2+z
1/2+x,1/2-y,1/2+z
loop_
_atom_site_type_symbol
_atom_site_label
_atom_site_fract_x
_atom_site_fract_y
_atom_site_fract_z
Si Si1 0.197209 0.250000 0.250000
Si Si2 0.900495 0.292850 0.930818
Si Si3 0.220926 0.650207 0.588810
Si Si4 0.000000 0.320578 0.250000
Si Si5 0.405778 0.625673 0.939069
Si Si6 0.933391 0.482661 0.532844
O O1 0.154765 0.281726 0.412329
O O2 0.224820 0.208084 0.408154
O O3 0.903147 0.250000 0.750000
O O4 0.898207 0.342873 0.797714
O O5 0.957686 0.292037 0.083505
O O6 0.250425 0.634877 0.338909
O O7 0.155042 0.632567 0.573009
O O8 0.957315 0.351512 0.410602
O O9 0.424221 0.571927 0.900543
O O10 0.908940 0.490171 0.265175
O O11 0.000000 0.500000 0.500000
#
# Coordination Sequence:
#
# PCOD9509612 Si02
#       6
#     8  16  16   8  16  16
#     4  12  24  45  66 100 148 209 266 310 360 440
#     4  12  25  43  64 105 154 206 247 301 377 460
#     4  12  27  47  73 103 146 202 263 318 363 434
#     4  12  26  41  66  98 148 198 246 296 387 454
#     4  12  27  44  75 105 148 195 248 315 386 459
#     4  10  24  44  72 108 143 180 237 298 384 452
#
# _framework density 21.671500000000002
#
# number of rings (size 3 to 8) (size 9 to 14) (size 15 to 20)
#    0.000    0.400    4.000    3.600    8.400    6.000 
#    0.000    0.000    0.000    3.600    0.000    0.000 
#    0.000    0.000    0.000    0.000    0.000    0.000 
#
# Total GULP energy -223701.867743 kJ/mol
# GULP energy per Si atom -5592.546694 kJ/mol
# Density = 2.162218 g / cm^3
# Si number density = 21.671500 Si / 1000 Ang^3
#
#
#
# Elastic Constant Matrix: (Units=GPa)
#
#
# Indices 1 2 3 4 5 6 
#
# 1 127.5866 22.6754 38.6080 0.0000 0.0000 0.0000
# 2 22.6754 118.2221 35.9785 0.0000 0.0000 0.0000
# 3 38.6080 35.9785 146.1626 0.0000 0.0000 0.0000
# 4 0.0000 0.0000 0.0000 9.9839 0.0000 0.0000
# 5 0.0000 0.0000 0.0000 0.0000 37.6849 0.0000
# 6 0.0000 0.0000 0.0000 0.0000 0.0000 -28.7391
#
#
#
# Elastic Compliance Matrix: (Units=1/GPa)
#
#
# Indices 1 2 3 4 5 6 
#
# 1 0.008635 -0.001040 -0.002025 0.000000 0.000000 0.000000
# 2 -0.001040 0.009269 -0.002007 0.000000 0.000000 0.000000
# 3 -0.002025 -0.002007 0.007871 0.000000 0.000000 0.000000
# 4 0.000000 0.000000 0.000000 0.100161 0.000000 0.000000
# 5 0.000000 0.000000 0.000000 0.000000 0.026536 0.000000
# 6 0.000000 0.000000 0.000000 0.000000 0.000000 -0.034796
#
#
# Mechanical properties :
#
#
# Convention : Reuss Voigt Hill
#
# Bulk Modulus (GPa) = 63.97493 65.16613 64.57053
# Shear Modulus (GPa) = 37.58542 23.43324 30.50933
#
# Velocity S-wave (km/s) = 4.16904 3.29187 3.75615
# Velocity P-wave (km/s) = 7.26353 6.67711 6.97649
#
# Compressibility (1/GPa) = 0.01563112
#
# Stress axis : x y z
#
# Youngs Moduli (GPa) = 115.80217 107.88789 127.05546
#
# Poissons Ratio (x) = 0.11221 0.25729
# Poissons Ratio (y) = 0.12044 0.25498
# Poissons Ratio (z) = 0.23450 0.21652
#
# Static dielectric constant tensor:
#      x y z
#    x 1.793630 0.000000 0.000000 
#    y 0.000000 1.759970 0.000000 
#    z 0.000000 0.000000 1.917280 
# 
# From -- ./inp_files/2405.got.cif
#   From: 2010.05.17/outbox.cif.g08.bks.cpg/sg68_2_cif.got.tgz:2405.got - 2010.06.03 18:57:09.
