data_PCOD9509064
_publ_section_title
;
Structure prediction by ZEFSAII (Michael W. Deem and Ramdas Pophale) SiO2 
 PCOD9509064
Probable space group: C C C A
;
_chemical_formula_sum "Si O2"
_cell_formula_units_Z 108
_cell_length_a 9.544040
_cell_length_b 16.037838
_cell_length_c 30.240078
_cell_angle_alpha 90.000000
_cell_angle_beta 90.000000
_cell_angle_gamma 90.000000
_cell_volume 4628.720745
_symmetry_space_group_name_H-M "C C C A"
_symmetry_group_IT_number 68
_space_group.IT_coordinate_system_code '2'
_symmetry_cell_setting 'orthorhombic'
loop_
_space_group_symop_operation_xyz
x,y,z
-x,1/2-y,z
x,1/2-y,1/2-z
-x,y,1/2-z
-x,-y,-z
x,1/2+y,-z
-x,1/2+y,1/2+z
x,-y,1/2+z
1/2+x,1/2+y,z
1/2-x,-y,z
1/2+x,-y,1/2-z
1/2-x,1/2+y,1/2-z
1/2-x,1/2-y,-z
1/2+x,y,-z
1/2-x,y,1/2+z
1/2+x,1/2-y,1/2+z
loop_
_atom_site_type_symbol
_atom_site_label
_atom_site_fract_x
_atom_site_fract_y
_atom_site_fract_z
Si Si1 0.807486 0.703060 0.640437
Si Si2 0.000000 0.750000 0.250000
Si Si3 0.406062 0.033930 0.959747
Si Si4 0.441779 0.890708 0.689946
Si Si5 0.657761 0.273326 0.957746
Si Si6 0.856661 0.823063 0.720295
Si Si7 0.083722 0.974264 0.627144
Si Si8 0.250000 0.500000 0.743395
O O1 0.665153 0.664980 0.660892
O O2 0.797455 0.732776 0.589448
O O3 0.854391 0.777325 0.673036
O O4 0.909522 0.622049 0.641978
O O5 0.960880 0.676792 0.286416
O O6 0.362569 0.129305 0.954577
O O7 0.507183 0.016119 0.918782
O O8 0.250000 0.000000 0.961933
O O9 0.500000 0.000000 0.000000
O O10 0.499918 0.961751 0.658340
O O11 0.356983 0.950061 0.724325
O O12 0.500000 0.250000 0.967974
O O13 0.750000 0.250000 0.000000
O O14 0.774618 0.750000 0.750000
O O15 0.000000 0.830026 0.750000
O O16 0.811056 0.919580 0.718070
O O17 0.250000 0.000000 0.625219
#
# Coordination Sequence:
#
# PCOD9509064 Si02
#       8
#    16   4  16  16  16  16  16   8
#     4  11  23  49  75 108 147 206 265 322 394 464
#     4  12  28  44  68 112 160 208 244 320 398 464
#     4  12  27  47  77 115 155 195 254 324 400 473
#     4  11  23  44  72 104 152 202 255 311 396 473
#     4  12  28  50  81 113 154 203 262 328 400 479
#     4  11  24  40  74 109 150 194 258 326 385 476
#     4  10  22  46  80 109 148 208 265 322 395 476
#     4  12  22  46  66 108 146 200 252 312 398 468
#
# _framework density 23.332581000000001
#
# number of rings (size 3 to 8) (size 9 to 14) (size 15 to 20)
#    0.000    0.741    5.185    2.222    7.259    2.370 
#    4.000    0.000    3.259    0.000    0.000    0.000 
#    0.000    0.000    0.000    0.000    0.000    0.000 
#
# Total GULP energy -301025.027194 kJ/mol
# GULP energy per Si atom -5574.537541 kJ/mol
# Density = 2.327947 g / cm^3
# Si number density = 23.332581 Si / 1000 Ang^3
#
#
#
# Elastic Constant Matrix: (Units=GPa)
#
#
# Indices 1 2 3 4 5 6 
#
# 1 96.3406 62.7026 56.1808 0.0000 0.0000 0.0000
# 2 62.7026 211.0057 95.5090 0.0000 0.0000 0.0000
# 3 56.1808 95.5090 183.2815 0.0000 0.0000 0.0000
# 4 0.0000 0.0000 0.0000 38.4507 0.0000 0.0000
# 5 0.0000 0.0000 0.0000 0.0000 36.3558 0.0000
# 6 0.0000 0.0000 0.0000 0.0000 0.0000 45.5467
#
#
#
# Elastic Compliance Matrix: (Units=1/GPa)
#
#
# Indices 1 2 3 4 5 6 
#
# 1 0.013852 -0.002872 -0.002750 0.000000 0.000000 0.000000
# 2 -0.002872 0.006797 -0.002662 0.000000 0.000000 0.000000
# 3 -0.002750 -0.002662 0.007686 0.000000 0.000000 0.000000
# 4 0.000000 0.000000 0.000000 0.026007 0.000000 0.000000
# 5 0.000000 0.000000 0.000000 0.000000 0.027506 0.000000
# 6 0.000000 0.000000 0.000000 0.000000 0.000000 0.021956
#
#
# Mechanical properties :
#
#
# Convention : Reuss Voigt Hill
#
# Bulk Modulus (GPa) = 84.96730 102.15695 93.56213
# Shear Modulus (GPa) = 40.22706 42.48632 41.35669
#
# Velocity S-wave (km/s) = 4.15670 4.27183 4.21466
# Velocity P-wave (km/s) = 7.71572 8.25890 7.99192
#
# Compressibility (1/GPa) = 0.01176923
#
# Stress axis : x y z
#
# Youngs Moduli (GPa) = 72.18978 147.11342 130.10561
#
# Poissons Ratio (x) = 0.42248 0.35774
# Poissons Ratio (y) = 0.20731 0.34633
# Poissons Ratio (z) = 0.19849 0.39160
#
# Static dielectric constant tensor:
#      x y z
#    x 1.924400 0.000000 0.000000 
#    y 0.000000 1.825050 0.000000 
#    z 0.000000 0.000000 1.906290 
# 
# From -- ./inp_files/54875.got.cif
#   From: 2010.05.17/outbox.cif.g08.bks.cpg/sg68_28_cif.got.tgz:54875.got - 2010.06.03 18:57:09.
