data_PCOD9509039
_publ_section_title
;
Structure prediction by ZEFSAII (Michael W. Deem and Ramdas Pophale) SiO2 
 PCOD9509039
Probable space group: C C C A
;
_chemical_formula_sum "Si O2"
_cell_formula_units_Z 68
_cell_length_a 5.314024
_cell_length_b 19.360280
_cell_length_c 30.322170
_cell_angle_alpha 90.000000
_cell_angle_beta 90.000000
_cell_angle_gamma 90.000000
_cell_volume 3119.574946
_symmetry_space_group_name_H-M "C C C A"
_symmetry_group_IT_number 68
_space_group.IT_coordinate_system_code '2'
_symmetry_cell_setting 'orthorhombic'
loop_
_space_group_symop_operation_xyz
x,y,z
-x,1/2-y,z
x,1/2-y,1/2-z
-x,y,1/2-z
-x,-y,-z
x,1/2+y,-z
-x,1/2+y,1/2+z
x,-y,1/2+z
1/2+x,1/2+y,z
1/2-x,-y,z
1/2+x,-y,1/2-z
1/2-x,1/2+y,1/2-z
1/2-x,1/2-y,-z
1/2+x,y,-z
1/2-x,y,1/2+z
1/2+x,1/2-y,1/2+z
loop_
_atom_site_type_symbol
_atom_site_label
_atom_site_fract_x
_atom_site_fract_y
_atom_site_fract_z
Si Si1 0.250000 0.000000 0.529055
Si Si2 0.500000 0.750000 0.250000
Si Si3 0.872503 0.378413 0.589772
Si Si4 0.512776 0.042746 0.168310
Si Si5 0.165675 0.317426 0.822094
Si Si6 0.000000 0.750000 0.030145
O O1 0.269698 0.069062 0.558412
O O2 0.500000 0.000000 0.500000
O O3 0.654692 0.702764 0.216904
O O4 0.721709 0.342625 0.630676
O O5 0.994040 0.318005 0.561024
O O6 0.053991 0.429191 0.618064
O O7 0.488729 0.115522 0.192939
O O8 0.750000 0.000000 0.183418
O O9 0.250000 0.000000 0.169899
O O10 0.000000 0.250000 0.831488
O O11 0.250000 0.750000 0.000000
#
# Coordination Sequence:
#
# PCOD9509039 Si02
#       6
#     8   4  16  16  16   8
#     4  12  26  42  68 110 150 192 248 310 358 452
#     4  12  26  46  80 122 144 196 276 322 402 456
#     4  10  22  46  68 108 142 207 240 306 391 444
#     4  10  23  43  77 108 140 192 246 298 371 465
#     4  10  24  46  78 106 149 201 248 322 380 480
#     4  12  26  43  66 105 152 193 256 317 362 454
#
# _framework density 21.797840999999998
#
# number of rings (size 3 to 8) (size 9 to 14) (size 15 to 20)
#    1.412    0.000    2.353    1.765    4.941    2.824 
#    4.235    0.000    5.176    0.000    0.000    0.000 
#    0.000    0.000    0.000    0.000    0.000    0.000 
#
# Total GULP energy -189570.437104 kJ/mol
# GULP energy per Si atom -5575.601091 kJ/mol
# Density = 2.174823 g / cm^3
# Si number density = 21.797841 Si / 1000 Ang^3
#
#
#
# Elastic Constant Matrix: (Units=GPa)
#
#
# Indices 1 2 3 4 5 6 
#
# 1 117.3463 75.8170 64.1462 0.0000 0.0000 0.0000
# 2 75.8170 201.2880 66.2942 0.0000 0.0000 0.0000
# 3 64.1462 66.2942 146.7370 0.0000 0.0000 0.0000
# 4 0.0000 0.0000 0.0000 133.0046 0.0000 0.0000
# 5 0.0000 0.0000 0.0000 0.0000 -73.2407 0.0000
# 6 0.0000 0.0000 0.0000 0.0000 0.0000 22.1983
#
#
#
# Elastic Compliance Matrix: (Units=1/GPa)
#
#
# Indices 1 2 3 4 5 6 
#
# 1 0.013072 -0.003573 -0.004100 0.000000 0.000000 0.000000
# 2 -0.003573 0.006813 -0.001516 0.000000 0.000000 0.000000
# 3 -0.004100 -0.001516 0.009292 0.000000 0.000000 0.000000
# 4 0.000000 0.000000 0.000000 0.007519 0.000000 0.000000
# 5 0.000000 0.000000 0.000000 0.000000 -0.013654 0.000000
# 6 0.000000 0.000000 0.000000 0.000000 0.000000 0.045049
#
#
# Mechanical properties :
#
#
# Convention : Reuss Voigt Hill
#
# Bulk Modulus (GPa) = 92.60555 97.54290 95.07422
# Shear Modulus (GPa) = 55.51330 33.66671 44.59000
#
# Velocity S-wave (km/s) = 5.05199 3.93427 4.52775
# Velocity P-wave (km/s) = 8.75250 8.09222 8.42883
#
# Compressibility (1/GPa) = 0.01079849
#
# Stress axis : x y z
#
# Youngs Moduli (GPa) = 76.50153 146.77332 107.61769
#
# Poissons Ratio (x) = 0.52446 0.44122
# Poissons Ratio (y) = 0.27336 0.16316
# Poissons Ratio (z) = 0.31365 0.22252
#
# Static dielectric constant tensor:
#      x y z
#    x 1.774450 0.000000 0.000000 
#    y 0.000000 1.817050 0.000000 
#    z 0.000000 0.000000 1.440420 
# 
# From -- ./inp_files/53067.got.cif
#   From: 2010.05.17/outbox.cif.g08.bks.cpg/sg68_27_cif.got.tgz:53067.got - 2010.06.03 18:57:09.
