data_PCOD9509131
_publ_section_title
;
Structure prediction by ZEFSAII (Michael W. Deem and Ramdas Pophale) SiO2 
 PCOD9509131
Probable space group: C C C A
;
_chemical_formula_sum "Si O2"
_cell_formula_units_Z 92
_cell_length_a 14.033914
_cell_length_b 14.445488
_cell_length_c 18.851140
_cell_angle_alpha 90.000000
_cell_angle_beta 90.000000
_cell_angle_gamma 90.000000
_cell_volume 3821.630087
_symmetry_space_group_name_H-M "C C C A"
_symmetry_group_IT_number 68
_space_group.IT_coordinate_system_code '2'
_symmetry_cell_setting 'orthorhombic'
loop_
_space_group_symop_operation_xyz
x,y,z
-x,1/2-y,z
x,1/2-y,1/2-z
-x,y,1/2-z
-x,-y,-z
x,1/2+y,-z
-x,1/2+y,1/2+z
x,-y,1/2+z
1/2+x,1/2+y,z
1/2-x,-y,z
1/2+x,-y,1/2-z
1/2-x,1/2+y,1/2-z
1/2-x,1/2-y,-z
1/2+x,y,-z
1/2-x,y,1/2+z
1/2+x,1/2-y,1/2+z
loop_
_atom_site_type_symbol
_atom_site_label
_atom_site_fract_x
_atom_site_fract_y
_atom_site_fract_z
Si Si1 0.000000 0.250000 0.750000
Si Si2 0.250000 0.500000 0.952049
Si Si3 0.250000 0.000000 0.771516
Si Si4 0.000000 0.250000 0.398023
Si Si5 0.769587 0.704554 0.422545
Si Si6 0.418228 0.903641 0.859168
Si Si7 0.900751 0.077085 0.060955
Si Si8 0.183093 0.147934 0.159157
O O1 0.965817 0.328814 0.808053
O O2 0.202068 0.578614 0.905354
O O3 0.160527 0.462000 0.996424
O O4 0.334498 0.951155 0.813536
O O5 0.200749 0.917364 0.725807
O O6 0.966366 0.334066 0.447484
O O7 0.915970 0.203772 0.350131
O O8 0.750000 0.750000 0.500000
O O9 0.869219 0.653729 0.422318
O O10 0.689286 0.628916 0.401491
O O11 0.765027 0.776519 0.357477
O O12 0.457919 0.996461 0.897644
#
# Coordination Sequence:
#
# PCOD9509131 Si02
#       8
#     4   8   8   8  16  16  16  16
#     4  12  32  44  74 106 166 182 244 302 388 442
#     4  11  19  42  72  96 133 195 240 292 340 449
#     4  11  23  44  74  94 133 187 254 282 342 451
#     4  10  26  40  60 106 143 176 225 302 374 412
#     4  11  19  41  74 103 134 181 249 294 353 432
#     4  12  24  48  72 105 136 198 237 304 364 440
#     4  11  21  43  70  98 138 185 237 296 363 426
#     4  10  23  39  67 101 138 182 242 293 359 427
#
# _framework density 24.073495999999999
#
# number of rings (size 3 to 8) (size 9 to 14) (size 15 to 20)
#    0.000    1.043    5.217    1.043    2.435    0.696 
#    0.000    8.696    0.000    0.000    0.000    0.000 
#    0.000    0.000    0.000    0.000    0.000    0.000 
#
# Total GULP energy -256160.057043 kJ/mol
# GULP energy per Si atom -5568.696892 kJ/mol
# Density = 2.401870 g / cm^3
# Si number density = 24.073496 Si / 1000 Ang^3
#
#
#
# Elastic Constant Matrix: (Units=GPa)
#
#
# Indices 1 2 3 4 5 6 
#
# 1 48.7721 44.4995 16.9439 0.0000 0.0000 0.0000
# 2 44.4995 182.5341 49.8351 0.0000 0.0000 0.0000
# 3 16.9439 49.8351 74.9673 0.0000 0.0000 0.0000
# 4 0.0000 0.0000 0.0000 13.5905 0.0000 0.0000
# 5 0.0000 0.0000 0.0000 0.0000 17.8047 0.0000
# 6 0.0000 0.0000 0.0000 0.0000 0.0000 58.6324
#
#
#
# Elastic Compliance Matrix: (Units=1/GPa)
#
#
# Indices 1 2 3 4 5 6 
#
# 1 0.026632 -0.005924 -0.002081 0.000000 0.000000 0.000000
# 2 -0.005924 0.008011 -0.003986 0.000000 0.000000 0.000000
# 3 -0.002081 -0.003986 0.016459 0.000000 0.000000 0.000000
# 4 0.000000 0.000000 0.000000 0.073581 0.000000 0.000000
# 5 0.000000 0.000000 0.000000 0.000000 0.056165 0.000000
# 6 0.000000 0.000000 0.000000 0.000000 0.000000 0.017055
#
#
# Mechanical properties :
#
#
# Convention : Reuss Voigt Hill
#
# Bulk Modulus (GPa) = 36.87466 58.75895 47.81681
# Shear Modulus (GPa) = 21.65187 31.00518 26.32853
#
# Velocity S-wave (km/s) = 3.00227 3.59268 3.31066
# Velocity P-wave (km/s) = 5.23153 6.45530 5.87537
#
# Compressibility (1/GPa) = 0.02711889
#
# Stress axis : x y z
#
# Youngs Moduli (GPa) = 37.54899 124.82708 60.75522
#
# Poissons Ratio (x) = 0.73952 0.12643
# Poissons Ratio (y) = 0.22245 0.24220
# Poissons Ratio (z) = 0.07814 0.49761
#
# Static dielectric constant tensor:
#      x y z
#    x 2.150930 0.000000 0.000000 
#    y 0.000000 2.361090 0.000000 
#    z 0.000000 0.000000 1.961870 
# 
# From -- ./inp_files/38642.got.cif
#   From: 2010.05.17/outbox.cif.g08.bks.cpg/sg68_20_cif.got.tgz:38642.got - 2010.06.03 18:57:09.
