data_PCOD9509667
_publ_section_title
;
Structure prediction by ZEFSAII (Michael W. Deem and Ramdas Pophale) SiO2 
 PCOD9509667
Probable space group: C C C A
;
_chemical_formula_sum "Si O2"
_cell_formula_units_Z 56
_cell_length_a 18.707095
_cell_length_b 14.537036
_cell_length_c 8.599058
_cell_angle_alpha 90.000000
_cell_angle_beta 90.000000
_cell_angle_gamma 90.000000
_cell_volume 2338.476963
_symmetry_space_group_name_H-M "C C C A"
_symmetry_group_IT_number 68
_space_group.IT_coordinate_system_code '2'
_symmetry_cell_setting 'orthorhombic'
loop_
_space_group_symop_operation_xyz
x,y,z
-x,1/2-y,z
x,1/2-y,1/2-z
-x,y,1/2-z
-x,-y,-z
x,1/2+y,-z
-x,1/2+y,1/2+z
x,-y,1/2+z
1/2+x,1/2+y,z
1/2-x,-y,z
1/2+x,-y,1/2-z
1/2-x,1/2+y,1/2-z
1/2-x,1/2-y,-z
1/2+x,y,-z
1/2-x,y,1/2+z
1/2+x,1/2-y,1/2+z
loop_
_atom_site_type_symbol
_atom_site_label
_atom_site_fract_x
_atom_site_fract_y
_atom_site_fract_z
Si Si1 0.947268 0.953835 0.881034
Si Si2 0.914694 0.736524 0.565543
Si Si3 0.336828 0.099337 0.102353
Si Si4 0.750000 0.500000 0.339073
O O1 0.902133 0.871864 0.955833
O O2 0.000000 0.913731 0.750000
O O3 0.899120 0.036900 0.823694
O O4 0.000000 0.000000 0.000000
O O5 0.900105 0.750000 0.750000
O O6 0.868170 0.803950 0.457277
O O7 0.000000 0.750000 0.533365
O O8 0.309667 0.044491 0.950162
O O9 0.274811 0.084757 0.228564
#
# Coordination Sequence:
#
# PCOD9509667 Si02
#       4
#    16  16  16   8
#     4  12  22  39  68 101 135 172 221 294 355 404
#     4  11  20  39  65 100 138 174 220 289 360 410
#     4  11  23  45  69  99 140 184 237 278 343 418
#     4  10  24  46  70  98 142 200 230 276 332 424
#
# _framework density 23.947212
#
# number of rings (size 3 to 8) (size 9 to 14) (size 15 to 20)
#    0.000    0.857    5.714    3.429    0.000    0.000 
#    0.000   22.857    0.000    0.000    0.000    0.000 
#    0.000    0.000    0.000    0.000    0.000    0.000 
#
# Total GULP energy -156462.393259 kJ/mol
# GULP energy per Si atom -5587.942616 kJ/mol
# Density = 2.389271 g / cm^3
# Si number density = 23.947212 Si / 1000 Ang^3
#
#
#
# Elastic Constant Matrix: (Units=GPa)
#
#
# Indices 1 2 3 4 5 6 
#
# 1 50.8648 21.5036 34.1477 0.0000 0.0000 0.0000
# 2 21.5036 157.5430 37.5954 0.0000 0.0000 0.0000
# 3 34.1477 37.5954 91.3232 0.0000 0.0000 0.0000
# 4 0.0000 0.0000 0.0000 28.6480 0.0000 0.0000
# 5 0.0000 0.0000 0.0000 0.0000 36.6935 0.0000
# 6 0.0000 0.0000 0.0000 0.0000 0.0000 42.2986
#
#
#
# Elastic Compliance Matrix: (Units=1/GPa)
#
#
# Indices 1 2 3 4 5 6 
#
# 1 0.026521 -0.001390 -0.009345 0.000000 0.000000 0.000000
# 2 -0.001390 0.007112 -0.002408 0.000000 0.000000 0.000000
# 3 -0.009345 -0.002408 0.015436 0.000000 0.000000 0.000000
# 4 0.000000 0.000000 0.000000 0.034906 0.000000 0.000000
# 5 0.000000 0.000000 0.000000 0.000000 0.027253 0.000000
# 6 0.000000 0.000000 0.000000 0.000000 0.000000 0.023641
#
#
# Mechanical properties :
#
#
# Convention : Reuss Voigt Hill
#
# Bulk Modulus (GPa) = 43.89180 54.02492 48.95836
# Shear Modulus (GPa) = 29.62987 35.29364 32.46176
#
# Velocity S-wave (km/s) = 3.52134 3.84319 3.68578
# Velocity P-wave (km/s) = 5.90775 6.50403 6.21305
#
# Compressibility (1/GPa) = 0.02278330
#
# Stress axis : x y z
#
# Youngs Moduli (GPa) = 37.70598 140.61064 64.78552
#
# Poissons Ratio (x) = 0.19545 0.60539
# Poissons Ratio (y) = 0.05241 0.15600
# Poissons Ratio (z) = 0.35234 0.33859
#
# Static dielectric constant tensor:
#      x y z
#    x 1.952120 0.000000 0.000000 
#    y 0.000000 2.023240 0.000000 
#    z 0.000000 0.000000 1.909000 
# 
# From -- ./inp_files/4728.got.cif
#   From: 2010.05.17/outbox.cif.g08.bks.cpg/sg68_3_cif.got.tgz:4728.got - 2010.06.03 18:57:09.
