data_PCOD9509606
_publ_section_title
;
Structure prediction by ZEFSAII (Michael W. Deem and Ramdas Pophale) SiO2 
 PCOD9509606
Probable space group: C C C A
;
_chemical_formula_sum "Si O2"
_cell_formula_units_Z 80
_cell_length_a 22.343872
_cell_length_b 19.076191
_cell_length_c 8.773000
_cell_angle_alpha 90.000000
_cell_angle_beta 90.000000
_cell_angle_gamma 90.000000
_cell_volume 3739.368164
_symmetry_space_group_name_H-M "C C C A"
_symmetry_group_IT_number 68
_space_group.IT_coordinate_system_code '2'
_symmetry_cell_setting 'orthorhombic'
loop_
_space_group_symop_operation_xyz
x,y,z
-x,1/2-y,z
x,1/2-y,1/2-z
-x,y,1/2-z
-x,-y,-z
x,1/2+y,-z
-x,1/2+y,1/2+z
x,-y,1/2+z
1/2+x,1/2+y,z
1/2-x,-y,z
1/2+x,-y,1/2-z
1/2-x,1/2+y,1/2-z
1/2-x,1/2-y,-z
1/2+x,y,-z
1/2-x,y,1/2+z
1/2+x,1/2-y,1/2+z
loop_
_atom_site_type_symbol
_atom_site_label
_atom_site_fract_x
_atom_site_fract_y
_atom_site_fract_z
Si Si1 0.929560 0.085895 0.793293
Si Si2 0.000000 0.372025 0.250000
Si Si3 0.827234 0.320513 0.026407
Si Si4 0.562572 0.283577 0.005597
Si Si5 0.401007 0.053169 0.547697
Si Si6 0.732909 0.250000 0.250000
O O1 0.917331 0.161311 0.866573
O O2 0.901901 0.067249 0.631631
O O3 0.000000 0.081576 0.750000
O O4 0.905162 0.028120 0.911452
O O5 0.956091 0.325837 0.353729
O O6 0.959773 0.416711 0.133934
O O7 0.844995 0.397505 0.088279
O O8 0.776026 0.291235 0.135325
O O9 0.887974 0.274030 0.031786
O O10 0.804169 0.304833 0.854327
O O11 0.500000 0.250000 0.058073
#
# Coordination Sequence:
#
# PCOD9509606 Si02
#       6
#    16   8  16  16  16   8
#     4  12  23  40  58  97 145 182 206 256 329 417
#     4  12  21  38  58  96 137 172 210 256 317 396
#     4  11  23  44  69  97 126 173 222 280 330 392
#     4  12  24  39  67 103 140 171 216 266 335 405
#     4  12  24  39  65  90 136 177 217 260 326 397
#     4  10  24  44  70  94 128 168 230 284 332 384
#
# _framework density 21.393989999999999
#
# number of rings (size 3 to 8) (size 9 to 14) (size 15 to 20)
#    0.000    0.400    5.000    4.500    0.000    2.000 
#    0.000    0.000    0.000   20.400    0.000    0.000 
#    0.000    0.000    0.000    0.000    0.000    0.000 
#
# Total GULP energy -223611.284612 kJ/mol
# GULP energy per Si atom -5590.282115 kJ/mol
# Density = 2.134530 g / cm^3
# Si number density = 21.393990 Si / 1000 Ang^3
#
#
#
# Elastic Constant Matrix: (Units=GPa)
#
#
# Indices 1 2 3 4 5 6 
#
# 1 59.6008 4.7348 1.5474 0.0000 0.0000 0.0000
# 2 4.7348 80.7684 7.6397 0.0000 0.0000 0.0000
# 3 1.5474 7.6397 100.8802 0.0000 0.0000 0.0000
# 4 0.0000 0.0000 0.0000 24.2868 0.0000 0.0000
# 5 0.0000 0.0000 0.0000 0.0000 40.8834 0.0000
# 6 0.0000 0.0000 0.0000 0.0000 0.0000 11.2721
#
#
#
# Elastic Compliance Matrix: (Units=1/GPa)
#
#
# Indices 1 2 3 4 5 6 
#
# 1 0.016860 -0.000971 -0.000185 0.000000 0.000000 0.000000
# 2 -0.000971 0.012526 -0.000934 0.000000 0.000000 0.000000
# 3 -0.000185 -0.000934 0.009986 0.000000 0.000000 0.000000
# 4 0.000000 0.000000 0.000000 0.041175 0.000000 0.000000
# 5 0.000000 0.000000 0.000000 0.000000 0.024460 0.000000
# 6 0.000000 0.000000 0.000000 0.000000 0.000000 0.088715
#
#
# Mechanical properties :
#
#
# Convention : Reuss Voigt Hill
#
# Bulk Modulus (GPa) = 28.41436 29.89922 29.15679
# Shear Modulus (GPa) = 23.85123 30.44361 27.14742
#
# Velocity S-wave (km/s) = 3.34257 3.77636 3.56607
# Velocity P-wave (km/s) = 5.31106 5.74633 5.53298
#
# Compressibility (1/GPa) = 0.03519347
#
# Stress axis : x y z
#
# Youngs Moduli (GPa) = 59.31113 79.83193 100.13717
#
# Poissons Ratio (x) = 0.07751 0.01853
# Poissons Ratio (y) = 0.05758 0.09350
# Poissons Ratio (z) = 0.01098 0.07454
#
# Static dielectric constant tensor:
#      x y z
#    x 1.762660 0.000000 0.000000 
#    y 0.000000 1.832050 0.000000 
#    z 0.000000 0.000000 1.819000 
# 
# From -- ./inp_files/8809.got.cif
#   From: 2010.05.17/outbox.cif.g08.bks.cpg/sg68_5_cif.got.tgz:8809.got - 2010.06.03 18:57:09.
