data_PCOD9509751
_publ_section_title
;
Structure prediction by ZEFSAII (Michael W. Deem and Ramdas Pophale) SiO2 
 PCOD9509751
Probable space group: C C C A
;
_chemical_formula_sum "Si O2"
_cell_formula_units_Z 64
_cell_length_a 5.317935
_cell_length_b 30.774660
_cell_length_c 17.355329
_cell_angle_alpha 90.000000
_cell_angle_beta 90.000000
_cell_angle_gamma 90.000000
_cell_volume 2840.332212
_symmetry_space_group_name_H-M "C C C A"
_symmetry_group_IT_number 68
_space_group.IT_coordinate_system_code '2'
_symmetry_cell_setting 'orthorhombic'
loop_
_space_group_symop_operation_xyz
x,y,z
-x,1/2-y,z
x,1/2-y,1/2-z
-x,y,1/2-z
-x,-y,-z
x,1/2+y,-z
-x,1/2+y,1/2+z
x,-y,1/2+z
1/2+x,1/2+y,z
1/2-x,-y,z
1/2+x,-y,1/2-z
1/2-x,1/2+y,1/2-z
1/2-x,1/2-y,-z
1/2+x,y,-z
1/2-x,y,1/2+z
1/2+x,1/2-y,1/2+z
loop_
_atom_site_type_symbol
_atom_site_label
_atom_site_fract_x
_atom_site_fract_y
_atom_site_fract_z
Si Si1 0.989481 0.945531 0.948992
Si Si2 0.622763 0.870496 0.334351
Si Si3 0.000000 0.076664 0.750000
Si Si4 0.514887 0.302129 0.545271
Si Si5 0.250000 0.000000 0.334666
O O1 0.025386 0.986158 0.891232
O O2 0.000049 0.902995 0.895774
O O3 0.231388 0.945529 0.004353
O O4 0.500000 0.869838 0.250000
O O5 0.892503 0.892370 0.316470
O O6 0.597850 0.824235 0.375032
O O7 0.198391 0.042206 0.783670
O O8 0.500000 0.250000 0.552014
O O9 0.738098 0.314996 0.485624
#
# Coordination Sequence:
#
# PCOD9509751 Si02
#       5
#    16  16   8  16   8
#     4  12  26  45  68 100 136 186 248 306 360 423
#     4  12  26  45  71 105 146 193 240 302 372 452
#     4  12  26  46  68 107 152 198 251 316 386 442
#     4  10  24  48  79 111 146 187 236 297 369 446
#     4  12  24  46  68  98 142 200 252 318 372 442
#
# _framework density 22.532574
#
# number of rings (size 3 to 8) (size 9 to 14) (size 15 to 20)
#    0.000    0.500    2.500    5.250    3.500    2.500 
#    0.000    0.000    0.000    0.000    0.000    0.000 
#    0.000    0.000    0.000    0.000    0.000    0.000 
#
# Total GULP energy -179013.020390 kJ/mol
# GULP energy per Si atom -5594.156887 kJ/mol
# Density = 2.248129 g / cm^3
# Si number density = 22.532574 Si / 1000 Ang^3
#
#
#
# Elastic Constant Matrix: (Units=GPa)
#
#
# Indices 1 2 3 4 5 6 
#
# 1 133.0191 35.1300 53.0382 0.0000 0.0000 0.0000
# 2 35.1300 75.0292 47.3829 0.0000 0.0000 0.0000
# 3 53.0382 47.3829 120.1448 0.0000 0.0000 0.0000
# 4 0.0000 0.0000 0.0000 42.6267 0.0000 0.0000
# 5 0.0000 0.0000 0.0000 0.0000 39.5171 0.0000
# 6 0.0000 0.0000 0.0000 0.0000 0.0000 24.0362
#
#
#
# Elastic Compliance Matrix: (Units=1/GPa)
#
#
# Indices 1 2 3 4 5 6 
#
# 1 0.009432 -0.002379 -0.003225 0.000000 0.000000 0.000000
# 2 -0.002379 0.018349 -0.006186 0.000000 0.000000 0.000000
# 3 -0.003225 -0.006186 0.012187 0.000000 0.000000 0.000000
# 4 0.000000 0.000000 0.000000 0.023459 0.000000 0.000000
# 5 0.000000 0.000000 0.000000 0.000000 0.025305 0.000000
# 6 0.000000 0.000000 0.000000 0.000000 0.000000 0.041604
#
#
# Mechanical properties :
#
#
# Convention : Reuss Voigt Hill
#
# Bulk Modulus (GPa) = 61.02738 66.58836 63.80787
# Shear Modulus (GPa) = 31.37143 34.07880 32.72512
#
# Velocity S-wave (km/s) = 3.73536 3.89321 3.81510
# Velocity P-wave (km/s) = 6.76364 7.05873 6.91276
#
# Compressibility (1/GPa) = 0.01638609
#
# Stress axis : x y z
#
# Youngs Moduli (GPa) = 106.01997 54.49922 82.05542
#
# Poissons Ratio (x) = 0.12967 0.26467
# Poissons Ratio (y) = 0.25226 0.50760
# Poissons Ratio (z) = 0.34197 0.33714
#
# Static dielectric constant tensor:
#      x y z
#    x 1.915750 0.000000 0.000000 
#    y 0.000000 1.832710 0.000000 
#    z 0.000000 0.000000 1.837750 
# 
# From -- ./inp_files/27147.got.cif
#   From: 2010.05.17/outbox.cif.g08.bks.cpg/sg68_14_cif.got.tgz:27147.got - 2010.06.03 18:57:09.
