data_PCOD9509673
_publ_section_title
;
Structure prediction by ZEFSAII (Michael W. Deem and Ramdas Pophale) SiO2 
 PCOD9509673
Probable space group: C C C A
;
_chemical_formula_sum "Si O2"
_cell_formula_units_Z 64
_cell_length_a 24.423604
_cell_length_b 9.051504
_cell_length_c 13.143577
_cell_angle_alpha 90.000000
_cell_angle_beta 90.000000
_cell_angle_gamma 90.000000
_cell_volume 2905.655158
_symmetry_space_group_name_H-M "C C C A"
_symmetry_group_IT_number 68
_space_group.IT_coordinate_system_code '2'
_symmetry_cell_setting 'orthorhombic'
loop_
_space_group_symop_operation_xyz
x,y,z
-x,1/2-y,z
x,1/2-y,1/2-z
-x,y,1/2-z
-x,-y,-z
x,1/2+y,-z
-x,1/2+y,1/2+z
x,-y,1/2+z
1/2+x,1/2+y,z
1/2-x,-y,z
1/2+x,-y,1/2-z
1/2-x,1/2+y,1/2-z
1/2-x,1/2-y,-z
1/2+x,y,-z
1/2-x,y,1/2+z
1/2+x,1/2-y,1/2+z
loop_
_atom_site_type_symbol
_atom_site_label
_atom_site_fract_x
_atom_site_fract_y
_atom_site_fract_z
Si Si1 0.351909 0.739194 0.507023
Si Si2 0.465626 0.106170 0.575070
Si Si3 0.397549 0.402458 0.299799
Si Si4 0.810520 0.017905 0.139275
O O1 0.409871 0.666249 0.476707
O O2 0.365704 0.853782 0.597759
O O3 0.315137 0.609661 0.553366
O O4 0.324659 0.827193 0.414251
O O5 0.500000 0.250000 0.601875
O O6 0.500000 0.000000 0.500000
O O7 0.446170 0.009233 0.669436
O O8 0.417237 0.250000 0.250000
O O9 0.356248 0.480518 0.222467
O O10 0.750000 0.000000 0.183766
#
# Coordination Sequence:
#
# PCOD9509673 Si02
#       4
#    16  16  16  16
#     4  11  22  47  69 106 146 182 249 293 345 459
#     4  12  23  46  79 103 144 195 237 298 375 431
#     4  10  24  46  71 107 151 181 246 299 348 443
#     4  11  24  45  74 104 145 195 235 301 370 417
#
# _framework density 22.026012000000001
#
# number of rings (size 3 to 8) (size 9 to 14) (size 15 to 20)
#    0.000    1.000    5.000    0.750    0.000    2.000 
#   13.500   23.750    0.000    0.000    0.000    0.000 
#    0.000    0.000    0.000    0.000    0.000    0.000 
#
# Total GULP energy -179162.293127 kJ/mol
# GULP energy per Si atom -5598.821660 kJ/mol
# Density = 2.197588 g / cm^3
# Si number density = 22.026012 Si / 1000 Ang^3
#
#
#
# Elastic Constant Matrix: (Units=GPa)
#
#
# Indices 1 2 3 4 5 6 
#
# 1 113.0893 73.1759 46.8592 0.0000 0.0000 0.0000
# 2 73.1759 109.1454 52.2504 0.0000 0.0000 0.0000
# 3 46.8592 52.2504 86.8715 0.0000 0.0000 0.0000
# 4 0.0000 0.0000 0.0000 28.2863 0.0000 0.0000
# 5 0.0000 0.0000 0.0000 0.0000 17.5779 0.0000
# 6 0.0000 0.0000 0.0000 0.0000 0.0000 27.1084
#
#
#
# Elastic Compliance Matrix: (Units=1/GPa)
#
#
# Indices 1 2 3 4 5 6 
#
# 1 0.016190 -0.009372 -0.003096 0.000000 0.000000 0.000000
# 2 -0.009372 0.018293 -0.005947 0.000000 0.000000 0.000000
# 3 -0.003096 -0.005947 0.016758 0.000000 0.000000 0.000000
# 4 0.000000 0.000000 0.000000 0.035353 0.000000 0.000000
# 5 0.000000 0.000000 0.000000 0.000000 0.056890 0.000000
# 6 0.000000 0.000000 0.000000 0.000000 0.000000 0.036889
#
#
# Mechanical properties :
#
#
# Convention : Reuss Voigt Hill
#
# Bulk Modulus (GPa) = 69.39419 72.63081 71.01250
# Shear Modulus (GPa) = 22.52198 23.71591 23.11894
#
# Velocity S-wave (km/s) = 3.20115 3.28490 3.24330
# Velocity P-wave (km/s) = 6.72585 6.88724 6.80703
#
# Compressibility (1/GPa) = 0.01441043
#
# Stress axis : x y z
#
# Youngs Moduli (GPa) = 61.76720 54.66677 59.67304
#
# Poissons Ratio (x) = 0.51236 0.18473
# Poissons Ratio (y) = 0.57890 0.35487
# Poissons Ratio (z) = 0.19122 0.32510
#
# Static dielectric constant tensor:
#      x y z
#    x 1.839420 0.000000 0.000000 
#    y 0.000000 1.789360 0.000000 
#    z 0.000000 0.000000 1.803780 
# 
# From -- ./inp_files/24994.got.cif
#   From: 2010.05.17/outbox.cif.g08.bks.cpg/sg68_13_cif.got.tgz:24994.got - 2010.06.03 18:57:09.
