data_PCOD9509315
_publ_section_title
;
Structure prediction by ZEFSAII (Michael W. Deem and Ramdas Pophale) SiO2 
 PCOD9509315
Probable space group: C C C A
;
_chemical_formula_sum "Si O2"
_cell_formula_units_Z 48
_cell_length_a 5.058985
_cell_length_b 19.563975
_cell_length_c 20.101663
_cell_angle_alpha 90.000000
_cell_angle_beta 90.000000
_cell_angle_gamma 90.000000
_cell_volume 1989.539100
_symmetry_space_group_name_H-M "C C C A"
_symmetry_group_IT_number 68
_space_group.IT_coordinate_system_code '2'
_symmetry_cell_setting 'orthorhombic'
loop_
_space_group_symop_operation_xyz
x,y,z
-x,1/2-y,z
x,1/2-y,1/2-z
-x,y,1/2-z
-x,-y,-z
x,1/2+y,-z
-x,1/2+y,1/2+z
x,-y,1/2+z
1/2+x,1/2+y,z
1/2-x,-y,z
1/2+x,-y,1/2-z
1/2-x,1/2+y,1/2-z
1/2-x,1/2-y,-z
1/2+x,y,-z
1/2-x,y,1/2+z
1/2+x,1/2-y,1/2+z
loop_
_atom_site_type_symbol
_atom_site_label
_atom_site_fract_x
_atom_site_fract_y
_atom_site_fract_z
Si Si1 0.052266 0.590445 0.039996
Si Si2 0.137032 0.074770 0.817631
Si Si3 0.738805 0.293130 0.383812
O O1 0.973141 0.565785 0.113518
O O2 0.095156 0.671750 0.052544
O O3 0.341401 0.570392 0.014671
O O4 0.315388 0.139249 0.840569
O O5 0.000000 0.096143 0.750000
O O6 0.250000 0.000000 0.804543
O O7 0.500000 0.250000 0.351309
O O8 0.000000 0.250000 0.395867
#
# Coordination Sequence:
#
# PCOD9509315 Si02
#       3
#    16  16  16
#     4  10  23  43  73 107 144 184 236 293 357 423
#     4  10  26  47  72 102 144 192 241 293 357 429
#     4  10  23  44  72 107 145 184 237 292 355 426
#
# _framework density 24.126192
#
# number of rings (size 3 to 8) (size 9 to 14) (size 15 to 20)
#    2.000    0.000    0.000    2.000    0.000   11.333 
#    0.000    1.667    0.000    0.000    0.000    0.000 
#    0.000    0.000    0.000    0.000    0.000    0.000 
#
# Total GULP energy -133616.293716 kJ/mol
# GULP energy per Si atom -5567.345572 kJ/mol
# Density = 2.407128 g / cm^3
# Si number density = 24.126192 Si / 1000 Ang^3
#
#
#
# Elastic Constant Matrix: (Units=GPa)
#
#
# Indices 1 2 3 4 5 6 
#
# 1 97.8860 45.5717 35.3399 0.0000 0.0000 0.0000
# 2 45.5717 135.3250 6.1551 0.0000 0.0000 0.0000
# 3 35.3399 6.1551 140.1386 0.0000 0.0000 0.0000
# 4 0.0000 0.0000 0.0000 9.3381 0.0000 0.0000
# 5 0.0000 0.0000 0.0000 0.0000 20.7067 0.0000
# 6 0.0000 0.0000 0.0000 0.0000 0.0000 41.1607
#
#
#
# Elastic Compliance Matrix: (Units=1/GPa)
#
#
# Indices 1 2 3 4 5 6 
#
# 1 0.013400 -0.004368 -0.003187 0.000000 0.000000 0.000000
# 2 -0.004368 0.008828 0.000714 0.000000 0.000000 0.000000
# 3 -0.003187 0.000714 0.007908 0.000000 0.000000 0.000000
# 4 0.000000 0.000000 0.000000 0.107088 0.000000 0.000000
# 5 0.000000 0.000000 0.000000 0.000000 0.048294 0.000000
# 6 0.000000 0.000000 0.000000 0.000000 0.000000 0.024295
#
#
# Mechanical properties :
#
#
# Convention : Reuss Voigt Hill
#
# Bulk Modulus (GPa) = 60.77666 60.83145 60.80406
# Shear Modulus (GPa) = 21.83599 33.32661 27.58130
#
# Velocity S-wave (km/s) = 3.01171 3.72068 3.38481
# Velocity P-wave (km/s) = 6.11062 6.61260 6.36656
#
# Compressibility (1/GPa) = 0.01645369
#
# Stress axis : x y z
#
# Youngs Moduli (GPa) = 74.62632 113.27611 126.45045
#
# Poissons Ratio (x) = 0.49475 0.40305
# Poissons Ratio (y) = 0.32594 -0.09024
# Poissons Ratio (z) = 0.23786 -0.08084
#
# Static dielectric constant tensor:
#      x y z
#    x 1.973090 0.000000 0.000000 
#    y 0.000000 2.077360 0.000000 
#    z 0.000000 0.000000 1.941950 
# 
# From -- ./inp_files/34746.got.cif
#   From: 2010.05.17/outbox.cif.g08.bks.cpg/sg68_18_cif.got.tgz:34746.got - 2010.06.03 18:57:09.
