data_PCOD9509803
_publ_section_title
;
Structure prediction by ZEFSAII (Michael W. Deem and Ramdas Pophale) SiO2 
 PCOD9509803
Probable space group: C C C A
;
_chemical_formula_sum "Si O2"
_cell_formula_units_Z 72
_cell_length_a 8.079634
_cell_length_b 23.132275
_cell_length_c 14.990366
_cell_angle_alpha 90.000000
_cell_angle_beta 90.000000
_cell_angle_gamma 90.000000
_cell_volume 2801.704136
_symmetry_space_group_name_H-M "C C C A"
_symmetry_group_IT_number 68
_space_group.IT_coordinate_system_code '2'
_symmetry_cell_setting 'orthorhombic'
loop_
_space_group_symop_operation_xyz
x,y,z
-x,1/2-y,z
x,1/2-y,1/2-z
-x,y,1/2-z
-x,-y,-z
x,1/2+y,-z
-x,1/2+y,1/2+z
x,-y,1/2+z
1/2+x,1/2+y,z
1/2-x,-y,z
1/2+x,-y,1/2-z
1/2-x,1/2+y,1/2-z
1/2-x,1/2-y,-z
1/2+x,y,-z
1/2-x,y,1/2+z
1/2+x,1/2-y,1/2+z
loop_
_atom_site_type_symbol
_atom_site_label
_atom_site_fract_x
_atom_site_fract_y
_atom_site_fract_z
Si Si1 0.111866 0.869218 0.392917
Si Si2 0.947716 0.004590 0.650063
Si Si3 0.005481 0.614895 0.908746
Si Si4 0.661972 0.780590 0.346763
Si Si5 0.500000 0.750000 0.879379
O O1 0.018821 0.928077 0.365730
O O2 0.310834 0.875602 0.389246
O O3 0.054430 0.812693 0.340589
O O4 0.059472 0.860851 0.495689
O O5 0.000000 0.989642 0.750000
O O6 0.750000 0.000000 0.638630
O O7 0.032268 0.954340 0.591844
O O8 0.116231 0.651895 0.840228
O O9 0.500000 0.750000 0.386104
O O10 0.685532 0.750000 0.250000
O O11 0.818089 0.769504 0.409229
#
# Coordination Sequence:
#
# PCOD9509803 Si02
#       5
#    16  16  16  16   8
#     4  11  25  44  69 104 139 185 240 286 356 423
#     4  10  25  45  69 100 139 183 238 295 352 419
#     4  11  24  46  71 100 143 187 233 297 349 420
#     4  11  25  43  68 104 144 182 232 284 355 414
#     4  12  25  44  70 102 141 182 234 292 348 429
#
# _framework density 25.698647000000001
#
# number of rings (size 3 to 8) (size 9 to 14) (size 15 to 20)
#    0.000    1.111    2.222    2.333    4.667    7.111 
#    0.000    0.000    0.000    0.000    0.000    0.000 
#    0.000    0.000    0.000    0.000    0.000    0.000 
#
# Total GULP energy -200992.713187 kJ/mol
# GULP energy per Si atom -5583.130922 kJ/mol
# Density = 2.564016 g / cm^3
# Si number density = 25.698647 Si / 1000 Ang^3
#
#
#
# Elastic Constant Matrix: (Units=GPa)
#
#
# Indices 1 2 3 4 5 6 
#
# 1 139.6815 48.2761 10.6590 0.0000 0.0000 0.0000
# 2 48.2761 236.2460 28.1362 0.0000 0.0000 0.0000
# 3 10.6590 28.1362 89.7139 0.0000 0.0000 0.0000
# 4 0.0000 0.0000 0.0000 -4.4759 0.0000 0.0000
# 5 0.0000 0.0000 0.0000 0.0000 20.6424 0.0000
# 6 0.0000 0.0000 0.0000 0.0000 0.0000 67.2319
#
#
#
# Elastic Compliance Matrix: (Units=1/GPa)
#
#
# Indices 1 2 3 4 5 6 
#
# 1 0.007720 -0.001525 -0.000439 0.000000 0.000000 0.000000
# 2 -0.001525 0.004698 -0.001292 0.000000 0.000000 0.000000
# 3 -0.000439 -0.001292 0.011604 0.000000 0.000000 0.000000
# 4 0.000000 0.000000 0.000000 -0.223418 0.000000 0.000000
# 5 0.000000 0.000000 0.000000 0.000000 0.048444 0.000000
# 6 0.000000 0.000000 0.000000 0.000000 0.000000 0.014874
#
#
# Mechanical properties :
#
#
# Convention : Reuss Voigt Hill
#
# Bulk Modulus (GPa) = 57.11216 71.08710 64.09963
# Shear Modulus (GPa) = -40.41098 41.91768 0.75335
#
# Velocity S-wave (km/s) = -3.96977 4.04310 0.54202
# Velocity P-wave (km/s) = 1.12247 7.03686 5.03872
#
# Compressibility (1/GPa) = 0.01750940
#
# Stress axis : x y z
#
# Youngs Moduli (GPa) = 129.53733 212.83532 86.17732
#
# Poissons Ratio (x) = 0.32463 0.03782
# Poissons Ratio (y) = 0.19758 0.11137
# Poissons Ratio (z) = 0.05685 0.27505
#
# Static dielectric constant tensor:
#      x y z
#    x 1.896500 0.000000 0.000000 
#    y 0.000000 2.074300 0.000000 
#    z 0.000000 0.000000 2.089970 
# 
# From -- ./inp_files/28158.got.cif
#   From: 2010.05.17/outbox.cif.g08.bks.cpg/sg68_15_cif.got.tgz:28158.got - 2010.06.03 18:57:09.
