data_PCOD9509819
_publ_section_title
;
Structure prediction by ZEFSAII (Michael W. Deem and Ramdas Pophale) SiO2 
 PCOD9509819
Probable space group: C C C A
;
_chemical_formula_sum "Si O2"
_cell_formula_units_Z 40
_cell_length_a 16.951654
_cell_length_b 8.151613
_cell_length_c 12.304473
_cell_angle_alpha 90.000000
_cell_angle_beta 90.000000
_cell_angle_gamma 90.000000
_cell_volume 1700.272968
_symmetry_space_group_name_H-M "C C C A"
_symmetry_group_IT_number 68
_space_group.IT_coordinate_system_code '2'
_symmetry_cell_setting 'orthorhombic'
loop_
_space_group_symop_operation_xyz
x,y,z
-x,1/2-y,z
x,1/2-y,1/2-z
-x,y,1/2-z
-x,-y,-z
x,1/2+y,-z
-x,1/2+y,1/2+z
x,-y,1/2+z
1/2+x,1/2+y,z
1/2-x,-y,z
1/2+x,-y,1/2-z
1/2-x,1/2+y,1/2-z
1/2-x,1/2-y,-z
1/2+x,y,-z
1/2-x,y,1/2+z
1/2+x,1/2-y,1/2+z
loop_
_atom_site_type_symbol
_atom_site_label
_atom_site_fract_x
_atom_site_fract_y
_atom_site_fract_z
Si Si1 0.130893 0.340127 0.144449
Si Si2 0.908894 0.786612 0.089721
Si Si3 0.212108 0.750000 0.250000
O O1 0.094923 0.250000 0.250000
O O2 0.105346 0.525886 0.124292
O O3 0.224221 0.337112 0.172164
O O4 0.111370 0.241011 0.035784
O O5 0.849611 0.675519 0.162835
O O6 0.000000 0.750000 0.108945
#
# Coordination Sequence:
#
# PCOD9509819 Si02
#       3
#    16  16   8
#     4  10  27  47  79 111 158 204 262 304 389 460
#     4  12  25  48  78 118 158 200 258 326 384 448
#     4  10  25  46  77 110 162 204 258 300 385 460
#
# _framework density 23.525632999999999
#
# number of rings (size 3 to 8) (size 9 to 14) (size 15 to 20)
#    1.200    0.000    0.000    4.200    5.600    0.800 
#    7.200    0.000    0.000    0.000    0.000    0.000 
#    0.000    0.000    0.000    0.000    0.000    0.000 
#
# Total GULP energy -111607.302797 kJ/mol
# GULP energy per Si atom -5580.365140 kJ/mol
# Density = 2.347209 g / cm^3
# Si number density = 23.525633 Si / 1000 Ang^3
#
#
#
# Elastic Constant Matrix: (Units=GPa)
#
#
# Indices 1 2 3 4 5 6 
#
# 1 239.9662 67.3889 84.9982 0.0000 0.0000 0.0000
# 2 67.3889 121.9838 75.9092 0.0000 0.0000 0.0000
# 3 84.9982 75.9092 210.0281 0.0000 0.0000 0.0000
# 4 0.0000 0.0000 0.0000 89.5372 0.0000 0.0000
# 5 0.0000 0.0000 0.0000 0.0000 196.0361 0.0000
# 6 0.0000 0.0000 0.0000 0.0000 0.0000 28.5415
#
#
#
# Elastic Compliance Matrix: (Units=1/GPa)
#
#
# Indices 1 2 3 4 5 6 
#
# 1 0.005226 -0.002027 -0.001382 0.000000 0.000000 0.000000
# 2 -0.002027 0.011363 -0.003286 0.000000 0.000000 0.000000
# 3 -0.001382 -0.003286 0.006509 0.000000 0.000000 0.000000
# 4 0.000000 0.000000 0.000000 0.011169 0.000000 0.000000
# 5 0.000000 0.000000 0.000000 0.000000 0.005101 0.000000
# 6 0.000000 0.000000 0.000000 0.000000 0.000000 0.035037
#
#
# Mechanical properties :
#
#
# Convention : Reuss Voigt Hill
#
# Bulk Modulus (GPa) = 103.03126 114.28563 108.65844
# Shear Modulus (GPa) = 54.92664 85.73507 70.33085
#
# Velocity S-wave (km/s) = 4.83717 6.04337 5.47360
# Velocity P-wave (km/s) = 8.66534 9.86819 9.28626
#
# Compressibility (1/GPa) = 0.00970579
#
# Stress axis : x y z
#
# Youngs Moduli (GPa) = 191.34643 88.00763 153.64386
#
# Poissons Ratio (x) = 0.17838 0.21241
# Poissons Ratio (y) = 0.38783 0.50495
# Poissons Ratio (z) = 0.26453 0.28923
#
# Static dielectric constant tensor:
#      x y z
#    x 1.883560 0.000000 0.000000 
#    y 0.000000 1.995750 0.000000 
#    z 0.000000 0.000000 1.896630 
# 
# From -- ./inp_files/10242.got.cif
#   From: 2010.05.17/outbox.cif.g08.bks.cpg/sg68_6_cif.got.tgz:10242.got - 2010.06.03 18:57:09.
