data_PCOD9509835
_publ_section_title
;
Structure prediction by ZEFSAII (Michael W. Deem and Ramdas Pophale) SiO2 
 PCOD9509835
Probable space group: C C C A
;
_chemical_formula_sum "Si O2"
_cell_formula_units_Z 64
_cell_length_a 12.986474
_cell_length_b 9.992690
_cell_length_c 20.448573
_cell_angle_alpha 90.000000
_cell_angle_beta 90.000000
_cell_angle_gamma 90.000000
_cell_volume 2653.607410
_symmetry_space_group_name_H-M "C C C A"
_symmetry_group_IT_number 68
_space_group.IT_coordinate_system_code '2'
_symmetry_cell_setting 'orthorhombic'
loop_
_space_group_symop_operation_xyz
x,y,z
-x,1/2-y,z
x,1/2-y,1/2-z
-x,y,1/2-z
-x,-y,-z
x,1/2+y,-z
-x,1/2+y,1/2+z
x,-y,1/2+z
1/2+x,1/2+y,z
1/2-x,-y,z
1/2+x,-y,1/2-z
1/2-x,1/2+y,1/2-z
1/2-x,1/2-y,-z
1/2+x,y,-z
1/2-x,y,1/2+z
1/2+x,1/2-y,1/2+z
loop_
_atom_site_type_symbol
_atom_site_label
_atom_site_fract_x
_atom_site_fract_y
_atom_site_fract_z
Si Si1 0.250000 0.000000 0.051812
Si Si2 0.140232 0.297738 0.362646
Si Si3 0.327970 0.883192 0.836182
Si Si4 0.092980 0.447283 0.045539
Si Si5 0.500000 0.250000 0.250000
Si Si6 0.000000 0.250000 0.250000
O O1 0.334511 0.924338 0.093975
O O2 0.184142 0.906453 0.003983
O O3 0.252292 0.242317 0.342736
O O4 0.087554 0.177535 0.404506
O O5 0.074204 0.329740 0.298625
O O6 0.424763 0.843270 0.792855
O O7 0.250000 0.000000 0.811392
O O8 0.369491 0.933832 0.906491
O O9 0.000000 0.500000 0.000000
#
# Coordination Sequence:
#
# PCOD9509835 Si02
#       6
#     8  16  16  16   4   4
#     4  12  24  46  74 106 146 196 242 320 384 464
#     4  11  25  49  70 109 148 201 246 325 388 458
#     4  10  25  49  70 111 150 197 256 327 382 473
#     4  11  24  44  76 107 148 189 252 316 388 466
#     4  12  26  46  82 108 152 216 264 310 414 478
#     4  12  26  50  74 102 150 192 264 302 384 480
#
# _framework density 24.118112
#
# number of rings (size 3 to 8) (size 9 to 14) (size 15 to 20)
#    0.000    1.000    3.750    3.000    3.500    4.000 
#   18.000    0.000    0.000    0.000    0.000    0.000 
#    0.000    0.000    0.000    0.000    0.000    0.000 
#
# Total GULP energy -178946.311074 kJ/mol
# GULP energy per Si atom -5592.072221 kJ/mol
# Density = 2.406322 g / cm^3
# Si number density = 24.118112 Si / 1000 Ang^3
#
#
#
# Elastic Constant Matrix: (Units=GPa)
#
#
# Indices 1 2 3 4 5 6 
#
# 1 174.7178 43.3343 108.8402 0.0000 0.0000 0.0000
# 2 43.3343 52.4125 52.9632 0.0000 0.0000 0.0000
# 3 108.8402 52.9632 166.0270 0.0000 0.0000 0.0000
# 4 0.0000 0.0000 0.0000 24.5581 0.0000 0.0000
# 5 0.0000 0.0000 0.0000 0.0000 75.1601 0.0000
# 6 0.0000 0.0000 0.0000 0.0000 0.0000 35.5221
#
#
#
# Elastic Compliance Matrix: (Units=1/GPa)
#
#
# Indices 1 2 3 4 5 6 
#
# 1 0.009874 -0.002395 -0.005709 0.000000 0.000000 0.000000
# 2 -0.002395 0.028736 -0.007597 0.000000 0.000000 0.000000
# 3 -0.005709 -0.007597 0.012189 0.000000 0.000000 0.000000
# 4 0.000000 0.000000 0.000000 0.040720 0.000000 0.000000
# 5 0.000000 0.000000 0.000000 0.000000 0.013305 0.000000
# 6 0.000000 0.000000 0.000000 0.000000 0.000000 0.028152
#
#
# Mechanical properties :
#
#
# Convention : Reuss Voigt Hill
#
# Bulk Modulus (GPa) = 51.55237 89.27029 70.41133
# Shear Modulus (GPa) = 29.26667 39.58270 34.42469
#
# Velocity S-wave (km/s) = 3.48727 4.05557 3.78211
# Velocity P-wave (km/s) = 6.13483 7.68273 6.95200
#
# Compressibility (1/GPa) = 0.01939775
#
# Stress axis : x y z
#
# Youngs Moduli (GPa) = 101.27775 34.79930 82.04011
#
# Poissons Ratio (x) = 0.08333 0.46836
# Poissons Ratio (y) = 0.24253 0.62327
# Poissons Ratio (z) = 0.57819 0.26437
#
# Static dielectric constant tensor:
#      x y z
#    x 2.028320 0.000000 0.000000 
#    y 0.000000 1.940290 0.000000 
#    z 0.000000 0.000000 1.903080 
# 
# From -- ./inp_files/30516.got.cif
#   From: 2010.05.17/outbox.cif.g08.bks.cpg/sg68_16_cif.got.tgz:30516.got - 2010.06.03 18:57:09.
