data_PCOD9509820
_publ_section_title
;
Structure prediction by ZEFSAII (Michael W. Deem and Ramdas Pophale) SiO2 
 PCOD9509820
Probable space group: C C C A
;
_chemical_formula_sum "Si O2"
_cell_formula_units_Z 80
_cell_length_a 11.554433
_cell_length_b 22.911782
_cell_length_c 14.185117
_cell_angle_alpha 90.000000
_cell_angle_beta 90.000000
_cell_angle_gamma 90.000000
_cell_volume 3755.263614
_symmetry_space_group_name_H-M "C C C A"
_symmetry_group_IT_number 68
_space_group.IT_coordinate_system_code '2'
_symmetry_cell_setting 'orthorhombic'
loop_
_space_group_symop_operation_xyz
x,y,z
-x,1/2-y,z
x,1/2-y,1/2-z
-x,y,1/2-z
-x,-y,-z
x,1/2+y,-z
-x,1/2+y,1/2+z
x,-y,1/2+z
1/2+x,1/2+y,z
1/2-x,-y,z
1/2+x,-y,1/2-z
1/2-x,1/2+y,1/2-z
1/2-x,1/2-y,-z
1/2+x,y,-z
1/2-x,y,1/2+z
1/2+x,1/2-y,1/2+z
loop_
_atom_site_type_symbol
_atom_site_label
_atom_site_fract_x
_atom_site_fract_y
_atom_site_fract_z
Si Si1 0.500000 0.750000 0.538031
Si Si2 0.043887 0.056361 0.555652
Si Si3 0.907218 0.846013 0.172277
Si Si4 0.250000 0.000000 0.674402
Si Si5 0.974186 0.350060 0.404111
Si Si6 0.328101 0.378563 0.773910
O O1 0.584756 0.791964 0.598859
O O2 0.442055 0.794141 0.465011
O O3 0.072075 0.098963 0.470250
O O4 0.952366 0.094367 0.619092
O O5 0.155296 0.036532 0.615078
O O6 0.000000 0.000000 0.500000
O O7 0.795296 0.856486 0.236666
O O8 0.000000 0.830013 0.250000
O O9 0.179649 0.949268 0.727880
O O10 0.908053 0.353462 0.307414
O O11 0.109925 0.359661 0.372855
#
# Coordination Sequence:
#
# PCOD9509820 Si02
#       6
#     8  16  16   8  16  16
#     4  10  25  51  70  96 140 178 242 297 345 400
#     4  11  24  40  67 100 142 177 233 276 350 413
#     4  11  24  47  69 102 135 184 237 288 347 422
#     4  12  24  40  70 104 148 186 216 296 342 428
#     4  10  25  47  66 103 137 187 233 286 344 423
#     4  11  25  42  71 102 142 181 234 277 360 417
#
# _framework density 21.303431
#
# number of rings (size 3 to 8) (size 9 to 14) (size 15 to 20)
#    0.000    1.200    4.000    0.300    5.600    2.400 
#    7.200    0.000    0.000    0.000    0.000    0.000 
#    0.000    0.000    0.000    0.000    0.000    0.000 
#
# Total GULP energy -222698.777678 kJ/mol
# GULP energy per Si atom -5567.469442 kJ/mol
# Density = 2.125494 g / cm^3
# Si number density = 21.303431 Si / 1000 Ang^3
#
#
#
# Elastic Constant Matrix: (Units=GPa)
#
#
# Indices 1 2 3 4 5 6 
#
# 1 103.4095 27.1713 27.8961 0.0000 0.0000 0.0000
# 2 27.1713 150.2909 44.0430 0.0000 0.0000 0.0000
# 3 27.8961 44.0430 87.7606 0.0000 0.0000 0.0000
# 4 0.0000 0.0000 0.0000 54.5659 0.0000 0.0000
# 5 0.0000 0.0000 0.0000 0.0000 30.5475 0.0000
# 6 0.0000 0.0000 0.0000 0.0000 0.0000 11.3362
#
#
#
# Elastic Compliance Matrix: (Units=1/GPa)
#
#
# Indices 1 2 3 4 5 6 
#
# 1 0.010731 -0.001103 -0.002858 0.000000 0.000000 0.000000
# 2 -0.001103 0.007914 -0.003621 0.000000 0.000000 0.000000
# 3 -0.002858 -0.003621 0.014120 0.000000 0.000000 0.000000
# 4 0.000000 0.000000 0.000000 0.018326 0.000000 0.000000
# 5 0.000000 0.000000 0.000000 0.000000 0.032736 0.000000
# 6 0.000000 0.000000 0.000000 0.000000 0.000000 0.088213
#
#
# Mechanical properties :
#
#
# Convention : Reuss Voigt Hill
#
# Bulk Modulus (GPa) = 56.81047 59.96466 58.38757
# Shear Modulus (GPa) = 25.89709 35.44662 30.67186
#
# Velocity S-wave (km/s) = 3.49037 4.08351 3.79854
# Velocity P-wave (km/s) = 6.55506 7.10228 6.83415
#
# Compressibility (1/GPa) = 0.01760239
#
# Stress axis : x y z
#
# Youngs Moduli (GPa) = 93.18891 126.35271 70.81964
#
# Poissons Ratio (x) = 0.13932 0.20238
# Poissons Ratio (y) = 0.10275 0.25646
# Poissons Ratio (z) = 0.26630 0.45757
#
# Static dielectric constant tensor:
#      x y z
#    x 2.072500 0.000000 0.000000 
#    y 0.000000 5.278320 0.000000 
#    z 0.000000 0.000000 1.773750 
# 
# From -- ./inp_files/20895.got.cif
#   From: 2010.05.17/outbox.cif.g08.bks.cpg/sg68_11_cif.got.tgz:20895.got - 2010.06.03 18:57:09.
