data_PCOD9509172
_publ_section_title
;
Structure prediction by ZEFSAII (Michael W. Deem and Ramdas Pophale) SiO2 
 PCOD9509172
Probable space group: C C C A
;
_chemical_formula_sum "Si O2"
_cell_formula_units_Z 88
_cell_length_a 14.965869
_cell_length_b 13.214199
_cell_length_c 23.683610
_cell_angle_alpha 90.000000
_cell_angle_beta 90.000000
_cell_angle_gamma 90.000000
_cell_volume 4683.717398
_symmetry_space_group_name_H-M "C C C A"
_symmetry_group_IT_number 68
_space_group.IT_coordinate_system_code '2'
_symmetry_cell_setting 'orthorhombic'
loop_
_space_group_symop_operation_xyz
x,y,z
-x,1/2-y,z
x,1/2-y,1/2-z
-x,y,1/2-z
-x,-y,-z
x,1/2+y,-z
-x,1/2+y,1/2+z
x,-y,1/2+z
1/2+x,1/2+y,z
1/2-x,-y,z
1/2+x,-y,1/2-z
1/2-x,1/2+y,1/2-z
1/2-x,1/2-y,-z
1/2+x,y,-z
1/2-x,y,1/2+z
1/2+x,1/2-y,1/2+z
loop_
_atom_site_type_symbol
_atom_site_label
_atom_site_fract_x
_atom_site_fract_y
_atom_site_fract_z
Si Si1 0.091907 0.514660 0.034803
Si Si2 0.944905 0.152607 0.644529
Si Si3 0.184796 0.090727 0.227068
Si Si4 0.764097 0.348933 0.463993
Si Si5 0.500000 0.981548 0.750000
Si Si6 0.748749 0.790229 0.166357
O O1 0.069620 0.568559 0.095203
O O2 0.142174 0.407007 0.030414
O O3 0.177205 0.584940 0.018259
O O4 0.000000 0.500000 0.000000
O O5 0.855525 0.204115 0.669895
O O6 0.000000 0.250000 0.623002
O O7 0.985167 0.090911 0.696523
O O8 0.204205 0.184932 0.185528
O O9 0.212516 0.127857 0.289514
O O10 0.250000 0.000000 0.209871
O O11 0.084538 0.050922 0.233599
O O12 0.750000 0.250000 0.500000
O O13 0.765158 0.320673 0.398012
#
# Coordination Sequence:
#
# PCOD9509172 Si02
#       6
#    16  16  16  16   8  16
#     4  10  24  42  65  94 125 166 214 267 320 370
#     4  11  23  39  66  94 127 167 221 261 312 392
#     4  11  22  40  63  92 131 162 206 263 311 381
#     4  10  23  44  66  91 126 170 212 259 323 392
#     4  12  23  37  66  98 124 166 216 256 318 376
#     4  10  23  41  63  88 127 172 201 256 329 368
#
# _framework density 18.788495999999999
#
# number of rings (size 3 to 8) (size 9 to 14) (size 15 to 20)
#    0.000    1.455    1.818    2.455   10.182    2.909 
#    3.273    1.818    0.000    0.000    0.000    0.000 
#    0.000    0.000    0.000    0.000    0.000    0.000 
#
# Total GULP energy -245007.975020 kJ/mol
# GULP energy per Si atom -5568.363069 kJ/mol
# Density = 1.874573 g / cm^3
# Si number density = 18.788496 Si / 1000 Ang^3
#
#
#
# Elastic Constant Matrix: (Units=GPa)
#
#
# Indices 1 2 3 4 5 6 
#
# 1 150.0861 62.5710 44.0985 0.0000 0.0000 0.0000
# 2 62.5710 102.3239 29.7553 0.0000 0.0000 0.0000
# 3 44.0985 29.7553 50.7532 0.0000 0.0000 0.0000
# 4 0.0000 0.0000 0.0000 -72.7034 0.0000 0.0000
# 5 0.0000 0.0000 0.0000 0.0000 26.8514 0.0000
# 6 0.0000 0.0000 0.0000 0.0000 0.0000 19.9517
#
#
#
# Elastic Compliance Matrix: (Units=1/GPa)
#
#
# Indices 1 2 3 4 5 6 
#
# 1 0.010429 -0.004511 -0.006417 0.000000 0.000000 0.000000
# 2 -0.004511 0.013733 -0.004131 0.000000 0.000000 0.000000
# 3 -0.006417 -0.004131 0.027701 0.000000 0.000000 0.000000
# 4 0.000000 0.000000 0.000000 -0.013755 0.000000 0.000000
# 5 0.000000 0.000000 0.000000 0.000000 0.037242 0.000000
# 6 0.000000 0.000000 0.000000 0.000000 0.000000 0.050121
#
#
# Mechanical properties :
#
#
# Convention : Reuss Voigt Hill
#
# Bulk Modulus (GPa) = 45.99036 64.00141 54.99589
# Shear Modulus (GPa) = 30.70536 5.93583 18.32060
#
# Velocity S-wave (km/s) = 4.04699 1.77937 3.12604
# Velocity P-wave (km/s) = 6.80945 6.19352 6.50877
#
# Compressibility (1/GPa) = 0.02174369
#
# Stress axis : x y z
#
# Youngs Moduli (GPa) = 95.88658 72.81726 36.10027
#
# Poissons Ratio (x) = 0.32851 0.23164
# Poissons Ratio (y) = 0.43258 0.14915
# Poissons Ratio (z) = 0.61527 0.30084
#
# Static dielectric constant tensor:
#      x y z
#    x 1.662650 0.000000 0.000000 
#    y 0.000000 1.602190 0.000000 
#    z 0.000000 0.000000 1.630720 
# 
# From -- ./inp_files/45316.got.cif
#   From: 2010.05.17/outbox.cif.g08.bks.cpg/sg68_23_cif.got.tgz:45316.got - 2010.06.03 18:57:09.
