data_PCOD9509386
_publ_section_title
;
Structure prediction by ZEFSAII (Michael W. Deem and Ramdas Pophale) SiO2 
 PCOD9509386
Probable space group: C C C A
;
_chemical_formula_sum "Si O2"
_cell_formula_units_Z 92
_cell_length_a 9.001614
_cell_length_b 20.223500
_cell_length_c 21.914065
_cell_angle_alpha 90.000000
_cell_angle_beta 90.000000
_cell_angle_gamma 90.000000
_cell_volume 3989.327133
_symmetry_space_group_name_H-M "C C C A"
_symmetry_group_IT_number 68
_space_group.IT_coordinate_system_code '2'
_symmetry_cell_setting 'orthorhombic'
loop_
_space_group_symop_operation_xyz
x,y,z
-x,1/2-y,z
x,1/2-y,1/2-z
-x,y,1/2-z
-x,-y,-z
x,1/2+y,-z
-x,1/2+y,1/2+z
x,-y,1/2+z
1/2+x,1/2+y,z
1/2-x,-y,z
1/2+x,-y,1/2-z
1/2-x,1/2+y,1/2-z
1/2-x,1/2-y,-z
1/2+x,y,-z
1/2-x,y,1/2+z
1/2+x,1/2-y,1/2+z
loop_
_atom_site_type_symbol
_atom_site_label
_atom_site_fract_x
_atom_site_fract_y
_atom_site_fract_z
Si Si1 0.142424 0.664374 0.392702
Si Si2 0.863891 0.930266 0.588062
Si Si3 0.242909 0.142874 0.739149
Si Si4 0.250000 0.500000 0.195978
Si Si5 0.321343 0.433965 0.972086
Si Si6 0.684669 0.186101 0.131080
Si Si7 0.000000 0.750000 0.750000
O O1 0.166079 0.635181 0.325560
O O2 0.235100 0.626745 0.442970
O O3 0.200664 0.739058 0.388677
O O4 0.966029 0.663670 0.402185
O O5 0.722065 0.937154 0.543013
O O6 0.827898 0.858816 0.617583
O O7 0.007440 0.931803 0.545776
O O8 0.876088 0.981715 0.644650
O O9 0.253214 0.066900 0.764479
O O10 0.161895 0.179334 0.795909
O O11 0.382398 0.193195 0.725769
O O12 0.250000 0.500000 0.943964
#
# Coordination Sequence:
#
# PCOD9509386 Si02
#       7
#    16  16  16   8  16  16   4
#     4  11  24  43  70 106 139 187 234 294 355 432
#     4  11  25  48  70 101 138 187 235 297 364 429
#     4  11  24  43  69 103 150 188 242 295 364 433
#     4  10  26  44  70 102 144 186 234 308 356 438
#     4  12  27  43  73 101 140 183 236 295 360 439
#     4  10  23  45  71  98 142 187 235 291 355 426
#     4  12  24  44  74 108 152 202 250 304 364 446
#
# _framework density 23.061534000000002
#
# number of rings (size 3 to 8) (size 9 to 14) (size 15 to 20)
#    0.000    1.043    2.609    2.087   10.957    2.783 
#    6.261    0.000    0.000    0.000    0.000    0.000 
#    0.000    0.000    0.000    0.000    0.000    0.000 
#
# Total GULP energy -256265.887956 kJ/mol
# GULP energy per Si atom -5570.997564 kJ/mol
# Density = 2.300904 g / cm^3
# Si number density = 23.061534 Si / 1000 Ang^3
#
#
#
# Elastic Constant Matrix: (Units=GPa)
#
#
# Indices 1 2 3 4 5 6 
#
# 1 67.5800 36.6077 7.5375 0.0000 0.0000 0.0000
# 2 36.6077 169.1252 54.3949 0.0000 0.0000 0.0000
# 3 7.5375 54.3949 61.4200 0.0000 0.0000 0.0000
# 4 0.0000 0.0000 0.0000 27.2797 0.0000 0.0000
# 5 0.0000 0.0000 0.0000 0.0000 9.2775 0.0000
# 6 0.0000 0.0000 0.0000 0.0000 0.0000 25.5638
#
#
#
# Elastic Compliance Matrix: (Units=1/GPa)
#
#
# Indices 1 2 3 4 5 6 
#
# 1 0.016878 -0.004177 0.001628 0.000000 0.000000 0.000000
# 2 -0.004177 0.009301 -0.007725 0.000000 0.000000 0.000000
# 3 0.001628 -0.007725 0.022923 0.000000 0.000000 0.000000
# 4 0.000000 0.000000 0.000000 0.036657 0.000000 0.000000
# 5 0.000000 0.000000 0.000000 0.000000 0.107787 0.000000
# 6 0.000000 0.000000 0.000000 0.000000 0.000000 0.039118
#
#
# Mechanical properties :
#
#
# Convention : Reuss Voigt Hill
#
# Bulk Modulus (GPa) = 35.02055 55.02283 45.02169
# Shear Modulus (GPa) = 19.03084 25.72988 22.38036
#
# Velocity S-wave (km/s) = 2.87578 3.34384 3.11861
# Velocity P-wave (km/s) = 5.12304 6.23051 5.70372
#
# Compressibility (1/GPa) = 0.02855466
#
# Stress axis : x y z
#
# Youngs Moduli (GPa) = 59.24753 107.51039 43.62444
#
# Poissons Ratio (x) = 0.44906 -0.07101
# Poissons Ratio (y) = 0.24747 0.33700
# Poissons Ratio (z) = -0.09645 0.83051
#
# Static dielectric constant tensor:
#      x y z
#    x 1.912550 0.000000 0.000000 
#    y 0.000000 1.956420 0.000000 
#    z 0.000000 0.000000 1.844900 
# 
# From -- ./inp_files/43191.got.cif
#   From: 2010.05.17/outbox.cif.g08.bks.cpg/sg68_22_cif.got.tgz:43191.got - 2010.06.03 18:57:09.
