data_PCOD9509615
_publ_section_title
;
Structure prediction by ZEFSAII (Michael W. Deem and Ramdas Pophale) SiO2 
 PCOD9509615
Probable space group: C C C A
;
_chemical_formula_sum "Si O2"
_cell_formula_units_Z 80
_cell_length_a 24.112137
_cell_length_b 17.290856
_cell_length_c 9.388528
_cell_angle_alpha 90.000000
_cell_angle_beta 90.000000
_cell_angle_gamma 90.000000
_cell_volume 3914.260294
_symmetry_space_group_name_H-M "C C C A"
_symmetry_group_IT_number 68
_space_group.IT_coordinate_system_code '2'
_symmetry_cell_setting 'orthorhombic'
loop_
_space_group_symop_operation_xyz
x,y,z
-x,1/2-y,z
x,1/2-y,1/2-z
-x,y,1/2-z
-x,-y,-z
x,1/2+y,-z
-x,1/2+y,1/2+z
x,-y,1/2+z
1/2+x,1/2+y,z
1/2-x,-y,z
1/2+x,-y,1/2-z
1/2-x,1/2+y,1/2-z
1/2-x,1/2-y,-z
1/2+x,y,-z
1/2-x,y,1/2+z
1/2+x,1/2-y,1/2+z
loop_
_atom_site_type_symbol
_atom_site_label
_atom_site_fract_x
_atom_site_fract_y
_atom_site_fract_z
Si Si1 0.500000 0.055728 0.750000
Si Si2 0.376830 0.327244 0.338161
Si Si3 0.506197 0.340045 0.017756
Si Si4 0.323648 0.432102 0.534576
Si Si5 0.589293 0.050349 0.148870
Si Si6 0.250000 0.500000 0.783219
O O1 0.482315 0.109832 0.878742
O O2 0.447401 0.998959 0.738799
O O3 0.365097 0.250000 0.250000
O O4 0.442388 0.334757 0.374151
O O5 0.346394 0.347542 0.486813
O O6 0.366851 0.396111 0.227272
O O7 0.500000 0.250000 0.978799
O O8 0.453152 0.388576 0.075705
O O9 0.376277 0.490126 0.553090
O O10 0.286805 0.445615 0.677006
O O11 0.287614 0.455836 0.398395
#
# Coordination Sequence:
#
# PCOD9509615 Si02
#       6
#     8  16  16  16  16   8
#     4  12  23  36  57  98 126 174 228 264 299 392
#     4  12  23  40  64  97 137 178 215 261 331 398
#     4  12  24  38  58  93 146 180 210 256 317 397
#     4  11  23  44  70  99 124 172 226 285 336 394
#     4  12  22  37  67  95 131 177 224 261 317 398
#     4  10  24  44  72  96 126 158 232 298 342 378
#
# _framework density 20.438089000000002
#
# number of rings (size 3 to 8) (size 9 to 14) (size 15 to 20)
#    0.000    0.400    8.000    2.100    0.000    0.000 
#    0.000    1.000    0.000    0.000    0.000    0.000 
#    0.000    0.000    0.000    0.000    0.000    0.000 
#
# Total GULP energy -222668.547573 kJ/mol
# GULP energy per Si atom -5566.713689 kJ/mol
# Density = 2.039157 g / cm^3
# Si number density = 20.438089 Si / 1000 Ang^3
#
#
#
# Elastic Constant Matrix: (Units=GPa)
#
#
# Indices 1 2 3 4 5 6 
#
# 1 73.2691 17.1972 15.7641 0.0000 0.0000 0.0000
# 2 17.1972 116.8315 25.6174 0.0000 0.0000 0.0000
# 3 15.7641 25.6174 67.9080 0.0000 0.0000 0.0000
# 4 0.0000 0.0000 0.0000 23.7147 0.0000 0.0000
# 5 0.0000 0.0000 0.0000 0.0000 50.7519 0.0000
# 6 0.0000 0.0000 0.0000 0.0000 0.0000 -0.9687
#
#
#
# Elastic Compliance Matrix: (Units=1/GPa)
#
#
# Indices 1 2 3 4 5 6 
#
# 1 0.014614 -0.001534 -0.002814 0.000000 0.000000 0.000000
# 2 -0.001534 0.009492 -0.003225 0.000000 0.000000 0.000000
# 3 -0.002814 -0.003225 0.016595 0.000000 0.000000 0.000000
# 4 0.000000 0.000000 0.000000 0.042168 0.000000 0.000000
# 5 0.000000 0.000000 0.000000 0.000000 0.019704 0.000000
# 6 0.000000 0.000000 0.000000 0.000000 0.000000 -1.032274
#
#
# Mechanical properties :
#
#
# Convention : Reuss Voigt Hill
#
# Bulk Modulus (GPa) = 39.12915 41.68512 40.40714
# Shear Modulus (GPa) = -5.51854 27.99490 11.23818
#
# Velocity S-wave (km/s) = -1.64499 3.70502 2.34746
# Velocity P-wave (km/s) = 3.94700 6.22438 5.21161
#
# Compressibility (1/GPa) = 0.02555639
#
# Stress axis : x y z
#
# Youngs Moduli (GPa) = 68.42861 105.34939 60.25752
#
# Poissons Ratio (x) = 0.16162 0.16955
# Poissons Ratio (y) = 0.10498 0.19431
# Poissons Ratio (z) = 0.19254 0.33972
#
# Static dielectric constant tensor:
#      x y z
#    x 1.804210 0.000000 0.000000 
#    y 0.000000 1.755080 0.000000 
#    z 0.000000 0.000000 1.786160 
# 
# From -- ./inp_files/8816.got.cif
#   From: 2010.05.17/outbox.cif.g08.bks.cpg/sg68_5_cif.got.tgz:8816.got - 2010.06.03 18:57:09.
