data_PCOD9509849
_publ_section_title
;
Structure prediction by ZEFSAII (Michael W. Deem and Ramdas Pophale) SiO2 
 PCOD9509849
Probable space group: C C C A
;
_chemical_formula_sum "Si O2"
_cell_formula_units_Z 60
_cell_length_a 30.497481
_cell_length_b 5.630718
_cell_length_c 16.394852
_cell_angle_alpha 90.000000
_cell_angle_beta 90.000000
_cell_angle_gamma 90.000000
_cell_volume 2815.368501
_symmetry_space_group_name_H-M "C C C A"
_symmetry_group_IT_number 68
_space_group.IT_coordinate_system_code '2'
_symmetry_cell_setting 'orthorhombic'
loop_
_space_group_symop_operation_xyz
x,y,z
-x,1/2-y,z
x,1/2-y,1/2-z
-x,y,1/2-z
-x,-y,-z
x,1/2+y,-z
-x,1/2+y,1/2+z
x,-y,1/2+z
1/2+x,1/2+y,z
1/2-x,-y,z
1/2+x,-y,1/2-z
1/2-x,1/2+y,1/2-z
1/2-x,1/2-y,-z
1/2+x,y,-z
1/2-x,y,1/2+z
1/2+x,1/2-y,1/2+z
loop_
_atom_site_type_symbol
_atom_site_label
_atom_site_fract_x
_atom_site_fract_y
_atom_site_fract_z
Si Si1 0.708187 0.374984 0.666319
Si Si2 0.500000 0.250000 0.250000
Si Si3 0.926429 0.565597 0.824148
Si Si4 0.863071 0.199129 0.048038
Si Si5 0.854374 0.750000 0.250000
O O1 0.724049 0.250000 0.750000
O O2 0.750000 0.500000 0.625684
O O3 0.678791 0.207792 0.609588
O O4 0.674766 0.572584 0.698495
O O5 0.470412 0.416164 0.191301
O O6 0.924888 0.750000 0.750000
O O7 0.910423 0.695860 0.905556
O O8 0.886774 0.383701 0.810611
O O9 0.860317 0.452473 0.001596
#
# Coordination Sequence:
#
# PCOD9509849 Si02
#       5
#    16   4  16  16   8
#     4  12  24  40  70 102 138 190 256 309 343 407
#     4  10  26  40  80 110 132 164 256 312 354 410
#     4  11  22  44  74 101 134 183 241 299 353 432
#     4  12  27  45  70 103 151 198 232 283 369 444
#     4  11  18  39  70  98 130 178 248 303 344 405
#
# _framework density 21.311596000000002
#
# number of rings (size 3 to 8) (size 9 to 14) (size 15 to 20)
#    0.000    0.533    6.667    2.000    3.733    1.067 
#    0.000    1.333    0.000    0.000    0.000    0.000 
#    0.000    0.000    0.000    0.000    0.000    0.000 
#
# Total GULP energy -167510.223815 kJ/mol
# GULP energy per Si atom -5583.674127 kJ/mol
# Density = 2.126309 g / cm^3
# Si number density = 21.311596 Si / 1000 Ang^3
#
#
#
# Elastic Constant Matrix: (Units=GPa)
#
#
# Indices 1 2 3 4 5 6 
#
# 1 126.9643 35.5392 29.8155 0.0000 0.0000 0.0000
# 2 35.5392 109.5840 40.6123 0.0000 0.0000 0.0000
# 3 29.8155 40.6123 78.5020 0.0000 0.0000 0.0000
# 4 0.0000 0.0000 0.0000 46.4118 0.0000 0.0000
# 5 0.0000 0.0000 0.0000 0.0000 -3.4628 0.0000
# 6 0.0000 0.0000 0.0000 0.0000 0.0000 61.1349
#
#
#
# Elastic Compliance Matrix: (Units=1/GPa)
#
#
# Indices 1 2 3 4 5 6 
#
# 1 0.009003 -0.002045 -0.002362 0.000000 0.000000 0.000000
# 2 -0.002045 0.011754 -0.005304 0.000000 0.000000 0.000000
# 3 -0.002362 -0.005304 0.016380 0.000000 0.000000 0.000000
# 4 0.000000 0.000000 0.000000 0.021546 0.000000 0.000000
# 5 0.000000 0.000000 0.000000 0.000000 -0.288782 0.000000
# 6 0.000000 0.000000 0.000000 0.000000 0.000000 0.016357
#
#
# Mechanical properties :
#
#
# Convention : Reuss Voigt Hill
#
# Bulk Modulus (GPa) = 56.44693 58.55382 57.50037
# Shear Modulus (GPa) = -26.53723 34.75566 4.10922
#
# Velocity S-wave (km/s) = -3.53257 4.04274 1.39009
# Velocity P-wave (km/s) = 3.14726 7.02328 5.44204
#
# Compressibility (1/GPa) = 0.01771575
#
# Stress axis : x y z
#
# Youngs Moduli (GPa) = 111.07231 85.07484 61.05097
#
# Poissons Ratio (x) = 0.17394 0.14419
# Poissons Ratio (y) = 0.22709 0.32384
# Poissons Ratio (z) = 0.26232 0.45128
#
# Static dielectric constant tensor:
#      x y z
#    x 1.894290 0.000000 0.000000 
#    y 0.000000 1.808470 0.000000 
#    z 0.000000 0.000000 1.981350 
# 
# From -- ./inp_files/33870.got.cif
#   From: 2010.05.17/outbox.cif.g08.bks.cpg/sg68_17_cif.got.tgz:33870.got - 2010.06.03 18:57:09.
