data_PCOD9509955
_publ_section_title
;
Structure prediction by ZEFSAII (Michael W. Deem and Ramdas Pophale) SiO2 
 PCOD9509955
Probable space group: C C C A
;
_chemical_formula_sum "Si O2"
_cell_formula_units_Z 96
_cell_length_a 15.366710
_cell_length_b 13.295143
_cell_length_c 23.694083
_cell_angle_alpha 90.000000
_cell_angle_beta 90.000000
_cell_angle_gamma 90.000000
_cell_volume 4840.762925
_symmetry_space_group_name_H-M "C C C A"
_symmetry_group_IT_number 68
_space_group.IT_coordinate_system_code '2'
_symmetry_cell_setting 'orthorhombic'
loop_
_space_group_symop_operation_xyz
x,y,z
-x,1/2-y,z
x,1/2-y,1/2-z
-x,y,1/2-z
-x,-y,-z
x,1/2+y,-z
-x,1/2+y,1/2+z
x,-y,1/2+z
1/2+x,1/2+y,z
1/2-x,-y,z
1/2+x,-y,1/2-z
1/2-x,1/2+y,1/2-z
1/2-x,1/2-y,-z
1/2+x,y,-z
1/2-x,y,1/2+z
1/2+x,1/2-y,1/2+z
loop_
_atom_site_type_symbol
_atom_site_label
_atom_site_fract_x
_atom_site_fract_y
_atom_site_fract_z
Si Si1 0.508021 0.919007 0.184508
Si Si2 0.146281 0.738990 0.815356
Si Si3 0.537504 0.984433 0.573501
Si Si4 0.805459 0.906892 0.510554
Si Si5 0.252466 0.728932 0.423719
Si Si6 0.565062 0.842152 0.478496
O O1 0.500000 0.949209 0.250000
O O2 0.419257 0.855006 0.174905
O O3 0.585576 0.837373 0.174769
O O4 0.528331 0.007406 0.140542
O O5 0.172104 0.750000 0.750000
O O6 0.226474 0.727564 0.858048
O O7 0.615426 0.052301 0.547392
O O8 0.456313 0.051864 0.552221
O O9 0.548925 0.877368 0.543217
O O10 0.820442 0.837759 0.455086
O O11 0.747885 0.842690 0.554650
O O12 0.750000 0.000000 0.489823
O O13 0.342487 0.692180 0.454056
O O14 0.500000 0.750000 0.465021
#
# Coordination Sequence:
#
# PCOD9509955 Si02
#       6
#    16  16  16  16  16  16
#     4   9  16  28  50  80 106 131 171 224 273 307
#     4   9  16  28  50  78 105 134 172 221 269 309
#     4  11  20  32  53  79 110 137 173 225 268 327
#     4  11  22  33  47  76 108 149 173 208 273 329
#     4  11  20  33  52  74 112 140 173 218 266 335
#     4  11  20  32  52  78 105 136 176 226 276 313
#
# _framework density 19.831586000000001
#
# number of rings (size 3 to 8) (size 9 to 14) (size 15 to 20)
#    0.000    1.667    6.667    1.000    0.000    0.000 
#    0.000    0.000    0.000    1.500    8.667    0.000 
#    0.000    0.000    0.000    0.000    0.000    0.000 
#
# Total GULP energy -267309.653772 kJ/mol
# GULP energy per Si atom -5568.951120 kJ/mol
# Density = 1.978645 g / cm^3
# Si number density = 19.831586 Si / 1000 Ang^3
#
#
#
# Elastic Constant Matrix: (Units=GPa)
#
#
# Indices 1 2 3 4 5 6 
#
# 1 33.0621 -3.6165 9.9785 0.0000 0.0000 0.0000
# 2 -3.6165 54.2762 10.1779 0.0000 0.0000 0.0000
# 3 9.9785 10.1779 138.8889 0.0000 0.0000 0.0000
# 4 0.0000 0.0000 0.0000 27.3591 0.0000 0.0000
# 5 0.0000 0.0000 0.0000 0.0000 32.1481 0.0000
# 6 0.0000 0.0000 0.0000 0.0000 0.0000 10.9952
#
#
#
# Elastic Compliance Matrix: (Units=1/GPa)
#
#
# Indices 1 2 3 4 5 6 
#
# 1 0.031258 0.002539 -0.002432 0.000000 0.000000 0.000000
# 2 0.002539 0.018887 -0.001566 0.000000 0.000000 0.000000
# 3 -0.002432 -0.001566 0.007490 0.000000 0.000000 0.000000
# 4 0.000000 0.000000 0.000000 0.036551 0.000000 0.000000
# 5 0.000000 0.000000 0.000000 0.000000 0.031106 0.000000
# 6 0.000000 0.000000 0.000000 0.000000 0.000000 0.090949
#
#
# Mechanical properties :
#
#
# Convention : Reuss Voigt Hill
#
# Bulk Modulus (GPa) = 18.27636 28.81189 23.54412
# Shear Modulus (GPa) = 21.06173 28.07965 24.57069
#
# Velocity S-wave (km/s) = 3.26242 3.76693 3.52372
# Velocity P-wave (km/s) = 4.84014 5.78615 5.33416
#
# Compressibility (1/GPa) = 0.05471550
#
# Stress axis : x y z
#
# Youngs Moduli (GPa) = 31.99203 52.94596 133.52020
#
# Poissons Ratio (x) = -0.13442 0.32469
# Poissons Ratio (y) = -0.08122 0.20916
# Poissons Ratio (z) = 0.07780 0.08294
#
# Static dielectric constant tensor:
#      x y z
#    x 1.813790 0.000000 0.000000 
#    y 0.000000 1.746300 0.000000 
#    z 0.000000 0.000000 1.755800 
# 
# From -- ./inp_files/46608.got.cif
#   From: 2010.05.17/outbox.cif.g08.bks.cpg/sg68_24_cif.got.tgz:46608.got - 2010.06.03 18:57:09.
