data_PCOD9509399
_publ_section_title
;
Structure prediction by ZEFSAII (Michael W. Deem and Ramdas Pophale) SiO2 
 PCOD9509399
Probable space group: C C C A
;
_chemical_formula_sum "Si O2"
_cell_formula_units_Z 36
_cell_length_a 20.999042
_cell_length_b 9.483875
_cell_length_c 8.977022
_cell_angle_alpha 90.000000
_cell_angle_beta 90.000000
_cell_angle_gamma 90.000000
_cell_volume 1787.794484
_symmetry_space_group_name_H-M "C C C A"
_symmetry_group_IT_number 68
_space_group.IT_coordinate_system_code '2'
_symmetry_cell_setting 'orthorhombic'
loop_
_space_group_symop_operation_xyz
x,y,z
-x,1/2-y,z
x,1/2-y,1/2-z
-x,y,1/2-z
-x,-y,-z
x,1/2+y,-z
-x,1/2+y,1/2+z
x,-y,1/2+z
1/2+x,1/2+y,z
1/2-x,-y,z
1/2+x,-y,1/2-z
1/2-x,1/2+y,1/2-z
1/2-x,1/2-y,-z
1/2+x,y,-z
1/2-x,y,1/2+z
1/2+x,1/2-y,1/2+z
loop_
_atom_site_type_symbol
_atom_site_label
_atom_site_fract_x
_atom_site_fract_y
_atom_site_fract_z
Si Si1 0.122743 0.875048 0.357678
Si Si2 0.190079 0.896092 0.672879
Si Si3 0.000000 0.250000 0.750000
O O1 0.147455 0.750000 0.250000
O O2 0.154879 0.867300 0.517610
O O3 0.142119 0.021133 0.282077
O O4 0.047121 0.844760 0.350470
O O5 0.208571 0.750000 0.750000
O O6 0.250000 0.000000 0.649171
#
# Coordination Sequence:
#
# PCOD9509399 Si02
#       3
#    16  16   4
#     4  10  23  46  68  98 138 179 221 278 333 396
#     4  12  25  43  71 103 137 176 223 281 342 400
#     4   8  24  48  68  96 140 172 236 270 324 412
#
# _framework density 20.136541999999999
#
# number of rings (size 3 to 8) (size 9 to 14) (size 15 to 20)
#    1.333    0.000    0.000    5.333    0.000    7.111 
#    0.000    2.222    0.000    0.000    0.000    0.000 
#    0.000    0.000    0.000    0.000    0.000    0.000 
#
# Total GULP energy -100489.375558 kJ/mol
# GULP energy per Si atom -5582.743087 kJ/mol
# Density = 2.009071 g / cm^3
# Si number density = 20.136542 Si / 1000 Ang^3
#
#
#
# Elastic Constant Matrix: (Units=GPa)
#
#
# Indices 1 2 3 4 5 6 
#
# 1 178.7035 63.7268 71.4874 0.0000 0.0000 0.0000
# 2 63.7268 129.6738 53.7533 0.0000 0.0000 0.0000
# 3 71.4874 53.7533 159.6368 0.0000 0.0000 0.0000
# 4 0.0000 0.0000 0.0000 39.7081 0.0000 0.0000
# 5 0.0000 0.0000 0.0000 0.0000 -114.8641 0.0000
# 6 0.0000 0.0000 0.0000 0.0000 0.0000 82.0294
#
#
#
# Elastic Compliance Matrix: (Units=1/GPa)
#
#
# Indices 1 2 3 4 5 6 
#
# 1 0.007542 -0.002680 -0.002475 0.000000 0.000000 0.000000
# 2 -0.002680 0.009915 -0.002138 0.000000 0.000000 0.000000
# 3 -0.002475 -0.002138 0.008092 0.000000 0.000000 0.000000
# 4 0.000000 0.000000 0.000000 0.025184 0.000000 0.000000
# 5 0.000000 0.000000 0.000000 0.000000 -0.008706 0.000000
# 6 0.000000 0.000000 0.000000 0.000000 0.000000 0.012191
#
#
# Mechanical properties :
#
#
# Convention : Reuss Voigt Hill
#
# Bulk Modulus (GPa) = 91.22055 93.99435 92.60745
# Shear Modulus (GPa) = 69.00421 19.97777 44.49099
#
# Velocity S-wave (km/s) = 5.86025 3.15320 4.70559
# Velocity P-wave (km/s) = 9.54931 7.74834 8.69558
#
# Compressibility (1/GPa) = 0.01096244
#
# Stress axis : x y z
#
# Youngs Moduli (GPa) = 132.59623 100.85362 123.57177
#
# Poissons Ratio (x) = 0.27033 0.30580
# Poissons Ratio (y) = 0.35542 0.26424
# Poissons Ratio (z) = 0.32814 0.21566
#
# Static dielectric constant tensor:
#      x y z
#    x 1.736510 0.000000 0.000000 
#    y 0.000000 1.740660 0.000000 
#    z 0.000000 0.000000 1.675790 
# 
# From -- ./inp_files/7579.got.cif
#   From: 2010.05.17/outbox.cif.g08.bks.cpg/sg68_4_cif.got.tgz:7579.got - 2010.06.03 18:57:09.
