data_PCOD9509155
_publ_section_title
;
Structure prediction by ZEFSAII (Michael W. Deem and Ramdas Pophale) SiO2 
 PCOD9509155
Probable space group: C C C A
;
_chemical_formula_sum "Si O2"
_cell_formula_units_Z 84
_cell_length_a 30.301250
_cell_length_b 24.106693
_cell_length_c 5.049469
_cell_angle_alpha 90.000000
_cell_angle_beta 90.000000
_cell_angle_gamma 90.000000
_cell_volume 3688.449927
_symmetry_space_group_name_H-M "C C C A"
_symmetry_group_IT_number 68
_space_group.IT_coordinate_system_code '2'
_symmetry_cell_setting 'orthorhombic'
loop_
_space_group_symop_operation_xyz
x,y,z
-x,1/2-y,z
x,1/2-y,1/2-z
-x,y,1/2-z
-x,-y,-z
x,1/2+y,-z
-x,1/2+y,1/2+z
x,-y,1/2+z
1/2+x,1/2+y,z
1/2-x,-y,z
1/2+x,-y,1/2-z
1/2-x,1/2+y,1/2-z
1/2-x,1/2-y,-z
1/2+x,y,-z
1/2-x,y,1/2+z
1/2+x,1/2-y,1/2+z
loop_
_atom_site_type_symbol
_atom_site_label
_atom_site_fract_x
_atom_site_fract_y
_atom_site_fract_z
Si Si1 0.281603 0.250000 0.750000
Si Si2 0.331914 0.861679 0.124595
Si Si3 0.888345 0.860662 0.380947
Si Si4 0.200836 0.523889 0.720401
Si Si5 0.552071 0.463456 0.281421
Si Si6 0.000000 0.750000 0.750000
Si Si7 0.940467 0.250000 0.750000
O O1 0.250000 0.250000 0.500000
O O2 0.310810 0.304701 0.778459
O O3 0.373143 0.871040 0.319590
O O4 0.299952 0.913818 0.177724
O O5 0.346938 0.859203 0.821445
O O6 0.920114 0.909474 0.285712
O O7 0.912249 0.801497 0.354521
O O8 0.178248 0.514934 0.438743
O O9 0.250000 0.500000 0.670709
O O10 0.500000 0.450329 0.250000
O O11 0.561148 0.487635 0.571022
O O12 0.033235 0.772868 0.515543
#
# Coordination Sequence:
#
# PCOD9509155 Si02
#       7
#     8  16  16  16  16   4   8
#     4  12  28  46  76  97 137 176 235 280 337 436
#     4  12  26  44  69 104 135 185 224 281 351 404
#     4  12  25  44  72  99 147 179 225 284 344 406
#     4  10  23  40  66  93 134 168 220 285 334 398
#     4  10  23  43  66  99 139 185 232 273 328 400
#     4  10  24  40  68 102 132 180 228 280 324 412
#     4  11  24  45  66 105 138 173 230 283 345 390
#
# _framework density 22.773793999999999
#
# number of rings (size 3 to 8) (size 9 to 14) (size 15 to 20)
#    0.000    0.952    0.000    5.714    8.000    4.571 
#    3.429    0.000    0.000    0.000    0.000    0.000 
#    0.000    0.000    0.000    0.000    0.000    0.000 
#
# Total GULP energy -234694.548473 kJ/mol
# GULP energy per Si atom -5587.965440 kJ/mol
# Density = 2.272196 g / cm^3
# Si number density = 22.773794 Si / 1000 Ang^3
#
#
#
# Elastic Constant Matrix: (Units=GPa)
#
#
# Indices 1 2 3 4 5 6 
#
# 1 51.9443 35.0640 -1.3354 0.0000 0.0000 0.0000
# 2 35.0640 121.7050 -23.0386 0.0000 0.0000 0.0000
# 3 -1.3354 -23.0386 118.2479 0.0000 0.0000 0.0000
# 4 0.0000 0.0000 0.0000 25.7462 0.0000 0.0000
# 5 0.0000 0.0000 0.0000 0.0000 10.1364 0.0000
# 6 0.0000 0.0000 0.0000 0.0000 0.0000 63.8028
#
#
#
# Elastic Compliance Matrix: (Units=1/GPa)
#
#
# Indices 1 2 3 4 5 6 
#
# 1 0.024041 -0.007138 -0.001119 0.000000 0.000000 0.000000
# 2 -0.007138 0.010651 0.001995 0.000000 0.000000 0.000000
# 3 -0.001119 0.001995 0.008833 0.000000 0.000000 0.000000
# 4 0.000000 0.000000 0.000000 0.038841 0.000000 0.000000
# 5 0.000000 0.000000 0.000000 0.000000 0.098655 0.000000
# 6 0.000000 0.000000 0.000000 0.000000 0.000000 0.015673
#
#
# Mechanical properties :
#
#
# Convention : Reuss Voigt Hill
#
# Bulk Modulus (GPa) = 32.25957 34.80856 33.53407
# Shear Modulus (GPa) = 22.77360 38.68423 30.72892
#
# Velocity S-wave (km/s) = 3.16569 4.12591 3.67728
# Velocity P-wave (km/s) = 5.24958 6.16565 5.72597
#
# Compressibility (1/GPa) = 0.03099855
#
# Stress axis : x y z
#
# Youngs Moduli (GPa) = 41.59527 93.89019 113.21481
#
# Poissons Ratio (x) = 0.67022 0.12672
# Poissons Ratio (y) = 0.29692 -0.22581
# Poissons Ratio (z) = 0.04656 -0.18726
#
# Static dielectric constant tensor:
#      x y z
#    x 2.106620 0.000000 0.000000 
#    y 0.000000 1.783300 0.000000 
#    z 0.000000 0.000000 1.900170 
# 
# From -- ./inp_files/2799.got.cif
#   From: 2010.05.17/outbox.cif.g08.bks.cpg/sg68_2_cif.got.tgz:2799.got - 2010.06.03 18:57:09.
