data_PCOD9509433
_publ_section_title
;
Structure prediction by ZEFSAII (Michael W. Deem and Ramdas Pophale) SiO2 
 PCOD9509433
Probable space group: C C C A
;
_chemical_formula_sum "Si O2"
_cell_formula_units_Z 104
_cell_length_a 19.792349
_cell_length_b 33.378448
_cell_length_c 7.925540
_cell_angle_alpha 90.000000
_cell_angle_beta 90.000000
_cell_angle_gamma 90.000000
_cell_volume 5235.912038
_symmetry_space_group_name_H-M "C C C A"
_symmetry_group_IT_number 68
_space_group.IT_coordinate_system_code '2'
_symmetry_cell_setting 'orthorhombic'
loop_
_space_group_symop_operation_xyz
x,y,z
-x,1/2-y,z
x,1/2-y,1/2-z
-x,y,1/2-z
-x,-y,-z
x,1/2+y,-z
-x,1/2+y,1/2+z
x,-y,1/2+z
1/2+x,1/2+y,z
1/2-x,-y,z
1/2+x,-y,1/2-z
1/2-x,1/2+y,1/2-z
1/2-x,1/2-y,-z
1/2+x,y,-z
1/2-x,y,1/2+z
1/2+x,1/2-y,1/2+z
loop_
_atom_site_type_symbol
_atom_site_label
_atom_site_fract_x
_atom_site_fract_y
_atom_site_fract_z
Si Si1 0.841221 0.067286 0.482777
Si Si2 0.695558 0.418649 0.901107
Si Si3 0.000000 0.482747 0.250000
Si Si4 0.909834 0.847579 0.582658
Si Si5 0.081504 0.795164 0.234186
Si Si6 0.566392 0.856617 0.470993
Si Si7 0.103240 0.019971 0.501943
O O1 0.775168 0.083892 0.575989
O O2 0.819993 0.064704 0.285897
O O3 0.899984 0.100054 0.493394
O O4 0.866300 0.023713 0.542686
O O5 0.651237 0.379130 0.930371
O O6 0.665220 0.451130 0.031158
O O7 0.049483 0.510587 0.355501
O O8 0.946729 0.459544 0.363935
O O9 0.897738 0.812273 0.448434
O O10 0.916593 0.839583 0.783546
O O11 0.985069 0.861805 0.525187
O O12 0.108517 0.750000 0.250000
O O13 0.095253 0.826784 0.385305
O O14 0.000000 0.792339 0.250000
#
# Coordination Sequence:
#
# PCOD9509433 Si02
#       7
#    16  16   8  16  16  16  16
#     4  11  25  40  57  83 118 159 200 248 292 351
#     4  11  25  40  57  83 118 159 200 248 292 351
#     4  10  24  36  58  86 106 150 192 260 298 340
#     4   9  20  37  59  87 119 155 195 244 297 352
#     4   9  18  35  60  94 122 146 188 239 298 363
#     4   9  20  37  59  87 119 155 195 244 297 352
#     4  11  23  40  58  82 118 152 202 246 296 346
#
# _framework density 19.862824
#
# number of rings (size 3 to 8) (size 9 to 14) (size 15 to 20)
#    0.000    2.000    1.538    0.462    8.615    1.846 
#    2.769    3.077    0.000    0.923    0.000    0.000 
#    0.000    0.000    0.000    0.000    0.000    0.000 
#
# Total GULP energy -289812.764489 kJ/mol
# GULP energy per Si atom -5573.322394 kJ/mol
# Density = 1.981762 g / cm^3
# Si number density = 19.862824 Si / 1000 Ang^3
#
#
#
# Elastic Constant Matrix: (Units=GPa)
#
#
# Indices 1 2 3 4 5 6 
#
# 1 89.9239 30.2165 24.8168 0.0000 0.0000 0.0000
# 2 30.2165 83.5390 20.6149 0.0000 0.0000 0.0000
# 3 24.8168 20.6149 18.7688 0.0000 0.0000 0.0000
# 4 0.0000 0.0000 0.0000 24.8975 0.0000 0.0000
# 5 0.0000 0.0000 0.0000 0.0000 28.2215 0.0000
# 6 0.0000 0.0000 0.0000 0.0000 0.0000 24.0521
#
#
#
# Elastic Compliance Matrix: (Units=1/GPa)
#
#
# Indices 1 2 3 4 5 6 
#
# 1 0.017554 -0.000853 -0.022274 0.000000 0.000000 0.000000
# 2 -0.000853 0.016463 -0.016954 0.000000 0.000000 0.000000
# 3 -0.022274 -0.016954 0.101353 0.000000 0.000000 0.000000
# 4 0.000000 0.000000 0.000000 0.040165 0.000000 0.000000
# 5 0.000000 0.000000 0.000000 0.000000 0.035434 0.000000
# 6 0.000000 0.000000 0.000000 0.000000 0.000000 0.041576
#
#
# Mechanical properties :
#
#
# Convention : Reuss Voigt Hill
#
# Bulk Modulus (GPa) = 18.11339 38.16982 28.14160
# Shear Modulus (GPa) = 14.24053 23.20644 18.72348
#
# Velocity S-wave (km/s) = 2.68049 3.42180 3.07357
# Velocity P-wave (km/s) = 4.32655 5.90509 5.17634
#
# Compressibility (1/GPa) = 0.05520778
#
# Stress axis : x y z
#
# Youngs Moduli (GPa) = 56.96641 60.74309 9.86648
#
# Poissons Ratio (x) = 0.05181 0.21977
# Poissons Ratio (y) = 0.04859 0.16728
# Poissons Ratio (z) = 1.26887 1.02986
#
# Static dielectric constant tensor:
#      x y z
#    x 1.701910 0.000000 0.000000 
#    y 0.000000 1.669820 0.000000 
#    z 0.000000 0.000000 1.843580 
# 
# From -- ./inp_files/7377.got.cif
#   From: 2010.05.17/outbox.cif.g08.bks.cpg/sg68_4_cif.got.tgz:7377.got - 2010.06.03 18:57:09.
