data_PCOD9509274
_publ_section_title
;
Structure prediction by ZEFSAII (Michael W. Deem and Ramdas Pophale) SiO2 
 PCOD9509274
Probable space group: C C C A
;
_chemical_formula_sum "Si O2"
_cell_formula_units_Z 88
_cell_length_a 26.854034
_cell_length_b 10.993284
_cell_length_c 13.513343
_cell_angle_alpha 90.000000
_cell_angle_beta 90.000000
_cell_angle_gamma 90.000000
_cell_volume 3989.328342
_symmetry_space_group_name_H-M "C C C A"
_symmetry_group_IT_number 68
_space_group.IT_coordinate_system_code '2'
_symmetry_cell_setting 'orthorhombic'
loop_
_space_group_symop_operation_xyz
x,y,z
-x,1/2-y,z
x,1/2-y,1/2-z
-x,y,1/2-z
-x,-y,-z
x,1/2+y,-z
-x,1/2+y,1/2+z
x,-y,1/2+z
1/2+x,1/2+y,z
1/2-x,-y,z
1/2+x,-y,1/2-z
1/2-x,1/2+y,1/2-z
1/2-x,1/2-y,-z
1/2+x,y,-z
1/2-x,y,1/2+z
1/2+x,1/2-y,1/2+z
loop_
_atom_site_type_symbol
_atom_site_label
_atom_site_fract_x
_atom_site_fract_y
_atom_site_fract_z
Si Si1 0.118512 0.845312 0.671310
Si Si2 0.336170 0.997122 0.841982
Si Si3 0.201410 0.250000 0.750000
Si Si4 0.492234 0.607144 0.861863
Si Si5 0.921984 0.485616 0.002178
Si Si6 0.278278 0.765910 0.397427
O O1 0.097262 0.750000 0.750000
O O2 0.083523 0.876741 0.580795
O O3 0.168145 0.793771 0.619251
O O4 0.136058 0.953523 0.743519
O O5 0.324613 0.856944 0.812679
O O6 0.291339 0.093300 0.866734
O O7 0.372211 0.004111 0.938126
O O8 0.240533 0.193200 0.673621
O O9 0.500000 0.750000 0.858597
O O10 0.500000 0.560454 0.750000
O O11 0.440583 0.588495 0.921355
O O12 0.534892 0.542370 0.925019
O O13 0.250000 0.750000 0.500000
#
# Coordination Sequence:
#
# PCOD9509274 Si02
#       6
#    16  16   8  16  16  16
#     4  10  23  43  65  98 140 179 238 297 346 434
#     4  11  25  43  70 104 142 189 247 296 368 439
#     4  12  24  44  66 102 147 191 238 306 362 418
#     4  10  24  46  72 101 143 175 229 296 363 451
#     4  11  24  43  73 105 136 185 234 291 368 441
#     4  11  24  44  67  96 142 194 247 301 357 422
#
# _framework density 22.058851000000001
#
# number of rings (size 3 to 8) (size 9 to 14) (size 15 to 20)
#    0.000    1.273    2.727    2.727    7.636    2.909 
#    0.000    0.000    0.000    0.000    0.000    0.000 
#    0.000    0.000    0.000    0.000    0.000    0.000 
#
# Total GULP energy -245152.106121 kJ/mol
# GULP energy per Si atom -5571.638775 kJ/mol
# Density = 2.200864 g / cm^3
# Si number density = 22.058851 Si / 1000 Ang^3
#
#
#
# Elastic Constant Matrix: (Units=GPa)
#
#
# Indices 1 2 3 4 5 6 
#
# 1 51.7209 34.4058 55.6325 0.0000 0.0000 0.0000
# 2 34.4058 76.8851 37.7138 0.0000 0.0000 0.0000
# 3 55.6325 37.7138 194.3006 0.0000 0.0000 0.0000
# 4 0.0000 0.0000 0.0000 22.6977 0.0000 0.0000
# 5 0.0000 0.0000 0.0000 0.0000 38.6782 0.0000
# 6 0.0000 0.0000 0.0000 0.0000 0.0000 32.4203
#
#
#
# Elastic Compliance Matrix: (Units=1/GPa)
#
#
# Indices 1 2 3 4 5 6 
#
# 1 0.035996 -0.012216 -0.007935 0.000000 0.000000 0.000000
# 2 -0.012216 0.018521 -0.000097 0.000000 0.000000 0.000000
# 3 -0.007935 -0.000097 0.007438 0.000000 0.000000 0.000000
# 4 0.000000 0.000000 0.000000 0.044057 0.000000 0.000000
# 5 0.000000 0.000000 0.000000 0.000000 0.025854 0.000000
# 6 0.000000 0.000000 0.000000 0.000000 0.000000 0.030845
#
#
# Mechanical properties :
#
#
# Convention : Reuss Voigt Hill
#
# Bulk Modulus (GPa) = 46.60318 64.26786 55.43552
# Shear Modulus (GPa) = 23.76874 31.76954 27.76914
#
# Velocity S-wave (km/s) = 3.28611 3.79914 3.55190
# Velocity P-wave (km/s) = 5.96411 6.96007 6.48125
#
# Compressibility (1/GPa) = 0.02145776
#
# Stress axis : x y z
#
# Youngs Moduli (GPa) = 27.78065 53.99397 134.45138
#
# Poissons Ratio (x) = 0.65957 1.06693
# Poissons Ratio (y) = 0.33936 0.01307
# Poissons Ratio (z) = 0.22045 0.00525
#
# Static dielectric constant tensor:
#      x y z
#    x 1.870680 0.000000 0.000000 
#    y 0.000000 1.529790 0.000000 
#    z 0.000000 0.000000 1.881850 
# 
# From -- ./inp_files/17622.got.cif
#   From: 2010.05.17/outbox.cif.g08.bks.cpg/sg68_9_cif.got.tgz:17622.got - 2010.06.03 18:57:09.
