data_PCOD9509578
_publ_section_title
;
Structure prediction by ZEFSAII (Michael W. Deem and Ramdas Pophale) SiO2 
 PCOD9509578
Probable space group: C C C A
;
_chemical_formula_sum "Si O2"
_cell_formula_units_Z 104
_cell_length_a 20.099138
_cell_length_b 9.186846
_cell_length_c 28.406116
_cell_angle_alpha 90.000000
_cell_angle_beta 90.000000
_cell_angle_gamma 90.000000
_cell_volume 5245.123575
_symmetry_space_group_name_H-M "C C C A"
_symmetry_group_IT_number 68
_space_group.IT_coordinate_system_code '2'
_symmetry_cell_setting 'orthorhombic'
loop_
_space_group_symop_operation_xyz
x,y,z
-x,1/2-y,z
x,1/2-y,1/2-z
-x,y,1/2-z
-x,-y,-z
x,1/2+y,-z
-x,1/2+y,1/2+z
x,-y,1/2+z
1/2+x,1/2+y,z
1/2-x,-y,z
1/2+x,-y,1/2-z
1/2-x,1/2+y,1/2-z
1/2-x,1/2-y,-z
1/2+x,y,-z
1/2-x,y,1/2+z
1/2+x,1/2-y,1/2+z
loop_
_atom_site_type_symbol
_atom_site_label
_atom_site_fract_x
_atom_site_fract_y
_atom_site_fract_z
Si Si1 0.352438 0.564510 0.638850
Si Si2 0.206467 0.638170 0.968255
Si Si3 0.923580 0.411128 0.764784
Si Si4 0.500000 0.750000 0.004667
Si Si5 0.689429 0.100465 0.777433
Si Si6 0.909718 0.509249 0.464095
Si Si7 0.719769 0.264576 0.867494
O O1 0.406747 0.580860 0.679794
O O2 0.382075 0.539365 0.587405
O O3 0.314393 0.413846 0.649228
O O4 0.298466 0.695702 0.635551
O O5 0.250000 0.500000 0.953605
O O6 0.194851 0.726115 0.919962
O O7 0.250000 0.750000 0.000000
O O8 0.146740 0.561695 0.998041
O O9 0.902120 0.250000 0.750000
O O10 0.878811 0.524391 0.736401
O O11 0.000000 0.429912 0.750000
O O12 0.442109 0.653326 0.030856
O O13 0.532885 0.626041 0.973340
O O14 0.694902 0.250000 0.750000
O O15 0.698851 0.137875 0.832148
O O16 0.750000 0.000000 0.761683
#
# Coordination Sequence:
#
# PCOD9509578 Si02
#       7
#    16  16  16   8  16  16  16
#     4  11  22  43  69  98 134 176 223 291 350 410
#     4  12  23  40  67 103 139 172 219 290 350 412
#     4  11  26  48  69  97 137 180 230 286 353 418
#     4  10  24  44  62  94 132 194 226 268 328 414
#     4  12  23  43  69 100 133 173 226 288 342 415
#     4  11  23  43  67  94 140 177 231 277 341 406
#     4  11  23  39  68 104 132 175 226 278 362 412
#
# _framework density 19.827942
#
# number of rings (size 3 to 8) (size 9 to 14) (size 15 to 20)
#    0.000    0.769    3.077    5.538    0.000    1.538 
#    8.308    0.000    0.000    0.000    0.000    0.000 
#    0.000    0.000    0.000    0.000    0.000    0.000 
#
# Total GULP energy -290228.122149 kJ/mol
# GULP energy per Si atom -5581.310041 kJ/mol
# Density = 1.978281 g / cm^3
# Si number density = 19.827942 Si / 1000 Ang^3
#
#
#
# Elastic Constant Matrix: (Units=GPa)
#
#
# Indices 1 2 3 4 5 6 
#
# 1 68.2910 32.1132 51.3726 0.0000 0.0000 0.0000
# 2 32.1132 115.7965 40.5222 0.0000 0.0000 0.0000
# 3 51.3726 40.5222 141.5907 0.0000 0.0000 0.0000
# 4 0.0000 0.0000 0.0000 31.8348 0.0000 0.0000
# 5 0.0000 0.0000 0.0000 0.0000 26.9821 0.0000
# 6 0.0000 0.0000 0.0000 0.0000 0.0000 44.1817
#
#
#
# Elastic Compliance Matrix: (Units=1/GPa)
#
#
# Indices 1 2 3 4 5 6 
#
# 1 0.021394 -0.003575 -0.006739 0.000000 0.000000 0.000000
# 2 -0.003575 0.010194 -0.001621 0.000000 0.000000 0.000000
# 3 -0.006739 -0.001621 0.009972 0.000000 0.000000 0.000000
# 4 0.000000 0.000000 0.000000 0.031412 0.000000 0.000000
# 5 0.000000 0.000000 0.000000 0.000000 0.037062 0.000000
# 6 0.000000 0.000000 0.000000 0.000000 0.000000 0.022634
#
#
# Mechanical properties :
#
#
# Convention : Reuss Voigt Hill
#
# Bulk Modulus (GPa) = 56.52645 63.74379 60.13512
# Shear Modulus (GPa) = 30.78194 34.04440 32.41317
#
# Velocity S-wave (km/s) = 3.94439 4.14815 4.04756
# Velocity P-wave (km/s) = 7.02244 7.42706 7.22758
#
# Compressibility (1/GPa) = 0.01769083
#
# Stress axis : x y z
#
# Youngs Moduli (GPa) = 46.74250 98.09410 100.28550
#
# Poissons Ratio (x) = 0.35066 0.67584
# Poissons Ratio (y) = 0.16709 0.16252
# Poissons Ratio (z) = 0.31500 0.15897
#
# Static dielectric constant tensor:
#      x y z
#    x 1.737020 0.000000 0.000000 
#    y 0.000000 1.702870 0.000000 
#    z 0.000000 0.000000 1.701270 
# 
# From -- ./inp_files/51844.got.cif
#   From: 2010.05.17/outbox.cif.g08.bks.cpg/sg68_26_cif.got.tgz:51844.got - 2010.06.03 18:57:09.
