data_PCOD9509050
_publ_section_title
;
Structure prediction by ZEFSAII (Michael W. Deem and Ramdas Pophale) SiO2 
 PCOD9509050
Probable space group: C C C A
;
_chemical_formula_sum "Si O2"
_cell_formula_units_Z 80
_cell_length_a 12.887198
_cell_length_b 24.421962
_cell_length_c 13.089263
_cell_angle_alpha 90.000000
_cell_angle_beta 90.000000
_cell_angle_gamma 90.000000
_cell_volume 4119.592381
_symmetry_space_group_name_H-M "C C C A"
_symmetry_group_IT_number 68
_space_group.IT_coordinate_system_code '2'
_symmetry_cell_setting 'orthorhombic'
loop_
_space_group_symop_operation_xyz
x,y,z
-x,1/2-y,z
x,1/2-y,1/2-z
-x,y,1/2-z
-x,-y,-z
x,1/2+y,-z
-x,1/2+y,1/2+z
x,-y,1/2+z
1/2+x,1/2+y,z
1/2-x,-y,z
1/2+x,-y,1/2-z
1/2-x,1/2+y,1/2-z
1/2-x,1/2-y,-z
1/2+x,y,-z
1/2-x,y,1/2+z
1/2+x,1/2-y,1/2+z
loop_
_atom_site_type_symbol
_atom_site_label
_atom_site_fract_x
_atom_site_fract_y
_atom_site_fract_z
Si Si1 0.229619 0.907161 0.354504
Si Si2 0.588327 0.456874 0.532233
Si Si3 0.539623 0.859859 0.132666
Si Si4 0.750000 0.000000 0.310264
Si Si5 0.393029 0.702732 0.684752
Si Si6 0.000000 0.250000 0.490543
O O1 0.169971 0.938847 0.445090
O O2 0.346819 0.887460 0.375911
O O3 0.166777 0.853088 0.325242
O O4 0.230435 0.948104 0.260208
O O5 0.500000 0.500000 0.500000
O O6 0.536547 0.401337 0.573727
O O7 0.652156 0.486407 0.620570
O O8 0.500000 0.855713 0.250000
O O9 0.538269 0.800456 0.078562
O O10 0.336181 0.750000 0.750000
O O11 0.500000 0.693639 0.750000
O O12 0.416932 0.725628 0.571710
#
# Coordination Sequence:
#
# PCOD9509050 Si02
#       6
#    16  16  16   8  16   8
#     4  12  26  45  73 103 138 193 233 289 359 420
#     4  12  27  45  72 104 140 187 234 294 349 423
#     4  12  25  47  68 105 145 178 235 290 356 417
#     4  12  26  46  70 102 144 180 238 284 352 422
#     4   9  22  42  69 106 134 179 237 288 351 419
#     4  10  22  46  70  98 148 182 228 300 350 420
#
# _framework density 19.419397
#
# number of rings (size 3 to 8) (size 9 to 14) (size 15 to 20)
#    0.000    1.000    4.000    3.300    2.800    5.600 
#    0.000    0.000    0.000    0.000    0.000    0.000 
#    0.000    0.000    0.000    0.000    0.000    0.000 
#
# Total GULP energy -223519.499310 kJ/mol
# GULP energy per Si atom -5587.987483 kJ/mol
# Density = 1.937520 g / cm^3
# Si number density = 19.419397 Si / 1000 Ang^3
#
#
#
# Elastic Constant Matrix: (Units=GPa)
#
#
# Indices 1 2 3 4 5 6 
#
# 1 122.4810 76.0296 82.5119 0.0000 0.0000 0.0000
# 2 76.0296 169.3883 89.5182 0.0000 0.0000 0.0000
# 3 82.5119 89.5182 157.1729 0.0000 0.0000 0.0000
# 4 0.0000 0.0000 0.0000 74.6061 0.0000 0.0000
# 5 0.0000 0.0000 0.0000 0.0000 30.8182 0.0000
# 6 0.0000 0.0000 0.0000 0.0000 0.0000 40.9539
#
#
#
# Elastic Compliance Matrix: (Units=1/GPa)
#
#
# Indices 1 2 3 4 5 6 
#
# 1 0.013880 -0.003404 -0.005348 0.000000 0.000000 0.000000
# 2 -0.003404 0.009280 -0.003499 0.000000 0.000000 0.000000
# 3 -0.005348 -0.003499 0.011163 0.000000 0.000000 0.000000
# 4 0.000000 0.000000 0.000000 0.013404 0.000000 0.000000
# 5 0.000000 0.000000 0.000000 0.000000 0.032448 0.000000
# 6 0.000000 0.000000 0.000000 0.000000 0.000000 0.024418
#
#
# Mechanical properties :
#
#
# Convention : Reuss Voigt Hill
#
# Bulk Modulus (GPa) = 101.81154 105.01796 103.41475
# Shear Modulus (GPa) = 37.77320 42.67447 40.22383
#
# Velocity S-wave (km/s) = 4.41514 4.69285 4.55612
# Velocity P-wave (km/s) = 8.86188 9.14112 9.00258
#
# Compressibility (1/GPa) = 0.00982207
#
# Stress axis : x y z
#
# Youngs Moduli (GPa) = 72.04432 107.75397 89.58273
#
# Poissons Ratio (x) = 0.36677 0.47911
# Poissons Ratio (y) = 0.24522 0.31343
# Poissons Ratio (z) = 0.38531 0.37701
#
# Static dielectric constant tensor:
#      x y z
#    x 1.752940 0.000000 0.000000 
#    y 0.000000 1.649440 0.000000 
#    z 0.000000 0.000000 1.780220 
# 
# From -- ./inp_files/13265.got.cif
#   From: 2010.05.17/outbox.cif.g08.bks.cpg/sg68_7_cif.got.tgz:13265.got - 2010.06.03 18:57:09.
