data_PCOD9509640
_publ_section_title
;
Structure prediction by ZEFSAII (Michael W. Deem and Ramdas Pophale) SiO2 
 PCOD9509640
Probable space group: C C C A
;
_chemical_formula_sum "Si O2"
_cell_formula_units_Z 60
_cell_length_a 11.181815
_cell_length_b 26.196843
_cell_length_c 8.629287
_cell_angle_alpha 90.000000
_cell_angle_beta 90.000000
_cell_angle_gamma 90.000000
_cell_volume 2527.761957
_symmetry_space_group_name_H-M "C C C A"
_symmetry_group_IT_number 68
_space_group.IT_coordinate_system_code '2'
_symmetry_cell_setting 'orthorhombic'
loop_
_space_group_symop_operation_xyz
x,y,z
-x,1/2-y,z
x,1/2-y,1/2-z
-x,y,1/2-z
-x,-y,-z
x,1/2+y,-z
-x,1/2+y,1/2+z
x,-y,1/2+z
1/2+x,1/2+y,z
1/2-x,-y,z
1/2+x,-y,1/2-z
1/2-x,1/2+y,1/2-z
1/2-x,1/2-y,-z
1/2+x,y,-z
1/2-x,y,1/2+z
1/2+x,1/2-y,1/2+z
loop_
_atom_site_type_symbol
_atom_site_label
_atom_site_fract_x
_atom_site_fract_y
_atom_site_fract_z
Si Si1 0.000000 0.965621 0.750000
Si Si2 0.000000 0.250000 0.250000
Si Si3 0.805231 0.196189 0.450413
Si Si4 0.360715 0.130421 0.267527
Si Si5 0.653561 0.039311 0.028645
O O1 0.078917 0.937845 0.617004
O O2 0.922404 0.002738 0.641077
O O3 0.088255 0.288348 0.337993
O O4 0.750000 0.250000 0.500000
O O5 0.710877 0.155783 0.375321
O O6 0.860718 0.174025 0.605045
O O7 0.500000 0.114977 0.250000
O O8 0.298626 0.082793 0.355626
O O9 0.750000 0.000000 0.960041
#
# Coordination Sequence:
#
# PCOD9509640 Si02
#       5
#     8   4  16  16  16
#     4  10  24  45  70 102 157 193 240 315 374 436
#     4  12  24  50  72 112 148 196 242 324 388 460
#     4  12  26  49  78 108 153 198 251 318 393 461
#     4  12  28  48  77 113 147 200 259 316 384 464
#     4  11  25  46  73 107 151 200 250 311 378 457
#
# _framework density 23.736414
#
# number of rings (size 3 to 8) (size 9 to 14) (size 15 to 20)
#    0.000    0.533    4.000    2.400    7.467    2.133 
#    0.000    0.000    0.000    0.000    0.000    0.000 
#    0.000    0.000    0.000    0.000    0.000    0.000 
#
# Total GULP energy -167550.940392 kJ/mol
# GULP energy per Si atom -5585.031346 kJ/mol
# Density = 2.368239 g / cm^3
# Si number density = 23.736414 Si / 1000 Ang^3
#
#
#
# Elastic Constant Matrix: (Units=GPa)
#
#
# Indices 1 2 3 4 5 6 
#
# 1 83.1715 14.4969 33.9787 0.0000 0.0000 0.0000
# 2 14.4969 84.7220 5.7387 0.0000 0.0000 0.0000
# 3 33.9787 5.7387 102.3619 0.0000 0.0000 0.0000
# 4 0.0000 0.0000 0.0000 48.6039 0.0000 0.0000
# 5 0.0000 0.0000 0.0000 0.0000 5.7290 0.0000
# 6 0.0000 0.0000 0.0000 0.0000 0.0000 26.2635
#
#
#
# Elastic Compliance Matrix: (Units=1/GPa)
#
#
# Indices 1 2 3 4 5 6 
#
# 1 0.014283 -0.002131 -0.004622 0.000000 0.000000 0.000000
# 2 -0.002131 0.012166 0.000025 0.000000 0.000000 0.000000
# 3 -0.004622 0.000025 0.011302 0.000000 0.000000 0.000000
# 4 0.000000 0.000000 0.000000 0.020574 0.000000 0.000000
# 5 0.000000 0.000000 0.000000 0.000000 0.174551 0.000000
# 6 0.000000 0.000000 0.000000 0.000000 0.000000 0.038076
#
#
# Mechanical properties :
#
#
# Convention : Reuss Voigt Hill
#
# Bulk Modulus (GPa) = 41.15827 42.07601 41.61714
# Shear Modulus (GPa) = 17.09368 30.52203 23.80785
#
# Velocity S-wave (km/s) = 2.68646 3.58980 3.17047
# Velocity P-wave (km/s) = 5.19617 5.91160 5.56539
#
# Compressibility (1/GPa) = 0.02429645
#
# Stress axis : x y z
#
# Youngs Moduli (GPa) = 70.01377 82.19484 88.47989
#
# Poissons Ratio (x) = 0.17515 0.40893
# Poissons Ratio (y) = 0.14919 -0.00224
# Poissons Ratio (z) = 0.32358 -0.00208
#
# Static dielectric constant tensor:
#      x y z
#    x 1.947380 0.000000 0.000000 
#    y 0.000000 1.869640 0.000000 
#    z 0.000000 0.000000 1.902780 
# 
# From -- ./inp_files/3919.got.cif
#   From: 2010.05.17/outbox.cif.g08.bks.cpg/sg68_2_cif.got.tgz:3919.got - 2010.06.03 18:57:09.
