data_PCOD9509480
_publ_section_title
;
Structure prediction by ZEFSAII (Michael W. Deem and Ramdas Pophale) SiO2 
 PCOD9509480
Probable space group: C C C A
;
_chemical_formula_sum "Si O2"
_cell_formula_units_Z 104
_cell_length_a 20.687966
_cell_length_b 8.522960
_cell_length_c 27.679155
_cell_angle_alpha 90.000000
_cell_angle_beta 90.000000
_cell_angle_gamma 90.000000
_cell_volume 4880.463529
_symmetry_space_group_name_H-M "C C C A"
_symmetry_group_IT_number 68
_space_group.IT_coordinate_system_code '2'
_symmetry_cell_setting 'orthorhombic'
loop_
_space_group_symop_operation_xyz
x,y,z
-x,1/2-y,z
x,1/2-y,1/2-z
-x,y,1/2-z
-x,-y,-z
x,1/2+y,-z
-x,1/2+y,1/2+z
x,-y,1/2+z
1/2+x,1/2+y,z
1/2-x,-y,z
1/2+x,-y,1/2-z
1/2-x,1/2+y,1/2-z
1/2-x,1/2-y,-z
1/2+x,y,-z
1/2-x,y,1/2+z
1/2+x,1/2-y,1/2+z
loop_
_atom_site_type_symbol
_atom_site_label
_atom_site_fract_x
_atom_site_fract_y
_atom_site_fract_z
Si Si1 0.678953 0.573859 0.769080
Si Si2 0.366711 0.356584 0.015800
Si Si3 0.674497 0.048444 0.829644
Si Si4 0.968271 0.087130 0.068430
Si Si5 0.250000 0.500000 0.066233
Si Si6 0.357109 0.394369 0.641695
Si Si7 0.606410 0.962927 0.926955
O O1 0.686503 0.750000 0.750000
O O2 0.750000 0.500000 0.776328
O O3 0.646472 0.494115 0.722650
O O4 0.643657 0.535327 0.819304
O O5 0.419958 0.482842 0.035599
O O6 0.294166 0.393217 0.032566
O O7 0.381310 0.191057 0.040777
O O8 0.369540 0.386208 0.958450
O O9 0.664247 0.233144 0.834228
O O10 0.750000 0.000000 0.829708
O O11 0.641927 0.964727 0.875648
O O12 0.925797 0.124573 0.115501
O O13 0.000000 0.250000 0.048086
O O14 0.030260 0.982646 0.080245
O O15 0.302897 0.576006 0.101180
#
# Coordination Sequence:
#
# PCOD9509480 Si02
#       7
#    16  16  16  16   8  16  16
#     4  11  23  40  69 103 140 176 221 273 346 412
#     4  11  26  42  69  98 141 178 228 282 337 408
#     4  11  24  40  68 100 134 177 221 280 341 404
#     4  11  23  45  69  96 128 184 231 277 331 399
#     4  10  24  40  70 104 136 176 218 286 348 382
#     4  11  22  43  71  98 139 171 225 279 337 409
#     4  12  25  44  66  99 138 181 233 274 338 406
#
# _framework density 21.309449999999998
#
# number of rings (size 3 to 8) (size 9 to 14) (size 15 to 20)
#    0.000    0.923    2.308    5.077    7.538    0.615 
#    0.000    0.769    0.000    0.923    0.000    0.000 
#    0.000    0.000    0.000    0.000    0.000    0.000 
#
# Total GULP energy -290569.164589 kJ/mol
# GULP energy per Si atom -5587.868550 kJ/mol
# Density = 2.126095 g / cm^3
# Si number density = 21.309450 Si / 1000 Ang^3
#
#
#
# Elastic Constant Matrix: (Units=GPa)
#
#
# Indices 1 2 3 4 5 6 
#
# 1 109.4602 29.7366 39.6066 0.0000 0.0000 0.0000
# 2 29.7366 86.6343 7.1237 0.0000 0.0000 0.0000
# 3 39.6066 7.1237 93.9152 0.0000 0.0000 0.0000
# 4 0.0000 0.0000 0.0000 51.5748 0.0000 0.0000
# 5 0.0000 0.0000 0.0000 0.0000 23.0844 0.0000
# 6 0.0000 0.0000 0.0000 0.0000 0.0000 35.1726
#
#
#
# Elastic Compliance Matrix: (Units=1/GPa)
#
#
# Indices 1 2 3 4 5 6 
#
# 1 0.011840 -0.003676 -0.004715 0.000000 0.000000 0.000000
# 2 -0.003676 0.012757 0.000583 0.000000 0.000000 0.000000
# 3 -0.004715 0.000583 0.012592 0.000000 0.000000 0.000000
# 4 0.000000 0.000000 0.000000 0.019389 0.000000 0.000000
# 5 0.000000 0.000000 0.000000 0.000000 0.043319 0.000000
# 6 0.000000 0.000000 0.000000 0.000000 0.000000 0.028431
#
#
# Mechanical properties :
#
#
# Convention : Reuss Voigt Hill
#
# Bulk Modulus (GPa) = 46.35478 49.21595 47.78536
# Shear Modulus (GPa) = 33.08272 36.20254 34.64263
#
# Velocity S-wave (km/s) = 3.94444 4.12624 4.03636
# Velocity P-wave (km/s) = 6.52267 6.77105 6.64802
#
# Compressibility (1/GPa) = 0.02157275
#
# Stress axis : x y z
#
# Youngs Moduli (GPa) = 84.45661 78.38978 79.41584
#
# Poissons Ratio (x) = 0.28820 0.37441
# Poissons Ratio (y) = 0.31050 -0.04629
# Poissons Ratio (z) = 0.39818 -0.04569
#
# Static dielectric constant tensor:
#      x y z
#    x 1.740230 0.000000 0.000000 
#    y 0.000000 1.852120 0.000000 
#    z 0.000000 0.000000 1.810300 
# 
# From -- ./inp_files/51826.got.cif
#   From: 2010.05.17/outbox.cif.g08.bks.cpg/sg68_26_cif.got.tgz:51826.got - 2010.06.03 18:57:09.
