data_PCOD9509011
_publ_section_title
;
Structure prediction by ZEFSAII (Michael W. Deem and Ramdas Pophale) SiO2 
 PCOD9509011
Probable space group: C C C A
;
_chemical_formula_sum "Si O2"
_cell_formula_units_Z 68
_cell_length_a 11.636595
_cell_length_b 24.513061
_cell_length_c 10.160402
_cell_angle_alpha 90.000000
_cell_angle_beta 90.000000
_cell_angle_gamma 90.000000
_cell_volume 2898.240071
_symmetry_space_group_name_H-M "C C C A"
_symmetry_group_IT_number 68
_space_group.IT_coordinate_system_code '2'
_symmetry_cell_setting 'orthorhombic'
loop_
_space_group_symop_operation_xyz
x,y,z
-x,1/2-y,z
x,1/2-y,1/2-z
-x,y,1/2-z
-x,-y,-z
x,1/2+y,-z
-x,1/2+y,1/2+z
x,-y,1/2+z
1/2+x,1/2+y,z
1/2-x,-y,z
1/2+x,-y,1/2-z
1/2-x,1/2+y,1/2-z
1/2-x,1/2-y,-z
1/2+x,y,-z
1/2-x,y,1/2+z
1/2+x,1/2-y,1/2+z
loop_
_atom_site_type_symbol
_atom_site_label
_atom_site_fract_x
_atom_site_fract_y
_atom_site_fract_z
Si Si1 0.750000 0.000000 0.522832
Si Si2 0.419338 0.332398 0.028239
Si Si3 0.257474 0.389634 0.674350
Si Si4 0.500000 0.843217 0.250000
Si Si5 0.000000 0.750000 0.250000
Si Si6 0.078352 0.428830 0.867502
O O1 0.734467 0.948762 0.615592
O O2 0.857976 0.979171 0.436996
O O3 0.288709 0.349883 0.059749
O O4 0.439781 0.290158 0.146002
O O5 0.496407 0.387430 0.051620
O O6 0.454733 0.313087 0.882547
O O7 0.387767 0.378170 0.711314
O O8 0.175697 0.389991 0.801841
O O9 0.000000 0.450794 0.750000
#
# Coordination Sequence:
#
# PCOD9509011 Si02
#       6
#     8  16  16   8   4  16
#     4  12  22  42  72 110 160 206 250 312 410 458
#     4  11  25  49  81 109 156 205 274 329 393 469
#     4  11  24  46  72 113 156 205 259 318 383 481
#     4  12  26  47  79 116 158 197 264 335 390 472
#     4  12  24  54  90 106 152 228 252 344 430 444
#     4  10  22  45  68 108 152 205 258 317 377 472
#
# _framework density 23.462515
#
# number of rings (size 3 to 8) (size 9 to 14) (size 15 to 20)
#    0.000    0.941    5.882    2.118    0.000    4.235 
#   23.294    4.706    0.000    0.000    0.000    0.000 
#    0.000    0.000    0.000    0.000    0.000    0.000 
#
# Total GULP energy -189730.960145 kJ/mol
# GULP energy per Si atom -5580.322357 kJ/mol
# Density = 2.340911 g / cm^3
# Si number density = 23.462515 Si / 1000 Ang^3
#
#
#
# Elastic Constant Matrix: (Units=GPa)
#
#
# Indices 1 2 3 4 5 6 
#
# 1 157.8018 24.9327 52.6787 0.0000 0.0000 0.0000
# 2 24.9327 87.3028 40.4277 0.0000 0.0000 0.0000
# 3 52.6787 40.4277 155.5099 0.0000 0.0000 0.0000
# 4 0.0000 0.0000 0.0000 -1.8311 0.0000 0.0000
# 5 0.0000 0.0000 0.0000 0.0000 47.5822 0.0000
# 6 0.0000 0.0000 0.0000 0.0000 0.0000 -31.7928
#
#
#
# Elastic Compliance Matrix: (Units=1/GPa)
#
#
# Indices 1 2 3 4 5 6 
#
# 1 0.007230 -0.001058 -0.002174 0.000000 0.000000 0.000000
# 2 -0.001058 0.013177 -0.003067 0.000000 0.000000 0.000000
# 3 -0.002174 -0.003067 0.007964 0.000000 0.000000 0.000000
# 4 0.000000 0.000000 0.000000 -0.546125 0.000000 0.000000
# 5 0.000000 0.000000 0.000000 0.000000 0.021016 0.000000
# 6 0.000000 0.000000 0.000000 0.000000 0.000000 -0.031454
#
#
# Mechanical properties :
#
#
# Convention : Reuss Voigt Hill
#
# Bulk Modulus (GPa) = 63.40118 70.74364 67.07241
# Shear Modulus (GPa) = -9.79748 21.63003 5.91627
#
# Velocity S-wave (km/s) = -2.04569 3.03957 1.58967
# Velocity P-wave (km/s) = 4.63694 6.52195 5.65849
#
# Compressibility (1/GPa) = 0.01577258
#
# Stress axis : x y z
#
# Youngs Moduli (GPa) = 138.31242 75.89053 125.56030
#
# Poissons Ratio (x) = 0.08030 0.27298
# Poissons Ratio (y) = 0.14634 0.38511
# Poissons Ratio (z) = 0.30070 0.23277
#
# Static dielectric constant tensor:
#      x y z
#    x 1.931160 0.000000 0.000000 
#    y 0.000000 1.898310 0.000000 
#    z 0.000000 0.000000 2.014100 
# 
# From -- ./inp_files/11867.got.cif
#   From: 2010.05.17/outbox.cif.g08.bks.cpg/sg68_6_cif.got.tgz:11867.got - 2010.06.03 18:57:09.
