data_PCOD9509438
_publ_section_title
;
Structure prediction by ZEFSAII (Michael W. Deem and Ramdas Pophale) SiO2 
 PCOD9509438
Probable space group: C C C A
;
_chemical_formula_sum "Si O2"
_cell_formula_units_Z 60
_cell_length_a 16.014771
_cell_length_b 9.473754
_cell_length_c 18.444655
_cell_angle_alpha 90.000000
_cell_angle_beta 90.000000
_cell_angle_gamma 90.000000
_cell_volume 2798.423072
_symmetry_space_group_name_H-M "C C C A"
_symmetry_group_IT_number 68
_space_group.IT_coordinate_system_code '2'
_symmetry_cell_setting 'orthorhombic'
loop_
_space_group_symop_operation_xyz
x,y,z
-x,1/2-y,z
x,1/2-y,1/2-z
-x,y,1/2-z
-x,-y,-z
x,1/2+y,-z
-x,1/2+y,1/2+z
x,-y,1/2+z
1/2+x,1/2+y,z
1/2-x,-y,z
1/2+x,-y,1/2-z
1/2-x,1/2+y,1/2-z
1/2-x,1/2-y,-z
1/2+x,y,-z
1/2-x,y,1/2+z
1/2+x,1/2-y,1/2+z
loop_
_atom_site_type_symbol
_atom_site_label
_atom_site_fract_x
_atom_site_fract_y
_atom_site_fract_z
Si Si1 0.134917 0.579916 0.658313
Si Si2 0.937102 0.131999 0.011318
Si Si3 0.500000 0.750000 0.250000
Si Si4 0.770400 0.250000 0.750000
Si Si5 0.402749 0.750978 0.646196
O O1 0.132325 0.617367 0.572855
O O2 0.211330 0.649102 0.702113
O O3 0.124513 0.411707 0.653554
O O4 0.056046 0.649346 0.699322
O O5 0.000000 0.250000 0.039303
O O6 0.097720 0.315303 0.934296
O O7 0.000000 0.000000 0.000000
O O8 0.835350 0.329893 0.696283
O O9 0.500000 0.750000 0.668350
#
# Coordination Sequence:
#
# PCOD9509438 Si02
#       5
#    16  16   4   8  16
#     4  11  23  44  66 106 142 183 248 297 366 426
#     4  11  21  42  74 107 135 189 253 299 359 434
#     4  10  24  36  72  96 142 186 236 308 348 450
#     4  11  27  45  63 104 148 192 239 301 369 421
#     4  11  24  44  72 101 143 194 244 301 357 444
#
# _framework density 21.440646999999998
#
# number of rings (size 3 to 8) (size 9 to 14) (size 15 to 20)
#    0.000    1.067    6.667    1.200    3.733    1.067 
#    4.800    0.000    0.000    0.000    0.000    0.000 
#    0.000    0.000    0.000    0.000    0.000    0.000 
#
# Total GULP energy -167351.680620 kJ/mol
# GULP energy per Si atom -5578.389354 kJ/mol
# Density = 2.139185 g / cm^3
# Si number density = 21.440647 Si / 1000 Ang^3
#
#
#
# Elastic Constant Matrix: (Units=GPa)
#
#
# Indices 1 2 3 4 5 6 
#
# 1 160.5738 44.9424 93.6826 0.0000 0.0000 0.0000
# 2 44.9424 118.4081 60.0671 0.0000 0.0000 0.0000
# 3 93.6826 60.0671 214.5330 0.0000 0.0000 0.0000
# 4 0.0000 0.0000 0.0000 24.3208 0.0000 0.0000
# 5 0.0000 0.0000 0.0000 0.0000 82.2915 0.0000
# 6 0.0000 0.0000 0.0000 0.0000 0.0000 24.1256
#
#
#
# Elastic Compliance Matrix: (Units=1/GPa)
#
#
# Indices 1 2 3 4 5 6 
#
# 1 0.008605 -0.001585 -0.003314 0.000000 0.000000 0.000000
# 2 -0.001585 0.010135 -0.002146 0.000000 0.000000 0.000000
# 3 -0.003314 -0.002146 0.006709 0.000000 0.000000 0.000000
# 4 0.000000 0.000000 0.000000 0.041117 0.000000 0.000000
# 5 0.000000 0.000000 0.000000 0.000000 0.012152 0.000000
# 6 0.000000 0.000000 0.000000 0.000000 0.000000 0.041450
#
#
# Mechanical properties :
#
#
# Convention : Reuss Voigt Hill
#
# Bulk Modulus (GPa) = 88.02476 98.98879 93.50678
# Shear Modulus (GPa) = 36.22053 45.80244 41.01148
#
# Velocity S-wave (km/s) = 4.11462 4.62697 4.37829
# Velocity P-wave (km/s) = 7.98233 8.64951 8.32261
#
# Compressibility (1/GPa) = 0.01136044
#
# Stress axis : x y z
#
# Youngs Moduli (GPa) = 116.21771 98.66388 149.05153
#
# Poissons Ratio (x) = 0.15637 0.49391
# Poissons Ratio (y) = 0.18419 0.31982
# Poissons Ratio (z) = 0.38511 0.21170
#
# Static dielectric constant tensor:
#      x y z
#    x 1.791740 0.000000 0.000000 
#    y 0.000000 1.804700 0.000000 
#    z 0.000000 0.000000 1.879780 
# 
# From -- ./inp_files/30423.got.cif
#   From: 2010.05.17/outbox.cif.g08.bks.cpg/sg68_16_cif.got.tgz:30423.got - 2010.06.03 18:57:09.
