data_PCOD9509565
_publ_section_title
;
Structure prediction by ZEFSAII (Michael W. Deem and Ramdas Pophale) SiO2 
 PCOD9509565
Probable space group: C C C A
;
_chemical_formula_sum "Si O2"
_cell_formula_units_Z 68
_cell_length_a 22.676778
_cell_length_b 7.321251
_cell_length_c 15.959543
_cell_angle_alpha 90.000000
_cell_angle_beta 90.000000
_cell_angle_gamma 90.000000
_cell_volume 2649.641370
_symmetry_space_group_name_H-M "C C C A"
_symmetry_group_IT_number 68
_space_group.IT_coordinate_system_code '2'
_symmetry_cell_setting 'orthorhombic'
loop_
_space_group_symop_operation_xyz
x,y,z
-x,1/2-y,z
x,1/2-y,1/2-z
-x,y,1/2-z
-x,-y,-z
x,1/2+y,-z
-x,1/2+y,1/2+z
x,-y,1/2+z
1/2+x,1/2+y,z
1/2-x,-y,z
1/2+x,-y,1/2-z
1/2-x,1/2+y,1/2-z
1/2-x,1/2-y,-z
1/2+x,y,-z
1/2-x,y,1/2+z
1/2+x,1/2-y,1/2+z
loop_
_atom_site_type_symbol
_atom_site_label
_atom_site_fract_x
_atom_site_fract_y
_atom_site_fract_z
Si Si1 0.101820 0.636253 0.617751
Si Si2 0.954527 0.120143 0.947498
Si Si3 0.857890 0.224140 0.849991
Si Si4 0.500000 0.250000 0.750000
Si Si5 0.233114 0.711323 0.651678
O O1 0.080932 0.700040 0.526492
O O2 0.118885 0.420461 0.617038
O O3 0.164908 0.733402 0.630702
O O4 0.048051 0.660075 0.684609
O O5 0.905143 0.074265 0.879846
O O6 0.000000 0.250000 0.899510
O O7 0.000000 0.000000 0.000000
O O8 0.857086 0.250000 0.750000
O O9 0.791410 0.184400 0.881932
O O10 0.234423 0.750000 0.750000
O O11 0.250000 0.500000 0.636628
#
# Coordination Sequence:
#
# PCOD9509565 Si02
#       5
#    16  16  16   4  16
#     4  11  23  40  66  96 131 172 220 275 337 400
#     4  12  25  43  62  95 135 170 219 279 331 398
#     4  10  24  43  69  92 130 180 226 270 338 405
#     4  12  24  36  66 100 138 168 208 272 344 400
#     4   9  19  41  64  93 129 169 226 279 326 401
#
# _framework density 25.663851000000001
#
# number of rings (size 3 to 8) (size 9 to 14) (size 15 to 20)
#    0.000    1.412    4.706    0.000    3.294    1.412 
#    4.235    0.000    0.000    0.000    0.000    0.000 
#    0.000    0.000    0.000    0.000    0.000    0.000 
#
# Total GULP energy -189554.508493 kJ/mol
# GULP energy per Si atom -5575.132603 kJ/mol
# Density = 2.560544 g / cm^3
# Si number density = 25.663851 Si / 1000 Ang^3
#
#
#
# Elastic Constant Matrix: (Units=GPa)
#
#
# Indices 1 2 3 4 5 6 
#
# 1 318.2725 60.2323 67.2270 0.0000 0.0000 0.0000
# 2 60.2323 50.4136 11.9526 0.0000 0.0000 0.0000
# 3 67.2270 11.9526 85.9356 0.0000 0.0000 0.0000
# 4 0.0000 0.0000 0.0000 20.9806 0.0000 0.0000
# 5 0.0000 0.0000 0.0000 0.0000 50.8398 0.0000
# 6 0.0000 0.0000 0.0000 0.0000 0.0000 41.6981
#
#
#
# Elastic Compliance Matrix: (Units=1/GPa)
#
#
# Indices 1 2 3 4 5 6 
#
# 1 0.004704 -0.004910 -0.002997 0.000000 0.000000 0.000000
# 2 -0.004910 0.025637 0.000275 0.000000 0.000000 0.000000
# 3 -0.002997 0.000275 0.013943 0.000000 0.000000 0.000000
# 4 0.000000 0.000000 0.000000 0.047663 0.000000 0.000000
# 5 0.000000 0.000000 0.000000 0.000000 0.019670 0.000000
# 6 0.000000 0.000000 0.000000 0.000000 0.000000 0.023982
#
#
# Mechanical properties :
#
#
# Convention : Reuss Voigt Hill
#
# Bulk Modulus (GPa) = 34.45861 81.49395 57.97628
# Shear Modulus (GPa) = 31.14569 43.71767 37.43168
#
# Velocity S-wave (km/s) = 3.48746 4.13179 3.82322
# Velocity P-wave (km/s) = 5.44725 7.38821 6.49069
#
# Compressibility (1/GPa) = 0.02902032
#
# Stress axis : x y z
#
# Youngs Moduli (GPa) = 212.57549 39.00649 71.72043
#
# Poissons Ratio (x) = 0.19151 0.21496
# Poissons Ratio (y) = 1.04371 -0.01973
# Poissons Ratio (z) = 0.63713 -0.01073
#
# Static dielectric constant tensor:
#      x y z
#    x 2.101570 0.000000 0.000000 
#    y 0.000000 2.257130 0.000000 
#    z 0.000000 0.000000 1.981070 
# 
# From -- ./inp_files/20654.got.cif
#   From: 2010.05.17/outbox.cif.g08.bks.cpg/sg68_11_cif.got.tgz:20654.got - 2010.06.03 18:57:09.
