data_PCOD9509684
_publ_section_title
;
Structure prediction by ZEFSAII (Michael W. Deem and Ramdas Pophale) SiO2 
 PCOD9509684
Probable space group: C C C A
;
_chemical_formula_sum "Si O2"
_cell_formula_units_Z 104
_cell_length_a 9.303733
_cell_length_b 25.785950
_cell_length_c 20.218706
_cell_angle_alpha 90.000000
_cell_angle_beta 90.000000
_cell_angle_gamma 90.000000
_cell_volume 4850.580672
_symmetry_space_group_name_H-M "C C C A"
_symmetry_group_IT_number 68
_space_group.IT_coordinate_system_code '2'
_symmetry_cell_setting 'orthorhombic'
loop_
_space_group_symop_operation_xyz
x,y,z
-x,1/2-y,z
x,1/2-y,1/2-z
-x,y,1/2-z
-x,-y,-z
x,1/2+y,-z
-x,1/2+y,1/2+z
x,-y,1/2+z
1/2+x,1/2+y,z
1/2-x,-y,z
1/2+x,-y,1/2-z
1/2-x,1/2+y,1/2-z
1/2-x,1/2-y,-z
1/2+x,y,-z
1/2-x,y,1/2+z
1/2+x,1/2-y,1/2+z
loop_
_atom_site_type_symbol
_atom_site_label
_atom_site_fract_x
_atom_site_fract_y
_atom_site_fract_z
Si Si1 0.205997 0.862317 0.366098
Si Si2 0.460405 0.614963 0.966545
Si Si3 0.281579 0.438145 0.351479
Si Si4 0.400602 0.974561 0.447264
Si Si5 0.136124 0.284402 0.039582
Si Si6 0.970687 0.065585 0.175786
Si Si7 0.000000 0.611905 0.250000
O O1 0.284172 0.813007 0.399260
O O2 0.331002 0.898808 0.335390
O O3 0.113070 0.886527 0.427919
O O4 0.089496 0.856430 0.306444
O O5 0.352199 0.585551 0.917183
O O6 0.435108 0.584953 0.035559
O O7 0.421652 0.673173 0.986485
O O8 0.250000 0.500000 0.354935
O O9 0.384832 0.422380 0.290921
O O10 0.125152 0.411456 0.344432
O O11 0.440842 0.983115 0.371682
O O12 0.500000 0.000000 0.500000
O O13 0.250000 0.000000 0.458957
O O14 0.000000 0.250000 0.061271
O O15 0.250000 0.250000 0.000000
O O16 0.000000 0.049481 0.250000
#
# Coordination Sequence:
#
# PCOD9509684 Si02
#       7
#    16  16  16  16  16  16   8
#     4  11  24  47  73 106 146 195 249 314 387 445
#     4  11  24  45  71 107 151 188 245 321 375 442
#     4  11  25  42  68 104 152 204 256 297 366 448
#     4  12  25  42  69 104 147 194 247 300 368 443
#     4  12  26  46  78 113 144 188 250 322 395 452
#     4  12  25  42  68 100 148 199 251 302 364 440
#     4  10  24  46  72  99 150 206 252 303 374 452
#
# _framework density 21.440732000000001
#
# number of rings (size 3 to 8) (size 9 to 14) (size 15 to 20)
#    0.000    0.615    4.615    3.231    5.385    1.846 
#    0.000    0.000    0.000   13.385    0.000    0.000 
#    0.000    0.000    0.000    0.000    0.000    0.000 
#
# Total GULP energy -290356.439451 kJ/mol
# GULP energy per Si atom -5583.777682 kJ/mol
# Density = 2.139193 g / cm^3
# Si number density = 21.440732 Si / 1000 Ang^3
#
#
#
# Elastic Constant Matrix: (Units=GPa)
#
#
# Indices 1 2 3 4 5 6 
#
# 1 189.0610 53.3312 79.3205 0.0000 0.0000 0.0000
# 2 53.3312 94.9418 49.5649 0.0000 0.0000 0.0000
# 3 79.3205 49.5649 160.2875 0.0000 0.0000 0.0000
# 4 0.0000 0.0000 0.0000 25.3494 0.0000 0.0000
# 5 0.0000 0.0000 0.0000 0.0000 49.9846 0.0000
# 6 0.0000 0.0000 0.0000 0.0000 0.0000 37.0795
#
#
#
# Elastic Compliance Matrix: (Units=1/GPa)
#
#
# Indices 1 2 3 4 5 6 
#
# 1 0.007174 -0.002596 -0.002748 0.000000 0.000000 0.000000
# 2 -0.002596 0.013499 -0.002890 0.000000 0.000000 0.000000
# 3 -0.002748 -0.002890 0.008492 0.000000 0.000000 0.000000
# 4 0.000000 0.000000 0.000000 0.039449 0.000000 0.000000
# 5 0.000000 0.000000 0.000000 0.000000 0.020006 0.000000
# 6 0.000000 0.000000 0.000000 0.000000 0.000000 0.026969
#
#
# Mechanical properties :
#
#
# Convention : Reuss Voigt Hill
#
# Bulk Modulus (GPa) = 78.74273 89.85818 84.30045
# Shear Modulus (GPa) = 36.68669 39.95427 38.32048
#
# Velocity S-wave (km/s) = 4.14100 4.32148 4.23220
# Velocity P-wave (km/s) = 7.72459 8.17932 7.95521
#
# Compressibility (1/GPa) = 0.01269959
#
# Stress axis : x y z
#
# Youngs Moduli (GPa) = 139.38762 74.07713 117.75577
#
# Poissons Ratio (x) = 0.19227 0.32355
# Poissons Ratio (y) = 0.36178 0.34031
# Poissons Ratio (z) = 0.38299 0.21408
#
# Static dielectric constant tensor:
#      x y z
#    x 1.831370 0.000000 0.000000 
#    y 0.000000 1.961230 0.000000 
#    z 0.000000 0.000000 1.906540 
# 
# From -- ./inp_files/36584.got.cif
#   From: 2010.05.17/outbox.cif.g08.bks.cpg/sg68_19_cif.got.tgz:36584.got - 2010.06.03 18:57:09.
