data_PCOD9509332
_publ_section_title
;
Structure prediction by ZEFSAII (Michael W. Deem and Ramdas Pophale) SiO2 
 PCOD9509332
Probable space group: C C C A
;
_chemical_formula_sum "Si O2"
_cell_formula_units_Z 100
_cell_length_a 8.919115
_cell_length_b 20.353225
_cell_length_c 27.473507
_cell_angle_alpha 90.000000
_cell_angle_beta 90.000000
_cell_angle_gamma 90.000000
_cell_volume 4987.341399
_symmetry_space_group_name_H-M "C C C A"
_symmetry_group_IT_number 68
_space_group.IT_coordinate_system_code '2'
_symmetry_cell_setting 'orthorhombic'
loop_
_space_group_symop_operation_xyz
x,y,z
-x,1/2-y,z
x,1/2-y,1/2-z
-x,y,1/2-z
-x,-y,-z
x,1/2+y,-z
-x,1/2+y,1/2+z
x,-y,1/2+z
1/2+x,1/2+y,z
1/2-x,-y,z
1/2+x,-y,1/2-z
1/2-x,1/2+y,1/2-z
1/2-x,1/2-y,-z
1/2+x,y,-z
1/2-x,y,1/2+z
1/2+x,1/2-y,1/2+z
loop_
_atom_site_type_symbol
_atom_site_label
_atom_site_fract_x
_atom_site_fract_y
_atom_site_fract_z
Si Si1 0.621320 0.447731 0.293785
Si Si2 0.021748 0.622172 0.935712
Si Si3 0.000000 0.250000 0.132995
Si Si4 0.363446 0.873712 0.536523
Si Si5 0.707333 0.811569 0.670344
Si Si6 0.500000 0.750000 0.750000
Si Si7 0.572350 0.487447 0.112792
Si Si8 0.500000 0.250000 0.411445
O O1 0.500000 0.433987 0.250000
O O2 0.750000 0.500000 0.278528
O O3 0.718279 0.388212 0.317921
O O4 0.514369 0.468555 0.338521
O O5 0.186581 0.618746 0.958646
O O6 0.002351 0.555253 0.906128
O O7 0.018392 0.686100 0.901365
O O8 0.908782 0.623696 0.980492
O O9 0.142102 0.269411 0.165695
O O10 0.434083 0.930761 0.571065
O O11 0.411231 0.802856 0.557008
O O12 0.606569 0.790002 0.715211
O O13 0.612588 0.791976 0.622452
O O14 0.750000 0.500000 0.122140
#
# Coordination Sequence:
#
# PCOD9509332 Si02
#       8
#    16  16   8  16  16   4  16   8
#     4  12  25  46  71 104 135 182 230 287 358 428
#     4  11  25  40  63 100 137 184 233 289 341 416
#     4  12  25  43  65 104 138 176 228 290 351 406
#     4  11  23  40  65  94 137 182 236 284 345 413
#     4  11  24  45  71  99 138 177 228 287 353 419
#     4  10  24  46  74  96 128 182 230 270 358 438
#     4  10  23  44  67  96 137 182 233 292 351 414
#     4  11  21  41  70  94 130 186 227 284 344 424
#
# _framework density 20.050764000000001
#
# number of rings (size 3 to 8) (size 9 to 14) (size 15 to 20)
#    0.000    0.960    4.000    2.400    2.240    2.880 
#    5.760    0.000    0.000    0.000    0.000    0.000 
#    0.000    0.000    0.000    0.000    0.000    0.000 
#
# Total GULP energy -279165.537371 kJ/mol
# GULP energy per Si atom -5583.310747 kJ/mol
# Density = 2.000513 g / cm^3
# Si number density = 20.050764 Si / 1000 Ang^3
#
#
#
# Elastic Constant Matrix: (Units=GPa)
#
#
# Indices 1 2 3 4 5 6 
#
# 1 67.0331 12.1653 30.9511 0.0000 0.0000 0.0000
# 2 12.1653 111.7075 35.3229 0.0000 0.0000 0.0000
# 3 30.9511 35.3229 88.3525 0.0000 0.0000 0.0000
# 4 0.0000 0.0000 0.0000 28.2924 0.0000 0.0000
# 5 0.0000 0.0000 0.0000 0.0000 56.6757 0.0000
# 6 0.0000 0.0000 0.0000 0.0000 0.0000 29.3457
#
#
#
# Elastic Compliance Matrix: (Units=1/GPa)
#
#
# Indices 1 2 3 4 5 6 
#
# 1 0.017797 0.000038 -0.006250 0.000000 0.000000 0.000000
# 2 0.000038 0.010247 -0.004110 0.000000 0.000000 0.000000
# 3 -0.006250 -0.004110 0.015151 0.000000 0.000000 0.000000
# 4 0.000000 0.000000 0.000000 0.035345 0.000000 0.000000
# 5 0.000000 0.000000 0.000000 0.000000 0.017644 0.000000
# 6 0.000000 0.000000 0.000000 0.000000 0.000000 0.034077
#
#
# Mechanical properties :
#
#
# Convention : Reuss Voigt Hill
#
# Bulk Modulus (GPa) = 44.34296 47.10796 45.72546
# Shear Modulus (GPa) = 31.56128 35.43967 33.50048
#
# Velocity S-wave (km/s) = 3.97176 4.20872 4.09196
# Velocity P-wave (km/s) = 6.57240 6.86754 6.72159
#
# Compressibility (1/GPa) = 0.02255149
#
# Stress axis : x y z
#
# Youngs Moduli (GPa) = 56.19005 97.58479 66.00273
#
# Poissons Ratio (x) = -0.00372 0.41249
# Poissons Ratio (y) = -0.00214 0.27129
# Poissons Ratio (z) = 0.35117 0.40110
#
# Static dielectric constant tensor:
#      x y z
#    x 1.909570 0.000000 0.000000 
#    y 0.000000 1.771010 0.000000 
#    z 0.000000 0.000000 1.787790 
# 
# From -- ./inp_files/49485.got.cif
#   From: 2010.05.17/outbox.cif.g08.bks.cpg/sg68_25_cif.got.tgz:49485.got - 2010.06.03 18:57:09.
