data_PCOD9509290
_publ_section_title
;
Structure prediction by ZEFSAII (Michael W. Deem and Ramdas Pophale) SiO2 
 PCOD9509290
Probable space group: C C C A
;
_chemical_formula_sum "Si O2"
_cell_formula_units_Z 64
_cell_length_a 17.494625
_cell_length_b 7.189961
_cell_length_c 24.512616
_cell_angle_alpha 90.000000
_cell_angle_beta 90.000000
_cell_angle_gamma 90.000000
_cell_volume 3083.335863
_symmetry_space_group_name_H-M "C C C A"
_symmetry_group_IT_number 68
_space_group.IT_coordinate_system_code '2'
_symmetry_cell_setting 'orthorhombic'
loop_
_space_group_symop_operation_xyz
x,y,z
-x,1/2-y,z
x,1/2-y,1/2-z
-x,y,1/2-z
-x,-y,-z
x,1/2+y,-z
-x,1/2+y,1/2+z
x,-y,1/2+z
1/2+x,1/2+y,z
1/2-x,-y,z
1/2+x,-y,1/2-z
1/2-x,1/2+y,1/2-z
1/2-x,1/2-y,-z
1/2+x,y,-z
1/2-x,y,1/2+z
1/2+x,1/2-y,1/2+z
loop_
_atom_site_type_symbol
_atom_site_label
_atom_site_fract_x
_atom_site_fract_y
_atom_site_fract_z
Si Si1 0.182904 0.143167 0.694840
Si Si2 0.508378 0.966527 0.563978
Si Si3 0.335921 0.999617 0.379544
Si Si4 0.422508 0.660335 0.336267
O O1 0.204112 0.250000 0.750000
O O2 0.161982 0.307091 0.653185
O O3 0.250000 0.000000 0.677745
O O4 0.109964 0.007910 0.699156
O O5 0.500000 0.750000 0.576169
O O6 0.595925 0.012240 0.577855
O O7 0.500000 0.000000 0.500000
O O8 0.450374 0.076620 0.604411
O O9 0.250000 0.000000 0.401947
O O10 0.357881 0.820691 0.342331
O O11 0.500000 0.750000 0.314255
#
# Coordination Sequence:
#
# PCOD9509290 Si02
#       4
#    16  16  16  16
#     4  12  25  43  71  99 136 181 229 277 348 404
#     4  11  22  43  68  98 137 181 224 279 346 403
#     4  11  22  42  68  99 136 176 226 285 337 402
#     4  10  23  43  67  98 137 175 222 284 333 402
#
# _framework density 20.756741000000002
#
# number of rings (size 3 to 8) (size 9 to 14) (size 15 to 20)
#    0.000    1.000    5.000    3.000    0.000    0.000 
#    0.000   20.000    0.000    0.000    0.000    0.000 
#    0.000    0.000    0.000    0.000    0.000    0.000 
#
# Total GULP energy -178547.862430 kJ/mol
# GULP energy per Si atom -5579.620701 kJ/mol
# Density = 2.070950 g / cm^3
# Si number density = 20.756741 Si / 1000 Ang^3
#
#
#
# Elastic Constant Matrix: (Units=GPa)
#
#
# Indices 1 2 3 4 5 6 
#
# 1 102.3447 49.0347 10.3639 0.0000 0.0000 0.0000
# 2 49.0347 160.1815 25.8358 0.0000 0.0000 0.0000
# 3 10.3639 25.8358 55.0913 0.0000 0.0000 0.0000
# 4 0.0000 0.0000 0.0000 27.6107 0.0000 0.0000
# 5 0.0000 0.0000 0.0000 0.0000 19.3648 0.0000
# 6 0.0000 0.0000 0.0000 0.0000 0.0000 56.0401
#
#
#
# Elastic Compliance Matrix: (Units=1/GPa)
#
#
# Indices 1 2 3 4 5 6 
#
# 1 0.011466 -0.003421 -0.000553 0.000000 0.000000 0.000000
# 2 -0.003421 0.007774 -0.003002 0.000000 0.000000 0.000000
# 3 -0.000553 -0.003002 0.019664 0.000000 0.000000 0.000000
# 4 0.000000 0.000000 0.000000 0.036218 0.000000 0.000000
# 5 0.000000 0.000000 0.000000 0.000000 0.051640 0.000000
# 6 0.000000 0.000000 0.000000 0.000000 0.000000 0.017844
#
#
# Mechanical properties :
#
#
# Convention : Reuss Voigt Hill
#
# Bulk Modulus (GPa) = 40.07684 54.23181 47.15432
# Shear Modulus (GPa) = 29.96253 36.09533 33.02893
#
# Velocity S-wave (km/s) = 3.80347 4.17462 3.99336
# Velocity P-wave (km/s) = 6.21597 7.02998 6.63547
#
# Compressibility (1/GPa) = 0.02495207
#
# Stress axis : x y z
#
# Youngs Moduli (GPa) = 87.21583 128.62843 50.85519
#
# Poissons Ratio (x) = 0.44001 0.02811
# Poissons Ratio (y) = 0.29834 0.15269
# Poissons Ratio (z) = 0.04821 0.38619
#
# Static dielectric constant tensor:
#      x y z
#    x 1.766260 0.000000 0.000000 
#    y 0.000000 1.782800 0.000000 
#    z 0.000000 0.000000 1.744810 
# 
# From -- ./inp_files/55457.got.cif
#   From: 2010.05.17/outbox.cif.g08.bks.cpg/sg68_28_cif.got.tgz:55457.got - 2010.06.03 18:57:09.
