data_PCOD9509378
_publ_section_title
;
Structure prediction by ZEFSAII (Michael W. Deem and Ramdas Pophale) SiO2 
 PCOD9509378
Probable space group: C C C A
;
_chemical_formula_sum "Si O2"
_cell_formula_units_Z 44
_cell_length_a 5.146996
_cell_length_b 13.230638
_cell_length_c 25.298081
_cell_angle_alpha 90.000000
_cell_angle_beta 90.000000
_cell_angle_gamma 90.000000
_cell_volume 1722.749754
_symmetry_space_group_name_H-M "C C C A"
_symmetry_group_IT_number 68
_space_group.IT_coordinate_system_code '2'
_symmetry_cell_setting 'orthorhombic'
loop_
_space_group_symop_operation_xyz
x,y,z
-x,1/2-y,z
x,1/2-y,1/2-z
-x,y,1/2-z
-x,-y,-z
x,1/2+y,-z
-x,1/2+y,1/2+z
x,-y,1/2+z
1/2+x,1/2+y,z
1/2-x,-y,z
1/2+x,-y,1/2-z
1/2-x,1/2+y,1/2-z
1/2-x,1/2-y,-z
1/2+x,y,-z
1/2-x,y,1/2+z
1/2+x,1/2-y,1/2+z
loop_
_atom_site_type_symbol
_atom_site_label
_atom_site_fract_x
_atom_site_fract_y
_atom_site_fract_z
Si Si1 0.617000 0.903646 0.305615
Si Si2 0.000000 0.250000 0.750000
Si Si3 0.210672 0.117571 0.535183
Si Si4 0.500000 0.750000 0.382280
O O1 0.500000 0.939407 0.250000
O O2 0.823894 0.820681 0.286667
O O3 0.422774 0.844011 0.344151
O O4 0.750000 0.000000 0.331133
O O5 0.424705 0.131768 0.488596
O O6 0.287910 0.195523 0.581005
O O7 0.250000 0.000000 0.550833
#
# Coordination Sequence:
#
# PCOD9509378 Si02
#       4
#    16   4  16   8
#     4  12  25  44  66  99 138 182 236 291 355 426
#     4  12  22  44  70  88 136 190 222 292 356 412
#     4  10  23  45  69 102 145 184 233 299 365 430
#     4  12  23  42  69 104 130 187 245 290 360 434
#
# _framework density 25.540562999999999
#
# number of rings (size 3 to 8) (size 9 to 14) (size 15 to 20)
#    0.000    0.727    5.455    2.182    0.000    2.909 
#    0.000    5.455    0.000    0.000    0.000    0.000 
#    0.000    0.000    0.000    0.000    0.000    0.000 
#
# Total GULP energy -123178.140163 kJ/mol
# GULP energy per Si atom -5599.006371 kJ/mol
# Density = 2.548243 g / cm^3
# Si number density = 25.540563 Si / 1000 Ang^3
#
#
#
# Elastic Constant Matrix: (Units=GPa)
#
#
# Indices 1 2 3 4 5 6 
#
# 1 75.5253 34.8406 11.5486 0.0000 0.0000 0.0000
# 2 34.8406 198.6621 61.7039 0.0000 0.0000 0.0000
# 3 11.5486 61.7039 123.9821 0.0000 0.0000 0.0000
# 4 0.0000 0.0000 0.0000 -107.9845 0.0000 0.0000
# 5 0.0000 0.0000 0.0000 0.0000 76.1378 0.0000
# 6 0.0000 0.0000 0.0000 0.0000 0.0000 59.3410
#
#
#
# Elastic Compliance Matrix: (Units=1/GPa)
#
#
# Indices 1 2 3 4 5 6 
#
# 1 0.014407 -0.002496 -0.000100 0.000000 0.000000 0.000000
# 2 -0.002496 0.006386 -0.002946 0.000000 0.000000 0.000000
# 3 -0.000100 -0.002946 0.009541 0.000000 0.000000 0.000000
# 4 0.000000 0.000000 0.000000 -0.009261 0.000000 0.000000
# 5 0.000000 0.000000 0.000000 0.000000 0.013134 0.000000
# 6 0.000000 0.000000 0.000000 0.000000 0.000000 0.016852
#
#
# Mechanical properties :
#
#
# Convention : Reuss Voigt Hill
#
# Bulk Modulus (GPa) = 51.94373 68.26175 60.10274
# Shear Modulus (GPa) = 72.92879 24.83729 48.88304
#
# Velocity S-wave (km/s) = 5.34940 3.12182 4.37960
# Velocity P-wave (km/s) = 7.65093 6.30707 7.01127
#
# Compressibility (1/GPa) = 0.01925160
#
# Stress axis : x y z
#
# Youngs Moduli (GPa) = 69.41009 156.58427 104.80943
#
# Poissons Ratio (x) = 0.39077 0.01048
# Poissons Ratio (y) = 0.17322 0.30876
# Poissons Ratio (z) = 0.00694 0.46128
#
# Static dielectric constant tensor:
#      x y z
#    x 2.010080 0.000000 0.000000 
#    y 0.000000 1.959350 0.000000 
#    z 0.000000 0.000000 2.074930 
# 
# From -- ./inp_files/47787.got.cif
#   From: 2010.05.17/outbox.cif.g08.bks.cpg/sg68_24_cif.got.tgz:47787.got - 2010.06.03 18:57:09.
