data_PCOD9509963
_publ_section_title
;
Structure prediction by ZEFSAII (Michael W. Deem and Ramdas Pophale) SiO2 
 PCOD9509963
Probable space group: C C C A
;
_chemical_formula_sum "Si O2"
_cell_formula_units_Z 116
_cell_length_a 11.126434
_cell_length_b 24.590714
_cell_length_c 21.279611
_cell_angle_alpha 90.000000
_cell_angle_beta 90.000000
_cell_angle_gamma 90.000000
_cell_volume 5822.249598
_symmetry_space_group_name_H-M "C C C A"
_symmetry_group_IT_number 68
_space_group.IT_coordinate_system_code '2'
_symmetry_cell_setting 'orthorhombic'
loop_
_space_group_symop_operation_xyz
x,y,z
-x,1/2-y,z
x,1/2-y,1/2-z
-x,y,1/2-z
-x,-y,-z
x,1/2+y,-z
-x,1/2+y,1/2+z
x,-y,1/2+z
1/2+x,1/2+y,z
1/2-x,-y,z
1/2+x,-y,1/2-z
1/2-x,1/2+y,1/2-z
1/2-x,1/2-y,-z
1/2+x,y,-z
1/2-x,y,1/2+z
1/2+x,1/2-y,1/2+z
loop_
_atom_site_type_symbol
_atom_site_label
_atom_site_fract_x
_atom_site_fract_y
_atom_site_fract_z
Si Si1 0.988429 0.446955 0.541263
Si Si2 0.254589 0.433991 0.530121
Si Si3 0.860796 0.251751 0.950969
Si Si4 0.000054 0.071826 0.820527
Si Si5 0.282846 0.354639 0.133803
Si Si6 0.662424 0.827384 0.837990
Si Si7 0.630720 0.314691 0.749775
Si Si8 0.500000 0.750000 0.750000
O O1 0.857288 0.423556 0.522272
O O2 0.000000 0.500000 0.500000
O O3 0.113216 0.416122 0.522746
O O4 0.996687 0.462200 0.615044
O O5 0.250000 0.500000 0.540440
O O6 0.288089 0.397362 0.590003
O O7 0.839845 0.305476 0.907273
O O8 0.848566 0.199280 0.905910
O O9 0.000000 0.250000 0.975178
O O10 0.750000 0.250000 0.000000
O O11 0.114910 0.110853 0.830587
O O12 0.000000 0.048246 0.750000
O O13 0.890329 0.113104 0.829236
O O14 0.201179 0.330312 0.187794
O O15 0.796157 0.828916 0.812257
O O16 0.584257 0.787704 0.792727
O O17 0.622080 0.250000 0.750000
O O18 0.500000 0.340093 0.750000
#
# Coordination Sequence:
#
# PCOD9509963 Si02
#       8
#    16  16  16  16  16  16  16   4
#     4   9  20  40  64  91 125 162 206 265 330 387
#     4   9  20  39  66  90 118 162 212 259 322 392
#     4  12  26  38  54  86 129 172 220 265 319 383
#     4  11  20  34  66  96 115 155 222 269 309 382
#     4  11  21  39  61  87 124 167 212 267 324 381
#     4  12  19  36  58  85 121 162 215 262 311 380
#     4  11  22  36  56  87 128 171 206 253 328 393
#     4  12  16  32  66  80 112 160 216 264 304 356
#
# _framework density 19.923570999999999
#
# number of rings (size 3 to 8) (size 9 to 14) (size 15 to 20)
#    0.000    1.241    6.207    0.000    1.931    1.103 
#    2.483    0.000    0.000   27.310    0.000    0.000 
#    0.000    0.000    0.000    0.000    0.000    0.000 
#
# Total GULP energy -323207.591180 kJ/mol
# GULP energy per Si atom -5572.544676 kJ/mol
# Density = 1.987822 g / cm^3
# Si number density = 19.923571 Si / 1000 Ang^3
#
#
#
# Elastic Constant Matrix: (Units=GPa)
#
#
# Indices 1 2 3 4 5 6 
#
# 1 122.2024 -2.0369 56.6301 0.0000 0.0000 0.0000
# 2 -2.0369 38.3593 16.7332 0.0000 0.0000 0.0000
# 3 56.6301 16.7332 125.6688 0.0000 0.0000 0.0000
# 4 0.0000 0.0000 0.0000 37.4575 0.0000 0.0000
# 5 0.0000 0.0000 0.0000 0.0000 58.5799 0.0000
# 6 0.0000 0.0000 0.0000 0.0000 0.0000 5.3061
#
#
#
# Elastic Compliance Matrix: (Units=1/GPa)
#
#
# Indices 1 2 3 4 5 6 
#
# 1 0.010622 0.002816 -0.005161 0.000000 0.000000 0.000000
# 2 0.002816 0.028423 -0.005053 0.000000 0.000000 0.000000
# 3 -0.005161 -0.005053 0.010956 0.000000 0.000000 0.000000
# 4 0.000000 0.000000 0.000000 0.026697 0.000000 0.000000
# 5 0.000000 0.000000 0.000000 0.000000 0.017071 0.000000
# 6 0.000000 0.000000 0.000000 0.000000 0.000000 0.188462
#
#
# Mechanical properties :
#
#
# Convention : Reuss Voigt Hill
#
# Bulk Modulus (GPa) = 28.40685 47.65371 38.03028
# Shear Modulus (GPa) = 16.19358 34.59562 25.39460
#
# Velocity S-wave (km/s) = 2.85403 4.17155 3.57403
# Velocity P-wave (km/s) = 5.01493 6.86824 6.01341
#
# Compressibility (1/GPa) = 0.03520277
#
# Stress axis : x y z
#
# Youngs Moduli (GPa) = 94.14450 35.18249 91.27232
#
# Poissons Ratio (x) = -0.09906 0.47110
# Poissons Ratio (y) = -0.26507 0.46124
# Poissons Ratio (z) = 0.48593 0.17779
#
# Static dielectric constant tensor:
#      x y z
#    x 1.550380 0.000000 0.000000 
#    y 0.000000 1.744160 0.000000 
#    z 0.000000 0.000000 1.775330 
# 
# From -- ./inp_files/30030.got.cif
#   From: 2010.05.17/outbox.cif.g08.bks.cpg/sg68_16_cif.got.tgz:30030.got - 2010.06.03 18:57:09.
