data_PCOD9509349
_publ_section_title
;
Structure prediction by ZEFSAII (Michael W. Deem and Ramdas Pophale) SiO2 
 PCOD9509349
Probable space group: C C C A
;
_chemical_formula_sum "Si O2"
_cell_formula_units_Z 64
_cell_length_a 11.100594
_cell_length_b 25.216735
_cell_length_c 9.568344
_cell_angle_alpha 90.000000
_cell_angle_beta 90.000000
_cell_angle_gamma 90.000000
_cell_volume 2678.377907
_symmetry_space_group_name_H-M "C C C A"
_symmetry_group_IT_number 68
_space_group.IT_coordinate_system_code '2'
_symmetry_cell_setting 'orthorhombic'
loop_
_space_group_symop_operation_xyz
x,y,z
-x,1/2-y,z
x,1/2-y,1/2-z
-x,y,1/2-z
-x,-y,-z
x,1/2+y,-z
-x,1/2+y,1/2+z
x,-y,1/2+z
1/2+x,1/2+y,z
1/2-x,-y,z
1/2+x,-y,1/2-z
1/2-x,1/2+y,1/2-z
1/2-x,1/2-y,-z
1/2+x,y,-z
1/2-x,y,1/2+z
1/2+x,1/2-y,1/2+z
loop_
_atom_site_type_symbol
_atom_site_label
_atom_site_fract_x
_atom_site_fract_y
_atom_site_fract_z
Si Si1 0.337562 0.425167 0.246581
Si Si2 0.500000 0.834677 0.750000
Si Si3 0.000000 0.474251 0.250000
Si Si4 0.879452 0.780934 0.503708
Si Si5 0.113915 0.599691 0.568994
O O1 0.413906 0.377201 0.172731
O O2 0.394981 0.482378 0.227434
O O3 0.208839 0.420623 0.181246
O O4 0.344918 0.413326 0.411964
O O5 0.415930 0.799591 0.652854
O O6 0.998114 0.434866 0.115841
O O7 0.750000 0.750000 0.500000
O O8 0.882700 0.836867 0.584127
O O9 0.000000 0.750000 0.552077
#
# Coordination Sequence:
#
# PCOD9509349 Si02
#       5
#    16   8   8  16  16
#     4  10  23  44  70 100 139 186 235 303 382 455
#     4   9  21  42  71 102 141 190 245 305 380 454
#     4  11  24  42  68  98 136 182 236 301 376 452
#     4  11  24  45  75 109 150 204 259 321 390 460
#     4  11  25  43  68 103 139 183 245 303 370 463
#
# _framework density 23.895060000000001
#
# number of rings (size 3 to 8) (size 9 to 14) (size 15 to 20)
#    0.000    1.500    0.000    3.375    0.000   16.000 
#    0.000    5.625    0.000    0.000    0.000    0.000 
#    0.000    0.000    0.000    0.000    0.000    0.000 
#
# Total GULP energy -178499.572482 kJ/mol
# GULP energy per Si atom -5578.111640 kJ/mol
# Density = 2.384067 g / cm^3
# Si number density = 23.895060 Si / 1000 Ang^3
#
#
#
# Elastic Constant Matrix: (Units=GPa)
#
#
# Indices 1 2 3 4 5 6 
#
# 1 132.9329 90.2770 32.3291 0.0000 0.0000 0.0000
# 2 90.2770 237.6117 53.0009 0.0000 0.0000 0.0000
# 3 32.3291 53.0009 93.1684 0.0000 0.0000 0.0000
# 4 0.0000 0.0000 0.0000 62.8702 0.0000 0.0000
# 5 0.0000 0.0000 0.0000 0.0000 44.1450 0.0000
# 6 0.0000 0.0000 0.0000 0.0000 0.0000 43.7525
#
#
#
# Elastic Compliance Matrix: (Units=1/GPa)
#
#
# Indices 1 2 3 4 5 6 
#
# 1 0.010330 -0.003579 -0.001548 0.000000 0.000000 0.000000
# 2 -0.003579 0.006060 -0.002206 0.000000 0.000000 0.000000
# 3 -0.001548 -0.002206 0.012525 0.000000 0.000000 0.000000
# 4 0.000000 0.000000 0.000000 0.015906 0.000000 0.000000
# 5 0.000000 0.000000 0.000000 0.000000 0.022653 0.000000
# 6 0.000000 0.000000 0.000000 0.000000 0.000000 0.022856
#
#
# Mechanical properties :
#
#
# Convention : Reuss Voigt Hill
#
# Bulk Modulus (GPa) = 70.17955 90.54745 80.36350
# Shear Modulus (GPa) = 45.55977 49.36059 47.46018
#
# Velocity S-wave (km/s) = 4.37127 4.54995 4.46151
# Velocity P-wave (km/s) = 7.41019 8.09808 7.76176
#
# Compressibility (1/GPa) = 0.01424916
#
# Stress axis : x y z
#
# Youngs Moduli (GPa) = 96.80614 165.00442 79.83907
#
# Poissons Ratio (x) = 0.59061 0.12361
# Poissons Ratio (y) = 0.34650 0.17609
# Poissons Ratio (z) = 0.14988 0.36393
#
# Static dielectric constant tensor:
#      x y z
#    x 2.079460 0.000000 0.000000 
#    y 0.000000 1.952210 0.000000 
#    z 0.000000 0.000000 1.976730 
# 
# From -- ./inp_files/11712.got.cif
#   From: 2010.05.17/outbox.cif.g08.bks.cpg/sg68_6_cif.got.tgz:11712.got - 2010.06.03 18:57:09.
