data_PCOD9509709
_publ_section_title
;
Structure prediction by ZEFSAII (Michael W. Deem and Ramdas Pophale) SiO2 
 PCOD9509709
Probable space group: C C C A
;
_chemical_formula_sum "Si O2"
_cell_formula_units_Z 68
_cell_length_a 28.432749
_cell_length_b 7.411555
_cell_length_c 14.653282
_cell_angle_alpha 90.000000
_cell_angle_beta 90.000000
_cell_angle_gamma 90.000000
_cell_volume 3087.899055
_symmetry_space_group_name_H-M "C C C A"
_symmetry_group_IT_number 68
_space_group.IT_coordinate_system_code '2'
_symmetry_cell_setting 'orthorhombic'
loop_
_space_group_symop_operation_xyz
x,y,z
-x,1/2-y,z
x,1/2-y,1/2-z
-x,y,1/2-z
-x,-y,-z
x,1/2+y,-z
-x,1/2+y,1/2+z
x,-y,1/2+z
1/2+x,1/2+y,z
1/2-x,-y,z
1/2+x,-y,1/2-z
1/2-x,1/2+y,1/2-z
1/2-x,1/2-y,-z
1/2+x,y,-z
1/2-x,y,1/2+z
1/2+x,1/2-y,1/2+z
loop_
_atom_site_type_symbol
_atom_site_label
_atom_site_fract_x
_atom_site_fract_y
_atom_site_fract_z
Si Si1 0.216044 0.250000 0.750000
Si Si2 0.929245 0.045524 0.214054
Si Si3 0.750000 0.500000 0.396565
Si Si4 0.500000 0.750000 0.750000
Si Si5 0.857373 0.467675 0.634591
Si Si6 0.850983 0.867792 0.563345
O O1 0.246230 0.331085 0.669871
O O2 0.183114 0.106048 0.700217
O O3 0.942839 0.250000 0.250000
O O4 0.890966 0.054172 0.131601
O O5 0.969012 0.896679 0.193253
O O6 0.903010 0.968877 0.302923
O O7 0.800815 0.473555 0.442054
O O8 0.844671 0.669086 0.603896
O O9 0.865869 0.357658 0.542032
#
# Coordination Sequence:
#
# PCOD9509709 Si02
#       6
#     8  16   8   4  16  16
#     4  12  23  38  64  97 140 195 236 283 334 412
#     4  10  24  47  71 105 141 180 234 298 360 429
#     4  12  24  38  64 102 142 188 244 278 336 416
#     4  12  24  44  88  98 132 190 226 298 380 432
#     4  11  24  44  70  95 145 183 232 288 352 409
#     4  11  25  43  67 104 142 188 232 292 341 418
#
# _framework density 22.021445
#
# number of rings (size 3 to 8) (size 9 to 14) (size 15 to 20)
#    0.000    0.941    2.353    3.882    4.941    4.706 
#    0.000    1.176    0.000    0.000    0.000    0.000 
#    0.000    0.000    0.000    0.000    0.000    0.000 
#
# Total GULP energy -189781.626970 kJ/mol
# GULP energy per Si atom -5581.812558 kJ/mol
# Density = 2.197132 g / cm^3
# Si number density = 22.021445 Si / 1000 Ang^3
#
#
#
# Elastic Constant Matrix: (Units=GPa)
#
#
# Indices 1 2 3 4 5 6 
#
# 1 98.7332 51.4270 39.2098 0.0000 0.0000 0.0000
# 2 51.4270 90.9542 18.3090 0.0000 0.0000 0.0000
# 3 39.2098 18.3090 105.8455 0.0000 0.0000 0.0000
# 4 0.0000 0.0000 0.0000 53.8066 0.0000 0.0000
# 5 0.0000 0.0000 0.0000 0.0000 -4.3073 0.0000
# 6 0.0000 0.0000 0.0000 0.0000 0.0000 15.1741
#
#
#
# Elastic Compliance Matrix: (Units=1/GPa)
#
#
# Indices 1 2 3 4 5 6 
#
# 1 0.016259 -0.008269 -0.004593 0.000000 0.000000 0.000000
# 2 -0.008269 0.015596 0.000365 0.000000 0.000000 0.000000
# 3 -0.004593 0.000365 0.011086 0.000000 0.000000 0.000000
# 4 0.000000 0.000000 0.000000 0.018585 0.000000 0.000000
# 5 0.000000 0.000000 0.000000 0.000000 -0.232162 0.000000
# 6 0.000000 0.000000 0.000000 0.000000 0.000000 0.065902
#
#
# Mechanical properties :
#
#
# Convention : Reuss Voigt Hill
#
# Bulk Modulus (GPa) = 55.71368 57.04717 56.38042
# Shear Modulus (GPa) = -67.78928 25.37380 -21.20774
#
# Velocity S-wave (km/s) = -5.55429 3.39814 -3.10667
# Velocity P-wave (km/s) = 3.97226 6.43102 3.57625
#
# Compressibility (1/GPa) = 0.01794891
#
# Stress axis : x y z
#
# Youngs Moduli (GPa) = 61.50397 64.11801 90.20451
#
# Poissons Ratio (x) = 0.53017 0.41429
# Poissons Ratio (y) = 0.50855 -0.03295
# Poissons Ratio (z) = 0.28247 -0.02342
#
# Static dielectric constant tensor:
#      x y z
#    x 1.917890 0.000000 0.000000 
#    y 0.000000 1.883070 0.000000 
#    z 0.000000 0.000000 1.771450 
# 
# From -- ./inp_files/19404.got.cif
#   From: 2010.05.17/outbox.cif.g08.bks.cpg/sg68_10_cif.got.tgz:19404.got - 2010.06.03 18:57:09.
