data_PCOD9509333
_publ_section_title
;
Structure prediction by ZEFSAII (Michael W. Deem and Ramdas Pophale) SiO2 
 PCOD9509333
Probable space group: C C C A
;
_chemical_formula_sum "Si O2"
_cell_formula_units_Z 48
_cell_length_a 14.537308
_cell_length_b 26.680741
_cell_length_c 5.093690
_cell_angle_alpha 90.000000
_cell_angle_beta 90.000000
_cell_angle_gamma 90.000000
_cell_volume 1975.669927
_symmetry_space_group_name_H-M "C C C A"
_symmetry_group_IT_number 68
_space_group.IT_coordinate_system_code '2'
_symmetry_cell_setting 'orthorhombic'
loop_
_space_group_symop_operation_xyz
x,y,z
-x,1/2-y,z
x,1/2-y,1/2-z
-x,y,1/2-z
-x,-y,-z
x,1/2+y,-z
-x,1/2+y,1/2+z
x,-y,1/2+z
1/2+x,1/2+y,z
1/2-x,-y,z
1/2+x,-y,1/2-z
1/2-x,1/2+y,1/2-z
1/2-x,1/2-y,-z
1/2+x,y,-z
1/2-x,y,1/2+z
1/2+x,1/2-y,1/2+z
loop_
_atom_site_type_symbol
_atom_site_label
_atom_site_fract_x
_atom_site_fract_y
_atom_site_fract_z
Si Si1 0.804712 0.641521 0.727264
Si Si2 0.074301 0.709252 0.416273
Si Si3 0.389935 0.532791 0.265428
O O1 0.783911 0.648304 0.419318
O O2 0.839695 0.585274 0.769731
O O3 0.875697 0.679720 0.858301
O O4 0.136458 0.750000 0.250000
O O5 0.000000 0.750000 0.505135
O O6 0.000000 0.675119 0.250000
O O7 0.500000 0.541575 0.250000
O O8 0.366875 0.507107 0.540625
#
# Coordination Sequence:
#
# PCOD9509333 Si02
#       3
#    16  16  16
#     4  12  25  40  69 106 139 174 223 293 354 409
#     4   6  18  44  65  93 125 190 227 281 334 417
#     4  10  23  44  67  97 134 184 228 267 327 416
#
# _framework density 24.295559000000001
#
# number of rings (size 3 to 8) (size 9 to 14) (size 15 to 20)
#    2.000    0.667    0.000    2.000    0.000   12.000 
#    0.000    1.667    0.000    0.000    0.000    0.000 
#    0.000    0.000    0.000    0.000    0.000    0.000 
#
# Total GULP energy -133802.280279 kJ/mol
# GULP energy per Si atom -5575.095012 kJ/mol
# Density = 2.424026 g / cm^3
# Si number density = 24.295559 Si / 1000 Ang^3
#
#
#
# Elastic Constant Matrix: (Units=GPa)
#
#
# Indices 1 2 3 4 5 6 
#
# 1 55.9181 31.6484 -6.9148 0.0000 0.0000 0.0000
# 2 31.6484 117.9087 -0.7795 0.0000 0.0000 0.0000
# 3 -6.9148 -0.7795 80.7232 0.0000 0.0000 0.0000
# 4 0.0000 0.0000 0.0000 10.3477 0.0000 0.0000
# 5 0.0000 0.0000 0.0000 0.0000 23.4912 0.0000
# 6 0.0000 0.0000 0.0000 0.0000 0.0000 38.5158
#
#
#
# Elastic Compliance Matrix: (Units=1/GPa)
#
#
# Indices 1 2 3 4 5 6 
#
# 1 0.021337 -0.005716 0.001773 0.000000 0.000000 0.000000
# 2 -0.005716 0.010013 -0.000393 0.000000 0.000000 0.000000
# 3 0.001773 -0.000393 0.012536 0.000000 0.000000 0.000000
# 4 0.000000 0.000000 0.000000 0.096639 0.000000 0.000000
# 5 0.000000 0.000000 0.000000 0.000000 0.042569 0.000000
# 6 0.000000 0.000000 0.000000 0.000000 0.000000 0.025963
#
#
# Mechanical properties :
#
#
# Convention : Reuss Voigt Hill
#
# Bulk Modulus (GPa) = 28.39749 33.60647 31.00198
# Shear Modulus (GPa) = 21.78955 29.84401 25.81678
#
# Velocity S-wave (km/s) = 2.99800 3.50862 3.26331
# Velocity P-wave (km/s) = 4.86803 5.50239 5.19490
#
# Compressibility (1/GPa) = 0.03521437
#
# Stress axis : x y z
#
# Youngs Moduli (GPa) = 46.86618 99.87347 79.76983
#
# Poissons Ratio (x) = 0.57083 -0.14140
# Poissons Ratio (y) = 0.26787 0.03134
# Poissons Ratio (z) = -0.08307 0.03924
#
# Static dielectric constant tensor:
#      x y z
#    x 1.924250 0.000000 0.000000 
#    y 0.000000 1.975320 0.000000 
#    z 0.000000 0.000000 2.214880 
# 
# From -- ./inp_files/877.got.cif
#   From: 2010.05.17/outbox.cif.g08.bks.cpg/sg68_1_cif.got.tgz:877.got - 2010.06.03 18:57:09.
