data_PCOD9509590
_publ_section_title
;
Structure prediction by ZEFSAII (Michael W. Deem and Ramdas Pophale) SiO2 
 PCOD9509590
Probable space group: C C C A
;
_chemical_formula_sum "Si O2"
_cell_formula_units_Z 104
_cell_length_a 7.927816
_cell_length_b 19.599602
_cell_length_c 29.986810
_cell_angle_alpha 90.000000
_cell_angle_beta 90.000000
_cell_angle_gamma 90.000000
_cell_volume 4659.411661
_symmetry_space_group_name_H-M "C C C A"
_symmetry_group_IT_number 68
_space_group.IT_coordinate_system_code '2'
_symmetry_cell_setting 'orthorhombic'
loop_
_space_group_symop_operation_xyz
x,y,z
-x,1/2-y,z
x,1/2-y,1/2-z
-x,y,1/2-z
-x,-y,-z
x,1/2+y,-z
-x,1/2+y,1/2+z
x,-y,1/2+z
1/2+x,1/2+y,z
1/2-x,-y,z
1/2+x,-y,1/2-z
1/2-x,1/2+y,1/2-z
1/2-x,1/2-y,-z
1/2+x,y,-z
1/2-x,y,1/2+z
1/2+x,1/2-y,1/2+z
loop_
_atom_site_type_symbol
_atom_site_label
_atom_site_fract_x
_atom_site_fract_y
_atom_site_fract_z
Si Si1 0.912222 0.870159 0.960322
Si Si2 0.750000 0.000000 0.946289
Si Si3 0.694931 0.774728 0.703387
Si Si4 0.699621 0.666547 0.949679
Si Si5 0.814045 0.719757 0.610853
Si Si6 0.574576 0.457124 0.392798
Si Si7 0.872484 0.566092 0.291865
O O1 0.824824 0.853092 0.912838
O O2 0.110997 0.864617 0.953487
O O3 0.819483 0.938662 0.976441
O O4 0.870234 0.820373 0.001118
O O5 0.913515 0.009597 0.915569
O O6 0.500000 0.750000 0.703212
O O7 0.770912 0.750000 0.750000
O O8 0.771037 0.734381 0.661596
O O9 0.707787 0.857458 0.702191
O O10 0.699212 0.734513 0.920627
O O11 0.598544 0.612285 0.920219
O O12 0.000000 0.750000 0.604238
O O13 0.750000 0.500000 0.396149
O O14 0.543573 0.445958 0.340222
O O15 0.750000 0.500000 0.284928
O O16 0.000000 0.570097 0.250000
#
# Coordination Sequence:
#
# PCOD9509590 Si02
#       7
#    16   8  16  16  16  16  16
#     4  11  25  39  66 101 138 185 237 290 352 431
#     4  12  26  40  66 104 134 190 234 284 360 428
#     4  11  23  44  71  99 138 180 237 290 362 435
#     4  11  22  44  66  96 140 181 235 294 355 417
#     4  10  24  44  67  97 137 181 234 295 353 419
#     4  11  24  44  68  97 145 181 236 293 360 425
#     4  11  25  47  71 105 138 185 231 305 367 437
#
# _framework density 22.320416000000002
#
# number of rings (size 3 to 8) (size 9 to 14) (size 15 to 20)
#    0.000    1.077    4.615    1.385    4.308    2.769 
#    2.769    0.000    0.000    0.000    0.000    0.000 
#    0.000    0.000    0.000    0.000    0.000    0.000 
#
# Total GULP energy -290341.019333 kJ/mol
# GULP energy per Si atom -5583.481141 kJ/mol
# Density = 2.226961 g / cm^3
# Si number density = 22.320416 Si / 1000 Ang^3
#
#
#
# Elastic Constant Matrix: (Units=GPa)
#
#
# Indices 1 2 3 4 5 6 
#
# 1 82.5739 13.4424 25.0514 0.0000 0.0000 0.0000
# 2 13.4424 59.9660 -2.6495 0.0000 0.0000 0.0000
# 3 25.0514 -2.6495 136.7544 0.0000 0.0000 0.0000
# 4 0.0000 0.0000 0.0000 29.5848 0.0000 0.0000
# 5 0.0000 0.0000 0.0000 0.0000 26.7843 0.0000
# 6 0.0000 0.0000 0.0000 0.0000 0.0000 26.9854
#
#
#
# Elastic Compliance Matrix: (Units=1/GPa)
#
#
# Indices 1 2 3 4 5 6 
#
# 1 0.013378 -0.003110 -0.002511 0.000000 0.000000 0.000000
# 2 -0.003110 0.017413 0.000907 0.000000 0.000000 0.000000
# 3 -0.002511 0.000907 0.007790 0.000000 0.000000 0.000000
# 4 0.000000 0.000000 0.000000 0.033801 0.000000 0.000000
# 5 0.000000 0.000000 0.000000 0.000000 0.037335 0.000000
# 6 0.000000 0.000000 0.000000 0.000000 0.000000 0.037057
#
#
# Mechanical properties :
#
#
# Convention : Reuss Voigt Hill
#
# Bulk Modulus (GPa) = 34.30067 38.99810 36.64939
# Shear Modulus (GPa) = 30.13484 32.90090 31.51787
#
# Velocity S-wave (km/s) = 3.67836 3.84347 3.76182
# Velocity P-wave (km/s) = 5.78284 6.09969 5.94338
#
# Compressibility (1/GPa) = 0.02915395
#
# Stress axis : x y z
#
# Youngs Moduli (GPa) = 74.74719 57.42727 128.37087
#
# Poissons Ratio (x) = 0.17860 0.32234
# Poissons Ratio (y) = 0.23246 -0.11644
# Poissons Ratio (z) = 0.18769 -0.05209
#
# Static dielectric constant tensor:
#      x y z
#    x 1.830910 0.000000 0.000000 
#    y 0.000000 1.923340 0.000000 
#    z 0.000000 0.000000 1.792530 
# 
# From -- ./inp_files/54137.got.cif
#   From: 2010.05.17/outbox.cif.g08.bks.cpg/sg68_28_cif.got.tgz:54137.got - 2010.06.03 18:57:09.
