data_PCOD9509305
_publ_section_title
;
Structure prediction by ZEFSAII (Michael W. Deem and Ramdas Pophale) SiO2 
 PCOD9509305
Probable space group: C C C A
;
_chemical_formula_sum "Si O2"
_cell_formula_units_Z 64
_cell_length_a 14.433195
_cell_length_b 8.821236
_cell_length_c 21.607481
_cell_angle_alpha 90.000000
_cell_angle_beta 90.000000
_cell_angle_gamma 90.000000
_cell_volume 2751.034648
_symmetry_space_group_name_H-M "C C C A"
_symmetry_group_IT_number 68
_space_group.IT_coordinate_system_code '2'
_symmetry_cell_setting 'orthorhombic'
loop_
_space_group_symop_operation_xyz
x,y,z
-x,1/2-y,z
x,1/2-y,1/2-z
-x,y,1/2-z
-x,-y,-z
x,1/2+y,-z
-x,1/2+y,1/2+z
x,-y,1/2+z
1/2+x,1/2+y,z
1/2-x,-y,z
1/2+x,-y,1/2-z
1/2-x,1/2+y,1/2-z
1/2-x,1/2-y,-z
1/2+x,y,-z
1/2-x,y,1/2+z
1/2+x,1/2-y,1/2+z
loop_
_atom_site_type_symbol
_atom_site_label
_atom_site_fract_x
_atom_site_fract_y
_atom_site_fract_z
Si Si1 0.500000 0.004966 0.250000
Si Si2 0.366546 0.353873 0.049737
Si Si3 0.183977 0.141580 0.200493
Si Si4 0.000000 0.750000 0.144792
Si Si5 0.148500 0.192983 0.426988
O O1 0.406516 0.914680 0.237073
O O2 0.512505 0.109063 0.189858
O O3 0.413550 0.241503 0.098678
O O4 0.256848 0.336179 0.058195
O O5 0.395248 0.525828 0.066126
O O6 0.389093 0.304733 0.979950
O O7 0.236143 0.250000 0.250000
O O8 0.149141 0.231046 0.140120
O O9 0.250000 0.000000 0.184220
#
# Coordination Sequence:
#
# PCOD9509305 Si02
#       5
#     8  16  16   8  16
#     4  11  27  46  72 106 150 184 244 304 348 434
#     4  10  23  43  71 103 140 186 232 299 350 440
#     4  12  28  46  75 104 144 194 241 298 365 431
#     4  11  24  44  72 104 141 186 240 294 367 412
#     4  10  24  44  72 102 143 183 241 288 364 426
#
# _framework density 23.263974000000001
#
# number of rings (size 3 to 8) (size 9 to 14) (size 15 to 20)
#    0.000    1.250    0.000    3.375   21.000    1.000 
#    4.500    0.000    0.000    0.000    0.000    0.000 
#    0.000    0.000    0.000    0.000    0.000    0.000 
#
# Total GULP energy -179105.281567 kJ/mol
# GULP energy per Si atom -5597.040049 kJ/mol
# Density = 2.321102 g / cm^3
# Si number density = 23.263974 Si / 1000 Ang^3
#
#
#
# Elastic Constant Matrix: (Units=GPa)
#
#
# Indices 1 2 3 4 5 6 
#
# 1 54.4485 25.1092 15.1023 0.0000 0.0000 0.0000
# 2 25.1092 140.6197 100.6058 0.0000 0.0000 0.0000
# 3 15.1023 100.6058 215.3026 0.0000 0.0000 0.0000
# 4 0.0000 0.0000 0.0000 17.7686 0.0000 0.0000
# 5 0.0000 0.0000 0.0000 0.0000 35.6997 0.0000
# 6 0.0000 0.0000 0.0000 0.0000 0.0000 29.1557
#
#
#
# Elastic Compliance Matrix: (Units=1/GPa)
#
#
# Indices 1 2 3 4 5 6 
#
# 1 0.020037 -0.003864 0.000400 0.000000 0.000000 0.000000
# 2 -0.003864 0.011428 -0.005069 0.000000 0.000000 0.000000
# 3 0.000400 -0.005069 0.006985 0.000000 0.000000 0.000000
# 4 0.000000 0.000000 0.000000 0.056279 0.000000 0.000000
# 5 0.000000 0.000000 0.000000 0.000000 0.028011 0.000000
# 6 0.000000 0.000000 0.000000 0.000000 0.000000 0.034299
#
#
# Mechanical properties :
#
#
# Convention : Reuss Voigt Hill
#
# Bulk Modulus (GPa) = 46.76351 76.88950 61.82651
# Shear Modulus (GPa) = 27.58882 34.49505 31.04194
#
# Velocity S-wave (km/s) = 3.44743 3.85485 3.65682
# Velocity P-wave (km/s) = 5.99927 7.27570 6.66810
#
# Compressibility (1/GPa) = 0.02138419
#
# Stress axis : x y z
#
# Youngs Moduli (GPa) = 49.90778 87.50511 143.16069
#
# Poissons Ratio (x) = 0.33813 -0.05728
# Poissons Ratio (y) = 0.19285 0.72567
# Poissons Ratio (z) = -0.01997 0.44356
#
# Static dielectric constant tensor:
#      x y z
#    x 1.928350 0.000000 0.000000 
#    y 0.000000 1.912750 0.000000 
#    z 0.000000 0.000000 1.842950 
# 
# From -- ./inp_files/39145.got.cif
#   From: 2010.05.17/outbox.cif.g08.bks.cpg/sg68_20_cif.got.tgz:39145.got - 2010.06.03 18:57:09.
