data_PCOD9509713
_publ_section_title
;
Structure prediction by ZEFSAII (Michael W. Deem and Ramdas Pophale) SiO2 
 PCOD9509713
Probable space group: C C C A
;
_chemical_formula_sum "Si O2"
_cell_formula_units_Z 84
_cell_length_a 5.498403
_cell_length_b 22.256560
_cell_length_c 30.624918
_cell_angle_alpha 90.000000
_cell_angle_beta 90.000000
_cell_angle_gamma 90.000000
_cell_volume 3747.740764
_symmetry_space_group_name_H-M "C C C A"
_symmetry_group_IT_number 68
_space_group.IT_coordinate_system_code '2'
_symmetry_cell_setting 'orthorhombic'
loop_
_space_group_symop_operation_xyz
x,y,z
-x,1/2-y,z
x,1/2-y,1/2-z
-x,y,1/2-z
-x,-y,-z
x,1/2+y,-z
-x,1/2+y,1/2+z
x,-y,1/2+z
1/2+x,1/2+y,z
1/2-x,-y,z
1/2+x,-y,1/2-z
1/2-x,1/2+y,1/2-z
1/2-x,1/2-y,-z
1/2+x,y,-z
1/2-x,y,1/2+z
1/2+x,1/2-y,1/2+z
loop_
_atom_site_type_symbol
_atom_site_label
_atom_site_fract_x
_atom_site_fract_y
_atom_site_fract_z
Si Si1 0.500000 0.250000 0.473161
Si Si2 0.651242 0.825938 0.668651
Si Si3 0.245930 0.929858 0.776872
Si Si4 0.000000 0.750000 0.250000
Si Si5 0.965591 0.931386 0.482248
Si Si6 0.500000 0.250000 0.890588
Si Si7 0.158420 0.349223 0.911201
O O1 0.250000 0.250000 0.500000
O O2 0.510678 0.307370 0.441403
O O3 0.772537 0.888823 0.680422
O O4 0.629355 0.794054 0.715721
O O5 0.419997 0.844785 0.639221
O O6 0.793307 0.777686 0.640135
O O7 0.500000 0.918327 0.750000
O O8 0.000000 0.917811 0.750000
O O9 0.250000 0.000000 0.787895
O O10 0.236767 0.906155 0.490283
O O11 0.874243 0.914558 0.433274
O O12 0.000000 0.000000 0.500000
O O13 0.403621 0.309556 0.915041
#
# Coordination Sequence:
#
# PCOD9509713 Si02
#       7
#     8  16  16   4  16   8  16
#     4  12  24  40  68  94 130 185 229 284 359 435
#     4  12  26  43  71 102 152 195 244 313 371 451
#     4  10  24  47  72  99 136 188 253 302 360 435
#     4  12  22  46  64 106 146 196 256 298 384 444
#     4  10  24  48  76 103 141 192 245 305 369 452
#     4  12  25  43  66 110 154 198 238 320 384 460
#     4  12  25  45  65 108 149 183 247 304 377 446
#
# _framework density 22.413502000000001
#
# number of rings (size 3 to 8) (size 9 to 14) (size 15 to 20)
#    0.000    0.762    4.762    1.714    8.000    0.000 
#    3.429    0.000    0.000    0.000    0.000    0.000 
#    0.000    0.000    0.000    0.000    0.000    0.000 
#
# Total GULP energy -233827.555710 kJ/mol
# GULP energy per Si atom -5567.322755 kJ/mol
# Density = 2.236249 g / cm^3
# Si number density = 22.413502 Si / 1000 Ang^3
#
#
#
# Elastic Constant Matrix: (Units=GPa)
#
#
# Indices 1 2 3 4 5 6 
#
# 1 125.3834 21.1168 36.3994 0.0000 0.0000 0.0000
# 2 21.1168 107.9865 36.3327 0.0000 0.0000 0.0000
# 3 36.3994 36.3327 99.4553 0.0000 0.0000 0.0000
# 4 0.0000 0.0000 0.0000 31.6281 0.0000 0.0000
# 5 0.0000 0.0000 0.0000 0.0000 26.9053 0.0000
# 6 0.0000 0.0000 0.0000 0.0000 0.0000 18.9397
#
#
#
# Elastic Compliance Matrix: (Units=1/GPa)
#
#
# Indices 1 2 3 4 5 6 
#
# 1 0.008975 -0.000741 -0.003014 0.000000 0.000000 0.000000
# 2 -0.000741 0.010619 -0.003608 0.000000 0.000000 0.000000
# 3 -0.003014 -0.003608 0.012476 0.000000 0.000000 0.000000
# 4 0.000000 0.000000 0.000000 0.031617 0.000000 0.000000
# 5 0.000000 0.000000 0.000000 0.000000 0.037167 0.000000
# 6 0.000000 0.000000 0.000000 0.000000 0.000000 0.052799
#
#
# Mechanical properties :
#
#
# Convention : Reuss Voigt Hill
#
# Bulk Modulus (GPa) = 57.65694 57.83589 57.74641
# Shear Modulus (GPa) = 28.70875 31.42637 30.06756
#
# Velocity S-wave (km/s) = 3.58281 3.74855 3.66661
# Velocity P-wave (km/s) = 6.54946 6.67799 6.61403
#
# Compressibility (1/GPa) = 0.01734397
#
# Stress axis : x y z
#
# Youngs Moduli (GPa) = 111.41605 94.16796 80.15344
#
# Poissons Ratio (x) = 0.06978 0.24160
# Poissons Ratio (y) = 0.08256 0.28921
# Poissons Ratio (z) = 0.33583 0.33978
#
# Static dielectric constant tensor:
#      x y z
#    x 1.961190 0.000000 0.000000 
#    y 0.000000 1.873100 0.000000 
#    z 0.000000 0.000000 1.900720 
# 
# From -- ./inp_files/53313.got.cif
#   From: 2010.05.17/outbox.cif.g08.bks.cpg/sg68_27_cif.got.tgz:53313.got - 2010.06.03 18:57:09.
