data_PCOD9509571
_publ_section_title
;
Structure prediction by ZEFSAII (Michael W. Deem and Ramdas Pophale) SiO2 
 PCOD9509571
Probable space group: C C C A
;
_chemical_formula_sum "Si O2"
_cell_formula_units_Z 60
_cell_length_a 17.250506
_cell_length_b 4.756670
_cell_length_c 26.644774
_cell_angle_alpha 90.000000
_cell_angle_beta 90.000000
_cell_angle_gamma 90.000000
_cell_volume 2186.335981
_symmetry_space_group_name_H-M "C C C A"
_symmetry_group_IT_number 68
_space_group.IT_coordinate_system_code '2'
_symmetry_cell_setting 'orthorhombic'
loop_
_space_group_symop_operation_xyz
x,y,z
-x,1/2-y,z
x,1/2-y,1/2-z
-x,y,1/2-z
-x,-y,-z
x,1/2+y,-z
-x,1/2+y,1/2+z
x,-y,1/2+z
1/2+x,1/2+y,z
1/2-x,-y,z
1/2+x,-y,1/2-z
1/2-x,1/2+y,1/2-z
1/2-x,1/2-y,-z
1/2+x,y,-z
1/2-x,y,1/2+z
1/2+x,1/2-y,1/2+z
loop_
_atom_site_type_symbol
_atom_site_label
_atom_site_fract_x
_atom_site_fract_y
_atom_site_fract_z
Si Si1 0.000000 0.250000 0.250000
Si Si2 0.192520 0.750000 0.250000
Si Si3 0.891893 0.393666 0.331898
Si Si4 0.500000 0.750000 0.904203
Si Si5 0.352502 0.902585 0.535126
Si Si6 0.750000 0.500000 0.396313
O O1 0.934869 0.179575 0.293607
O O2 0.250000 0.500000 0.266231
O O3 0.140242 0.868674 0.294339
O O4 0.815040 0.331414 0.363854
O O5 0.953724 0.531031 0.369552
O O6 0.436418 0.610230 0.939720
O O7 0.343780 0.718742 0.484221
O O8 0.296577 0.737902 0.573131
#
# Coordination Sequence:
#
# PCOD9509571 Si02
#       6
#     4   8  16   8  16   8
#     4  12  26  46  82 108 168 204 254 310 382 458
#     4  12  25  47  74 106 150 196 248 310 377 441
#     4  11  24  46  69 115 145 202 249 308 373 440
#     4  10  24  43  71 104 152 190 255 303 372 458
#     4  11  24  47  72 106 147 193 243 309 385 442
#     4  10  24  44  72 108 148 188 256 310 366 452
#
# _framework density 27.443173000000002
#
# number of rings (size 3 to 8) (size 9 to 14) (size 15 to 20)
#    0.000    1.067    1.333    4.000    0.000    4.267 
#    9.600    0.000    0.000    0.000    0.000    0.000 
#    0.000    0.000    0.000    0.000    0.000    0.000 
#
# Total GULP energy -167814.866232 kJ/mol
# GULP energy per Si atom -5593.828874 kJ/mol
# Density = 2.738071 g / cm^3
# Si number density = 27.443173 Si / 1000 Ang^3
#
#
#
# Elastic Constant Matrix: (Units=GPa)
#
#
# Indices 1 2 3 4 5 6 
#
# 1 202.9825 24.5363 80.4504 0.0000 0.0000 0.0000
# 2 24.5363 98.4325 15.4276 0.0000 0.0000 0.0000
# 3 80.4504 15.4276 128.8125 0.0000 0.0000 0.0000
# 4 0.0000 0.0000 0.0000 25.0714 0.0000 0.0000
# 5 0.0000 0.0000 0.0000 0.0000 86.6373 0.0000
# 6 0.0000 0.0000 0.0000 0.0000 0.0000 30.3739
#
#
#
# Elastic Compliance Matrix: (Units=1/GPa)
#
#
# Indices 1 2 3 4 5 6 
#
# 1 0.006647 -0.001026 -0.004029 0.000000 0.000000 0.000000
# 2 -0.001026 0.010512 -0.000618 0.000000 0.000000 0.000000
# 3 -0.004029 -0.000618 0.010353 0.000000 0.000000 0.000000
# 4 0.000000 0.000000 0.000000 0.039886 0.000000 0.000000
# 5 0.000000 0.000000 0.000000 0.000000 0.011542 0.000000
# 6 0.000000 0.000000 0.000000 0.000000 0.000000 0.032923
#
#
# Mechanical properties :
#
#
# Convention : Reuss Voigt Hill
#
# Bulk Modulus (GPa) = 61.85426 74.56177 68.20802
# Shear Modulus (GPa) = 38.88067 49.07073 43.97570
#
# Velocity S-wave (km/s) = 3.76808 4.23316 4.00738
# Velocity P-wave (km/s) = 6.44354 7.14992 6.80590
#
# Compressibility (1/GPa) = 0.01616703
#
# Stress axis : x y z
#
# Youngs Moduli (GPa) = 150.43803 95.13104 96.58602
#
# Poissons Ratio (x) = 0.09756 0.38912
# Poissons Ratio (y) = 0.15428 0.05974
# Poissons Ratio (z) = 0.60608 0.05884
#
# Static dielectric constant tensor:
#      x y z
#    x 2.159440 0.000000 0.000000 
#    y 0.000000 2.123590 0.000000 
#    z 0.000000 0.000000 2.134590 
# 
# From -- ./inp_files/51196.got.cif
#   From: 2010.05.17/outbox.cif.g08.bks.cpg/sg68_26_cif.got.tgz:51196.got - 2010.06.03 18:57:09.
