data_PCOD9509360
_publ_section_title
;
Structure prediction by ZEFSAII (Michael W. Deem and Ramdas Pophale) SiO2 
 PCOD9509360
Probable space group: C C C A
;
_chemical_formula_sum "Si O2"
_cell_formula_units_Z 116
_cell_length_a 18.346069
_cell_length_b 13.157689
_cell_length_c 23.873957
_cell_angle_alpha 90.000000
_cell_angle_beta 90.000000
_cell_angle_gamma 90.000000
_cell_volume 5762.979131
_symmetry_space_group_name_H-M "C C C A"
_symmetry_group_IT_number 68
_space_group.IT_coordinate_system_code '2'
_symmetry_cell_setting 'orthorhombic'
loop_
_space_group_symop_operation_xyz
x,y,z
-x,1/2-y,z
x,1/2-y,1/2-z
-x,y,1/2-z
-x,-y,-z
x,1/2+y,-z
-x,1/2+y,1/2+z
x,-y,1/2+z
1/2+x,1/2+y,z
1/2-x,-y,z
1/2+x,-y,1/2-z
1/2-x,1/2+y,1/2-z
1/2-x,1/2-y,-z
1/2+x,y,-z
1/2-x,y,1/2+z
1/2+x,1/2-y,1/2+z
loop_
_atom_site_type_symbol
_atom_site_label
_atom_site_fract_x
_atom_site_fract_y
_atom_site_fract_z
Si Si1 0.257077 0.612176 0.651774
Si Si2 0.451777 0.650934 0.019382
Si Si3 0.675702 0.435988 0.632809
Si Si4 0.500000 0.750000 0.750000
Si Si5 0.582085 0.929179 0.689987
Si Si6 0.868672 0.865449 0.744918
Si Si7 0.700984 0.254000 0.944798
Si Si8 0.027255 0.020502 0.591375
O O1 0.250000 0.500000 0.625367
O O2 0.334779 0.602421 0.680237
O O3 0.194869 0.634150 0.697816
O O4 0.248460 0.692995 0.603330
O O5 0.500000 0.750000 0.012375
O O6 0.371808 0.681695 0.041260
O O7 0.493526 0.580396 0.063706
O O8 0.452589 0.593907 0.959999
O O9 0.750000 0.500000 0.631187
O O10 0.665917 0.387631 0.694335
O O11 0.678421 0.353442 0.582658
O O12 0.602250 0.500374 0.623804
O O13 0.548699 0.829365 0.716893
O O14 0.535727 0.944039 0.633491
O O15 0.582901 0.036428 0.725121
O O16 0.900771 0.750000 0.750000
O O17 0.750000 0.250000 0.000000
#
# Coordination Sequence:
#
# PCOD9509360 Si02
#       8
#    16  16  16   4  16  16  16  16
#     4  10  23  44  72 101 138 183 236 299 362 432
#     4  11  24  46  70 100 140 184 234 296 365 434
#     4  12  25  44  70 105 143 184 241 305 363 434
#     4  12  28  44  62 104 152 192 242 278 364 454
#     4  11  26  44  72 104 145 194 236 295 369 445
#     4  11  23  46  76 108 141 186 243 307 370 432
#     4  12  26  42  71 105 138 188 241 291 362 432
#     4  11  26  45  72 100 141 184 239 299 363 436
#
# _framework density 20.128478999999999
#
# number of rings (size 3 to 8) (size 9 to 14) (size 15 to 20)
#    0.000    0.828    2.759    4.552    3.862    3.862 
#    0.000    2.414    0.000    0.000    0.000    0.000 
#    0.000    0.000    0.000    0.000    0.000    0.000 
#
# Total GULP energy -323883.664506 kJ/mol
# GULP energy per Si atom -5584.201112 kJ/mol
# Density = 2.008267 g / cm^3
# Si number density = 20.128479 Si / 1000 Ang^3
#
#
#
# Elastic Constant Matrix: (Units=GPa)
#
#
# Indices 1 2 3 4 5 6 
#
# 1 50.4874 25.2388 1.4222 0.0000 0.0000 0.0000
# 2 25.2388 144.7445 58.6924 0.0000 0.0000 0.0000
# 3 1.4222 58.6924 121.4875 0.0000 0.0000 0.0000
# 4 0.0000 0.0000 0.0000 -175.5621 0.0000 0.0000
# 5 0.0000 0.0000 0.0000 0.0000 25.3285 0.0000
# 6 0.0000 0.0000 0.0000 0.0000 0.0000 39.3609
#
#
#
# Elastic Compliance Matrix: (Units=1/GPa)
#
#
# Indices 1 2 3 4 5 6 
#
# 1 0.022079 -0.004657 0.001992 0.000000 0.000000 0.000000
# 2 -0.004657 0.009574 -0.004571 0.000000 0.000000 0.000000
# 3 0.001992 -0.004571 0.010416 0.000000 0.000000 0.000000
# 4 0.000000 0.000000 0.000000 -0.005696 0.000000 0.000000
# 5 0.000000 0.000000 0.000000 0.000000 0.039481 0.000000
# 6 0.000000 0.000000 0.000000 0.000000 0.000000 0.025406
#
#
# Mechanical properties :
#
#
# Convention : Reuss Voigt Hill
#
# Bulk Modulus (GPa) = 36.23702 54.15846 45.19774
# Shear Modulus (GPa) = 40.02140 -6.75013 16.63564
#
# Velocity S-wave (km/s) = 4.46387 -1.83325 2.87796
# Velocity P-wave (km/s) = 6.67908 4.74170 5.79197
#
# Compressibility (1/GPa) = 0.02759609
#
# Stress axis : x y z
#
# Youngs Moduli (GPa) = 45.29167 104.44606 96.00350
#
# Poissons Ratio (x) = 0.48645 -0.19120
# Poissons Ratio (y) = 0.21094 0.43883
# Poissons Ratio (z) = -0.09020 0.47742
#
# Static dielectric constant tensor:
#      x y z
#    x 1.725130 0.000000 0.000000 
#    y 0.000000 0.954960 0.000000 
#    z 0.000000 0.000000 1.790930 
# 
# From -- ./inp_files/51508.got.cif
#   From: 2010.05.17/outbox.cif.g08.bks.cpg/sg68_26_cif.got.tgz:51508.got - 2010.06.03 18:57:09.
