data_PCOD9509112
_publ_section_title
;
Structure prediction by ZEFSAII (Michael W. Deem and Ramdas Pophale) SiO2 
 PCOD9509112
Probable space group: C C C A
;
_chemical_formula_sum "Si O2"
_cell_formula_units_Z 92
_cell_length_a 11.632970
_cell_length_b 18.794153
_cell_length_c 21.238852
_cell_angle_alpha 90.000000
_cell_angle_beta 90.000000
_cell_angle_gamma 90.000000
_cell_volume 4643.488826
_symmetry_space_group_name_H-M "C C C A"
_symmetry_group_IT_number 68
_space_group.IT_coordinate_system_code '2'
_symmetry_cell_setting 'orthorhombic'
loop_
_space_group_symop_operation_xyz
x,y,z
-x,1/2-y,z
x,1/2-y,1/2-z
-x,y,1/2-z
-x,-y,-z
x,1/2+y,-z
-x,1/2+y,1/2+z
x,-y,1/2+z
1/2+x,1/2+y,z
1/2-x,-y,z
1/2+x,-y,1/2-z
1/2-x,1/2+y,1/2-z
1/2-x,1/2-y,-z
1/2+x,y,-z
1/2-x,y,1/2+z
1/2+x,1/2-y,1/2+z
loop_
_atom_site_type_symbol
_atom_site_label
_atom_site_fract_x
_atom_site_fract_y
_atom_site_fract_z
Si Si1 0.326134 0.852888 0.671166
Si Si2 0.937956 0.020423 0.898983
Si Si3 0.939557 0.112549 0.310436
Si Si4 0.000000 0.250000 0.750000
Si Si5 0.000000 0.750000 0.871508
Si Si6 0.345710 0.046589 0.474930
Si Si7 0.789152 0.691553 0.547608
O O1 0.377157 0.929981 0.652539
O O2 0.195222 0.864653 0.697857
O O3 0.413324 0.802583 0.710382
O O4 0.304381 0.820548 0.601849
O O5 0.054325 0.055961 0.924026
O O6 0.947879 0.943108 0.867408
O O7 0.876860 0.005048 0.965909
O O8 0.016206 0.181684 0.327317
O O9 0.000000 0.079069 0.250000
O O10 0.101317 0.722696 0.915892
O O11 0.313483 0.120252 0.508095
O O12 0.250000 0.000000 0.440428
O O13 0.750000 0.750000 0.500000
#
# Coordination Sequence:
#
# PCOD9509112 Si02
#       7
#    16  16  16   4   8  16  16
#     4  11  26  50  67  96 141 178 234 279 353 401
#     4  11  23  44  69  97 136 176 222 285 347 406
#     4  11  24  44  74  95 131 180 232 284 326 406
#     4  12  32  46  70 100 138 198 224 292 336 428
#     4  10  23  39  60 102 125 173 220 266 338 390
#     4  11  22  42  67 100 135 178 222 279 350 414
#     4  11  25  38  70  97 140 177 220 284 344 417
#
# _framework density 19.812688000000001
#
# number of rings (size 3 to 8) (size 9 to 14) (size 15 to 20)
#    0.000    1.043    5.217    0.783   13.391    0.000 
#    3.130    0.000    0.000    0.000    0.000    0.000 
#    0.000    0.000    0.000    0.000    0.000    0.000 
#
# Total GULP energy -256332.462733 kJ/mol
# GULP energy per Si atom -5572.444842 kJ/mol
# Density = 1.976759 g / cm^3
# Si number density = 19.812688 Si / 1000 Ang^3
#
#
#
# Elastic Constant Matrix: (Units=GPa)
#
#
# Indices 1 2 3 4 5 6 
#
# 1 78.0390 44.3317 39.6001 0.0000 0.0000 0.0000
# 2 44.3317 111.8671 18.0579 0.0000 0.0000 0.0000
# 3 39.6001 18.0579 46.7143 0.0000 0.0000 0.0000
# 4 0.0000 0.0000 0.0000 29.4617 0.0000 0.0000
# 5 0.0000 0.0000 0.0000 0.0000 29.9474 0.0000
# 6 0.0000 0.0000 0.0000 0.0000 0.0000 26.7299
#
#
#
# Elastic Compliance Matrix: (Units=1/GPa)
#
#
# Indices 1 2 3 4 5 6 
#
# 1 0.027444 -0.007594 -0.020329 0.000000 0.000000 0.000000
# 2 -0.007594 0.011636 0.001940 0.000000 0.000000 0.000000
# 3 -0.020329 0.001940 0.037890 0.000000 0.000000 0.000000
# 4 0.000000 0.000000 0.000000 0.033942 0.000000 0.000000
# 5 0.000000 0.000000 0.000000 0.000000 0.033392 0.000000
# 6 0.000000 0.000000 0.000000 0.000000 0.000000 0.037411
#
#
# Mechanical properties :
#
#
# Convention : Reuss Voigt Hill
#
# Bulk Modulus (GPa) = 39.99549 48.95554 44.47551
# Shear Modulus (GPa) = 20.65990 26.20317 23.43153
#
# Velocity S-wave (km/s) = 3.23268 3.64063 3.44270
# Velocity P-wave (km/s) = 5.84502 6.51422 6.18867
#
# Compressibility (1/GPa) = 0.02500282
#
# Stress axis : x y z
#
# Youngs Moduli (GPa) = 36.43825 85.94373 26.39245
#
# Poissons Ratio (x) = 0.65267 0.53652
# Poissons Ratio (y) = 0.27672 -0.05120
# Poissons Ratio (z) = 0.74074 -0.16671
#
# Static dielectric constant tensor:
#      x y z
#    x 1.789510 0.000000 0.000000 
#    y 0.000000 1.720580 0.000000 
#    z 0.000000 0.000000 2.538040 
# 
# From -- ./inp_files/37510.got.cif
#   From: 2010.05.17/outbox.cif.g08.bks.cpg/sg68_19_cif.got.tgz:37510.got - 2010.06.03 18:57:09.
