data_PCOD9509031
_publ_section_title
;
Structure prediction by ZEFSAII (Michael W. Deem and Ramdas Pophale) SiO2 
 PCOD9509031
Probable space group: C C C A
;
_chemical_formula_sum "Si O2"
_cell_formula_units_Z 64
_cell_length_a 9.052051
_cell_length_b 26.938899
_cell_length_c 10.656644
_cell_angle_alpha 90.000000
_cell_angle_beta 90.000000
_cell_angle_gamma 90.000000
_cell_volume 2598.647018
_symmetry_space_group_name_H-M "C C C A"
_symmetry_group_IT_number 68
_space_group.IT_coordinate_system_code '2'
_symmetry_cell_setting 'orthorhombic'
loop_
_space_group_symop_operation_xyz
x,y,z
-x,1/2-y,z
x,1/2-y,1/2-z
-x,y,1/2-z
-x,-y,-z
x,1/2+y,-z
-x,1/2+y,1/2+z
x,-y,1/2+z
1/2+x,1/2+y,z
1/2-x,-y,z
1/2+x,-y,1/2-z
1/2-x,1/2+y,1/2-z
1/2-x,1/2-y,-z
1/2+x,y,-z
1/2-x,y,1/2+z
1/2+x,1/2-y,1/2+z
loop_
_atom_site_type_symbol
_atom_site_label
_atom_site_fract_x
_atom_site_fract_y
_atom_site_fract_z
Si Si1 0.368819 0.902794 0.005614
Si Si2 0.000000 0.053977 0.250000
Si Si3 0.000000 0.250000 0.250000
Si Si4 0.000000 0.116944 0.750000
Si Si5 0.742109 0.817709 0.857859
Si Si6 0.750000 0.000000 0.601118
Si Si7 0.000000 0.750000 0.250000
O O1 0.447045 0.910613 0.138362
O O2 0.280208 0.851096 0.021089
O O3 0.479622 0.905170 0.887712
O O4 0.276083 0.952388 0.984813
O O5 0.879695 0.017413 0.191860
O O6 0.888277 0.286908 0.176745
O O7 0.838670 0.143692 0.762394
O O8 0.608068 0.778377 0.847274
#
# Coordination Sequence:
#
# PCOD9509031 Si02
#       7
#    16   8   4   8  16   8   4
#     4  12  25  46  76 112 150 197 248 305 366 441
#     4  12  26  46  73 107 149 203 252 298 360 440
#     4  10  22  46  78 112 144 192 250 308 370 444
#     4  11  25  47  72 109 155 195 241 307 369 435
#     4  10  22  45  74 108 149 194 242 304 373 441
#     4  12  26  46  72 110 152 198 248 306 366 436
#     4   8  20  46  76 108 148 188 244 310 376 436
#
# _framework density 24.628201000000001
#
# number of rings (size 3 to 8) (size 9 to 14) (size 15 to 20)
#    0.000    1.000    0.000    6.000    0.000    2.000 
#    0.000   22.500    0.000    0.000    0.000    0.000 
#    0.000    0.000    0.000    0.000    0.000    0.000 
#
# Total GULP energy -178448.313300 kJ/mol
# GULP energy per Si atom -5576.509791 kJ/mol
# Density = 2.457215 g / cm^3
# Si number density = 24.628201 Si / 1000 Ang^3
#
#
#
# Elastic Constant Matrix: (Units=GPa)
#
#
# Indices 1 2 3 4 5 6 
#
# 1 138.3641 68.0838 65.2520 0.0000 0.0000 0.0000
# 2 68.0838 137.8372 65.1250 0.0000 0.0000 0.0000
# 3 65.2520 65.1250 163.5093 0.0000 0.0000 0.0000
# 4 0.0000 0.0000 0.0000 15.2858 0.0000 0.0000
# 5 0.0000 0.0000 0.0000 0.0000 22.4646 0.0000
# 6 0.0000 0.0000 0.0000 0.0000 0.0000 18.5632
#
#
#
# Elastic Compliance Matrix: (Units=1/GPa)
#
#
# Indices 1 2 3 4 5 6 
#
# 1 0.010364 -0.003899 -0.002583 0.000000 0.000000 0.000000
# 2 -0.003899 0.010403 -0.002588 0.000000 0.000000 0.000000
# 3 -0.002583 -0.002588 0.008177 0.000000 0.000000 0.000000
# 4 0.000000 0.000000 0.000000 0.065420 0.000000 0.000000
# 5 0.000000 0.000000 0.000000 0.000000 0.044514 0.000000
# 6 0.000000 0.000000 0.000000 0.000000 0.000000 0.053870
#
#
# Mechanical properties :
#
#
# Convention : Reuss Voigt Hill
#
# Bulk Modulus (GPa) = 92.54538 92.95915 92.75227
# Shear Modulus (GPa) = 23.31109 27.34605 25.32857
#
# Velocity S-wave (km/s) = 3.07989 3.33581 3.21041
# Velocity P-wave (km/s) = 7.09269 7.25698 7.17531
#
# Compressibility (1/GPa) = 0.01080551
#
# Stress axis : x y z
#
# Youngs Moduli (GPa) = 96.48871 96.12306 122.28858
#
# Poissons Ratio (x) = 0.37476 0.31588
# Poissons Ratio (y) = 0.37618 0.31645
# Poissons Ratio (z) = 0.24924 0.24874
#
# Static dielectric constant tensor:
#      x y z
#    x 2.015270 0.000000 0.000000 
#    y 0.000000 2.133290 0.000000 
#    z 0.000000 0.000000 1.855020 
# 
# From -- ./inp_files/10845.got.cif
#   From: 2010.05.17/outbox.cif.g08.bks.cpg/sg68_6_cif.got.tgz:10845.got - 2010.06.03 18:57:09.
