data_PCOD9509170
_publ_section_title
;
Structure prediction by ZEFSAII (Michael W. Deem and Ramdas Pophale) SiO2 
 PCOD9509170
Probable space group: C C C A
;
_chemical_formula_sum "Si O2"
_cell_formula_units_Z 88
_cell_length_a 31.387875
_cell_length_b 22.614790
_cell_length_c 5.652665
_cell_angle_alpha 90.000000
_cell_angle_beta 90.000000
_cell_angle_gamma 90.000000
_cell_volume 4012.432337
_symmetry_space_group_name_H-M "C C C A"
_symmetry_group_IT_number 68
_space_group.IT_coordinate_system_code '2'
_symmetry_cell_setting 'orthorhombic'
loop_
_space_group_symop_operation_xyz
x,y,z
-x,1/2-y,z
x,1/2-y,1/2-z
-x,y,1/2-z
-x,-y,-z
x,1/2+y,-z
-x,1/2+y,1/2+z
x,-y,1/2+z
1/2+x,1/2+y,z
1/2-x,-y,z
1/2+x,-y,1/2-z
1/2-x,1/2+y,1/2-z
1/2-x,1/2-y,-z
1/2+x,y,-z
1/2-x,y,1/2+z
1/2+x,1/2-y,1/2+z
loop_
_atom_site_type_symbol
_atom_site_label
_atom_site_fract_x
_atom_site_fract_y
_atom_site_fract_z
Si Si1 0.127740 0.750000 0.250000
Si Si2 0.909349 0.313793 0.350082
Si Si3 0.298441 0.523972 0.492083
Si Si4 0.500000 0.634382 0.250000
Si Si5 0.000000 0.065033 0.750000
Si Si6 0.850469 0.633981 0.486514
Si Si7 0.596625 0.029928 0.234380
O O1 0.096237 0.703406 0.379129
O O2 0.155801 0.799359 0.388260
O O3 0.897400 0.250000 0.250000
O O4 0.956155 0.329701 0.266090
O O5 0.875593 0.358679 0.235801
O O6 0.315906 0.500921 0.743895
O O7 0.250000 0.500000 0.493705
O O8 0.308203 0.593985 0.489107
O O9 0.499947 0.599946 0.499771
O O10 0.954986 0.032149 0.741773
O O11 0.881758 0.593055 0.325880
O O12 0.607073 0.007705 0.498064
#
# Coordination Sequence:
#
# PCOD9509170 Si02
#       7
#     8  16  16   8   8  16  16
#     4  10  24  42  69  98 140 188 236 300 356 419
#     4  10  23  41  60  94 126 183 241 294 349 406
#     4  10  23  44  74 110 142 177 220 286 347 421
#     4  12  23  41  64  87 130 185 234 312 344 412
#     4  12  24  41  59  85 132 180 238 291 362 416
#     4  11  23  42  68 100 138 180 240 285 355 426
#     4  12  25  40  63  92 130 180 234 295 353 414
#
# _framework density 21.931832
#
# number of rings (size 3 to 8) (size 9 to 14) (size 15 to 20)
#    0.000    1.091    1.818    4.091    7.636    0.000 
#    0.000    0.000    0.000    4.364    0.000    0.000 
#    0.000    0.000    0.000    0.000    0.000    0.000 
#
# Total GULP energy -245049.772134 kJ/mol
# GULP energy per Si atom -5569.313003 kJ/mol
# Density = 2.188191 g / cm^3
# Si number density = 21.931832 Si / 1000 Ang^3
#
#
#
# Elastic Constant Matrix: (Units=GPa)
#
#
# Indices 1 2 3 4 5 6 
#
# 1 116.5866 50.6883 39.8962 0.0000 0.0000 0.0000
# 2 50.6883 133.0235 79.3169 0.0000 0.0000 0.0000
# 3 39.8962 79.3169 154.7508 0.0000 0.0000 0.0000
# 4 0.0000 0.0000 0.0000 93.3352 0.0000 0.0000
# 5 0.0000 0.0000 0.0000 0.0000 26.9974 0.0000
# 6 0.0000 0.0000 0.0000 0.0000 0.0000 52.3546
#
#
#
# Elastic Compliance Matrix: (Units=1/GPa)
#
#
# Indices 1 2 3 4 5 6 
#
# 1 0.010373 -0.003396 -0.000934 0.000000 0.000000 0.000000
# 2 -0.003396 0.011938 -0.005243 0.000000 0.000000 0.000000
# 3 -0.000934 -0.005243 0.009390 0.000000 0.000000 0.000000
# 4 0.000000 0.000000 0.000000 0.010714 0.000000 0.000000
# 5 0.000000 0.000000 0.000000 0.000000 0.037041 0.000000
# 6 0.000000 0.000000 0.000000 0.000000 0.000000 0.019101
#
#
# Mechanical properties :
#
#
# Convention : Reuss Voigt Hill
#
# Bulk Modulus (GPa) = 79.64669 82.68486 81.16577
# Shear Modulus (GPa) = 41.02152 50.16806 45.59479
#
# Velocity S-wave (km/s) = 4.32952 4.78792 4.56448
# Velocity P-wave (km/s) = 7.83501 8.26730 8.05406
#
# Compressibility (1/GPa) = 0.01255545
#
# Stress axis : x y z
#
# Youngs Moduli (GPa) = 96.40126 83.76755 106.49527
#
# Poissons Ratio (x) = 0.28447 0.09944
# Poissons Ratio (y) = 0.32738 0.55837
# Poissons Ratio (z) = 0.09001 0.43921
#
# Static dielectric constant tensor:
#      x y z
#    x 1.700510 0.000000 0.000000 
#    y 0.000000 1.825580 0.000000 
#    z 0.000000 0.000000 3.346040 
# 
# From -- ./inp_files/2801.got.cif
#   From: 2010.05.17/outbox.cif.g08.bks.cpg/sg68_2_cif.got.tgz:2801.got - 2010.06.03 18:57:09.
