data_PCOD9509727
_publ_section_title
;
Structure prediction by ZEFSAII (Michael W. Deem and Ramdas Pophale) SiO2 
 PCOD9509727
Probable space group: C C C A
;
_chemical_formula_sum "Si O2"
_cell_formula_units_Z 64
_cell_length_a 8.369210
_cell_length_b 16.839601
_cell_length_c 23.058571
_cell_angle_alpha 90.000000
_cell_angle_beta 90.000000
_cell_angle_gamma 90.000000
_cell_volume 3249.740267
_symmetry_space_group_name_H-M "C C C A"
_symmetry_group_IT_number 68
_space_group.IT_coordinate_system_code '2'
_symmetry_cell_setting 'orthorhombic'
loop_
_space_group_symop_operation_xyz
x,y,z
-x,1/2-y,z
x,1/2-y,1/2-z
-x,y,1/2-z
-x,-y,-z
x,1/2+y,-z
-x,1/2+y,1/2+z
x,-y,1/2+z
1/2+x,1/2+y,z
1/2-x,-y,z
1/2+x,-y,1/2-z
1/2-x,1/2+y,1/2-z
1/2-x,1/2-y,-z
1/2+x,y,-z
1/2-x,y,1/2+z
1/2+x,1/2-y,1/2+z
loop_
_atom_site_type_symbol
_atom_site_label
_atom_site_fract_x
_atom_site_fract_y
_atom_site_fract_z
Si Si1 0.750000 0.500000 0.988151
Si Si2 0.500000 0.750000 0.370080
Si Si3 0.017741 0.576906 0.919270
Si Si4 0.568989 0.473642 0.312430
Si Si5 0.346873 0.788644 0.814272
O O1 0.636210 0.548806 0.030665
O O2 0.844493 0.560212 0.946881
O O3 0.459431 0.668452 0.403368
O O4 0.332914 0.774261 0.337793
O O5 0.028067 0.518231 0.863375
O O6 0.500000 0.497423 0.250000
O O7 0.750000 0.500000 0.317561
O O8 0.592731 0.379160 0.313491
O O9 0.500000 0.750000 0.846728
O O10 0.340184 0.750000 0.750000
#
# Coordination Sequence:
#
# PCOD9509727 Si02
#       5
#     8   8  16  16  16
#     4  10  24  48  70  92 132 178 228 282 338 400
#     4  12  25  42  68 102 132 176 231 284 334 400
#     4  11  25  45  70  99 131 179 227 280 338 404
#     4  12  25  43  67 101 142 177 221 273 346 411
#     4  11  24  42  61  98 145 182 221 271 334 408
#
# _framework density 19.693883
#
# number of rings (size 3 to 8) (size 9 to 14) (size 15 to 20)
#    0.000    0.750    6.250    0.375    8.750    1.000 
#    0.000    0.000    0.000    0.000    0.000    0.000 
#    0.000    0.000    0.000    0.000    0.000    0.000 
#
# Total GULP energy -178304.182749 kJ/mol
# GULP energy per Si atom -5572.005711 kJ/mol
# Density = 1.964906 g / cm^3
# Si number density = 19.693883 Si / 1000 Ang^3
#
#
#
# Elastic Constant Matrix: (Units=GPa)
#
#
# Indices 1 2 3 4 5 6 
#
# 1 61.5485 -11.3354 19.5261 0.0000 0.0000 0.0000
# 2 -11.3354 137.8667 45.2444 0.0000 0.0000 0.0000
# 3 19.5261 45.2444 112.3956 0.0000 0.0000 0.0000
# 4 0.0000 0.0000 0.0000 77.6569 0.0000 0.0000
# 5 0.0000 0.0000 0.0000 0.0000 32.8218 0.0000
# 6 0.0000 0.0000 0.0000 0.0000 0.0000 27.5117
#
#
#
# Elastic Compliance Matrix: (Units=1/GPa)
#
#
# Indices 1 2 3 4 5 6 
#
# 1 0.018156 0.002913 -0.004327 0.000000 0.000000 0.000000
# 2 0.002913 0.008825 -0.004058 0.000000 0.000000 0.000000
# 3 -0.004327 -0.004058 0.011283 0.000000 0.000000 0.000000
# 4 0.000000 0.000000 0.000000 0.012877 0.000000 0.000000
# 5 0.000000 0.000000 0.000000 0.000000 0.030468 0.000000
# 6 0.000000 0.000000 0.000000 0.000000 0.000000 0.036348
#
#
# Mechanical properties :
#
#
# Convention : Reuss Voigt Hill
#
# Bulk Modulus (GPa) = 36.60472 46.52011 41.56241
# Shear Modulus (GPa) = 36.22987 44.82312 40.52650
#
# Velocity S-wave (km/s) = 4.29377 4.77591 4.54124
# Velocity P-wave (km/s) = 6.57336 7.35427 6.97476
#
# Compressibility (1/GPa) = 0.02731888
#
# Stress axis : x y z
#
# Youngs Moduli (GPa) = 55.07686 113.31785 88.63271
#
# Poissons Ratio (x) = -0.33007 0.38349
# Poissons Ratio (y) = -0.16043 0.35971
# Poissons Ratio (z) = 0.23831 0.45989
#
# Static dielectric constant tensor:
#      x y z
#    x 1.743960 0.000000 0.000000 
#    y 0.000000 1.436340 0.000000 
#    z 0.000000 0.000000 1.701260 
# 
# From -- ./inp_files/35783.got.cif
#   From: 2010.05.17/outbox.cif.g08.bks.cpg/sg68_18_cif.got.tgz:35783.got - 2010.06.03 18:57:09.
