data_PCOD9509084
_publ_section_title
;
Structure prediction by ZEFSAII (Michael W. Deem and Ramdas Pophale) SiO2 
 PCOD9509084
Probable space group: C C C A
;
_chemical_formula_sum "Si O2"
_cell_formula_units_Z 72
_cell_length_a 8.768037
_cell_length_b 22.607323
_cell_length_c 15.847761
_cell_angle_alpha 90.000000
_cell_angle_beta 90.000000
_cell_angle_gamma 90.000000
_cell_volume 3141.372417
_symmetry_space_group_name_H-M "C C C A"
_symmetry_group_IT_number 68
_space_group.IT_coordinate_system_code '2'
_symmetry_cell_setting 'orthorhombic'
loop_
_space_group_symop_operation_xyz
x,y,z
-x,1/2-y,z
x,1/2-y,1/2-z
-x,y,1/2-z
-x,-y,-z
x,1/2+y,-z
-x,1/2+y,1/2+z
x,-y,1/2+z
1/2+x,1/2+y,z
1/2-x,-y,z
1/2+x,-y,1/2-z
1/2-x,1/2+y,1/2-z
1/2-x,1/2-y,-z
1/2+x,y,-z
1/2-x,y,1/2+z
1/2+x,1/2-y,1/2+z
loop_
_atom_site_type_symbol
_atom_site_label
_atom_site_fract_x
_atom_site_fract_y
_atom_site_fract_z
Si Si1 0.250000 0.000000 0.544004
Si Si2 0.750000 0.500000 0.269266
Si Si3 0.548713 0.315047 0.651625
Si Si4 0.603690 0.294578 0.165458
Si Si5 0.000000 0.904737 0.250000
Si Si6 0.047379 0.435652 0.093310
O O1 0.353203 0.957449 0.485604
O O2 0.123028 0.962464 0.592384
O O3 0.642832 0.447487 0.233883
O O4 0.866887 0.463073 0.327117
O O5 0.500000 0.250000 0.626402
O O6 0.500000 0.323605 0.750000
O O7 0.730611 0.316368 0.641707
O O8 0.466959 0.366023 0.599911
O O9 0.500000 0.250000 0.111699
O O10 0.636896 0.250000 0.250000
O O11 0.503834 0.354834 0.176690
#
# Coordination Sequence:
#
# PCOD9509084 Si02
#       6
#     8   8  16  16   8  16
#     4   9  22  47  66  84 119 162 227 268 302 357
#     4  11  24  31  58  90 127 162 199 254 312 377
#     4  11  22  36  62  94 132 158 197 252 319 393
#     4   9  19  34  51  74 120 171 193 228 285 369
#     4  10  23  34  50  88 135 160 200 240 300 400
#     4  10  23  42  64  89 118 168 210 265 313 362
#
# _framework density 22.919917999999999
#
# number of rings (size 3 to 8) (size 9 to 14) (size 15 to 20)
#    0.667    1.333    0.000    4.000   10.889    0.000 
#    0.000    1.111    0.000    0.000    0.000    0.000 
#    0.000    0.000    0.000    0.000    0.000    0.000 
#
# Total GULP energy -200621.064155 kJ/mol
# GULP energy per Si atom -5572.807338 kJ/mol
# Density = 2.286775 g / cm^3
# Si number density = 22.919918 Si / 1000 Ang^3
#
#
#
# Elastic Constant Matrix: (Units=GPa)
#
#
# Indices 1 2 3 4 5 6 
#
# 1 139.5069 62.4135 18.4061 0.0000 0.0000 0.0000
# 2 62.4135 213.4013 32.2678 0.0000 0.0000 0.0000
# 3 18.4061 32.2678 15.3404 0.0000 0.0000 0.0000
# 4 0.0000 0.0000 0.0000 15.5983 0.0000 0.0000
# 5 0.0000 0.0000 0.0000 0.0000 10.7790 0.0000
# 6 0.0000 0.0000 0.0000 0.0000 0.0000 34.5479
#
#
#
# Elastic Compliance Matrix: (Units=1/GPa)
#
#
# Indices 1 2 3 4 5 6 
#
# 1 0.008806 -0.001434 -0.007549 0.000000 0.000000 0.000000
# 2 -0.001434 0.007105 -0.013225 0.000000 0.000000 0.000000
# 3 -0.007549 -0.013225 0.102063 0.000000 0.000000 0.000000
# 4 0.000000 0.000000 0.000000 0.064109 0.000000 0.000000
# 5 0.000000 0.000000 0.000000 0.000000 0.092773 0.000000
# 6 0.000000 0.000000 0.000000 0.000000 0.000000 0.028945
#
#
# Mechanical properties :
#
#
# Convention : Reuss Voigt Hill
#
# Bulk Modulus (GPa) = 13.59470 66.04707 39.82088
# Shear Modulus (GPa) = 13.41429 29.19580 21.30504
#
# Velocity S-wave (km/s) = 2.42186 3.57293 3.05215
# Velocity P-wave (km/s) = 3.71009 6.77496 5.46191
#
# Compressibility (1/GPa) = 0.07355809
#
# Stress axis : x y z
#
# Youngs Moduli (GPa) = 113.56358 140.74503 9.79783
#
# Poissons Ratio (x) = 0.20181 0.07397
# Poissons Ratio (y) = 0.16284 0.12957
# Poissons Ratio (z) = 0.85733 1.86132
#
# Static dielectric constant tensor:
#      x y z
#    x 1.895320 0.000000 0.000000 
#    y 0.000000 1.822960 0.000000 
#    z 0.000000 0.000000 2.006550 
# 
# From -- ./inp_files/36072.got.cif
#   From: 2010.05.17/outbox.cif.g08.bks.cpg/sg68_19_cif.got.tgz:36072.got - 2010.06.03 18:57:09.
