data_PCOD9509549
_publ_section_title
;
Structure prediction by ZEFSAII (Michael W. Deem and Ramdas Pophale) SiO2 
 PCOD9509549
Probable space group: C C C A
;
_chemical_formula_sum "Si O2"
_cell_formula_units_Z 72
_cell_length_a 22.972541
_cell_length_b 16.614682
_cell_length_c 8.158230
_cell_angle_alpha 90.000000
_cell_angle_beta 90.000000
_cell_angle_gamma 90.000000
_cell_volume 3113.845166
_symmetry_space_group_name_H-M "C C C A"
_symmetry_group_IT_number 68
_space_group.IT_coordinate_system_code '2'
_symmetry_cell_setting 'orthorhombic'
loop_
_space_group_symop_operation_xyz
x,y,z
-x,1/2-y,z
x,1/2-y,1/2-z
-x,y,1/2-z
-x,-y,-z
x,1/2+y,-z
-x,1/2+y,1/2+z
x,-y,1/2+z
1/2+x,1/2+y,z
1/2-x,-y,z
1/2+x,-y,1/2-z
1/2-x,1/2+y,1/2-z
1/2-x,1/2-y,-z
1/2+x,y,-z
1/2-x,y,1/2+z
1/2+x,1/2-y,1/2+z
loop_
_atom_site_type_symbol
_atom_site_label
_atom_site_fract_x
_atom_site_fract_y
_atom_site_fract_z
Si Si1 0.169223 0.602519 0.907962
Si Si2 0.901068 0.750000 0.750000
Si Si3 0.213748 0.187142 0.611210
Si Si4 0.371027 0.068625 0.217606
Si Si5 0.000000 0.250000 0.494716
Si Si6 0.000000 0.614735 0.250000
O O1 0.136876 0.679339 0.828498
O O2 0.236789 0.619332 0.867032
O O3 0.150298 0.519973 0.824922
O O4 0.153407 0.593986 0.101655
O O5 0.945972 0.779151 0.612166
O O6 0.196044 0.250000 0.750000
O O7 0.250000 0.250000 0.500000
O O8 0.156121 0.133430 0.588434
O O9 0.441030 0.068074 0.210873
O O10 0.018228 0.324976 0.604721
#
# Coordination Sequence:
#
# PCOD9509549 Si02
#       6
#    16   8  16  16   8   8
#     4  12  28  48  76 110 155 201 257 326 384 472
#     4  11  24  48  72 108 142 211 258 312 384 461
#     4  12  27  47  80 109 149 197 258 316 385 458
#     4  12  30  49  75 115 159 203 260 315 403 456
#     4  10  24  42  74 106 150 196 262 312 376 462
#     4  11  26  46  78 111 158 198 258 323 384 478
#
# _framework density 23.122537999999999
#
# number of rings (size 3 to 8) (size 9 to 14) (size 15 to 20)
#    0.000    0.444    5.556    0.667   12.444    4.444 
#    0.000    0.000    0.000    0.000    0.000    0.000 
#    0.000    0.000    0.000    0.000    0.000    0.000 
#
# Total GULP energy -201100.064765 kJ/mol
# GULP energy per Si atom -5586.112910 kJ/mol
# Density = 2.306991 g / cm^3
# Si number density = 23.122538 Si / 1000 Ang^3
#
#
#
# Elastic Constant Matrix: (Units=GPa)
#
#
# Indices 1 2 3 4 5 6 
#
# 1 169.0668 55.2516 8.3508 0.0000 0.0000 0.0000
# 2 55.2516 146.3342 29.8409 0.0000 0.0000 0.0000
# 3 8.3508 29.8409 54.5067 0.0000 0.0000 0.0000
# 4 0.0000 0.0000 0.0000 19.2154 0.0000 0.0000
# 5 0.0000 0.0000 0.0000 0.0000 24.9089 0.0000
# 6 0.0000 0.0000 0.0000 0.0000 0.0000 45.0899
#
#
#
# Elastic Compliance Matrix: (Units=1/GPa)
#
#
# Indices 1 2 3 4 5 6 
#
# 1 0.006755 -0.002634 0.000407 0.000000 0.000000 0.000000
# 2 -0.002634 0.008719 -0.004370 0.000000 0.000000 0.000000
# 3 0.000407 -0.004370 0.020677 0.000000 0.000000 0.000000
# 4 0.000000 0.000000 0.000000 0.052041 0.000000 0.000000
# 5 0.000000 0.000000 0.000000 0.000000 0.040146 0.000000
# 6 0.000000 0.000000 0.000000 0.000000 0.000000 0.022178
#
#
# Mechanical properties :
#
#
# Convention : Reuss Voigt Hill
#
# Bulk Modulus (GPa) = 43.55870 61.86604 52.71237
# Shear Modulus (GPa) = 29.17785 36.27380 32.72583
#
# Velocity S-wave (km/s) = 3.55615 3.96506 3.76616
# Velocity P-wave (km/s) = 5.97835 6.91202 6.46207
#
# Compressibility (1/GPa) = 0.02295753
#
# Stress axis : x y z
#
# Youngs Moduli (GPa) = 148.02976 114.68948 48.36405
#
# Poissons Ratio (x) = 0.30205 -0.01968
# Poissons Ratio (y) = 0.38985 0.21135
# Poissons Ratio (z) = -0.06023 0.50120
#
# Static dielectric constant tensor:
#      x y z
#    x 1.883100 0.000000 0.000000 
#    y 0.000000 1.805460 0.000000 
#    z 0.000000 0.000000 1.923010 
# 
# From -- ./inp_files/6118.got.cif
#   From: 2010.05.17/outbox.cif.g08.bks.cpg/sg68_4_cif.got.tgz:6118.got - 2010.06.03 18:57:09.
