data_PCOD9509382
_publ_section_title
;
Structure prediction by ZEFSAII (Michael W. Deem and Ramdas Pophale) SiO2 
 PCOD9509382
Probable space group: C C C A
;
_chemical_formula_sum "Si O2"
_cell_formula_units_Z 116
_cell_length_a 12.588209
_cell_length_b 25.065493
_cell_length_c 17.462809
_cell_angle_alpha 90.000000
_cell_angle_beta 90.000000
_cell_angle_gamma 90.000000
_cell_volume 5510.034266
_symmetry_space_group_name_H-M "C C C A"
_symmetry_group_IT_number 68
_space_group.IT_coordinate_system_code '2'
_symmetry_cell_setting 'orthorhombic'
loop_
_space_group_symop_operation_xyz
x,y,z
-x,1/2-y,z
x,1/2-y,1/2-z
-x,y,1/2-z
-x,-y,-z
x,1/2+y,-z
-x,1/2+y,1/2+z
x,-y,1/2+z
1/2+x,1/2+y,z
1/2-x,-y,z
1/2+x,-y,1/2-z
1/2-x,1/2+y,1/2-z
1/2-x,1/2-y,-z
1/2+x,y,-z
1/2-x,y,1/2+z
1/2+x,1/2-y,1/2+z
loop_
_atom_site_type_symbol
_atom_site_label
_atom_site_fract_x
_atom_site_fract_y
_atom_site_fract_z
Si Si1 0.026593 0.530293 0.421947
Si Si2 0.306174 0.125292 0.054118
Si Si3 0.697230 0.083949 0.724609
Si Si4 0.497352 0.686233 0.498483
Si Si5 0.500000 0.750000 0.250000
Si Si6 0.117631 0.162309 0.154779
Si Si7 0.658742 0.887961 0.585264
Si Si8 0.391365 0.517716 0.771672
O O1 0.114246 0.577010 0.428283
O O2 0.080471 0.494499 0.355508
O O3 0.000000 0.500000 0.500000
O O4 0.919078 0.562212 0.400787
O O5 0.383864 0.168573 0.016960
O O6 0.235475 0.154523 0.118665
O O7 0.224769 0.103103 0.991647
O O8 0.622676 0.120529 0.775749
O O9 0.755210 0.113144 0.654120
O O10 0.794552 0.058219 0.772844
O O11 0.632247 0.029309 0.711130
O O12 0.500000 0.750000 0.492088
O O13 0.459273 0.658433 0.419138
O O14 0.416737 0.662927 0.564168
O O15 0.577565 0.715690 0.195852
O O16 0.500000 0.546903 0.750000
#
# Coordination Sequence:
#
# PCOD9509382 Si02
#       8
#    16  16  16  16   4  16  16  16
#     4  11  24  40  66  97 137 178 232 277 330 410
#     4  10  24  43  68  93 134 182 222 282 342 404
#     4  11  25  40  66  96 135 181 225 275 354 410
#     4  10  23  45  70  96 131 173 230 287 350 404
#     4  12  28  44  72 100 138 176 238 300 368 410
#     4  11  25  46  66 100 137 173 233 290 352 422
#     4  10  24  41  64  99 132 180 226 279 338 415
#     4  11  24  41  63  93 136 180 222 278 339 411
#
# _framework density 21.052499999999998
#
# number of rings (size 3 to 8) (size 9 to 14) (size 15 to 20)
#    0.000    1.379    3.448    0.000   10.621    3.862 
#    0.000    0.000    0.000    0.828    0.000    0.000 
#    0.000    0.000    0.000    0.000    0.000    0.000 
#
# Total GULP energy -323088.127409 kJ/mol
# GULP energy per Si atom -5570.484955 kJ/mol
# Density = 2.100458 g / cm^3
# Si number density = 21.052500 Si / 1000 Ang^3
#
#
#
# Elastic Constant Matrix: (Units=GPa)
#
#
# Indices 1 2 3 4 5 6 
#
# 1 117.2170 39.3375 30.9698 0.0000 0.0000 0.0000
# 2 39.3375 78.6283 33.6648 0.0000 0.0000 0.0000
# 3 30.9698 33.6648 96.4810 0.0000 0.0000 0.0000
# 4 0.0000 0.0000 0.0000 29.6538 0.0000 0.0000
# 5 0.0000 0.0000 0.0000 0.0000 26.7896 0.0000
# 6 0.0000 0.0000 0.0000 0.0000 0.0000 29.3060
#
#
#
# Elastic Compliance Matrix: (Units=1/GPa)
#
#
# Indices 1 2 3 4 5 6 
#
# 1 0.010515 -0.004486 -0.001810 0.000000 0.000000 0.000000
# 2 -0.004486 0.016865 -0.004445 0.000000 0.000000 0.000000
# 3 -0.001810 -0.004445 0.012497 0.000000 0.000000 0.000000
# 4 0.000000 0.000000 0.000000 0.033722 0.000000 0.000000
# 5 0.000000 0.000000 0.000000 0.000000 0.037328 0.000000
# 6 0.000000 0.000000 0.000000 0.000000 0.000000 0.034123
#
#
# Mechanical properties :
#
#
# Convention : Reuss Voigt Hill
#
# Bulk Modulus (GPa) = 54.36046 55.58562 54.97304
# Shear Modulus (GPa) = 28.95820 29.70684 29.33252
#
# Velocity S-wave (km/s) = 3.71283 3.76051 3.73675
# Velocity P-wave (km/s) = 6.65264 6.73171 6.69229
#
# Compressibility (1/GPa) = 0.01839573
#
# Stress axis : x y z
#
# Youngs Moduli (GPa) = 95.10461 59.29345 80.02114
#
# Poissons Ratio (x) = 0.26596 0.14484
# Poissons Ratio (y) = 0.42659 0.35569
# Poissons Ratio (z) = 0.17214 0.26355
#
# Static dielectric constant tensor:
#      x y z
#    x 1.584180 0.000000 0.000000 
#    y 0.000000 1.764330 0.000000 
#    z 0.000000 0.000000 1.852990 
# 
# From -- ./inp_files/30031.got.cif
#   From: 2010.05.17/outbox.cif.g08.bks.cpg/sg68_16_cif.got.tgz:30031.got - 2010.06.03 18:57:09.
