data_PCOD9509452
_publ_section_title
;
Structure prediction by ZEFSAII (Michael W. Deem and Ramdas Pophale) SiO2 
 PCOD9509452
Probable space group: C C C A
;
_chemical_formula_sum "Si O2"
_cell_formula_units_Z 88
_cell_length_a 24.413163
_cell_length_b 18.894076
_cell_length_c 8.109131
_cell_angle_alpha 90.000000
_cell_angle_beta 90.000000
_cell_angle_gamma 90.000000
_cell_volume 3740.451476
_symmetry_space_group_name_H-M "C C C A"
_symmetry_group_IT_number 68
_space_group.IT_coordinate_system_code '2'
_symmetry_cell_setting 'orthorhombic'
loop_
_space_group_symop_operation_xyz
x,y,z
-x,1/2-y,z
x,1/2-y,1/2-z
-x,y,1/2-z
-x,-y,-z
x,1/2+y,-z
-x,1/2+y,1/2+z
x,-y,1/2+z
1/2+x,1/2+y,z
1/2-x,-y,z
1/2+x,-y,1/2-z
1/2-x,1/2+y,1/2-z
1/2-x,1/2-y,-z
1/2+x,y,-z
1/2-x,y,1/2+z
1/2+x,1/2-y,1/2+z
loop_
_atom_site_type_symbol
_atom_site_label
_atom_site_fract_x
_atom_site_fract_y
_atom_site_fract_z
Si Si1 0.053034 0.210680 0.072861
Si Si2 0.800002 0.550760 0.275716
Si Si3 0.320314 0.817394 0.005408
Si Si4 0.445346 0.439688 0.802850
Si Si5 0.625834 0.550244 0.488866
Si Si6 0.247387 0.750000 0.750000
O O1 0.059382 0.250000 0.250000
O O2 0.036695 0.370955 0.402486
O O3 0.000000 0.250000 0.991873
O O4 0.115012 0.200162 0.002489
O O5 0.750000 0.500000 0.218970
O O6 0.798605 0.611809 0.414668
O O7 0.836320 0.492695 0.365997
O O8 0.833850 0.584298 0.122894
O O9 0.289725 0.758864 0.898333
O O10 0.294415 0.811705 0.189293
O O11 0.500000 0.479910 0.750000
O O12 0.409653 0.492392 0.911555
O O13 0.413523 0.410982 0.640218
#
# Coordination Sequence:
#
# PCOD9509452 Si02
#       6
#    16  16  16  16  16   8
#     4  11  22  42  71  98 134 188 239 291 352 431
#     4  11  24  41  66 102 141 181 231 289 361 433
#     4  11  24  46  67 100 140 182 245 290 367 433
#     4  11  21  42  68  96 133 181 231 289 359 420
#     4  10  24  39  64 102 135 179 225 293 352 430
#     4  10  26  42  70  94 134 194 224 304 356 430
#
# _framework density 23.526571000000001
#
# number of rings (size 3 to 8) (size 9 to 14) (size 15 to 20)
#    0.000    1.273    4.545    1.091    5.091    1.455 
#    0.000    0.455    0.000    0.000    0.000    0.000 
#    0.000    0.000    0.000    0.000    0.000    0.000 
#
# Total GULP energy -244996.770478 kJ/mol
# GULP energy per Si atom -5568.108420 kJ/mol
# Density = 2.347302 g / cm^3
# Si number density = 23.526571 Si / 1000 Ang^3
#
#
#
# Elastic Constant Matrix: (Units=GPa)
#
#
# Indices 1 2 3 4 5 6 
#
# 1 163.1849 23.2524 35.2991 0.0000 0.0000 0.0000
# 2 23.2524 60.6084 -6.6577 0.0000 0.0000 0.0000
# 3 35.2991 -6.6577 48.7241 0.0000 0.0000 0.0000
# 4 0.0000 0.0000 0.0000 10.1505 0.0000 0.0000
# 5 0.0000 0.0000 0.0000 0.0000 42.6826 0.0000
# 6 0.0000 0.0000 0.0000 0.0000 0.0000 18.1461
#
#
#
# Elastic Compliance Matrix: (Units=1/GPa)
#
#
# Indices 1 2 3 4 5 6 
#
# 1 0.008038 -0.003780 -0.006340 0.000000 0.000000 0.000000
# 2 -0.003780 0.018529 0.005270 0.000000 0.000000 0.000000
# 3 -0.006340 0.005270 0.025837 0.000000 0.000000 0.000000
# 4 0.000000 0.000000 0.000000 0.098517 0.000000 0.000000
# 5 0.000000 0.000000 0.000000 0.000000 0.023429 0.000000
# 6 0.000000 0.000000 0.000000 0.000000 0.000000 0.055108
#
#
# Mechanical properties :
#
#
# Convention : Reuss Voigt Hill
#
# Bulk Modulus (GPa) = 23.41689 41.81168 32.61429
# Shear Modulus (GPa) = 19.73230 28.90410 24.31820
#
# Velocity S-wave (km/s) = 2.89922 3.50890 3.21853
# Velocity P-wave (km/s) = 4.60242 5.85040 5.26353
#
# Compressibility (1/GPa) = 0.04270421
#
# Stress axis : x y z
#
# Youngs Moduli (GPa) = 124.40809 53.97067 38.70435
#
# Poissons Ratio (x) = 0.20402 0.24538
# Poissons Ratio (y) = 0.47029 -0.20399
# Poissons Ratio (z) = 0.78873 -0.28445
#
# Static dielectric constant tensor:
#      x y z
#    x 2.061730 0.000000 0.000000 
#    y 0.000000 1.910280 0.000000 
#    z 0.000000 0.000000 1.997040 
# 
# From -- ./inp_files/8003.got.cif
#   From: 2010.05.17/outbox.cif.g08.bks.cpg/sg68_5_cif.got.tgz:8003.got - 2010.06.03 18:57:09.
