data_PCOD9509255
_publ_section_title
;
Structure prediction by ZEFSAII (Michael W. Deem and Ramdas Pophale) SiO2 
 PCOD9509255
Probable space group: C C C A
;
_chemical_formula_sum "Si O2"
_cell_formula_units_Z 72
_cell_length_a 8.239847
_cell_length_b 25.060137
_cell_length_c 16.549077
_cell_angle_alpha 90.000000
_cell_angle_beta 90.000000
_cell_angle_gamma 90.000000
_cell_volume 3417.246955
_symmetry_space_group_name_H-M "C C C A"
_symmetry_group_IT_number 68
_space_group.IT_coordinate_system_code '2'
_symmetry_cell_setting 'orthorhombic'
loop_
_space_group_symop_operation_xyz
x,y,z
-x,1/2-y,z
x,1/2-y,1/2-z
-x,y,1/2-z
-x,-y,-z
x,1/2+y,-z
-x,1/2+y,1/2+z
x,-y,1/2+z
1/2+x,1/2+y,z
1/2-x,-y,z
1/2+x,-y,1/2-z
1/2-x,1/2+y,1/2-z
1/2-x,1/2-y,-z
1/2+x,y,-z
1/2-x,y,1/2+z
1/2+x,1/2-y,1/2+z
loop_
_atom_site_type_symbol
_atom_site_label
_atom_site_fract_x
_atom_site_fract_y
_atom_site_fract_z
Si Si1 0.084635 0.381980 0.423194
Si Si2 0.051654 0.077709 0.587845
Si Si3 0.660772 0.308799 0.710343
Si Si4 0.500000 0.865098 0.750000
Si Si5 0.929905 0.976607 0.659273
O O1 0.257215 0.411242 0.413037
O O2 0.121404 0.323633 0.383762
O O3 0.028616 0.389203 0.515061
O O4 0.952802 0.416890 0.373851
O O5 0.977450 0.099422 0.671127
O O6 0.021288 0.014813 0.594891
O O7 0.666275 0.250000 0.750000
O O8 0.500000 0.333971 0.750000
O O9 0.834942 0.332952 0.732862
O O10 0.000000 0.979433 0.750000
O O11 0.750000 0.000000 0.661215
#
# Coordination Sequence:
#
# PCOD9509255 Si02
#       5
#    16  16  16   8  16
#     4  11  24  40  66  95 135 178 226 289 338 411
#     4  11  23  41  62  99 135 178 223 277 346 412
#     4  10  23  43  71  96 128 177 230 284 347 405
#     4  10  23  42  70  94 138 176 225 280 352 418
#     4  12  24  38  62  97 138 183 228 274 340 423
#
# _framework density 21.069592
#
# number of rings (size 3 to 8) (size 9 to 14) (size 15 to 20)
#    0.000    1.111    1.111    5.000    9.333    0.000 
#    0.000    1.111    4.889    0.000    0.000    0.000 
#    0.000    0.000    0.000    0.000    0.000    0.000 
#
# Total GULP energy -200711.156195 kJ/mol
# GULP energy per Si atom -5575.309894 kJ/mol
# Density = 2.102164 g / cm^3
# Si number density = 21.069592 Si / 1000 Ang^3
#
#
#
# Elastic Constant Matrix: (Units=GPa)
#
#
# Indices 1 2 3 4 5 6 
#
# 1 95.6809 9.8952 18.7159 0.0000 0.0000 0.0000
# 2 9.8952 104.9279 52.7074 0.0000 0.0000 0.0000
# 3 18.7159 52.7074 159.1986 0.0000 0.0000 0.0000
# 4 0.0000 0.0000 0.0000 26.9681 0.0000 0.0000
# 5 0.0000 0.0000 0.0000 0.0000 23.1952 0.0000
# 6 0.0000 0.0000 0.0000 0.0000 0.0000 58.7234
#
#
#
# Elastic Compliance Matrix: (Units=1/GPa)
#
#
# Indices 1 2 3 4 5 6 
#
# 1 0.010715 -0.000453 -0.001110 0.000000 0.000000 0.000000
# 2 -0.000453 0.011451 -0.003738 0.000000 0.000000 0.000000
# 3 -0.001110 -0.003738 0.007649 0.000000 0.000000 0.000000
# 4 0.000000 0.000000 0.000000 0.037081 0.000000 0.000000
# 5 0.000000 0.000000 0.000000 0.000000 0.043112 0.000000
# 6 0.000000 0.000000 0.000000 0.000000 0.000000 0.017029
#
#
# Mechanical properties :
#
#
# Convention : Reuss Voigt Hill
#
# Bulk Modulus (GPa) = 52.04482 58.04938 55.04710
# Shear Modulus (GPa) = 34.71170 40.34327 37.52748
#
# Velocity S-wave (km/s) = 4.06332 4.38055 4.22491
# Velocity P-wave (km/s) = 6.83879 7.29360 7.06986
#
# Compressibility (1/GPa) = 0.01921421
#
# Stress axis : x y z
#
# Youngs Moduli (GPa) = 93.32420 87.33126 130.72861
#
# Poissons Ratio (x) = 0.03957 0.14507
# Poissons Ratio (y) = 0.04228 0.48864
# Poissons Ratio (z) = 0.10356 0.32643
#
# Static dielectric constant tensor:
#      x y z
#    x 1.762520 0.000000 0.000000 
#    y 0.000000 1.864010 0.000000 
#    z 0.000000 0.000000 1.766810 
# 
# From -- ./inp_files/19492.got.cif
#   From: 2010.05.17/outbox.cif.g08.bks.cpg/sg68_10_cif.got.tgz:19492.got - 2010.06.03 18:57:09.
