data_PCOD9509627
_publ_section_title
;
Structure prediction by ZEFSAII (Michael W. Deem and Ramdas Pophale) SiO2 
 PCOD9509627
Probable space group: C C C A
;
_chemical_formula_sum "Si O2"
_cell_formula_units_Z 56
_cell_length_a 5.662497
_cell_length_b 14.221050
_cell_length_c 28.063532
_cell_angle_alpha 90.000000
_cell_angle_beta 90.000000
_cell_angle_gamma 90.000000
_cell_volume 2259.862302
_symmetry_space_group_name_H-M "C C C A"
_symmetry_group_IT_number 68
_space_group.IT_coordinate_system_code '2'
_symmetry_cell_setting 'orthorhombic'
loop_
_space_group_symop_operation_xyz
x,y,z
-x,1/2-y,z
x,1/2-y,1/2-z
-x,y,1/2-z
-x,-y,-z
x,1/2+y,-z
-x,1/2+y,1/2+z
x,-y,1/2+z
1/2+x,1/2+y,z
1/2-x,-y,z
1/2+x,-y,1/2-z
1/2-x,1/2+y,1/2-z
1/2-x,1/2-y,-z
1/2+x,y,-z
1/2-x,y,1/2+z
1/2+x,1/2-y,1/2+z
loop_
_atom_site_type_symbol
_atom_site_label
_atom_site_fract_x
_atom_site_fract_y
_atom_site_fract_z
Si Si1 0.250000 0.000000 0.369463
Si Si2 0.392622 0.646691 0.383147
Si Si3 0.794476 0.112068 0.978146
Si Si4 0.452223 0.639032 0.805099
O O1 0.378005 0.075078 0.336071
O O2 0.070892 0.064266 0.398516
O O3 0.500000 0.750000 0.383288
O O4 0.189452 0.640716 0.422507
O O5 0.302376 0.623512 0.329721
O O6 0.750000 0.000000 0.982657
O O7 0.538926 0.146325 0.998068
O O8 0.500000 0.750000 0.811603
O O9 0.500000 0.617460 0.750000
#
# Coordination Sequence:
#
# PCOD9509627 Si02
#       4
#     8  16  16  16
#     4  12  26  46  78 102 150 202 240 324 380 458
#     4  12  27  48  74 110 152 199 256 317 385 464
#     4  10  24  44  77 111 153 201 259 320 388 466
#     4  11  26  48  74 108 149 195 255 314 381 462
#
# _framework density 24.780270000000002
#
# number of rings (size 3 to 8) (size 9 to 14) (size 15 to 20)
#    0.000    0.857    2.857    2.571   14.000    1.143 
#    0.000    0.000    0.000    0.000    0.000    0.000 
#    0.000    0.000    0.000    0.000    0.000    0.000 
#
# Total GULP energy -156720.749565 kJ/mol
# GULP energy per Si atom -5597.169627 kJ/mol
# Density = 2.472387 g / cm^3
# Si number density = 24.780270 Si / 1000 Ang^3
#
#
#
# Elastic Constant Matrix: (Units=GPa)
#
#
# Indices 1 2 3 4 5 6 
#
# 1 119.8600 32.3277 48.5381 0.0000 0.0000 0.0000
# 2 32.3277 79.6785 37.4103 0.0000 0.0000 0.0000
# 3 48.5381 37.4103 120.9723 0.0000 0.0000 0.0000
# 4 0.0000 0.0000 0.0000 8.0069 0.0000 0.0000
# 5 0.0000 0.0000 0.0000 0.0000 20.1020 0.0000
# 6 0.0000 0.0000 0.0000 0.0000 0.0000 27.5630
#
#
#
# Elastic Compliance Matrix: (Units=1/GPa)
#
#
# Indices 1 2 3 4 5 6 
#
# 1 0.010419 -0.002649 -0.003361 0.000000 0.000000 0.000000
# 2 -0.002649 0.015356 -0.003686 0.000000 0.000000 0.000000
# 3 -0.003361 -0.003686 0.010755 0.000000 0.000000 0.000000
# 4 0.000000 0.000000 0.000000 0.124892 0.000000 0.000000
# 5 0.000000 0.000000 0.000000 0.000000 0.049746 0.000000
# 6 0.000000 0.000000 0.000000 0.000000 0.000000 0.036280
#
#
# Mechanical properties :
#
#
# Convention : Reuss Voigt Hill
#
# Bulk Modulus (GPa) = 58.35246 61.89590 60.12418
# Shear Modulus (GPa) = 18.34510 24.61670 21.48090
#
# Velocity S-wave (km/s) = 2.72382 3.15524 2.94743
# Velocity P-wave (km/s) = 5.78717 6.18920 5.99156
#
# Compressibility (1/GPa) = 0.01713724
#
# Stress axis : x y z
#
# Youngs Moduli (GPa) = 95.98182 65.12201 92.98192
#
# Poissons Ratio (x) = 0.17251 0.31252
# Poissons Ratio (y) = 0.25426 0.34272
# Poissons Ratio (z) = 0.32260 0.24003
#
# Static dielectric constant tensor:
#      x y z
#    x 2.069240 0.000000 0.000000 
#    y 0.000000 1.908950 0.000000 
#    z 0.000000 0.000000 1.897110 
# 
# From -- ./inp_files/52743.got.cif
#   From: 2010.05.17/outbox.cif.g08.bks.cpg/sg68_27_cif.got.tgz:52743.got - 2010.06.03 18:57:09.
