data_PCOD9509904
_publ_section_title
;
Structure prediction by ZEFSAII (Michael W. Deem and Ramdas Pophale) SiO2 
 PCOD9509904
Probable space group: C C C A
;
_chemical_formula_sum "Si O2"
_cell_formula_units_Z 60
_cell_length_a 18.123948
_cell_length_b 9.121178
_cell_length_c 16.089039
_cell_angle_alpha 90.000000
_cell_angle_beta 90.000000
_cell_angle_gamma 90.000000
_cell_volume 2659.707286
_symmetry_space_group_name_H-M "C C C A"
_symmetry_group_IT_number 68
_space_group.IT_coordinate_system_code '2'
_symmetry_cell_setting 'orthorhombic'
loop_
_space_group_symop_operation_xyz
x,y,z
-x,1/2-y,z
x,1/2-y,1/2-z
-x,y,1/2-z
-x,-y,-z
x,1/2+y,-z
-x,1/2+y,1/2+z
x,-y,1/2+z
1/2+x,1/2+y,z
1/2-x,-y,z
1/2+x,-y,1/2-z
1/2-x,1/2+y,1/2-z
1/2-x,1/2-y,-z
1/2+x,y,-z
1/2-x,y,1/2+z
1/2+x,1/2-y,1/2+z
loop_
_atom_site_type_symbol
_atom_site_label
_atom_site_fract_x
_atom_site_fract_y
_atom_site_fract_z
Si Si1 0.000000 0.750000 0.750000
Si Si2 0.762707 0.328555 0.087429
Si Si3 0.500000 0.750000 0.527229
Si Si4 0.897758 0.133598 0.115848
Si Si5 0.124770 0.319409 0.662367
O O1 0.047663 0.851370 0.807973
O O2 0.750000 0.500000 0.077281
O O3 0.843457 0.273709 0.113928
O O4 0.698337 0.273233 0.146841
O O5 0.750000 0.250000 0.000000
O O6 0.451300 0.855544 0.465547
O O7 0.562655 0.804499 0.590765
O O8 0.853106 0.988433 0.141876
O O9 0.096606 0.250000 0.750000
#
# Coordination Sequence:
#
# PCOD9509904 Si02
#       5
#     4  16   8  16  16
#     4  10  28  44  80 104 158 186 248 312 376 450
#     4  12  27  48  79 108 147 201 257 309 376 458
#     4  11  25  47  79 110 154 204 257 301 393 459
#     4  11  26  50  76 108 154 202 253 308 384 453
#     4  12  28  45  78 115 155 193 254 324 381 452
#
# _framework density 22.558873999999999
#
# number of rings (size 3 to 8) (size 9 to 14) (size 15 to 20)
#    0.000    0.533    2.667    3.600    9.333    2.133 
#    0.000    0.000    0.000    0.000    0.000    0.000 
#    0.000    0.000    0.000    0.000    0.000    0.000 
#
# Total GULP energy -167308.278475 kJ/mol
# GULP energy per Si atom -5576.942616 kJ/mol
# Density = 2.250753 g / cm^3
# Si number density = 22.558874 Si / 1000 Ang^3
#
#
#
# Elastic Constant Matrix: (Units=GPa)
#
#
# Indices 1 2 3 4 5 6 
#
# 1 114.8988 36.7539 38.1810 0.0000 0.0000 0.0000
# 2 36.7539 160.0499 52.0936 0.0000 0.0000 0.0000
# 3 38.1810 52.0936 125.1195 0.0000 0.0000 0.0000
# 4 0.0000 0.0000 0.0000 -19.5797 0.0000 0.0000
# 5 0.0000 0.0000 0.0000 0.0000 -0.8522 0.0000
# 6 0.0000 0.0000 0.0000 0.0000 0.0000 -5.5858
#
#
#
# Elastic Compliance Matrix: (Units=1/GPa)
#
#
# Indices 1 2 3 4 5 6 
#
# 1 0.009990 -0.001506 -0.002421 0.000000 0.000000 0.000000
# 2 -0.001506 0.007454 -0.002644 0.000000 0.000000 0.000000
# 3 -0.002421 -0.002644 0.009832 0.000000 0.000000 0.000000
# 4 0.000000 0.000000 0.000000 -0.051073 0.000000 0.000000
# 5 0.000000 0.000000 0.000000 0.000000 -1.173410 0.000000
# 6 0.000000 0.000000 0.000000 0.000000 0.000000 -0.179024
#
#
# Mechanical properties :
#
#
# Convention : Reuss Voigt Hill
#
# Bulk Modulus (GPa) = 70.75448 72.68056 71.71752
# Shear Modulus (GPa) = -3.68086 12.99910 4.65912
#
# Velocity S-wave (km/s) = -1.27875 2.40308 1.43868
# Velocity P-wave (km/s) = 5.40853 6.32360 5.88388
#
# Compressibility (1/GPa) = 0.01413338
#
# Stress axis : x y z
#
# Youngs Moduli (GPa) = 100.10352 134.14727 101.70699
#
# Poissons Ratio (x) = 0.20201 0.24628
# Poissons Ratio (y) = 0.15075 0.26893
# Poissons Ratio (z) = 0.24239 0.35471
#
# Static dielectric constant tensor:
#      x y z
#    x 1.820750 0.000000 0.000000 
#    y 0.000000 1.721970 0.000000 
#    z 0.000000 0.000000 1.845440 
# 
# From -- ./inp_files/31504.got.cif
#   From: 2010.05.17/outbox.cif.g08.bks.cpg/sg68_16_cif.got.tgz:31504.got - 2010.06.03 18:57:09.
