data_PCOD9509790
_publ_section_title
;
Structure prediction by ZEFSAII (Michael W. Deem and Ramdas Pophale) SiO2 
 PCOD9509790
Probable space group: C C C A
;
_chemical_formula_sum "Si O2"
_cell_formula_units_Z 64
_cell_length_a 9.743060
_cell_length_b 11.612999
_cell_length_c 29.854686
_cell_angle_alpha 90.000000
_cell_angle_beta 90.000000
_cell_angle_gamma 90.000000
_cell_volume 3377.942662
_symmetry_space_group_name_H-M "C C C A"
_symmetry_group_IT_number 68
_space_group.IT_coordinate_system_code '2'
_symmetry_cell_setting 'orthorhombic'
loop_
_space_group_symop_operation_xyz
x,y,z
-x,1/2-y,z
x,1/2-y,1/2-z
-x,y,1/2-z
-x,-y,-z
x,1/2+y,-z
-x,1/2+y,1/2+z
x,-y,1/2+z
1/2+x,1/2+y,z
1/2-x,-y,z
1/2+x,-y,1/2-z
1/2-x,1/2+y,1/2-z
1/2-x,1/2-y,-z
1/2+x,y,-z
1/2-x,y,1/2+z
1/2+x,1/2-y,1/2+z
loop_
_atom_site_type_symbol
_atom_site_label
_atom_site_fract_x
_atom_site_fract_y
_atom_site_fract_z
Si Si1 0.250000 0.500000 0.152228
Si Si2 0.162278 0.385200 0.238653
Si Si3 0.014253 0.119810 0.903982
Si Si4 0.250000 0.000000 0.572373
Si Si5 0.617338 0.670590 0.004473
O O1 0.189635 0.403150 0.185690
O O2 0.127882 0.549647 0.122451
O O3 0.199226 0.250000 0.250000
O O4 0.250000 0.500000 0.256939
O O5 0.000000 0.399707 0.250000
O O6 0.000000 0.250000 0.887712
O O7 0.861763 0.069582 0.900231
O O8 0.063440 0.127404 0.956248
O O9 0.342632 0.073929 0.538877
O O10 0.500000 0.750000 0.024527
O O11 0.750000 0.750000 0.000000
#
# Coordination Sequence:
#
# PCOD9509790 Si02
#       5
#     8  16  16   8  16
#     4  10  25  44  67  98 132 164 200 284 321 394
#     4   9  21  45  70 100 127 165 212 254 328 408
#     4  11  24  42  58  96 133 167 218 267 333 365
#     4  12  23  40  61  88 122 188 218 264 317 374
#     4  11  22  39  62  87 126 177 232 267 301 376
#
# _framework density 18.946444
#
# number of rings (size 3 to 8) (size 9 to 14) (size 15 to 20)
#    0.750    0.750    5.000    1.500    3.500    2.500 
#   11.250    0.000    0.000    0.000    0.000    0.000 
#    0.000    0.000    0.000    0.000    0.000    0.000 
#
# Total GULP energy -178164.241336 kJ/mol
# GULP energy per Si atom -5567.632542 kJ/mol
# Density = 1.890332 g / cm^3
# Si number density = 18.946444 Si / 1000 Ang^3
#
#
#
# Elastic Constant Matrix: (Units=GPa)
#
#
# Indices 1 2 3 4 5 6 
#
# 1 144.7697 77.6231 34.3521 0.0000 0.0000 0.0000
# 2 77.6231 155.9227 43.3005 0.0000 0.0000 0.0000
# 3 34.3521 43.3005 49.5746 0.0000 0.0000 0.0000
# 4 0.0000 0.0000 0.0000 -213.9545 0.0000 0.0000
# 5 0.0000 0.0000 0.0000 0.0000 49.7171 0.0000
# 6 0.0000 0.0000 0.0000 0.0000 0.0000 51.4646
#
#
#
# Elastic Compliance Matrix: (Units=1/GPa)
#
#
# Indices 1 2 3 4 5 6 
#
# 1 0.009826 -0.003962 -0.003349 0.000000 0.000000 0.000000
# 2 -0.003962 0.010065 -0.006046 0.000000 0.000000 0.000000
# 3 -0.003349 -0.006046 0.027772 0.000000 0.000000 0.000000
# 4 0.000000 0.000000 0.000000 -0.004674 0.000000 0.000000
# 5 0.000000 0.000000 0.000000 0.000000 0.020114 0.000000
# 6 0.000000 0.000000 0.000000 0.000000 0.000000 0.019431
#
#
# Mechanical properties :
#
#
# Convention : Reuss Voigt Hill
#
# Bulk Modulus (GPa) = 47.72951 73.42425 60.57688
# Shear Modulus (GPa) = 43.01809 -9.55514 16.73148
#
# Velocity S-wave (km/s) = 4.77016 -2.24815 2.97491
# Velocity P-wave (km/s) = 7.45558 5.66558 6.62135
#
# Compressibility (1/GPa) = 0.02095140
#
# Stress axis : x y z
#
# Youngs Moduli (GPa) = 101.76609 99.35713 36.00702
#
# Poissons Ratio (x) = 0.39365 0.12057
# Poissons Ratio (y) = 0.40320 0.21768
# Poissons Ratio (z) = 0.34077 0.60066
#
# Static dielectric constant tensor:
#      x y z
#    x 1.646210 0.000000 0.000000 
#    y 0.000000 1.737500 0.000000 
#    z 0.000000 0.000000 1.726450 
# 
# From -- ./inp_files/53817.got.cif
#   From: 2010.05.17/outbox.cif.g08.bks.cpg/sg68_27_cif.got.tgz:53817.got - 2010.06.03 18:57:09.
