data_PCOD9509022
_publ_section_title
;
Structure prediction by ZEFSAII (Michael W. Deem and Ramdas Pophale) SiO2 
 PCOD9509022
Probable space group: C C C A
;
_chemical_formula_sum "Si O2"
_cell_formula_units_Z 104
_cell_length_a 21.162530
_cell_length_b 24.716822
_cell_length_c 9.501880
_cell_angle_alpha 90.000000
_cell_angle_beta 90.000000
_cell_angle_gamma 90.000000
_cell_volume 4970.153000
_symmetry_space_group_name_H-M "C C C A"
_symmetry_group_IT_number 68
_space_group.IT_coordinate_system_code '2'
_symmetry_cell_setting 'orthorhombic'
loop_
_space_group_symop_operation_xyz
x,y,z
-x,1/2-y,z
x,1/2-y,1/2-z
-x,y,1/2-z
-x,-y,-z
x,1/2+y,-z
-x,1/2+y,1/2+z
x,-y,1/2+z
1/2+x,1/2+y,z
1/2-x,-y,z
1/2+x,-y,1/2-z
1/2-x,1/2+y,1/2-z
1/2-x,1/2-y,-z
1/2+x,y,-z
1/2-x,y,1/2+z
1/2+x,1/2-y,1/2+z
loop_
_atom_site_type_symbol
_atom_site_label
_atom_site_fract_x
_atom_site_fract_y
_atom_site_fract_z
Si Si1 0.993800 0.684288 0.483197
Si Si2 0.126026 0.544592 0.819880
Si Si3 0.224562 0.697379 0.416271
Si Si4 0.721072 0.129625 0.689836
Si Si5 0.092685 0.689075 0.254883
Si Si6 0.687084 0.038120 0.126562
Si Si7 0.000000 0.393188 0.250000
O O1 0.047674 0.664393 0.373347
O O2 0.005316 0.648283 0.619513
O O3 0.000000 0.750000 0.513120
O O4 0.926723 0.670957 0.402897
O O5 0.169293 0.587610 0.737811
O O6 0.142896 0.488098 0.744908
O O7 0.056768 0.566849 0.792774
O O8 0.150044 0.542271 0.980177
O O9 0.250000 0.750000 0.500000
O O10 0.276598 0.675780 0.307989
O O11 0.210436 0.654443 0.537824
O O12 0.162541 0.697223 0.317148
O O13 0.786218 0.095608 0.678767
O O14 0.067696 0.750000 0.250000
O O15 0.750000 0.000000 0.606495
#
# Coordination Sequence:
#
# PCOD9509022 Si02
#       7
#    16  16  16  16  16  16   8
#     4   9  20  40  64  90 132 189 233 258 324 419
#     4  11  25  43  68  96 130 166 229 294 344 413
#     4  12  24  38  62 104 144 175 219 283 345 401
#     4  11  23  41  67  96 132 183 222 271 346 424
#     4   9  19  38  61  86 129 184 228 268 314 397
#     4  10  22  45  71  94 121 173 232 283 348 423
#     4  12  25  40  62 106 136 164 225 300 352 392
#
# _framework density 20.924907999999999
#
# number of rings (size 3 to 8) (size 9 to 14) (size 15 to 20)
#    0.000    1.538    1.538    4.846    4.308    3.077 
#    0.000    4.615    0.000    0.000    0.000    0.000 
#    0.000    0.000    0.000    0.000    0.000    0.000 
#
# Total GULP energy -289832.266885 kJ/mol
# GULP energy per Si atom -5573.697440 kJ/mol
# Density = 2.087728 g / cm^3
# Si number density = 20.924908 Si / 1000 Ang^3
#
#
#
# Elastic Constant Matrix: (Units=GPa)
#
#
# Indices 1 2 3 4 5 6 
#
# 1 67.5539 27.3488 6.5675 0.0000 0.0000 0.0000
# 2 27.3488 73.0098 34.6415 0.0000 0.0000 0.0000
# 3 6.5675 34.6415 97.3890 0.0000 0.0000 0.0000
# 4 0.0000 0.0000 0.0000 41.8100 0.0000 0.0000
# 5 0.0000 0.0000 0.0000 0.0000 29.7910 0.0000
# 6 0.0000 0.0000 0.0000 0.0000 0.0000 -13.4190
#
#
#
# Elastic Compliance Matrix: (Units=1/GPa)
#
#
# Indices 1 2 3 4 5 6 
#
# 1 0.017605 -0.007256 0.001394 0.000000 0.000000 0.000000
# 2 -0.007256 0.019468 -0.006436 0.000000 0.000000 0.000000
# 3 0.001394 -0.006436 0.012463 0.000000 0.000000 0.000000
# 4 0.000000 0.000000 0.000000 0.023918 0.000000 0.000000
# 5 0.000000 0.000000 0.000000 0.000000 0.033567 0.000000
# 6 0.000000 0.000000 0.000000 0.000000 0.000000 -0.074521
#
#
# Mechanical properties :
#
#
# Convention : Reuss Voigt Hill
#
# Bulk Modulus (GPa) = 40.09469 41.67428 40.88448
# Shear Modulus (GPa) = 76.44143 22.92941 49.68542
#
# Velocity S-wave (km/s) = 6.05067 3.31387 4.87813
# Velocity P-wave (km/s) = 8.24724 5.88232 7.16305
#
# Compressibility (1/GPa) = 0.02494096
#
# Stress axis : x y z
#
# Youngs Moduli (GPa) = 56.80192 51.36532 80.23571
#
# Poissons Ratio (x) = 0.37271 -0.11183
# Poissons Ratio (y) = 0.41215 0.51637
# Poissons Ratio (z) = -0.07917 0.33057
#
# Static dielectric constant tensor:
#      x y z
#    x 1.796990 0.000000 0.000000 
#    y 0.000000 1.769410 0.000000 
#    z 0.000000 0.000000 1.726490 
# 
# From -- ./inp_files/7360.got.cif
#   From: 2010.05.17/outbox.cif.g08.bks.cpg/sg68_4_cif.got.tgz:7360.got - 2010.06.03 18:57:09.
