data_PCOD9509236
_publ_section_title
;
Structure prediction by ZEFSAII (Michael W. Deem and Ramdas Pophale) SiO2 
 PCOD9509236
Probable space group: C C C A
;
_chemical_formula_sum "Si O2"
_cell_formula_units_Z 64
_cell_length_a 25.792028
_cell_length_b 9.681295
_cell_length_c 11.111339
_cell_angle_alpha 90.000000
_cell_angle_beta 90.000000
_cell_angle_gamma 90.000000
_cell_volume 2774.503923
_symmetry_space_group_name_H-M "C C C A"
_symmetry_group_IT_number 68
_space_group.IT_coordinate_system_code '2'
_symmetry_cell_setting 'orthorhombic'
loop_
_space_group_symop_operation_xyz
x,y,z
-x,1/2-y,z
x,1/2-y,1/2-z
-x,y,1/2-z
-x,-y,-z
x,1/2+y,-z
-x,1/2+y,1/2+z
x,-y,1/2+z
1/2+x,1/2+y,z
1/2-x,-y,z
1/2+x,-y,1/2-z
1/2-x,1/2+y,1/2-z
1/2-x,1/2-y,-z
1/2+x,y,-z
1/2-x,y,1/2+z
1/2+x,1/2-y,1/2+z
loop_
_atom_site_type_symbol
_atom_site_label
_atom_site_fract_x
_atom_site_fract_y
_atom_site_fract_z
Si Si1 0.122534 0.030040 0.279965
Si Si2 0.283422 0.360710 0.155702
Si Si3 0.053115 0.317796 0.621040
Si Si4 0.145192 0.783870 0.556147
O O1 0.147016 0.144726 0.367827
O O2 0.125703 0.096751 0.148017
O O3 0.162992 0.905443 0.279680
O O4 0.068585 0.976562 0.340701
O O5 0.259218 0.250000 0.250000
O O6 0.250000 0.500000 0.146008
O O7 0.303449 0.312988 0.023141
O O8 0.056822 0.250000 0.750000
O O9 0.098461 0.269379 0.535905
O O10 0.000000 0.250000 0.570879
#
# Coordination Sequence:
#
# PCOD9509236 Si02
#       4
#    16  16  16  16
#     4  10  23  44  69 101 142 183 242 292 366 430
#     4  11  27  45  72 104 145 188 245 298 362 440
#     4  10  23  42  66  99 138 184 235 293 363 432
#     4  10  23  44  71 101 139 191 233 305 360 430
#
# _framework density 23.067186
#
# number of rings (size 3 to 8) (size 9 to 14) (size 15 to 20)
#    0.000    1.750    0.000    3.000   17.500    3.000 
#    4.500    1.250    0.000    0.000    0.000    0.000 
#    0.000    0.000    0.000    0.000    0.000    0.000 
#
# Total GULP energy -178370.072641 kJ/mol
# GULP energy per Si atom -5574.064770 kJ/mol
# Density = 2.301468 g / cm^3
# Si number density = 23.067186 Si / 1000 Ang^3
#
#
#
# Elastic Constant Matrix: (Units=GPa)
#
#
# Indices 1 2 3 4 5 6 
#
# 1 141.8526 47.9985 39.5184 0.0000 0.0000 0.0000
# 2 47.9985 109.0158 28.5891 0.0000 0.0000 0.0000
# 3 39.5184 28.5891 89.7088 0.0000 0.0000 0.0000
# 4 0.0000 0.0000 0.0000 7.3702 0.0000 0.0000
# 5 0.0000 0.0000 0.0000 0.0000 2.4372 0.0000
# 6 0.0000 0.0000 0.0000 0.0000 0.0000 24.3306
#
#
#
# Elastic Compliance Matrix: (Units=1/GPa)
#
#
# Indices 1 2 3 4 5 6 
#
# 1 0.008937 -0.003167 -0.002928 0.000000 0.000000 0.000000
# 2 -0.003167 0.011132 -0.002152 0.000000 0.000000 0.000000
# 3 -0.002928 -0.002152 0.013123 0.000000 0.000000 0.000000
# 4 0.000000 0.000000 0.000000 0.135682 0.000000 0.000000
# 5 0.000000 0.000000 0.000000 0.000000 0.410311 0.000000
# 6 0.000000 0.000000 0.000000 0.000000 0.000000 0.041101
#
#
# Mechanical properties :
#
#
# Convention : Reuss Voigt Hill
#
# Bulk Modulus (GPa) = 59.88958 63.64323 61.76640
# Shear Modulus (GPa) = 7.78399 21.79234 14.78816
#
# Velocity S-wave (km/s) = 1.83897 3.07699 2.53472
# Velocity P-wave (km/s) = 5.52526 6.34618 5.94990
#
# Compressibility (1/GPa) = 0.01669740
#
# Stress axis : x y z
#
# Youngs Moduli (GPa) = 111.89733 89.83221 76.20350
#
# Poissons Ratio (x) = 0.28450 0.22309
# Poissons Ratio (y) = 0.35438 0.16402
# Poissons Ratio (z) = 0.32758 0.19336
#
# Static dielectric constant tensor:
#      x y z
#    x 1.957590 0.000000 0.000000 
#    y 0.000000 1.976090 0.000000 
#    z 0.000000 0.000000 1.831830 
# 
# From -- ./inp_files/17442.got.cif
#   From: 2010.05.17/outbox.cif.g08.bks.cpg/sg68_9_cif.got.tgz:17442.got - 2010.06.03 18:57:09.
