data_PCOD9509935
_publ_section_title
;
Structure prediction by ZEFSAII (Michael W. Deem and Ramdas Pophale) SiO2 
 PCOD9509935
Probable space group: C C C A
;
_chemical_formula_sum "Si O2"
_cell_formula_units_Z 80
_cell_length_a 9.445347
_cell_length_b 13.761193
_cell_length_c 25.707975
_cell_angle_alpha 90.000000
_cell_angle_beta 90.000000
_cell_angle_gamma 90.000000
_cell_volume 3341.503130
_symmetry_space_group_name_H-M "C C C A"
_symmetry_group_IT_number 68
_space_group.IT_coordinate_system_code '2'
_symmetry_cell_setting 'orthorhombic'
loop_
_space_group_symop_operation_xyz
x,y,z
-x,1/2-y,z
x,1/2-y,1/2-z
-x,y,1/2-z
-x,-y,-z
x,1/2+y,-z
-x,1/2+y,1/2+z
x,-y,1/2+z
1/2+x,1/2+y,z
1/2-x,-y,z
1/2+x,-y,1/2-z
1/2-x,1/2+y,1/2-z
1/2-x,1/2-y,-z
1/2+x,y,-z
1/2-x,y,1/2+z
1/2+x,1/2-y,1/2+z
loop_
_atom_site_type_symbol
_atom_site_label
_atom_site_fract_x
_atom_site_fract_y
_atom_site_fract_z
Si Si1 0.651985 0.194724 0.425287
Si Si2 0.109394 0.828703 0.878504
Si Si3 0.116358 0.433735 0.025552
Si Si4 0.136527 0.134900 0.684488
Si Si5 0.681628 0.869099 0.703567
O O1 0.500000 0.250000 0.421065
O O2 0.771393 0.274109 0.413246
O O3 0.660173 0.143250 0.480844
O O4 0.671127 0.121731 0.375977
O O5 0.040552 0.892165 0.923155
O O6 0.190121 0.889660 0.834897
O O7 0.000000 0.750000 0.856270
O O8 0.250000 0.500000 0.041023
O O9 0.000000 0.500000 0.000000
O O10 0.155426 0.252369 0.693300
O O11 0.216398 0.104022 0.737037
O O12 0.976455 0.096373 0.690818
#
# Coordination Sequence:
#
# PCOD9509935 Si02
#       5
#    16  16  16  16  16
#     4  11  19  37  63  87 111 156 211 248 285 353
#     4  11  21  37  59  89 122 152 198 252 300 350
#     4  12  26  40  56  84 124 166 202 248 304 355
#     4   8  13  27  54  87 110 138 191 241 292 339
#     4   8  14  27  52  87 114 141 183 248 288 345
#
# _framework density 23.941320999999999
#
# number of rings (size 3 to 8) (size 9 to 14) (size 15 to 20)
#    0.000    2.000    4.000    4.800    0.000    0.000 
#    0.000    8.000    0.000    1.200    0.000    0.000 
#    0.000    0.000    0.000    0.000    0.000    0.000 
#
# Total GULP energy -223053.630718 kJ/mol
# GULP energy per Si atom -5576.340768 kJ/mol
# Density = 2.388683 g / cm^3
# Si number density = 23.941321 Si / 1000 Ang^3
#
#
#
# Elastic Constant Matrix: (Units=GPa)
#
#
# Indices 1 2 3 4 5 6 
#
# 1 51.5157 9.3250 5.7101 0.0000 0.0000 0.0000
# 2 9.3250 44.4906 12.4483 0.0000 0.0000 0.0000
# 3 5.7101 12.4483 198.3015 0.0000 0.0000 0.0000
# 4 0.0000 0.0000 0.0000 -20.6378 0.0000 0.0000
# 5 0.0000 0.0000 0.0000 0.0000 24.7080 0.0000
# 6 0.0000 0.0000 0.0000 0.0000 0.0000 24.9715
#
#
#
# Elastic Compliance Matrix: (Units=1/GPa)
#
#
# Indices 1 2 3 4 5 6 
#
# 1 0.020197 -0.004143 -0.000321 0.000000 0.000000 0.000000
# 2 -0.004143 0.023728 -0.001370 0.000000 0.000000 0.000000
# 3 -0.000321 -0.001370 0.005138 0.000000 0.000000 0.000000
# 4 0.000000 0.000000 0.000000 -0.048455 0.000000 0.000000
# 5 0.000000 0.000000 0.000000 0.000000 0.040473 0.000000
# 6 0.000000 0.000000 0.000000 0.000000 0.000000 0.040046
#
#
# Mechanical properties :
#
#
# Convention : Reuss Voigt Hill
#
# Bulk Modulus (GPa) = 26.74245 38.80829 32.77537
# Shear Modulus (GPa) = 47.50055 23.59663 35.54859
#
# Velocity S-wave (km/s) = 4.45909 3.14284 3.85752
# Velocity P-wave (km/s) = 6.14048 5.42354 5.79312
#
# Compressibility (1/GPa) = 0.03739374
#
# Stress axis : x y z
#
# Youngs Moduli (GPa) = 49.51186 42.14348 194.62448
#
# Poissons Ratio (x) = 0.17461 0.06257
# Poissons Ratio (y) = 0.20514 0.26668
# Poissons Ratio (z) = 0.01592 0.05775
#
# Static dielectric constant tensor:
#      x y z
#    x 1.897630 0.000000 0.000000 
#    y 0.000000 1.992100 0.000000 
#    z 0.000000 0.000000 1.940250 
# 
# From -- ./inp_files/49158.got.cif
#   From: 2010.05.17/outbox.cif.g08.bks.cpg/sg68_25_cif.got.tgz:49158.got - 2010.06.03 18:57:09.
