data_PCOD9509584
_publ_section_title
;
Structure prediction by ZEFSAII (Michael W. Deem and Ramdas Pophale) SiO2 
 PCOD9509584
Probable space group: C C C A
;
_chemical_formula_sum "Si O2"
_cell_formula_units_Z 40
_cell_length_a 25.678017
_cell_length_b 5.256215
_cell_length_c 11.681709
_cell_angle_alpha 90.000000
_cell_angle_beta 90.000000
_cell_angle_gamma 90.000000
_cell_volume 1576.670663
_symmetry_space_group_name_H-M "C C C A"
_symmetry_group_IT_number 68
_space_group.IT_coordinate_system_code '2'
_symmetry_cell_setting 'orthorhombic'
loop_
_space_group_symop_operation_xyz
x,y,z
-x,1/2-y,z
x,1/2-y,1/2-z
-x,y,1/2-z
-x,-y,-z
x,1/2+y,-z
-x,1/2+y,1/2+z
x,-y,1/2+z
1/2+x,1/2+y,z
1/2-x,-y,z
1/2+x,-y,1/2-z
1/2-x,1/2+y,1/2-z
1/2-x,1/2-y,-z
1/2+x,y,-z
1/2-x,y,1/2+z
1/2+x,1/2-y,1/2+z
loop_
_atom_site_type_symbol
_atom_site_label
_atom_site_fract_x
_atom_site_fract_y
_atom_site_fract_z
Si Si1 0.058969 0.994002 0.450523
Si Si2 0.387237 0.750000 0.250000
Si Si3 0.691238 0.521842 0.577201
O O1 0.081819 0.220767 0.525682
O O2 0.072978 0.078433 0.324261
O O3 0.000000 0.000000 0.500000
O O4 0.349699 0.574510 0.327351
O O5 0.687936 0.808022 0.524866
O O6 0.750000 0.500000 0.625255
#
# Coordination Sequence:
#
# PCOD9509584 Si02
#       3
#    16   8  16
#     4  10  24  45  67 102 142 181 238 299 350 418
#     4  12  24  43  78 106 142 198 240 287 372 432
#     4  10  24  44  66 102 147 185 236 299 355 429
#
# _framework density 25.369911999999999
#
# number of rings (size 3 to 8) (size 9 to 14) (size 15 to 20)
#    0.000    1.600    0.000    2.400    0.000   14.400 
#    0.000    8.000    0.000    0.000    0.000    0.000 
#    0.000    0.000    0.000    0.000    0.000    0.000 
#
# Total GULP energy -111691.573306 kJ/mol
# GULP energy per Si atom -5584.578665 kJ/mol
# Density = 2.531217 g / cm^3
# Si number density = 25.369912 Si / 1000 Ang^3
#
#
#
# Elastic Constant Matrix: (Units=GPa)
#
#
# Indices 1 2 3 4 5 6 
#
# 1 167.6572 -28.2853 34.6099 0.0000 0.0000 0.0000
# 2 -28.2853 161.9895 25.5183 0.0000 0.0000 0.0000
# 3 34.6099 25.5183 110.8264 0.0000 0.0000 0.0000
# 4 0.0000 0.0000 0.0000 42.9377 0.0000 0.0000
# 5 0.0000 0.0000 0.0000 0.0000 52.2074 0.0000
# 6 0.0000 0.0000 0.0000 0.0000 0.0000 10.3468
#
#
#
# Elastic Compliance Matrix: (Units=1/GPa)
#
#
# Indices 1 2 3 4 5 6 
#
# 1 0.006737 0.001565 -0.002464 0.000000 0.000000 0.000000
# 2 0.001565 0.006769 -0.002047 0.000000 0.000000 0.000000
# 3 -0.002464 -0.002047 0.010264 0.000000 0.000000 0.000000
# 4 0.000000 0.000000 0.000000 0.023290 0.000000 0.000000
# 5 0.000000 0.000000 0.000000 0.000000 0.019154 0.000000
# 6 0.000000 0.000000 0.000000 0.000000 0.000000 0.096648
#
#
# Mechanical properties :
#
#
# Convention : Reuss Voigt Hill
#
# Bulk Modulus (GPa) = 55.93915 56.01764 55.97840
# Shear Modulus (GPa) = 28.61810 48.34040 38.47925
#
# Velocity S-wave (km/s) = 3.36226 4.36985 3.89874
# Velocity P-wave (km/s) = 6.09675 6.89848 6.50997
#
# Compressibility (1/GPa) = 0.01787657
#
# Stress axis : x y z
#
# Youngs Moduli (GPa) = 148.42950 147.73389 97.42756
#
# Poissons Ratio (x) = -0.23114 0.24008
# Poissons Ratio (y) = -0.23223 0.19945
# Poissons Ratio (z) = 0.36576 0.30244
#
# Static dielectric constant tensor:
#      x y z
#    x -6.742500 0.000000 0.000000 
#    y 0.000000 2.114570 0.000000 
#    z 0.000000 0.000000 2.005560 
# 
# From -- ./inp_files/17381.got.cif
#   From: 2010.05.17/outbox.cif.g08.bks.cpg/sg68_9_cif.got.tgz:17381.got - 2010.06.03 18:57:09.
