data_PCOD9509840
_publ_section_title
;
Structure prediction by ZEFSAII (Michael W. Deem and Ramdas Pophale) SiO2 
 PCOD9509840
Probable space group: C C C A
;
_chemical_formula_sum "Si O2"
_cell_formula_units_Z 88
_cell_length_a 5.666226
_cell_length_b 27.275551
_cell_length_c 27.539155
_cell_angle_alpha 90.000000
_cell_angle_beta 90.000000
_cell_angle_gamma 90.000000
_cell_volume 4256.160880
_symmetry_space_group_name_H-M "C C C A"
_symmetry_group_IT_number 68
_space_group.IT_coordinate_system_code '2'
_symmetry_cell_setting 'orthorhombic'
loop_
_space_group_symop_operation_xyz
x,y,z
-x,1/2-y,z
x,1/2-y,1/2-z
-x,y,1/2-z
-x,-y,-z
x,1/2+y,-z
-x,1/2+y,1/2+z
x,-y,1/2+z
1/2+x,1/2+y,z
1/2-x,-y,z
1/2+x,-y,1/2-z
1/2-x,1/2+y,1/2-z
1/2-x,1/2-y,-z
1/2+x,y,-z
1/2-x,y,1/2+z
1/2+x,1/2-y,1/2+z
loop_
_atom_site_type_symbol
_atom_site_label
_atom_site_fract_x
_atom_site_fract_y
_atom_site_fract_z
Si Si1 0.871782 0.300958 0.622116
Si Si2 0.103057 0.356618 0.024250
Si Si3 0.000000 0.750000 0.949227
Si Si4 0.237830 0.874729 0.373250
Si Si5 0.479384 0.191871 0.696070
Si Si6 0.752425 0.058820 0.721599
O O1 0.677043 0.280808 0.584979
O O2 0.768455 0.320292 0.672588
O O3 0.000000 0.250000 0.632350
O O4 0.008137 0.348442 0.603422
O O5 0.102565 0.379107 0.079014
O O6 0.120439 0.296057 0.024026
O O7 0.351518 0.371145 0.999148
O O8 0.331885 0.830463 0.339773
O O9 0.233083 0.917451 0.332890
O O10 0.500000 0.250000 0.696132
O O11 0.500000 0.173860 0.750000
O O12 0.500000 0.070168 0.750000
O O13 0.000000 0.072301 0.750000
O O14 0.750000 0.000000 0.716949
#
# Coordination Sequence:
#
# PCOD9509840 Si02
#       6
#    16  16   8  16  16  16
#     4  12  20  38  56  84 132 178 225 268 314 393
#     4  12  26  40  61  91 127 177 232 277 325 385
#     4  12  22  40  55  84 126 182 233 280 324 360
#     4  12  25  39  66  89 132 171 220 277 334 382
#     4  11  22  36  51  83 126 172 217 252 316 393
#     4  10  25  49  76 106 133 166 218 273 340 417
#
# _framework density 20.675912
#
# number of rings (size 3 to 8) (size 9 to 14) (size 15 to 20)
#    0.000    0.545    6.364    2.182    5.091    0.000 
#    0.000    0.000    0.000    1.091    0.000    0.000 
#    0.000    0.000    0.000    0.000    0.000    0.000 
#
# Total GULP energy -245072.621239 kJ/mol
# GULP energy per Si atom -5569.832301 kJ/mol
# Density = 2.062885 g / cm^3
# Si number density = 20.675912 Si / 1000 Ang^3
#
#
#
# Elastic Constant Matrix: (Units=GPa)
#
#
# Indices 1 2 3 4 5 6 
#
# 1 121.2513 22.6460 56.5947 0.0000 0.0000 0.0000
# 2 22.6460 77.1969 21.8183 0.0000 0.0000 0.0000
# 3 56.5947 21.8183 131.4487 0.0000 0.0000 0.0000
# 4 0.0000 0.0000 0.0000 21.9015 0.0000 0.0000
# 5 0.0000 0.0000 0.0000 0.0000 30.4157 0.0000
# 6 0.0000 0.0000 0.0000 0.0000 0.0000 11.2008
#
#
#
# Elastic Compliance Matrix: (Units=1/GPa)
#
#
# Indices 1 2 3 4 5 6 
#
# 1 0.010582 -0.001906 -0.004240 0.000000 0.000000 0.000000
# 2 -0.001906 0.013935 -0.001492 0.000000 0.000000 0.000000
# 3 -0.004240 -0.001492 0.009681 0.000000 0.000000 0.000000
# 4 0.000000 0.000000 0.000000 0.045659 0.000000 0.000000
# 5 0.000000 0.000000 0.000000 0.000000 0.032878 0.000000
# 6 0.000000 0.000000 0.000000 0.000000 0.000000 0.089279
#
#
# Mechanical properties :
#
#
# Convention : Reuss Voigt Hill
#
# Bulk Modulus (GPa) = 52.85004 59.11274 55.98139
# Shear Modulus (GPa) = 22.36164 27.95946 25.16055
#
# Velocity S-wave (km/s) = 3.29223 3.68131 3.49220
# Velocity P-wave (km/s) = 6.32996 6.83532 6.58749
#
# Compressibility (1/GPa) = 0.01892146
#
# Stress axis : x y z
#
# Youngs Moduli (GPa) = 94.49773 71.76274 103.29888
#
# Poissons Ratio (x) = 0.13678 0.43796
# Poissons Ratio (y) = 0.18012 0.15415
# Poissons Ratio (z) = 0.40065 0.10709
#
# Static dielectric constant tensor:
#      x y z
#    x 1.781320 0.000000 0.000000 
#    y 0.000000 1.734210 0.000000 
#    z 0.000000 0.000000 1.793690 
# 
# From -- ./inp_files/48558.got.cif
#   From: 2010.05.17/outbox.cif.g08.bks.cpg/sg68_25_cif.got.tgz:48558.got - 2010.06.03 18:57:09.
