data_PCOD9509286
_publ_section_title
;
Structure prediction by ZEFSAII (Michael W. Deem and Ramdas Pophale) SiO2 
 PCOD9509286
Probable space group: C C C A
;
_chemical_formula_sum "Si O2"
_cell_formula_units_Z 88
_cell_length_a 17.710989
_cell_length_b 12.841608
_cell_length_c 18.796180
_cell_angle_alpha 90.000000
_cell_angle_beta 90.000000
_cell_angle_gamma 90.000000
_cell_volume 4274.957655
_symmetry_space_group_name_H-M "C C C A"
_symmetry_group_IT_number 68
_space_group.IT_coordinate_system_code '2'
_symmetry_cell_setting 'orthorhombic'
loop_
_space_group_symop_operation_xyz
x,y,z
-x,1/2-y,z
x,1/2-y,1/2-z
-x,y,1/2-z
-x,-y,-z
x,1/2+y,-z
-x,1/2+y,1/2+z
x,-y,1/2+z
1/2+x,1/2+y,z
1/2-x,-y,z
1/2+x,-y,1/2-z
1/2-x,1/2+y,1/2-z
1/2-x,1/2-y,-z
1/2+x,y,-z
1/2-x,y,1/2+z
1/2+x,1/2-y,1/2+z
loop_
_atom_site_type_symbol
_atom_site_label
_atom_site_fract_x
_atom_site_fract_y
_atom_site_fract_z
Si Si1 0.000000 0.750000 0.626631
Si Si2 0.558401 0.031353 0.669045
Si Si3 0.213273 0.263440 0.830615
Si Si4 0.105642 0.538914 0.318474
Si Si5 0.849309 0.646728 0.578615
Si Si6 0.174990 0.432283 0.579524
O O1 0.971405 0.850461 0.670171
O O2 0.927616 0.710136 0.582963
O O3 0.484490 0.957773 0.668614
O O4 0.608617 0.007585 0.738484
O O5 0.605838 0.007665 0.598945
O O6 0.242347 0.250000 0.750000
O O7 0.150822 0.354513 0.826396
O O8 0.281310 0.292520 0.883420
O O9 0.177095 0.159043 0.862067
O O10 0.139061 0.457176 0.374510
O O11 0.831247 0.617033 0.498177
O O12 0.250000 0.500000 0.584628
#
# Coordination Sequence:
#
# PCOD9509286 Si02
#       6
#     8  16  16  16  16  16
#     4  10  24  45  72 104 137 188 234 292 351 422
#     4  10  23  43  69 100 140 182 237 291 352 420
#     4  12  25  42  70 102 136 191 238 290 350 424
#     4  10  23  43  67 101 136 183 236 292 350 416
#     4  11  26  43  70 102 143 181 234 291 356 416
#     4  12  26  45  68 103 145 184 234 294 355 420
#
# _framework density 20.584997999999999
#
# number of rings (size 3 to 8) (size 9 to 14) (size 15 to 20)
#    0.000    1.091    1.818    3.273    5.091   11.636 
#    0.000    0.000    0.000    0.000    0.000    0.000 
#    0.000    0.000    0.000    0.000    0.000    0.000 
#
# Total GULP energy -246028.328608 kJ/mol
# GULP energy per Si atom -5591.552923 kJ/mol
# Density = 2.053815 g / cm^3
# Si number density = 20.584998 Si / 1000 Ang^3
#
#
#
# Elastic Constant Matrix: (Units=GPa)
#
#
# Indices 1 2 3 4 5 6 
#
# 1 85.9531 57.5798 20.8653 0.0000 0.0000 0.0000
# 2 57.5798 118.0070 40.9986 0.0000 0.0000 0.0000
# 3 20.8653 40.9986 90.2002 0.0000 0.0000 0.0000
# 4 0.0000 0.0000 0.0000 26.2150 0.0000 0.0000
# 5 0.0000 0.0000 0.0000 0.0000 30.0922 0.0000
# 6 0.0000 0.0000 0.0000 0.0000 0.0000 40.4508
#
#
#
# Elastic Compliance Matrix: (Units=1/GPa)
#
#
# Indices 1 2 3 4 5 6 
#
# 1 0.017287 -0.008367 -0.000196 0.000000 0.000000 0.000000
# 2 -0.008367 0.014113 -0.004479 0.000000 0.000000 0.000000
# 3 -0.000196 -0.004479 0.013168 0.000000 0.000000 0.000000
# 4 0.000000 0.000000 0.000000 0.038146 0.000000 0.000000
# 5 0.000000 0.000000 0.000000 0.000000 0.033231 0.000000
# 6 0.000000 0.000000 0.000000 0.000000 0.000000 0.024721
#
#
# Mechanical properties :
#
#
# Convention : Reuss Voigt Hill
#
# Bulk Modulus (GPa) = 54.10255 59.22754 56.66504
# Shear Modulus (GPa) = 28.91669 30.99936 29.95802
#
# Velocity S-wave (km/s) = 3.75206 3.88483 3.81902
# Velocity P-wave (km/s) = 6.71641 6.99694 6.85811
#
# Compressibility (1/GPa) = 0.01848342
#
# Stress axis : x y z
#
# Youngs Moduli (GPa) = 57.84806 70.85815 75.94342
#
# Poissons Ratio (x) = 0.59285 0.01487
# Poissons Ratio (y) = 0.48400 0.34017
# Poissons Ratio (z) = 0.01133 0.31739
#
# Static dielectric constant tensor:
#      x y z
#    x 1.738990 0.000000 0.000000 
#    y 0.000000 1.724560 0.000000 
#    z 0.000000 0.000000 1.721900 
# 
# From -- ./inp_files/32805.got.cif
#   From: 2010.05.17/outbox.cif.g08.bks.cpg/sg68_17_cif.got.tgz:32805.got - 2010.06.03 18:57:09.
