data_PCOD9509784
_publ_section_title
;
Structure prediction by ZEFSAII (Michael W. Deem and Ramdas Pophale) SiO2 
 PCOD9509784
Probable space group: C C C A
;
_chemical_formula_sum "Si O2"
_cell_formula_units_Z 84
_cell_length_a 13.722902
_cell_length_b 10.044308
_cell_length_c 25.779171
_cell_angle_alpha 90.000000
_cell_angle_beta 90.000000
_cell_angle_gamma 90.000000
_cell_volume 3553.324994
_symmetry_space_group_name_H-M "C C C A"
_symmetry_group_IT_number 68
_space_group.IT_coordinate_system_code '2'
_symmetry_cell_setting 'orthorhombic'
loop_
_space_group_symop_operation_xyz
x,y,z
-x,1/2-y,z
x,1/2-y,1/2-z
-x,y,1/2-z
-x,-y,-z
x,1/2+y,-z
-x,1/2+y,1/2+z
x,-y,1/2+z
1/2+x,1/2+y,z
1/2-x,-y,z
1/2+x,-y,1/2-z
1/2-x,1/2+y,1/2-z
1/2-x,1/2-y,-z
1/2+x,y,-z
1/2-x,y,1/2+z
1/2+x,1/2-y,1/2+z
loop_
_atom_site_type_symbol
_atom_site_label
_atom_site_fract_x
_atom_site_fract_y
_atom_site_fract_z
Si Si1 0.000000 0.250000 0.250000
Si Si2 0.030373 0.051447 0.395512
Si Si3 0.000000 0.250000 0.014016
Si Si4 0.319468 0.374742 0.046720
Si Si5 0.375329 0.961914 0.186867
Si Si6 0.700143 0.223277 0.639267
Si Si7 0.250000 0.000000 0.778068
O O1 0.066153 0.154359 0.216380
O O2 0.090659 0.169337 0.368318
O O3 0.999456 0.119081 0.449486
O O4 0.948166 0.990238 0.358244
O O5 0.110148 0.944493 0.411422
O O6 0.896746 0.278823 0.983956
O O7 0.250000 0.500000 0.024857
O O8 0.247454 0.289928 0.082659
O O9 0.293863 0.874066 0.157429
O O10 0.335447 0.037453 0.237203
O O11 0.738410 0.124853 0.683798
#
# Coordination Sequence:
#
# PCOD9509784 Si02
#       7
#     4  16   8  16  16  16   8
#     4  12  18  32  64  88 110 162 220 246 304 380
#     4  11  21  43  66  93 127 169 226 268 325 406
#     4  12  23  44  72  95 131 178 224 285 336 404
#     4  10  25  42  67  95 135 173 217 279 352 399
#     4  12  22  37  65  94 122 170 219 261 322 404
#     4  11  20  42  61  91 132 168 205 277 330 387
#     4  12  22  36  62  96 128 166 212 270 336 384
#
# _framework density 23.63983
#
# number of rings (size 3 to 8) (size 9 to 14) (size 15 to 20)
#    0.000    0.762    8.571    0.571    0.000    4.571 
#    1.714    0.000    0.000    0.000    0.000    0.000 
#    0.000    0.000    0.000    0.000    0.000    0.000 
#
# Total GULP energy -233901.565893 kJ/mol
# GULP energy per Si atom -5569.084902 kJ/mol
# Density = 2.358602 g / cm^3
# Si number density = 23.639830 Si / 1000 Ang^3
#
#
#
# Elastic Constant Matrix: (Units=GPa)
#
#
# Indices 1 2 3 4 5 6 
#
# 1 92.8913 13.5316 60.9733 0.0000 0.0000 0.0000
# 2 13.5316 46.1283 17.9675 0.0000 0.0000 0.0000
# 3 60.9733 17.9675 104.1389 0.0000 0.0000 0.0000
# 4 0.0000 0.0000 0.0000 7.4377 0.0000 0.0000
# 5 0.0000 0.0000 0.0000 0.0000 55.8335 0.0000
# 6 0.0000 0.0000 0.0000 0.0000 0.0000 23.1172
#
#
#
# Elastic Compliance Matrix: (Units=1/GPa)
#
#
# Indices 1 2 3 4 5 6 
#
# 1 0.017550 -0.001228 -0.010063 0.000000 0.000000 0.000000
# 2 -0.001228 0.023326 -0.003305 0.000000 0.000000 0.000000
# 3 -0.010063 -0.003305 0.016065 0.000000 0.000000 0.000000
# 4 0.000000 0.000000 0.000000 0.134449 0.000000 0.000000
# 5 0.000000 0.000000 0.000000 0.000000 0.017910 0.000000
# 6 0.000000 0.000000 0.000000 0.000000 0.000000 0.043258
#
#
# Mechanical properties :
#
#
# Convention : Reuss Voigt Hill
#
# Bulk Modulus (GPa) = 36.04012 47.56702 41.80357
# Shear Modulus (GPa) = 17.18199 27.32343 22.25271
#
# Velocity S-wave (km/s) = 2.69889 3.40343 3.07143
# Velocity P-wave (km/s) = 4.99906 5.96738 5.50456
#
# Compressibility (1/GPa) = 0.02774685
#
# Stress axis : x y z
#
# Youngs Moduli (GPa) = 56.98063 42.86971 62.24699
#
# Poissons Ratio (x) = 0.05266 0.62642
# Poissons Ratio (y) = 0.06999 0.20575
# Poissons Ratio (z) = 0.57342 0.14170
#
# Static dielectric constant tensor:
#      x y z
#    x 2.089720 0.000000 0.000000 
#    y 0.000000 2.415370 0.000000 
#    z 0.000000 0.000000 1.965010 
# 
# From -- ./inp_files/45368.got.cif
#   From: 2010.05.17/outbox.cif.g08.bks.cpg/sg68_23_cif.got.tgz:45368.got - 2010.06.03 18:57:09.
