data_PCOD9509472
_publ_section_title
;
Structure prediction by ZEFSAII (Michael W. Deem and Ramdas Pophale) SiO2 
 PCOD9509472
Probable space group: C C C A
;
_chemical_formula_sum "Si O2"
_cell_formula_units_Z 88
_cell_length_a 15.408849
_cell_length_b 10.937367
_cell_length_c 20.679940
_cell_angle_alpha 90.000000
_cell_angle_beta 90.000000
_cell_angle_gamma 90.000000
_cell_volume 3485.236540
_symmetry_space_group_name_H-M "C C C A"
_symmetry_group_IT_number 68
_space_group.IT_coordinate_system_code '2'
_symmetry_cell_setting 'orthorhombic'
loop_
_space_group_symop_operation_xyz
x,y,z
-x,1/2-y,z
x,1/2-y,1/2-z
-x,y,1/2-z
-x,-y,-z
x,1/2+y,-z
-x,1/2+y,1/2+z
x,-y,1/2+z
1/2+x,1/2+y,z
1/2-x,-y,z
1/2+x,-y,1/2-z
1/2-x,1/2+y,1/2-z
1/2-x,1/2-y,-z
1/2+x,y,-z
1/2-x,y,1/2+z
1/2+x,1/2-y,1/2+z
loop_
_atom_site_type_symbol
_atom_site_label
_atom_site_fract_x
_atom_site_fract_y
_atom_site_fract_z
Si Si1 0.934568 0.489892 0.876728
Si Si2 0.250000 0.500000 0.689353
Si Si3 0.870009 0.188731 0.527232
Si Si4 0.850072 0.639832 0.715267
Si Si5 0.257605 0.361393 0.911697
Si Si6 0.500000 0.547760 0.750000
Si Si7 0.500000 0.750000 0.419591
O O1 0.833939 0.506083 0.856378
O O2 0.931556 0.413270 0.942157
O O3 0.971160 0.403190 0.819310
O O4 0.986083 0.619674 0.882359
O O5 0.234488 0.610389 0.740412
O O6 0.827201 0.277562 0.580552
O O7 0.793138 0.130334 0.484769
O O8 0.920588 0.255855 0.470290
O O9 0.897740 0.750000 0.750000
O O10 0.823271 0.682925 0.643979
O O11 0.914252 0.527396 0.727180
O O12 0.250000 0.500000 0.888487
#
# Coordination Sequence:
#
# PCOD9509472 Si02
#       7
#    16   8  16  16  16   8   8
#     4  11  25  44  67 104 142 185 242 298 372 441
#     4  10  24  40  66  98 136 178 232 304 354 432
#     4  11  26  43  69 101 140 188 232 303 364 443
#     4  11  22  41  66  99 135 182 235 299 363 440
#     4  11  24  44  71 102 138 186 243 293 369 446
#     4  10  25  38  70  99 140 182 235 306 363 432
#     4  12  26  43  72 103 140 184 240 304 368 446
#
# _framework density 25.249362000000001
#
# number of rings (size 3 to 8) (size 9 to 14) (size 15 to 20)
#    0.000    1.091    0.909    4.091   16.545    1.455 
#    0.000    0.000    0.000    1.091    0.000    0.000 
#    0.000    0.000    0.000    0.000    0.000    0.000 
#
# Total GULP energy -245317.689432 kJ/mol
# GULP energy per Si atom -5575.402033 kJ/mol
# Density = 2.519189 g / cm^3
# Si number density = 25.249362 Si / 1000 Ang^3
#
#
#
# Elastic Constant Matrix: (Units=GPa)
#
#
# Indices 1 2 3 4 5 6 
#
# 1 80.7052 15.4510 16.4021 0.0000 0.0000 0.0000
# 2 15.4510 73.5766 29.5090 0.0000 0.0000 0.0000
# 3 16.4021 29.5090 128.7477 0.0000 0.0000 0.0000
# 4 0.0000 0.0000 0.0000 -1.2977 0.0000 0.0000
# 5 0.0000 0.0000 0.0000 0.0000 44.2962 0.0000
# 6 0.0000 0.0000 0.0000 0.0000 0.0000 18.5567
#
#
#
# Elastic Compliance Matrix: (Units=1/GPa)
#
#
# Indices 1 2 3 4 5 6 
#
# 1 0.013060 -0.002285 -0.001140 0.000000 0.000000 0.000000
# 2 -0.002285 0.015367 -0.003231 0.000000 0.000000 0.000000
# 3 -0.001140 -0.003231 0.008653 0.000000 0.000000 0.000000
# 4 0.000000 0.000000 0.000000 -0.770593 0.000000 0.000000
# 5 0.000000 0.000000 0.000000 0.000000 0.022575 0.000000
# 6 0.000000 0.000000 0.000000 0.000000 0.000000 0.053889
#
#
# Mechanical properties :
#
#
# Convention : Reuss Voigt Hill
#
# Bulk Modulus (GPa) = 42.07473 45.08375 43.57924
# Shear Modulus (GPa) = -7.86393 27.08886 9.61246
#
# Velocity S-wave (km/s) = -1.76671 3.27900 1.95327
# Velocity P-wave (km/s) = 3.54093 5.67714 4.73118
#
# Compressibility (1/GPa) = 0.02376723
#
# Stress axis : x y z
#
# Youngs Moduli (GPa) = 76.56974 65.07431 115.56809
#
# Poissons Ratio (x) = 0.14872 0.13175
# Poissons Ratio (y) = 0.17499 0.37340
# Poissons Ratio (z) = 0.08729 0.21025
#
# Static dielectric constant tensor:
#      x y z
#    x 2.090830 0.000000 0.000000 
#    y 0.000000 2.099320 0.000000 
#    z 0.000000 0.000000 2.016350 
# 
# From -- ./inp_files/39480.got.cif
#   From: 2010.05.17/outbox.cif.g08.bks.cpg/sg68_20_cif.got.tgz:39480.got - 2010.06.03 18:57:09.
