data_PCOD9509722
_publ_section_title
;
Structure prediction by ZEFSAII (Michael W. Deem and Ramdas Pophale) SiO2 
 PCOD9509722
Probable space group: C C C A
;
_chemical_formula_sum "Si O2"
_cell_formula_units_Z 88
_cell_length_a 20.873955
_cell_length_b 9.003172
_cell_length_c 21.181024
_cell_angle_alpha 90.000000
_cell_angle_beta 90.000000
_cell_angle_gamma 90.000000
_cell_volume 3980.588118
_symmetry_space_group_name_H-M "C C C A"
_symmetry_group_IT_number 68
_space_group.IT_coordinate_system_code '2'
_symmetry_cell_setting 'orthorhombic'
loop_
_space_group_symop_operation_xyz
x,y,z
-x,1/2-y,z
x,1/2-y,1/2-z
-x,y,1/2-z
-x,-y,-z
x,1/2+y,-z
-x,1/2+y,1/2+z
x,-y,1/2+z
1/2+x,1/2+y,z
1/2-x,-y,z
1/2+x,-y,1/2-z
1/2-x,1/2+y,1/2-z
1/2-x,1/2-y,-z
1/2+x,y,-z
1/2-x,y,1/2+z
1/2+x,1/2-y,1/2+z
loop_
_atom_site_type_symbol
_atom_site_label
_atom_site_fract_x
_atom_site_fract_y
_atom_site_fract_z
Si Si1 0.728531 0.659586 0.149968
Si Si2 0.424209 0.106303 0.867169
Si Si3 0.976472 0.079914 0.936420
Si Si4 0.379771 0.250000 0.750000
Si Si5 0.870508 0.366522 0.046709
Si Si6 0.688288 0.098906 0.088120
O O1 0.750000 0.500000 0.172445
O O2 0.670497 0.697289 0.196641
O O3 0.696700 0.643820 0.081542
O O4 0.784357 0.778394 0.136783
O O5 0.424979 0.153888 0.794810
O O6 0.414859 0.239313 0.919710
O O7 0.485396 0.007027 0.882450
O O8 0.360466 0.008798 0.876260
O O9 0.000000 0.250000 0.936409
O O10 0.902877 0.025681 0.936918
O O11 0.000000 0.000000 0.000000
O O12 0.852776 0.349120 0.973094
O O13 0.750000 0.000000 0.067577
#
# Coordination Sequence:
#
# PCOD9509722 Si02
#       6
#    16  16  16   8  16  16
#     4  11  26  39  66  99 138 184 231 295 355 437
#     4  11  25  45  72 100 145 193 242 299 368 447
#     4  12  26  43  70 106 145 188 243 312 380 447
#     4  10  24  48  67 100 132 199 244 278 354 432
#     4  11  24  42  66 103 139 184 231 294 376 432
#     4  12  23  40  67 102 144 178 227 294 368 442
#
# _framework density 22.107286999999999
#
# number of rings (size 3 to 8) (size 9 to 14) (size 15 to 20)
#    0.000    0.727    5.455    2.727    7.636    0.000 
#    0.000    7.273    0.000    4.364    0.000    0.000 
#    0.000    0.000    0.000    0.000    0.000    0.000 
#
# Total GULP energy -245551.990645 kJ/mol
# GULP energy per Si atom -5580.727060 kJ/mol
# Density = 2.205697 g / cm^3
# Si number density = 22.107287 Si / 1000 Ang^3
#
#
#
# Elastic Constant Matrix: (Units=GPa)
#
#
# Indices 1 2 3 4 5 6 
#
# 1 65.8696 40.8080 14.6746 0.0000 0.0000 0.0000
# 2 40.8080 134.2395 41.4622 0.0000 0.0000 0.0000
# 3 14.6746 41.4622 127.7182 0.0000 0.0000 0.0000
# 4 0.0000 0.0000 0.0000 20.2016 0.0000 0.0000
# 5 0.0000 0.0000 0.0000 0.0000 22.8519 0.0000
# 6 0.0000 0.0000 0.0000 0.0000 0.0000 39.4961
#
#
#
# Elastic Compliance Matrix: (Units=1/GPa)
#
#
# Indices 1 2 3 4 5 6 
#
# 1 0.018717 -0.005586 -0.000337 0.000000 0.000000 0.000000
# 2 -0.005586 0.009947 -0.002587 0.000000 0.000000 0.000000
# 3 -0.000337 -0.002587 0.008708 0.000000 0.000000 0.000000
# 4 0.000000 0.000000 0.000000 0.049501 0.000000 0.000000
# 5 0.000000 0.000000 0.000000 0.000000 0.043760 0.000000
# 6 0.000000 0.000000 0.000000 0.000000 0.000000 0.025319
#
#
# Mechanical properties :
#
#
# Convention : Reuss Voigt Hill
#
# Bulk Modulus (GPa) = 49.13601 57.96855 53.55228
# Shear Modulus (GPa) = 27.81543 31.90208 29.85876
#
# Velocity S-wave (km/s) = 3.55096 3.80288 3.67908
# Velocity P-wave (km/s) = 6.25195 6.74988 6.50568
#
# Compressibility (1/GPa) = 0.02035167
#
# Stress axis : x y z
#
# Youngs Moduli (GPa) = 53.42690 100.53772 114.83175
#
# Poissons Ratio (x) = 0.56158 0.03872
# Poissons Ratio (y) = 0.29843 0.29709
# Poissons Ratio (z) = 0.01802 0.26011
#
# Static dielectric constant tensor:
#      x y z
#    x 2.013470 0.000000 0.000000 
#    y 0.000000 1.901750 0.000000 
#    z 0.000000 0.000000 1.904250 
# 
# From -- ./inp_files/40752.got.cif
#   From: 2010.05.17/outbox.cif.g08.bks.cpg/sg68_21_cif.got.tgz:40752.got - 2010.06.03 18:57:09.
