data_PCOD9509739
_publ_section_title
;
Structure prediction by ZEFSAII (Michael W. Deem and Ramdas Pophale) SiO2 
 PCOD9509739
Probable space group: C C C A
;
_chemical_formula_sum "Si O2"
_cell_formula_units_Z 64
_cell_length_a 8.929757
_cell_length_b 25.321844
_cell_length_c 12.484628
_cell_angle_alpha 90.000000
_cell_angle_beta 90.000000
_cell_angle_gamma 90.000000
_cell_volume 2822.998037
_symmetry_space_group_name_H-M "C C C A"
_symmetry_group_IT_number 68
_space_group.IT_coordinate_system_code '2'
_symmetry_cell_setting 'orthorhombic'
loop_
_space_group_symop_operation_xyz
x,y,z
-x,1/2-y,z
x,1/2-y,1/2-z
-x,y,1/2-z
-x,-y,-z
x,1/2+y,-z
-x,1/2+y,1/2+z
x,-y,1/2+z
1/2+x,1/2+y,z
1/2-x,-y,z
1/2+x,-y,1/2-z
1/2-x,1/2+y,1/2-z
1/2-x,1/2-y,-z
1/2+x,y,-z
1/2-x,y,1/2+z
1/2+x,1/2-y,1/2+z
loop_
_atom_site_type_symbol
_atom_site_label
_atom_site_fract_x
_atom_site_fract_y
_atom_site_fract_z
Si Si1 0.228617 0.791672 0.346468
Si Si2 0.250000 0.000000 0.724186
Si Si3 0.034162 0.554811 0.939952
Si Si4 0.000000 0.250000 0.022383
Si Si5 0.710636 0.592229 0.865939
O O1 0.211203 0.750000 0.250000
O O2 0.391983 0.784290 0.400886
O O3 0.204297 0.851604 0.308478
O O4 0.110473 0.780656 0.441627
O O5 0.353055 0.037528 0.652800
O O6 0.161457 0.041495 0.797595
O O7 0.881973 0.579638 0.897274
O O8 0.115120 0.592227 0.025467
O O9 0.000000 0.500000 0.000000
#
# Coordination Sequence:
#
# PCOD9509739 Si02
#       5
#    16   8  16   8  16
#     4  11  25  48  72 105 140 190 243 300 362 426
#     4  12  24  40  70 100 140 180 232 280 354 430
#     4  12  23  46  65 101 141 182 231 283 355 426
#     4  10  24  48  74  98 142 184 246 302 356 426
#     4  12  26  43  72 102 141 186 231 296 352 428
#
# _framework density 22.670933999999999
#
# number of rings (size 3 to 8) (size 9 to 14) (size 15 to 20)
#    0.000    0.500    5.000    3.000    0.000    8.000 
#    9.000    0.000    0.000    0.000    0.000    0.000 
#    0.000    0.000    0.000    0.000    0.000    0.000 
#
# Total GULP energy -179133.031001 kJ/mol
# GULP energy per Si atom -5597.907219 kJ/mol
# Density = 2.261933 g / cm^3
# Si number density = 22.670934 Si / 1000 Ang^3
#
#
#
# Elastic Constant Matrix: (Units=GPa)
#
#
# Indices 1 2 3 4 5 6 
#
# 1 87.2135 3.2401 15.3571 0.0000 0.0000 0.0000
# 2 3.2401 160.8440 42.0297 0.0000 0.0000 0.0000
# 3 15.3571 42.0297 100.0604 0.0000 0.0000 0.0000
# 4 0.0000 0.0000 0.0000 36.5776 0.0000 0.0000
# 5 0.0000 0.0000 0.0000 0.0000 31.5179 0.0000
# 6 0.0000 0.0000 0.0000 0.0000 0.0000 9.7629
#
#
#
# Elastic Compliance Matrix: (Units=1/GPa)
#
#
# Indices 1 2 3 4 5 6 
#
# 1 0.011795 0.000264 -0.001921 0.000000 0.000000 0.000000
# 2 0.000264 0.006990 -0.002977 0.000000 0.000000 0.000000
# 3 -0.001921 -0.002977 0.011539 0.000000 0.000000 0.000000
# 4 0.000000 0.000000 0.000000 0.027339 0.000000 0.000000
# 5 0.000000 0.000000 0.000000 0.000000 0.031728 0.000000
# 6 0.000000 0.000000 0.000000 0.000000 0.000000 0.102429
#
#
# Mechanical properties :
#
#
# Convention : Reuss Voigt Hill
#
# Bulk Modulus (GPa) = 47.49105 52.15242 49.82174
# Shear Modulus (GPa) = 24.02637 34.73775 29.38206
#
# Velocity S-wave (km/s) = 3.25897 3.91865 3.60394
# Velocity P-wave (km/s) = 5.92913 6.59761 6.27229
#
# Compressibility (1/GPa) = 0.02105660
#
# Stress axis : x y z
#
# Youngs Moduli (GPa) = 84.78456 143.06827 86.66174
#
# Poissons Ratio (x) = -0.03784 0.16650
# Poissons Ratio (y) = -0.02242 0.25795
# Poissons Ratio (z) = 0.16290 0.42585
#
# Static dielectric constant tensor:
#      x y z
#    x 1.809410 0.000000 0.000000 
#    y 0.000000 1.802740 0.000000 
#    z 0.000000 0.000000 1.898020 
# 
# From -- ./inp_files/10779.got.cif
#   From: 2010.05.17/outbox.cif.g08.bks.cpg/sg68_6_cif.got.tgz:10779.got - 2010.06.03 18:57:09.
