data_PCOD9509227
_publ_section_title
;
Structure prediction by ZEFSAII (Michael W. Deem and Ramdas Pophale) SiO2 
 PCOD9509227
Probable space group: C C C A
;
_chemical_formula_sum "Si O2"
_cell_formula_units_Z 112
_cell_length_a 15.925359
_cell_length_b 11.606482
_cell_length_c 28.077642
_cell_angle_alpha 90.000000
_cell_angle_beta 90.000000
_cell_angle_gamma 90.000000
_cell_volume 5189.798137
_symmetry_space_group_name_H-M "C C C A"
_symmetry_group_IT_number 68
_space_group.IT_coordinate_system_code '2'
_symmetry_cell_setting 'orthorhombic'
loop_
_space_group_symop_operation_xyz
x,y,z
-x,1/2-y,z
x,1/2-y,1/2-z
-x,y,1/2-z
-x,-y,-z
x,1/2+y,-z
-x,1/2+y,1/2+z
x,-y,1/2+z
1/2+x,1/2+y,z
1/2-x,-y,z
1/2+x,-y,1/2-z
1/2-x,1/2+y,1/2-z
1/2-x,1/2-y,-z
1/2+x,y,-z
1/2-x,y,1/2+z
1/2+x,1/2-y,1/2+z
loop_
_atom_site_type_symbol
_atom_site_label
_atom_site_fract_x
_atom_site_fract_y
_atom_site_fract_z
Si Si1 0.100355 0.117207 0.246171
Si Si2 0.673952 0.583393 0.482806
Si Si3 0.848421 0.482925 0.144830
Si Si4 0.602163 0.741596 0.089965
Si Si5 0.844413 0.547510 0.847029
Si Si6 0.570303 0.087090 0.071376
Si Si7 0.116861 0.336712 0.923544
O O1 0.130118 0.250000 0.250000
O O2 0.122105 0.061792 0.195706
O O3 0.137260 0.048919 0.291156
O O4 0.000000 0.118692 0.250000
O O5 0.750000 0.500000 0.466946
O O6 0.651637 0.702836 0.455218
O O7 0.596076 0.502934 0.468584
O O8 0.679215 0.607489 0.538487
O O9 0.750000 0.500000 0.145730
O O10 0.876571 0.388506 0.105295
O O11 0.878692 0.608590 0.128429
O O12 0.500000 0.750000 0.084859
O O13 0.636973 0.824135 0.132502
O O14 0.750000 0.500000 0.855805
O O15 0.910976 0.474080 0.878143
O O16 0.477052 0.128808 0.061776
O O17 0.626820 0.201086 0.072941
#
# Coordination Sequence:
#
# PCOD9509227 Si02
#       7
#    16  16  16  16  16  16  16
#     4  11  22  42  72 101 133 172 229 278 330 403
#     4  11  25  42  67  94 129 177 232 280 334 400
#     4  12  26  40  65 104 139 169 217 289 342 384
#     4  11  23  42  72  98 132 177 234 277 334 405
#     4  11  23  43  71  98 134 175 224 281 334 407
#     4  10  23  42  65  91 130 178 227 270 342 402
#     4  11  25  41  63  93 137 178 220 279 334 410
#
# _framework density 21.5808
#
# number of rings (size 3 to 8) (size 9 to 14) (size 15 to 20)
#    0.000    1.000    1.429    6.429    8.000    0.571 
#    0.000    0.714    0.000    2.571    0.000    0.000 
#    0.000    0.000    0.000    0.000    0.000    0.000 
#
# Total GULP energy -312800.264726 kJ/mol
# GULP energy per Si atom -5585.719013 kJ/mol
# Density = 2.153168 g / cm^3
# Si number density = 21.580800 Si / 1000 Ang^3
#
#
#
# Elastic Constant Matrix: (Units=GPa)
#
#
# Indices 1 2 3 4 5 6 
#
# 1 78.5851 -1.0533 1.8679 0.0000 0.0000 0.0000
# 2 -1.0533 76.3230 36.9959 0.0000 0.0000 0.0000
# 3 1.8679 36.9959 102.6339 0.0000 0.0000 0.0000
# 4 0.0000 0.0000 0.0000 96.1950 0.0000 0.0000
# 5 0.0000 0.0000 0.0000 0.0000 248.8085 0.0000
# 6 0.0000 0.0000 0.0000 0.0000 0.0000 30.5493
#
#
#
# Elastic Compliance Matrix: (Units=1/GPa)
#
#
# Indices 1 2 3 4 5 6 
#
# 1 0.012738 0.000349 -0.000358 0.000000 0.000000 0.000000
# 2 0.000349 0.015886 -0.005733 0.000000 0.000000 0.000000
# 3 -0.000358 -0.005733 0.011816 0.000000 0.000000 0.000000
# 4 0.000000 0.000000 0.000000 0.010396 0.000000 0.000000
# 5 0.000000 0.000000 0.000000 0.000000 0.004019 0.000000
# 6 0.000000 0.000000 0.000000 0.000000 0.000000 0.032734
#
#
# Mechanical properties :
#
#
# Convention : Reuss Voigt Hill
#
# Bulk Modulus (GPa) = 34.53271 37.01810 35.77541
# Shear Modulus (GPa) = 45.98802 89.75933 67.87367
#
# Velocity S-wave (km/s) = 4.62125 6.45620 5.61420
# Velocity P-wave (km/s) = 6.67165 8.53037 7.65761
#
# Compressibility (1/GPa) = 0.02895805
#
# Stress axis : x y z
#
# Youngs Moduli (GPa) = 78.50374 62.94933 84.62895
#
# Poissons Ratio (x) = -0.02198 0.03027
# Poissons Ratio (y) = -0.02741 0.48515
# Poissons Ratio (z) = 0.02808 0.36086
#
# Static dielectric constant tensor:
#      x y z
#    x 1.706190 0.000000 0.000000 
#    y 0.000000 1.786140 0.000000 
#    z 0.000000 0.000000 1.797710 
# 
# From -- ./inp_files/54841.got.cif
#   From: 2010.05.17/outbox.cif.g08.bks.cpg/sg68_28_cif.got.tgz:54841.got - 2010.06.03 18:57:09.
