data_PCOD9509990
_publ_section_title
;
Structure prediction by ZEFSAII (Michael W. Deem and Ramdas Pophale) SiO2 
 PCOD9509990
Probable space group: C C C A
;
_chemical_formula_sum "Si O2"
_cell_formula_units_Z 116
_cell_length_a 12.132420
_cell_length_b 27.351660
_cell_length_c 16.909051
_cell_angle_alpha 90.000000
_cell_angle_beta 90.000000
_cell_angle_gamma 90.000000
_cell_volume 5611.130374
_symmetry_space_group_name_H-M "C C C A"
_symmetry_group_IT_number 68
_space_group.IT_coordinate_system_code '2'
_symmetry_cell_setting 'orthorhombic'
loop_
_space_group_symop_operation_xyz
x,y,z
-x,1/2-y,z
x,1/2-y,1/2-z
-x,y,1/2-z
-x,-y,-z
x,1/2+y,-z
-x,1/2+y,1/2+z
x,-y,1/2+z
1/2+x,1/2+y,z
1/2-x,-y,z
1/2+x,-y,1/2-z
1/2-x,1/2+y,1/2-z
1/2-x,1/2-y,-z
1/2+x,y,-z
1/2-x,y,1/2+z
1/2+x,1/2-y,1/2+z
loop_
_atom_site_type_symbol
_atom_site_label
_atom_site_fract_x
_atom_site_fract_y
_atom_site_fract_z
Si Si1 0.642262 0.631984 0.524516
Si Si2 0.840085 0.105011 0.367127
Si Si3 0.249958 0.596930 0.194760
Si Si4 0.568993 0.331552 0.870188
Si Si5 0.346532 0.531720 0.070452
Si Si6 0.500846 0.895324 0.834485
Si Si7 0.454990 0.995214 0.162450
Si Si8 0.500000 0.750000 0.250000
O O1 0.764876 0.626823 0.562196
O O2 0.603075 0.673182 0.462310
O O3 0.627606 0.579874 0.479520
O O4 0.556872 0.633343 0.596031
O O5 0.766789 0.106244 0.287380
O O6 0.873200 0.047267 0.367366
O O7 0.954994 0.136226 0.362116
O O8 0.326510 0.638562 0.159693
O O9 0.304003 0.548515 0.157580
O O10 0.129143 0.595879 0.157005
O O11 0.560854 0.285655 0.812011
O O12 0.250000 0.500000 0.032726
O O13 0.455512 0.503158 0.092350
O O14 0.500000 0.869112 0.750000
O O15 0.567587 0.947129 0.826209
O O16 0.500000 0.979669 0.250000
#
# Coordination Sequence:
#
# PCOD9509990 Si02
#       8
#    16  16  16  16  16  16  16   4
#     4  11  27  39  62  98 139 184 223 284 349 401
#     4  12  21  41  64  93 133 181 234 281 341 394
#     4  11  20  40  65  87 126 181 229 282 337 406
#     4  11  25  44  75 103 124 165 218 286 353 430
#     4  11  22  34  51  85 126 178 232 285 325 364
#     4  11  24  39  57  94 137 192 236 272 331 395
#     4  11  21  34  59  88 131 188 251 286 305 376
#     4  12  24  52  84 108 124 160 228 288 368 454
#
# _framework density 20.673196999999998
#
# number of rings (size 3 to 8) (size 9 to 14) (size 15 to 20)
#    0.000    0.828    8.276    0.000    5.793    0.552 
#    0.000    0.690    0.000    0.000    0.000    0.000 
#    0.000    0.000    0.000    0.000    0.000    0.000 
#
# Total GULP energy -323018.253790 kJ/mol
# GULP energy per Si atom -5569.280238 kJ/mol
# Density = 2.062614 g / cm^3
# Si number density = 20.673197 Si / 1000 Ang^3
#
#
#
# Elastic Constant Matrix: (Units=GPa)
#
#
# Indices 1 2 3 4 5 6 
#
# 1 88.9715 16.2642 37.6976 0.0000 0.0000 0.0000
# 2 16.2642 54.5849 32.6230 0.0000 0.0000 0.0000
# 3 37.6976 32.6230 125.4836 0.0000 0.0000 0.0000
# 4 0.0000 0.0000 0.0000 33.8478 0.0000 0.0000
# 5 0.0000 0.0000 0.0000 0.0000 34.3296 0.0000
# 6 0.0000 0.0000 0.0000 0.0000 0.0000 6.9875
#
#
#
# Elastic Compliance Matrix: (Units=1/GPa)
#
#
# Indices 1 2 3 4 5 6 
#
# 1 0.013031 -0.001827 -0.003440 0.000000 0.000000 0.000000
# 2 -0.001827 0.021946 -0.005157 0.000000 0.000000 0.000000
# 3 -0.003440 -0.005157 0.010343 0.000000 0.000000 0.000000
# 4 0.000000 0.000000 0.000000 0.029544 0.000000 0.000000
# 5 0.000000 0.000000 0.000000 0.000000 0.029129 0.000000
# 6 0.000000 0.000000 0.000000 0.000000 0.000000 0.143113
#
#
# Mechanical properties :
#
#
# Convention : Reuss Voigt Hill
#
# Bulk Modulus (GPa) = 40.86027 49.13439 44.99733
# Shear Modulus (GPa) = 18.10861 27.19667 22.65264
#
# Velocity S-wave (km/s) = 2.96285 3.63099 3.31380
# Velocity P-wave (km/s) = 5.61359 6.43409 6.03780
#
# Compressibility (1/GPa) = 0.02447365
#
# Stress axis : x y z
#
# Youngs Moduli (GPa) = 76.74032 45.56562 96.68211
#
# Poissons Ratio (x) = 0.08324 0.33257
# Poissons Ratio (y) = 0.14020 0.49856
# Poissons Ratio (z) = 0.26397 0.23497
#
# Static dielectric constant tensor:
#      x y z
#    x 1.875530 0.000000 0.000000 
#    y 0.000000 1.741350 0.000000 
#    z 0.000000 0.000000 1.853700 
# 
# From -- ./inp_files/30093.got.cif
#   From: 2010.05.17/outbox.cif.g08.bks.cpg/sg68_16_cif.got.tgz:30093.got - 2010.06.03 18:57:09.
