data_PCOD9509363
_publ_section_title
;
Structure prediction by ZEFSAII (Michael W. Deem and Ramdas Pophale) SiO2 
 PCOD9509363
Probable space group: C C C A
;
_chemical_formula_sum "Si O2"
_cell_formula_units_Z 84
_cell_length_a 17.677911
_cell_length_b 23.487845
_cell_length_c 9.184114
_cell_angle_alpha 90.000000
_cell_angle_beta 90.000000
_cell_angle_gamma 90.000000
_cell_volume 3813.391386
_symmetry_space_group_name_H-M "C C C A"
_symmetry_group_IT_number 68
_space_group.IT_coordinate_system_code '2'
_symmetry_cell_setting 'orthorhombic'
loop_
_space_group_symop_operation_xyz
x,y,z
-x,1/2-y,z
x,1/2-y,1/2-z
-x,y,1/2-z
-x,-y,-z
x,1/2+y,-z
-x,1/2+y,1/2+z
x,-y,1/2+z
1/2+x,1/2+y,z
1/2-x,-y,z
1/2+x,-y,1/2-z
1/2-x,1/2+y,1/2-z
1/2-x,1/2-y,-z
1/2+x,y,-z
1/2-x,y,1/2+z
1/2+x,1/2-y,1/2+z
loop_
_atom_site_type_symbol
_atom_site_label
_atom_site_fract_x
_atom_site_fract_y
_atom_site_fract_z
Si Si1 0.000000 0.750000 0.250000
Si Si2 0.777945 0.134603 0.651077
Si Si3 0.395948 0.796339 0.011207
Si Si4 0.671712 0.025530 0.332777
Si Si5 0.500000 0.350986 0.750000
Si Si6 0.791798 0.250000 0.250000
Si Si7 0.624979 0.071095 0.608189
O O1 0.941741 0.779762 0.134984
O O2 0.839465 0.152380 0.531452
O O3 0.809989 0.083663 0.748622
O O4 0.757848 0.192829 0.737272
O O5 0.699718 0.109992 0.588690
O O6 0.456104 0.814543 0.131415
O O7 0.342481 0.752626 0.102135
O O8 0.612029 0.039709 0.456692
O O9 0.750000 0.000000 0.399636
O O10 0.643558 0.977220 0.224985
O O11 0.441211 0.389896 0.664335
#
# Coordination Sequence:
#
# PCOD9509363 Si02
#       7
#     4  16  16  16   8   8  16
#     4  12  30  46  70 106 156 198 244 300 386 440
#     4  11  24  44  78 109 137 190 254 301 358 448
#     4  12  27  48  71 107 151 197 245 304 371 453
#     4  10  23  44  73 106 143 185 245 309 361 434
#     4  12  28  49  71 106 156 198 240 308 392 438
#     4  12  23  47  80 104 146 188 246 302 373 441
#     4  11  25  45  73 103 145 192 244 300 374 434
#
# _framework density 22.027638
#
# number of rings (size 3 to 8) (size 9 to 14) (size 15 to 20)
#    0.000    0.762    1.905    5.143    8.000    0.762 
#    0.000    0.000    0.000    0.000    0.000    0.000 
#    0.000    0.000    0.000    0.000    0.000    0.000 
#
# Total GULP energy -234970.999513 kJ/mol
# GULP energy per Si atom -5594.547607 kJ/mol
# Density = 2.197750 g / cm^3
# Si number density = 22.027638 Si / 1000 Ang^3
#
#
#
# Elastic Constant Matrix: (Units=GPa)
#
#
# Indices 1 2 3 4 5 6 
#
# 1 90.6448 25.3274 38.9139 0.0000 0.0000 0.0000
# 2 25.3274 89.8213 18.8261 0.0000 0.0000 0.0000
# 3 38.9139 18.8261 90.7087 0.0000 0.0000 0.0000
# 4 0.0000 0.0000 0.0000 30.3703 0.0000 0.0000
# 5 0.0000 0.0000 0.0000 0.0000 38.8852 0.0000
# 6 0.0000 0.0000 0.0000 0.0000 0.0000 13.2500
#
#
#
# Elastic Compliance Matrix: (Units=1/GPa)
#
#
# Indices 1 2 3 4 5 6 
#
# 1 0.014187 -0.002849 -0.005495 0.000000 0.000000 0.000000
# 2 -0.002849 0.012212 -0.001312 0.000000 0.000000 0.000000
# 3 -0.005495 -0.001312 0.013654 0.000000 0.000000 0.000000
# 4 0.000000 0.000000 0.000000 0.032927 0.000000 0.000000
# 5 0.000000 0.000000 0.000000 0.000000 0.025717 0.000000
# 6 0.000000 0.000000 0.000000 0.000000 0.000000 0.075472
#
#
# Mechanical properties :
#
#
# Convention : Reuss Voigt Hill
#
# Bulk Modulus (GPa) = 48.21474 48.58994 48.40234
# Shear Modulus (GPa) = 24.95090 29.04161 26.99625
#
# Velocity S-wave (km/s) = 3.36923 3.63494 3.50460
# Velocity P-wave (km/s) = 6.08863 6.30266 6.19657
#
# Compressibility (1/GPa) = 0.02074055
#
# Stress axis : x y z
#
# Youngs Moduli (GPa) = 70.48698 81.88976 73.23852
#
# Poissons Ratio (x) = 0.23328 0.40244
# Poissons Ratio (y) = 0.20079 0.09612
# Poissons Ratio (z) = 0.38732 0.10747
#
# Static dielectric constant tensor:
#      x y z
#    x 1.809390 0.000000 0.000000 
#    y 0.000000 1.786110 0.000000 
#    z 0.000000 0.000000 1.806240 
# 
# From -- ./inp_files/7112.got.cif
#   From: 2010.05.17/outbox.cif.g08.bks.cpg/sg68_4_cif.got.tgz:7112.got - 2010.06.03 18:57:09.
