data_PCOD9509787
_publ_section_title
;
Structure prediction by ZEFSAII (Michael W. Deem and Ramdas Pophale) SiO2 
 PCOD9509787
Probable space group: C C C A
;
_chemical_formula_sum "Si O2"
_cell_formula_units_Z 72
_cell_length_a 24.975663
_cell_length_b 7.571235
_cell_length_c 16.264653
_cell_angle_alpha 90.000000
_cell_angle_beta 90.000000
_cell_angle_gamma 90.000000
_cell_volume 3075.590808
_symmetry_space_group_name_H-M "C C C A"
_symmetry_group_IT_number 68
_space_group.IT_coordinate_system_code '2'
_symmetry_cell_setting 'orthorhombic'
loop_
_space_group_symop_operation_xyz
x,y,z
-x,1/2-y,z
x,1/2-y,1/2-z
-x,y,1/2-z
-x,-y,-z
x,1/2+y,-z
-x,1/2+y,1/2+z
x,-y,1/2+z
1/2+x,1/2+y,z
1/2-x,-y,z
1/2+x,-y,1/2-z
1/2-x,1/2+y,1/2-z
1/2-x,1/2-y,-z
1/2+x,y,-z
1/2-x,y,1/2+z
1/2+x,1/2-y,1/2+z
loop_
_atom_site_type_symbol
_atom_site_label
_atom_site_fract_x
_atom_site_fract_y
_atom_site_fract_z
Si Si1 0.715143 0.654805 0.570037
Si Si2 0.054891 0.854988 0.605909
Si Si3 0.393782 0.452956 0.516962
Si Si4 0.145422 0.111212 0.821332
Si Si5 0.375910 0.250000 0.750000
O O1 0.750000 0.500000 0.608996
O O2 0.750000 0.750000 0.500000
O O3 0.663067 0.561367 0.529020
O O4 0.695656 0.794591 0.636543
O O5 0.097369 0.739769 0.554641
O O6 0.057996 0.024648 0.548741
O O7 0.083076 0.862463 0.693138
O O8 0.000000 0.750000 0.611221
O O9 0.393408 0.575047 0.599346
O O10 0.127253 0.250000 0.750000
O O11 0.156304 0.911214 0.790350
#
# Coordination Sequence:
#
# PCOD9509787 Si02
#       5
#    16  16  16  16   8
#     4  12  23  44  74 104 144 199 258 311 379 451
#     4  11  22  41  70 105 143 192 247 301 373 452
#     4  11  22  42  71 101 143 190 247 310 371 437
#     4  11  24  46  72 103 150 195 242 312 375 440
#     4  10  25  42  74 106 152 196 240 308 387 438
#
# _framework density 23.410136999999999
#
# number of rings (size 3 to 8) (size 9 to 14) (size 15 to 20)
#    0.000    0.889    4.444    2.333    0.000    1.778 
#    4.000    0.000    2.444    0.000    0.000    0.000 
#    0.000    0.000    0.000    0.000    0.000    0.000 
#
# Total GULP energy -200762.312361 kJ/mol
# GULP energy per Si atom -5576.730899 kJ/mol
# Density = 2.335685 g / cm^3
# Si number density = 23.410137 Si / 1000 Ang^3
#
#
#
# Elastic Constant Matrix: (Units=GPa)
#
#
# Indices 1 2 3 4 5 6 
#
# 1 74.6422 26.3687 19.1544 0.0000 0.0000 0.0000
# 2 26.3687 119.2132 39.9996 0.0000 0.0000 0.0000
# 3 19.1544 39.9996 101.6358 0.0000 0.0000 0.0000
# 4 0.0000 0.0000 0.0000 39.4157 0.0000 0.0000
# 5 0.0000 0.0000 0.0000 0.0000 32.0240 0.0000
# 6 0.0000 0.0000 0.0000 0.0000 0.0000 33.7261
#
#
#
# Elastic Compliance Matrix: (Units=1/GPa)
#
#
# Indices 1 2 3 4 5 6 
#
# 1 0.014792 -0.002692 -0.001728 0.000000 0.000000 0.000000
# 2 -0.002692 0.010154 -0.003489 0.000000 0.000000 0.000000
# 3 -0.001728 -0.003489 0.011538 0.000000 0.000000 0.000000
# 4 0.000000 0.000000 0.000000 0.025371 0.000000 0.000000
# 5 0.000000 0.000000 0.000000 0.000000 0.031227 0.000000
# 6 0.000000 0.000000 0.000000 0.000000 0.000000 0.029651
#
#
# Mechanical properties :
#
#
# Convention : Reuss Voigt Hill
#
# Bulk Modulus (GPa) = 48.38942 51.83741 50.11341
# Shear Modulus (GPa) = 34.37874 35.03107 34.70490
#
# Velocity S-wave (km/s) = 3.83631 3.87254 3.85447
# Velocity P-wave (km/s) = 6.35124 6.49512 6.42358
#
# Compressibility (1/GPa) = 0.02066568
#
# Stress axis : x y z
#
# Youngs Moduli (GPa) = 67.60547 98.47917 86.67089
#
# Poissons Ratio (x) = 0.26510 0.14979
# Poissons Ratio (y) = 0.18199 0.30240
# Poissons Ratio (z) = 0.11684 0.34360
#
# Static dielectric constant tensor:
#      x y z
#    x 1.850900 0.000000 0.000000 
#    y 0.000000 2.204830 0.000000 
#    z 0.000000 0.000000 2.206010 
# 
# From -- ./inp_files/25853.got.cif
#   From: 2010.05.17/outbox.cif.g08.bks.cpg/sg68_13_cif.got.tgz:25853.got - 2010.06.03 18:57:09.
