data_PCOD9509893
_publ_section_title
;
Structure prediction by ZEFSAII (Michael W. Deem and Ramdas Pophale) SiO2 
 PCOD9509893
Probable space group: C C C A
;
_chemical_formula_sum "Si O2"
_cell_formula_units_Z 72
_cell_length_a 9.750864
_cell_length_b 25.651467
_cell_length_c 12.655757
_cell_angle_alpha 90.000000
_cell_angle_beta 90.000000
_cell_angle_gamma 90.000000
_cell_volume 3165.508135
_symmetry_space_group_name_H-M "C C C A"
_symmetry_group_IT_number 68
_space_group.IT_coordinate_system_code '2'
_symmetry_cell_setting 'orthorhombic'
loop_
_space_group_symop_operation_xyz
x,y,z
-x,1/2-y,z
x,1/2-y,1/2-z
-x,y,1/2-z
-x,-y,-z
x,1/2+y,-z
-x,1/2+y,1/2+z
x,-y,1/2+z
1/2+x,1/2+y,z
1/2-x,-y,z
1/2+x,-y,1/2-z
1/2-x,1/2+y,1/2-z
1/2-x,1/2-y,-z
1/2+x,y,-z
1/2-x,y,1/2+z
1/2+x,1/2-y,1/2+z
loop_
_atom_site_type_symbol
_atom_site_label
_atom_site_fract_x
_atom_site_fract_y
_atom_site_fract_z
Si Si1 0.773249 0.782127 0.159560
Si Si2 0.499660 0.069617 0.445470
Si Si3 0.250000 0.500000 0.010270
Si Si4 0.000000 0.250000 0.992598
Si Si5 0.500000 0.354683 0.250000
Si Si6 0.524298 0.152634 0.624314
O O1 0.693723 0.750000 0.250000
O O2 0.875838 0.817123 0.226296
O O3 0.677910 0.825320 0.106297
O O4 0.867666 0.747018 0.083681
O O5 0.354955 0.039130 0.429260
O O6 0.520150 0.110419 0.352643
O O7 0.495101 0.100769 0.557185
O O8 0.634320 0.032816 0.447483
O O9 0.046531 0.201670 0.065946
O O10 0.500000 0.146623 0.750000
#
# Coordination Sequence:
#
# PCOD9509893 Si02
#       6
#    16  16   8   8   8  16
#     4  12  22  42  66 104 146 194 238 281 347 422
#     4  11  25  49  73 105 137 183 234 303 358 433
#     4  10  26  52  72 102 138 176 240 298 378 418
#     4  12  22  44  66 104 148 191 235 284 342 426
#     4  12  23  42  76 102 136 182 242 287 356 422
#     4  12  27  42  68 106 147 187 234 287 350 425
#
# _framework density 22.745163999999999
#
# number of rings (size 3 to 8) (size 9 to 14) (size 15 to 20)
#    0.000    0.444    4.444    3.667    3.111    0.889 
#    8.000    0.000    0.000    0.000    0.000    0.000 
#    0.000    0.000    0.000    0.000    0.000    0.000 
#
# Total GULP energy -200813.974417 kJ/mol
# GULP energy per Si atom -5578.165956 kJ/mol
# Density = 2.269340 g / cm^3
# Si number density = 22.745164 Si / 1000 Ang^3
#
#
#
# Elastic Constant Matrix: (Units=GPa)
#
#
# Indices 1 2 3 4 5 6 
#
# 1 108.1442 13.6983 25.8066 0.0000 0.0000 0.0000
# 2 13.6983 84.4054 49.6501 0.0000 0.0000 0.0000
# 3 25.8066 49.6501 146.2405 0.0000 0.0000 0.0000
# 4 0.0000 0.0000 0.0000 68.4998 0.0000 0.0000
# 5 0.0000 0.0000 0.0000 0.0000 -47.9399 0.0000
# 6 0.0000 0.0000 0.0000 0.0000 0.0000 -35.8632
#
#
#
# Elastic Compliance Matrix: (Units=1/GPa)
#
#
# Indices 1 2 3 4 5 6 
#
# 1 0.009687 -0.000708 -0.001469 0.000000 0.000000 0.000000
# 2 -0.000708 0.014856 -0.004919 0.000000 0.000000 0.000000
# 3 -0.001469 -0.004919 0.008767 0.000000 0.000000 0.000000
# 4 0.000000 0.000000 0.000000 0.014599 0.000000 0.000000
# 5 0.000000 0.000000 0.000000 0.000000 -0.020859 0.000000
# 6 0.000000 0.000000 0.000000 0.000000 0.000000 -0.027884
#
#
# Mechanical properties :
#
#
# Convention : Reuss Voigt Hill
#
# Bulk Modulus (GPa) = 52.30507 57.45557 54.88032
# Shear Modulus (GPa) = 253.41742 13.58168 133.49955
#
# Velocity S-wave (km/s) = 10.56683 2.44626 7.66949
# Velocity P-wave (km/s) = 13.11195 5.77012 10.12960
#
# Compressibility (1/GPa) = 0.01911860
#
# Stress axis : x y z
#
# Youngs Moduli (GPa) = 103.22937 67.31343 114.06053
#
# Poissons Ratio (x) = 0.04766 0.16757
# Poissons Ratio (y) = 0.07308 0.56104
# Poissons Ratio (z) = 0.15165 0.33110
#
# Static dielectric constant tensor:
#      x y z
#    x 1.661110 0.000000 0.000000 
#    y 0.000000 1.887550 0.000000 
#    z 0.000000 0.000000 2.049410 
# 
# From -- ./inp_files/11920.got.cif
#   From: 2010.05.17/outbox.cif.g08.bks.cpg/sg68_6_cif.got.tgz:11920.got - 2010.06.03 18:57:09.
