data_PCOD9509639
_publ_section_title
;
Structure prediction by ZEFSAII (Michael W. Deem and Ramdas Pophale) SiO2 
 PCOD9509639
Probable space group: C C C A
;
_chemical_formula_sum "Si O2"
_cell_formula_units_Z 80
_cell_length_a 10.710271
_cell_length_b 15.806054
_cell_length_c 22.965241
_cell_angle_alpha 90.000000
_cell_angle_beta 90.000000
_cell_angle_gamma 90.000000
_cell_volume 3887.719550
_symmetry_space_group_name_H-M "C C C A"
_symmetry_group_IT_number 68
_space_group.IT_coordinate_system_code '2'
_symmetry_cell_setting 'orthorhombic'
loop_
_space_group_symop_operation_xyz
x,y,z
-x,1/2-y,z
x,1/2-y,1/2-z
-x,y,1/2-z
-x,-y,-z
x,1/2+y,-z
-x,1/2+y,1/2+z
x,-y,1/2+z
1/2+x,1/2+y,z
1/2-x,-y,z
1/2+x,-y,1/2-z
1/2-x,1/2+y,1/2-z
1/2-x,1/2-y,-z
1/2+x,y,-z
1/2-x,y,1/2+z
1/2+x,1/2-y,1/2+z
loop_
_atom_site_type_symbol
_atom_site_label
_atom_site_fract_x
_atom_site_fract_y
_atom_site_fract_z
Si Si1 0.199803 0.335807 0.124734
Si Si2 0.750000 0.500000 0.072866
Si Si3 0.434356 0.667542 0.687303
Si Si4 0.634563 0.610902 0.982954
Si Si5 0.500000 0.750000 0.056471
Si Si6 0.474405 0.000283 0.886747
O O1 0.285161 0.319401 0.181025
O O2 0.295342 0.345658 0.070640
O O3 0.113174 0.262589 0.100841
O O4 0.111353 0.419190 0.129415
O O5 0.623216 0.509955 0.109009
O O6 0.737589 0.579717 0.029182
O O7 0.500000 0.750000 0.658481
O O8 0.500000 0.662157 0.750000
O O9 0.453726 0.577875 0.656425
O O10 0.571137 0.531618 0.950252
O O11 0.535663 0.670852 0.015460
#
# Coordination Sequence:
#
# PCOD9509639 Si02
#       6
#    16   8  16  16   8  16
#     4  11  23  41  63  93 134 167 217 261 319 385
#     4  12  20  36  60  88 140 166 208 242 314 382
#     4  10  24  45  69  90 114 158 214 276 331 382
#     4  11  21  36  58  92 134 178 212 247 308 381
#     4  12  24  34  60 101 137 176 208 260 310 384
#     4  11  23  40  62  93 125 173 209 265 312 387
#
# _framework density 20.577615999999999
#
# number of rings (size 3 to 8) (size 9 to 14) (size 15 to 20)
#    0.000    1.000    4.000    4.200    8.400    0.000 
#    3.600    0.000    0.000    0.000    0.000    0.000 
#    0.000    0.000    0.000    0.000    0.000    0.000 
#
# Total GULP energy -222933.106129 kJ/mol
# GULP energy per Si atom -5573.327653 kJ/mol
# Density = 2.053078 g / cm^3
# Si number density = 20.577616 Si / 1000 Ang^3
#
#
#
# Elastic Constant Matrix: (Units=GPa)
#
#
# Indices 1 2 3 4 5 6 
#
# 1 133.8971 9.5671 29.7496 0.0000 0.0000 0.0000
# 2 9.5671 53.8749 9.7551 0.0000 0.0000 0.0000
# 3 29.7496 9.7551 57.0772 0.0000 0.0000 0.0000
# 4 0.0000 0.0000 0.0000 43.6211 0.0000 0.0000
# 5 0.0000 0.0000 0.0000 0.0000 34.4703 0.0000
# 6 0.0000 0.0000 0.0000 0.0000 0.0000 43.9583
#
#
#
# Elastic Compliance Matrix: (Units=1/GPa)
#
#
# Indices 1 2 3 4 5 6 
#
# 1 0.008474 -0.000728 -0.004292 0.000000 0.000000 0.000000
# 2 -0.000728 0.019217 -0.002905 0.000000 0.000000 0.000000
# 3 -0.004292 -0.002905 0.020254 0.000000 0.000000 0.000000
# 4 0.000000 0.000000 0.000000 0.022925 0.000000 0.000000
# 5 0.000000 0.000000 0.000000 0.000000 0.029010 0.000000
# 6 0.000000 0.000000 0.000000 0.000000 0.000000 0.022749
#
#
# Mechanical properties :
#
#
# Convention : Reuss Voigt Hill
#
# Bulk Modulus (GPa) = 31.15805 38.11031 34.63418
# Shear Modulus (GPa) = 33.51715 37.46178 35.48947
#
# Velocity S-wave (km/s) = 4.04024 4.27137 4.15741
# Velocity P-wave (km/s) = 6.07777 6.54879 6.31767
#
# Compressibility (1/GPa) = 0.03209444
#
# Stress axis : x y z
#
# Youngs Moduli (GPa) = 118.00623 52.03789 49.37309
#
# Poissons Ratio (x) = 0.03786 0.21193
# Poissons Ratio (y) = 0.08586 0.14343
# Poissons Ratio (z) = 0.50654 0.15118
#
# Static dielectric constant tensor:
#      x y z
#    x 1.871440 0.000000 0.000000 
#    y 0.000000 1.788470 0.000000 
#    z 0.000000 0.000000 1.762160 
# 
# From -- ./inp_files/44174.got.cif
#   From: 2010.05.17/outbox.cif.g08.bks.cpg/sg68_23_cif.got.tgz:44174.got - 2010.06.03 18:57:09.
