data_PCOD9509357
_publ_section_title
;
Structure prediction by ZEFSAII (Michael W. Deem and Ramdas Pophale) SiO2 
 PCOD9509357
Probable space group: C C C A
;
_chemical_formula_sum "Si O2"
_cell_formula_units_Z 92
_cell_length_a 24.841913
_cell_length_b 19.013682
_cell_length_c 9.323833
_cell_angle_alpha 90.000000
_cell_angle_beta 90.000000
_cell_angle_gamma 90.000000
_cell_volume 4403.984166
_symmetry_space_group_name_H-M "C C C A"
_symmetry_group_IT_number 68
_space_group.IT_coordinate_system_code '2'
_symmetry_cell_setting 'orthorhombic'
loop_
_space_group_symop_operation_xyz
x,y,z
-x,1/2-y,z
x,1/2-y,1/2-z
-x,y,1/2-z
-x,-y,-z
x,1/2+y,-z
-x,1/2+y,1/2+z
x,-y,1/2+z
1/2+x,1/2+y,z
1/2-x,-y,z
1/2+x,-y,1/2-z
1/2-x,1/2+y,1/2-z
1/2-x,1/2-y,-z
1/2+x,y,-z
1/2-x,y,1/2+z
1/2+x,1/2-y,1/2+z
loop_
_atom_site_type_symbol
_atom_site_label
_atom_site_fract_x
_atom_site_fract_y
_atom_site_fract_z
Si Si1 0.737857 0.250000 0.750000
Si Si2 0.066290 0.547499 0.251780
Si Si3 0.500000 0.750000 0.750000
Si Si4 0.094462 0.181731 0.922574
Si Si5 0.110998 0.572861 0.551775
Si Si6 0.441014 0.667073 0.263836
Si Si7 0.180131 0.809497 0.029735
O O1 0.775367 0.198789 0.845140
O O2 0.702775 0.212432 0.627073
O O3 0.097982 0.614843 0.183442
O O4 0.077746 0.545478 0.418958
O O5 0.096890 0.482656 0.175804
O O6 0.000000 0.550196 0.250000
O O7 0.538607 0.710820 0.860532
O O8 0.136675 0.246980 0.926886
O O9 0.086838 0.153136 0.084237
O O10 0.089493 0.643861 0.623371
O O11 0.164575 0.607856 0.485394
O O12 0.445718 0.750000 0.250000
O O13 0.500000 0.633657 0.250000
#
# Coordination Sequence:
#
# PCOD9509357 Si02
#       7
#     8  16   4  16  16  16  16
#     4  10  23  44  72 100 128 164 233 318 384 392
#     4  12  25  41  64  95 151 196 222 266 336 429
#     4  12  22  36  62 100 148 180 238 280 332 426
#     4  12  23  39  65 101 139 186 232 280 344 414
#     4  12  24  43  62  96 134 183 235 276 347 415
#     4  11  21  34  56  89 133 178 224 273 314 394
#     4  11  23  43  71 100 130 174 233 307 355 424
#
# _framework density 20.890174999999999
#
# number of rings (size 3 to 8) (size 9 to 14) (size 15 to 20)
#    0.000    0.522    2.609    7.826    0.000    0.000 
#    0.000    0.000    0.000   17.739    0.000    0.000 
#    0.000    0.000    0.000    0.000    0.000    0.000 
#
# Total GULP energy -256071.081898 kJ/mol
# GULP energy per Si atom -5566.762650 kJ/mol
# Density = 2.084263 g / cm^3
# Si number density = 20.890175 Si / 1000 Ang^3
#
#
#
# Elastic Constant Matrix: (Units=GPa)
#
#
# Indices 1 2 3 4 5 6 
#
# 1 67.5208 28.8171 22.4410 0.0000 0.0000 0.0000
# 2 28.8171 92.8506 19.7289 0.0000 0.0000 0.0000
# 3 22.4410 19.7289 134.7193 0.0000 0.0000 0.0000
# 4 0.0000 0.0000 0.0000 21.3303 0.0000 0.0000
# 5 0.0000 0.0000 0.0000 0.0000 33.6825 0.0000
# 6 0.0000 0.0000 0.0000 0.0000 0.0000 19.5931
#
#
#
# Elastic Compliance Matrix: (Units=1/GPa)
#
#
# Indices 1 2 3 4 5 6 
#
# 1 0.017687 -0.005020 -0.002211 0.000000 0.000000 0.000000
# 2 -0.005020 0.012540 -0.001000 0.000000 0.000000 0.000000
# 3 -0.002211 -0.001000 0.007938 0.000000 0.000000 0.000000
# 4 0.000000 0.000000 0.000000 0.046882 0.000000 0.000000
# 5 0.000000 0.000000 0.000000 0.000000 0.029689 0.000000
# 6 0.000000 0.000000 0.000000 0.000000 0.000000 0.051038
#
#
# Mechanical properties :
#
#
# Convention : Reuss Voigt Hill
#
# Bulk Modulus (GPa) = 46.07611 48.56274 47.31943
# Shear Modulus (GPa) = 26.38920 29.86141 28.12531
#
# Velocity S-wave (km/s) = 3.55806 3.78491 3.67323
# Velocity P-wave (km/s) = 6.24371 6.51136 6.37894
#
# Compressibility (1/GPa) = 0.02170322
#
# Stress axis : x y z
#
# Youngs Moduli (GPa) = 56.53716 79.74202 125.98153
#
# Poissons Ratio (x) = 0.40028 0.27857
# Poissons Ratio (y) = 0.28380 0.12602
# Poissons Ratio (z) = 0.12502 0.07977
#
# Static dielectric constant tensor:
#      x y z
#    x 1.753800 0.000000 0.000000 
#    y 0.000000 1.810770 0.000000 
#    z 0.000000 0.000000 1.811190 
# 
# From -- ./inp_files/8969.got.cif
#   From: 2010.05.17/outbox.cif.g08.bks.cpg/sg68_5_cif.got.tgz:8969.got - 2010.06.03 18:57:09.
