data_PCOD9509752
_publ_section_title
;
Structure prediction by ZEFSAII (Michael W. Deem and Ramdas Pophale) SiO2 
 PCOD9509752
Probable space group: C C C A
;
_chemical_formula_sum "Si O2"
_cell_formula_units_Z 92
_cell_length_a 19.600780
_cell_length_b 12.599627
_cell_length_c 14.897049
_cell_angle_alpha 90.000000
_cell_angle_beta 90.000000
_cell_angle_gamma 90.000000
_cell_volume 3679.012716
_symmetry_space_group_name_H-M "C C C A"
_symmetry_group_IT_number 68
_space_group.IT_coordinate_system_code '2'
_symmetry_cell_setting 'orthorhombic'
loop_
_space_group_symop_operation_xyz
x,y,z
-x,1/2-y,z
x,1/2-y,1/2-z
-x,y,1/2-z
-x,-y,-z
x,1/2+y,-z
-x,1/2+y,1/2+z
x,-y,1/2+z
1/2+x,1/2+y,z
1/2-x,-y,z
1/2+x,-y,1/2-z
1/2-x,1/2+y,1/2-z
1/2-x,1/2-y,-z
1/2+x,y,-z
1/2-x,y,1/2+z
1/2+x,1/2-y,1/2+z
loop_
_atom_site_type_symbol
_atom_site_label
_atom_site_fract_x
_atom_site_fract_y
_atom_site_fract_z
Si Si1 0.735634 0.250000 0.750000
Si Si2 0.175386 0.543834 0.545805
Si Si3 0.024653 0.860511 0.353642
Si Si4 0.888492 0.268651 0.378417
Si Si5 0.843369 0.434347 0.774981
Si Si6 0.500000 0.250000 0.750000
Si Si7 0.421301 0.466825 0.897844
O O1 0.682945 0.260768 0.668503
O O2 0.783337 0.353759 0.750956
O O3 0.250000 0.500000 0.517758
O O4 0.140137 0.660656 0.540318
O O5 0.174556 0.524836 0.653061
O O6 0.123470 0.480042 0.485852
O O7 0.104616 0.865946 0.336600
O O8 0.000000 0.750000 0.395463
O O9 0.000000 0.862183 0.250000
O O10 0.989419 0.962114 0.398319
O O11 0.944304 0.318924 0.308350
O O12 0.928302 0.159318 0.394813
O O13 0.878081 0.485540 0.687126
#
# Coordination Sequence:
#
# PCOD9509752 Si02
#       7
#     8  16  16  16  16   4  16
#     4  11  22  43  77 110 143 200 256 308 389 472
#     4  12  28  49  70 110 153 194 256 321 386 464
#     4   9  20  43  70 107 143 193 250 305 377 450
#     4  11  26  45  74 110 149 200 258 315 389 464
#     4  11  23  44  75 103 147 196 247 318 382 451
#     4  10  24  48  80 108 152 202 250 320 382 472
#     4  11  27  44  77 106 146 202 257 316 383 468
#
# _framework density 25.006709000000001
#
# number of rings (size 3 to 8) (size 9 to 14) (size 15 to 20)
#    0.000    1.217    1.739    4.174    8.522    4.174 
#    1.565    0.000    0.000    0.000    0.000    0.000 
#    0.000    0.000    0.000    0.000    0.000    0.000 
#
# Total GULP energy -256715.909003 kJ/mol
# GULP energy per Si atom -5580.780631 kJ/mol
# Density = 2.494979 g / cm^3
# Si number density = 25.006709 Si / 1000 Ang^3
#
#
#
# Elastic Constant Matrix: (Units=GPa)
#
#
# Indices 1 2 3 4 5 6 
#
# 1 163.1724 40.9345 20.7675 0.0000 0.0000 0.0000
# 2 40.9345 117.8708 7.8630 0.0000 0.0000 0.0000
# 3 20.7675 7.8630 68.6298 0.0000 0.0000 0.0000
# 4 0.0000 0.0000 0.0000 21.5918 0.0000 0.0000
# 5 0.0000 0.0000 0.0000 0.0000 10.0485 0.0000
# 6 0.0000 0.0000 0.0000 0.0000 0.0000 46.0536
#
#
#
# Elastic Compliance Matrix: (Units=1/GPa)
#
#
# Indices 1 2 3 4 5 6 
#
# 1 0.006936 -0.002286 -0.001837 0.000000 0.000000 0.000000
# 2 -0.002286 0.009303 -0.000374 0.000000 0.000000 0.000000
# 3 -0.001837 -0.000374 0.015170 0.000000 0.000000 0.000000
# 4 0.000000 0.000000 0.000000 0.046314 0.000000 0.000000
# 5 0.000000 0.000000 0.000000 0.000000 0.099518 0.000000
# 6 0.000000 0.000000 0.000000 0.000000 0.000000 0.021714
#
#
# Mechanical properties :
#
#
# Convention : Reuss Voigt Hill
#
# Bulk Modulus (GPa) = 44.61476 54.31142 49.46309
# Shear Modulus (GPa) = 23.21057 34.21262 28.71160
#
# Velocity S-wave (km/s) = 3.04990 3.70285 3.39212
# Velocity P-wave (km/s) = 5.50294 6.32830 5.93000
#
# Compressibility (1/GPa) = 0.02241411
#
# Stress axis : x y z
#
# Youngs Moduli (GPa) = 144.17966 107.49499 65.92119
#
# Poissons Ratio (x) = 0.24575 0.12109
# Poissons Ratio (y) = 0.32962 0.02466
# Poissons Ratio (z) = 0.26484 0.04021
#
# Static dielectric constant tensor:
#      x y z
#    x 2.016140 0.000000 0.000000 
#    y 0.000000 2.226790 0.000000 
#    z 0.000000 0.000000 2.116680 
# 
# From -- ./inp_files/32827.got.cif
#   From: 2010.05.17/outbox.cif.g08.bks.cpg/sg68_17_cif.got.tgz:32827.got - 2010.06.03 18:57:09.
