data_PCOD9509877
_publ_section_title
;
Structure prediction by ZEFSAII (Michael W. Deem and Ramdas Pophale) SiO2 
 PCOD9509877
Probable space group: C C C A
;
_chemical_formula_sum "Si O2"
_cell_formula_units_Z 88
_cell_length_a 20.200213
_cell_length_b 9.195775
_cell_length_c 22.492222
_cell_angle_alpha 90.000000
_cell_angle_beta 90.000000
_cell_angle_gamma 90.000000
_cell_volume 4178.078993
_symmetry_space_group_name_H-M "C C C A"
_symmetry_group_IT_number 68
_space_group.IT_coordinate_system_code '2'
_symmetry_cell_setting 'orthorhombic'
loop_
_space_group_symop_operation_xyz
x,y,z
-x,1/2-y,z
x,1/2-y,1/2-z
-x,y,1/2-z
-x,-y,-z
x,1/2+y,-z
-x,1/2+y,1/2+z
x,-y,1/2+z
1/2+x,1/2+y,z
1/2-x,-y,z
1/2+x,-y,1/2-z
1/2-x,1/2+y,1/2-z
1/2-x,1/2-y,-z
1/2+x,y,-z
1/2-x,y,1/2+z
1/2+x,1/2-y,1/2+z
loop_
_atom_site_type_symbol
_atom_site_label
_atom_site_fract_x
_atom_site_fract_y
_atom_site_fract_z
Si Si1 0.735817 0.153136 0.659785
Si Si2 0.444624 0.035981 0.201876
Si Si3 0.123527 0.250000 0.250000
Si Si4 0.930628 0.529785 0.067689
Si Si5 0.719630 0.347886 0.053343
Si Si6 0.000000 0.750000 0.522228
Si Si7 0.160272 0.750000 0.250000
O O1 0.669211 0.181919 0.697337
O O2 0.750358 0.280453 0.613640
O O3 0.792784 0.154043 0.709388
O O4 0.750000 0.000000 0.627688
O O5 0.500000 0.074930 0.250000
O O6 0.419642 0.875526 0.219655
O O7 0.463052 0.047385 0.132982
O O8 0.384495 0.145890 0.211083
O O9 0.857031 0.602957 0.065652
O O10 0.944945 0.355771 0.054808
O O11 0.965321 0.630283 0.018802
O O12 0.750000 0.500000 0.038892
O O13 0.750000 0.250000 0.000000
#
# Coordination Sequence:
#
# PCOD9509877 Si02
#       7
#    16  16   8  16  16   8   8
#     4  11  23  42  68  96 137 179 220 288 356 423
#     4  12  26  43  69 102 141 182 232 288 355 425
#     4  11  25  42  64 102 133 175 224 280 358 421
#     4  11  25  48  71 101 142 181 246 295 349 439
#     4  12  25  44  71 102 135 180 237 298 362 425
#     4  10  26  48  72  98 138 198 232 294 364 406
#     4  11  23  44  66  98 137 177 226 282 352 421
#
# _framework density 21.062311999999999
#
# number of rings (size 3 to 8) (size 9 to 14) (size 15 to 20)
#    0.000    0.727    3.636    3.273    5.091    0.000 
#    3.273    0.000    0.000    0.000    0.000    0.000 
#    0.000    0.000    0.000    0.000    0.000    0.000 
#
# Total GULP energy -245115.573378 kJ/mol
# GULP energy per Si atom -5570.808486 kJ/mol
# Density = 2.101437 g / cm^3
# Si number density = 21.062312 Si / 1000 Ang^3
#
#
#
# Elastic Constant Matrix: (Units=GPa)
#
#
# Indices 1 2 3 4 5 6 
#
# 1 48.1056 -9.8199 15.1132 0.0000 0.0000 0.0000
# 2 -9.8199 110.4748 11.5905 0.0000 0.0000 0.0000
# 3 15.1132 11.5905 100.5556 0.0000 0.0000 0.0000
# 4 0.0000 0.0000 0.0000 44.9015 0.0000 0.0000
# 5 0.0000 0.0000 0.0000 0.0000 29.0301 0.0000
# 6 0.0000 0.0000 0.0000 0.0000 0.0000 20.3817
#
#
#
# Elastic Compliance Matrix: (Units=1/GPa)
#
#
# Indices 1 2 3 4 5 6 
#
# 1 0.022417 0.002375 -0.003643 0.000000 0.000000 0.000000
# 2 0.002375 0.009414 -0.001442 0.000000 0.000000 0.000000
# 3 -0.003643 -0.001442 0.010658 0.000000 0.000000 0.000000
# 4 0.000000 0.000000 0.000000 0.022271 0.000000 0.000000
# 5 0.000000 0.000000 0.000000 0.000000 0.034447 0.000000
# 6 0.000000 0.000000 0.000000 0.000000 0.000000 0.049064
#
#
# Mechanical properties :
#
#
# Convention : Reuss Voigt Hill
#
# Bulk Modulus (GPa) = 26.97658 32.54485 29.76072
# Shear Modulus (GPa) = 30.11178 35.01280 32.56229
#
# Velocity S-wave (km/s) = 3.78518 4.08161 3.93618
# Velocity P-wave (km/s) = 5.65148 6.13987 5.90073
#
# Compressibility (1/GPa) = 0.03706919
#
# Stress axis : x y z
#
# Youngs Moduli (GPa) = 44.60930 106.22234 93.82203
#
# Poissons Ratio (x) = -0.25225 0.34178
# Poissons Ratio (y) = -0.10594 0.13530
# Poissons Ratio (z) = 0.16251 0.15318
#
# Static dielectric constant tensor:
#      x y z
#    x 1.870700 0.000000 0.000000 
#    y 0.000000 1.827310 0.000000 
#    z 0.000000 0.000000 1.757040 
# 
# From -- ./inp_files/46556.got.cif
#   From: 2010.05.17/outbox.cif.g08.bks.cpg/sg68_24_cif.got.tgz:46556.got - 2010.06.03 18:57:09.
