data_PCOD9509276
_publ_section_title
;
Structure prediction by ZEFSAII (Michael W. Deem and Ramdas Pophale) SiO2 
 PCOD9509276
Probable space group: C C C A
;
_chemical_formula_sum "Si O2"
_cell_formula_units_Z 80
_cell_length_a 11.478985
_cell_length_b 23.736107
_cell_length_c 14.263805
_cell_angle_alpha 90.000000
_cell_angle_beta 90.000000
_cell_angle_gamma 90.000000
_cell_volume 3886.407830
_symmetry_space_group_name_H-M "C C C A"
_symmetry_group_IT_number 68
_space_group.IT_coordinate_system_code '2'
_symmetry_cell_setting 'orthorhombic'
loop_
_space_group_symop_operation_xyz
x,y,z
-x,1/2-y,z
x,1/2-y,1/2-z
-x,y,1/2-z
-x,-y,-z
x,1/2+y,-z
-x,1/2+y,1/2+z
x,-y,1/2+z
1/2+x,1/2+y,z
1/2-x,-y,z
1/2+x,-y,1/2-z
1/2-x,1/2+y,1/2-z
1/2-x,1/2-y,-z
1/2+x,y,-z
1/2-x,y,1/2+z
1/2+x,1/2-y,1/2+z
loop_
_atom_site_type_symbol
_atom_site_label
_atom_site_fract_x
_atom_site_fract_y
_atom_site_fract_z
Si Si1 0.130906 0.365625 0.213158
Si Si2 0.779571 0.768990 0.143808
Si Si3 0.534617 0.862971 0.641974
Si Si4 0.770154 0.064723 0.573169
Si Si5 0.726049 0.144716 0.404031
O O1 0.166158 0.308022 0.158901
O O2 0.165669 0.414113 0.140426
O O3 0.217144 0.369113 0.302983
O O4 0.000000 0.365957 0.250000
O O5 0.812157 0.750000 0.250000
O O6 0.883921 0.810160 0.112990
O O7 0.757866 0.712141 0.086579
O O8 0.500000 0.855701 0.750000
O O9 0.611549 0.918854 0.627924
O O10 0.412240 0.864780 0.590505
O O11 0.777990 0.103845 0.481534
O O12 0.750000 0.000000 0.550635
#
# Coordination Sequence:
#
# PCOD9509276 Si02
#       5
#    16  16  16  16  16
#     4  10  23  43  65  99 137 172 215 272 348 400
#     4   9  18  36  69  96 130 164 210 272 330 405
#     4  11  20  41  68  97 126 172 223 270 334 399
#     4  11  27  45  64  95 133 179 234 277 318 382
#     4  11  23  40  69  98 132 172 221 270 339 397
#
# _framework density 20.584561000000001
#
# number of rings (size 3 to 8) (size 9 to 14) (size 15 to 20)
#    0.000    1.600    6.000    0.600    2.800    9.200 
#    0.000    0.000    4.400    0.000    0.000    0.000 
#    0.000    0.000    0.000    0.000    0.000    0.000 
#
# Total GULP energy -223319.762926 kJ/mol
# GULP energy per Si atom -5582.994073 kJ/mol
# Density = 2.053771 g / cm^3
# Si number density = 20.584561 Si / 1000 Ang^3
#
#
#
# Elastic Constant Matrix: (Units=GPa)
#
#
# Indices 1 2 3 4 5 6 
#
# 1 94.9160 37.6735 15.2530 0.0000 0.0000 0.0000
# 2 37.6735 152.9804 60.7441 0.0000 0.0000 0.0000
# 3 15.2530 60.7441 63.2585 0.0000 0.0000 0.0000
# 4 0.0000 0.0000 0.0000 25.5660 0.0000 0.0000
# 5 0.0000 0.0000 0.0000 0.0000 21.1837 0.0000
# 6 0.0000 0.0000 0.0000 0.0000 0.0000 13.9695
#
#
#
# Elastic Compliance Matrix: (Units=1/GPa)
#
#
# Indices 1 2 3 4 5 6 
#
# 1 0.011677 -0.002841 -0.000088 0.000000 0.000000 0.000000
# 2 -0.002841 0.011256 -0.010124 0.000000 0.000000 0.000000
# 3 -0.000088 -0.010124 0.025551 0.000000 0.000000 0.000000
# 4 0.000000 0.000000 0.000000 0.039115 0.000000 0.000000
# 5 0.000000 0.000000 0.000000 0.000000 0.047206 0.000000
# 6 0.000000 0.000000 0.000000 0.000000 0.000000 0.071584
#
#
# Mechanical properties :
#
#
# Convention : Reuss Voigt Hill
#
# Bulk Modulus (GPa) = 44.68379 59.83289 52.25834
# Shear Modulus (GPa) = 20.83732 25.30946 23.07339
#
# Velocity S-wave (km/s) = 3.18508 3.51028 3.35163
# Velocity P-wave (km/s) = 5.93977 6.74977 6.35768
#
# Compressibility (1/GPa) = 0.02237948
#
# Stress axis : x y z
#
# Youngs Moduli (GPa) = 85.63622 88.83932 39.13777
#
# Poissons Ratio (x) = 0.25238 0.00343
# Poissons Ratio (y) = 0.24328 0.39623
# Poissons Ratio (z) = 0.00751 0.89940
#
# Static dielectric constant tensor:
#      x y z
#    x 1.750690 0.000000 0.000000 
#    y 0.000000 1.728890 0.000000 
#    z 0.000000 0.000000 1.785140 
# 
# From -- ./inp_files/20885.got.cif
#   From: 2010.05.17/outbox.cif.g08.bks.cpg/sg68_11_cif.got.tgz:20885.got - 2010.06.03 18:57:09.
