data_PCOD9509687
_publ_section_title
;
Structure prediction by ZEFSAII (Michael W. Deem and Ramdas Pophale) SiO2 
 PCOD9509687
Probable space group: C C C A
;
_chemical_formula_sum "Si O2"
_cell_formula_units_Z 104
_cell_length_a 8.549363
_cell_length_b 20.498975
_cell_length_c 27.904223
_cell_angle_alpha 90.000000
_cell_angle_beta 90.000000
_cell_angle_gamma 90.000000
_cell_volume 4890.303772
_symmetry_space_group_name_H-M "C C C A"
_symmetry_group_IT_number 68
_space_group.IT_coordinate_system_code '2'
_symmetry_cell_setting 'orthorhombic'
loop_
_space_group_symop_operation_xyz
x,y,z
-x,1/2-y,z
x,1/2-y,1/2-z
-x,y,1/2-z
-x,-y,-z
x,1/2+y,-z
-x,1/2+y,1/2+z
x,-y,1/2+z
1/2+x,1/2+y,z
1/2-x,-y,z
1/2+x,-y,1/2-z
1/2-x,1/2+y,1/2-z
1/2-x,1/2-y,-z
1/2+x,y,-z
1/2-x,y,1/2+z
1/2+x,1/2-y,1/2+z
loop_
_atom_site_type_symbol
_atom_site_label
_atom_site_fract_x
_atom_site_fract_y
_atom_site_fract_z
Si Si1 0.917129 0.903877 0.544875
Si Si2 0.250000 0.500000 0.117943
Si Si3 0.335348 0.712818 0.105261
Si Si4 0.726467 0.425362 0.057702
Si Si5 0.827861 0.625047 0.322963
Si Si6 0.351125 0.170985 0.138677
Si Si7 0.320231 0.825116 0.235516
O O1 0.833377 0.836884 0.560872
O O2 0.870184 0.922729 0.491383
O O3 0.102337 0.895121 0.548853
O O4 0.863811 0.960020 0.582187
O O5 0.170556 0.554460 0.151944
O O6 0.500000 0.750000 0.106351
O O7 0.310422 0.666079 0.151051
O O8 0.196226 0.764991 0.108652
O O9 0.750000 0.500000 0.071196
O O10 0.648238 0.386773 0.100560
O O11 0.786732 0.627128 0.267294
O O12 0.985133 0.665250 0.333923
O O13 0.218648 0.165912 0.179769
O O14 0.281631 0.750000 0.250000
O O15 0.500000 0.835842 0.250000
#
# Coordination Sequence:
#
# PCOD9509687 Si02
#       7
#    16   8  16  16  16  16  16
#     4  11  25  44  69  97 138 181 233 284 344 418
#     4  10  24  46  74  96 140 184 226 284 344 400
#     4  11  22  43  66  98 138 179 220 284 347 398
#     4  12  26  44  69  98 138 185 234 279 345 414
#     4  11  24  43  72 103 138 177 231 281 338 415
#     4  12  25  43  70 104 136 174 233 288 338 410
#     4  11  24  43  70 100 139 183 222 275 350 408
#
# _framework density 21.266572
#
# number of rings (size 3 to 8) (size 9 to 14) (size 15 to 20)
#    0.000    0.769    3.846    3.231    6.462    1.231 
#    1.385    0.000    0.000    0.000    0.000    0.000 
#    0.000    0.000    0.000    0.000    0.000    0.000 
#
# Total GULP energy -290776.034885 kJ/mol
# GULP energy per Si atom -5591.846825 kJ/mol
# Density = 2.121817 g / cm^3
# Si number density = 21.266572 Si / 1000 Ang^3
#
#
#
# Elastic Constant Matrix: (Units=GPa)
#
#
# Indices 1 2 3 4 5 6 
#
# 1 74.7382 11.3184 -0.9351 0.0000 0.0000 0.0000
# 2 11.3184 103.8881 33.3763 0.0000 0.0000 0.0000
# 3 -0.9351 33.3763 67.5351 0.0000 0.0000 0.0000
# 4 0.0000 0.0000 0.0000 23.1189 0.0000 0.0000
# 5 0.0000 0.0000 0.0000 0.0000 23.6774 0.0000
# 6 0.0000 0.0000 0.0000 0.0000 0.0000 19.7105
#
#
#
# Elastic Compliance Matrix: (Units=1/GPa)
#
#
# Indices 1 2 3 4 5 6 
#
# 1 0.013673 -0.001843 0.001100 0.000000 0.000000 0.000000
# 2 -0.001843 0.011691 -0.005803 0.000000 0.000000 0.000000
# 3 0.001100 -0.005803 0.017690 0.000000 0.000000 0.000000
# 4 0.000000 0.000000 0.000000 0.043255 0.000000 0.000000
# 5 0.000000 0.000000 0.000000 0.000000 0.042234 0.000000
# 6 0.000000 0.000000 0.000000 0.000000 0.000000 0.050734
#
#
# Mechanical properties :
#
#
# Convention : Reuss Voigt Hill
#
# Bulk Modulus (GPa) = 33.37574 37.07562 35.22568
# Shear Modulus (GPa) = 24.70879 26.79483 25.75181
#
# Velocity S-wave (km/s) = 3.41231 3.55343 3.48358
# Velocity P-wave (km/s) = 5.59045 5.85725 5.72541
#
# Compressibility (1/GPa) = 0.02996188
#
# Stress axis : x y z
#
# Youngs Moduli (GPa) = 73.13728 85.53612 56.52797
#
# Poissons Ratio (x) = 0.15765 -0.06219
# Poissons Ratio (y) = 0.13480 0.32805
# Poissons Ratio (z) = -0.08046 0.49639
#
# Static dielectric constant tensor:
#      x y z
#    x 1.781990 0.000000 0.000000 
#    y 0.000000 1.775050 0.000000 
#    z 0.000000 0.000000 1.764770 
# 
# From -- ./inp_files/49421.got.cif
#   From: 2010.05.17/outbox.cif.g08.bks.cpg/sg68_25_cif.got.tgz:49421.got - 2010.06.03 18:57:09.
