data_PCOD9509852
_publ_section_title
;
Structure prediction by ZEFSAII (Michael W. Deem and Ramdas Pophale) SiO2 
 PCOD9509852
Probable space group: C C C A
;
_chemical_formula_sum "Si O2"
_cell_formula_units_Z 108
_cell_length_a 11.441725
_cell_length_b 33.352182
_cell_length_c 13.109074
_cell_angle_alpha 90.000000
_cell_angle_beta 90.000000
_cell_angle_gamma 90.000000
_cell_volume 5002.507777
_symmetry_space_group_name_H-M "C C C A"
_symmetry_group_IT_number 68
_space_group.IT_coordinate_system_code '2'
_symmetry_cell_setting 'orthorhombic'
loop_
_space_group_symop_operation_xyz
x,y,z
-x,1/2-y,z
x,1/2-y,1/2-z
-x,y,1/2-z
-x,-y,-z
x,1/2+y,-z
-x,1/2+y,1/2+z
x,-y,1/2+z
1/2+x,1/2+y,z
1/2-x,-y,z
1/2+x,-y,1/2-z
1/2-x,1/2+y,1/2-z
1/2-x,1/2-y,-z
1/2+x,y,-z
1/2-x,y,1/2+z
1/2+x,1/2-y,1/2+z
loop_
_atom_site_type_symbol
_atom_site_label
_atom_site_fract_x
_atom_site_fract_y
_atom_site_fract_z
Si Si1 0.043543 0.291439 0.866232
Si Si2 0.250000 0.000000 0.876580
Si Si3 0.371241 0.060729 0.728387
Si Si4 0.305249 0.810956 0.169255
Si Si5 0.975358 0.144656 0.480548
Si Si6 0.849757 0.428354 0.993182
Si Si7 0.695288 0.865759 0.144161
Si Si8 0.000000 0.750000 0.750000
O O1 0.184039 0.293582 0.873310
O O2 0.000000 0.250000 0.915480
O O3 0.000000 0.291173 0.750000
O O4 0.981793 0.329133 0.918802
O O5 0.203947 0.967014 0.799774
O O6 0.337574 0.972517 0.944357
O O7 0.500000 0.044401 0.750000
O O8 0.325613 0.064213 0.613152
O O9 0.368979 0.104116 0.778864
O O10 0.366639 0.841738 0.089898
O O11 0.263367 0.832163 0.275480
O O12 0.408652 0.778970 0.190519
O O13 0.970669 0.096807 0.501757
O O14 0.096005 0.153894 0.424202
O O15 0.774483 0.395112 0.927660
#
# Coordination Sequence:
#
# PCOD9509852 Si02
#       8
#    16   8  16  16  16  16  16   4
#     4  11  27  47  65 101 154 191 237 314 379 432
#     4  10  26  42  64 106 142 176 238 294 366 434
#     4  11  21  44  68  93 138 181 228 290 349 437
#     4  12  24  45  72 102 144 192 243 311 360 456
#     4  12  23  43  71 105 130 192 249 291 374 441
#     4  11  23  42  70 101 136 191 234 298 369 432
#     4  11  22  43  69 100 137 174 242 297 352 428
#     4  12  24  40  74 108 142 196 260 290 392 444
#
# _framework density 21.589172000000001
#
# number of rings (size 3 to 8) (size 9 to 14) (size 15 to 20)
#    0.000    0.741    4.444    3.111    1.037    1.185 
#    2.667    0.000    0.000    0.000    0.000    0.000 
#    0.000    0.000    0.000    0.000    0.000    0.000 
#
# Total GULP energy -300847.466997 kJ/mol
# GULP energy per Si atom -5571.249389 kJ/mol
# Density = 2.154003 g / cm^3
# Si number density = 21.589172 Si / 1000 Ang^3
#
#
#
# Elastic Constant Matrix: (Units=GPa)
#
#
# Indices 1 2 3 4 5 6 
#
# 1 66.5510 5.3109 15.2698 0.0000 0.0000 0.0000
# 2 5.3109 104.8967 37.2757 0.0000 0.0000 0.0000
# 3 15.2698 37.2757 116.5975 0.0000 0.0000 0.0000
# 4 0.0000 0.0000 0.0000 22.8033 0.0000 0.0000
# 5 0.0000 0.0000 0.0000 0.0000 28.7414 0.0000
# 6 0.0000 0.0000 0.0000 0.0000 0.0000 11.2502
#
#
#
# Elastic Compliance Matrix: (Units=1/GPa)
#
#
# Indices 1 2 3 4 5 6 
#
# 1 0.015492 -0.000072 -0.002006 0.000000 0.000000 0.000000
# 2 -0.000072 0.010755 -0.003429 0.000000 0.000000 0.000000
# 3 -0.002006 -0.003429 0.009935 0.000000 0.000000 0.000000
# 4 0.000000 0.000000 0.000000 0.043853 0.000000 0.000000
# 5 0.000000 0.000000 0.000000 0.000000 0.034793 0.000000
# 6 0.000000 0.000000 0.000000 0.000000 0.000000 0.088887
#
#
# Mechanical properties :
#
#
# Convention : Reuss Voigt Hill
#
# Bulk Modulus (GPa) = 39.73031 44.86200 42.29616
# Shear Modulus (GPa) = 22.40951 27.90491 25.15721
#
# Velocity S-wave (km/s) = 3.22529 3.59909 3.41731
# Velocity P-wave (km/s) = 5.68444 6.17222 5.93334
#
# Compressibility (1/GPa) = 0.02516970
#
# Stress axis : x y z
#
# Youngs Moduli (GPa) = 64.54930 92.97698 100.64934
#
# Poissons Ratio (x) = 0.00665 0.20190
# Poissons Ratio (y) = 0.00462 0.34513
# Poissons Ratio (z) = 0.12949 0.31883
#
# Static dielectric constant tensor:
#      x y z
#    x 1.810660 0.000000 0.000000 
#    y 0.000000 1.862720 0.000000 
#    z 0.000000 0.000000 1.807200 
# 
# From -- ./inp_files/21312.got.cif
#   From: 2010.05.17/outbox.cif.g08.bks.cpg/sg68_11_cif.got.tgz:21312.got - 2010.06.03 18:57:09.
