data_PCOD9509682
_publ_section_title
;
Structure prediction by ZEFSAII (Michael W. Deem and Ramdas Pophale) SiO2 
 PCOD9509682
Probable space group: C C C A
;
_chemical_formula_sum "Si O2"
_cell_formula_units_Z 72
_cell_length_a 8.230246
_cell_length_b 29.950276
_cell_length_c 13.507293
_cell_angle_alpha 90.000000
_cell_angle_beta 90.000000
_cell_angle_gamma 90.000000
_cell_volume 3329.522591
_symmetry_space_group_name_H-M "C C C A"
_symmetry_group_IT_number 68
_space_group.IT_coordinate_system_code '2'
_symmetry_cell_setting 'orthorhombic'
loop_
_space_group_symop_operation_xyz
x,y,z
-x,1/2-y,z
x,1/2-y,1/2-z
-x,y,1/2-z
-x,-y,-z
x,1/2+y,-z
-x,1/2+y,1/2+z
x,-y,1/2+z
1/2+x,1/2+y,z
1/2-x,-y,z
1/2+x,-y,1/2-z
1/2-x,1/2+y,1/2-z
1/2-x,1/2-y,-z
1/2+x,y,-z
1/2-x,y,1/2+z
1/2+x,1/2-y,1/2+z
loop_
_atom_site_type_symbol
_atom_site_label
_atom_site_fract_x
_atom_site_fract_y
_atom_site_fract_z
Si Si1 0.214977 0.716678 0.154647
Si Si2 0.183647 0.383761 0.709160
Si Si3 0.500000 0.250000 0.990251
Si Si4 0.193666 0.547179 0.857004
Si Si5 0.327349 0.548036 0.065098
O O1 0.193617 0.750000 0.250000
O O2 0.234509 0.667266 0.196457
O O3 0.363368 0.732184 0.084641
O O4 0.070631 0.715235 0.071881
O O5 0.290902 0.411010 0.786644
O O6 0.220097 0.412173 0.610691
O O7 0.000000 0.385544 0.750000
O O8 0.250000 0.500000 0.809731
O O9 0.010861 0.546161 0.896772
O O10 0.317590 0.552953 0.947518
O O11 0.250000 0.500000 0.086776
#
# Coordination Sequence:
#
# PCOD9509682 Si02
#       5
#    16  16   8  16  16
#     4  11  25  46  71 100 136 175 223 280 339 406
#     4  12  25  41  65  95 131 173 221 274 334 401
#     4  10  24  46  72  98 132 178 222 274 342 406
#     4  11  23  42  65  93 131 174 223 277 340 404
#     4  11  23  41  64  93 130 173 222 275 335 406
#
# _framework density 21.624721999999998
#
# number of rings (size 3 to 8) (size 9 to 14) (size 15 to 20)
#    0.000    0.889    0.000    8.667    0.000   10.667 
#    0.000    0.000    0.000    0.000    0.000    0.000 
#    0.000    0.000    0.000    0.000    0.000    0.000 
#
# Total GULP energy -201138.414789 kJ/mol
# GULP energy per Si atom -5587.178189 kJ/mol
# Density = 2.157550 g / cm^3
# Si number density = 21.624722 Si / 1000 Ang^3
#
#
#
# Elastic Constant Matrix: (Units=GPa)
#
#
# Indices 1 2 3 4 5 6 
#
# 1 67.7441 7.1875 21.9491 0.0000 0.0000 0.0000
# 2 7.1875 167.2575 61.2268 0.0000 0.0000 0.0000
# 3 21.9491 61.2268 133.7273 0.0000 0.0000 0.0000
# 4 0.0000 0.0000 0.0000 48.3266 0.0000 0.0000
# 5 0.0000 0.0000 0.0000 0.0000 44.1513 0.0000
# 6 0.0000 0.0000 0.0000 0.0000 0.0000 50.2685
#
#
#
# Elastic Compliance Matrix: (Units=1/GPa)
#
#
# Indices 1 2 3 4 5 6 
#
# 1 0.015605 0.000321 -0.002708 0.000000 0.000000 0.000000
# 2 0.000321 0.007189 -0.003344 0.000000 0.000000 0.000000
# 3 -0.002708 -0.003344 0.009454 0.000000 0.000000 0.000000
# 4 0.000000 0.000000 0.000000 0.020693 0.000000 0.000000
# 5 0.000000 0.000000 0.000000 0.000000 0.022649 0.000000
# 6 0.000000 0.000000 0.000000 0.000000 0.000000 0.019893
#
#
# Mechanical properties :
#
#
# Convention : Reuss Voigt Hill
#
# Bulk Modulus (GPa) = 48.11293 61.05063 54.58178
# Shear Modulus (GPa) = 43.90817 47.10698 45.50758
#
# Velocity S-wave (km/s) = 4.51095 4.67238 4.59238
# Velocity P-wave (km/s) = 7.03057 7.57637 7.30857
#
# Compressibility (1/GPa) = 0.02078443
#
# Stress axis : x y z
#
# Youngs Moduli (GPa) = 64.08266 139.09720 105.78046
#
# Poissons Ratio (x) = -0.04462 0.28647
# Poissons Ratio (y) = -0.02056 0.35375
# Poissons Ratio (z) = 0.17354 0.46517
#
# Static dielectric constant tensor:
#      x y z
#    x 1.821290 0.000000 0.000000 
#    y 0.000000 1.726430 0.000000 
#    z 0.000000 0.000000 1.834560 
# 
# From -- ./inp_files/19441.got.cif
#   From: 2010.05.17/outbox.cif.g08.bks.cpg/sg68_10_cif.got.tgz:19441.got - 2010.06.03 18:57:09.
