data_PCOD9509169
_publ_section_title
;
Structure prediction by ZEFSAII (Michael W. Deem and Ramdas Pophale) SiO2 
 PCOD9509169
Probable space group: C C C A
;
_chemical_formula_sum "Si O2"
_cell_formula_units_Z 52
_cell_length_a 8.611473
_cell_length_b 20.407765
_cell_length_c 12.304307
_cell_angle_alpha 90.000000
_cell_angle_beta 90.000000
_cell_angle_gamma 90.000000
_cell_volume 2162.370199
_symmetry_space_group_name_H-M "C C C A"
_symmetry_group_IT_number 68
_space_group.IT_coordinate_system_code '2'
_symmetry_cell_setting 'orthorhombic'
loop_
_space_group_symop_operation_xyz
x,y,z
-x,1/2-y,z
x,1/2-y,1/2-z
-x,y,1/2-z
-x,-y,-z
x,1/2+y,-z
-x,1/2+y,1/2+z
x,-y,1/2+z
1/2+x,1/2+y,z
1/2-x,-y,z
1/2+x,-y,1/2-z
1/2-x,1/2+y,1/2-z
1/2-x,1/2-y,-z
1/2+x,y,-z
1/2-x,y,1/2+z
1/2+x,1/2-y,1/2+z
loop_
_atom_site_type_symbol
_atom_site_label
_atom_site_fract_x
_atom_site_fract_y
_atom_site_fract_z
Si Si1 0.964893 0.103521 0.406689
Si Si2 0.500000 0.250000 0.250000
Si Si3 0.743313 0.142138 0.229255
Si Si4 0.908430 0.966169 0.120007
O O1 0.824374 0.141492 0.347849
O O2 0.959942 0.089755 0.534540
O O3 0.118424 0.137864 0.358876
O O4 0.977646 0.027398 0.367247
O O5 0.624291 0.199255 0.200044
O O6 0.654170 0.073282 0.222476
O O7 0.750000 0.000000 0.072852
#
# Coordination Sequence:
#
# PCOD9509169 Si02
#       4
#    16   4  16  16
#     4   9  20  39  67  95 122 154 198 257 331 386
#     4  12  28  42  56  84 124 176 236 254 280 362
#     4  10  23  41  60  87 126 170 206 257 306 362
#     4   9  19  36  65 103 125 146 193 259 328 392
#
# _framework density 24.047685000000001
#
# number of rings (size 3 to 8) (size 9 to 14) (size 15 to 20)
#    0.000    2.462    0.000    0.000    0.000   23.385 
#    0.000    6.154    0.000    0.000    0.000    0.000 
#    0.000    0.000    0.000    0.000    0.000    0.000 
#
# Total GULP energy -144901.865357 kJ/mol
# GULP energy per Si atom -5573.148668 kJ/mol
# Density = 2.399295 g / cm^3
# Si number density = 24.047685 Si / 1000 Ang^3
#
#
#
# Elastic Constant Matrix: (Units=GPa)
#
#
# Indices 1 2 3 4 5 6 
#
# 1 120.3545 43.9234 25.2669 0.0000 0.0000 0.0000
# 2 43.9234 101.7251 20.2453 0.0000 0.0000 0.0000
# 3 25.2669 20.2453 59.2907 0.0000 0.0000 0.0000
# 4 0.0000 0.0000 0.0000 3.2756 0.0000 0.0000
# 5 0.0000 0.0000 0.0000 0.0000 24.9527 0.0000
# 6 0.0000 0.0000 0.0000 0.0000 0.0000 61.9414
#
#
#
# Elastic Compliance Matrix: (Units=1/GPa)
#
#
# Indices 1 2 3 4 5 6 
#
# 1 0.010368 -0.003860 -0.003101 0.000000 0.000000 0.000000
# 2 -0.003860 0.011984 -0.002447 0.000000 0.000000 0.000000
# 3 -0.003101 -0.002447 0.019023 0.000000 0.000000 0.000000
# 4 0.000000 0.000000 0.000000 0.305288 0.000000 0.000000
# 5 0.000000 0.000000 0.000000 0.000000 0.040076 0.000000
# 6 0.000000 0.000000 0.000000 0.000000 0.000000 0.016144
#
#
# Mechanical properties :
#
#
# Convention : Reuss Voigt Hill
#
# Bulk Modulus (GPa) = 44.32570 51.13797 47.73183
# Shear Modulus (GPa) = 11.64906 30.82959 21.23933
#
# Velocity S-wave (km/s) = 2.20333 3.58441 2.97512
# Velocity P-wave (km/s) = 4.99453 6.20017 5.62972
#
# Compressibility (1/GPa) = 0.02256028
#
# Stress axis : x y z
#
# Youngs Moduli (GPa) = 96.44738 83.44409 52.56810
#
# Poissons Ratio (x) = 0.32208 0.16299
# Poissons Ratio (y) = 0.37227 0.12864
# Poissons Ratio (z) = 0.29904 0.20420
#
# Static dielectric constant tensor:
#      x y z
#    x 2.056500 0.000000 0.000000 
#    y 0.000000 1.877810 0.000000 
#    z 0.000000 0.000000 2.072490 
# 
# From -- ./inp_files/18946.got.cif
#   From: 2010.05.17/outbox.cif.g08.bks.cpg/sg68_10_cif.got.tgz:18946.got - 2010.06.03 18:57:09.
