data_PCOD9509156
_publ_section_title
;
Structure prediction by ZEFSAII (Michael W. Deem and Ramdas Pophale) SiO2 
 PCOD9509156
Probable space group: C C C A
;
_chemical_formula_sum "Si O2"
_cell_formula_units_Z 116
_cell_length_a 17.590783
_cell_length_b 28.250778
_cell_length_c 10.653746
_cell_angle_alpha 90.000000
_cell_angle_beta 90.000000
_cell_angle_gamma 90.000000
_cell_volume 5294.414289
_symmetry_space_group_name_H-M "C C C A"
_symmetry_group_IT_number 68
_space_group.IT_coordinate_system_code '2'
_symmetry_cell_setting 'orthorhombic'
loop_
_space_group_symop_operation_xyz
x,y,z
-x,1/2-y,z
x,1/2-y,1/2-z
-x,y,1/2-z
-x,-y,-z
x,1/2+y,-z
-x,1/2+y,1/2+z
x,-y,1/2+z
1/2+x,1/2+y,z
1/2-x,-y,z
1/2+x,-y,1/2-z
1/2-x,1/2+y,1/2-z
1/2-x,1/2-y,-z
1/2+x,y,-z
1/2-x,y,1/2+z
1/2+x,1/2-y,1/2+z
loop_
_atom_site_type_symbol
_atom_site_label
_atom_site_fract_x
_atom_site_fract_y
_atom_site_fract_z
Si Si1 0.672645 0.600094 0.823974
Si Si2 0.067720 0.400631 0.051437
Si Si3 0.672954 0.530141 0.586380
Si Si4 0.500000 0.750000 0.750000
Si Si5 0.403701 0.332887 0.341417
Si Si6 0.255878 0.719034 0.873407
Si Si7 0.899393 0.563838 0.576351
Si Si8 0.669681 0.640560 0.257195
O O1 0.681917 0.565409 0.703942
O O2 0.614534 0.642479 0.790714
O O3 0.637523 0.571382 0.938831
O O4 0.753959 0.626470 0.834216
O O5 0.098958 0.361995 0.149052
O O6 0.134575 0.439190 0.025237
O O7 0.056161 0.372257 0.923257
O O8 0.987771 0.423338 0.085638
O O9 0.750000 0.500000 0.559200
O O10 0.612504 0.489669 0.619048
O O11 0.550798 0.715095 0.668498
O O12 0.321399 0.319679 0.396603
O O13 0.277894 0.750000 0.750000
O O14 0.184783 0.688154 0.822319
O O15 0.250000 0.750000 0.000000
O O16 0.850105 0.598866 0.661243
#
# Coordination Sequence:
#
# PCOD9509156 Si02
#       8
#    16  16  16   4  16  16  16  16
#     4  10  24  43  65  96 134 178 237 288 347 424
#     4  11  25  46  65 100 146 182 230 291 370 431
#     4  11  23  43  67 101 131 189 238 299 349 434
#     4  12  20  40  68 104 134 176 234 280 350 420
#     4  10  23  40  66  97 134 179 222 288 345 416
#     4  11  24  42  70 106 137 180 241 298 354 432
#     4  12  25  42  70 100 137 191 231 294 361 430
#     4  11  25  43  71  95 143 179 231 293 360 430
#
# _framework density 21.909883000000001
#
# number of rings (size 3 to 8) (size 9 to 14) (size 15 to 20)
#    0.000    1.103    2.069    3.310    9.655    3.310 
#    2.483    0.000    0.000    0.828    0.000    0.000 
#    0.000    0.000    0.000    0.000    0.000    0.000 
#
# Total GULP energy -323929.381605 kJ/mol
# GULP energy per Si atom -5584.989338 kJ/mol
# Density = 2.186002 g / cm^3
# Si number density = 21.909883 Si / 1000 Ang^3
#
#
#
# Elastic Constant Matrix: (Units=GPa)
#
#
# Indices 1 2 3 4 5 6 
#
# 1 102.1449 21.4407 31.0110 0.0000 0.0000 0.0000
# 2 21.4407 73.7495 0.4266 0.0000 0.0000 0.0000
# 3 31.0110 0.4266 55.5318 0.0000 0.0000 0.0000
# 4 0.0000 0.0000 0.0000 31.1673 0.0000 0.0000
# 5 0.0000 0.0000 0.0000 0.0000 18.2251 0.0000
# 6 0.0000 0.0000 0.0000 0.0000 0.0000 37.0852
#
#
#
# Elastic Compliance Matrix: (Units=1/GPa)
#
#
# Indices 1 2 3 4 5 6 
#
# 1 0.012701 -0.003652 -0.007065 0.000000 0.000000 0.000000
# 2 -0.003652 0.014610 0.001927 0.000000 0.000000 0.000000
# 3 -0.007065 0.001927 0.021938 0.000000 0.000000 0.000000
# 4 0.000000 0.000000 0.000000 0.032085 0.000000 0.000000
# 5 0.000000 0.000000 0.000000 0.000000 0.054869 0.000000
# 6 0.000000 0.000000 0.000000 0.000000 0.000000 0.026965
#
#
# Mechanical properties :
#
#
# Convention : Reuss Voigt Hill
#
# Bulk Modulus (GPa) = 31.57529 37.46476 34.52003
# Shear Modulus (GPa) = 26.13631 29.19872 27.66752
#
# Velocity S-wave (km/s) = 3.45759 3.65454 3.55743
# Velocity P-wave (km/s) = 5.51204 5.91136 5.71519
#
# Compressibility (1/GPa) = 0.03167033
#
# Stress axis : x y z
#
# Youngs Moduli (GPa) = 78.73136 68.44666 45.58259
#
# Poissons Ratio (x) = 0.24995 0.32204
# Poissons Ratio (y) = 0.28751 -0.08784
# Poissons Ratio (z) = 0.55623 -0.13190
#
# Static dielectric constant tensor:
#      x y z
#    x 1.840080 0.000000 0.000000 
#    y 0.000000 1.795290 0.000000 
#    z 0.000000 0.000000 1.873730 
# 
# From -- ./inp_files/14835.got.cif
#   From: 2010.05.17/outbox.cif.g08.bks.cpg/sg68_8_cif.got.tgz:14835.got - 2010.06.03 18:57:09.
