data_PCOD9509514
_publ_section_title
;
Structure prediction by ZEFSAII (Michael W. Deem and Ramdas Pophale) SiO2 
 PCOD9509514
Probable space group: C C C A
;
_chemical_formula_sum "Si O2"
_cell_formula_units_Z 72
_cell_length_a 10.669083
_cell_length_b 27.553819
_cell_length_c 10.572991
_cell_angle_alpha 90.000000
_cell_angle_beta 90.000000
_cell_angle_gamma 90.000000
_cell_volume 3108.184265
_symmetry_space_group_name_H-M "C C C A"
_symmetry_group_IT_number 68
_space_group.IT_coordinate_system_code '2'
_symmetry_cell_setting 'orthorhombic'
loop_
_space_group_symop_operation_xyz
x,y,z
-x,1/2-y,z
x,1/2-y,1/2-z
-x,y,1/2-z
-x,-y,-z
x,1/2+y,-z
-x,1/2+y,1/2+z
x,-y,1/2+z
1/2+x,1/2+y,z
1/2-x,-y,z
1/2+x,-y,1/2-z
1/2-x,1/2+y,1/2-z
1/2-x,1/2-y,-z
1/2+x,y,-z
1/2-x,y,1/2+z
1/2+x,1/2-y,1/2+z
loop_
_atom_site_type_symbol
_atom_site_label
_atom_site_fract_x
_atom_site_fract_y
_atom_site_fract_z
Si Si1 0.500000 0.250000 0.250000
Si Si2 0.000000 0.250000 0.250000
Si Si3 0.500000 0.585555 0.750000
Si Si4 0.613677 0.501350 0.899144
Si Si5 0.665243 0.164640 0.361139
Si Si6 0.140709 0.163148 0.364004
Si Si7 0.500000 0.082422 0.750000
O O1 0.590168 0.214191 0.329905
O O2 0.081071 0.215355 0.338460
O O3 0.595598 0.550687 0.821914
O O4 0.568519 0.620642 0.652817
O O5 0.750000 0.500000 0.961679
O O6 0.602098 0.457505 0.797108
O O7 0.500000 0.500000 0.000000
O O8 0.768769 0.155114 0.254888
O O9 0.712725 0.163876 0.504071
O O10 0.030461 0.122672 0.358879
#
# Coordination Sequence:
#
# PCOD9509514 Si02
#       7
#     4   4   8  16  16  16   8
#     4  10  24  42  64  94 134 178 234 296 358 428
#     4  10  24  42  64  94 130 178 234 288 354 432
#     4  10  24  42  64  96 138 182 232 288 352 424
#     4  11  24  43  69 102 141 187 238 293 355 424
#     4  11  24  43  67  98 136 181 233 294 360 429
#     4  11  24  42  67  97 134 179 232 292 357 428
#     4  10  24  42  64  96 136 182 232 284 348 426
#
# _framework density 23.164648
#
# number of rings (size 3 to 8) (size 9 to 14) (size 15 to 20)
#    0.000    1.333    0.000    4.000    0.000   19.556 
#    0.000    0.000    0.000    0.000    0.000    0.000 
#    0.000    0.000    0.000    0.000    0.000    0.000 
#
# Total GULP energy -200791.785594 kJ/mol
# GULP energy per Si atom -5577.549600 kJ/mol
# Density = 2.311192 g / cm^3
# Si number density = 23.164648 Si / 1000 Ang^3
#
#
#
# Elastic Constant Matrix: (Units=GPa)
#
#
# Indices 1 2 3 4 5 6 
#
# 1 116.7424 26.2041 51.7576 0.0000 0.0000 0.0000
# 2 26.2041 160.0210 29.1589 0.0000 0.0000 0.0000
# 3 51.7576 29.1589 163.7771 0.0000 0.0000 0.0000
# 4 0.0000 0.0000 0.0000 -24.5929 0.0000 0.0000
# 5 0.0000 0.0000 0.0000 0.0000 33.2642 0.0000
# 6 0.0000 0.0000 0.0000 0.0000 0.0000 -3.8508
#
#
#
# Elastic Compliance Matrix: (Units=1/GPa)
#
#
# Indices 1 2 3 4 5 6 
#
# 1 0.010150 -0.001114 -0.003009 0.000000 0.000000 0.000000
# 2 -0.001114 0.006581 -0.000820 0.000000 0.000000 0.000000
# 3 -0.003009 -0.000820 0.007203 0.000000 0.000000 0.000000
# 4 0.000000 0.000000 0.000000 -0.040662 0.000000 0.000000
# 5 0.000000 0.000000 0.000000 0.000000 0.030062 0.000000
# 6 0.000000 0.000000 0.000000 0.000000 0.000000 -0.259685
#
#
# Mechanical properties :
#
#
# Convention : Reuss Voigt Hill
#
# Bulk Modulus (GPa) = 71.18361 72.75352 71.96857
# Shear Modulus (GPa) = -21.57193 23.19208 0.81007
#
# Velocity S-wave (km/s) = -3.05494 3.16758 0.59200
# Velocity P-wave (km/s) = 4.28399 6.69727 5.62165
#
# Compressibility (1/GPa) = 0.01404818
#
# Stress axis : x y z
#
# Youngs Moduli (GPa) = 98.52158 151.95428 138.83418
#
# Poissons Ratio (x) = 0.16924 0.41780
# Poissons Ratio (y) = 0.10973 0.11380
# Poissons Ratio (z) = 0.29649 0.12456
#
# Static dielectric constant tensor:
#      x y z
#    x 1.935900 0.000000 0.000000 
#    y 0.000000 1.835850 0.000000 
#    z 0.000000 0.000000 1.868200 
# 
# From -- ./inp_files/11887.got.cif
#   From: 2010.05.17/outbox.cif.g08.bks.cpg/sg68_6_cif.got.tgz:11887.got - 2010.06.03 18:57:09.
