data_PCOD9509183
_publ_section_title
;
Structure prediction by ZEFSAII (Michael W. Deem and Ramdas Pophale) SiO2 
 PCOD9509183
Probable space group: C C C A
;
_chemical_formula_sum "Si O2"
_cell_formula_units_Z 96
_cell_length_a 14.442142
_cell_length_b 21.166986
_cell_length_c 14.794441
_cell_angle_alpha 90.000000
_cell_angle_beta 90.000000
_cell_angle_gamma 90.000000
_cell_volume 4522.610572
_symmetry_space_group_name_H-M "C C C A"
_symmetry_group_IT_number 68
_space_group.IT_coordinate_system_code '2'
_symmetry_cell_setting 'orthorhombic'
loop_
_space_group_symop_operation_xyz
x,y,z
-x,1/2-y,z
x,1/2-y,1/2-z
-x,y,1/2-z
-x,-y,-z
x,1/2+y,-z
-x,1/2+y,1/2+z
x,-y,1/2+z
1/2+x,1/2+y,z
1/2-x,-y,z
1/2+x,-y,1/2-z
1/2-x,1/2+y,1/2-z
1/2-x,1/2-y,-z
1/2+x,y,-z
1/2-x,y,1/2+z
1/2+x,1/2-y,1/2+z
loop_
_atom_site_type_symbol
_atom_site_label
_atom_site_fract_x
_atom_site_fract_y
_atom_site_fract_z
Si Si1 0.843912 0.859584 0.555911
Si Si2 0.548813 0.864760 0.516060
Si Si3 0.097167 0.677950 0.212997
Si Si4 0.797004 0.875907 0.751290
Si Si5 0.605305 0.729900 0.139629
Si Si6 0.198152 0.934688 0.556602
O O1 0.836088 0.895604 0.652966
O O2 0.840172 0.787096 0.591275
O O3 0.763152 0.881337 0.489648
O O4 0.939670 0.868570 0.501982
O O5 0.580458 0.829594 0.606545
O O6 0.588758 0.822156 0.436525
O O7 0.601967 0.930355 0.498402
O O8 0.106494 0.750000 0.250000
O O9 0.188417 0.639852 0.240545
O O10 0.000000 0.651897 0.250000
O O11 0.846949 0.810257 0.780910
O O12 0.812271 0.922140 0.835989
O O13 0.500000 0.750000 0.160023
O O14 0.250000 0.000000 0.542657
#
# Coordination Sequence:
#
# PCOD9509183 Si02
#       6
#    16  16  16  16  16  16
#     4  11  22  41  69  93 134 170 208 270 327 398
#     4  10  23  41  65  98 129 173 214 259 330 394
#     4  11  23  36  63 100 141 169 209 256 328 409
#     4  11  23  41  66  96 131 170 215 270 334 386
#     4   9  21  36  65  99 133 160 205 253 323 395
#     4  11  26  44  64  91 126 171 230 278 321 380
#
# _framework density 21.226679000000001
#
# number of rings (size 3 to 8) (size 9 to 14) (size 15 to 20)
#    0.000    1.500    1.667    2.500    9.333   10.667 
#    0.000    0.000    3.667    0.000    0.000    0.000 
#    0.000    0.000    0.000    0.000    0.000    0.000 
#
# Total GULP energy -267884.137260 kJ/mol
# GULP energy per Si atom -5580.919526 kJ/mol
# Density = 2.117837 g / cm^3
# Si number density = 21.226679 Si / 1000 Ang^3
#
#
#
# Elastic Constant Matrix: (Units=GPa)
#
#
# Indices 1 2 3 4 5 6 
#
# 1 102.6830 12.2617 17.9969 0.0000 0.0000 0.0000
# 2 12.2617 29.1331 -12.6710 0.0000 0.0000 0.0000
# 3 17.9969 -12.6710 87.1983 0.0000 0.0000 0.0000
# 4 0.0000 0.0000 0.0000 5.1331 0.0000 0.0000
# 5 0.0000 0.0000 0.0000 0.0000 47.3482 0.0000
# 6 0.0000 0.0000 0.0000 0.0000 0.0000 2.6862
#
#
#
# Elastic Compliance Matrix: (Units=1/GPa)
#
#
# Indices 1 2 3 4 5 6 
#
# 1 0.011006 -0.005999 -0.003143 0.000000 0.000000 0.000000
# 2 -0.005999 0.039911 0.007038 0.000000 0.000000 0.000000
# 3 -0.003143 0.007038 0.013140 0.000000 0.000000 0.000000
# 4 0.000000 0.000000 0.000000 0.194815 0.000000 0.000000
# 5 0.000000 0.000000 0.000000 0.000000 0.021120 0.000000
# 6 0.000000 0.000000 0.000000 0.000000 0.000000 0.372273
#
#
# Mechanical properties :
#
#
# Convention : Reuss Voigt Hill
#
# Bulk Modulus (GPa) = 16.70925 28.24328 22.47626
# Shear Modulus (GPa) = 7.39181 24.46194 15.92688
#
# Velocity S-wave (km/s) = 1.86812 3.39841 2.74217
# Velocity P-wave (km/s) = 3.54148 5.36035 4.54287
#
# Compressibility (1/GPa) = 0.05984710
#
# Stress axis : x y z
#
# Youngs Moduli (GPa) = 90.85914 25.05552 76.10610
#
# Poissons Ratio (x) = 0.15032 0.23923
# Poissons Ratio (y) = 0.54510 -0.53562
# Poissons Ratio (z) = 0.28560 -0.17634
#
# Static dielectric constant tensor:
#      x y z
#    x 1.845620 0.000000 0.000000 
#    y 0.000000 1.850240 0.000000 
#    z 0.000000 0.000000 1.835840 
# 
# From -- ./inp_files/22370.got.cif
#   From: 2010.05.17/outbox.cif.g08.bks.cpg/sg68_12_cif.got.tgz:22370.got - 2010.06.03 18:57:09.
