data_PCOD9509920
_publ_section_title
;
Structure prediction by ZEFSAII (Michael W. Deem and Ramdas Pophale) SiO2 
 PCOD9509920
Probable space group: C C C A
;
_chemical_formula_sum "Si O2"
_cell_formula_units_Z 116
_cell_length_a 27.211633
_cell_length_b 11.488054
_cell_length_c 20.675975
_cell_angle_alpha 90.000000
_cell_angle_beta 90.000000
_cell_angle_gamma 90.000000
_cell_volume 6463.489859
_symmetry_space_group_name_H-M "C C C A"
_symmetry_group_IT_number 68
_space_group.IT_coordinate_system_code '2'
_symmetry_cell_setting 'orthorhombic'
loop_
_space_group_symop_operation_xyz
x,y,z
-x,1/2-y,z
x,1/2-y,1/2-z
-x,y,1/2-z
-x,-y,-z
x,1/2+y,-z
-x,1/2+y,1/2+z
x,-y,1/2+z
1/2+x,1/2+y,z
1/2-x,-y,z
1/2+x,-y,1/2-z
1/2-x,1/2+y,1/2-z
1/2-x,1/2-y,-z
1/2+x,y,-z
1/2-x,y,1/2+z
1/2+x,1/2-y,1/2+z
loop_
_atom_site_type_symbol
_atom_site_label
_atom_site_fract_x
_atom_site_fract_y
_atom_site_fract_z
Si Si1 0.116360 0.851360 0.059010
Si Si2 0.955700 0.162558 0.599775
Si Si3 0.294962 0.179859 0.685701
Si Si4 0.549670 0.924333 0.452802
Si Si5 0.000000 0.750000 0.750000
Si Si6 0.456805 0.415621 0.642644
Si Si7 0.128402 0.770344 0.917651
Si Si8 0.294264 0.435827 0.357837
O O1 0.092927 0.739865 0.093875
O O2 0.159288 0.903234 0.101758
O O3 0.072740 0.946307 0.049686
O O4 0.138446 0.814656 0.989919
O O5 0.961941 0.110632 0.526728
O O6 0.000000 0.250000 0.614326
O O7 0.953455 0.054958 0.648867
O O8 0.306065 0.250000 0.750000
O O9 0.325639 0.234154 0.626349
O O10 0.236168 0.170746 0.672650
O O11 0.307890 0.041696 0.690587
O O12 0.502246 0.901649 0.408045
O O13 0.592565 0.840449 0.426611
O O14 0.969010 0.836521 0.704359
O O15 0.405838 0.368378 0.614547
O O16 0.250000 0.500000 0.398037
#
# Coordination Sequence:
#
# PCOD9509920 Si02
#       8
#    16  16  16  16   4  16  16  16
#     4  11  20  36  65  93 127 158 190 255 323 365
#     4  11  22  34  60  94 130 162 193 251 303 368
#     4   9  20  39  65  84 114 155 207 253 291 358
#     4  11  18  36  60  92 124 164 197 246 303 361
#     4  12  28  40  62  76 124 180 212 260 268 352
#     4  12  23  39  55  91 122 165 214 241 293 348
#     4  11  21  33  62  94 122 153 204 249 301 365
#     4   8  20  41  64  84 115 154 200 253 314 360
#
# _framework density 17.946961000000002
#
# number of rings (size 3 to 8) (size 9 to 14) (size 15 to 20)
#    0.828    0.552    5.517    2.069    0.966    0.552 
#    0.000    3.103    3.034    0.000    0.000    0.000 
#    0.000    0.000    0.000    0.000    0.000    0.000 
#
# Total GULP energy -323057.355354 kJ/mol
# GULP energy per Si atom -5569.954403 kJ/mol
# Density = 1.790611 g / cm^3
# Si number density = 17.946961 Si / 1000 Ang^3
#
#
#
# Elastic Constant Matrix: (Units=GPa)
#
#
# Indices 1 2 3 4 5 6 
#
# 1 73.2865 43.1313 43.5807 0.0000 0.0000 0.0000
# 2 43.1313 122.1364 45.2193 0.0000 0.0000 0.0000
# 3 43.5807 45.2193 53.9573 0.0000 0.0000 0.0000
# 4 0.0000 0.0000 0.0000 32.9728 0.0000 0.0000
# 5 0.0000 0.0000 0.0000 0.0000 11.4108 0.0000
# 6 0.0000 0.0000 0.0000 0.0000 0.0000 30.0279
#
#
#
# Elastic Compliance Matrix: (Units=1/GPa)
#
#
# Indices 1 2 3 4 5 6 
#
# 1 0.026618 -0.002088 -0.019749 0.000000 0.000000 0.000000
# 2 -0.002088 0.012035 -0.008399 0.000000 0.000000 0.000000
# 3 -0.019749 -0.008399 0.041523 0.000000 0.000000 0.000000
# 4 0.000000 0.000000 0.000000 0.030328 0.000000 0.000000
# 5 0.000000 0.000000 0.000000 0.000000 0.087637 0.000000
# 6 0.000000 0.000000 0.000000 0.000000 0.000000 0.033302
#
#
# Mechanical properties :
#
#
# Convention : Reuss Voigt Hill
#
# Bulk Modulus (GPa) = 50.75327 57.02696 53.89012
# Shear Modulus (GPa) = 16.75133 22.71223 19.73178
#
# Velocity S-wave (km/s) = 3.05844 3.56127 3.31939
# Velocity P-wave (km/s) = 6.38851 6.98244 6.69207
#
# Compressibility (1/GPa) = 0.01970316
#
# Stress axis : x y z
#
# Youngs Moduli (GPa) = 37.56844 83.09352 24.08279
#
# Poissons Ratio (x) = 0.17350 0.47562
# Poissons Ratio (y) = 0.07844 0.20228
# Poissons Ratio (z) = 0.74195 0.69792
#
# Static dielectric constant tensor:
#      x y z
#    x 1.618380 0.000000 0.000000 
#    y 0.000000 1.671910 0.000000 
#    z 0.000000 0.000000 1.606330 
# 
# From -- ./inp_files/34172.got.cif
#   From: 2010.05.17/outbox.cif.g08.bks.cpg/sg68_18_cif.got.tgz:34172.got - 2010.06.03 18:57:09.
