data_PCOD9509330
_publ_section_title
;
Structure prediction by ZEFSAII (Michael W. Deem and Ramdas Pophale) SiO2 
 PCOD9509330
Probable space group: C C C A
;
_chemical_formula_sum "Si O2"
_cell_formula_units_Z 44
_cell_length_a 31.274866
_cell_length_b 12.345219
_cell_length_c 4.933766
_cell_angle_alpha 90.000000
_cell_angle_beta 90.000000
_cell_angle_gamma 90.000000
_cell_volume 1904.902729
_symmetry_space_group_name_H-M "C C C A"
_symmetry_group_IT_number 68
_space_group.IT_coordinate_system_code '2'
_symmetry_cell_setting 'orthorhombic'
loop_
_space_group_symop_operation_xyz
x,y,z
-x,1/2-y,z
x,1/2-y,1/2-z
-x,y,1/2-z
-x,-y,-z
x,1/2+y,-z
-x,1/2+y,1/2+z
x,-y,1/2+z
1/2+x,1/2+y,z
1/2-x,-y,z
1/2+x,-y,1/2-z
1/2-x,1/2+y,1/2-z
1/2-x,1/2-y,-z
1/2+x,y,-z
1/2-x,y,1/2+z
1/2+x,1/2-y,1/2+z
loop_
_atom_site_type_symbol
_atom_site_label
_atom_site_fract_x
_atom_site_fract_y
_atom_site_fract_z
Si Si1 0.500000 0.250000 0.750000
Si Si2 0.446298 0.573807 0.572235
Si Si3 0.154176 0.567066 0.049967
Si Si4 0.282194 0.750000 0.750000
O O1 0.528941 0.325330 0.554976
O O2 0.455025 0.528994 0.872928
O O3 0.395613 0.598752 0.572868
O O4 0.160823 0.460155 0.235277
O O5 0.186112 0.652239 0.177308
O O6 0.250000 0.750000 0.500000
#
# Coordination Sequence:
#
# PCOD9509330 Si02
#       4
#     4  16  16   8
#     4  12  24  40  72 100 136 178 224 300 344 376
#     4  10  24  43  64  96 132 174 227 271 330 410
#     4  10  23  44  66  91 133 177 212 265 332 395
#     4  12  26  41  68 105 130 163 224 275 326 406
#
# _framework density 23.098293000000002
#
# number of rings (size 3 to 8) (size 9 to 14) (size 15 to 20)
#    0.000    1.455    0.000    3.273    0.000   17.455 
#    0.000    0.000    0.000    0.000    0.000    0.000 
#    0.000    0.000    0.000    0.000    0.000    0.000 
#
# Total GULP energy -123118.101924 kJ/mol
# GULP energy per Si atom -5596.277360 kJ/mol
# Density = 2.304572 g / cm^3
# Si number density = 23.098293 Si / 1000 Ang^3
#
#
#
# Elastic Constant Matrix: (Units=GPa)
#
#
# Indices 1 2 3 4 5 6 
#
# 1 172.1250 90.8370 71.1719 0.0000 0.0000 0.0000
# 2 90.8370 93.6183 27.9423 0.0000 0.0000 0.0000
# 3 71.1719 27.9423 156.3650 0.0000 0.0000 0.0000
# 4 0.0000 0.0000 0.0000 32.1337 0.0000 0.0000
# 5 0.0000 0.0000 0.0000 0.0000 45.2793 0.0000
# 6 0.0000 0.0000 0.0000 0.0000 0.0000 46.6214
#
#
#
# Elastic Compliance Matrix: (Units=1/GPa)
#
#
# Indices 1 2 3 4 5 6 
#
# 1 0.014110 -0.012437 -0.004200 0.000000 0.000000 0.000000
# 2 -0.012437 0.022246 0.001686 0.000000 0.000000 0.000000
# 3 -0.004200 0.001686 0.008006 0.000000 0.000000 0.000000
# 4 0.000000 0.000000 0.000000 0.031120 0.000000 0.000000
# 5 0.000000 0.000000 0.000000 0.000000 0.022085 0.000000
# 6 0.000000 0.000000 0.000000 0.000000 0.000000 0.021449
#
#
# Mechanical properties :
#
#
# Convention : Reuss Voigt Hill
#
# Bulk Modulus (GPa) = 69.16097 89.11229 79.13663
# Shear Modulus (GPa) = 32.52269 40.28403 36.40336
#
# Velocity S-wave (km/s) = 3.75642 4.18068 3.97422
# Velocity P-wave (km/s) = 6.98722 7.87195 7.44274
#
# Compressibility (1/GPa) = 0.01445902
#
# Stress axis : x y z
#
# Youngs Moduli (GPa) = 70.87228 44.95135 124.91115
#
# Poissons Ratio (x) = 0.55907 0.52460
# Poissons Ratio (y) = 0.88145 -0.21055
# Poissons Ratio (z) = 0.29765 -0.07577
#
# Static dielectric constant tensor:
#      x y z
#    x 1.802580 0.000000 0.000000 
#    y 0.000000 1.854770 0.000000 
#    z 0.000000 0.000000 1.814550 
# 
# From -- ./inp_files/2161.got.cif
#   From: 2010.05.17/outbox.cif.g08.bks.cpg/sg68_2_cif.got.tgz:2161.got - 2010.06.03 18:57:09.
