data_PCOD9509186
_publ_section_title
;
Structure prediction by ZEFSAII (Michael W. Deem and Ramdas Pophale) SiO2 
 PCOD9509186
Probable space group: C C C A
;
_chemical_formula_sum "Si O2"
_cell_formula_units_Z 68
_cell_length_a 16.476852
_cell_length_b 8.485465
_cell_length_c 19.188471
_cell_angle_alpha 90.000000
_cell_angle_beta 90.000000
_cell_angle_gamma 90.000000
_cell_volume 2682.812106
_symmetry_space_group_name_H-M "C C C A"
_symmetry_group_IT_number 68
_space_group.IT_coordinate_system_code '2'
_symmetry_cell_setting 'orthorhombic'
loop_
_space_group_symop_operation_xyz
x,y,z
-x,1/2-y,z
x,1/2-y,1/2-z
-x,y,1/2-z
-x,-y,-z
x,1/2+y,-z
-x,1/2+y,1/2+z
x,-y,1/2+z
1/2+x,1/2+y,z
1/2-x,-y,z
1/2+x,-y,1/2-z
1/2-x,1/2+y,1/2-z
1/2-x,1/2-y,-z
1/2+x,y,-z
1/2-x,y,1/2+z
1/2+x,1/2-y,1/2+z
loop_
_atom_site_type_symbol
_atom_site_label
_atom_site_fract_x
_atom_site_fract_y
_atom_site_fract_z
Si Si1 0.365981 0.419041 0.603569
Si Si2 0.355527 0.725698 0.954077
Si Si3 0.787288 0.850585 0.850347
Si Si4 0.045261 0.516547 0.363678
Si Si5 0.000000 0.250000 0.750000
O O1 0.352597 0.593802 0.571045
O O2 0.354396 0.307615 0.535614
O O3 0.304464 0.338319 0.659472
O O4 0.457746 0.436534 0.631753
O O5 0.280100 0.650460 0.912396
O O6 0.434471 0.628826 0.928829
O O7 0.750000 0.000000 0.807147
O O8 0.881235 0.897727 0.858380
O O9 0.050595 0.636260 0.299138
#
# Coordination Sequence:
#
# PCOD9509186 Si02
#       5
#    16  16  16  16   4
#     4  12  22  41  69 110 146 189 225 284 356 434
#     4  11  22  40  67 105 148 181 222 291 359 427
#     4  10  23  41  66 102 145 182 229 281 353 422
#     4  11  24  44  73  98 136 187 245 289 347 419
#     4  12  24  52  78  96 136 188 248 306 340 400
#
# _framework density 25.346536
#
# number of rings (size 3 to 8) (size 9 to 14) (size 15 to 20)
#    0.000    0.941    2.353    5.647    0.000    3.765 
#    0.000    2.353   31.059    0.000    0.000    0.000 
#    0.000    0.000    0.000    0.000    0.000    0.000 
#
# Total GULP energy -189434.074221 kJ/mol
# GULP energy per Si atom -5571.590418 kJ/mol
# Density = 2.528885 g / cm^3
# Si number density = 25.346536 Si / 1000 Ang^3
#
#
#
# Elastic Constant Matrix: (Units=GPa)
#
#
# Indices 1 2 3 4 5 6 
#
# 1 132.0525 52.4470 8.5949 0.0000 0.0000 0.0000
# 2 52.4470 179.6028 12.5826 0.0000 0.0000 0.0000
# 3 8.5949 12.5826 51.7972 0.0000 0.0000 0.0000
# 4 0.0000 0.0000 0.0000 42.0472 0.0000 0.0000
# 5 0.0000 0.0000 0.0000 0.0000 -95.4178 0.0000
# 6 0.0000 0.0000 0.0000 0.0000 0.0000 71.8307
#
#
#
# Elastic Compliance Matrix: (Units=1/GPa)
#
#
# Indices 1 2 3 4 5 6 
#
# 1 0.008601 -0.002453 -0.000831 0.000000 0.000000 0.000000
# 2 -0.002453 0.006364 -0.001139 0.000000 0.000000 0.000000
# 3 -0.000831 -0.001139 0.019721 0.000000 0.000000 0.000000
# 4 0.000000 0.000000 0.000000 0.023783 0.000000 0.000000
# 5 0.000000 0.000000 0.000000 0.000000 -0.010480 0.000000
# 6 0.000000 0.000000 0.000000 0.000000 0.000000 0.013922
#
#
# Mechanical properties :
#
#
# Convention : Reuss Voigt Hill
#
# Bulk Modulus (GPa) = 38.70136 56.74459 47.72298
# Shear Modulus (GPa) = 62.99583 23.01389 43.00486
#
# Velocity S-wave (km/s) = 4.99077 3.01652 4.12354
# Velocity P-wave (km/s) = 6.96509 5.87951 6.44519
#
# Compressibility (1/GPa) = 0.02583888
#
# Stress axis : x y z
#
# Youngs Moduli (GPa) = 116.26156 157.13176 50.70828
#
# Poissons Ratio (x) = 0.38552 0.04215
# Poissons Ratio (y) = 0.28525 0.05775
# Poissons Ratio (z) = 0.09664 0.17895
#
# Static dielectric constant tensor:
#      x y z
#    x 1.975830 0.000000 0.000000 
#    y 0.000000 2.174120 0.000000 
#    z 0.000000 0.000000 2.240250 
# 
# From -- ./inp_files/35885.got.cif
#   From: 2010.05.17/outbox.cif.g08.bks.cpg/sg68_18_cif.got.tgz:35885.got - 2010.06.03 18:57:09.
