data_PCOD9509710
_publ_section_title
;
Structure prediction by ZEFSAII (Michael W. Deem and Ramdas Pophale) SiO2 
 PCOD9509710
Probable space group: C C C A
;
_chemical_formula_sum "Si O2"
_cell_formula_units_Z 80
_cell_length_a 25.759082
_cell_length_b 25.795237
_cell_length_c 5.142131
_cell_angle_alpha 90.000000
_cell_angle_beta 90.000000
_cell_angle_gamma 90.000000
_cell_volume 3416.748721
_symmetry_space_group_name_H-M "C C C A"
_symmetry_group_IT_number 68
_space_group.IT_coordinate_system_code '2'
_symmetry_cell_setting 'orthorhombic'
loop_
_space_group_symop_operation_xyz
x,y,z
-x,1/2-y,z
x,1/2-y,1/2-z
-x,y,1/2-z
-x,-y,-z
x,1/2+y,-z
-x,1/2+y,1/2+z
x,-y,1/2+z
1/2+x,1/2+y,z
1/2-x,-y,z
1/2+x,-y,1/2-z
1/2-x,1/2+y,1/2-z
1/2-x,1/2-y,-z
1/2+x,y,-z
1/2-x,y,1/2+z
1/2+x,1/2-y,1/2+z
loop_
_atom_site_type_symbol
_atom_site_label
_atom_site_fract_x
_atom_site_fract_y
_atom_site_fract_z
Si Si1 0.889227 0.968244 0.378457
Si Si2 0.582747 0.217037 0.493938
Si Si3 0.500000 0.070949 0.250000
Si Si4 0.664170 0.861693 0.793400
Si Si5 0.500000 0.361286 0.750000
Si Si6 0.767153 0.405448 0.073396
O O1 0.865759 0.911340 0.405004
O O2 0.951431 0.961022 0.358282
O O3 0.873155 0.004681 0.612599
O O4 0.560183 0.250000 0.250000
O O5 0.630647 0.187545 0.358564
O O6 0.542830 0.175262 0.614407
O O7 0.597694 0.250000 0.750000
O O8 0.480827 0.104445 0.502363
O O9 0.678396 0.879169 0.496683
O O10 0.722217 0.860650 0.908841
O O11 0.745169 0.436353 0.829012
#
# Coordination Sequence:
#
# PCOD9509710 Si02
#       6
#    16  16   8  16   8  16
#     4  12  27  42  71 104 139 179 233 281 344 416
#     4  12  28  44  72 105 140 181 235 282 343 417
#     4  12  24  47  73  97 140 191 225 289 344 404
#     4  10  24  47  71  96 145 177 231 280 360 386
#     4  12  25  47  74  95 142 191 224 283 351 400
#     4   8  20  38  74  92 133 178 224 282 339 407
#
# _framework density 23.414071
#
# number of rings (size 3 to 8) (size 9 to 14) (size 15 to 20)
#    1.200    0.000    2.000    3.300    5.600    0.800 
#    0.000    6.000    0.000    0.000    0.000    0.000 
#    0.000    0.000    0.000    0.000    0.000    0.000 
#
# Total GULP energy -223014.724377 kJ/mol
# GULP energy per Si atom -5575.368109 kJ/mol
# Density = 2.336078 g / cm^3
# Si number density = 23.414071 Si / 1000 Ang^3
#
#
#
# Elastic Constant Matrix: (Units=GPa)
#
#
# Indices 1 2 3 4 5 6 
#
# 1 64.8024 12.1308 -2.7417 0.0000 0.0000 0.0000
# 2 12.1308 73.2323 36.1343 0.0000 0.0000 0.0000
# 3 -2.7417 36.1343 180.0581 0.0000 0.0000 0.0000
# 4 0.0000 0.0000 0.0000 31.0015 0.0000 0.0000
# 5 0.0000 0.0000 0.0000 0.0000 23.8607 0.0000
# 6 0.0000 0.0000 0.0000 0.0000 0.0000 11.8636
#
#
#
# Elastic Compliance Matrix: (Units=1/GPa)
#
#
# Indices 1 2 3 4 5 6 
#
# 1 0.016045 -0.003084 0.000863 0.000000 0.000000 0.000000
# 2 -0.003084 0.015749 -0.003207 0.000000 0.000000 0.000000
# 3 0.000863 -0.003207 0.006211 0.000000 0.000000 0.000000
# 4 0.000000 0.000000 0.000000 0.032257 0.000000 0.000000
# 5 0.000000 0.000000 0.000000 0.000000 0.041910 0.000000
# 6 0.000000 0.000000 0.000000 0.000000 0.000000 0.084291
#
#
# Mechanical properties :
#
#
# Convention : Reuss Voigt Hill
#
# Bulk Modulus (GPa) = 36.83453 45.45998 41.14726
# Shear Modulus (GPa) = 23.10881 31.51646 27.31263
#
# Velocity S-wave (km/s) = 3.14500 3.67283 3.41912
# Velocity P-wave (km/s) = 5.38089 6.11916 5.76186
#
# Compressibility (1/GPa) = 0.02714844
#
# Stress axis : x y z
#
# Youngs Moduli (GPa) = 62.32346 63.49770 161.01569
#
# Poissons Ratio (x) = 0.19581 -0.13899
# Poissons Ratio (y) = 0.19219 0.51644
# Poissons Ratio (z) = -0.05380 0.20366
#
# Static dielectric constant tensor:
#      x y z
#    x 1.922880 0.000000 0.000000 
#    y 0.000000 1.849460 0.000000 
#    z 0.000000 0.000000 2.184370 
# 
# From -- ./inp_files/2744.got.cif
#   From: 2010.05.17/outbox.cif.g08.bks.cpg/sg68_2_cif.got.tgz:2744.got - 2010.06.03 18:57:09.
