data_PCOD9509047
_publ_section_title
;
Structure prediction by ZEFSAII (Michael W. Deem and Ramdas Pophale) SiO2 
 PCOD9509047
Probable space group: C C C A
;
_chemical_formula_sum "Si O2"
_cell_formula_units_Z 68
_cell_length_a 30.208502
_cell_length_b 10.112350
_cell_length_c 8.394300
_cell_angle_alpha 90.000000
_cell_angle_beta 90.000000
_cell_angle_gamma 90.000000
_cell_volume 2564.281910
_symmetry_space_group_name_H-M "C C C A"
_symmetry_group_IT_number 68
_space_group.IT_coordinate_system_code '2'
_symmetry_cell_setting 'orthorhombic'
loop_
_space_group_symop_operation_xyz
x,y,z
-x,1/2-y,z
x,1/2-y,1/2-z
-x,y,1/2-z
-x,-y,-z
x,1/2+y,-z
-x,1/2+y,1/2+z
x,-y,1/2+z
1/2+x,1/2+y,z
1/2-x,-y,z
1/2+x,-y,1/2-z
1/2-x,1/2+y,1/2-z
1/2-x,1/2-y,-z
1/2+x,y,-z
1/2-x,y,1/2+z
1/2+x,1/2-y,1/2+z
loop_
_atom_site_type_symbol
_atom_site_label
_atom_site_fract_x
_atom_site_fract_y
_atom_site_fract_z
Si Si1 0.348009 0.250000 0.750000
Si Si2 0.500000 0.250000 0.750000
Si Si3 0.889601 0.958994 0.242674
Si Si4 0.693538 0.136726 0.041163
Si Si5 0.250000 0.500000 0.783862
Si Si6 0.548517 0.945855 0.475222
O O1 0.375247 0.113998 0.751677
O O2 0.320682 0.252182 0.581422
O O3 0.465153 0.167269 0.646137
O O4 0.912850 0.952927 0.415947
O O5 0.848095 0.890048 0.156144
O O6 0.930756 0.905753 0.140703
O O7 0.733644 0.118286 0.167711
O O8 0.709667 0.034968 0.901938
O O9 0.500000 0.000000 0.500000
#
# Coordination Sequence:
#
# PCOD9509047 Si02
#       6
#     8   4  16  16   8  16
#     4  12  25  44  77 102 146 202 240 308 385 430
#     4  12  26  48  74 106 148 196 226 308 380 414
#     4  12  24  46  71 106 145 190 245 299 365 438
#     4  11  23  44  72 104 146 196 241 315 363 444
#     4  10  22  46  70 106 154 182 254 316 360 440
#     4  12  25  44  75 103 145 191 240 303 357 440
#
# _framework density 26.518145000000001
#
# number of rings (size 3 to 8) (size 9 to 14) (size 15 to 20)
#    0.000    0.471    7.059    0.706    0.000    0.941 
#    0.000    8.235    0.000    0.000    0.000    0.000 
#    0.000    0.000    0.000    0.000    0.000    0.000 
#
# Total GULP energy -189274.569179 kJ/mol
# GULP energy per Si atom -5566.899094 kJ/mol
# Density = 2.645779 g / cm^3
# Si number density = 26.518145 Si / 1000 Ang^3
#
#
#
# Elastic Constant Matrix: (Units=GPa)
#
#
# Indices 1 2 3 4 5 6 
#
# 1 158.2609 44.0166 18.2053 0.0000 0.0000 0.0000
# 2 44.0166 55.4837 31.4347 0.0000 0.0000 0.0000
# 3 18.2053 31.4347 107.6879 0.0000 0.0000 0.0000
# 4 0.0000 0.0000 0.0000 43.2981 0.0000 0.0000
# 5 0.0000 0.0000 0.0000 0.0000 71.2908 0.0000
# 6 0.0000 0.0000 0.0000 0.0000 0.0000 27.3250
#
#
#
# Elastic Compliance Matrix: (Units=1/GPa)
#
#
# Indices 1 2 3 4 5 6 
#
# 1 0.008141 -0.006804 0.000610 0.000000 0.000000 0.000000
# 2 -0.006804 0.027281 -0.006813 0.000000 0.000000 0.000000
# 3 0.000610 -0.006813 0.011172 0.000000 0.000000 0.000000
# 4 0.000000 0.000000 0.000000 0.023096 0.000000 0.000000
# 5 0.000000 0.000000 0.000000 0.000000 0.014027 0.000000
# 6 0.000000 0.000000 0.000000 0.000000 0.000000 0.036597
#
#
# Mechanical properties :
#
#
# Convention : Reuss Voigt Hill
#
# Bulk Modulus (GPa) = 48.59277 56.52730 52.56004
# Shear Modulus (GPa) = 32.63975 43.56783 38.10379
#
# Velocity S-wave (km/s) = 3.51215 4.05772 3.79475
# Velocity P-wave (km/s) = 5.90009 6.58151 6.25009
#
# Compressibility (1/GPa) = 0.02057919
#
# Stress axis : x y z
#
# Youngs Moduli (GPa) = 122.83698 36.65538 89.51086
#
# Poissons Ratio (x) = 0.24940 -0.05459
# Poissons Ratio (y) = 0.83577 0.60986
# Poissons Ratio (z) = -0.07491 0.24974
#
# Static dielectric constant tensor:
#      x y z
#    x 2.124980 0.000000 0.000000 
#    y 0.000000 2.326350 0.000000 
#    z 0.000000 0.000000 1.640170 
# 
# From -- ./inp_files/8627.got.cif
#   From: 2010.05.17/outbox.cif.g08.bks.cpg/sg68_5_cif.got.tgz:8627.got - 2010.06.03 18:57:09.
