data_PCOD9509125
_publ_section_title
;
Structure prediction by ZEFSAII (Michael W. Deem and Ramdas Pophale) SiO2 
 PCOD9509125
Probable space group: C C C A
;
_chemical_formula_sum "Si O2"
_cell_formula_units_Z 116
_cell_length_a 8.733231
_cell_length_b 23.427894
_cell_length_c 27.525873
_cell_angle_alpha 90.000000
_cell_angle_beta 90.000000
_cell_angle_gamma 90.000000
_cell_volume 5631.826926
_symmetry_space_group_name_H-M "C C C A"
_symmetry_group_IT_number 68
_space_group.IT_coordinate_system_code '2'
_symmetry_cell_setting 'orthorhombic'
loop_
_space_group_symop_operation_xyz
x,y,z
-x,1/2-y,z
x,1/2-y,1/2-z
-x,y,1/2-z
-x,-y,-z
x,1/2+y,-z
-x,1/2+y,1/2+z
x,-y,1/2+z
1/2+x,1/2+y,z
1/2-x,-y,z
1/2+x,-y,1/2-z
1/2-x,1/2+y,1/2-z
1/2-x,1/2-y,-z
1/2+x,y,-z
1/2-x,y,1/2+z
1/2+x,1/2-y,1/2+z
loop_
_atom_site_type_symbol
_atom_site_label
_atom_site_fract_x
_atom_site_fract_y
_atom_site_fract_z
Si Si1 0.824320 0.102999 0.485666
Si Si2 0.852471 0.343415 0.185637
Si Si3 0.610608 0.454013 0.952404
Si Si4 0.327669 0.397267 0.651674
Si Si5 0.500000 0.750000 0.250000
Si Si6 0.134991 0.675075 0.081747
Si Si7 0.183769 0.939174 0.248826
Si Si8 0.276026 0.700628 0.915341
O O1 0.655860 0.081269 0.498844
O O2 0.860496 0.128489 0.539024
O O3 0.814007 0.157740 0.450826
O O4 0.927394 0.052309 0.462476
O O5 0.748171 0.389585 0.213548
O O6 0.781779 0.316164 0.137596
O O7 0.015155 0.371552 0.171951
O O8 0.891388 0.290947 0.219810
O O9 0.750000 0.500000 0.953810
O O10 0.628166 0.431790 0.897175
O O11 0.208962 0.350695 0.630441
O O12 0.248248 0.429184 0.696568
O O13 0.233258 0.732449 0.070605
O O14 0.957234 0.689195 0.085692
O O15 0.000000 0.939773 0.250000
O O16 0.250000 0.000000 0.231654
#
# Coordination Sequence:
#
# PCOD9509125 Si02
#       8
#    16  16  16  16   4  16  16  16
#     4  11  21  41  60  91 132 172 222 276 333 412
#     4  12  24  43  71 100 135 177 229 285 352 416
#     4  11  23  39  64  91 127 174 224 280 340 399
#     4  11  22  44  67  96 133 171 227 281 343 410
#     4  12  24  44  70 100 136 172 230 290 356 420
#     4  10  23  39  64  94 131 174 219 275 341 410
#     4  12  26  47  72 100 138 183 232 286 346 414
#     4  11  22  40  62  94 132 170 221 276 341 413
#
# _framework density 20.597224000000001
#
# number of rings (size 3 to 8) (size 9 to 14) (size 15 to 20)
#    0.000    0.828    4.138    3.724    0.000    0.000 
#    0.000    0.690    0.000    0.000    0.000    0.000 
#    0.000    0.000    0.000    0.000    0.000    0.000 
#
# Total GULP energy -323090.620572 kJ/mol
# GULP energy per Si atom -5570.527941 kJ/mol
# Density = 2.055034 g / cm^3
# Si number density = 20.597224 Si / 1000 Ang^3
#
#
#
# Elastic Constant Matrix: (Units=GPa)
#
#
# Indices 1 2 3 4 5 6 
#
# 1 82.7143 21.3820 16.5690 0.0000 0.0000 0.0000
# 2 21.3820 84.0171 21.9803 0.0000 0.0000 0.0000
# 3 16.5690 21.9803 88.2547 0.0000 0.0000 0.0000
# 4 0.0000 0.0000 0.0000 81.9781 0.0000 0.0000
# 5 0.0000 0.0000 0.0000 0.0000 31.0379 0.0000
# 6 0.0000 0.0000 0.0000 0.0000 0.0000 23.3130
#
#
#
# Elastic Compliance Matrix: (Units=1/GPa)
#
#
# Indices 1 2 3 4 5 6 
#
# 1 0.013190 -0.002898 -0.001755 0.000000 0.000000 0.000000
# 2 -0.002898 0.013369 -0.002785 0.000000 0.000000 0.000000
# 3 -0.001755 -0.002785 0.012354 0.000000 0.000000 0.000000
# 4 0.000000 0.000000 0.000000 0.012198 0.000000 0.000000
# 5 0.000000 0.000000 0.000000 0.000000 0.032219 0.000000
# 6 0.000000 0.000000 0.000000 0.000000 0.000000 0.042895
#
#
# Mechanical properties :
#
#
# Convention : Reuss Voigt Hill
#
# Bulk Modulus (GPa) = 41.60250 41.64985 41.62618
# Shear Modulus (GPa) = 33.53166 40.26946 36.90056
#
# Velocity S-wave (km/s) = 4.03919 4.42644 4.23724
# Velocity P-wave (km/s) = 6.48038 6.81098 6.64774
#
# Compressibility (1/GPa) = 0.02403701
#
# Stress axis : x y z
#
# Youngs Moduli (GPa) = 75.81276 74.80242 80.94548
#
# Poissons Ratio (x) = 0.21677 0.14203
# Poissons Ratio (y) = 0.21969 0.22547
# Poissons Ratio (z) = 0.13302 0.20836
#
# Static dielectric constant tensor:
#      x y z
#    x 4.095900 0.000000 0.000000 
#    y 0.000000 1.801180 0.000000 
#    z 0.000000 0.000000 1.710110 
# 
# From -- ./inp_files/49622.got.cif
#   From: 2010.05.17/outbox.cif.g08.bks.cpg/sg68_25_cif.got.tgz:49622.got - 2010.06.03 18:57:09.
