data_PCOD9509629
_publ_section_title
;
Structure prediction by ZEFSAII (Michael W. Deem and Ramdas Pophale) SiO2 
 PCOD9509629
Probable space group: C C C A
;
_chemical_formula_sum "Si O2"
_cell_formula_units_Z 84
_cell_length_a 7.947487
_cell_length_b 25.943032
_cell_length_c 19.330706
_cell_angle_alpha 90.000000
_cell_angle_beta 90.000000
_cell_angle_gamma 90.000000
_cell_volume 3985.641876
_symmetry_space_group_name_H-M "C C C A"
_symmetry_group_IT_number 68
_space_group.IT_coordinate_system_code '2'
_symmetry_cell_setting 'orthorhombic'
loop_
_space_group_symop_operation_xyz
x,y,z
-x,1/2-y,z
x,1/2-y,1/2-z
-x,y,1/2-z
-x,-y,-z
x,1/2+y,-z
-x,1/2+y,1/2+z
x,-y,1/2+z
1/2+x,1/2+y,z
1/2-x,-y,z
1/2+x,-y,1/2-z
1/2-x,1/2+y,1/2-z
1/2-x,1/2-y,-z
1/2+x,y,-z
1/2-x,y,1/2+z
1/2+x,1/2-y,1/2+z
loop_
_atom_site_type_symbol
_atom_site_label
_atom_site_fract_x
_atom_site_fract_y
_atom_site_fract_z
Si Si1 0.134733 0.643833 0.162347
Si Si2 0.748983 0.834432 0.807970
Si Si3 0.413974 0.883248 0.058267
Si Si4 0.000000 0.250000 0.250000
Si Si5 0.738511 0.060712 0.068262
Si Si6 0.362421 0.288693 0.043048
O O1 0.240828 0.639216 0.232098
O O2 0.116662 0.589426 0.123017
O O3 0.221381 0.681865 0.106815
O O4 0.951686 0.669093 0.176407
O O5 0.820182 0.865329 0.873015
O O6 0.871271 0.785356 0.795301
O O7 0.583170 0.911911 0.078925
O O8 0.315026 0.923085 0.009030
O O9 0.434780 0.832995 0.008035
O O10 0.750000 0.000000 0.076643
O O11 0.500000 0.250000 0.071915
O O12 0.250000 0.250000 0.000000
#
# Coordination Sequence:
#
# PCOD9509629 Si02
#       6
#    16  16  16   4  16  16
#     4  10  24  45  65  96 137 178 225 287 333 402
#     4  11  25  44  66  94 142 176 230 276 337 397
#     4  11  23  41  64 101 138 173 226 287 333 404
#     4  12  28  38  64 100 132 198 228 258 340 422
#     4  11  23  45  73 100 132 179 228 285 354 405
#     4  11  22  36  61  92 133 176 219 264 329 398
#
# _framework density 21.075652000000002
#
# number of rings (size 3 to 8) (size 9 to 14) (size 15 to 20)
#    0.000    1.143    0.000    7.429    6.667    0.762 
#    0.000    4.762    0.000    0.000    0.000    0.000 
#    0.000    0.000    0.000    0.000    0.000    0.000 
#
# Total GULP energy -234454.046582 kJ/mol
# GULP energy per Si atom -5582.239204 kJ/mol
# Density = 2.102768 g / cm^3
# Si number density = 21.075652 Si / 1000 Ang^3
#
#
#
# Elastic Constant Matrix: (Units=GPa)
#
#
# Indices 1 2 3 4 5 6 
#
# 1 66.7999 37.0415 28.0356 0.0000 0.0000 0.0000
# 2 37.0415 156.0067 61.6321 0.0000 0.0000 0.0000
# 3 28.0356 61.6321 155.2400 0.0000 0.0000 0.0000
# 4 0.0000 0.0000 0.0000 16.7870 0.0000 0.0000
# 5 0.0000 0.0000 0.0000 0.0000 33.6061 0.0000
# 6 0.0000 0.0000 0.0000 0.0000 0.0000 26.3679
#
#
#
# Elastic Compliance Matrix: (Units=1/GPa)
#
#
# Indices 1 2 3 4 5 6 
#
# 1 0.017658 -0.003478 -0.001808 0.000000 0.000000 0.000000
# 2 -0.003478 0.008288 -0.002662 0.000000 0.000000 0.000000
# 3 -0.001808 -0.002662 0.007825 0.000000 0.000000 0.000000
# 4 0.000000 0.000000 0.000000 0.059570 0.000000 0.000000
# 5 0.000000 0.000000 0.000000 0.000000 0.029757 0.000000
# 6 0.000000 0.000000 0.000000 0.000000 0.000000 0.037925
#
#
# Mechanical properties :
#
#
# Convention : Reuss Voigt Hill
#
# Bulk Modulus (GPa) = 55.94866 70.16277 63.05572
# Shear Modulus (GPa) = 27.34091 32.10802 29.72446
#
# Velocity S-wave (km/s) = 3.60568 3.90739 3.75956
# Velocity P-wave (km/s) = 6.62863 7.32940 6.98781
#
# Compressibility (1/GPa) = 0.01787353
#
# Stress axis : x y z
#
# Youngs Moduli (GPa) = 56.63272 120.66314 127.79512
#
# Poissons Ratio (x) = 0.41970 0.23105
# Poissons Ratio (y) = 0.19699 0.34020
# Poissons Ratio (z) = 0.10239 0.32122
#
# Static dielectric constant tensor:
#      x y z
#    x 1.768100 0.000000 0.000000 
#    y 0.000000 1.730790 0.000000 
#    z 0.000000 0.000000 1.846700 
# 
# From -- ./inp_files/36176.got.cif
#   From: 2010.05.17/outbox.cif.g08.bks.cpg/sg68_19_cif.got.tgz:36176.got - 2010.06.03 18:57:09.
