data_PCOD9509445
_publ_section_title
;
Structure prediction by ZEFSAII (Michael W. Deem and Ramdas Pophale) SiO2 
 PCOD9509445
Probable space group: C C C A
;
_chemical_formula_sum "Si O2"
_cell_formula_units_Z 64
_cell_length_a 25.398950
_cell_length_b 7.351536
_cell_length_c 16.369720
_cell_angle_alpha 90.000000
_cell_angle_beta 90.000000
_cell_angle_gamma 90.000000
_cell_volume 3056.575322
_symmetry_space_group_name_H-M "C C C A"
_symmetry_group_IT_number 68
_space_group.IT_coordinate_system_code '2'
_symmetry_cell_setting 'orthorhombic'
loop_
_space_group_symop_operation_xyz
x,y,z
-x,1/2-y,z
x,1/2-y,1/2-z
-x,y,1/2-z
-x,-y,-z
x,1/2+y,-z
-x,1/2+y,1/2+z
x,-y,1/2+z
1/2+x,1/2+y,z
1/2-x,-y,z
1/2+x,-y,1/2-z
1/2-x,1/2+y,1/2-z
1/2-x,1/2-y,-z
1/2+x,y,-z
1/2-x,y,1/2+z
1/2+x,1/2-y,1/2+z
loop_
_atom_site_type_symbol
_atom_site_label
_atom_site_fract_x
_atom_site_fract_y
_atom_site_fract_z
Si Si1 0.864698 0.946244 0.435828
Si Si2 0.307973 0.250000 0.750000
Si Si3 0.112844 0.648667 0.620672
Si Si4 0.943729 0.314108 0.843663
Si Si5 0.750000 0.000000 0.374578
O O1 0.886953 0.134687 0.396787
O O2 0.872492 0.931953 0.532467
O O3 0.896683 0.786531 0.391360
O O4 0.801830 0.938349 0.422618
O O5 0.345780 0.377442 0.695008
O O6 0.271447 0.154851 0.684531
O O7 0.062660 0.531471 0.648109
O O8 0.940847 0.250000 0.750000
O O9 0.000000 0.250000 0.877507
#
# Coordination Sequence:
#
# PCOD9509445 Si02
#       5
#    16   8  16  16   8
#     4  11  24  43  66 100 135 172 221 275 331 398
#     4  10  24  38  66  99 135 176 220 272 328 400
#     4  11  23  45  65 100 135 172 222 276 330 395
#     4  11  25  45  71  96 130 178 220 277 340 396
#     4  10  24  38  64 102 126 184 212 270 334 394
#
# _framework density 20.938465000000001
#
# number of rings (size 3 to 8) (size 9 to 14) (size 15 to 20)
#    0.000    1.250    2.500    3.000    5.250    7.000 
#    0.000    2.500    0.000    0.000    0.000    0.000 
#    0.000    0.000    0.000    0.000    0.000    0.000 
#
# Total GULP energy -178546.635954 kJ/mol
# GULP energy per Si atom -5579.582374 kJ/mol
# Density = 2.089081 g / cm^3
# Si number density = 20.938465 Si / 1000 Ang^3
#
#
#
# Elastic Constant Matrix: (Units=GPa)
#
#
# Indices 1 2 3 4 5 6 
#
# 1 78.9855 20.2566 6.0661 0.0000 0.0000 0.0000
# 2 20.2566 79.1756 -3.1100 0.0000 0.0000 0.0000
# 3 6.0661 -3.1100 91.6600 0.0000 0.0000 0.0000
# 4 0.0000 0.0000 0.0000 -57.2963 0.0000 0.0000
# 5 0.0000 0.0000 0.0000 0.0000 3.4600 0.0000
# 6 0.0000 0.0000 0.0000 0.0000 0.0000 36.4508
#
#
#
# Elastic Compliance Matrix: (Units=1/GPa)
#
#
# Indices 1 2 3 4 5 6 
#
# 1 0.013645 -0.003531 -0.001023 0.000000 0.000000 0.000000
# 2 -0.003531 0.013561 0.000694 0.000000 0.000000 0.000000
# 3 -0.001023 0.000694 0.011001 0.000000 0.000000 0.000000
# 4 0.000000 0.000000 0.000000 -0.017453 0.000000 0.000000
# 5 0.000000 0.000000 0.000000 0.000000 0.289018 0.000000
# 6 0.000000 0.000000 0.000000 0.000000 0.000000 0.027434
#
#
# Mechanical properties :
#
#
# Convention : Reuss Voigt Hill
#
# Bulk Modulus (GPa) = 32.80150 32.91627 32.85889
# Shear Modulus (GPa) = 14.08103 11.63013 12.85558
#
# Velocity S-wave (km/s) = 2.59607 2.35934 2.48053
# Velocity P-wave (km/s) = 4.96848 4.81421 4.89195
#
# Compressibility (1/GPa) = 0.03048641
#
# Stress axis : x y z
#
# Youngs Moduli (GPa) = 73.28862 73.74193 90.89990
#
# Poissons Ratio (x) = 0.26039 0.09297
# Poissons Ratio (y) = 0.25879 -0.06307
# Poissons Ratio (z) = 0.07496 -0.05116
#
# Static dielectric constant tensor:
#      x y z
#    x 1.803770 0.000000 0.000000 
#    y 0.000000 1.713540 0.000000 
#    z 0.000000 0.000000 1.731900 
# 
# From -- ./inp_files/33393.got.cif
#   From: 2010.05.17/outbox.cif.g08.bks.cpg/sg68_17_cif.got.tgz:33393.got - 2010.06.03 18:57:09.
