data_PCOD9509822
_publ_section_title
;
Structure prediction by ZEFSAII (Michael W. Deem and Ramdas Pophale) SiO2 
 PCOD9509822
Probable space group: C C C A
;
_chemical_formula_sum "Si O2"
_cell_formula_units_Z 64
_cell_length_a 10.828583
_cell_length_b 10.828585
_cell_length_c 28.643906
_cell_angle_alpha 90.000000
_cell_angle_beta 90.000000
_cell_angle_gamma 90.000000
_cell_volume 3358.733759
_symmetry_space_group_name_H-M "C C C A"
_symmetry_group_IT_number 68
_space_group.IT_coordinate_system_code '2'
_symmetry_cell_setting 'orthorhombic'
loop_
_space_group_symop_operation_xyz
x,y,z
-x,1/2-y,z
x,1/2-y,1/2-z
-x,y,1/2-z
-x,-y,-z
x,1/2+y,-z
-x,1/2+y,1/2+z
x,-y,1/2+z
1/2+x,1/2+y,z
1/2-x,-y,z
1/2+x,-y,1/2-z
1/2-x,1/2+y,1/2-z
1/2-x,1/2-y,-z
1/2+x,y,-z
1/2-x,y,1/2+z
1/2+x,1/2-y,1/2+z
loop_
_atom_site_type_symbol
_atom_site_label
_atom_site_fract_x
_atom_site_fract_y
_atom_site_fract_z
Si Si1 0.742332 0.300951 0.552507
Si Si2 0.949049 0.507668 0.552507
Si Si3 0.851869 0.101869 0.622408
Si Si4 0.639142 0.110858 0.230241
O O1 0.750000 0.250000 0.500000
O O2 0.838871 0.411129 0.553978
O O3 0.607642 0.357642 0.561225
O O4 0.789651 0.207242 0.591169
O O5 0.000000 0.500000 0.500000
O O6 0.042758 0.460349 0.591169
O O7 0.885055 0.135055 0.675130
O O8 0.750000 0.000000 0.628491
O O9 0.673683 0.250000 0.250000
O O10 0.500000 0.076317 0.250000
O O11 0.750000 0.000000 0.236523
#
# Coordination Sequence:
#
# PCOD9509822 Si02
#       4
#    16  16  16  16
#     4  11  23  37  59  90 129 173 217 264 322 396
#     4  11  23  37  59  90 129 173 217 264 322 396
#     4  11  24  42  64  93 129 173 218 273 337 399
#     4  10  25  47  74 103 139 178 237 305 358 422
#
# _framework density 19.0548
#
# number of rings (size 3 to 8) (size 9 to 14) (size 15 to 20)
#    0.000    1.250    2.500    2.250    7.000    5.500 
#    0.000    5.000    0.000    0.000    0.000    0.000 
#    0.000    0.000    0.000    0.000    0.000    0.000 
#
# Total GULP energy -178177.646342 kJ/mol
# GULP energy per Si atom -5568.051448 kJ/mol
# Density = 1.901143 g / cm^3
# Si number density = 19.054800 Si / 1000 Ang^3
#
#
#
# Elastic Constant Matrix: (Units=GPa)
#
#
# Indices 1 2 3 4 5 6 
#
# 1 103.2902 58.3976 68.1993 0.0000 0.0000 0.0000
# 2 58.3976 103.2902 68.1993 0.0000 0.0000 0.0000
# 3 68.1993 68.1993 198.3585 0.0000 0.0000 0.0000
# 4 0.0000 0.0000 0.0000 35.5777 0.0000 0.0000
# 5 0.0000 0.0000 0.0000 0.0000 35.5776 0.0000
# 6 0.0000 0.0000 0.0000 0.0000 0.0000 45.3860
#
#
#
# Elastic Compliance Matrix: (Units=1/GPa)
#
#
# Indices 1 2 3 4 5 6 
#
# 1 0.015493 -0.006782 -0.002995 0.000000 0.000000 0.000000
# 2 -0.006782 0.015493 -0.002995 0.000000 0.000000 0.000000
# 3 -0.002995 -0.002995 0.007101 0.000000 0.000000 0.000000
# 4 0.000000 0.000000 0.000000 0.028108 0.000000 0.000000
# 5 0.000000 0.000000 0.000000 0.000000 0.028108 0.000000
# 6 0.000000 0.000000 0.000000 0.000000 0.000000 0.022033
#
#
# Mechanical properties :
#
#
# Convention : Reuss Voigt Hill
#
# Bulk Modulus (GPa) = 79.72429 88.28125 84.00277
# Shear Modulus (GPa) = 34.23210 37.31777 35.77493
#
# Velocity S-wave (km/s) = 4.24312 4.43023 4.33769
# Velocity P-wave (km/s) = 8.12008 8.52057 8.32273
#
# Compressibility (1/GPa) = 0.01254323
#
# Stress axis : x y z
#
# Youngs Moduli (GPa) = 64.54353 64.54355 140.82612
#
# Poissons Ratio (x) = 0.43773 0.42180
# Poissons Ratio (y) = 0.43773 0.42180
# Poissons Ratio (z) = 0.19332 0.19332
#
# Static dielectric constant tensor:
#      x y z
#    x 1.733810 0.000000 0.000000 
#    y 0.000000 1.733810 0.000000 
#    z 0.000000 0.000000 1.464030 
# 
# From -- ./inp_files/53771.got.cif
#   From: 2010.05.17/outbox.cif.g08.bks.cpg/sg68_27_cif.got.tgz:53771.got - 2010.06.03 18:57:09.
