data_PCOD9509719
_publ_section_title
;
Structure prediction by ZEFSAII (Michael W. Deem and Ramdas Pophale) SiO2 
 PCOD9509719
Probable space group: C C C A
;
_chemical_formula_sum "Si O2"
_cell_formula_units_Z 80
_cell_length_a 16.732234
_cell_length_b 8.138916
_cell_length_c 23.999564
_cell_angle_alpha 90.000000
_cell_angle_beta 90.000000
_cell_angle_gamma 90.000000
_cell_volume 3268.314553
_symmetry_space_group_name_H-M "C C C A"
_symmetry_group_IT_number 68
_space_group.IT_coordinate_system_code '2'
_symmetry_cell_setting 'orthorhombic'
loop_
_space_group_symop_operation_xyz
x,y,z
-x,1/2-y,z
x,1/2-y,1/2-z
-x,y,1/2-z
-x,-y,-z
x,1/2+y,-z
-x,1/2+y,1/2+z
x,-y,1/2+z
1/2+x,1/2+y,z
1/2-x,-y,z
1/2+x,-y,1/2-z
1/2-x,1/2+y,1/2-z
1/2-x,1/2-y,-z
1/2+x,y,-z
1/2-x,y,1/2+z
1/2+x,1/2-y,1/2+z
loop_
_atom_site_type_symbol
_atom_site_label
_atom_site_fract_x
_atom_site_fract_y
_atom_site_fract_z
Si Si1 0.250000 0.500000 0.662856
Si Si2 0.500000 0.250000 0.857426
Si Si3 0.100385 0.532267 0.331094
Si Si4 0.750000 0.750000 0.500000
Si Si5 0.118449 0.534329 0.571358
Si Si6 0.801983 0.250000 0.750000
Si Si7 0.250000 0.000000 0.596828
Si Si8 0.500000 0.750000 0.582522
O O1 0.174837 0.476358 0.622157
O O2 0.250225 0.343430 0.703852
O O3 0.459707 0.386641 0.819628
O O4 0.561955 0.333551 0.899898
O O5 0.138197 0.622693 0.279115
O O6 0.175227 0.466791 0.364987
O O7 0.055487 0.647303 0.375685
O O8 0.822704 0.885105 0.525620
O O9 0.742828 0.660554 0.558839
O O10 0.060532 0.380787 0.551830
#
# Coordination Sequence:
#
# PCOD9509719 Si02
#       8
#     8   8  16   8  16   8   8   8
#     4  12  26  46  76 108 152 206 266 328 388 496
#     4  10  24  48  76 106 161 199 250 340 402 454
#     4  11  24  49  73 108 156 203 256 331 388 482
#     4  12  26  44  80 110 144 212 266 318 404 496
#     4  11  24  50  75 109 155 205 263 335 399 483
#     4  12  26  43  80 113 150 208 272 316 406 479
#     4  12  26  46  76 110 150 200 264 328 386 482
#     4  10  24  47  77 104 163 205 242 344 408 458
#
# _framework density 24.477447999999999
#
# number of rings (size 3 to 8) (size 9 to 14) (size 15 to 20)
#    0.000    0.800    4.000    2.400    5.600    0.400 
#    0.000    7.000    0.000    0.000    0.000    0.000 
#    0.000    0.000    0.000    0.000    0.000    0.000 
#
# Total GULP energy -222893.382821 kJ/mol
# GULP energy per Si atom -5572.334571 kJ/mol
# Density = 2.442174 g / cm^3
# Si number density = 24.477448 Si / 1000 Ang^3
#
#
#
# Elastic Constant Matrix: (Units=GPa)
#
#
# Indices 1 2 3 4 5 6 
#
# 1 115.2567 64.4272 51.8416 0.0000 0.0000 0.0000
# 2 64.4272 124.9424 52.1557 0.0000 0.0000 0.0000
# 3 51.8416 52.1557 108.1577 0.0000 0.0000 0.0000
# 4 0.0000 0.0000 0.0000 58.9670 0.0000 0.0000
# 5 0.0000 0.0000 0.0000 0.0000 21.8599 0.0000
# 6 0.0000 0.0000 0.0000 0.0000 0.0000 54.2576
#
#
#
# Elastic Compliance Matrix: (Units=1/GPa)
#
#
# Indices 1 2 3 4 5 6 
#
# 1 0.013364 -0.005280 -0.003859 0.000000 0.000000 0.000000
# 2 -0.005280 0.012107 -0.003307 0.000000 0.000000 0.000000
# 3 -0.003859 -0.003307 0.012690 0.000000 0.000000 0.000000
# 4 0.000000 0.000000 0.000000 0.016959 0.000000 0.000000
# 5 0.000000 0.000000 0.000000 0.000000 0.045746 0.000000
# 6 0.000000 0.000000 0.000000 0.000000 0.000000 0.018431
#
#
# Mechanical properties :
#
#
# Convention : Reuss Voigt Hill
#
# Bulk Modulus (GPa) = 75.37118 76.13396 75.75257
# Shear Modulus (GPa) = 33.64460 39.01238 36.32849
#
# Velocity S-wave (km/s) = 3.71147 3.99658 3.85666
# Velocity P-wave (km/s) = 7.01609 7.24349 7.13070
#
# Compressibility (1/GPa) = 0.01326767
#
# Stress axis : x y z
#
# Youngs Moduli (GPa) = 74.83001 82.59689 78.79929
#
# Poissons Ratio (x) = 0.43611 0.30411
# Poissons Ratio (y) = 0.39510 0.26062
# Poissons Ratio (z) = 0.28879 0.27318
#
# Static dielectric constant tensor:
#      x y z
#    x 1.959160 0.000000 0.000000 
#    y 0.000000 2.133980 0.000000 
#    z 0.000000 0.000000 1.543410 
# 
# From -- ./inp_files/51352.got.cif
#   From: 2010.05.17/outbox.cif.g08.bks.cpg/sg68_26_cif.got.tgz:51352.got - 2010.06.03 18:57:09.
