data_PCOD9509418
_publ_section_title
;
Structure prediction by ZEFSAII (Michael W. Deem and Ramdas Pophale) SiO2 
 PCOD9509418
Probable space group: C C C A
;
_chemical_formula_sum "Si O2"
_cell_formula_units_Z 88
_cell_length_a 16.233634
_cell_length_b 11.340366
_cell_length_c 21.526817
_cell_angle_alpha 90.000000
_cell_angle_beta 90.000000
_cell_angle_gamma 90.000000
_cell_volume 3962.986933
_symmetry_space_group_name_H-M "C C C A"
_symmetry_group_IT_number 68
_space_group.IT_coordinate_system_code '2'
_symmetry_cell_setting 'orthorhombic'
loop_
_space_group_symop_operation_xyz
x,y,z
-x,1/2-y,z
x,1/2-y,1/2-z
-x,y,1/2-z
-x,-y,-z
x,1/2+y,-z
-x,1/2+y,1/2+z
x,-y,1/2+z
1/2+x,1/2+y,z
1/2-x,-y,z
1/2+x,-y,1/2-z
1/2-x,1/2+y,1/2-z
1/2-x,1/2-y,-z
1/2+x,y,-z
1/2-x,y,1/2+z
1/2+x,1/2-y,1/2+z
loop_
_atom_site_type_symbol
_atom_site_label
_atom_site_fract_x
_atom_site_fract_y
_atom_site_fract_z
Si Si1 0.670226 0.319130 0.973281
Si Si2 0.122891 0.255798 0.350769
Si Si3 0.750000 0.000000 0.121954
Si Si4 0.936709 0.647856 0.088254
Si Si5 0.311763 0.276650 0.180492
Si Si6 0.502040 0.045790 0.680850
O O1 0.619825 0.234992 0.926065
O O2 0.701479 0.415944 0.924832
O O3 0.750000 0.250000 0.000000
O O4 0.615949 0.378689 0.026630
O O5 0.217144 0.262511 0.329383
O O6 0.073777 0.362693 0.321272
O O7 0.079083 0.133809 0.330318
O O8 0.692578 0.085101 0.163012
O O9 0.870897 0.706298 0.134948
O O10 0.985160 0.546490 0.125557
O O11 0.000000 0.750000 0.070362
O O12 0.337432 0.250000 0.250000
O O13 0.500000 0.990824 0.750000
#
# Coordination Sequence:
#
# PCOD9509418 Si02
#       6
#    16  16   8  16  16  16
#     4  11  24  47  72 102 144 180 253 299 360 448
#     4  10  23  47  73 106 133 194 242 297 366 436
#     4  10  24  46  78 102 144 188 236 324 362 418
#     4  12  30  43  67 108 147 194 237 306 375 431
#     4  11  25  45  74 103 143 192 251 293 368 448
#     4  11  26  45  73 105 149 182 240 306 370 449
#
# _framework density 22.205473999999999
#
# number of rings (size 3 to 8) (size 9 to 14) (size 15 to 20)
#    0.000    1.091    3.636    2.182   12.727    2.909 
#    0.000    0.000    0.000    0.000    0.000    0.000 
#    0.000    0.000    0.000    0.000    0.000    0.000 
#
# Total GULP energy -245985.923832 kJ/mol
# GULP energy per Si atom -5590.589178 kJ/mol
# Density = 2.215493 g / cm^3
# Si number density = 22.205474 Si / 1000 Ang^3
#
#
#
# Elastic Constant Matrix: (Units=GPa)
#
#
# Indices 1 2 3 4 5 6 
#
# 1 63.5002 -0.8510 -1.0991 0.0000 0.0000 0.0000
# 2 -0.8510 81.9409 21.1268 0.0000 0.0000 0.0000
# 3 -1.0991 21.1268 155.2456 0.0000 0.0000 0.0000
# 4 0.0000 0.0000 0.0000 23.5388 0.0000 0.0000
# 5 0.0000 0.0000 0.0000 0.0000 31.1711 0.0000
# 6 0.0000 0.0000 0.0000 0.0000 0.0000 32.4763
#
#
#
# Elastic Compliance Matrix: (Units=1/GPa)
#
#
# Indices 1 2 3 4 5 6 
#
# 1 0.015751 0.000140 0.000093 0.000000 0.000000 0.000000
# 2 0.000140 0.012649 -0.001720 0.000000 0.000000 0.000000
# 3 0.000093 -0.001720 0.006676 0.000000 0.000000 0.000000
# 4 0.000000 0.000000 0.000000 0.042483 0.000000 0.000000
# 5 0.000000 0.000000 0.000000 0.000000 0.032081 0.000000
# 6 0.000000 0.000000 0.000000 0.000000 0.000000 0.030792
#
#
# Mechanical properties :
#
#
# Convention : Reuss Voigt Hill
#
# Bulk Modulus (GPa) = 31.15232 37.67112 34.41172
# Shear Modulus (GPa) = 32.44465 36.20458 34.32462
#
# Velocity S-wave (km/s) = 3.82659 4.04225 3.93590
# Velocity P-wave (km/s) = 5.79511 6.22800 6.01545
#
# Compressibility (1/GPa) = 0.03210033
#
# Stress axis : x y z
#
# Youngs Moduli (GPa) = 63.48620 79.05809 149.78634
#
# Poissons Ratio (x) = -0.01105 -0.01386
# Poissons Ratio (y) = -0.00887 0.25769
# Poissons Ratio (z) = -0.00587 0.13601
#
# Static dielectric constant tensor:
#      x y z
#    x 1.844030 0.000000 0.000000 
#    y 0.000000 1.854240 0.000000 
#    z 0.000000 0.000000 1.829140 
# 
# From -- ./inp_files/39429.got.cif
#   From: 2010.05.17/outbox.cif.g08.bks.cpg/sg68_20_cif.got.tgz:39429.got - 2010.06.03 18:57:09.
