data_PCOD9509439
_publ_section_title
;
Structure prediction by ZEFSAII (Michael W. Deem and Ramdas Pophale) SiO2 
 PCOD9509439
Probable space group: C C C A
;
_chemical_formula_sum "Si O2"
_cell_formula_units_Z 64
_cell_length_a 20.624422
_cell_length_b 16.862696
_cell_length_c 8.241572
_cell_angle_alpha 90.000000
_cell_angle_beta 90.000000
_cell_angle_gamma 90.000000
_cell_volume 2866.281588
_symmetry_space_group_name_H-M "C C C A"
_symmetry_group_IT_number 68
_space_group.IT_coordinate_system_code '2'
_symmetry_cell_setting 'orthorhombic'
loop_
_space_group_symop_operation_xyz
x,y,z
-x,1/2-y,z
x,1/2-y,1/2-z
-x,y,1/2-z
-x,-y,-z
x,1/2+y,-z
-x,1/2+y,1/2+z
x,-y,1/2+z
1/2+x,1/2+y,z
1/2-x,-y,z
1/2+x,-y,1/2-z
1/2-x,1/2+y,1/2-z
1/2-x,1/2-y,-z
1/2+x,y,-z
1/2-x,y,1/2+z
1/2+x,1/2-y,1/2+z
loop_
_atom_site_type_symbol
_atom_site_label
_atom_site_fract_x
_atom_site_fract_y
_atom_site_fract_z
Si Si1 0.954922 0.445807 0.883599
Si Si2 0.622586 0.919982 0.312889
Si Si3 0.816129 0.654825 0.947407
Si Si4 0.292404 0.250000 0.250000
Si Si5 0.250000 0.500000 0.930577
O O1 0.912009 0.506004 0.775322
O O2 0.000000 0.402665 0.750000
O O3 0.910358 0.400826 0.014418
O O4 0.000000 0.500000 0.000000
O O5 0.625971 0.849842 0.181860
O O6 0.696707 0.944871 0.346017
O O7 0.755179 0.695830 0.859009
O O8 0.830088 0.697547 0.117974
O O9 0.795417 0.564684 0.984552
#
# Coordination Sequence:
#
# PCOD9509439 Si02
#       5
#    16  16  16   8   8
#     4   9  20  36  52  85 128 154 206 275 339 381
#     4  11  20  33  59  86 125 159 204 266 338 399
#     4  11  22  37  54  85 129 175 202 260 326 415
#     4  10  24  38  50  80 147 171 206 244 332 420
#     4  12  22  32  62  98 124 150 214 268 340 398
#
# _framework density 22.328579999999999
#
# number of rings (size 3 to 8) (size 9 to 14) (size 15 to 20)
#    0.000    1.500    5.000    0.750    0.000    0.000 
#    0.000    0.000    0.000    0.000    0.000    7.875 
#   30.000    2.500    0.000    0.000    0.000    0.000 
#
# Total GULP energy -178409.276887 kJ/mol
# GULP energy per Si atom -5575.289903 kJ/mol
# Density = 2.227776 g / cm^3
# Si number density = 22.328580 Si / 1000 Ang^3
#
#
#
# Elastic Constant Matrix: (Units=GPa)
#
#
# Indices 1 2 3 4 5 6 
#
# 1 61.5648 -13.4447 47.4567 0.0000 0.0000 0.0000
# 2 -13.4447 53.4701 36.5748 0.0000 0.0000 0.0000
# 3 47.4567 36.5748 210.1573 0.0000 0.0000 0.0000
# 4 0.0000 0.0000 0.0000 51.1010 0.0000 0.0000
# 5 0.0000 0.0000 0.0000 0.0000 88.2315 0.0000
# 6 0.0000 0.0000 0.0000 0.0000 0.0000 6.6474
#
#
#
# Elastic Compliance Matrix: (Units=1/GPa)
#
#
# Indices 1 2 3 4 5 6 
#
# 1 0.024481 0.011280 -0.007491 0.000000 0.000000 0.000000
# 2 0.011280 0.026426 -0.007146 0.000000 0.000000 0.000000
# 3 -0.007491 -0.007146 0.007694 0.000000 0.000000 0.000000
# 4 0.000000 0.000000 0.000000 0.019569 0.000000 0.000000
# 5 0.000000 0.000000 0.000000 0.000000 0.011334 0.000000
# 6 0.000000 0.000000 0.000000 0.000000 0.000000 0.150434
#
#
# Mechanical properties :
#
#
# Convention : Reuss Voigt Hill
#
# Bulk Modulus (GPa) = 19.27324 51.81844 35.54584
# Shear Modulus (GPa) = 18.94309 46.16968 32.55639
#
# Velocity S-wave (km/s) = 2.91585 4.55217 3.82260
# Velocity P-wave (km/s) = 4.47064 7.13353 5.95290
#
# Compressibility (1/GPa) = 0.05188541
#
# Stress axis : x y z
#
# Youngs Moduli (GPa) = 40.84824 37.84088 129.97689
#
# Poissons Ratio (x) = -0.42683 0.97368
# Poissons Ratio (y) = -0.46076 0.92885
# Poissons Ratio (z) = 0.30600 0.27042
#
# Static dielectric constant tensor:
#      x y z
#    x 1.885870 0.000000 0.000000 
#    y 0.000000 1.849610 0.000000 
#    z 0.000000 0.000000 1.950460 
# 
# From -- ./inp_files/5855.got.cif
#   From: 2010.05.17/outbox.cif.g08.bks.cpg/sg68_3_cif.got.tgz:5855.got - 2010.06.03 18:57:09.
