data_PCOD9509581
_publ_section_title
;
Structure prediction by ZEFSAII (Michael W. Deem and Ramdas Pophale) SiO2 
 PCOD9509581
Probable space group: C C C A
;
_chemical_formula_sum "Si O2"
_cell_formula_units_Z 104
_cell_length_a 8.938327
_cell_length_b 20.394948
_cell_length_c 28.522490
_cell_angle_alpha 90.000000
_cell_angle_beta 90.000000
_cell_angle_gamma 90.000000
_cell_volume 5199.556213
_symmetry_space_group_name_H-M "C C C A"
_symmetry_group_IT_number 68
_space_group.IT_coordinate_system_code '2'
_symmetry_cell_setting 'orthorhombic'
loop_
_space_group_symop_operation_xyz
x,y,z
-x,1/2-y,z
x,1/2-y,1/2-z
-x,y,1/2-z
-x,-y,-z
x,1/2+y,-z
-x,1/2+y,1/2+z
x,-y,1/2+z
1/2+x,1/2+y,z
1/2-x,-y,z
1/2+x,-y,1/2-z
1/2-x,1/2+y,1/2-z
1/2-x,1/2-y,-z
1/2+x,y,-z
1/2-x,y,1/2+z
1/2+x,1/2-y,1/2+z
loop_
_atom_site_type_symbol
_atom_site_label
_atom_site_fract_x
_atom_site_fract_y
_atom_site_fract_z
Si Si1 0.337665 0.816757 0.772710
Si Si2 0.233347 0.212239 0.369294
Si Si3 0.136940 0.705281 0.031333
Si Si4 0.250000 0.500000 0.508175
Si Si5 0.913997 0.849000 0.863786
Si Si6 0.158986 0.566883 0.773440
Si Si7 0.511739 0.909468 0.463511
O O1 0.269449 0.750000 0.750000
O O2 0.500000 0.823866 0.750000
O O3 0.347295 0.806488 0.828388
O O4 0.243046 0.879933 0.758862
O O5 0.276163 0.186817 0.420963
O O6 0.204133 0.290183 0.371196
O O7 0.075073 0.182706 0.352145
O O8 0.000000 0.750000 0.047737
O O9 0.250000 0.750000 0.000000
O O10 0.056224 0.648329 0.000619
O O11 0.373305 0.533764 0.476413
O O12 0.346242 0.442534 0.534056
O O13 0.863507 0.897958 0.823438
O O14 0.945428 0.883581 0.912849
O O15 0.250000 0.500000 0.777880
O O16 0.000000 0.552572 0.750000
#
# Coordination Sequence:
#
# PCOD9509581 Si02
#       7
#    16  16  16   8  16  16  16
#     4  11  24  44  70 101 140 175 233 292 346 422
#     4  11  23  41  70 108 132 181 225 282 363 425
#     4  12  24  40  69 105 146 174 224 297 360 410
#     4  10  24  44  64  86 134 192 234 272 326 412
#     4  11  23  41  73 100 137 172 232 283 356 423
#     4  12  26  48  70 101 137 184 230 293 354 422
#     4  11  23  44  64  96 135 182 232 280 340 411
#
# _framework density 20.001707
#
# number of rings (size 3 to 8) (size 9 to 14) (size 15 to 20)
#    0.000    0.769    4.615    3.231    3.231    0.308 
#    1.385    1.538    0.000    0.000    0.000    0.000 
#    0.000    0.000    0.000    0.000    0.000    0.000 
#
# Total GULP energy -290401.457308 kJ/mol
# GULP energy per Si atom -5584.643410 kJ/mol
# Density = 1.995618 g / cm^3
# Si number density = 20.001707 Si / 1000 Ang^3
#
#
#
# Elastic Constant Matrix: (Units=GPa)
#
#
# Indices 1 2 3 4 5 6 
#
# 1 109.5181 54.9184 44.4542 0.0000 0.0000 0.0000
# 2 54.9184 134.0680 60.9552 0.0000 0.0000 0.0000
# 3 44.4542 60.9552 155.0547 0.0000 0.0000 0.0000
# 4 0.0000 0.0000 0.0000-1114.6907 0.0000 0.0000
# 5 0.0000 0.0000 0.0000 0.0000 29.1305 0.0000
# 6 0.0000 0.0000 0.0000 0.0000 0.0000 42.7630
#
#
#
# Elastic Compliance Matrix: (Units=1/GPa)
#
#
# Indices 1 2 3 4 5 6 
#
# 1 0.011899 -0.004046 -0.001821 0.000000 0.000000 0.000000
# 2 -0.004046 0.010458 -0.002951 0.000000 0.000000 0.000000
# 3 -0.001821 -0.002951 0.008132 0.000000 0.000000 0.000000
# 4 0.000000 0.000000 0.000000 -0.000897 0.000000 0.000000
# 5 0.000000 0.000000 0.000000 0.000000 0.034328 0.000000
# 6 0.000000 0.000000 0.000000 0.000000 0.000000 0.023385
#
#
# Mechanical properties :
#
#
# Convention : Reuss Voigt Hill
#
# Bulk Modulus (GPa) = 77.80855 79.92183 78.86519
# Shear Modulus (GPa) = 45.77686 -192.67190 -73.44752
#
# Velocity S-wave (km/s) = 4.78917 -9.82532 -6.06633
# Velocity P-wave (km/s) = 8.34068 9.41656 3.09068
#
# Compressibility (1/GPa) = 0.01285206
#
# Stress axis : x y z
#
# Youngs Moduli (GPa) = 84.04032 95.61826 122.97803
#
# Poissons Ratio (x) = 0.38691 0.22391
# Poissons Ratio (y) = 0.34006 0.36294
# Poissons Ratio (z) = 0.15301 0.28219
#
# Static dielectric constant tensor:
#      x y z
#    x 1.736780 0.000000 0.000000 
#    y 0.000000 1.733360 0.000000 
#    z 0.000000 0.000000 1.681870 
# 
# From -- ./inp_files/49430.got.cif
#   From: 2010.05.17/outbox.cif.g08.bks.cpg/sg68_25_cif.got.tgz:49430.got - 2010.06.03 18:57:09.
