data_PCOD9509054
_publ_section_title
;
Structure prediction by ZEFSAII (Michael W. Deem and Ramdas Pophale) SiO2 
 PCOD9509054
Probable space group: C C C A
;
_chemical_formula_sum "Si O2"
_cell_formula_units_Z 92
_cell_length_a 7.865372
_cell_length_b 20.253885
_cell_length_c 22.870846
_cell_angle_alpha 90.000000
_cell_angle_beta 90.000000
_cell_angle_gamma 90.000000
_cell_volume 3643.425027
_symmetry_space_group_name_H-M "C C C A"
_symmetry_group_IT_number 68
_space_group.IT_coordinate_system_code '2'
_symmetry_cell_setting 'orthorhombic'
loop_
_space_group_symop_operation_xyz
x,y,z
-x,1/2-y,z
x,1/2-y,1/2-z
-x,y,1/2-z
-x,-y,-z
x,1/2+y,-z
-x,1/2+y,1/2+z
x,-y,1/2+z
1/2+x,1/2+y,z
1/2-x,-y,z
1/2+x,-y,1/2-z
1/2-x,1/2+y,1/2-z
1/2-x,1/2-y,-z
1/2+x,y,-z
1/2-x,y,1/2+z
1/2+x,1/2-y,1/2+z
loop_
_atom_site_type_symbol
_atom_site_label
_atom_site_fract_x
_atom_site_fract_y
_atom_site_fract_z
Si Si1 0.500000 0.750000 0.750000
Si Si2 0.750000 0.000000 0.961505
Si Si3 0.500000 0.052065 0.750000
Si Si4 0.750000 0.250000 0.000000
Si Si5 0.247376 0.613485 0.556397
Si Si6 0.999770 0.458809 0.863668
Si Si7 0.247832 0.645878 0.306477
Si Si8 0.587104 0.181750 0.916720
O O1 0.376300 0.798210 0.715213
O O2 0.911847 0.006477 0.919033
O O3 0.734801 0.062990 0.003200
O O4 0.339475 0.100441 0.741430
O O5 0.479908 0.006984 0.807929
O O6 0.683097 0.186985 0.042337
O O7 0.734005 0.305675 0.053008
O O8 0.334654 0.578720 0.612017
O O9 0.048675 0.627863 0.567025
O O10 0.138624 0.405023 0.844379
O O11 0.388803 0.678771 0.348234
O O12 0.500000 0.250000 0.944318
#
# Coordination Sequence:
#
# PCOD9509054 Si02
#       8
#     4   8   8   8  16  16  16  16
#     4  12  34  54  80 128 154 214 276 370 416 518
#     4  12  24  48  78 128 168 228 278 356 432 524
#     4  12  29  53  84 111 163 236 286 350 436 515
#     4  10  22  46  72 116 164 216 280 350 436 524
#     4  11  26  44  82 120 172 218 289 351 448 517
#     4  12  27  52  79 123 169 223 290 364 422 526
#     4  12  29  52  83 113 165 210 287 349 430 511
#     4  10  25  46  75 116 155 222 269 349 433 526
#
# _framework density 25.250965999999998
#
# number of rings (size 3 to 8) (size 9 to 14) (size 15 to 20)
#    0.000    0.696    1.739    3.130    9.739    5.565 
#    0.000    0.000    0.000    0.000    0.000    0.000 
#    0.000    0.000    0.000    0.000    0.000    0.000 
#
# Total GULP energy -256653.605810 kJ/mol
# GULP energy per Si atom -5579.426213 kJ/mol
# Density = 2.519349 g / cm^3
# Si number density = 25.250966 Si / 1000 Ang^3
#
#
#
# Elastic Constant Matrix: (Units=GPa)
#
#
# Indices 1 2 3 4 5 6 
#
# 1 113.4130 84.4734 63.5520 0.0000 0.0000 0.0000
# 2 84.4734 186.2925 72.3405 0.0000 0.0000 0.0000
# 3 63.5520 72.3405 136.5983 0.0000 0.0000 0.0000
# 4 0.0000 0.0000 0.0000 49.3486 0.0000 0.0000
# 5 0.0000 0.0000 0.0000 0.0000 -2.1639 0.0000
# 6 0.0000 0.0000 0.0000 0.0000 0.0000 54.2168
#
#
#
# Elastic Compliance Matrix: (Units=1/GPa)
#
#
# Indices 1 2 3 4 5 6 
#
# 1 0.015061 -0.005172 -0.004268 0.000000 0.000000 0.000000
# 2 -0.005172 0.008534 -0.002113 0.000000 0.000000 0.000000
# 3 -0.004268 -0.002113 0.010426 0.000000 0.000000 0.000000
# 4 0.000000 0.000000 0.000000 0.020264 0.000000 0.000000
# 5 0.000000 0.000000 0.000000 0.000000 -0.462132 0.000000
# 6 0.000000 0.000000 0.000000 0.000000 0.000000 0.018444
#
#
# Mechanical properties :
#
#
# Convention : Reuss Voigt Hill
#
# Bulk Modulus (GPa) = 91.62562 97.44838 94.53700
# Shear Modulus (GPa) = -13.78708 34.67616 10.44454
#
# Velocity S-wave (km/s) = -2.33920 3.70977 2.03599
# Velocity P-wave (km/s) = 5.39156 7.55153 6.56104
#
# Compressibility (1/GPa) = 0.01091398
#
# Stress axis : x y z
#
# Youngs Moduli (GPa) = 66.39487 117.18270 95.91839
#
# Poissons Ratio (x) = 0.60608 0.40940
# Poissons Ratio (y) = 0.34340 0.20268
# Poissons Ratio (z) = 0.28339 0.24761
#
# Static dielectric constant tensor:
#      x y z
#    x 1.905740 0.000000 0.000000 
#    y 0.000000 2.102960 0.000000 
#    z 0.000000 0.000000 2.362760 
# 
# From -- ./inp_files/43212.got.cif
#   From: 2010.05.17/outbox.cif.g08.bks.cpg/sg68_22_cif.got.tgz:43212.got - 2010.06.03 18:57:09.
