data_PCOD9509576
_publ_section_title
;
Structure prediction by ZEFSAII (Michael W. Deem and Ramdas Pophale) SiO2 
 PCOD9509576
Probable space group: C C C A
;
_chemical_formula_sum "Si O2"
_cell_formula_units_Z 88
_cell_length_a 17.898253
_cell_length_b 17.945015
_cell_length_c 12.009158
_cell_angle_alpha 90.000000
_cell_angle_beta 90.000000
_cell_angle_gamma 90.000000
_cell_volume 3857.154430
_symmetry_space_group_name_H-M "C C C A"
_symmetry_group_IT_number 68
_space_group.IT_coordinate_system_code '2'
_symmetry_cell_setting 'orthorhombic'
loop_
_space_group_symop_operation_xyz
x,y,z
-x,1/2-y,z
x,1/2-y,1/2-z
-x,y,1/2-z
-x,-y,-z
x,1/2+y,-z
-x,1/2+y,1/2+z
x,-y,1/2+z
1/2+x,1/2+y,z
1/2-x,-y,z
1/2+x,-y,1/2-z
1/2-x,1/2+y,1/2-z
1/2-x,1/2-y,-z
1/2+x,y,-z
1/2-x,y,1/2+z
1/2+x,1/2-y,1/2+z
loop_
_atom_site_type_symbol
_atom_site_label
_atom_site_fract_x
_atom_site_fract_y
_atom_site_fract_z
Si Si1 0.241306 0.625891 0.761691
Si Si2 0.365727 0.543487 0.098403
Si Si3 0.859427 0.250000 0.750000
Si Si4 0.941817 0.356220 0.580296
Si Si5 0.500000 0.250000 0.568151
Si Si6 0.376739 0.750000 0.250000
Si Si7 0.250000 0.500000 0.440666
Si Si8 0.000000 0.522086 0.250000
O O1 0.201639 0.573924 0.672405
O O2 0.306910 0.679635 0.716684
O O3 0.175878 0.683782 0.791623
O O4 0.264292 0.571721 0.862057
O O5 0.435049 0.520550 0.179010
O O6 0.391141 0.607972 0.014708
O O7 0.324143 0.485511 0.015630
O O8 0.906980 0.288538 0.652007
O O9 0.961696 0.423042 0.661788
O O10 0.010462 0.321159 0.511354
O O11 0.568843 0.232666 0.648075
#
# Coordination Sequence:
#
# PCOD9509576 Si02
#       8
#    16  16   8  16   8   8   8   8
#     4  11  25  47  73 110 150 191 257 318 375 466
#     4  12  27  46  76 108 150 202 256 315 389 451
#     4  11  26  48  72 110 150 193 258 312 389 459
#     4  12  25  48  72 106 149 201 253 320 386 448
#     4  11  24  43  70 102 138 199 252 307 392 444
#     4  10  24  43  74 105 150 190 254 326 367 477
#     4  12  26  46  76 114 148 204 254 316 392 454
#     4  12  30  47  72 111 154 200 260 324 374 481
#
# _framework density 22.814748000000002
#
# number of rings (size 3 to 8) (size 9 to 14) (size 15 to 20)
#    0.000    0.545    3.636    3.273    7.636    2.182 
#    0.000    0.000    0.000    0.000    0.000    0.000 
#    0.000    0.000    0.000    0.000    0.000    0.000 
#
# Total GULP energy -245546.163309 kJ/mol
# GULP energy per Si atom -5580.594621 kJ/mol
# Density = 2.276282 g / cm^3
# Si number density = 22.814748 Si / 1000 Ang^3
#
#
#
# Elastic Constant Matrix: (Units=GPa)
#
#
# Indices 1 2 3 4 5 6 
#
# 1 94.1843 53.4210 67.9715 0.0000 0.0000 0.0000
# 2 53.4210 113.7528 70.9644 0.0000 0.0000 0.0000
# 3 67.9715 70.9644 144.5137 0.0000 0.0000 0.0000
# 4 0.0000 0.0000 0.0000 37.6573 0.0000 0.0000
# 5 0.0000 0.0000 0.0000 0.0000 7.6458 0.0000
# 6 0.0000 0.0000 0.0000 0.0000 0.0000 52.1385
#
#
#
# Elastic Compliance Matrix: (Units=1/GPa)
#
#
# Indices 1 2 3 4 5 6 
#
# 1 0.017506 -0.004447 -0.006050 0.000000 0.000000 0.000000
# 2 -0.004447 0.013803 -0.004687 0.000000 0.000000 0.000000
# 3 -0.006050 -0.004687 0.012067 0.000000 0.000000 0.000000
# 4 0.000000 0.000000 0.000000 0.026555 0.000000 0.000000
# 5 0.000000 0.000000 0.000000 0.000000 0.130791 0.000000
# 6 0.000000 0.000000 0.000000 0.000000 0.000000 0.019180
#
#
# Mechanical properties :
#
#
# Convention : Reuss Voigt Hill
#
# Bulk Modulus (GPa) = 76.87164 81.90716 79.38940
# Shear Modulus (GPa) = 19.63822 30.16122 24.89972
#
# Velocity S-wave (km/s) = 2.93707 3.63988 3.30720
# Velocity P-wave (km/s) = 6.72821 7.32420 7.03252
#
# Compressibility (1/GPa) = 0.01300870
#
# Stress axis : x y z
#
# Youngs Moduli (GPa) = 57.12288 72.44805 82.87174
#
# Poissons Ratio (x) = 0.32216 0.50140
# Poissons Ratio (y) = 0.25402 0.38838
# Poissons Ratio (z) = 0.34561 0.33953
#
# Static dielectric constant tensor:
#      x y z
#    x 2.567120 0.000000 0.000000 
#    y 0.000000 1.868890 0.000000 
#    z 0.000000 0.000000 1.938150 
# 
# From -- ./inp_files/15476.got.cif
#   From: 2010.05.17/outbox.cif.g08.bks.cpg/sg68_8_cif.got.tgz:15476.got - 2010.06.03 18:57:09.
