data_PCOD9509973
_publ_section_title
;
Structure prediction by ZEFSAII (Michael W. Deem and Ramdas Pophale) SiO2 
 PCOD9509973
Probable space group: C C C A
;
_chemical_formula_sum "Si O2"
_cell_formula_units_Z 96
_cell_length_a 15.529673
_cell_length_b 14.224402
_cell_length_c 21.225699
_cell_angle_alpha 90.000000
_cell_angle_beta 90.000000
_cell_angle_gamma 90.000000
_cell_volume 4688.763525
_symmetry_space_group_name_H-M "C C C A"
_symmetry_group_IT_number 68
_space_group.IT_coordinate_system_code '2'
_symmetry_cell_setting 'orthorhombic'
loop_
_space_group_symop_operation_xyz
x,y,z
-x,1/2-y,z
x,1/2-y,1/2-z
-x,y,1/2-z
-x,-y,-z
x,1/2+y,-z
-x,1/2+y,1/2+z
x,-y,1/2+z
1/2+x,1/2+y,z
1/2-x,-y,z
1/2+x,-y,1/2-z
1/2-x,1/2+y,1/2-z
1/2-x,1/2-y,-z
1/2+x,y,-z
1/2-x,y,1/2+z
1/2+x,1/2-y,1/2+z
loop_
_atom_site_type_symbol
_atom_site_label
_atom_site_fract_x
_atom_site_fract_y
_atom_site_fract_z
Si Si1 0.333675 0.043070 0.874975
Si Si2 0.513484 0.974163 0.820741
Si Si3 0.577345 0.313013 0.081553
Si Si4 0.397851 0.987936 0.504669
Si Si5 0.826858 0.572923 0.629732
Si Si6 0.246374 0.236975 0.422446
O O1 0.305928 0.146597 0.897881
O O2 0.250000 0.000000 0.841050
O O3 0.425061 0.025996 0.841569
O O4 0.349819 0.988834 0.940908
O O5 0.500000 0.940230 0.750000
O O6 0.541668 0.886193 0.865558
O O7 0.592316 0.048502 0.826060
O O8 0.500000 0.250000 0.057326
O O9 0.613880 0.381357 0.027761
O O10 0.653770 0.242630 0.099542
O O11 0.500000 0.000000 0.500000
O O12 0.360925 0.048866 0.560171
O O13 0.750000 0.500000 0.644888
O O14 0.793286 0.676891 0.618277
O O15 0.250000 0.250000 0.500000
#
# Coordination Sequence:
#
# PCOD9509973 Si02
#       6
#    16  16  16  16  16  16
#     4  12  24  41  63 101 137 168 221 274 341 399
#     4  11  26  48  70  87 126 189 235 282 324 380
#     4  11  23  40  64  99 133 170 224 273 336 401
#     4  11  20  36  64  95 136 178 204 269 342 416
#     4  11  21  42  65  96 133 172 223 267 338 405
#     4  12  23  36  67 106 134 171 204 269 352 421
#
# _framework density 20.474481000000001
#
# number of rings (size 3 to 8) (size 9 to 14) (size 15 to 20)
#    0.000    0.667    8.333    2.500    2.333    1.667 
#    0.000    1.667    0.000    0.000    0.000    0.000 
#    0.000    0.000    0.000    0.000    0.000    0.000 
#
# Total GULP energy -267609.479675 kJ/mol
# GULP energy per Si atom -5575.197493 kJ/mol
# Density = 2.042788 g / cm^3
# Si number density = 20.474481 Si / 1000 Ang^3
#
#
#
# Elastic Constant Matrix: (Units=GPa)
#
#
# Indices 1 2 3 4 5 6 
#
# 1 151.8817 22.9955 19.1171 0.0000 0.0000 0.0000
# 2 22.9955 72.2766 13.5257 0.0000 0.0000 0.0000
# 3 19.1171 13.5257 52.4864 0.0000 0.0000 0.0000
# 4 0.0000 0.0000 0.0000 -25.4965 0.0000 0.0000
# 5 0.0000 0.0000 0.0000 0.0000 -6.1466 0.0000
# 6 0.0000 0.0000 0.0000 0.0000 0.0000 40.6769
#
#
#
# Elastic Compliance Matrix: (Units=1/GPa)
#
#
# Indices 1 2 3 4 5 6 
#
# 1 0.007134 -0.001874 -0.002116 0.000000 0.000000 0.000000
# 2 -0.001874 0.015029 -0.003190 0.000000 0.000000 0.000000
# 3 -0.002116 -0.003190 0.020645 0.000000 0.000000 0.000000
# 4 0.000000 0.000000 0.000000 -0.039221 0.000000 0.000000
# 5 0.000000 0.000000 0.000000 0.000000 -0.162693 0.000000
# 6 0.000000 0.000000 0.000000 0.000000 0.000000 0.024584
#
#
# Mechanical properties :
#
#
# Convention : Reuss Voigt Hill
#
# Bulk Modulus (GPa) = 35.15108 43.10237 39.12672
# Shear Modulus (GPa) = -45.17576 16.54053 -14.31761
#
# Velocity S-wave (km/s) = -4.70237 2.84537 -2.64728
# Velocity P-wave (km/s) = 3.50394 5.64733 3.13167
#
# Compressibility (1/GPa) = 0.02844863
#
# Stress axis : x y z
#
# Youngs Moduli (GPa) = 140.17258 66.53808 48.43721
#
# Poissons Ratio (x) = 0.12468 0.10247
# Poissons Ratio (y) = 0.26267 0.15454
# Poissons Ratio (z) = 0.29654 0.21229
#
# Static dielectric constant tensor:
#      x y z
#    x 1.792040 0.000000 0.000000 
#    y 0.000000 1.787100 0.000000 
#    z 0.000000 0.000000 1.717930 
# 
# From -- ./inp_files/38589.got.cif
#   From: 2010.05.17/outbox.cif.g08.bks.cpg/sg68_20_cif.got.tgz:38589.got - 2010.06.03 18:57:09.
