data_PCOD9509154
_publ_section_title
;
Structure prediction by ZEFSAII (Michael W. Deem and Ramdas Pophale) SiO2 
 PCOD9509154
Probable space group: C C C A
;
_chemical_formula_sum "Si O2"
_cell_formula_units_Z 72
_cell_length_a 10.869744
_cell_length_b 10.961445
_cell_length_c 25.725473
_cell_angle_alpha 90.000000
_cell_angle_beta 90.000000
_cell_angle_gamma 90.000000
_cell_volume 3065.141256
_symmetry_space_group_name_H-M "C C C A"
_symmetry_group_IT_number 68
_space_group.IT_coordinate_system_code '2'
_symmetry_cell_setting 'orthorhombic'
loop_
_space_group_symop_operation_xyz
x,y,z
-x,1/2-y,z
x,1/2-y,1/2-z
-x,y,1/2-z
-x,-y,-z
x,1/2+y,-z
-x,1/2+y,1/2+z
x,-y,1/2+z
1/2+x,1/2+y,z
1/2-x,-y,z
1/2+x,-y,1/2-z
1/2-x,1/2+y,1/2-z
1/2-x,1/2-y,-z
1/2+x,y,-z
1/2-x,y,1/2+z
1/2+x,1/2-y,1/2+z
loop_
_atom_site_type_symbol
_atom_site_label
_atom_site_fract_x
_atom_site_fract_y
_atom_site_fract_z
Si Si1 0.383396 0.180018 0.628670
Si Si2 0.500000 0.750000 0.668330
Si Si3 0.120754 0.071880 0.017657
Si Si4 0.319023 0.130210 0.407940
Si Si5 0.735220 0.372990 0.222024
O O1 0.500000 0.250000 0.649740
O O2 0.415295 0.119082 0.574151
O O3 0.278570 0.274355 0.612708
O O4 0.324967 0.100423 0.673542
O O5 0.566835 0.848499 0.630629
O O6 0.398590 0.825851 0.701488
O O7 0.250000 0.000000 0.024297
O O8 0.145658 0.158604 0.967876
O O9 0.000000 0.000000 0.000000
O O10 0.250000 0.000000 0.407229
O O11 0.782452 0.250000 0.250000
O O12 0.750000 0.500000 0.253901
#
# Coordination Sequence:
#
# PCOD9509154 Si02
#       5
#    16   8  16  16  16
#     4  11  24  42  69 105 142 191 246 305 372 454
#     4  10  25  46  78 106 144 198 241 314 378 460
#     4  11  24  39  66 103 150 196 242 297 365 460
#     4  10  23  40  66 104 148 193 239 293 360 452
#     4  11  27  51  78 108 146 195 259 325 394 454
#
# _framework density 23.489946
#
# number of rings (size 3 to 8) (size 9 to 14) (size 15 to 20)
#    0.000    1.333    0.000    4.333   14.000    4.000 
#    4.000    0.000    0.000    0.000    0.000    0.000 
#    0.000    0.000    0.000    0.000    0.000    0.000 
#
# Total GULP energy -201065.377620 kJ/mol
# GULP energy per Si atom -5585.149378 kJ/mol
# Density = 2.343648 g / cm^3
# Si number density = 23.489946 Si / 1000 Ang^3
#
#
#
# Elastic Constant Matrix: (Units=GPa)
#
#
# Indices 1 2 3 4 5 6 
#
# 1 114.5337 11.3277 23.6993 0.0000 0.0000 0.0000
# 2 11.3277 90.7353 25.0875 0.0000 0.0000 0.0000
# 3 23.6993 25.0875 64.7311 0.0000 0.0000 0.0000
# 4 0.0000 0.0000 0.0000 30.9450 0.0000 0.0000
# 5 0.0000 0.0000 0.0000 0.0000 47.5510 0.0000
# 6 0.0000 0.0000 0.0000 0.0000 0.0000 27.9959
#
#
#
# Elastic Compliance Matrix: (Units=1/GPa)
#
#
# Indices 1 2 3 4 5 6 
#
# 1 0.009452 -0.000250 -0.003364 0.000000 0.000000 0.000000
# 2 -0.000250 0.012350 -0.004695 0.000000 0.000000 0.000000
# 3 -0.003364 -0.004695 0.018500 0.000000 0.000000 0.000000
# 4 0.000000 0.000000 0.000000 0.032315 0.000000 0.000000
# 5 0.000000 0.000000 0.000000 0.000000 0.021030 0.000000
# 6 0.000000 0.000000 0.000000 0.000000 0.000000 0.035720
#
#
# Mechanical properties :
#
#
# Convention : Reuss Voigt Hill
#
# Bulk Modulus (GPa) = 42.22161 43.35878 42.79020
# Shear Modulus (GPa) = 32.49308 35.29076 33.89192
#
# Velocity S-wave (km/s) = 3.72328 3.88026 3.80258
# Velocity P-wave (km/s) = 6.04128 6.21077 6.12661
#
# Compressibility (1/GPa) = 0.02368455
#
# Stress axis : x y z
#
# Youngs Moduli (GPa) = 105.80024 80.96890 54.05513
#
# Poissons Ratio (x) = 0.02024 0.18182
# Poissons Ratio (y) = 0.02645 0.25379
# Poissons Ratio (z) = 0.35587 0.38015
#
# Static dielectric constant tensor:
#      x y z
#    x 1.801670 0.000000 0.000000 
#    y 0.000000 1.835500 0.000000 
#    z 0.000000 0.000000 2.314820 
# 
# From -- ./inp_files/50018.got.cif
#   From: 2010.05.17/outbox.cif.g08.bks.cpg/sg68_26_cif.got.tgz:50018.got - 2010.06.03 18:57:09.
