data_PCOD9509256
_publ_section_title
;
Structure prediction by ZEFSAII (Michael W. Deem and Ramdas Pophale) SiO2 
 PCOD9509256
Probable space group: C C C A
;
_chemical_formula_sum "Si O2"
_cell_formula_units_Z 96
_cell_length_a 14.577084
_cell_length_b 14.953819
_cell_length_c 20.194029
_cell_angle_alpha 90.000000
_cell_angle_beta 90.000000
_cell_angle_gamma 90.000000
_cell_volume 4401.956552
_symmetry_space_group_name_H-M "C C C A"
_symmetry_group_IT_number 68
_space_group.IT_coordinate_system_code '2'
_symmetry_cell_setting 'orthorhombic'
loop_
_space_group_symop_operation_xyz
x,y,z
-x,1/2-y,z
x,1/2-y,1/2-z
-x,y,1/2-z
-x,-y,-z
x,1/2+y,-z
-x,1/2+y,1/2+z
x,-y,1/2+z
1/2+x,1/2+y,z
1/2-x,-y,z
1/2+x,-y,1/2-z
1/2-x,1/2+y,1/2-z
1/2-x,1/2-y,-z
1/2+x,y,-z
1/2-x,y,1/2+z
1/2+x,1/2-y,1/2+z
loop_
_atom_site_type_symbol
_atom_site_label
_atom_site_fract_x
_atom_site_fract_y
_atom_site_fract_z
Si Si1 0.745050 0.896453 0.852707
Si Si2 0.680571 0.065825 0.627824
Si Si3 0.956414 0.938526 0.056523
Si Si4 0.721371 0.353750 0.499175
Si Si5 0.045198 0.651911 0.318413
Si Si6 0.601047 0.748831 0.172639
O O1 0.741334 0.894065 0.932621
O O2 0.656090 0.851825 0.817828
O O3 0.835938 0.836609 0.842167
O O4 0.750000 0.000000 0.832022
O O5 0.729853 0.096443 0.560721
O O6 0.652263 0.158587 0.658889
O O7 0.750000 0.000000 0.666115
O O8 0.596819 0.005629 0.605479
O O9 0.021324 0.890094 0.109692
O O10 0.885684 0.871793 0.018422
O O11 0.000000 0.000000 0.000000
O O12 0.750000 0.250000 0.500000
O O13 0.000000 0.750000 0.320776
O O14 0.000000 0.611475 0.250000
O O15 0.500000 0.750000 0.139470
O O16 0.588193 0.750000 0.250000
#
# Coordination Sequence:
#
# PCOD9509256 Si02
#       6
#    16  16  16  16  16  16
#     4  12  26  47  74 108 146 190 245 306 368 437
#     4  10  23  42  70  98 140 182 233 296 368 424
#     4  11  24  41  70 109 145 187 248 307 368 443
#     4  11  21  41  71 104 143 185 240 303 371 431
#     4  11  27  47  75 109 153 198 252 304 378 453
#     4  11  28  48  70 100 139 191 246 293 359 439
#
# _framework density 21.808485000000001
#
# number of rings (size 3 to 8) (size 9 to 14) (size 15 to 20)
#    0.000    1.000    1.667    4.500    9.333    2.000 
#    0.000    0.000    0.000    0.000    0.000    0.000 
#    0.000    0.000    0.000    0.000    0.000    0.000 
#
# Total GULP energy -267866.651986 kJ/mol
# GULP energy per Si atom -5580.555250 kJ/mol
# Density = 2.175885 g / cm^3
# Si number density = 21.808485 Si / 1000 Ang^3
#
#
#
# Elastic Constant Matrix: (Units=GPa)
#
#
# Indices 1 2 3 4 5 6 
#
# 1 134.7747 63.8778 34.5427 0.0000 0.0000 0.0000
# 2 63.8778 166.1035 16.3860 0.0000 0.0000 0.0000
# 3 34.5427 16.3860 98.8736 0.0000 0.0000 0.0000
# 4 0.0000 0.0000 0.0000 56.1437 0.0000 0.0000
# 5 0.0000 0.0000 0.0000 0.0000 27.2822 0.0000
# 6 0.0000 0.0000 0.0000 0.0000 0.0000 20.3301
#
#
#
# Elastic Compliance Matrix: (Units=1/GPa)
#
#
# Indices 1 2 3 4 5 6 
#
# 1 0.009803 -0.003489 -0.002847 0.000000 0.000000 0.000000
# 2 -0.003489 0.007362 -0.000001 0.000000 0.000000 0.000000
# 3 -0.002847 -0.000001 0.011109 0.000000 0.000000 0.000000
# 4 0.000000 0.000000 0.000000 0.017811 0.000000 0.000000
# 5 0.000000 0.000000 0.000000 0.000000 0.036654 0.000000
# 6 0.000000 0.000000 0.000000 0.000000 0.000000 0.049188
#
#
# Mechanical properties :
#
#
# Convention : Reuss Voigt Hill
#
# Bulk Modulus (GPa) = 64.10169 69.92944 67.01557
# Shear Modulus (GPa) = 33.37755 39.74755 36.56255
#
# Velocity S-wave (km/s) = 3.91638 4.27379 4.09899
# Velocity P-wave (km/s) = 7.06453 7.51589 7.29370
#
# Compressibility (1/GPa) = 0.01560021
#
# Stress axis : x y z
#
# Youngs Moduli (GPa) = 102.00889 135.82799 90.02030
#
# Poissons Ratio (x) = 0.47392 0.25625
# Poissons Ratio (y) = 0.35592 0.00010
# Poissons Ratio (z) = 0.29038 0.00016
#
# Static dielectric constant tensor:
#      x y z
#    x 1.926790 0.000000 0.000000 
#    y 0.000000 1.891980 0.000000 
#    z 0.000000 0.000000 1.955980 
# 
# From -- ./inp_files/38597.got.cif
#   From: 2010.05.17/outbox.cif.g08.bks.cpg/sg68_20_cif.got.tgz:38597.got - 2010.06.03 18:57:09.
