data_PCOD9509244
_publ_section_title
;
Structure prediction by ZEFSAII (Michael W. Deem and Ramdas Pophale) SiO2 
 PCOD9509244
Probable space group: C C C A
;
_chemical_formula_sum "Si O2"
_cell_formula_units_Z 108
_cell_length_a 21.422689
_cell_length_b 14.705586
_cell_length_c 14.716282
_cell_angle_alpha 90.000000
_cell_angle_beta 90.000000
_cell_angle_gamma 90.000000
_cell_volume 4636.117343
_symmetry_space_group_name_H-M "C C C A"
_symmetry_group_IT_number 68
_space_group.IT_coordinate_system_code '2'
_symmetry_cell_setting 'orthorhombic'
loop_
_space_group_symop_operation_xyz
x,y,z
-x,1/2-y,z
x,1/2-y,1/2-z
-x,y,1/2-z
-x,-y,-z
x,1/2+y,-z
-x,1/2+y,1/2+z
x,-y,1/2+z
1/2+x,1/2+y,z
1/2-x,-y,z
1/2+x,-y,1/2-z
1/2-x,1/2+y,1/2-z
1/2-x,1/2-y,-z
1/2+x,y,-z
1/2-x,y,1/2+z
1/2+x,1/2-y,1/2+z
loop_
_atom_site_type_symbol
_atom_site_label
_atom_site_fract_x
_atom_site_fract_y
_atom_site_fract_z
Si Si1 0.767011 0.105631 0.855386
Si Si2 0.617217 0.324485 0.931049
Si Si3 0.821787 0.853952 0.013933
Si Si4 0.555192 0.556730 0.048374
Si Si5 0.000000 0.750000 0.250000
Si Si6 0.087531 0.386045 0.868020
Si Si7 0.264697 0.392888 0.667025
Si Si8 0.000000 0.250000 0.109129
O O1 0.739044 0.131913 0.951586
O O2 0.840045 0.122037 0.841547
O O3 0.731395 0.145090 0.768691
O O4 0.750000 0.000000 0.852779
O O5 0.649841 0.236329 0.972789
O O6 0.670455 0.381462 0.883871
O O7 0.563694 0.297589 0.858060
O O8 0.588191 0.365882 0.023462
O O9 0.877320 0.928451 0.001533
O O10 0.793658 0.847937 0.114127
O O11 0.568584 0.492946 0.136483
O O12 0.530773 0.659627 0.062950
O O13 0.500000 0.500000 0.000000
O O14 0.956892 0.683610 0.186811
O O15 0.250000 0.500000 0.666833
#
# Coordination Sequence:
#
# PCOD9509244 Si02
#       8
#    16  16  16  16   4  16  16   8
#     4  11  24  44  70 105 144 190 244 315 384 447
#     4  11  23  42  69 104 140 189 249 298 373 447
#     4  11  23  42  69 104 143 189 248 309 377 448
#     4  11  23  41  75 102 146 202 248 312 378 455
#     4  12  34  44  68 122 158 206 252 308 396 482
#     4  12  25  47  71 104 159 196 249 314 382 462
#     4  11  24  40  68 103 137 190 246 305 382 453
#     4  10  23  42  68 108 135 192 260 297 360 461
#
# _framework density 23.295355000000001
#
# number of rings (size 3 to 8) (size 9 to 14) (size 15 to 20)
#    0.000    0.889    4.444    2.222    4.148    0.593 
#    2.667    0.000    0.000    6.667    0.000    0.000 
#    0.000    0.000    0.000    0.000    0.000    0.000 
#
# Total GULP energy -300977.074419 kJ/mol
# GULP energy per Si atom -5573.649526 kJ/mol
# Density = 2.324233 g / cm^3
# Si number density = 23.295355 Si / 1000 Ang^3
#
#
#
# Elastic Constant Matrix: (Units=GPa)
#
#
# Indices 1 2 3 4 5 6 
#
# 1 156.1681 42.9245 27.4611 0.0000 0.0000 0.0000
# 2 42.9245 90.9414 4.3934 0.0000 0.0000 0.0000
# 3 27.4611 4.3934 69.2671 0.0000 0.0000 0.0000
# 4 0.0000 0.0000 0.0000 -273.2611 0.0000 0.0000
# 5 0.0000 0.0000 0.0000 0.0000 16.9110 0.0000
# 6 0.0000 0.0000 0.0000 0.0000 0.0000 44.6881
#
#
#
# Elastic Compliance Matrix: (Units=1/GPa)
#
#
# Indices 1 2 3 4 5 6 
#
# 1 0.007901 -0.003589 -0.002905 0.000000 0.000000 0.000000
# 2 -0.003589 0.012660 0.000620 0.000000 0.000000 0.000000
# 3 -0.002905 0.000620 0.015549 0.000000 0.000000 0.000000
# 4 0.000000 0.000000 0.000000 -0.003660 0.000000 0.000000
# 5 0.000000 0.000000 0.000000 0.000000 0.059133 0.000000
# 6 0.000000 0.000000 0.000000 0.000000 0.000000 0.022377
#
#
# Mechanical properties :
#
#
# Convention : Reuss Voigt Hill
#
# Bulk Modulus (GPa) = 41.04653 51.77053 46.40853
# Shear Modulus (GPa) = 37.36127 -26.22588 5.56770
#
# Velocity S-wave (km/s) = 4.00910 -3.35893 1.54765
# Velocity P-wave (km/s) = 6.25211 2.68860 4.81235
#
# Compressibility (1/GPa) = 0.02436260
#
# Stress axis : x y z
#
# Youngs Moduli (GPa) = 126.57418 78.98870 64.31250
#
# Poissons Ratio (x) = 0.28347 0.18680
# Poissons Ratio (y) = 0.45424 -0.03986
# Poissons Ratio (z) = 0.36764 -0.04896
#
# Static dielectric constant tensor:
#      x y z
#    x 1.967650 0.000000 0.000000 
#    y 0.000000 1.949010 0.000000 
#    z 0.000000 0.000000 2.071540 
# 
# From -- ./inp_files/25506.got.cif
#   From: 2010.05.17/outbox.cif.g08.bks.cpg/sg68_13_cif.got.tgz:25506.got - 2010.06.03 18:57:09.
