data_PCOD9509881
_publ_section_title
;
Structure prediction by ZEFSAII (Michael W. Deem and Ramdas Pophale) SiO2 
 PCOD9509881
Probable space group: C C C A
;
_chemical_formula_sum "Si O2"
_cell_formula_units_Z 60
_cell_length_a 5.527502
_cell_length_b 18.217443
_cell_length_c 24.521245
_cell_angle_alpha 90.000000
_cell_angle_beta 90.000000
_cell_angle_gamma 90.000000
_cell_volume 2469.214646
_symmetry_space_group_name_H-M "C C C A"
_symmetry_group_IT_number 68
_space_group.IT_coordinate_system_code '2'
_symmetry_cell_setting 'orthorhombic'
loop_
_space_group_symop_operation_xyz
x,y,z
-x,1/2-y,z
x,1/2-y,1/2-z
-x,y,1/2-z
-x,-y,-z
x,1/2+y,-z
-x,1/2+y,1/2+z
x,-y,1/2+z
1/2+x,1/2+y,z
1/2-x,-y,z
1/2+x,-y,1/2-z
1/2-x,1/2+y,1/2-z
1/2-x,1/2-y,-z
1/2+x,y,-z
1/2-x,y,1/2+z
1/2+x,1/2-y,1/2+z
loop_
_atom_site_type_symbol
_atom_site_label
_atom_site_fract_x
_atom_site_fract_y
_atom_site_fract_z
Si Si1 0.501775 0.955069 0.371046
Si Si2 0.000000 0.750000 0.055689
Si Si3 0.910047 0.393074 0.485544
Si Si4 0.000000 0.250000 0.750000
Si Si5 0.807755 0.686265 0.843605
O O1 0.520251 0.906061 0.426060
O O2 0.448157 0.888766 0.330899
O O3 0.750000 0.000000 0.364405
O O4 0.250000 0.000000 0.371824
O O5 0.884642 0.687128 0.015417
O O6 0.157742 0.700752 0.099198
O O7 0.139752 0.426063 0.517917
O O8 0.142814 0.199514 0.791839
O O9 0.000000 0.750000 0.846414
#
# Coordination Sequence:
#
# PCOD9509881 Si02
#       5
#    16   8  16   4  16
#     4  12  29  48  71 112 166 211 248 307 380 460
#     4  11  24  41  70 112 154 209 258 321 362 432
#     4  12  24  41  65 103 154 215 258 297 356 435
#     4  10  26  48  96 114 132 176 280 342 402 466
#     4  11  25  50  82 113 145 195 260 330 389 462
#
# _framework density 24.299223000000001
#
# number of rings (size 3 to 8) (size 9 to 14) (size 15 to 20)
#    0.000    0.533    2.667    4.400    9.333    3.200 
#    0.000    0.000    5.867    0.000    0.000    0.000 
#    0.000    0.000    0.000    0.000    0.000    0.000 
#
# Total GULP energy -167090.954853 kJ/mol
# GULP energy per Si atom -5569.698495 kJ/mol
# Density = 2.424392 g / cm^3
# Si number density = 24.299223 Si / 1000 Ang^3
#
#
#
# Elastic Constant Matrix: (Units=GPa)
#
#
# Indices 1 2 3 4 5 6 
#
# 1 183.4698 89.3698 30.4900 0.0000 0.0000 0.0000
# 2 89.3698 163.5076 31.6676 0.0000 0.0000 0.0000
# 3 30.4900 31.6676 93.8300 0.0000 0.0000 0.0000
# 4 0.0000 0.0000 0.0000 5.7866 0.0000 0.0000
# 5 0.0000 0.0000 0.0000 0.0000 2.5934 0.0000
# 6 0.0000 0.0000 0.0000 0.0000 0.0000 76.8121
#
#
#
# Elastic Compliance Matrix: (Units=1/GPa)
#
#
# Indices 1 2 3 4 5 6 
#
# 1 0.007539 -0.003901 -0.001133 0.000000 0.000000 0.000000
# 2 -0.003901 0.008562 -0.001622 0.000000 0.000000 0.000000
# 3 -0.001133 -0.001622 0.011573 0.000000 0.000000 0.000000
# 4 0.000000 0.000000 0.000000 0.172814 0.000000 0.000000
# 5 0.000000 0.000000 0.000000 0.000000 0.385587 0.000000
# 6 0.000000 0.000000 0.000000 0.000000 0.000000 0.013019
#
#
# Mechanical properties :
#
#
# Convention : Reuss Voigt Hill
#
# Bulk Modulus (GPa) = 69.62933 82.65134 76.14034
# Shear Modulus (GPa) = 8.10117 36.32375 22.21246
#
# Velocity S-wave (km/s) = 1.82788 3.87053 3.02673
# Velocity P-wave (km/s) = 5.75952 7.35272 6.60434
#
# Compressibility (1/GPa) = 0.01436176
#
# Stress axis : x y z
#
# Youngs Moduli (GPa) = 132.64102 116.78913 86.40612
#
# Poissons Ratio (x) = 0.45563 0.09791
# Poissons Ratio (y) = 0.51747 0.14016
# Poissons Ratio (z) = 0.15030 0.18944
#
# Static dielectric constant tensor:
#      x y z
#    x 2.205900 0.000000 0.000000 
#    y 0.000000 1.995540 0.000000 
#    z 0.000000 0.000000 1.908870 
# 
# From -- ./inp_files/48028.got.cif
#   From: 2010.05.17/outbox.cif.g08.bks.cpg/sg68_25_cif.got.tgz:48028.got - 2010.06.03 18:57:09.
