data_PCOD9509308
_publ_section_title
;
Structure prediction by ZEFSAII (Michael W. Deem and Ramdas Pophale) SiO2 
 PCOD9509308
Probable space group: C C C A
;
_chemical_formula_sum "Si O2"
_cell_formula_units_Z 80
_cell_length_a 11.252259
_cell_length_b 14.620139
_cell_length_c 22.237609
_cell_angle_alpha 90.000000
_cell_angle_beta 90.000000
_cell_angle_gamma 90.000000
_cell_volume 3658.299953
_symmetry_space_group_name_H-M "C C C A"
_symmetry_group_IT_number 68
_space_group.IT_coordinate_system_code '2'
_symmetry_cell_setting 'orthorhombic'
loop_
_space_group_symop_operation_xyz
x,y,z
-x,1/2-y,z
x,1/2-y,1/2-z
-x,y,1/2-z
-x,-y,-z
x,1/2+y,-z
-x,1/2+y,1/2+z
x,-y,1/2+z
1/2+x,1/2+y,z
1/2-x,-y,z
1/2+x,-y,1/2-z
1/2-x,1/2+y,1/2-z
1/2-x,1/2-y,-z
1/2+x,y,-z
1/2-x,y,1/2+z
1/2+x,1/2-y,1/2+z
loop_
_atom_site_type_symbol
_atom_site_label
_atom_site_fract_x
_atom_site_fract_y
_atom_site_fract_z
Si Si1 0.115923 0.693482 0.900828
Si Si2 0.303989 0.600116 0.977524
Si Si3 0.281954 0.126641 0.885145
Si Si4 0.504207 0.642586 0.880255
Si Si5 0.006271 0.540928 0.680155
O O1 0.197207 0.665615 0.956438
O O2 0.191105 0.769355 0.864884
O O3 0.000000 0.750000 0.919451
O O4 0.075704 0.608035 0.860439
O O5 0.250000 0.500000 0.965787
O O6 0.418108 0.623598 0.936946
O O7 0.331002 0.608805 0.047641
O O8 0.141580 0.119453 0.892723
O O9 0.359571 0.062997 0.842053
O O10 0.500000 0.750000 0.863767
O O11 0.470339 0.564381 0.831904
O O12 0.000000 0.563065 0.750000
#
# Coordination Sequence:
#
# PCOD9509308 Si02
#       5
#    16  16  16  16  16
#     4  10  23  43  71 104 139 187 237 283 350 428
#     4  12  24  43  72 104 151 191 226 287 365 434
#     4  11  26  44  70 110 143 181 238 291 352 423
#     4  12  26  44  70 107 144 183 233 305 361 406
#     4  11  26  51  72  97 138 195 243 288 345 431
#
# _framework density 21.868082000000001
#
# number of rings (size 3 to 8) (size 9 to 14) (size 15 to 20)
#    0.000    0.800    4.000    2.400    5.600    5.600 
#    7.200    2.000    0.000    0.000    0.000    0.000 
#    0.000    0.000    0.000    0.000    0.000    0.000 
#
# Total GULP energy -223471.124520 kJ/mol
# GULP energy per Si atom -5586.778113 kJ/mol
# Density = 2.181831 g / cm^3
# Si number density = 21.868082 Si / 1000 Ang^3
#
#
#
# Elastic Constant Matrix: (Units=GPa)
#
#
# Indices 1 2 3 4 5 6 
#
# 1 119.7063 36.4310 66.6113 0.0000 0.0000 0.0000
# 2 36.4310 165.5532 29.2925 0.0000 0.0000 0.0000
# 3 66.6113 29.2925 114.9147 0.0000 0.0000 0.0000
# 4 0.0000 0.0000 0.0000 11.4631 0.0000 0.0000
# 5 0.0000 0.0000 0.0000 0.0000 18.8089 0.0000
# 6 0.0000 0.0000 0.0000 0.0000 0.0000 28.8971
#
#
#
# Elastic Compliance Matrix: (Units=1/GPa)
#
#
# Indices 1 2 3 4 5 6 
#
# 1 0.012706 -0.001563 -0.006967 0.000000 0.000000 0.000000
# 2 -0.001563 0.006518 -0.000755 0.000000 0.000000 0.000000
# 3 -0.006967 -0.000755 0.012933 0.000000 0.000000 0.000000
# 4 0.000000 0.000000 0.000000 0.087236 0.000000 0.000000
# 5 0.000000 0.000000 0.000000 0.000000 0.053166 0.000000
# 6 0.000000 0.000000 0.000000 0.000000 0.000000 0.034606
#
#
# Mechanical properties :
#
#
# Convention : Reuss Voigt Hill
#
# Bulk Modulus (GPa) = 73.60293 73.87152 73.73723
# Shear Modulus (GPa) = 21.71411 29.68979 25.70195
#
# Velocity S-wave (km/s) = 3.15454 3.68866 3.43201
# Velocity P-wave (km/s) = 6.85558 7.21079 7.03543
#
# Compressibility (1/GPa) = 0.01358642
#
# Stress axis : x y z
#
# Youngs Moduli (GPa) = 78.70115 153.42079 77.32173
#
# Poissons Ratio (x) = 0.23986 0.53868
# Poissons Ratio (y) = 0.12304 0.05840
# Poissons Ratio (z) = 0.54829 0.11587
#
# Static dielectric constant tensor:
#      x y z
#    x 1.837710 0.000000 0.000000 
#    y 0.000000 1.920430 0.000000 
#    z 0.000000 0.000000 1.727370 
# 
# From -- ./inp_files/44124.got.cif
#   From: 2010.05.17/outbox.cif.g08.bks.cpg/sg68_23_cif.got.tgz:44124.got - 2010.06.03 18:57:09.
