data_PCOD9509294
_publ_section_title
;
Structure prediction by ZEFSAII (Michael W. Deem and Ramdas Pophale) SiO2 
 PCOD9509294
Probable space group: C C C A
;
_chemical_formula_sum "Si O2"
_cell_formula_units_Z 48
_cell_length_a 5.422107
_cell_length_b 20.835167
_cell_length_c 16.619234
_cell_angle_alpha 90.000000
_cell_angle_beta 90.000000
_cell_angle_gamma 90.000000
_cell_volume 1877.483255
_symmetry_space_group_name_H-M "C C C A"
_symmetry_group_IT_number 68
_space_group.IT_coordinate_system_code '2'
_symmetry_cell_setting 'orthorhombic'
loop_
_space_group_symop_operation_xyz
x,y,z
-x,1/2-y,z
x,1/2-y,1/2-z
-x,y,1/2-z
-x,-y,-z
x,1/2+y,-z
-x,1/2+y,1/2+z
x,-y,1/2+z
1/2+x,1/2+y,z
1/2-x,-y,z
1/2+x,-y,1/2-z
1/2-x,1/2+y,1/2-z
1/2-x,1/2-y,-z
1/2+x,y,-z
1/2-x,y,1/2+z
1/2+x,1/2-y,1/2+z
loop_
_atom_site_type_symbol
_atom_site_label
_atom_site_fract_x
_atom_site_fract_y
_atom_site_fract_z
Si Si1 0.005635 0.178224 0.652579
Si Si2 0.752089 0.573098 0.551645
Si Si3 0.245266 0.431890 0.197331
O O1 0.770833 0.131450 0.644074
O O2 0.000000 0.250000 0.618222
O O3 0.000000 0.186446 0.750000
O O4 0.214413 0.132519 0.613839
O O5 0.750000 0.500000 0.587171
O O6 0.506606 0.577625 0.496788
O O7 0.500000 0.435567 0.250000
O O8 0.250000 0.500000 0.152716
O O9 0.000000 0.427935 0.250000
#
# Coordination Sequence:
#
# PCOD9509294 Si02
#       3
#    16  16  16
#     4  10  23  43  68 106 146 182 228 289 354 419
#     4  10  24  47  72  99 135 183 238 290 344 413
#     4   9  19  36  60  91 128 173 222 271 327 393
#
# _framework density 25.566137999999999
#
# number of rings (size 3 to 8) (size 9 to 14) (size 15 to 20)
#    0.000    2.333    0.000    0.000    0.000   21.333 
#    0.000   23.333    0.000    0.000    0.000    0.000 
#    0.000    0.000    0.000    0.000    0.000    0.000 
#
# Total GULP energy -133775.207406 kJ/mol
# GULP energy per Si atom -5573.966975 kJ/mol
# Density = 2.550795 g / cm^3
# Si number density = 25.566138 Si / 1000 Ang^3
#
#
#
# Elastic Constant Matrix: (Units=GPa)
#
#
# Indices 1 2 3 4 5 6 
#
# 1 229.1650 56.8549 72.0340 0.0000 0.0000 0.0000
# 2 56.8549 315.8442 59.0612 0.0000 0.0000 0.0000
# 3 72.0340 59.0612 79.2317 0.0000 0.0000 0.0000
# 4 0.0000 0.0000 0.0000 -4.9833 0.0000 0.0000
# 5 0.0000 0.0000 0.0000 0.0000 73.3076 0.0000
# 6 0.0000 0.0000 0.0000 0.0000 0.0000 7.6860
#
#
#
# Elastic Compliance Matrix: (Units=1/GPa)
#
#
# Indices 1 2 3 4 5 6 
#
# 1 0.006111 -0.000071 -0.005503 0.000000 0.000000 0.000000
# 2 -0.000071 0.003680 -0.002678 0.000000 0.000000 0.000000
# 3 -0.005503 -0.002678 0.019621 0.000000 0.000000 0.000000
# 4 0.000000 0.000000 0.000000 -0.200672 0.000000 0.000000
# 5 0.000000 0.000000 0.000000 0.000000 0.013641 0.000000
# 6 0.000000 0.000000 0.000000 0.000000 0.000000 0.130107
#
#
# Mechanical properties :
#
#
# Convention : Reuss Voigt Hill
#
# Bulk Modulus (GPa) = 77.47830 111.12679 94.30254
# Shear Modulus (GPa) = -745.71954 44.28812 -350.71571
#
# Velocity S-wave (km/s) = -17.09724 4.16660 -11.72508
# Velocity P-wave (km/s) = 18.95741 8.16751 12.09701
#
# Compressibility (1/GPa) = 0.01290684
#
# Stress axis : x y z
#
# Youngs Moduli (GPa) = 163.63817 271.75762 50.96633
#
# Poissons Ratio (x) = 0.01930 0.28047
# Poissons Ratio (y) = 0.01162 0.13651
# Poissons Ratio (z) = 0.90049 0.72788
#
# Static dielectric constant tensor:
#      x y z
#    x 2.035370 0.000000 0.000000 
#    y 0.000000 2.102880 0.000000 
#    z 0.000000 0.000000 2.458810 
# 
# From -- ./inp_files/34757.got.cif
#   From: 2010.05.17/outbox.cif.g08.bks.cpg/sg68_18_cif.got.tgz:34757.got - 2010.06.03 18:57:09.
