data_PCOD9509940
_publ_section_title
;
Structure prediction by ZEFSAII (Michael W. Deem and Ramdas Pophale) SiO2 
 PCOD9509940
Probable space group: C C C A
;
_chemical_formula_sum "Si O2"
_cell_formula_units_Z 80
_cell_length_a 17.631317
_cell_length_b 8.864624
_cell_length_c 24.842049
_cell_angle_alpha 90.000000
_cell_angle_beta 90.000000
_cell_angle_gamma 90.000000
_cell_volume 3882.687945
_symmetry_space_group_name_H-M "C C C A"
_symmetry_group_IT_number 68
_space_group.IT_coordinate_system_code '2'
_symmetry_cell_setting 'orthorhombic'
loop_
_space_group_symop_operation_xyz
x,y,z
-x,1/2-y,z
x,1/2-y,1/2-z
-x,y,1/2-z
-x,-y,-z
x,1/2+y,-z
-x,1/2+y,1/2+z
x,-y,1/2+z
1/2+x,1/2+y,z
1/2-x,-y,z
1/2+x,-y,1/2-z
1/2-x,1/2+y,1/2-z
1/2-x,1/2-y,-z
1/2+x,y,-z
1/2-x,y,1/2+z
1/2+x,1/2-y,1/2+z
loop_
_atom_site_type_symbol
_atom_site_label
_atom_site_fract_x
_atom_site_fract_y
_atom_site_fract_z
Si Si1 0.588580 0.912740 0.764893
Si Si2 0.081984 0.339045 0.180156
Si Si3 0.396870 0.617302 0.466488
Si Si4 0.432498 0.045071 0.934499
Si Si5 0.666683 0.451731 0.641351
O O1 0.622551 0.750000 0.750000
O O2 0.500000 0.905567 0.750000
O O3 0.610229 0.061955 0.730375
O O4 0.607195 0.943089 0.826938
O O5 0.074173 0.452507 0.129563
O O6 0.141871 0.214199 0.161081
O O7 0.000000 0.250000 0.187224
O O8 0.391340 0.579609 0.529357
O O9 0.478209 0.550384 0.447638
O O10 0.401045 0.795132 0.456241
O O11 0.340049 0.547001 0.423175
O O12 0.750000 0.500000 0.658557
#
# Coordination Sequence:
#
# PCOD9509940 Si02
#       5
#    16  16  16  16  16
#     4  11  23  37  61  93 121 156 214 270 314 383
#     4  11  19  39  64  88 121 168 215 257 321 391
#     4   9  17  32  53  84 118 152 202 255 308 373
#     4   9  16  31  58  86 113 156 208 258 307 372
#     4  11  23  39  60  89 126 166 209 261 327 388
#
# _framework density 20.604282999999999
#
# number of rings (size 3 to 8) (size 9 to 14) (size 15 to 20)
#    0.000    1.800    6.000    0.600    0.000    3.200 
#    0.000    8.000    0.000    1.200    0.000    0.000 
#    0.000    0.000    0.000    0.000    0.000    0.000 
#
# Total GULP energy -222884.532339 kJ/mol
# GULP energy per Si atom -5572.113308 kJ/mol
# Density = 2.055739 g / cm^3
# Si number density = 20.604283 Si / 1000 Ang^3
#
#
#
# Elastic Constant Matrix: (Units=GPa)
#
#
# Indices 1 2 3 4 5 6 
#
# 1 53.6928 19.6992 2.4352 0.0000 0.0000 0.0000
# 2 19.6992 47.1239 10.6581 0.0000 0.0000 0.0000
# 3 2.4352 10.6581 84.0275 0.0000 0.0000 0.0000
# 4 0.0000 0.0000 0.0000 12.4892 0.0000 0.0000
# 5 0.0000 0.0000 0.0000 0.0000 13.8277 0.0000
# 6 0.0000 0.0000 0.0000 0.0000 0.0000 17.3644
#
#
#
# Elastic Compliance Matrix: (Units=1/GPa)
#
#
# Indices 1 2 3 4 5 6 
#
# 1 0.022023 -0.009329 0.000545 0.000000 0.000000 0.000000
# 2 -0.009329 0.025800 -0.003002 0.000000 0.000000 0.000000
# 3 0.000545 -0.003002 0.012266 0.000000 0.000000 0.000000
# 4 0.000000 0.000000 0.000000 0.080069 0.000000 0.000000
# 5 0.000000 0.000000 0.000000 0.000000 0.072319 0.000000
# 6 0.000000 0.000000 0.000000 0.000000 0.000000 0.057589
#
#
# Mechanical properties :
#
#
# Convention : Reuss Voigt Hill
#
# Bulk Modulus (GPa) = 27.38573 27.82546 27.60560
# Shear Modulus (GPa) = 16.35005 18.87304 17.61154
#
# Velocity S-wave (km/s) = 2.82002 3.02979 2.92679
# Velocity P-wave (km/s) = 4.89116 5.07677 4.98483
#
# Compressibility (1/GPa) = 0.03651536
#
# Stress axis : x y z
#
# Youngs Moduli (GPa) = 45.40793 38.76031 81.52712
#
# Poissons Ratio (x) = 0.36161 -0.04444
# Poissons Ratio (y) = 0.42363 0.24475
# Poissons Ratio (z) = -0.02475 0.11636
#
# Static dielectric constant tensor:
#      x y z
#    x 1.749610 0.000000 0.000000 
#    y 0.000000 1.786990 0.000000 
#    z 0.000000 0.000000 1.801930 
# 
# From -- ./inp_files/51305.got.cif
#   From: 2010.05.17/outbox.cif.g08.bks.cpg/sg68_26_cif.got.tgz:51305.got - 2010.06.03 18:57:09.
