data_PCOD9509344
_publ_section_title
;
Structure prediction by ZEFSAII (Michael W. Deem and Ramdas Pophale) SiO2 
 PCOD9509344
Probable space group: C C C A
;
_chemical_formula_sum "Si O2"
_cell_formula_units_Z 112
_cell_length_a 12.225057
_cell_length_b 29.077228
_cell_length_c 14.877656
_cell_angle_alpha 90.000000
_cell_angle_beta 90.000000
_cell_angle_gamma 90.000000
_cell_volume 5288.571830
_symmetry_space_group_name_H-M "C C C A"
_symmetry_group_IT_number 68
_space_group.IT_coordinate_system_code '2'
_symmetry_cell_setting 'orthorhombic'
loop_
_space_group_symop_operation_xyz
x,y,z
-x,1/2-y,z
x,1/2-y,1/2-z
-x,y,1/2-z
-x,-y,-z
x,1/2+y,-z
-x,1/2+y,1/2+z
x,-y,1/2+z
1/2+x,1/2+y,z
1/2-x,-y,z
1/2+x,-y,1/2-z
1/2-x,1/2+y,1/2-z
1/2-x,1/2-y,-z
1/2+x,y,-z
1/2-x,y,1/2+z
1/2+x,1/2-y,1/2+z
loop_
_atom_site_type_symbol
_atom_site_label
_atom_site_fract_x
_atom_site_fract_y
_atom_site_fract_z
Si Si1 0.830090 0.961416 0.602072
Si Si2 0.033255 0.197247 0.654996
Si Si3 0.730580 0.667747 0.150152
Si Si4 0.480532 0.305064 0.959250
Si Si5 0.443282 0.993368 0.153024
Si Si6 0.269028 0.063858 0.098626
Si Si7 0.105100 0.365042 0.185282
O O1 0.777840 0.948572 0.506330
O O2 0.845714 0.913865 0.655543
O O3 0.951695 0.982667 0.590728
O O4 0.750000 0.000000 0.644786
O O5 0.162843 0.197893 0.645947
O O6 0.000000 0.250000 0.658388
O O7 0.000000 0.174602 0.750000
O O8 0.984575 0.177856 0.562244
O O9 0.635074 0.685799 0.087004
O O10 0.764686 0.617351 0.116903
O O11 0.687562 0.662832 0.251700
O O12 0.500000 0.250000 0.956613
O O13 0.565928 0.334510 0.899142
O O14 0.500000 0.990381 0.250000
O O15 0.344568 0.957350 0.136214
O O16 0.377500 0.040830 0.140938
O O17 0.000000 0.373591 0.250000
#
# Coordination Sequence:
#
# PCOD9509344 Si02
#       7
#    16  16  16  16  16  16  16
#     4  12  24  42  69  98 134 183 230 284 347 409
#     4  10  24  43  65 101 140 177 216 276 349 412
#     4  11  24  43  68 100 140 178 232 283 341 411
#     4  10  23  45  75 102 131 183 234 283 346 408
#     4  11  24  43  65  91 134 168 232 285 335 412
#     4  11  25  43  64  97 129 181 228 282 349 403
#     4  10  23  44  69 103 137 176 235 293 336 402
#
# _framework density 21.17774
#
# number of rings (size 3 to 8) (size 9 to 14) (size 15 to 20)
#    0.000    1.286    1.429    4.286    4.000   10.000 
#    0.000    0.000    0.000    0.000    0.000    0.000 
#    0.000    0.000    0.000    0.000    0.000    0.000 
#
# Total GULP energy -313010.095692 kJ/mol
# GULP energy per Si atom -5589.465995 kJ/mol
# Density = 2.112954 g / cm^3
# Si number density = 21.177740 Si / 1000 Ang^3
#
#
#
# Elastic Constant Matrix: (Units=GPa)
#
#
# Indices 1 2 3 4 5 6 
#
# 1 141.3791 53.0355 43.9901 0.0000 0.0000 0.0000
# 2 53.0355 100.7330 42.8154 0.0000 0.0000 0.0000
# 3 43.9901 42.8154 151.9719 0.0000 0.0000 0.0000
# 4 0.0000 0.0000 0.0000 -55.7844 0.0000 0.0000
# 5 0.0000 0.0000 0.0000 0.0000 26.8365 0.0000
# 6 0.0000 0.0000 0.0000 0.0000 0.0000 40.9142
#
#
#
# Elastic Compliance Matrix: (Units=1/GPa)
#
#
# Indices 1 2 3 4 5 6 
#
# 1 0.009089 -0.004166 -0.001457 0.000000 0.000000 0.000000
# 2 -0.004166 0.013187 -0.002509 0.000000 0.000000 0.000000
# 3 -0.001457 -0.002509 0.007709 0.000000 0.000000 0.000000
# 4 0.000000 0.000000 0.000000 -0.017926 0.000000 0.000000
# 5 0.000000 0.000000 0.000000 0.000000 0.037263 0.000000
# 6 0.000000 0.000000 0.000000 0.000000 0.000000 0.024441
#
#
# Mechanical properties :
#
#
# Convention : Reuss Voigt Hill
#
# Bulk Modulus (GPa) = 72.88585 74.86290 73.87437
# Shear Modulus (GPa) = 52.85266 19.34279 36.09773
#
# Velocity S-wave (km/s) = 5.00109 3.02545 4.13305
# Velocity P-wave (km/s) = 8.23643 6.90152 7.59835
#
# Compressibility (1/GPa) = 0.01372008
#
# Stress axis : x y z
#
# Youngs Moduli (GPa) = 110.01740 75.83074 129.71912
#
# Poissons Ratio (x) = 0.31592 0.18904
# Poissons Ratio (y) = 0.45835 0.32551
# Poissons Ratio (z) = 0.16033 0.19028
#
# Static dielectric constant tensor:
#      x y z
#    x 1.719310 0.000000 0.000000 
#    y 0.000000 1.790020 0.000000 
#    z 0.000000 0.000000 1.834910 
# 
# From -- ./inp_files/21232.got.cif
#   From: 2010.05.17/outbox.cif.g08.bks.cpg/sg68_11_cif.got.tgz:21232.got - 2010.06.03 18:57:09.
