data_PCOD9509936
_publ_section_title
;
Structure prediction by ZEFSAII (Michael W. Deem and Ramdas Pophale) SiO2 
 PCOD9509936
Probable space group: C C C A
;
_chemical_formula_sum "Si O2"
_cell_formula_units_Z 96
_cell_length_a 22.344975
_cell_length_b 14.738316
_cell_length_c 14.762554
_cell_angle_alpha 90.000000
_cell_angle_beta 90.000000
_cell_angle_gamma 90.000000
_cell_volume 4861.712088
_symmetry_space_group_name_H-M "C C C A"
_symmetry_group_IT_number 68
_space_group.IT_coordinate_system_code '2'
_symmetry_cell_setting 'orthorhombic'
loop_
_space_group_symop_operation_xyz
x,y,z
-x,1/2-y,z
x,1/2-y,1/2-z
-x,y,1/2-z
-x,-y,-z
x,1/2+y,-z
-x,1/2+y,1/2+z
x,-y,1/2+z
1/2+x,1/2+y,z
1/2-x,-y,z
1/2+x,-y,1/2-z
1/2-x,1/2+y,1/2-z
1/2-x,1/2-y,-z
1/2+x,y,-z
1/2-x,y,1/2+z
1/2+x,1/2-y,1/2+z
loop_
_atom_site_type_symbol
_atom_site_label
_atom_site_fract_x
_atom_site_fract_y
_atom_site_fract_z
Si Si1 0.821036 0.501335 0.290761
Si Si2 0.761110 0.817040 0.916601
Si Si3 0.070616 0.249517 0.514392
Si Si4 0.132225 0.100077 0.619279
Si Si5 0.860668 0.701252 0.831958
Si Si6 0.356643 0.934768 0.988146
O O1 0.750000 0.500000 0.266712
O O2 0.862460 0.550753 0.216149
O O3 0.843726 0.399238 0.303728
O O4 0.829934 0.545641 0.389374
O O5 0.697892 0.855752 0.889021
O O6 0.799839 0.758747 0.847138
O O7 0.750000 0.750000 0.000000
O O8 0.803042 0.898192 0.949331
O O9 0.088331 0.184109 0.598342
O O10 0.103670 0.208099 0.425823
O O11 0.096616 0.351831 0.521372
O O12 0.000000 0.250000 0.502508
O O13 0.121118 0.024124 0.541224
O O14 0.894941 0.750000 0.750000
#
# Coordination Sequence:
#
# PCOD9509936 Si02
#       6
#    16  16  16  16  16  16
#     4  12  23  37  66 105 135 171 212 274 346 422
#     4  11  19  37  64  95 138 177 202 270 345 426
#     4  11  26  47  69  89 131 188 234 286 331 397
#     4  12  23  42  65 101 137 177 224 274 350 407
#     4  11  22  41  65 101 132 170 224 277 344 407
#     4  11  22  41  66  96 133 172 224 275 343 405
#
# _framework density 19.746130999999998
#
# number of rings (size 3 to 8) (size 9 to 14) (size 15 to 20)
#    0.000    0.667    5.000    6.500    0.000    1.667 
#    0.000    1.667    0.000    0.000    0.000    0.000 
#    0.000    0.000    0.000    0.000    0.000    0.000 
#
# Total GULP energy -268177.776827 kJ/mol
# GULP energy per Si atom -5587.037017 kJ/mol
# Density = 1.970119 g / cm^3
# Si number density = 19.746131 Si / 1000 Ang^3
#
#
#
# Elastic Constant Matrix: (Units=GPa)
#
#
# Indices 1 2 3 4 5 6 
#
# 1 90.1295 49.7269 18.7638 0.0000 0.0000 0.0000
# 2 49.7269 81.1966 10.9484 0.0000 0.0000 0.0000
# 3 18.7638 10.9484 87.5918 0.0000 0.0000 0.0000
# 4 0.0000 0.0000 0.0000 52.3476 0.0000 0.0000
# 5 0.0000 0.0000 0.0000 0.0000 -1.8238 0.0000
# 6 0.0000 0.0000 0.0000 0.0000 0.0000 4.5696
#
#
#
# Elastic Compliance Matrix: (Units=1/GPa)
#
#
# Indices 1 2 3 4 5 6 
#
# 1 0.017245 -0.010236 -0.002415 0.000000 0.000000 0.000000
# 2 -0.010236 0.018602 -0.000132 0.000000 0.000000 0.000000
# 3 -0.002415 -0.000132 0.011950 0.000000 0.000000 0.000000
# 4 0.000000 0.000000 0.000000 0.019103 0.000000 0.000000
# 5 0.000000 0.000000 0.000000 0.000000 -0.548311 0.000000
# 6 0.000000 0.000000 0.000000 0.000000 0.000000 0.218837
#
#
# Mechanical properties :
#
#
# Convention : Reuss Voigt Hill
#
# Bulk Modulus (GPa) = 44.98068 46.42180 45.70124
# Shear Modulus (GPa) = -21.77745 22.98394 0.60324
#
# Velocity S-wave (km/s) = -3.32455 3.41540 0.55332
# Velocity P-wave (km/s) = 2.84466 6.25409 4.85828
#
# Compressibility (1/GPa) = 0.02223177
#
# Stress axis : x y z
#
# Youngs Moduli (GPa) = 57.98684 53.75663 83.67883
#
# Poissons Ratio (x) = 0.55025 0.20207
# Poissons Ratio (y) = 0.59354 0.01108
# Poissons Ratio (z) = 0.14003 0.00712
#
# Static dielectric constant tensor:
#      x y z
#    x 1.651920 0.000000 0.000000 
#    y 0.000000 1.747710 0.000000 
#    z 0.000000 0.000000 1.820750 
# 
# From -- ./inp_files/24480.got.cif
#   From: 2010.05.17/outbox.cif.g08.bks.cpg/sg68_13_cif.got.tgz:24480.got - 2010.06.03 18:57:09.
