data_PCOD9509180
_publ_section_title
;
Structure prediction by ZEFSAII (Michael W. Deem and Ramdas Pophale) SiO2 
 PCOD9509180
Probable space group: C C C A
;
_chemical_formula_sum "Si O2"
_cell_formula_units_Z 116
_cell_length_a 25.070457
_cell_length_b 9.369568
_cell_length_c 26.096442
_cell_angle_alpha 90.000000
_cell_angle_beta 90.000000
_cell_angle_gamma 90.000000
_cell_volume 6130.037306
_symmetry_space_group_name_H-M "C C C A"
_symmetry_group_IT_number 68
_space_group.IT_coordinate_system_code '2'
_symmetry_cell_setting 'orthorhombic'
loop_
_space_group_symop_operation_xyz
x,y,z
-x,1/2-y,z
x,1/2-y,1/2-z
-x,y,1/2-z
-x,-y,-z
x,1/2+y,-z
-x,1/2+y,1/2+z
x,-y,1/2+z
1/2+x,1/2+y,z
1/2-x,-y,z
1/2+x,-y,1/2-z
1/2-x,1/2+y,1/2-z
1/2-x,1/2-y,-z
1/2+x,y,-z
1/2-x,y,1/2+z
1/2+x,1/2-y,1/2+z
loop_
_atom_site_type_symbol
_atom_site_label
_atom_site_fract_x
_atom_site_fract_y
_atom_site_fract_z
Si Si1 0.127648 0.715114 0.506454
Si Si2 0.049800 0.858906 0.899974
Si Si3 0.688441 0.017163 0.826823
Si Si4 0.053701 0.185519 0.920760
Si Si5 0.500000 0.750000 0.750000
Si Si6 0.581451 0.106769 0.326300
Si Si7 0.901814 0.790160 0.807600
Si Si8 0.189786 0.533959 0.950155
O O1 0.086149 0.675243 0.550748
O O2 0.098743 0.811500 0.463667
O O3 0.173426 0.808654 0.532688
O O4 0.150861 0.578519 0.477297
O O5 0.082773 0.829240 0.848007
O O6 0.000000 0.750000 0.901277
O O7 0.038951 0.027743 0.901832
O O8 0.660402 0.163010 0.807610
O O9 0.685627 0.019730 0.888760
O O10 0.750000 0.000000 0.811553
O O11 0.644643 0.896234 0.811117
O O12 0.071583 0.292386 0.875120
O O13 0.000000 0.250000 0.944425
O O14 0.460302 0.841821 0.715482
O O15 0.572056 0.936067 0.330488
O O16 0.918356 0.750000 0.750000
O O17 0.250000 0.500000 0.965266
#
# Coordination Sequence:
#
# PCOD9509180 Si02
#       8
#    16  16  16  16   4  16  16  16
#     4  12  22  42  62  95 132 171 217 270 328 402
#     4  12  27  40  64  95 131 169 221 274 333 407
#     4   9  20  43  69  93 129 177 219 269 329 398
#     4  12  25  40  64  91 134 173 220 269 336 408
#     4  12  24  40  66 100 132 164 222 286 326 400
#     4  10  23  41  65  97 131 172 221 266 338 395
#     4  10  23  44  67  94 127 170 220 270 332 390
#     4  11  22  39  66  95 130 172 216 268 328 398
#
# _framework density 18.923211999999999
#
# number of rings (size 3 to 8) (size 9 to 14) (size 15 to 20)
#    0.828    0.276    4.828    1.655    3.862    1.379 
#    1.241    0.000    0.000    0.000    0.000    0.000 
#    0.000    0.000    0.000    0.000    0.000    0.000 
#
# Total GULP energy -323316.838310 kJ/mol
# GULP energy per Si atom -5574.428247 kJ/mol
# Density = 1.888014 g / cm^3
# Si number density = 18.923212 Si / 1000 Ang^3
#
#
#
# Elastic Constant Matrix: (Units=GPa)
#
#
# Indices 1 2 3 4 5 6 
#
# 1 78.8766 14.9153 37.7337 0.0000 0.0000 0.0000
# 2 14.9153 92.2549 26.5020 0.0000 0.0000 0.0000
# 3 37.7337 26.5020 77.4235 0.0000 0.0000 0.0000
# 4 0.0000 0.0000 0.0000 11.6600 0.0000 0.0000
# 5 0.0000 0.0000 0.0000 0.0000 19.0211 0.0000
# 6 0.0000 0.0000 0.0000 0.0000 0.0000 25.3816
#
#
#
# Elastic Compliance Matrix: (Units=1/GPa)
#
#
# Indices 1 2 3 4 5 6 
#
# 1 0.016546 -0.000398 -0.007928 0.000000 0.000000 0.000000
# 2 -0.000398 0.012031 -0.003924 0.000000 0.000000 0.000000
# 3 -0.007928 -0.003924 0.018123 0.000000 0.000000 0.000000
# 4 0.000000 0.000000 0.000000 0.085763 0.000000 0.000000
# 5 0.000000 0.000000 0.000000 0.000000 0.052573 0.000000
# 6 0.000000 0.000000 0.000000 0.000000 0.000000 0.039399
#
#
# Mechanical properties :
#
#
# Convention : Reuss Voigt Hill
#
# Bulk Modulus (GPa) = 45.04447 45.20634 45.12541
# Shear Modulus (GPa) = 19.50573 22.50614 21.00594
#
# Velocity S-wave (km/s) = 3.21406 3.45242 3.33537
# Velocity P-wave (km/s) = 6.13426 6.31138 6.22345
#
# Compressibility (1/GPa) = 0.02220028
#
# Stress axis : x y z
#
# Youngs Moduli (GPa) = 60.43837 83.11723 55.17827
#
# Poissons Ratio (x) = 0.03305 0.43744
# Poissons Ratio (y) = 0.02403 0.21655
# Poissons Ratio (z) = 0.47914 0.32619
#
# Static dielectric constant tensor:
#      x y z
#    x 1.687900 0.000000 0.000000 
#    y 0.000000 1.676790 0.000000 
#    z 0.000000 0.000000 1.646060 
# 
# From -- ./inp_files/47312.got.cif
#   From: 2010.05.17/outbox.cif.g08.bks.cpg/sg68_24_cif.got.tgz:47312.got - 2010.06.03 18:57:09.
