data_PCOD9509945
_publ_section_title
;
Structure prediction by ZEFSAII (Michael W. Deem and Ramdas Pophale) SiO2 
 PCOD9509945
Probable space group: C C C A
;
_chemical_formula_sum "Si O2"
_cell_formula_units_Z 80
_cell_length_a 12.870817
_cell_length_b 14.870879
_cell_length_c 20.306392
_cell_angle_alpha 90.000000
_cell_angle_beta 90.000000
_cell_angle_gamma 90.000000
_cell_volume 3886.650785
_symmetry_space_group_name_H-M "C C C A"
_symmetry_group_IT_number 68
_space_group.IT_coordinate_system_code '2'
_symmetry_cell_setting 'orthorhombic'
loop_
_space_group_symop_operation_xyz
x,y,z
-x,1/2-y,z
x,1/2-y,1/2-z
-x,y,1/2-z
-x,-y,-z
x,1/2+y,-z
-x,1/2+y,1/2+z
x,-y,1/2+z
1/2+x,1/2+y,z
1/2-x,-y,z
1/2+x,-y,1/2-z
1/2-x,1/2+y,1/2-z
1/2-x,1/2-y,-z
1/2+x,y,-z
1/2-x,y,1/2+z
1/2+x,1/2-y,1/2+z
loop_
_atom_site_type_symbol
_atom_site_label
_atom_site_fract_x
_atom_site_fract_y
_atom_site_fract_z
Si Si1 0.750000 0.000000 0.507958
Si Si2 0.354963 0.121305 0.598995
Si Si3 0.250000 0.000000 0.707896
Si Si4 0.292873 0.790480 0.322768
Si Si5 0.906292 0.384928 0.796529
Si Si6 0.580659 0.553338 0.385475
O O1 0.792070 0.080563 0.462210
O O2 0.657870 0.033622 0.554701
O O3 0.318575 0.062883 0.661562
O O4 0.328575 0.222112 0.620464
O O5 0.476662 0.102314 0.591205
O O6 0.174366 0.061205 0.750498
O O7 0.313822 0.750000 0.250000
O O8 0.169125 0.809780 0.327430
O O9 0.357738 0.881603 0.334962
O O10 0.943620 0.458261 0.849945
O O11 0.000000 0.354546 0.750000
#
# Coordination Sequence:
#
# PCOD9509945 Si02
#       6
#     8  16   8  16  16  16
#     4  11  25  48  70  92 135 191 250 286 336 435
#     4  11  25  41  68  96 135 180 237 281 351 411
#     4  11  19  40  60  98 133 177 212 284 332 429
#     4  12  24  42  66 106 141 168 225 306 357 416
#     4  12  22  40  71  98 142 182 226 278 366 425
#     4  12  23  44  70  98 132 188 234 288 348 427
#
# _framework density 20.583273999999999
#
# number of rings (size 3 to 8) (size 9 to 14) (size 15 to 20)
#    0.000    0.400    8.000    1.200    0.000    2.000 
#    0.000    0.000    0.000    0.000    0.000    0.000 
#    0.000    0.000    0.000    0.000    0.000    0.000 
#
# Total GULP energy -223713.736318 kJ/mol
# GULP energy per Si atom -5592.843408 kJ/mol
# Density = 2.053643 g / cm^3
# Si number density = 20.583274 Si / 1000 Ang^3
#
#
#
# Elastic Constant Matrix: (Units=GPa)
#
#
# Indices 1 2 3 4 5 6 
#
# 1 134.0420 36.7814 32.7524 0.0000 0.0000 0.0000
# 2 36.7814 83.1017 40.9914 0.0000 0.0000 0.0000
# 3 32.7524 40.9914 82.8044 0.0000 0.0000 0.0000
# 4 0.0000 0.0000 0.0000 20.3976 0.0000 0.0000
# 5 0.0000 0.0000 0.0000 0.0000 -58.1804 0.0000
# 6 0.0000 0.0000 0.0000 0.0000 0.0000 38.5249
#
#
#
# Elastic Compliance Matrix: (Units=1/GPa)
#
#
# Indices 1 2 3 4 5 6 
#
# 1 0.008745 -0.002864 -0.002041 0.000000 0.000000 0.000000
# 2 -0.002864 0.016859 -0.007213 0.000000 0.000000 0.000000
# 3 -0.002041 -0.007213 0.016455 0.000000 0.000000 0.000000
# 4 0.000000 0.000000 0.000000 0.049025 0.000000 0.000000
# 5 0.000000 0.000000 0.000000 0.000000 -0.017188 0.000000
# 6 0.000000 0.000000 0.000000 0.000000 0.000000 0.025957
#
#
# Mechanical properties :
#
#
# Convention : Reuss Voigt Hill
#
# Bulk Modulus (GPa) = 56.10894 57.88871 56.99882
# Shear Modulus (GPa) = 38.45251 12.77661 25.61456
#
# Velocity S-wave (km/s) = 4.32689 2.49414 3.53148
# Velocity P-wave (km/s) = 7.23058 6.03983 6.66186
#
# Compressibility (1/GPa) = 0.01782247
#
# Stress axis : x y z
#
# Youngs Moduli (GPa) = 114.35192 59.31575 60.77226
#
# Poissons Ratio (x) = 0.16986 0.12406
# Poissons Ratio (y) = 0.32746 0.43836
# Poissons Ratio (z) = 0.23343 0.42785
#
# Static dielectric constant tensor:
#      x y z
#    x 1.727430 0.000000 0.000000 
#    y 0.000000 1.781630 0.000000 
#    z 0.000000 0.000000 1.706900 
# 
# From -- ./inp_files/44140.got.cif
#   From: 2010.05.17/outbox.cif.g08.bks.cpg/sg68_23_cif.got.tgz:44140.got - 2010.06.03 18:57:09.
