data_PCOD9509118
_publ_section_title
;
Structure prediction by ZEFSAII (Michael W. Deem and Ramdas Pophale) SiO2 
 PCOD9509118
Probable space group: C C C A
;
_chemical_formula_sum "Si O2"
_cell_formula_units_Z 64
_cell_length_a 11.450679
_cell_length_b 17.285514
_cell_length_c 15.475739
_cell_angle_alpha 90.000000
_cell_angle_beta 90.000000
_cell_angle_gamma 90.000000
_cell_volume 3063.126518
_symmetry_space_group_name_H-M "C C C A"
_symmetry_group_IT_number 68
_space_group.IT_coordinate_system_code '2'
_symmetry_cell_setting 'orthorhombic'
loop_
_space_group_symop_operation_xyz
x,y,z
-x,1/2-y,z
x,1/2-y,1/2-z
-x,y,1/2-z
-x,-y,-z
x,1/2+y,-z
-x,1/2+y,1/2+z
x,-y,1/2+z
1/2+x,1/2+y,z
1/2-x,-y,z
1/2+x,-y,1/2-z
1/2-x,1/2+y,1/2-z
1/2-x,1/2-y,-z
1/2+x,y,-z
1/2-x,y,1/2+z
1/2+x,1/2-y,1/2+z
loop_
_atom_site_type_symbol
_atom_site_label
_atom_site_fract_x
_atom_site_fract_y
_atom_site_fract_z
Si Si1 0.500000 0.630816 0.750000
Si Si2 0.825444 0.759127 0.585551
Si Si3 0.529167 0.118350 0.936563
Si Si4 0.182838 0.250000 0.750000
Si Si5 0.383834 0.529590 0.606290
O O1 0.595743 0.687340 0.706754
O O2 0.423011 0.579535 0.687268
O O3 0.750000 0.750000 0.500000
O O4 0.876160 0.673754 0.608582
O O5 0.758564 0.784820 0.672021
O O6 0.923051 0.820725 0.556845
O O7 0.471082 0.043803 0.893475
O O8 0.587140 0.083601 0.023314
O O9 0.250000 0.500000 0.605008
#
# Coordination Sequence:
#
# PCOD9509118 Si02
#       5
#     8  16  16   8  16
#     4  11  24  40  62  89 124 162 208 261 318 380
#     4  11  22  41  65  90 125 166 208 265 319 371
#     4  10  23  39  63  91 121 162 212 253 312 384
#     4  11  24  41  64  94 122 163 218 263 318 390
#     4  11  23  41  62  92 128 166 209 260 317 382
#
# _framework density 20.893685000000001
#
# number of rings (size 3 to 8) (size 9 to 14) (size 15 to 20)
#    0.000    1.250    0.000    6.000    0.000   12.000 
#    0.000    1.250    0.000    0.000    0.000    0.000 
#    0.000    0.000    0.000    0.000    0.000    0.000 
#
# Total GULP energy -178430.699497 kJ/mol
# GULP energy per Si atom -5575.959359 kJ/mol
# Density = 2.084613 g / cm^3
# Si number density = 20.893685 Si / 1000 Ang^3
#
#
#
# Elastic Constant Matrix: (Units=GPa)
#
#
# Indices 1 2 3 4 5 6 
#
# 1 121.6198 44.6251 53.9772 0.0000 0.0000 0.0000
# 2 44.6251 123.6150 23.9691 0.0000 0.0000 0.0000
# 3 53.9772 23.9691 65.4000 0.0000 0.0000 0.0000
# 4 0.0000 0.0000 0.0000 24.4412 0.0000 0.0000
# 5 0.0000 0.0000 0.0000 0.0000 21.3683 0.0000
# 6 0.0000 0.0000 0.0000 0.0000 0.0000 48.7735
#
#
#
# Elastic Compliance Matrix: (Units=1/GPa)
#
#
# Indices 1 2 3 4 5 6 
#
# 1 0.013948 -0.003017 -0.010406 0.000000 0.000000 0.000000
# 2 -0.003017 0.009361 -0.000940 0.000000 0.000000 0.000000
# 3 -0.010406 -0.000940 0.024223 0.000000 0.000000 0.000000
# 4 0.000000 0.000000 0.000000 0.040914 0.000000 0.000000
# 5 0.000000 0.000000 0.000000 0.000000 0.046798 0.000000
# 6 0.000000 0.000000 0.000000 0.000000 0.000000 0.020503
#
#
# Mechanical properties :
#
#
# Convention : Reuss Voigt Hill
#
# Bulk Modulus (GPa) = 53.17690 61.75306 57.46498
# Shear Modulus (GPa) = 26.21314 31.45417 28.83365
#
# Velocity S-wave (km/s) = 3.54587 3.88421 3.71889
# Velocity P-wave (km/s) = 6.50159 7.05238 6.78258
#
# Compressibility (1/GPa) = 0.01880516
#
# Stress axis : x y z
#
# Youngs Moduli (GPa) = 71.69595 106.82278 41.28225
#
# Poissons Ratio (x) = 0.32233 0.42957
# Poissons Ratio (y) = 0.21634 0.03883
# Poissons Ratio (z) = 0.74605 0.10047
#
# Static dielectric constant tensor:
#      x y z
#    x 1.796360 0.000000 0.000000 
#    y 0.000000 1.809790 0.000000 
#    z 0.000000 0.000000 1.901890 
# 
# From -- ./inp_files/20503.got.cif
#   From: 2010.05.17/outbox.cif.g08.bks.cpg/sg68_11_cif.got.tgz:20503.got - 2010.06.03 18:57:09.
