data_PCOD9509651
_publ_section_title
;
Structure prediction by ZEFSAII (Michael W. Deem and Ramdas Pophale) SiO2 
 PCOD9509651
Probable space group: C C C A
;
_chemical_formula_sum "Si O2"
_cell_formula_units_Z 68
_cell_length_a 4.846772
_cell_length_b 19.226233
_cell_length_c 34.614130
_cell_angle_alpha 90.000000
_cell_angle_beta 90.000000
_cell_angle_gamma 90.000000
_cell_volume 3225.523511
_symmetry_space_group_name_H-M "C C C A"
_symmetry_group_IT_number 68
_space_group.IT_coordinate_system_code '2'
_symmetry_cell_setting 'orthorhombic'
loop_
_space_group_symop_operation_xyz
x,y,z
-x,1/2-y,z
x,1/2-y,1/2-z
-x,y,1/2-z
-x,-y,-z
x,1/2+y,-z
-x,1/2+y,1/2+z
x,-y,1/2+z
1/2+x,1/2+y,z
1/2-x,-y,z
1/2+x,-y,1/2-z
1/2-x,1/2+y,1/2-z
1/2-x,1/2-y,-z
1/2+x,y,-z
1/2-x,y,1/2+z
1/2+x,1/2-y,1/2+z
loop_
_atom_site_type_symbol
_atom_site_label
_atom_site_fract_x
_atom_site_fract_y
_atom_site_fract_z
Si Si1 0.500000 0.750000 0.250000
Si Si2 0.627708 0.921376 0.389922
Si Si3 0.617005 0.885091 0.659629
Si Si4 0.240163 0.915466 0.024216
Si Si5 0.000000 0.750000 0.200016
Si Si6 0.250000 0.500000 0.722774
O O1 0.741334 0.713760 0.223653
O O2 0.320144 0.912382 0.374109
O O3 0.666868 0.893558 0.433304
O O4 0.815287 0.883501 0.358695
O O5 0.750000 0.000000 0.389577
O O6 0.658598 0.808360 0.675908
O O7 0.646700 0.938712 0.694830
O O8 0.250000 0.000000 0.025155
O O9 0.439318 0.893794 0.989321
O O10 0.500000 0.476504 0.750000
#
# Coordination Sequence:
#
# PCOD9509651 Si02
#       6
#     4  16  16  16   8   8
#     4  10  24  46  60  86 112 160 196 286 300 366
#     4  11  20  37  60  87 125 159 195 254 309 365
#     4  12  24  42  60  91 119 163 203 254 308 374
#     4   9  17  29  50  84 120 154 191 237 300 365
#     4  11  26  42  66  86 122 159 220 251 320 372
#     4  12  26  40  62  90 120 156 204 260 318 372
#
# _framework density 21.081849999999999
#
# number of rings (size 3 to 8) (size 9 to 14) (size 15 to 20)
#    0.000    1.176    2.353    4.235    4.941    3.765 
#    0.000    0.000    0.000    0.000    0.000   16.471 
#    0.000    0.000    0.000    0.000    0.000    0.000 
#
# Total GULP energy -189543.642739 kJ/mol
# GULP energy per Si atom -5574.813022 kJ/mol
# Density = 2.103387 g / cm^3
# Si number density = 21.081850 Si / 1000 Ang^3
#
#
#
# Elastic Constant Matrix: (Units=GPa)
#
#
# Indices 1 2 3 4 5 6 
#
# 1 77.5734 -4.4466 9.4664 0.0000 0.0000 0.0000
# 2 -4.4466 52.1377 18.1209 0.0000 0.0000 0.0000
# 3 9.4664 18.1209 116.1886 0.0000 0.0000 0.0000
# 4 0.0000 0.0000 0.0000 16.2148 0.0000 0.0000
# 5 0.0000 0.0000 0.0000 0.0000 28.4000 0.0000
# 6 0.0000 0.0000 0.0000 0.0000 0.0000 19.8890
#
#
#
# Elastic Compliance Matrix: (Units=1/GPa)
#
#
# Indices 1 2 3 4 5 6 
#
# 1 0.013142 0.001579 -0.001317 0.000000 0.000000 0.000000
# 2 0.001579 0.020469 -0.003321 0.000000 0.000000 0.000000
# 3 -0.001317 -0.003321 0.009232 0.000000 0.000000 0.000000
# 4 0.000000 0.000000 0.000000 0.061672 0.000000 0.000000
# 5 0.000000 0.000000 0.000000 0.000000 0.035211 0.000000
# 6 0.000000 0.000000 0.000000 0.000000 0.000000 0.050279
#
#
# Mechanical properties :
#
#
# Convention : Reuss Voigt Hill
#
# Bulk Modulus (GPa) = 27.22995 32.46459 29.84727
# Shear Modulus (GPa) = 23.99633 27.75138 25.87385
#
# Velocity S-wave (km/s) = 3.37745 3.63211 3.50709
# Velocity P-wave (km/s) = 5.30602 5.74651 5.53065
#
# Compressibility (1/GPa) = 0.03672427
#
# Stress axis : x y z
#
# Youngs Moduli (GPa) = 76.09071 48.85479 108.31968
#
# Poissons Ratio (x) = -0.07712 0.14265
# Poissons Ratio (y) = -0.12011 0.35972
# Poissons Ratio (z) = 0.10021 0.16224
#
# Static dielectric constant tensor:
#      x y z
#    x 1.649840 0.000000 0.000000 
#    y 0.000000 1.713260 0.000000 
#    z 0.000000 0.000000 1.783420 
# 
# From -- ./inp_files/48232.got.cif
#   From: 2010.05.17/outbox.cif.g08.bks.cpg/sg68_25_cif.got.tgz:48232.got - 2010.06.03 18:57:09.
