data_PCOD9509797
_publ_section_title
;
Structure prediction by ZEFSAII (Michael W. Deem and Ramdas Pophale) SiO2 
 PCOD9509797
Probable space group: C C C A
;
_chemical_formula_sum "Si O2"
_cell_formula_units_Z 120
_cell_length_a 23.392204
_cell_length_b 19.539569
_cell_length_c 11.425525
_cell_angle_alpha 90.000000
_cell_angle_beta 90.000000
_cell_angle_gamma 90.000000
_cell_volume 5222.305662
_symmetry_space_group_name_H-M "C C C A"
_symmetry_group_IT_number 68
_space_group.IT_coordinate_system_code '2'
_symmetry_cell_setting 'orthorhombic'
loop_
_space_group_symop_operation_xyz
x,y,z
-x,1/2-y,z
x,1/2-y,1/2-z
-x,y,1/2-z
-x,-y,-z
x,1/2+y,-z
-x,1/2+y,1/2+z
x,-y,1/2+z
1/2+x,1/2+y,z
1/2-x,-y,z
1/2+x,-y,1/2-z
1/2-x,1/2+y,1/2-z
1/2-x,1/2-y,-z
1/2+x,y,-z
1/2-x,y,1/2+z
1/2+x,1/2-y,1/2+z
loop_
_atom_site_type_symbol
_atom_site_label
_atom_site_fract_x
_atom_site_fract_y
_atom_site_fract_z
Si Si1 0.389104 0.018123 0.601492
Si Si2 0.704624 0.553398 0.487846
Si Si3 0.940861 0.879783 0.320319
Si Si4 0.106342 0.629655 0.078268
Si Si5 0.011709 0.323793 0.038124
Si Si6 0.842008 0.750000 0.750000
Si Si7 0.103916 0.385632 0.174787
Si Si8 0.719082 0.817420 0.456056
O O1 0.394904 0.052927 0.474231
O O2 0.395631 0.075430 0.701306
O O3 0.325850 0.985885 0.595220
O O4 0.430468 0.954627 0.625760
O O5 0.750000 0.500000 0.432845
O O6 0.653126 0.579816 0.404847
O O7 0.739084 0.618769 0.532471
O O8 0.895508 0.866812 0.218084
O O9 0.945381 0.825281 0.425182
O O10 0.000000 0.879658 0.250000
O O11 0.049115 0.658682 0.019094
O O12 0.162516 0.665538 0.029918
O O13 0.000000 0.250000 0.093194
O O14 0.040101 0.380865 0.120821
O O15 0.880155 0.695012 0.818260
O O16 0.802873 0.700968 0.672201
O O17 0.750000 0.750000 0.500000
#
# Coordination Sequence:
#
# PCOD9509797 Si02
#       8
#    16  16  16  16  16   8  16  16
#     4  12  25  44  70 109 148 192 247 304 388 450
#     4  12  25  47  74 106 152 197 257 316 382 457
#     4  10  25  44  73 105 142 191 241 309 374 447
#     4  11  25  47  70 108 144 190 254 306 372 462
#     4  11  26  48  76 107 149 195 252 314 387 459
#     4  12  24  48  69 108 148 187 256 308 374 460
#     4  12  26  46  75 110 154 195 252 320 382 462
#     4  12  26  47  73 106 147 198 252 316 381 460
#
# _framework density 22.978356000000002
#
# number of rings (size 3 to 8) (size 9 to 14) (size 15 to 20)
#    0.000    0.533    5.333    1.600    1.867    6.133 
#    0.000    0.000    0.000    0.000    0.000    0.000 
#    0.000    0.000    0.000    0.000    0.000    0.000 
#
# Total GULP energy -335423.745701 kJ/mol
# GULP energy per Si atom -5590.395762 kJ/mol
# Density = 2.292606 g / cm^3
# Si number density = 22.978356 Si / 1000 Ang^3
#
#
#
# Elastic Constant Matrix: (Units=GPa)
#
#
# Indices 1 2 3 4 5 6 
#
# 1 52.8175 21.1998 29.9720 0.0000 0.0000 0.0000
# 2 21.1998 106.4157 18.3720 0.0000 0.0000 0.0000
# 3 29.9720 18.3720 79.7820 0.0000 0.0000 0.0000
# 4 0.0000 0.0000 0.0000 29.1367 0.0000 0.0000
# 5 0.0000 0.0000 0.0000 0.0000 19.5125 0.0000
# 6 0.0000 0.0000 0.0000 0.0000 0.0000 38.1171
#
#
#
# Elastic Compliance Matrix: (Units=1/GPa)
#
#
# Indices 1 2 3 4 5 6 
#
# 1 0.025280 -0.003537 -0.008682 0.000000 0.000000 0.000000
# 2 -0.003537 0.010281 -0.001039 0.000000 0.000000 0.000000
# 3 -0.008682 -0.001039 0.016035 0.000000 0.000000 0.000000
# 4 0.000000 0.000000 0.000000 0.034321 0.000000 0.000000
# 5 0.000000 0.000000 0.000000 0.000000 0.051249 0.000000
# 6 0.000000 0.000000 0.000000 0.000000 0.000000 0.026235
#
#
# Mechanical properties :
#
#
# Convention : Reuss Voigt Hill
#
# Bulk Modulus (GPa) = 39.87332 42.01142 40.94237
# Shear Modulus (GPa) = 25.21717 28.65137 26.93427
#
# Velocity S-wave (km/s) = 3.31634 3.53496 3.42739
# Velocity P-wave (km/s) = 5.66166 5.91472 5.78958
#
# Compressibility (1/GPa) = 0.02507943
#
# Stress axis : x y z
#
# Youngs Moduli (GPa) = 39.55715 97.26587 62.36311
#
# Poissons Ratio (x) = 0.34405 0.54147
# Poissons Ratio (y) = 0.13992 0.06477
# Poissons Ratio (z) = 0.34345 0.10103
#
# Static dielectric constant tensor:
#      x y z
#    x 1.912760 0.000000 0.000000 
#    y 0.000000 1.866970 0.000000 
#    z 0.000000 0.000000 2.104800 
# 
# From -- ./inp_files/16611.got.cif
#   From: 2010.05.17/outbox.cif.g08.bks.cpg/sg68_9_cif.got.tgz:16611.got - 2010.06.03 18:57:09.
