data_PCOD9509522
_publ_section_title
;
Structure prediction by ZEFSAII (Michael W. Deem and Ramdas Pophale) SiO2 
 PCOD9509522
Probable space group: C C C A
;
_chemical_formula_sum "Si O2"
_cell_formula_units_Z 116
_cell_length_a 15.495213
_cell_length_b 16.596251
_cell_length_c 21.430308
_cell_angle_alpha 90.000000
_cell_angle_beta 90.000000
_cell_angle_gamma 90.000000
_cell_volume 5511.070386
_symmetry_space_group_name_H-M "C C C A"
_symmetry_group_IT_number 68
_space_group.IT_coordinate_system_code '2'
_symmetry_cell_setting 'orthorhombic'
loop_
_space_group_symop_operation_xyz
x,y,z
-x,1/2-y,z
x,1/2-y,1/2-z
-x,y,1/2-z
-x,-y,-z
x,1/2+y,-z
-x,1/2+y,1/2+z
x,-y,1/2+z
1/2+x,1/2+y,z
1/2-x,-y,z
1/2+x,-y,1/2-z
1/2-x,1/2+y,1/2-z
1/2-x,1/2-y,-z
1/2+x,y,-z
1/2-x,y,1/2+z
1/2+x,1/2-y,1/2+z
loop_
_atom_site_type_symbol
_atom_site_label
_atom_site_fract_x
_atom_site_fract_y
_atom_site_fract_z
Si Si1 0.176869 0.072640 0.368627
Si Si2 0.288025 0.696354 0.556530
Si Si3 0.293488 0.333595 0.354214
Si Si4 0.188464 0.072835 0.039564
Si Si5 0.500000 0.250000 0.750000
Si Si6 0.134878 0.622493 0.773538
Si Si7 0.503807 0.514560 0.073572
Si Si8 0.937556 0.445809 0.691869
O O1 0.215763 0.145414 0.408280
O O2 0.155015 0.104933 0.299226
O O3 0.086055 0.052530 0.402745
O O4 0.250000 0.000000 0.365077
O O5 0.250000 0.750000 0.500000
O O6 0.325302 0.753532 0.610399
O O7 0.339735 0.628742 0.518430
O O8 0.253663 0.386219 0.411143
O O9 0.214714 0.333643 0.306222
O O10 0.366281 0.378674 0.316017
O O11 0.099651 0.054728 0.075208
O O12 0.250000 0.000000 0.015650
O O13 0.559252 0.186708 0.786184
O O14 0.106528 0.533649 0.796924
O O15 0.514107 0.445257 0.125365
O O16 0.500000 0.500000 0.000000
O O17 0.000000 0.433102 0.750000
#
# Coordination Sequence:
#
# PCOD9509522 Si02
#       8
#    16  16  16  16   4  16  16  16
#     4  12  25  45  73 106 147 188 252 316 370 449
#     4  10  24  42  66 100 141 197 244 299 375 446
#     4  11  23  42  71 101 148 198 239 299 380 449
#     4  11  20  42  70 102 146 195 250 305 376 453
#     4  12  24  40  68 108 158 162 232 312 366 432
#     4  12  23  42  69 108 141 188 232 305 380 441
#     4  12  24  38  70 108 139 186 248 307 371 434
#     4  12  23  44  71 109 141 190 255 298 364 457
#
# _framework density 21.048542000000001
#
# number of rings (size 3 to 8) (size 9 to 14) (size 15 to 20)
#    0.000    0.552    4.828    4.138    1.931    0.000 
#    0.000    0.000    3.034    0.000    8.966    0.000 
#    0.000    0.000    0.000    0.000    0.000    0.000 
#
# Total GULP energy -323098.780454 kJ/mol
# GULP energy per Si atom -5570.668629 kJ/mol
# Density = 2.100063 g / cm^3
# Si number density = 21.048542 Si / 1000 Ang^3
#
#
#
# Elastic Constant Matrix: (Units=GPa)
#
#
# Indices 1 2 3 4 5 6 
#
# 1 98.8587 48.2242 51.3638 0.0000 0.0000 0.0000
# 2 48.2242 85.3297 38.5363 0.0000 0.0000 0.0000
# 3 51.3638 38.5363 160.9774 0.0000 0.0000 0.0000
# 4 0.0000 0.0000 0.0000 17.8631 0.0000 0.0000
# 5 0.0000 0.0000 0.0000 0.0000 35.0193 0.0000
# 6 0.0000 0.0000 0.0000 0.0000 0.0000 55.4929
#
#
#
# Elastic Compliance Matrix: (Units=1/GPa)
#
#
# Indices 1 2 3 4 5 6 
#
# 1 0.015265 -0.007207 -0.003146 0.000000 0.000000 0.000000
# 2 -0.007207 0.016542 -0.001661 0.000000 0.000000 0.000000
# 3 -0.003146 -0.001661 0.007613 0.000000 0.000000 0.000000
# 4 0.000000 0.000000 0.000000 0.055981 0.000000 0.000000
# 5 0.000000 0.000000 0.000000 0.000000 0.028556 0.000000
# 6 0.000000 0.000000 0.000000 0.000000 0.000000 0.018020
#
#
# Mechanical properties :
#
#
# Convention : Reuss Voigt Hill
#
# Bulk Modulus (GPa) = 64.95582 69.04605 67.00094
# Shear Modulus (GPa) = 29.21676 35.47783 32.34729
#
# Velocity S-wave (km/s) = 3.72972 4.10997 3.92445
# Velocity P-wave (km/s) = 7.03383 7.44291 7.24126
#
# Compressibility (1/GPa) = 0.01539508
#
# Stress axis : x y z
#
# Youngs Moduli (GPa) = 65.50847 60.45225 131.35008
#
# Poissons Ratio (x) = 0.43565 0.41317
# Poissons Ratio (y) = 0.47209 0.21811
# Poissons Ratio (z) = 0.20606 0.10038
#
# Static dielectric constant tensor:
#      x y z
#    x 3.020120 0.000000 0.000000 
#    y 0.000000 1.871180 0.000000 
#    z 0.000000 0.000000 1.827550 
# 
# From -- ./inp_files/45663.got.cif
#   From: 2010.05.17/outbox.cif.g08.bks.cpg/sg68_23_cif.got.tgz:45663.got - 2010.06.03 18:57:09.
