data_PCOD9509624
_publ_section_title
;
Structure prediction by ZEFSAII (Michael W. Deem and Ramdas Pophale) SiO2 
 PCOD9509624
Probable space group: C C C A
;
_chemical_formula_sum "Si O2"
_cell_formula_units_Z 72
_cell_length_a 11.899926
_cell_length_b 9.039789
_cell_length_c 32.529385
_cell_angle_alpha 90.000000
_cell_angle_beta 90.000000
_cell_angle_gamma 90.000000
_cell_volume 3499.277682
_symmetry_space_group_name_H-M "C C C A"
_symmetry_group_IT_number 68
_space_group.IT_coordinate_system_code '2'
_symmetry_cell_setting 'orthorhombic'
loop_
_space_group_symop_operation_xyz
x,y,z
-x,1/2-y,z
x,1/2-y,1/2-z
-x,y,1/2-z
-x,-y,-z
x,1/2+y,-z
-x,1/2+y,1/2+z
x,-y,1/2+z
1/2+x,1/2+y,z
1/2-x,-y,z
1/2+x,-y,1/2-z
1/2-x,1/2+y,1/2-z
1/2-x,1/2-y,-z
1/2+x,y,-z
1/2-x,y,1/2+z
1/2+x,1/2-y,1/2+z
loop_
_atom_site_type_symbol
_atom_site_label
_atom_site_fract_x
_atom_site_fract_y
_atom_site_fract_z
Si Si1 0.635433 0.246074 0.946328
Si Si2 0.268680 0.323598 0.860069
Si Si3 0.500000 0.250000 0.683648
Si Si4 0.500000 0.998025 0.750000
Si Si5 0.250000 0.500000 0.001369
Si Si6 0.794411 0.659408 0.284354
O O1 0.500000 0.250000 0.937597
O O2 0.717819 0.232838 0.906558
O O3 0.673541 0.391339 0.971170
O O4 0.669137 0.103644 0.973773
O O5 0.250000 0.500000 0.860076
O O6 0.388193 0.272437 0.842005
O O7 0.185510 0.251539 0.825951
O O8 0.496413 0.396488 0.710971
O O9 0.606757 0.894656 0.745618
O O10 0.720357 0.750000 0.250000
O O11 0.750000 0.500000 0.298716
#
# Coordination Sequence:
#
# PCOD9509624 Si02
#       6
#    16  16   8   8   8  16
#     4  11  23  45  73 107 143 184 232 288 352 428
#     4  12  25  43  68  99 141 180 231 290 353 415
#     4  11  22  42  66  90 130 184 222 280 354 398
#     4  11  23  40  64  92 122 178 234 276 338 404
#     4  10  24  44  76 104 142 188 232 282 356 428
#     4  12  24  41  64  91 129 176 227 285 337 405
#
# _framework density 20.575672999999998
#
# number of rings (size 3 to 8) (size 9 to 14) (size 15 to 20)
#    0.000    0.667    4.444    4.333    1.556    0.000 
#    0.000    0.000    0.000    0.000    0.000    0.000 
#    0.000    0.000    0.000    0.000    0.000    0.000 
#
# Total GULP energy -200696.531505 kJ/mol
# GULP energy per Si atom -5574.903653 kJ/mol
# Density = 2.052884 g / cm^3
# Si number density = 20.575673 Si / 1000 Ang^3
#
#
#
# Elastic Constant Matrix: (Units=GPa)
#
#
# Indices 1 2 3 4 5 6 
#
# 1 72.3502 13.1904 12.3213 0.0000 0.0000 0.0000
# 2 13.1904 136.7114 65.9328 0.0000 0.0000 0.0000
# 3 12.3213 65.9328 143.1525 0.0000 0.0000 0.0000
# 4 0.0000 0.0000 0.0000 23.6398 0.0000 0.0000
# 5 0.0000 0.0000 0.0000 0.0000 17.6614 0.0000
# 6 0.0000 0.0000 0.0000 0.0000 0.0000 22.3902
#
#
#
# Elastic Compliance Matrix: (Units=1/GPa)
#
#
# Indices 1 2 3 4 5 6 
#
# 1 0.014133 -0.000999 -0.000756 0.000000 0.000000 0.000000
# 2 -0.000999 0.009474 -0.004278 0.000000 0.000000 0.000000
# 3 -0.000756 -0.004278 0.009021 0.000000 0.000000 0.000000
# 4 0.000000 0.000000 0.000000 0.042301 0.000000 0.000000
# 5 0.000000 0.000000 0.000000 0.000000 0.056621 0.000000
# 6 0.000000 0.000000 0.000000 0.000000 0.000000 0.044662
#
#
# Mechanical properties :
#
#
# Convention : Reuss Voigt Hill
#
# Bulk Modulus (GPa) = 48.63352 59.45590 54.04471
# Shear Modulus (GPa) = 25.62378 30.12293 27.87336
#
# Velocity S-wave (km/s) = 3.53277 3.83039 3.68458
# Velocity P-wave (km/s) = 6.35046 6.96573 6.66520
#
# Compressibility (1/GPa) = 0.02056195
#
# Stress axis : x y z
#
# Youngs Moduli (GPa) = 70.75857 105.55191 110.85481
#
# Poissons Ratio (x) = 0.10542 0.08385
# Poissons Ratio (y) = 0.07067 0.47419
# Poissons Ratio (z) = 0.05352 0.45150
#
# Static dielectric constant tensor:
#      x y z
#    x 1.958140 0.000000 0.000000 
#    y 0.000000 1.759030 0.000000 
#    z 0.000000 0.000000 1.765840 
# 
# From -- ./inp_files/55164.got.cif
#   From: 2010.05.17/outbox.cif.g08.bks.cpg/sg68_28_cif.got.tgz:55164.got - 2010.06.03 18:57:09.
