data_PCOD9509821
_publ_section_title
;
Structure prediction by ZEFSAII (Michael W. Deem and Ramdas Pophale) SiO2 
 PCOD9509821
Probable space group: C C C A
;
_chemical_formula_sum "Si O2"
_cell_formula_units_Z 88
_cell_length_a 11.077143
_cell_length_b 18.082007
_cell_length_c 16.718274
_cell_angle_alpha 90.000000
_cell_angle_beta 90.000000
_cell_angle_gamma 90.000000
_cell_volume 3348.619747
_symmetry_space_group_name_H-M "C C C A"
_symmetry_group_IT_number 68
_space_group.IT_coordinate_system_code '2'
_symmetry_cell_setting 'orthorhombic'
loop_
_space_group_symop_operation_xyz
x,y,z
-x,1/2-y,z
x,1/2-y,1/2-z
-x,y,1/2-z
-x,-y,-z
x,1/2+y,-z
-x,1/2+y,1/2+z
x,-y,1/2+z
1/2+x,1/2+y,z
1/2-x,-y,z
1/2+x,-y,1/2-z
1/2-x,1/2+y,1/2-z
1/2-x,1/2-y,-z
1/2+x,y,-z
1/2-x,y,1/2+z
1/2+x,1/2-y,1/2+z
loop_
_atom_site_type_symbol
_atom_site_label
_atom_site_fract_x
_atom_site_fract_y
_atom_site_fract_z
Si Si1 0.231474 0.822005 0.801227
Si Si2 0.559590 0.896630 0.666139
Si Si3 0.132332 0.247999 0.054703
Si Si4 0.906833 0.115380 0.321702
Si Si5 0.382753 0.978796 0.581491
Si Si6 0.750000 0.500000 0.922603
O O1 0.199522 0.750000 0.750000
O O2 0.372435 0.819533 0.822963
O O3 0.152217 0.814668 0.881416
O O4 0.209430 0.887105 0.736914
O O5 0.500000 0.919952 0.750000
O O6 0.451020 0.904587 0.604031
O O7 0.675119 0.942411 0.630822
O O8 0.125826 0.173644 0.108760
O O9 0.000000 0.250000 0.015776
O O10 0.250000 0.250000 0.000000
O O11 0.951498 0.043226 0.368973
O O12 0.000000 0.136688 0.250000
O O13 0.250000 0.000000 0.612496
O O14 0.354871 0.977729 0.487206
#
# Coordination Sequence:
#
# PCOD9509821 Si02
#       6
#    16  16  16  16  16   8
#     4  10  25  48  75 114 152 208 272 337 404 497
#     4  12  26  47  77 110 155 206 265 334 410 498
#     4  11  25  49  76 113 155 209 271 337 413 484
#     4  11  22  44  81 108 150 207 270 331 398 504
#     4  10  25  47  71 112 157 198 262 328 416 488
#     4  10  28  46  72 112 158 202 264 334 408 494
#
# _framework density 26.279482999999999
#
# number of rings (size 3 to 8) (size 9 to 14) (size 15 to 20)
#    0.545    0.727    1.818    2.182    8.909    0.364 
#   13.091    0.000    0.000    0.000    0.000    0.000 
#    0.000    0.000    0.000    0.000    0.000    0.000 
#
# Total GULP energy -245154.532918 kJ/mol
# GULP energy per Si atom -5571.693930 kJ/mol
# Density = 2.621967 g / cm^3
# Si number density = 26.279483 Si / 1000 Ang^3
#
#
#
# Elastic Constant Matrix: (Units=GPa)
#
#
# Indices 1 2 3 4 5 6 
#
# 1 149.1677 23.3684 82.7348 0.0000 0.0000 0.0000
# 2 23.3684 20.7496 27.4386 0.0000 0.0000 0.0000
# 3 82.7348 27.4386 152.1856 0.0000 0.0000 0.0000
# 4 0.0000 0.0000 0.0000 18.6201 0.0000 0.0000
# 5 0.0000 0.0000 0.0000 0.0000 56.8667 0.0000
# 6 0.0000 0.0000 0.0000 0.0000 0.0000 43.5185
#
#
#
# Elastic Compliance Matrix: (Units=1/GPa)
#
#
# Indices 1 2 3 4 5 6 
#
# 1 0.010033 -0.005366 -0.004487 0.000000 0.000000 0.000000
# 2 -0.005366 0.066151 -0.009010 0.000000 0.000000 0.000000
# 3 -0.004487 -0.009010 0.010635 0.000000 0.000000 0.000000
# 4 0.000000 0.000000 0.000000 0.053705 0.000000 0.000000
# 5 0.000000 0.000000 0.000000 0.000000 0.017585 0.000000
# 6 0.000000 0.000000 0.000000 0.000000 0.000000 0.022979
#
#
# Mechanical properties :
#
#
# Convention : Reuss Voigt Hill
#
# Bulk Modulus (GPa) = 20.36924 65.46517 42.91721
# Shear Modulus (GPa) = 21.26049 36.37179 28.81614
#
# Velocity S-wave (km/s) = 2.84740 3.72430 3.31498
# Velocity P-wave (km/s) = 4.31023 6.59235 5.56944
#
# Compressibility (1/GPa) = 0.04909363
#
# Stress axis : x y z
#
# Youngs Moduli (GPa) = 99.66925 15.11691 94.03211
#
# Poissons Ratio (x) = 0.08112 0.42192
# Poissons Ratio (y) = 0.53483 0.84719
# Poissons Ratio (z) = 0.44722 0.13620
#
# Static dielectric constant tensor:
#      x y z
#    x 2.380950 0.000000 0.000000 
#    y 0.000000 2.271330 0.000000 
#    z 0.000000 0.000000 2.076710 
# 
# From -- ./inp_files/29631.got.cif
#   From: 2010.05.17/outbox.cif.g08.bks.cpg/sg68_15_cif.got.tgz:29631.got - 2010.06.03 18:57:09.
