data_PCOD9509515
_publ_section_title
;
Structure prediction by ZEFSAII (Michael W. Deem and Ramdas Pophale) SiO2 
 PCOD9509515
Probable space group: C C C A
;
_chemical_formula_sum "Si O2"
_cell_formula_units_Z 64
_cell_length_a 16.871973
_cell_length_b 9.400425
_cell_length_c 18.221912
_cell_angle_alpha 90.000000
_cell_angle_beta 90.000000
_cell_angle_gamma 90.000000
_cell_volume 2890.062970
_symmetry_space_group_name_H-M "C C C A"
_symmetry_group_IT_number 68
_space_group.IT_coordinate_system_code '2'
_symmetry_cell_setting 'orthorhombic'
loop_
_space_group_symop_operation_xyz
x,y,z
-x,1/2-y,z
x,1/2-y,1/2-z
-x,y,1/2-z
-x,-y,-z
x,1/2+y,-z
-x,1/2+y,1/2+z
x,-y,1/2+z
1/2+x,1/2+y,z
1/2-x,-y,z
1/2+x,-y,1/2-z
1/2-x,1/2+y,1/2-z
1/2-x,1/2-y,-z
1/2+x,y,-z
1/2-x,y,1/2+z
1/2+x,1/2-y,1/2+z
loop_
_atom_site_type_symbol
_atom_site_label
_atom_site_fract_x
_atom_site_fract_y
_atom_site_fract_z
Si Si1 0.329875 0.679527 0.969597
Si Si2 0.214528 0.250000 0.750000
Si Si3 0.537805 0.404342 0.934951
Si Si4 0.075208 0.153054 0.850985
Si Si5 0.250000 0.000000 0.648590
O O1 0.389332 0.787430 0.928297
O O2 0.315892 0.557029 0.908432
O O3 0.250000 0.750000 0.000000
O O4 0.372347 0.617898 0.040058
O O5 0.151703 0.160956 0.799129
O O6 0.262712 0.138252 0.700057
O O7 0.500000 0.250000 0.927812
O O8 0.539488 0.497848 0.862395
O O9 0.500000 0.500000 0.000000
O O10 0.000000 0.250000 0.830712
#
# Coordination Sequence:
#
# PCOD9509515 Si02
#       5
#    16   8  16  16   8
#     4  11  22  38  67  98 130 169 220 284 350 392
#     4  10  25  44  64  92 133 188 226 268 341 408
#     4  12  22  40  65 101 134 167 220 283 348 408
#     4  11  22  42  64  90 133 179 221 270 332 406
#     4  10  24  42  64  94 136 172 226 282 332 414
#
# _framework density 22.144846000000001
#
# number of rings (size 3 to 8) (size 9 to 14) (size 15 to 20)
#    0.000    1.000    5.000    1.875    0.000    4.000 
#    0.000    0.000    0.000    4.500    0.000    0.000 
#    0.000    0.000    0.000    0.000    0.000    0.000 
#
# Total GULP energy -178605.504527 kJ/mol
# GULP energy per Si atom -5581.422016 kJ/mol
# Density = 2.209444 g / cm^3
# Si number density = 22.144846 Si / 1000 Ang^3
#
#
#
# Elastic Constant Matrix: (Units=GPa)
#
#
# Indices 1 2 3 4 5 6 
#
# 1 89.6434 47.2632 13.6847 0.0000 0.0000 0.0000
# 2 47.2632 173.2386 48.6383 0.0000 0.0000 0.0000
# 3 13.6847 48.6383 66.7260 0.0000 0.0000 0.0000
# 4 0.0000 0.0000 0.0000 31.3619 0.0000 0.0000
# 5 0.0000 0.0000 0.0000 0.0000 7.0488 0.0000
# 6 0.0000 0.0000 0.0000 0.0000 0.0000 43.0853
#
#
#
# Elastic Compliance Matrix: (Units=1/GPa)
#
#
# Indices 1 2 3 4 5 6 
#
# 1 0.013030 -0.003526 -0.000102 0.000000 0.000000 0.000000
# 2 -0.003526 0.008212 -0.005263 0.000000 0.000000 0.000000
# 3 -0.000102 -0.005263 0.018844 0.000000 0.000000 0.000000
# 4 0.000000 0.000000 0.000000 0.031886 0.000000 0.000000
# 5 0.000000 0.000000 0.000000 0.000000 0.141868 0.000000
# 6 0.000000 0.000000 0.000000 0.000000 0.000000 0.023210
#
#
# Mechanical properties :
#
#
# Convention : Reuss Voigt Hill
#
# Bulk Modulus (GPa) = 44.83521 60.97560 52.90541
# Shear Modulus (GPa) = 19.06463 30.96733 25.01598
#
# Velocity S-wave (km/s) = 2.93730 3.74357 3.36468
# Velocity P-wave (km/s) = 5.63861 6.80297 6.24798
#
# Compressibility (1/GPa) = 0.02230390
#
# Stress axis : x y z
#
# Youngs Moduli (GPa) = 76.74581 121.77328 53.06813
#
# Poissons Ratio (x) = 0.42940 0.00541
# Poissons Ratio (y) = 0.27063 0.27928
# Poissons Ratio (z) = 0.00782 0.64086
#
# Static dielectric constant tensor:
#      x y z
#    x 1.703740 0.000000 0.000000 
#    y 0.000000 2.205480 0.000000 
#    z 0.000000 0.000000 1.862150 
# 
# From -- ./inp_files/39150.got.cif
#   From: 2010.05.17/outbox.cif.g08.bks.cpg/sg68_20_cif.got.tgz:39150.got - 2010.06.03 18:57:09.
