data_PCOD9509857
_publ_section_title
;
Structure prediction by ZEFSAII (Michael W. Deem and Ramdas Pophale) SiO2 
 PCOD9509857
Probable space group: C C C A
;
_chemical_formula_sum "Si O2"
_cell_formula_units_Z 84
_cell_length_a 17.813908
_cell_length_b 10.179047
_cell_length_c 20.890918
_cell_angle_alpha 90.000000
_cell_angle_beta 90.000000
_cell_angle_gamma 90.000000
_cell_volume 3788.121055
_symmetry_space_group_name_H-M "C C C A"
_symmetry_group_IT_number 68
_space_group.IT_coordinate_system_code '2'
_symmetry_cell_setting 'orthorhombic'
loop_
_space_group_symop_operation_xyz
x,y,z
-x,1/2-y,z
x,1/2-y,1/2-z
-x,y,1/2-z
-x,-y,-z
x,1/2+y,-z
-x,1/2+y,1/2+z
x,-y,1/2+z
1/2+x,1/2+y,z
1/2-x,-y,z
1/2+x,-y,1/2-z
1/2-x,1/2+y,1/2-z
1/2-x,1/2-y,-z
1/2+x,y,-z
1/2-x,y,1/2+z
1/2+x,1/2-y,1/2+z
loop_
_atom_site_type_symbol
_atom_site_label
_atom_site_fract_x
_atom_site_fract_y
_atom_site_fract_z
Si Si1 0.250000 0.500000 0.893362
Si Si2 0.500000 0.750000 0.250000
Si Si3 0.382418 0.921653 0.327498
Si Si4 0.377777 0.184914 0.580795
Si Si5 0.000000 0.250000 0.524965
Si Si6 0.152684 0.889257 0.219969
Si Si7 0.476056 0.952730 0.633530
O O1 0.305023 0.404476 0.931900
O O2 0.199909 0.415254 0.844076
O O3 0.444687 0.840070 0.289548
O O4 0.353830 0.815800 0.379482
O O5 0.335491 0.995684 0.272776
O O6 0.434629 0.031225 0.360132
O O7 0.429802 0.215381 0.520457
O O8 0.433174 0.091390 0.622907
O O9 0.969178 0.364731 0.570597
O O10 0.171558 0.750000 0.250000
O O11 0.066607 0.892233 0.194420
#
# Coordination Sequence:
#
# PCOD9509857 Si02
#       7
#     8   4  16  16   8  16  16
#     4  10  26  44  64  88 142 178 232 282 342 424
#     4  12  14  32  58  96 128 170 208 270 328 420
#     4  12  20  36  68  99 134 174 224 278 353 417
#     4  11  23  42  63  96 126 181 234 278 343 412
#     4  12  23  40  73  93 136 175 240 292 344 404
#     4  11  24  40  62 100 139 175 214 276 359 424
#     4  11  21  38  63 101 133 167 222 299 343 389
#
# _framework density 22.174582000000001
#
# number of rings (size 3 to 8) (size 9 to 14) (size 15 to 20)
#    0.000    0.762    5.714    2.857    2.667    0.762 
#    0.000    3.810    0.000    0.000    0.000    0.000 
#    0.000    0.000    0.000    0.000    0.000    0.000 
#
# Total GULP energy -234538.160930 kJ/mol
# GULP energy per Si atom -5584.241927 kJ/mol
# Density = 2.212411 g / cm^3
# Si number density = 22.174582 Si / 1000 Ang^3
#
#
#
# Elastic Constant Matrix: (Units=GPa)
#
#
# Indices 1 2 3 4 5 6 
#
# 1 95.1546 31.2719 34.0240 0.0000 0.0000 0.0000
# 2 31.2719 94.5956 47.1842 0.0000 0.0000 0.0000
# 3 34.0240 47.1842 81.9089 0.0000 0.0000 0.0000
# 4 0.0000 0.0000 0.0000 46.0528 0.0000 0.0000
# 5 0.0000 0.0000 0.0000 0.0000 13.9884 0.0000
# 6 0.0000 0.0000 0.0000 0.0000 0.0000 21.2150
#
#
#
# Elastic Compliance Matrix: (Units=1/GPa)
#
#
# Indices 1 2 3 4 5 6 
#
# 1 0.012658 -0.002192 -0.003996 0.000000 0.000000 0.000000
# 2 -0.002192 0.015213 -0.007853 0.000000 0.000000 0.000000
# 3 -0.003996 -0.007853 0.018392 0.000000 0.000000 0.000000
# 4 0.000000 0.000000 0.000000 0.021714 0.000000 0.000000
# 5 0.000000 0.000000 0.000000 0.000000 0.071488 0.000000
# 6 0.000000 0.000000 0.000000 0.000000 0.000000 0.047136
#
#
# Mechanical properties :
#
#
# Convention : Reuss Voigt Hill
#
# Bulk Modulus (GPa) = 54.99729 55.17992 55.08861
# Shear Modulus (GPa) = 22.65075 26.86319 24.75697
#
# Velocity S-wave (km/s) = 3.19952 3.48435 3.34497
# Velocity P-wave (km/s) = 6.20524 6.41295 6.30995
#
# Compressibility (1/GPa) = 0.01818271
#
# Stress axis : x y z
#
# Youngs Moduli (GPa) = 79.00053 65.73327 54.37058
#
# Poissons Ratio (x) = 0.14406 0.21724
# Poissons Ratio (y) = 0.17314 0.42698
# Poissons Ratio (z) = 0.31565 0.51622
#
# Static dielectric constant tensor:
#      x y z
#    x 1.861070 0.000000 0.000000 
#    y 0.000000 1.946390 0.000000 
#    z 0.000000 0.000000 1.846780 
# 
# From -- ./inp_files/32764.got.cif
#   From: 2010.05.17/outbox.cif.g08.bks.cpg/sg68_17_cif.got.tgz:32764.got - 2010.06.03 18:57:09.
