data_PCOD9509564
_publ_section_title
;
Structure prediction by ZEFSAII (Michael W. Deem and Ramdas Pophale) SiO2 
 PCOD9509564
Probable space group: C C C A
;
_chemical_formula_sum "Si O2"
_cell_formula_units_Z 80
_cell_length_a 10.017501
_cell_length_b 26.252136
_cell_length_c 13.598845
_cell_angle_alpha 90.000000
_cell_angle_beta 90.000000
_cell_angle_gamma 90.000000
_cell_volume 3576.235119
_symmetry_space_group_name_H-M "C C C A"
_symmetry_group_IT_number 68
_space_group.IT_coordinate_system_code '2'
_symmetry_cell_setting 'orthorhombic'
loop_
_space_group_symop_operation_xyz
x,y,z
-x,1/2-y,z
x,1/2-y,1/2-z
-x,y,1/2-z
-x,-y,-z
x,1/2+y,-z
-x,1/2+y,1/2+z
x,-y,1/2+z
1/2+x,1/2+y,z
1/2-x,-y,z
1/2+x,-y,1/2-z
1/2-x,1/2+y,1/2-z
1/2-x,1/2-y,-z
1/2+x,y,-z
1/2-x,y,1/2+z
1/2+x,1/2-y,1/2+z
loop_
_atom_site_type_symbol
_atom_site_label
_atom_site_fract_x
_atom_site_fract_y
_atom_site_fract_z
Si Si1 0.145850 0.451747 0.801882
Si Si2 0.624171 0.213654 0.019180
Si Si3 0.496333 0.140086 0.634525
Si Si4 0.018677 0.941304 0.486087
Si Si5 0.207566 0.876202 0.365131
O O1 0.250000 0.500000 0.802993
O O2 0.101090 0.430112 0.908568
O O3 0.205444 0.403824 0.740328
O O4 0.000000 0.465163 0.750000
O O5 0.500000 0.250000 0.031147
O O6 0.620944 0.173481 0.110071
O O7 0.750000 0.250000 0.000000
O O8 0.598026 0.178631 0.922851
O O9 0.500000 0.146061 0.750000
O O10 0.471591 0.083926 0.592806
O O11 0.650057 0.145344 0.602851
O O12 0.151526 0.921724 0.432515
O O13 0.000000 0.000000 0.500000
#
# Coordination Sequence:
#
# PCOD9509564 Si02
#       5
#    16  16  16  16  16
#     4  10  24  43  70 104 153 194 248 293 358 433
#     4  11  23  51  80 106 142 184 241 305 372 442
#     4  11  26  43  74 107 146 189 242 299 362 435
#     4  10  25  42  67 107 148 201 239 295 357 426
#     4  10  24  43  69 110 145 182 243 299 362 432
#
# _framework density 22.369893999999999
#
# number of rings (size 3 to 8) (size 9 to 14) (size 15 to 20)
#    0.000    1.600    2.000    0.000   11.200    2.000 
#    7.200    0.000    4.400    0.000    0.000    0.000 
#    0.000    0.000    0.000    0.000    0.000    0.000 
#
# Total GULP energy -222998.725552 kJ/mol
# GULP energy per Si atom -5574.968139 kJ/mol
# Density = 2.231898 g / cm^3
# Si number density = 22.369894 Si / 1000 Ang^3
#
#
#
# Elastic Constant Matrix: (Units=GPa)
#
#
# Indices 1 2 3 4 5 6 
#
# 1 108.7744 54.5459 11.6255 0.0000 0.0000 0.0000
# 2 54.5459 158.4926 62.1165 0.0000 0.0000 0.0000
# 3 11.6255 62.1165 75.4255 0.0000 0.0000 0.0000
# 4 0.0000 0.0000 0.0000 18.9378 0.0000 0.0000
# 5 0.0000 0.0000 0.0000 0.0000 22.7535 0.0000
# 6 0.0000 0.0000 0.0000 0.0000 0.0000 46.3857
#
#
#
# Elastic Compliance Matrix: (Units=1/GPa)
#
#
# Indices 1 2 3 4 5 6 
#
# 1 0.011346 -0.004754 0.002166 0.000000 0.000000 0.000000
# 2 -0.004754 0.011308 -0.008580 0.000000 0.000000 0.000000
# 3 0.002166 -0.008580 0.019990 0.000000 0.000000 0.000000
# 4 0.000000 0.000000 0.000000 0.052804 0.000000 0.000000
# 5 0.000000 0.000000 0.000000 0.000000 0.043949 0.000000
# 6 0.000000 0.000000 0.000000 0.000000 0.000000 0.021558
#
#
# Mechanical properties :
#
#
# Convention : Reuss Voigt Hill
#
# Bulk Modulus (GPa) = 49.23958 66.58538 57.91248
# Shear Modulus (GPa) = 26.30735 31.90903 29.10819
#
# Velocity S-wave (km/s) = 3.43303 3.78090 3.61116
# Velocity P-wave (km/s) = 6.14602 6.99218 6.58271
#
# Compressibility (1/GPa) = 0.02030887
#
# Stress axis : x y z
#
# Youngs Moduli (GPa) = 88.14032 88.43211 50.02407
#
# Poissons Ratio (x) = 0.42037 -0.10835
# Poissons Ratio (y) = 0.41898 0.42921
# Poissons Ratio (z) = -0.19092 0.75876
#
# Static dielectric constant tensor:
#      x y z
#    x 1.934430 0.000000 0.000000 
#    y 0.000000 1.817860 0.000000 
#    z 0.000000 0.000000 1.886350 
# 
# From -- ./inp_files/20875.got.cif
#   From: 2010.05.17/outbox.cif.g08.bks.cpg/sg68_11_cif.got.tgz:20875.got - 2010.06.03 18:57:09.
