data_PCOD9509907
_publ_section_title
;
Structure prediction by ZEFSAII (Michael W. Deem and Ramdas Pophale) SiO2 
 PCOD9509907
Probable space group: C C C A
;
_chemical_formula_sum "Si O2"
_cell_formula_units_Z 92
_cell_length_a 18.448583
_cell_length_b 9.149433
_cell_length_c 25.612419
_cell_angle_alpha 90.000000
_cell_angle_beta 90.000000
_cell_angle_gamma 90.000000
_cell_volume 4323.224551
_symmetry_space_group_name_H-M "C C C A"
_symmetry_group_IT_number 68
_space_group.IT_coordinate_system_code '2'
_symmetry_cell_setting 'orthorhombic'
loop_
_space_group_symop_operation_xyz
x,y,z
-x,1/2-y,z
x,1/2-y,1/2-z
-x,y,1/2-z
-x,-y,-z
x,1/2+y,-z
-x,1/2+y,1/2+z
x,-y,1/2+z
1/2+x,1/2+y,z
1/2-x,-y,z
1/2+x,-y,1/2-z
1/2-x,1/2+y,1/2-z
1/2-x,1/2-y,-z
1/2+x,y,-z
1/2-x,y,1/2+z
1/2+x,1/2-y,1/2+z
loop_
_atom_site_type_symbol
_atom_site_label
_atom_site_fract_x
_atom_site_fract_y
_atom_site_fract_z
Si Si1 0.445700 0.633969 0.510268
Si Si2 0.632927 0.711726 0.096790
Si Si3 0.880292 0.537250 0.391702
Si Si4 0.364447 0.796593 0.690165
Si Si5 0.500000 0.250000 0.750000
Si Si6 0.750000 0.000000 0.366847
Si Si7 0.480123 0.036712 0.664639
O O1 0.500000 0.750000 0.535631
O O2 0.500000 0.500000 0.500000
O O3 0.411843 0.698005 0.456969
O O4 0.380856 0.598993 0.549914
O O5 0.701408 0.605518 0.097800
O O6 0.580431 0.645399 0.141501
O O7 0.655703 0.877789 0.109172
O O8 0.861588 0.655823 0.347900
O O9 0.964815 0.502346 0.380635
O O10 0.356339 0.750000 0.750000
O O11 0.301250 0.902769 0.669925
O O12 0.438323 0.892380 0.684122
O O13 0.525730 0.125720 0.708408
#
# Coordination Sequence:
#
# PCOD9509907 Si02
#       7
#    16  16  16  16   4   8  16
#     4  12  22  39  71 106 137 175 211 273 351 426
#     4  11  23  44  64  98 135 179 228 269 335 410
#     4  12  23  41  71 102 138 173 222 281 351 413
#     4  11  26  45  66  94 132 179 230 283 336 402
#     4  12  20  32  66 100 140 172 202 288 352 404
#     4  10  28  48  66  88 136 182 242 290 314 404
#     4  11  21  38  62 102 135 168 213 277 351 408
#
# _framework density 21.280411000000001
#
# number of rings (size 3 to 8) (size 9 to 14) (size 15 to 20)
#    0.000    0.696    5.217    2.609    2.435    2.783 
#    3.130    3.478    0.000    0.000    0.000    0.000 
#    0.000    0.000    0.000    0.000    0.000    0.000 
#
# Total GULP energy -256594.592286 kJ/mol
# GULP energy per Si atom -5578.143311 kJ/mol
# Density = 2.123198 g / cm^3
# Si number density = 21.280411 Si / 1000 Ang^3
#
#
#
# Elastic Constant Matrix: (Units=GPa)
#
#
# Indices 1 2 3 4 5 6 
#
# 1 45.3463 26.2801 0.9827 0.0000 0.0000 0.0000
# 2 26.2801 166.1159 53.2390 0.0000 0.0000 0.0000
# 3 0.9827 53.2390 104.9253 0.0000 0.0000 0.0000
# 4 0.0000 0.0000 0.0000 31.4075 0.0000 0.0000
# 5 0.0000 0.0000 0.0000 0.0000 5.3079 0.0000
# 6 0.0000 0.0000 0.0000 0.0000 0.0000 25.4382
#
#
#
# Elastic Compliance Matrix: (Units=1/GPa)
#
#
# Indices 1 2 3 4 5 6 
#
# 1 0.024656 -0.004570 0.002088 0.000000 0.000000 0.000000
# 2 -0.004570 0.008036 -0.004035 0.000000 0.000000 0.000000
# 3 0.002088 -0.004035 0.011558 0.000000 0.000000 0.000000
# 4 0.000000 0.000000 0.000000 0.031840 0.000000 0.000000
# 5 0.000000 0.000000 0.000000 0.000000 0.188399 0.000000
# 6 0.000000 0.000000 0.000000 0.000000 0.000000 0.039311
#
#
# Mechanical properties :
#
#
# Convention : Reuss Voigt Hill
#
# Bulk Modulus (GPa) = 32.03429 53.04347 42.53888
# Shear Modulus (GPa) = 15.27942 28.15642 21.71792
#
# Velocity S-wave (km/s) = 2.68247 3.64141 3.19808
# Velocity P-wave (km/s) = 4.96792 6.53145 5.80259
#
# Compressibility (1/GPa) = 0.03121655
#
# Stress axis : x y z
#
# Youngs Moduli (GPa) = 40.55873 124.44146 86.51870
#
# Poissons Ratio (x) = 0.56866 -0.18063
# Poissons Ratio (y) = 0.18534 0.34907
# Poissons Ratio (z) = -0.08468 0.50207
#
# Static dielectric constant tensor:
#      x y z
#    x 1.753230 0.000000 0.000000 
#    y 0.000000 1.868270 0.000000 
#    z 0.000000 0.000000 1.754060 
# 
# From -- ./inp_files/40784.got.cif
#   From: 2010.05.17/outbox.cif.g08.bks.cpg/sg68_21_cif.got.tgz:40784.got - 2010.06.03 18:57:09.
