data_PCOD9509420
_publ_section_title
;
Structure prediction by ZEFSAII (Michael W. Deem and Ramdas Pophale) SiO2 
 PCOD9509420
Probable space group: C C C A
;
_chemical_formula_sum "Si O2"
_cell_formula_units_Z 44
_cell_length_a 8.883052
_cell_length_b 11.461254
_cell_length_c 19.472518
_cell_angle_alpha 90.000000
_cell_angle_beta 90.000000
_cell_angle_gamma 90.000000
_cell_volume 1982.514880
_symmetry_space_group_name_H-M "C C C A"
_symmetry_group_IT_number 68
_space_group.IT_coordinate_system_code '2'
_symmetry_cell_setting 'orthorhombic'
loop_
_space_group_symop_operation_xyz
x,y,z
-x,1/2-y,z
x,1/2-y,1/2-z
-x,y,1/2-z
-x,-y,-z
x,1/2+y,-z
-x,1/2+y,1/2+z
x,-y,1/2+z
1/2+x,1/2+y,z
1/2-x,-y,z
1/2+x,-y,1/2-z
1/2-x,1/2+y,1/2-z
1/2-x,1/2-y,-z
1/2+x,y,-z
1/2-x,y,1/2+z
1/2+x,1/2-y,1/2+z
loop_
_atom_site_type_symbol
_atom_site_label
_atom_site_fract_x
_atom_site_fract_y
_atom_site_fract_z
Si Si1 0.000000 0.750000 0.250000
Si Si2 0.544206 0.616579 0.416595
Si Si3 0.250000 0.500000 0.973090
Si Si4 0.275214 0.375583 0.719978
O O1 0.106477 0.830448 0.296223
O O2 0.500000 0.750000 0.419248
O O3 0.666986 0.589672 0.475361
O O4 0.388846 0.548498 0.429311
O O5 0.621496 0.592649 0.343808
O O6 0.333491 0.250000 0.750000
O O7 0.250000 0.500000 0.759229
#
# Coordination Sequence:
#
# PCOD9509420 Si02
#       4
#     4  16   8  16
#     4   8  24  44  64 104 148 184 244 312 362 446
#     4  11  23  44  73 106 142 193 242 303 373 444
#     4  10  24  46  70 108 150 180 248 308 370 440
#     4  10  23  47  74 103 146 195 247 306 377 441
#
# _framework density 22.194030000000001
#
# number of rings (size 3 to 8) (size 9 to 14) (size 15 to 20)
#    1.091    0.727    1.818    1.091    0.000    6.545 
#    6.545    0.000    0.000    0.000    0.000    0.000 
#    0.000    0.000    0.000    0.000    0.000    0.000 
#
# Total GULP energy -122470.918302 kJ/mol
# GULP energy per Si atom -5566.859923 kJ/mol
# Density = 2.214352 g / cm^3
# Si number density = 22.194030 Si / 1000 Ang^3
#
#
#
# Elastic Constant Matrix: (Units=GPa)
#
#
# Indices 1 2 3 4 5 6 
#
# 1 156.4587 29.5462 53.2941 0.0000 0.0000 0.0000
# 2 29.5462 142.9840 37.2975 0.0000 0.0000 0.0000
# 3 53.2941 37.2975 84.2693 0.0000 0.0000 0.0000
# 4 0.0000 0.0000 0.0000 52.2999 0.0000 0.0000
# 5 0.0000 0.0000 0.0000 0.0000 32.0558 0.0000
# 6 0.0000 0.0000 0.0000 0.0000 0.0000 21.2053
#
#
#
# Elastic Compliance Matrix: (Units=1/GPa)
#
#
# Indices 1 2 3 4 5 6 
#
# 1 0.008165 -0.000385 -0.004994 0.000000 0.000000 0.000000
# 2 -0.000385 0.007925 -0.003264 0.000000 0.000000 0.000000
# 3 -0.004994 -0.003264 0.016469 0.000000 0.000000 0.000000
# 4 0.000000 0.000000 0.000000 0.019120 0.000000 0.000000
# 5 0.000000 0.000000 0.000000 0.000000 0.031196 0.000000
# 6 0.000000 0.000000 0.000000 0.000000 0.000000 0.047158
#
#
# Mechanical properties :
#
#
# Convention : Reuss Voigt Hill
#
# Bulk Modulus (GPa) = 65.46875 69.33197 67.40036
# Shear Modulus (GPa) = 32.80629 38.68380 35.74504
#
# Velocity S-wave (km/s) = 3.84885 4.17943 4.01754
# Velocity P-wave (km/s) = 7.02239 7.38898 7.20802
#
# Compressibility (1/GPa) = 0.01527446
#
# Stress axis : x y z
#
# Youngs Moduli (GPa) = 122.47338 126.18701 60.71833
#
# Poissons Ratio (x) = 0.04854 0.30320
# Poissons Ratio (y) = 0.04711 0.19820
# Poissons Ratio (z) = 0.61158 0.41190
#
# Static dielectric constant tensor:
#      x y z
#    x 1.863880 0.000000 0.000000 
#    y 0.000000 1.847610 0.000000 
#    z 0.000000 0.000000 1.831900 
# 
# From -- ./inp_files/42513.got.cif
#   From: 2010.05.17/outbox.cif.g08.bks.cpg/sg68_22_cif.got.tgz:42513.got - 2010.06.03 18:57:09.
