data_PCOD9509833
_publ_section_title
;
Structure prediction by ZEFSAII (Michael W. Deem and Ramdas Pophale) SiO2 
 PCOD9509833
Probable space group: C C C A
;
_chemical_formula_sum "Si O2"
_cell_formula_units_Z 64
_cell_length_a 28.026080
_cell_length_b 8.621855
_cell_length_c 10.523414
_cell_angle_alpha 90.000000
_cell_angle_beta 90.000000
_cell_angle_gamma 90.000000
_cell_volume 2542.844063
_symmetry_space_group_name_H-M "C C C A"
_symmetry_group_IT_number 68
_space_group.IT_coordinate_system_code '2'
_symmetry_cell_setting 'orthorhombic'
loop_
_space_group_symop_operation_xyz
x,y,z
-x,1/2-y,z
x,1/2-y,1/2-z
-x,y,1/2-z
-x,-y,-z
x,1/2+y,-z
-x,1/2+y,1/2+z
x,-y,1/2+z
1/2+x,1/2+y,z
1/2-x,-y,z
1/2+x,-y,1/2-z
1/2-x,1/2+y,1/2-z
1/2-x,1/2-y,-z
1/2+x,y,-z
1/2-x,y,1/2+z
1/2+x,1/2-y,1/2+z
loop_
_atom_site_type_symbol
_atom_site_label
_atom_site_fract_x
_atom_site_fract_y
_atom_site_fract_z
Si Si1 0.160981 0.032276 0.095217
Si Si2 0.093902 0.722519 0.462050
Si Si3 0.250000 0.000000 0.927120
Si Si4 0.967450 0.000974 0.624728
Si Si5 0.274529 0.750000 0.250000
O O1 0.190038 0.114101 0.206119
O O2 0.120484 0.906238 0.122832
O O3 0.133613 0.164758 0.018513
O O4 0.203272 0.965704 0.009065
O O5 0.069737 0.635102 0.584083
O O6 0.058068 0.831781 0.384406
O O7 0.257747 0.841437 0.849529
O O8 0.000000 0.977742 0.750000
O O9 0.000000 0.000000 0.500000
#
# Coordination Sequence:
#
# PCOD9509833 Si02
#       5
#    16  16   8  16   8
#     4  11  24  50  69 113 157 201 263 318 381 463
#     4  10  25  48  77 113 152 199 259 335 388 479
#     4  12  26  46  74 110 168 200 270 310 392 464
#     4  11  26  51  78 114 153 203 260 329 412 483
#     4  12  26  42  76 108 145 230 247 322 384 454
#
# _framework density 25.168669000000001
#
# number of rings (size 3 to 8) (size 9 to 14) (size 15 to 20)
#    0.000    1.000    2.500    2.250    3.500    8.000 
#    4.500    3.750    0.000    0.000    0.000    0.000 
#    0.000    0.000    0.000    0.000    0.000    0.000 
#
# Total GULP energy -179173.790552 kJ/mol
# GULP energy per Si atom -5599.180955 kJ/mol
# Density = 2.511138 g / cm^3
# Si number density = 25.168669 Si / 1000 Ang^3
#
#
#
# Elastic Constant Matrix: (Units=GPa)
#
#
# Indices 1 2 3 4 5 6 
#
# 1 113.0370 62.7583 43.1573 0.0000 0.0000 0.0000
# 2 62.7583 137.6168 40.8054 0.0000 0.0000 0.0000
# 3 43.1573 40.8054 105.9785 0.0000 0.0000 0.0000
# 4 0.0000 0.0000 0.0000 35.3929 0.0000 0.0000
# 5 0.0000 0.0000 0.0000 0.0000 27.1776 0.0000
# 6 0.0000 0.0000 0.0000 0.0000 0.0000 107.9542
#
#
#
# Elastic Compliance Matrix: (Units=1/GPa)
#
#
# Indices 1 2 3 4 5 6 
#
# 1 0.012821 -0.004853 -0.003353 0.000000 0.000000 0.000000
# 2 -0.004853 0.010040 -0.001890 0.000000 0.000000 0.000000
# 3 -0.003353 -0.001890 0.011529 0.000000 0.000000 0.000000
# 4 0.000000 0.000000 0.000000 0.028254 0.000000 0.000000
# 5 0.000000 0.000000 0.000000 0.000000 0.036795 0.000000
# 6 0.000000 0.000000 0.000000 0.000000 0.000000 0.009263
#
#
# Mechanical properties :
#
#
# Convention : Reuss Voigt Hill
#
# Bulk Modulus (GPa) = 70.42351 72.23047 71.32699
# Shear Modulus (GPa) = 37.41821 48.09902 42.75861
#
# Velocity S-wave (km/s) = 3.85996 4.37632 4.12622
# Velocity P-wave (km/s) = 6.92149 7.36866 7.14857
#
# Compressibility (1/GPa) = 0.01419980
#
# Stress axis : x y z
#
# Youngs Moduli (GPa) = 77.99765 99.60316 86.74036
#
# Poissons Ratio (x) = 0.48335 0.29080
# Poissons Ratio (y) = 0.37850 0.16390
# Poissons Ratio (z) = 0.26149 0.18820
#
# Static dielectric constant tensor:
#      x y z
#    x 1.354020 0.000000 0.000000 
#    y 0.000000 2.018140 0.000000 
#    z 0.000000 0.000000 1.972260 
# 
# From -- ./inp_files/17470.got.cif
#   From: 2010.05.17/outbox.cif.g08.bks.cpg/sg68_9_cif.got.tgz:17470.got - 2010.06.03 18:57:09.
