data_PCOD9509211
_publ_section_title
;
Structure prediction by ZEFSAII (Michael W. Deem and Ramdas Pophale) SiO2 
 PCOD9509211
Probable space group: C C C A
;
_chemical_formula_sum "Si O2"
_cell_formula_units_Z 120
_cell_length_a 21.246814
_cell_length_b 11.796361
_cell_length_c 22.250406
_cell_angle_alpha 90.000000
_cell_angle_beta 90.000000
_cell_angle_gamma 90.000000
_cell_volume 5576.732467
_symmetry_space_group_name_H-M "C C C A"
_symmetry_group_IT_number 68
_space_group.IT_coordinate_system_code '2'
_symmetry_cell_setting 'orthorhombic'
loop_
_space_group_symop_operation_xyz
x,y,z
-x,1/2-y,z
x,1/2-y,1/2-z
-x,y,1/2-z
-x,-y,-z
x,1/2+y,-z
-x,1/2+y,1/2+z
x,-y,1/2+z
1/2+x,1/2+y,z
1/2-x,-y,z
1/2+x,-y,1/2-z
1/2-x,1/2+y,1/2-z
1/2-x,1/2-y,-z
1/2+x,y,-z
1/2-x,y,1/2+z
1/2+x,1/2-y,1/2+z
loop_
_atom_site_type_symbol
_atom_site_label
_atom_site_fract_x
_atom_site_fract_y
_atom_site_fract_z
Si Si1 0.609655 0.750000 0.250000
Si Si2 0.190608 0.224614 0.928135
Si Si3 0.821052 0.846139 0.932438
Si Si4 0.932028 0.299701 0.378480
Si Si5 0.118776 0.429917 0.878113
Si Si6 0.506341 0.885080 0.681208
Si Si7 0.179216 0.027445 0.232640
Si Si8 0.134964 0.977936 0.362767
O O1 0.569865 0.699605 0.305253
O O2 0.652971 0.652954 0.220359
O O3 0.254524 0.292680 0.910462
O O4 0.135689 0.310687 0.908089
O O5 0.182580 0.104091 0.896273
O O6 0.183859 0.188665 0.997603
O O7 0.880236 0.783807 0.904127
O O8 0.839821 0.976088 0.915152
O O9 0.901607 0.420771 0.397048
O O10 0.000000 0.250000 0.396612
O O11 0.141088 0.440398 0.808777
O O12 0.043561 0.440220 0.866074
O O13 0.500000 0.750000 0.682258
O O14 0.500000 0.929517 0.750000
O O15 0.576641 0.906365 0.660948
O O16 0.250000 0.000000 0.216756
O O17 0.170210 0.020347 0.303655
#
# Coordination Sequence:
#
# PCOD9509211 Si02
#       8
#     8  16  16  16  16  16  16  16
#     4  10  23  42  62 100 134 179 222 272 354 413
#     4  11  27  46  69 100 137 179 239 291 349 417
#     4  11  26  48  70  95 132 189 234 290 346 414
#     4  11  24  44  69  97 136 178 230 283 342 416
#     4  12  23  45  73 100 135 184 237 283 353 426
#     4  11  22  43  66 101 144 180 218 274 353 429
#     4  11  24  38  66 101 138 174 220 289 350 422
#     4  11  25  41  68 103 136 182 223 287 354 413
#
# _framework density 21.517976000000001
#
# number of rings (size 3 to 8) (size 9 to 14) (size 15 to 20)
#    0.000    0.933    4.000    2.200    5.600    0.533 
#    2.400    1.333    0.000    0.000    0.000    0.000 
#    0.000    0.000    0.000    0.000    0.000    0.000 
#
# Total GULP energy -334463.168405 kJ/mol
# GULP energy per Si atom -5574.386140 kJ/mol
# Density = 2.146900 g / cm^3
# Si number density = 21.517976 Si / 1000 Ang^3
#
#
#
# Elastic Constant Matrix: (Units=GPa)
#
#
# Indices 1 2 3 4 5 6 
#
# 1 78.7659 5.9092 24.0976 0.0000 0.0000 0.0000
# 2 5.9092 98.1912 20.3091 0.0000 0.0000 0.0000
# 3 24.0976 20.3091 57.0722 0.0000 0.0000 0.0000
# 4 0.0000 0.0000 0.0000 16.3704 0.0000 0.0000
# 5 0.0000 0.0000 0.0000 0.0000 28.9867 0.0000
# 6 0.0000 0.0000 0.0000 0.0000 0.0000 26.7540
#
#
#
# Elastic Compliance Matrix: (Units=1/GPa)
#
#
# Indices 1 2 3 4 5 6 
#
# 1 0.014596 0.000428 -0.006315 0.000000 0.000000 0.000000
# 2 0.000428 0.011006 -0.004097 0.000000 0.000000 0.000000
# 3 -0.006315 -0.004097 0.021646 0.000000 0.000000 0.000000
# 4 0.000000 0.000000 0.000000 0.061086 0.000000 0.000000
# 5 0.000000 0.000000 0.000000 0.000000 0.034499 0.000000
# 6 0.000000 0.000000 0.000000 0.000000 0.000000 0.037378
#
#
# Mechanical properties :
#
#
# Convention : Reuss Voigt Hill
#
# Bulk Modulus (GPa) = 36.65814 37.18456 36.92135
# Shear Modulus (GPa) = 23.89244 26.66977 25.28111
#
# Velocity S-wave (km/s) = 3.33580 3.52436 3.43138
# Velocity P-wave (km/s) = 5.64888 5.82062 5.73539
#
# Compressibility (1/GPa) = 0.02727907
#
# Stress axis : x y z
#
# Youngs Moduli (GPa) = 68.51307 90.86060 46.19803
#
# Poissons Ratio (x) = -0.03887 0.29174
# Poissons Ratio (y) = -0.02931 0.18927
# Poissons Ratio (z) = 0.43266 0.37226
#
# Static dielectric constant tensor:
#      x y z
#    x 1.783330 0.000000 0.000000 
#    y 0.000000 1.452800 0.000000 
#    z 0.000000 0.000000 2.071330 
# 
# From -- ./inp_files/46703.got.cif
#   From: 2010.05.17/outbox.cif.g08.bks.cpg/sg68_24_cif.got.tgz:46703.got - 2010.06.03 18:57:09.
