data_PCOD9509830
_publ_section_title
;
Structure prediction by ZEFSAII (Michael W. Deem and Ramdas Pophale) SiO2 
 PCOD9509830
Probable space group: C C C A
;
_chemical_formula_sum "Si O2"
_cell_formula_units_Z 56
_cell_length_a 9.135485
_cell_length_b 17.131852
_cell_length_c 13.692865
_cell_angle_alpha 90.000000
_cell_angle_beta 90.000000
_cell_angle_gamma 90.000000
_cell_volume 2143.039861
_symmetry_space_group_name_H-M "C C C A"
_symmetry_group_IT_number 68
_space_group.IT_coordinate_system_code '2'
_symmetry_cell_setting 'orthorhombic'
loop_
_space_group_symop_operation_xyz
x,y,z
-x,1/2-y,z
x,1/2-y,1/2-z
-x,y,1/2-z
-x,-y,-z
x,1/2+y,-z
-x,1/2+y,1/2+z
x,-y,1/2+z
1/2+x,1/2+y,z
1/2-x,-y,z
1/2+x,-y,1/2-z
1/2-x,1/2+y,1/2-z
1/2-x,1/2-y,-z
1/2+x,y,-z
1/2-x,y,1/2+z
1/2+x,1/2-y,1/2+z
loop_
_atom_site_type_symbol
_atom_site_label
_atom_site_fract_x
_atom_site_fract_y
_atom_site_fract_z
Si Si1 0.665389 0.264970 0.132523
Si Si2 0.592263 0.642774 0.340535
Si Si3 0.250000 0.000000 0.860644
Si Si4 0.681419 0.919528 0.445805
O O1 0.500000 0.250000 0.095669
O O2 0.657893 0.250000 0.250000
O O3 0.798526 0.204747 0.110732
O O4 0.719163 0.348909 0.095225
O O5 0.500000 0.674160 0.250000
O O6 0.669771 0.565054 0.298529
O O7 0.480831 0.605756 0.417092
O O8 0.329661 0.942425 0.938769
O O9 0.750000 0.000000 0.406126
#
# Coordination Sequence:
#
# PCOD9509830 Si02
#       4
#    16  16   8  16
#     4  11  25  46  74 114 151 198 261 322 383 452
#     4  12  25  45  81 110 154 201 264 319 388 468
#     4  10  28  46  74 118 154 198 256 324 402 454
#     4  10  25  48  74 109 155 197 254 313 392 465
#
# _framework density 26.131104000000001
#
# number of rings (size 3 to 8) (size 9 to 14) (size 15 to 20)
#    0.857    0.286    2.857    1.714    6.000    1.143 
#    0.000    0.000    0.000    0.000    0.000    0.000 
#    0.000    0.000    0.000    0.000    0.000    0.000 
#
# Total GULP energy -156344.945621 kJ/mol
# GULP energy per Si atom -5583.748058 kJ/mol
# Density = 2.607163 g / cm^3
# Si number density = 26.131104 Si / 1000 Ang^3
#
#
#
# Elastic Constant Matrix: (Units=GPa)
#
#
# Indices 1 2 3 4 5 6 
#
# 1 164.8022 121.1373 20.9523 0.0000 0.0000 0.0000
# 2 121.1373 287.8922 42.5640 0.0000 0.0000 0.0000
# 3 20.9523 42.5640 81.1298 0.0000 0.0000 0.0000
# 4 0.0000 0.0000 0.0000 23.8510 0.0000 0.0000
# 5 0.0000 0.0000 0.0000 0.0000 13.8478 0.0000
# 6 0.0000 0.0000 0.0000 0.0000 0.0000 33.2431
#
#
#
# Elastic Compliance Matrix: (Units=1/GPa)
#
#
# Indices 1 2 3 4 5 6 
#
# 1 0.008795 -0.003648 -0.000358 0.000000 0.000000 0.000000
# 2 -0.003648 0.005279 -0.001827 0.000000 0.000000 0.000000
# 3 -0.000358 -0.001827 0.013377 0.000000 0.000000 0.000000
# 4 0.000000 0.000000 0.000000 0.041927 0.000000 0.000000
# 5 0.000000 0.000000 0.000000 0.000000 0.072213 0.000000
# 6 0.000000 0.000000 0.000000 0.000000 0.000000 0.030081
#
#
# Mechanical properties :
#
#
# Convention : Reuss Voigt Hill
#
# Bulk Modulus (GPa) = 63.35125 100.34795 81.84960
# Shear Modulus (GPa) = 26.51135 37.46642 31.98888
#
# Velocity S-wave (km/s) = 3.18866 3.79064 3.50261
# Velocity P-wave (km/s) = 6.15248 7.59235 6.91002
#
# Compressibility (1/GPa) = 0.01578501
#
# Stress axis : x y z
#
# Youngs Moduli (GPa) = 113.70714 189.44735 74.75556
#
# Poissons Ratio (x) = 0.69104 0.02673
# Poissons Ratio (y) = 0.41476 0.13660
# Poissons Ratio (z) = 0.04066 0.34618
#
# Static dielectric constant tensor:
#      x y z
#    x 2.198780 0.000000 0.000000 
#    y 0.000000 2.037290 0.000000 
#    z 0.000000 0.000000 2.178230 
# 
# From -- ./inp_files/35577.got.cif
#   From: 2010.05.17/outbox.cif.g08.bks.cpg/sg68_18_cif.got.tgz:35577.got - 2010.06.03 18:57:09.
