data_PCOD9509410
_publ_section_title
;
Structure prediction by ZEFSAII (Michael W. Deem and Ramdas Pophale) SiO2 
 PCOD9509410
Probable space group: C C C A
;
_chemical_formula_sum "Si O2"
_cell_formula_units_Z 56
_cell_length_a 9.754540
_cell_length_b 21.245479
_cell_length_c 10.585117
_cell_angle_alpha 90.000000
_cell_angle_beta 90.000000
_cell_angle_gamma 90.000000
_cell_volume 2193.658321
_symmetry_space_group_name_H-M "C C C A"
_symmetry_group_IT_number 68
_space_group.IT_coordinate_system_code '2'
_symmetry_cell_setting 'orthorhombic'
loop_
_space_group_symop_operation_xyz
x,y,z
-x,1/2-y,z
x,1/2-y,1/2-z
-x,y,1/2-z
-x,-y,-z
x,1/2+y,-z
-x,1/2+y,1/2+z
x,-y,1/2+z
1/2+x,1/2+y,z
1/2-x,-y,z
1/2+x,-y,1/2-z
1/2-x,1/2+y,1/2-z
1/2-x,1/2-y,-z
1/2+x,y,-z
1/2-x,y,1/2+z
1/2+x,1/2-y,1/2+z
loop_
_atom_site_type_symbol
_atom_site_label
_atom_site_fract_x
_atom_site_fract_y
_atom_site_fract_z
Si Si1 0.296775 0.817387 0.799226
Si Si2 0.000000 0.143199 0.250000
Si Si3 0.337329 0.942830 0.634894
Si Si4 0.900543 0.905780 0.012574
O O1 0.341215 0.750000 0.750000
O O2 0.131389 0.818390 0.800215
O O3 0.329664 0.877297 0.710080
O O4 0.373884 0.837253 0.926931
O O5 0.955973 0.102356 0.371085
O O6 0.251325 0.932432 0.505703
O O7 0.496289 0.947290 0.596269
O O8 0.250000 0.000000 0.695786
#
# Coordination Sequence:
#
# PCOD9509410 Si02
#       4
#    16   8  16  16
#     4  11  25  48  76 110 151 200 259 321 389 459
#     4  10  23  46  74 112 152 200 255 318 385 462
#     4  11  25  45  73 107 149 199 257 314 383 457
#     4  11  23  48  73 108 149 201 251 319 380 460
#
# _framework density 25.528131999999999
#
# number of rings (size 3 to 8) (size 9 to 14) (size 15 to 20)
#    0.000    1.143    2.857    2.143    0.000    8.000 
#   30.857    0.000    0.000    0.000    0.000    0.000 
#    0.000    0.000    0.000    0.000    0.000    0.000 
#
# Total GULP energy -156433.319399 kJ/mol
# GULP energy per Si atom -5586.904264 kJ/mol
# Density = 2.547003 g / cm^3
# Si number density = 25.528132 Si / 1000 Ang^3
#
#
#
# Elastic Constant Matrix: (Units=GPa)
#
#
# Indices 1 2 3 4 5 6 
#
# 1 138.5554 14.2558 22.2733 0.0000 0.0000 0.0000
# 2 14.2558 174.4649 51.1417 0.0000 0.0000 0.0000
# 3 22.2733 51.1417 102.3136 0.0000 0.0000 0.0000
# 4 0.0000 0.0000 0.0000 36.4054 0.0000 0.0000
# 5 0.0000 0.0000 0.0000 0.0000 44.1163 0.0000
# 6 0.0000 0.0000 0.0000 0.0000 0.0000 18.7601
#
#
#
# Elastic Compliance Matrix: (Units=1/GPa)
#
#
# Indices 1 2 3 4 5 6 
#
# 1 0.007483 -0.000157 -0.001551 0.000000 0.000000 0.000000
# 2 -0.000157 0.006719 -0.003324 0.000000 0.000000 0.000000
# 3 -0.001551 -0.003324 0.011773 0.000000 0.000000 0.000000
# 4 0.000000 0.000000 0.000000 0.027468 0.000000 0.000000
# 5 0.000000 0.000000 0.000000 0.000000 0.022667 0.000000
# 6 0.000000 0.000000 0.000000 0.000000 0.000000 0.053305
#
#
# Mechanical properties :
#
#
# Convention : Reuss Voigt Hill
#
# Bulk Modulus (GPa) = 62.84848 65.63060 64.23954
# Shear Modulus (GPa) = 34.53446 41.70057 38.11751
#
# Velocity S-wave (km/s) = 3.68203 4.04606 3.86833
# Velocity P-wave (km/s) = 6.53829 6.89873 6.72092
#
# Compressibility (1/GPa) = 0.01591128
#
# Stress axis : x y z
#
# Youngs Moduli (GPa) = 133.64112 148.82863 84.93917
#
# Poissons Ratio (x) = 0.02335 0.13170
# Poissons Ratio (y) = 0.02097 0.28237
# Poissons Ratio (z) = 0.20721 0.49477
#
# Static dielectric constant tensor:
#      x y z
#    x 2.064860 0.000000 0.000000 
#    y 0.000000 2.015020 0.000000 
#    z 0.000000 0.000000 2.094110 
# 
# From -- ./inp_files/11621.got.cif
#   From: 2010.05.17/outbox.cif.g08.bks.cpg/sg68_6_cif.got.tgz:11621.got - 2010.06.03 18:57:09.
