data_PCOD9509934
_publ_section_title
;
Structure prediction by ZEFSAII (Michael W. Deem and Ramdas Pophale) SiO2 
 PCOD9509934
Probable space group: C C C A
;
_chemical_formula_sum "Si O2"
_cell_formula_units_Z 96
_cell_length_a 21.955961
_cell_length_b 12.100312
_cell_length_c 17.167998
_cell_angle_alpha 90.000000
_cell_angle_beta 90.000000
_cell_angle_gamma 90.000000
_cell_volume 4561.090329
_symmetry_space_group_name_H-M "C C C A"
_symmetry_group_IT_number 68
_space_group.IT_coordinate_system_code '2'
_symmetry_cell_setting 'orthorhombic'
loop_
_space_group_symop_operation_xyz
x,y,z
-x,1/2-y,z
x,1/2-y,1/2-z
-x,y,1/2-z
-x,-y,-z
x,1/2+y,-z
-x,1/2+y,1/2+z
x,-y,1/2+z
1/2+x,1/2+y,z
1/2-x,-y,z
1/2+x,-y,1/2-z
1/2-x,1/2+y,1/2-z
1/2-x,1/2-y,-z
1/2+x,y,-z
1/2-x,y,1/2+z
1/2+x,1/2-y,1/2+z
loop_
_atom_site_type_symbol
_atom_site_label
_atom_site_fract_x
_atom_site_fract_y
_atom_site_fract_z
Si Si1 0.732572 0.622499 0.589497
Si Si2 0.863755 0.874884 0.283466
Si Si3 0.159490 0.185933 0.996498
Si Si4 0.889779 0.514213 0.374366
Si Si5 0.556839 0.808018 0.063266
Si Si6 0.479635 0.375365 0.394903
O O1 0.750000 0.500000 0.559828
O O2 0.700486 0.613085 0.672446
O O3 0.797268 0.676601 0.571370
O O4 0.684704 0.703643 0.545918
O O5 0.870386 0.750000 0.250000
O O6 0.866670 0.956039 0.210741
O O7 0.919844 0.898938 0.342861
O O8 0.092375 0.206057 0.026135
O O9 0.151428 0.084386 0.935845
O O10 0.896227 0.385037 0.391574
O O11 0.960680 0.553238 0.377891
O O12 0.500000 0.750000 0.105274
O O13 0.536497 0.877219 0.986523
O O14 0.500000 0.250000 0.376403
#
# Coordination Sequence:
#
# PCOD9509934 Si02
#       6
#    16  16  16  16  16  16
#     4  11  24  42  63  88 129 176 225 280 337 384
#     4  12  22  41  62  97 130 168 223 275 335 404
#     4  11  22  41  66  93 128 172 226 284 327 399
#     4  12  23  38  68 100 133 175 215 279 334 408
#     4  11  22  39  63 105 137 168 216 265 340 415
#     4  11  19  36  67  98 132 165 205 273 333 398
#
# _framework density 21.047599000000002
#
# number of rings (size 3 to 8) (size 9 to 14) (size 15 to 20)
#    0.000    0.667    8.333    2.000    0.000    0.000 
#    3.000    0.833    0.000    6.000    0.000    0.000 
#    0.000    0.000    0.000    0.000    0.000    0.000 
#
# Total GULP energy -267561.493353 kJ/mol
# GULP energy per Si atom -5574.197778 kJ/mol
# Density = 2.099969 g / cm^3
# Si number density = 21.047599 Si / 1000 Ang^3
#
#
#
# Elastic Constant Matrix: (Units=GPa)
#
#
# Indices 1 2 3 4 5 6 
#
# 1 88.7729 15.9456 49.9736 0.0000 0.0000 0.0000
# 2 15.9456 64.9317 31.3593 0.0000 0.0000 0.0000
# 3 49.9736 31.3593 100.7811 0.0000 0.0000 0.0000
# 4 0.0000 0.0000 0.0000 24.6856 0.0000 0.0000
# 5 0.0000 0.0000 0.0000 0.0000 51.7114 0.0000
# 6 0.0000 0.0000 0.0000 0.0000 0.0000 26.7179
#
#
#
# Elastic Compliance Matrix: (Units=1/GPa)
#
#
# Indices 1 2 3 4 5 6 
#
# 1 0.015627 -0.000112 -0.007714 0.000000 0.000000 0.000000
# 2 -0.000112 0.018125 -0.005584 0.000000 0.000000 0.000000
# 3 -0.007714 -0.005584 0.015485 0.000000 0.000000 0.000000
# 4 0.000000 0.000000 0.000000 0.040509 0.000000 0.000000
# 5 0.000000 0.000000 0.000000 0.000000 0.019338 0.000000
# 6 0.000000 0.000000 0.000000 0.000000 0.000000 0.037428
#
#
# Mechanical properties :
#
#
# Convention : Reuss Voigt Hill
#
# Bulk Modulus (GPa) = 44.60932 49.89365 47.25148
# Shear Modulus (GPa) = 27.65376 31.10346 29.37861
#
# Velocity S-wave (km/s) = 3.62866 3.84834 3.74012
# Velocity P-wave (km/s) = 6.22871 6.59568 6.41482
#
# Compressibility (1/GPa) = 0.02241684
#
# Stress axis : x y z
#
# Youngs Moduli (GPa) = 63.99002 55.17143 64.57731
#
# Poissons Ratio (x) = 0.00618 0.49816
# Poissons Ratio (y) = 0.00717 0.36062
# Poissons Ratio (z) = 0.49363 0.30810
#
# Static dielectric constant tensor:
#      x y z
#    x 1.767530 0.000000 0.000000 
#    y 0.000000 1.903390 0.000000 
#    z 0.000000 0.000000 1.760940 
# 
# From -- ./inp_files/33530.got.cif
#   From: 2010.05.17/outbox.cif.g08.bks.cpg/sg68_17_cif.got.tgz:33530.got - 2010.06.03 18:57:09.
