data_PCOD9509941
_publ_section_title
;
Structure prediction by ZEFSAII (Michael W. Deem and Ramdas Pophale) SiO2 
 PCOD9509941
Probable space group: C C C A
;
_chemical_formula_sum "Si O2"
_cell_formula_units_Z 116
_cell_length_a 14.319815
_cell_length_b 21.685640
_cell_length_c 17.417767
_cell_angle_alpha 90.000000
_cell_angle_beta 90.000000
_cell_angle_gamma 90.000000
_cell_volume 5408.815005
_symmetry_space_group_name_H-M "C C C A"
_symmetry_group_IT_number 68
_space_group.IT_coordinate_system_code '2'
_symmetry_cell_setting 'orthorhombic'
loop_
_space_group_symop_operation_xyz
x,y,z
-x,1/2-y,z
x,1/2-y,1/2-z
-x,y,1/2-z
-x,-y,-z
x,1/2+y,-z
-x,1/2+y,1/2+z
x,-y,1/2+z
1/2+x,1/2+y,z
1/2-x,-y,z
1/2+x,-y,1/2-z
1/2-x,1/2+y,1/2-z
1/2-x,1/2-y,-z
1/2+x,y,-z
1/2-x,y,1/2+z
1/2+x,1/2-y,1/2+z
loop_
_atom_site_type_symbol
_atom_site_label
_atom_site_fract_x
_atom_site_fract_y
_atom_site_fract_z
Si Si1 0.421765 0.370748 0.969671
Si Si2 0.258882 0.573880 0.711391
Si Si3 0.000000 0.250000 0.750000
Si Si4 0.369688 0.396908 0.362337
Si Si5 0.223262 0.317870 0.974419
Si Si6 0.392687 0.386328 0.607072
Si Si7 0.859984 0.492645 0.498305
Si Si8 0.068319 0.145367 0.856096
O O1 0.319393 0.348978 0.947000
O O2 0.504306 0.359301 0.908761
O O3 0.410126 0.443199 0.987552
O O4 0.440624 0.340598 0.053113
O O5 0.250000 0.500000 0.702537
O O6 0.296126 0.588051 0.796451
O O7 0.161415 0.606503 0.687126
O O8 0.339586 0.604545 0.658251
O O9 0.063533 0.206038 0.803529
O O10 0.345906 0.332087 0.404157
O O11 0.367360 0.448978 0.427521
O O12 0.475269 0.392310 0.334148
O O13 0.250000 0.250000 0.000000
O O14 0.176569 0.351050 0.047994
O O15 0.399266 0.455587 0.573740
O O16 0.750000 0.500000 0.484287
#
# Coordination Sequence:
#
# PCOD9509941 Si02
#       8
#    16  16   4  16  16  16  16  16
#     4  12  23  40  70  98 132 171 234 281 347 408
#     4  12  25  42  64 102 145 180 224 284 354 436
#     4  12  28  44  68 104 148 178 234 294 364 416
#     4  11  24  44  64 101 138 178 229 278 361 409
#     4  11  25  43  67  95 129 176 231 288 338 406
#     4  11  23  39  62  99 130 177 222 274 343 405
#     4  11  19  39  66  94 133 173 217 284 331 406
#     4  12  24  43  69 102 133 184 231 291 348 414
#
# _framework density 21.446472
#
# number of rings (size 3 to 8) (size 9 to 14) (size 15 to 20)
#    0.000    0.552    8.276    2.069    3.862    0.552 
#    0.000    0.690    0.000    0.000    0.000    1.931 
#    0.000    0.000    0.000    0.000    0.000    0.000 
#
# Total GULP energy -324056.700585 kJ/mol
# GULP energy per Si atom -5587.184493 kJ/mol
# Density = 2.139766 g / cm^3
# Si number density = 21.446472 Si / 1000 Ang^3
#
#
#
# Elastic Constant Matrix: (Units=GPa)
#
#
# Indices 1 2 3 4 5 6 
#
# 1 93.1957 7.0192 -8.8791 0.0000 0.0000 0.0000
# 2 7.0192 69.3626 -11.4638 0.0000 0.0000 0.0000
# 3 -8.8791 -11.4638 55.0809 0.0000 0.0000 0.0000
# 4 0.0000 0.0000 0.0000 17.5184 0.0000 0.0000
# 5 0.0000 0.0000 0.0000 0.0000 32.0205 0.0000
# 6 0.0000 0.0000 0.0000 0.0000 0.0000 17.7492
#
#
#
# Elastic Compliance Matrix: (Units=1/GPa)
#
#
# Indices 1 2 3 4 5 6 
#
# 1 0.010945 -0.000845 0.001588 0.000000 0.000000 0.000000
# 2 -0.000845 0.014996 0.002985 0.000000 0.000000 0.000000
# 3 0.001588 0.002985 0.019032 0.000000 0.000000 0.000000
# 4 0.000000 0.000000 0.000000 0.057083 0.000000 0.000000
# 5 0.000000 0.000000 0.000000 0.000000 0.031230 0.000000
# 6 0.000000 0.000000 0.000000 0.000000 0.000000 0.056340
#
#
# Mechanical properties :
#
#
# Convention : Reuss Voigt Hill
#
# Bulk Modulus (GPa) = 19.07315 21.22133 20.14724
# Shear Modulus (GPa) = 25.04424 28.85516 26.94970
#
# Velocity S-wave (km/s) = 3.42095 3.67202 3.54871
# Velocity P-wave (km/s) = 4.95142 5.28155 5.11915
#
# Compressibility (1/GPa) = 0.05242972
#
# Stress axis : x y z
#
# Youngs Moduli (GPa) = 91.36512 66.68529 52.54200
#
# Poissons Ratio (x) = 0.05635 -0.08346
# Poissons Ratio (y) = 0.07721 -0.15683
# Poissons Ratio (z) = -0.14513 -0.19904
#
# Static dielectric constant tensor:
#      x y z
#    x 1.830820 0.000000 0.000000 
#    y 0.000000 1.795820 0.000000 
#    z 0.000000 0.000000 1.803610 
# 
# From -- ./inp_files/31266.got.cif
#   From: 2010.05.17/outbox.cif.g08.bks.cpg/sg68_16_cif.got.tgz:31266.got - 2010.06.03 18:57:09.
