data_PCOD9509631
_publ_section_title
;
Structure prediction by ZEFSAII (Michael W. Deem and Ramdas Pophale) SiO2 
 PCOD9509631
Probable space group: C C C A
;
_chemical_formula_sum "Si O2"
_cell_formula_units_Z 128
_cell_length_a 22.243837
_cell_length_b 21.446557
_cell_length_c 12.803137
_cell_angle_alpha 90.000000
_cell_angle_beta 90.000000
_cell_angle_gamma 90.000000
_cell_volume 6107.784109
_symmetry_space_group_name_H-M "C C C A"
_symmetry_group_IT_number 68
_space_group.IT_coordinate_system_code '2'
_symmetry_cell_setting 'orthorhombic'
loop_
_space_group_symop_operation_xyz
x,y,z
-x,1/2-y,z
x,1/2-y,1/2-z
-x,y,1/2-z
-x,-y,-z
x,1/2+y,-z
-x,1/2+y,1/2+z
x,-y,1/2+z
1/2+x,1/2+y,z
1/2-x,-y,z
1/2+x,-y,1/2-z
1/2-x,1/2+y,1/2-z
1/2-x,1/2-y,-z
1/2+x,y,-z
1/2-x,y,1/2+z
1/2+x,1/2-y,1/2+z
loop_
_atom_site_type_symbol
_atom_site_label
_atom_site_fract_x
_atom_site_fract_y
_atom_site_fract_z
Si Si1 0.313763 0.162587 0.472449
Si Si2 0.264650 0.748702 0.371894
Si Si3 0.750959 0.930843 0.189477
Si Si4 0.935971 0.966045 0.209452
Si Si5 0.837157 0.952015 0.378808
Si Si6 0.407174 0.570672 0.473652
Si Si7 0.152103 0.635374 0.581455
Si Si8 0.972832 0.897803 0.652008
O O1 0.276435 0.182563 0.575288
O O2 0.300537 0.223914 0.403055
O O3 0.289251 0.110111 0.392727
O O4 0.375860 0.137873 0.516619
O O5 0.270346 0.750000 0.250000
O O6 0.314392 0.798265 0.414263
O O7 0.778492 0.939840 0.305444
O O8 0.684808 0.901595 0.177508
O O9 0.750000 0.000000 0.143944
O O10 0.888115 0.940990 0.291428
O O11 0.000000 0.942890 0.250000
O O12 0.941229 0.041050 0.202807
O O13 0.920462 0.948872 0.091957
O O14 0.836416 0.905582 0.477207
O O15 0.860213 0.020021 0.423487
O O16 0.471847 0.577171 0.417758
O O17 0.080622 0.637843 0.594918
O O18 0.000000 0.860979 0.750000
#
# Coordination Sequence:
#
# PCOD9509631 Si02
#       8
#    16  16  16  16  16  16  16  16
#     4  10  24  45  66  99 126 175 231 275 346 412
#     4  10  25  47  72  91 128 177 237 298 344 406
#     4  11  24  40  63 101 142 175 214 274 347 411
#     4  11  20  37  61 100 140 185 214 262 338 427
#     4  12  23  40  66  99 146 176 219 281 338 419
#     4  12  22  39  69 102 143 176 227 274 348 428
#     4  11  25  43  64  99 134 177 237 281 351 404
#     4  11  22  38  66 102 137 186 220 277 342 427
#
# _framework density 20.956862999999998
#
# number of rings (size 3 to 8) (size 9 to 14) (size 15 to 20)
#    0.000    1.000    5.000    2.625    1.750    9.500 
#    0.000    0.625    0.000    0.000    0.000    0.000 
#    0.000    0.000    0.000    0.000    0.000    0.000 
#
# Total GULP energy -356592.229542 kJ/mol
# GULP energy per Si atom -5571.753587 kJ/mol
# Density = 2.090916 g / cm^3
# Si number density = 20.956863 Si / 1000 Ang^3
#
#
#
# Elastic Constant Matrix: (Units=GPa)
#
#
# Indices 1 2 3 4 5 6 
#
# 1 110.6334 38.9299 60.7284 0.0000 0.0000 0.0000
# 2 38.9299 61.1390 33.7063 0.0000 0.0000 0.0000
# 3 60.7284 33.7063 160.3287 0.0000 0.0000 0.0000
# 4 0.0000 0.0000 0.0000 19.6093 0.0000 0.0000
# 5 0.0000 0.0000 0.0000 0.0000 12.5796 0.0000
# 6 0.0000 0.0000 0.0000 0.0000 0.0000 21.9834
#
#
#
# Elastic Compliance Matrix: (Units=1/GPa)
#
#
# Indices 1 2 3 4 5 6 
#
# 1 0.013339 -0.006456 -0.003695 0.000000 0.000000 0.000000
# 2 -0.006456 0.021625 -0.002101 0.000000 0.000000 0.000000
# 3 -0.003695 -0.002101 0.008078 0.000000 0.000000 0.000000
# 4 0.000000 0.000000 0.000000 0.050996 0.000000 0.000000
# 5 0.000000 0.000000 0.000000 0.000000 0.079494 0.000000
# 6 0.000000 0.000000 0.000000 0.000000 0.000000 0.045489
#
#
# Mechanical properties :
#
#
# Convention : Reuss Voigt Hill
#
# Bulk Modulus (GPa) = 53.94273 66.53671 60.23972
# Shear Modulus (GPa) = 20.02355 24.08356 22.05356
#
# Velocity S-wave (km/s) = 3.09441 3.39366 3.24748
# Velocity P-wave (km/s) = 6.20991 6.86835 6.54741
#
# Compressibility (1/GPa) = 0.01853818
#
# Stress axis : x y z
#
# Youngs Moduli (GPa) = 74.96766 46.24178 123.78561
#
# Poissons Ratio (x) = 0.29856 0.45741
# Poissons Ratio (y) = 0.48402 0.26006
# Poissons Ratio (z) = 0.27702 0.09715
#
# Static dielectric constant tensor:
#      x y z
#    x 1.830200 0.000000 0.000000 
#    y 0.000000 1.791440 0.000000 
#    z 0.000000 0.000000 1.794440 
# 
# From -- ./inp_files/16703.got.cif
#   From: 2010.05.17/outbox.cif.g08.bks.cpg/sg68_9_cif.got.tgz:16703.got - 2010.06.03 18:57:09.
