data_PCOD9509415
_publ_section_title
;
Structure prediction by ZEFSAII (Michael W. Deem and Ramdas Pophale) SiO2 
 PCOD9509415
Probable space group: C C C A
;
_chemical_formula_sum "Si O2"
_cell_formula_units_Z 52
_cell_length_a 10.711867
_cell_length_b 11.129965
_cell_length_c 18.683299
_cell_angle_alpha 90.000000
_cell_angle_beta 90.000000
_cell_angle_gamma 90.000000
_cell_volume 2227.473441
_symmetry_space_group_name_H-M "C C C A"
_symmetry_group_IT_number 68
_space_group.IT_coordinate_system_code '2'
_symmetry_cell_setting 'orthorhombic'
loop_
_space_group_symop_operation_xyz
x,y,z
-x,1/2-y,z
x,1/2-y,1/2-z
-x,y,1/2-z
-x,-y,-z
x,1/2+y,-z
-x,1/2+y,1/2+z
x,-y,1/2+z
1/2+x,1/2+y,z
1/2-x,-y,z
1/2+x,-y,1/2-z
1/2-x,1/2+y,1/2-z
1/2-x,1/2-y,-z
1/2+x,y,-z
1/2-x,y,1/2+z
1/2+x,1/2-y,1/2+z
loop_
_atom_site_type_symbol
_atom_site_label
_atom_site_fract_x
_atom_site_fract_y
_atom_site_fract_z
Si Si1 0.371960 0.189510 0.092301
Si Si2 0.665821 0.614306 0.433359
Si Si3 0.000000 0.750000 0.750000
Si Si4 0.548134 0.972663 0.324296
O O1 0.500000 0.250000 0.117978
O O2 0.256633 0.281203 0.096028
O O3 0.364671 0.065363 0.135283
O O4 0.389665 0.159459 0.008141
O O5 0.750000 0.500000 0.451710
O O6 0.563187 0.566254 0.378026
O O7 0.086481 0.841072 0.705156
O O8 0.500000 0.031264 0.250000
#
# Coordination Sequence:
#
# PCOD9509415 Si02
#       4
#    16  16   4  16
#     4  11  24  42  75 101 143 184 244 312 359 437
#     4  11  24  43  69 110 136 193 247 289 376 444
#     4   8  24  44  70  88 138 196 222 294 380 432
#     4  10  23  47  68  98 147 191 232 308 367 441
#
# _framework density 23.344833999999999
#
# number of rings (size 3 to 8) (size 9 to 14) (size 15 to 20)
#    0.923    0.615    3.077    0.923    2.154    3.077 
#    5.538    0.000    0.000    0.000    0.000    0.000 
#    0.000    0.000    0.000    0.000    0.000    0.000 
#
# Total GULP energy -145139.830875 kJ/mol
# GULP energy per Si atom -5582.301187 kJ/mol
# Density = 2.329170 g / cm^3
# Si number density = 23.344834 Si / 1000 Ang^3
#
#
#
# Elastic Constant Matrix: (Units=GPa)
#
#
# Indices 1 2 3 4 5 6 
#
# 1 52.8545 70.7000 43.3913 0.0000 0.0000 0.0000
# 2 70.7000 187.4736 58.2569 0.0000 0.0000 0.0000
# 3 43.3913 58.2569 69.6669 0.0000 0.0000 0.0000
# 4 0.0000 0.0000 0.0000 72.7001 0.0000 0.0000
# 5 0.0000 0.0000 0.0000 0.0000 -15.5156 0.0000
# 6 0.0000 0.0000 0.0000 0.0000 0.0000 39.6551
#
#
#
# Elastic Compliance Matrix: (Units=1/GPa)
#
#
# Indices 1 2 3 4 5 6 
#
# 1 0.057827 -0.014343 -0.024024 0.000000 0.000000 0.000000
# 2 -0.014343 0.010764 -0.000068 0.000000 0.000000 0.000000
# 3 -0.024024 -0.000068 0.029374 0.000000 0.000000 0.000000
# 4 0.000000 0.000000 0.000000 0.013755 0.000000 0.000000
# 5 0.000000 0.000000 0.000000 0.000000 -0.064451 0.000000
# 6 0.000000 0.000000 0.000000 0.000000 0.000000 0.025217
#
#
# Mechanical properties :
#
#
# Convention : Reuss Voigt Hill
#
# Bulk Modulus (GPa) = 47.40062 72.74349 60.07206
# Shear Modulus (GPa) = 31.97203 28.54439 30.25821
#
# Velocity S-wave (km/s) = 3.70476 3.50055 3.60410
# Velocity P-wave (km/s) = 6.21683 6.89685 6.56565
#
# Compressibility (1/GPa) = 0.02109677
#
# Stress axis : x y z
#
# Youngs Moduli (GPa) = 17.29290 92.90157 34.04401
#
# Poissons Ratio (x) = 1.33244 0.81786
# Poissons Ratio (y) = 0.24802 0.00232
# Poissons Ratio (z) = 0.41544 0.00632
#
# Static dielectric constant tensor:
#      x y z
#    x 1.881070 0.000000 0.000000 
#    y 0.000000 1.888850 0.000000 
#    z 0.000000 0.000000 1.945240 
# 
# From -- ./inp_files/30355.got.cif
#   From: 2010.05.17/outbox.cif.g08.bks.cpg/sg68_16_cif.got.tgz:30355.got - 2010.06.03 18:57:09.
