data_PCOD9509437
_publ_section_title
;
Structure prediction by ZEFSAII (Michael W. Deem and Ramdas Pophale) SiO2 
 PCOD9509437
Probable space group: C C C A
;
_chemical_formula_sum "Si O2"
_cell_formula_units_Z 60
_cell_length_a 9.050483
_cell_length_b 18.696075
_cell_length_c 14.754069
_cell_angle_alpha 90.000000
_cell_angle_beta 90.000000
_cell_angle_gamma 90.000000
_cell_volume 2496.514016
_symmetry_space_group_name_H-M "C C C A"
_symmetry_group_IT_number 68
_space_group.IT_coordinate_system_code '2'
_symmetry_cell_setting 'orthorhombic'
loop_
_space_group_symop_operation_xyz
x,y,z
-x,1/2-y,z
x,1/2-y,1/2-z
-x,y,1/2-z
-x,-y,-z
x,1/2+y,-z
-x,1/2+y,1/2+z
x,-y,1/2+z
1/2+x,1/2+y,z
1/2-x,-y,z
1/2+x,-y,1/2-z
1/2-x,1/2+y,1/2-z
1/2-x,1/2-y,-z
1/2+x,y,-z
1/2-x,y,1/2+z
1/2+x,1/2-y,1/2+z
loop_
_atom_site_type_symbol
_atom_site_label
_atom_site_fract_x
_atom_site_fract_y
_atom_site_fract_z
Si Si1 0.918930 0.385011 0.348897
Si Si2 0.000000 0.750000 0.250000
Si Si3 0.391898 0.355240 0.105277
Si Si4 0.920968 0.019380 0.848515
Si Si5 0.000000 0.750000 0.957571
O O1 0.747476 0.403855 0.367073
O O2 0.922563 0.307531 0.394157
O O3 0.000000 0.378534 0.250000
O O4 0.009200 0.449310 0.394836
O O5 0.096484 0.699070 0.188543
O O6 0.536436 0.406403 0.103731
O O7 0.398007 0.301826 0.019613
O O8 0.000000 0.025305 0.750000
O O9 0.750000 0.000000 0.838255
#
# Coordination Sequence:
#
# PCOD9509437 Si02
#       5
#    16   4  16  16   8
#     4  11  25  44  74 103 141 185 236 289 345 426
#     4  10  24  36  72  96 142 178 216 284 344 414
#     4  11  24  45  70 103 142 181 234 286 355 409
#     4  11  23  42  72 103 138 185 238 289 348 419
#     4  11  27  45  69 106 146 184 233 291 355 413
#
# _framework density 24.033511000000001
#
# number of rings (size 3 to 8) (size 9 to 14) (size 15 to 20)
#    0.000    1.067    1.333    5.200    3.733    5.333 
#    0.000    0.000    0.000    0.000    0.000    0.000 
#    0.000    0.000    0.000    0.000    0.000    0.000 
#
# Total GULP energy -167416.925836 kJ/mol
# GULP energy per Si atom -5580.564195 kJ/mol
# Density = 2.397881 g / cm^3
# Si number density = 24.033511 Si / 1000 Ang^3
#
#
#
# Elastic Constant Matrix: (Units=GPa)
#
#
# Indices 1 2 3 4 5 6 
#
# 1 144.0194 38.9248 9.7501 0.0000 0.0000 0.0000
# 2 38.9248 159.7029 28.2213 0.0000 0.0000 0.0000
# 3 9.7501 28.2213 76.7654 0.0000 0.0000 0.0000
# 4 0.0000 0.0000 0.0000 29.6096 0.0000 0.0000
# 5 0.0000 0.0000 0.0000 0.0000 1.7352 0.0000
# 6 0.0000 0.0000 0.0000 0.0000 0.0000 36.0855
#
#
#
# Elastic Compliance Matrix: (Units=1/GPa)
#
#
# Indices 1 2 3 4 5 6 
#
# 1 0.007440 -0.001761 -0.000298 0.000000 0.000000 0.000000
# 2 -0.001761 0.007113 -0.002391 0.000000 0.000000 0.000000
# 3 -0.000298 -0.002391 0.013944 0.000000 0.000000 0.000000
# 4 0.000000 0.000000 0.000000 0.033773 0.000000 0.000000
# 5 0.000000 0.000000 0.000000 0.000000 0.576299 0.000000
# 6 0.000000 0.000000 0.000000 0.000000 0.000000 0.027712
#
#
# Mechanical properties :
#
#
# Convention : Reuss Voigt Hill
#
# Bulk Modulus (GPa) = 51.02807 59.36444 55.19625
# Shear Modulus (GPa) = 7.33447 33.72549 20.52998
#
# Velocity S-wave (km/s) = 1.74883 3.75009 2.92588
# Velocity P-wave (km/s) = 5.03547 6.59585 5.86776
#
# Compressibility (1/GPa) = 0.01959706
#
# Stress axis : x y z
#
# Youngs Moduli (GPa) = 134.41728 140.58059 71.71706
#
# Poissons Ratio (x) = 0.24751 0.02135
# Poissons Ratio (y) = 0.23666 0.17151
# Poissons Ratio (z) = 0.04001 0.33619
#
# Static dielectric constant tensor:
#      x y z
#    x 2.032830 0.000000 0.000000 
#    y 0.000000 1.898420 0.000000 
#    z 0.000000 0.000000 1.975500 
# 
# From -- ./inp_files/27721.got.cif
#   From: 2010.05.17/outbox.cif.g08.bks.cpg/sg68_14_cif.got.tgz:27721.got - 2010.06.03 18:57:09.
