data_PCOD9509148
_publ_section_title
;
Structure prediction by ZEFSAII (Michael W. Deem and Ramdas Pophale) SiO2 
 PCOD9509148
Probable space group: C C C A
;
_chemical_formula_sum "Si O2"
_cell_formula_units_Z 104
_cell_length_a 19.870604
_cell_length_b 15.471232
_cell_length_c 16.817496
_cell_angle_alpha 90.000000
_cell_angle_beta 90.000000
_cell_angle_gamma 90.000000
_cell_volume 5170.080439
_symmetry_space_group_name_H-M "C C C A"
_symmetry_group_IT_number 68
_space_group.IT_coordinate_system_code '2'
_symmetry_cell_setting 'orthorhombic'
loop_
_space_group_symop_operation_xyz
x,y,z
-x,1/2-y,z
x,1/2-y,1/2-z
-x,y,1/2-z
-x,-y,-z
x,1/2+y,-z
-x,1/2+y,1/2+z
x,-y,1/2+z
1/2+x,1/2+y,z
1/2-x,-y,z
1/2+x,-y,1/2-z
1/2-x,1/2+y,1/2-z
1/2-x,1/2-y,-z
1/2+x,y,-z
1/2-x,y,1/2+z
1/2+x,1/2-y,1/2+z
loop_
_atom_site_type_symbol
_atom_site_label
_atom_site_fract_x
_atom_site_fract_y
_atom_site_fract_z
Si Si1 0.878070 0.842237 0.042186
Si Si2 0.738778 0.396666 0.353094
Si Si3 0.720189 0.595613 0.683123
Si Si4 0.000000 0.250000 0.885538
Si Si5 0.320795 0.842141 0.509624
Si Si6 0.073568 0.492284 0.963520
Si Si7 0.064624 0.592149 0.303964
O O1 0.836519 0.871069 0.119604
O O2 0.843694 0.756814 0.007932
O O3 0.953451 0.814279 0.064928
O O4 0.882340 0.924534 0.985342
O O5 0.750000 0.500000 0.351380
O O6 0.755575 0.365815 0.262863
O O7 0.780661 0.362891 0.429260
O O8 0.750000 0.500000 0.668684
O O9 0.715648 0.640967 0.596000
O O10 0.643331 0.589471 0.715471
O O11 0.949960 0.189232 0.836169
O O12 0.384560 0.907268 0.511070
O O13 0.061376 0.480256 0.871223
O O14 0.000000 0.500000 0.000000
O O15 0.000000 0.576176 0.250000
#
# Coordination Sequence:
#
# PCOD9509148 Si02
#       7
#    16  16  16   8  16  16  16
#     4  12  22  40  66  97 134 171 228 280 340 412
#     4  11  23  40  65  93 130 181 219 271 341 412
#     4  10  23  40  64  97 138 178 227 283 339 418
#     4  12  21  40  68 106 131 168 226 288 357 402
#     4  11  23  43  64  95 134 181 227 283 344 403
#     4  11  22  38  65  96 133 174 221 276 347 421
#     4  11  23  40  64  99 141 174 222 293 350 405
#
# _framework density 20.115742000000001
#
# number of rings (size 3 to 8) (size 9 to 14) (size 15 to 20)
#    0.000    0.923    6.154    2.077    2.154    0.615 
#    0.000    0.000    0.000    0.000    0.000    1.077 
#    0.000    0.000    0.000    0.000    0.000    0.000 
#
# Total GULP energy -289978.611254 kJ/mol
# GULP energy per Si atom -5576.511755 kJ/mol
# Density = 2.006996 g / cm^3
# Si number density = 20.115742 Si / 1000 Ang^3
#
#
#
# Elastic Constant Matrix: (Units=GPa)
#
#
# Indices 1 2 3 4 5 6 
#
# 1 63.6922 19.4351 22.1734 0.0000 0.0000 0.0000
# 2 19.4351 121.7690 36.2170 0.0000 0.0000 0.0000
# 3 22.1734 36.2170 128.2608 0.0000 0.0000 0.0000
# 4 0.0000 0.0000 0.0000 -15.5274 0.0000 0.0000
# 5 0.0000 0.0000 0.0000 0.0000 30.4842 0.0000
# 6 0.0000 0.0000 0.0000 0.0000 0.0000 38.3232
#
#
#
# Elastic Compliance Matrix: (Units=1/GPa)
#
#
# Indices 1 2 3 4 5 6 
#
# 1 0.017152 -0.002026 -0.002393 0.000000 0.000000 0.000000
# 2 -0.002026 0.009204 -0.002249 0.000000 0.000000 0.000000
# 3 -0.002393 -0.002249 0.008845 0.000000 0.000000 0.000000
# 4 0.000000 0.000000 0.000000 -0.064402 0.000000 0.000000
# 5 0.000000 0.000000 0.000000 0.000000 0.032804 0.000000
# 6 0.000000 0.000000 0.000000 0.000000 0.000000 0.026094
#
#
# Mechanical properties :
#
#
# Convention : Reuss Voigt Hill
#
# Bulk Modulus (GPa) = 45.73295 52.15255 48.94275
# Shear Modulus (GPa) = 99.36149 26.38243 62.87196
#
# Velocity S-wave (km/s) = 7.03577 3.62544 5.59669
# Velocity P-wave (km/s) = 9.42269 6.59603 8.13310
#
# Compressibility (1/GPa) = 0.02186607
#
# Stress axis : x y z
#
# Youngs Moduli (GPa) = 58.30301 108.64302 113.05380
#
# Poissons Ratio (x) = 0.22008 0.27055
# Poissons Ratio (y) = 0.11811 0.25424
# Poissons Ratio (z) = 0.13953 0.24432
#
# Static dielectric constant tensor:
#      x y z
#    x 1.883260 0.000000 0.000000 
#    y 0.000000 1.705690 0.000000 
#    z 0.000000 0.000000 1.798490 
# 
# From -- ./inp_files/33013.got.cif
#   From: 2010.05.17/outbox.cif.g08.bks.cpg/sg68_17_cif.got.tgz:33013.got - 2010.06.03 18:57:09.
