data_PCOD9509424
_publ_section_title
;
Structure prediction by ZEFSAII (Michael W. Deem and Ramdas Pophale) SiO2 
 PCOD9509424
Probable space group: C C C A
;
_chemical_formula_sum "Si O2"
_cell_formula_units_Z 80
_cell_length_a 25.185829
_cell_length_b 8.805472
_cell_length_c 15.715152
_cell_angle_alpha 90.000000
_cell_angle_beta 90.000000
_cell_angle_gamma 90.000000
_cell_volume 3485.198165
_symmetry_space_group_name_H-M "C C C A"
_symmetry_group_IT_number 68
_space_group.IT_coordinate_system_code '2'
_symmetry_cell_setting 'orthorhombic'
loop_
_space_group_symop_operation_xyz
x,y,z
-x,1/2-y,z
x,1/2-y,1/2-z
-x,y,1/2-z
-x,-y,-z
x,1/2+y,-z
-x,1/2+y,1/2+z
x,-y,1/2+z
1/2+x,1/2+y,z
1/2-x,-y,z
1/2+x,-y,1/2-z
1/2-x,1/2+y,1/2-z
1/2-x,1/2-y,-z
1/2+x,y,-z
1/2-x,y,1/2+z
1/2+x,1/2-y,1/2+z
loop_
_atom_site_type_symbol
_atom_site_label
_atom_site_fract_x
_atom_site_fract_y
_atom_site_fract_z
Si Si1 0.911599 0.456410 0.174846
Si Si2 0.406168 0.087996 0.984516
Si Si3 0.318543 0.250000 0.750000
Si Si4 0.658149 0.818715 0.573418
Si Si5 0.750000 0.000000 0.639864
Si Si6 0.500000 0.250000 0.615631
Si Si7 0.118000 0.750000 0.250000
O O1 0.913080 0.527497 0.080119
O O2 0.859450 0.353676 0.193820
O O3 0.914201 0.594639 0.241335
O O4 0.963104 0.354260 0.172709
O O5 0.358001 0.207737 0.997442
O O6 0.458426 0.161170 0.945201
O O7 0.386772 0.948184 0.929211
O O8 0.283296 0.376582 0.697890
O O9 0.653806 0.743725 0.666097
O O10 0.713265 0.902710 0.576871
#
# Coordination Sequence:
#
# PCOD9509424 Si02
#       7
#    16  16   8  16   8   8   8
#     4  11  25  47  75 104 151 190 245 306 362 449
#     4  11  25  46  73 104 149 189 247 301 361 442
#     4  12  27  49  72 111 147 197 242 315 362 450
#     4  11  24  47  71 105 146 192 244 308 356 441
#     4  12  26  44  76 104 148 196 244 300 384 424
#     4  12  24  47  76 107 142 204 232 304 384 427
#     4  10  23  48  69 105 151 186 242 310 360 434
#
# _framework density 22.954218000000001
#
# number of rings (size 3 to 8) (size 9 to 14) (size 15 to 20)
#    0.000    0.800    4.000    2.400    2.800    1.200 
#    0.000    1.000    0.000    0.000    0.000    0.000 
#    0.000    0.000    0.000    0.000    0.000    0.000 
#
# Total GULP energy -223411.857546 kJ/mol
# GULP energy per Si atom -5585.296439 kJ/mol
# Density = 2.290197 g / cm^3
# Si number density = 22.954218 Si / 1000 Ang^3
#
#
#
# Elastic Constant Matrix: (Units=GPa)
#
#
# Indices 1 2 3 4 5 6 
#
# 1 63.3134 18.4024 -5.2387 0.0000 0.0000 0.0000
# 2 18.4024 101.3763 8.0628 0.0000 0.0000 0.0000
# 3 -5.2387 8.0628 54.4825 0.0000 0.0000 0.0000
# 4 0.0000 0.0000 0.0000 32.1414 0.0000 0.0000
# 5 0.0000 0.0000 0.0000 0.0000 36.7997 0.0000
# 6 0.0000 0.0000 0.0000 0.0000 0.0000 25.4054
#
#
#
# Elastic Compliance Matrix: (Units=1/GPa)
#
#
# Indices 1 2 3 4 5 6 
#
# 1 0.016909 -0.003237 0.002105 0.000000 0.000000 0.000000
# 2 -0.003237 0.010601 -0.001880 0.000000 0.000000 0.000000
# 3 0.002105 -0.001880 0.018835 0.000000 0.000000 0.000000
# 4 0.000000 0.000000 0.000000 0.031113 0.000000 0.000000
# 5 0.000000 0.000000 0.000000 0.000000 0.027174 0.000000
# 6 0.000000 0.000000 0.000000 0.000000 0.000000 0.039362
#
#
# Mechanical properties :
#
#
# Convention : Reuss Voigt Hill
#
# Bulk Modulus (GPa) = 24.80052 29.06947 26.93499
# Shear Modulus (GPa) = 30.58867 32.06566 31.32716
#
# Velocity S-wave (km/s) = 3.65443 3.74162 3.69828
# Velocity P-wave (km/s) = 5.35110 5.59981 5.47687
#
# Compressibility (1/GPa) = 0.04032174
#
# Stress axis : x y z
#
# Youngs Moduli (GPa) = 59.13856 94.32755 53.09222
#
# Poissons Ratio (x) = 0.30533 -0.11176
# Poissons Ratio (y) = 0.19143 0.09982
# Poissons Ratio (z) = -0.12448 0.17735
#
# Static dielectric constant tensor:
#      x y z
#    x 1.856190 0.000000 0.000000 
#    y 0.000000 2.012190 0.000000 
#    z 0.000000 0.000000 1.889600 
# 
# From -- ./inp_files/34023.got.cif
#   From: 2010.05.17/outbox.cif.g08.bks.cpg/sg68_18_cif.got.tgz:34023.got - 2010.06.03 18:57:09.
