data_PCOD9509655
_publ_section_title
;
Structure prediction by ZEFSAII (Michael W. Deem and Ramdas Pophale) SiO2 
 PCOD9509655
Probable space group: C C C A
;
_chemical_formula_sum "Si O2"
_cell_formula_units_Z 80
_cell_length_a 9.684062
_cell_length_b 25.403639
_cell_length_c 13.727304
_cell_angle_alpha 90.000000
_cell_angle_beta 90.000000
_cell_angle_gamma 90.000000
_cell_volume 3377.059755
_symmetry_space_group_name_H-M "C C C A"
_symmetry_group_IT_number 68
_space_group.IT_coordinate_system_code '2'
_symmetry_cell_setting 'orthorhombic'
loop_
_space_group_symop_operation_xyz
x,y,z
-x,1/2-y,z
x,1/2-y,1/2-z
-x,y,1/2-z
-x,-y,-z
x,1/2+y,-z
-x,1/2+y,1/2+z
x,-y,1/2+z
1/2+x,1/2+y,z
1/2-x,-y,z
1/2+x,-y,1/2-z
1/2-x,1/2+y,1/2-z
1/2-x,1/2-y,-z
1/2+x,y,-z
1/2-x,y,1/2+z
1/2+x,1/2-y,1/2+z
loop_
_atom_site_type_symbol
_atom_site_label
_atom_site_fract_x
_atom_site_fract_y
_atom_site_fract_z
Si Si1 0.250000 0.000000 0.080729
Si Si2 0.602067 0.158513 0.542416
Si Si3 0.500000 0.676095 0.750000
Si Si4 0.129135 0.587247 0.052206
Si Si5 0.500000 0.130097 0.750000
Si Si6 0.000000 0.250000 0.582075
Si Si7 0.198887 0.415069 0.771912
O O1 0.331041 0.039643 0.151304
O O2 0.157192 0.036580 0.013179
O O3 0.749903 0.130878 0.540675
O O4 0.504006 0.116852 0.487257
O O5 0.542902 0.161919 0.652815
O O6 0.594007 0.213966 0.486635
O O7 0.435683 0.709833 0.661760
O O8 0.379039 0.639711 0.792451
O O9 0.143082 0.571132 0.164847
O O10 0.636709 0.095392 0.771549
#
# Coordination Sequence:
#
# PCOD9509655 Si02
#       7
#     8  16   8  16   8   8  16
#     4  12  24  42  72 100 140 184 226 278 362 396
#     4  11  24  48  70 101 142 179 232 290 338 413
#     4  11  24  47  72 103 135 184 241 285 328 428
#     4  11  25  46  68 102 141 180 228 290 335 417
#     4  10  24  46  66  99 149 170 217 299 346 386
#     4  11  24  43  74 102 132 191 232 277 358 406
#     4  11  24  46  68 101 141 180 229 287 335 418
#
# _framework density 23.689246000000001
#
# number of rings (size 3 to 8) (size 9 to 14) (size 15 to 20)
#    0.000    1.000    4.000    1.800    0.000    2.800 
#    0.000    0.000    0.000    0.000    0.000    0.000 
#    0.000    0.000    0.000    0.000    0.000    0.000 
#
# Total GULP energy -223874.389962 kJ/mol
# GULP energy per Si atom -5596.859749 kJ/mol
# Density = 2.363533 g / cm^3
# Si number density = 23.689246 Si / 1000 Ang^3
#
#
#
# Elastic Constant Matrix: (Units=GPa)
#
#
# Indices 1 2 3 4 5 6 
#
# 1 96.6047 24.1218 14.4481 0.0000 0.0000 0.0000
# 2 24.1218 136.5846 74.7711 0.0000 0.0000 0.0000
# 3 14.4481 74.7711 180.3583 0.0000 0.0000 0.0000
# 4 0.0000 0.0000 0.0000 57.1773 0.0000 0.0000
# 5 0.0000 0.0000 0.0000 0.0000 23.9559 0.0000
# 6 0.0000 0.0000 0.0000 0.0000 0.0000 19.2129
#
#
#
# Elastic Compliance Matrix: (Units=1/GPa)
#
#
# Indices 1 2 3 4 5 6 
#
# 1 0.010830 -0.001860 -0.000097 0.000000 0.000000 0.000000
# 2 -0.001860 0.009790 -0.003910 0.000000 0.000000 0.000000
# 3 -0.000097 -0.003910 0.007173 0.000000 0.000000 0.000000
# 4 0.000000 0.000000 0.000000 0.017489 0.000000 0.000000
# 5 0.000000 0.000000 0.000000 0.000000 0.041743 0.000000
# 6 0.000000 0.000000 0.000000 0.000000 0.000000 0.052048
#
#
# Mechanical properties :
#
#
# Convention : Reuss Voigt Hill
#
# Bulk Modulus (GPa) = 62.26119 71.13659 66.69889
# Shear Modulus (GPa) = 32.01828 40.08301 36.05064
#
# Velocity S-wave (km/s) = 3.68039 4.11790 3.90528
# Velocity P-wave (km/s) = 6.66333 7.25973 6.96791
#
# Compressibility (1/GPa) = 0.01606137
#
# Stress axis : x y z
#
# Youngs Moduli (GPa) = 92.33351 102.14223 139.40933
#
# Poissons Ratio (x) = 0.18997 0.01346
# Poissons Ratio (y) = 0.17173 0.54506
# Poissons Ratio (z) = 0.00892 0.39935
#
# Static dielectric constant tensor:
#      x y z
#    x 1.889750 0.000000 0.000000 
#    y 0.000000 1.903870 0.000000 
#    z 0.000000 0.000000 1.944220 
# 
# From -- ./inp_files/20931.got.cif
#   From: 2010.05.17/outbox.cif.g08.bks.cpg/sg68_11_cif.got.tgz:20931.got - 2010.06.03 18:57:09.
