data_PCOD9509059
_publ_section_title
;
Structure prediction by ZEFSAII (Michael W. Deem and Ramdas Pophale) SiO2 
 PCOD9509059
Probable space group: C C C A
;
_chemical_formula_sum "Si O2"
_cell_formula_units_Z 88
_cell_length_a 15.630583
_cell_length_b 10.349057
_cell_length_c 21.547603
_cell_angle_alpha 90.000000
_cell_angle_beta 90.000000
_cell_angle_gamma 90.000000
_cell_volume 3485.578927
_symmetry_space_group_name_H-M "C C C A"
_symmetry_group_IT_number 68
_space_group.IT_coordinate_system_code '2'
_symmetry_cell_setting 'orthorhombic'
loop_
_space_group_symop_operation_xyz
x,y,z
-x,1/2-y,z
x,1/2-y,1/2-z
-x,y,1/2-z
-x,-y,-z
x,1/2+y,-z
-x,1/2+y,1/2+z
x,-y,1/2+z
1/2+x,1/2+y,z
1/2-x,-y,z
1/2+x,-y,1/2-z
1/2-x,1/2+y,1/2-z
1/2-x,1/2-y,-z
1/2+x,y,-z
1/2-x,y,1/2+z
1/2+x,1/2-y,1/2+z
loop_
_atom_site_type_symbol
_atom_site_label
_atom_site_fract_x
_atom_site_fract_y
_atom_site_fract_z
Si Si1 0.825129 0.853717 0.051299
Si Si2 0.250000 0.500000 0.944178
Si Si3 0.074708 0.506520 0.876600
Si Si4 0.336086 0.887713 0.377930
Si Si5 0.500000 0.750000 0.414032
Si Si6 0.828217 0.906097 0.760154
Si Si7 0.000000 0.750000 0.087876
O O1 0.755682 0.823762 0.105668
O O2 0.913169 0.774413 0.048279
O O3 0.848356 0.000795 0.071409
O O4 0.775554 0.877938 0.987226
O O5 0.166537 0.471937 0.904867
O O6 0.095270 0.566428 0.808691
O O7 0.029132 0.601257 0.927211
O O8 0.018910 0.377193 0.872607
O O9 0.410524 0.786016 0.382374
O O10 0.344138 0.949228 0.310472
O O11 0.811502 0.750000 0.750000
O O12 0.750000 0.000000 0.780237
#
# Coordination Sequence:
#
# PCOD9509059 Si02
#       7
#    16   8  16  16   8  16   8
#     4  10  24  51  73 108 153 203 248 320 378 455
#     4  10  26  52  78 110 148 208 258 308 392 468
#     4  12  28  47  76 115 153 200 260 315 379 462
#     4  10  22  46  74 102 152 200 246 299 383 448
#     4  12  24  48  74 109 147 204 251 315 372 476
#     4  12  25  44  79 112 154 203 253 312 383 463
#     4  12  28  49  75 117 157 190 264 326 384 442
#
# _framework density 25.246883
#
# number of rings (size 3 to 8) (size 9 to 14) (size 15 to 20)
#    0.000    1.091    6.364    0.000    5.091    3.636 
#    3.273    0.909    0.000    0.000    0.000    0.000 
#    0.000    0.000    0.000    0.000    0.000    0.000 
#
# Total GULP energy -245275.543419 kJ/mol
# GULP energy per Si atom -5574.444169 kJ/mol
# Density = 2.518942 g / cm^3
# Si number density = 25.246883 Si / 1000 Ang^3
#
#
#
# Elastic Constant Matrix: (Units=GPa)
#
#
# Indices 1 2 3 4 5 6 
#
# 1 160.1474 27.9325 15.0358 0.0000 0.0000 0.0000
# 2 27.9325 138.1541 22.7941 0.0000 0.0000 0.0000
# 3 15.0358 22.7941 94.6900 0.0000 0.0000 0.0000
# 4 0.0000 0.0000 0.0000 18.4901 0.0000 0.0000
# 5 0.0000 0.0000 0.0000 0.0000 6.5381 0.0000
# 6 0.0000 0.0000 0.0000 0.0000 0.0000 60.3477
#
#
#
# Elastic Compliance Matrix: (Units=1/GPa)
#
#
# Indices 1 2 3 4 5 6 
#
# 1 0.006523 -0.001195 -0.000748 0.000000 0.000000 0.000000
# 2 -0.001195 0.007757 -0.001677 0.000000 0.000000 0.000000
# 3 -0.000748 -0.001677 0.011083 0.000000 0.000000 0.000000
# 4 0.000000 0.000000 0.000000 0.054083 0.000000 0.000000
# 5 0.000000 0.000000 0.000000 0.000000 0.152949 0.000000
# 6 0.000000 0.000000 0.000000 0.000000 0.000000 0.016571
#
#
# Mechanical properties :
#
#
# Convention : Reuss Voigt Hill
#
# Bulk Modulus (GPa) = 55.18346 58.27959 56.73152
# Shear Modulus (GPa) = 19.06592 38.89047 28.97820
#
# Velocity S-wave (km/s) = 2.75103 3.92906 3.39158
# Velocity P-wave (km/s) = 5.65649 6.61191 6.15277
#
# Compressibility (1/GPa) = 0.01812137
#
# Stress axis : x y z
#
# Youngs Moduli (GPa) = 153.30419 128.92001 90.22547
#
# Poissons Ratio (x) = 0.15411 0.06749
# Poissons Ratio (y) = 0.18326 0.15135
# Poissons Ratio (z) = 0.11467 0.21625
#
# Static dielectric constant tensor:
#      x y z
#    x 2.038740 0.000000 0.000000 
#    y 0.000000 2.131520 0.000000 
#    z 0.000000 0.000000 2.018630 
# 
# From -- ./inp_files/45334.got.cif
#   From: 2010.05.17/outbox.cif.g08.bks.cpg/sg68_23_cif.got.tgz:45334.got - 2010.06.03 18:57:09.
