data_PCOD9509762
_publ_section_title
;
Structure prediction by ZEFSAII (Michael W. Deem and Ramdas Pophale) SiO2 
 PCOD9509762
Probable space group: C C C A
;
_chemical_formula_sum "Si O2"
_cell_formula_units_Z 64
_cell_length_a 18.033821
_cell_length_b 13.379360
_cell_length_c 9.009924
_cell_angle_alpha 90.000000
_cell_angle_beta 90.000000
_cell_angle_gamma 90.000000
_cell_volume 2173.923322
_symmetry_space_group_name_H-M "C C C A"
_symmetry_group_IT_number 68
_space_group.IT_coordinate_system_code '2'
_symmetry_cell_setting 'orthorhombic'
loop_
_space_group_symop_operation_xyz
x,y,z
-x,1/2-y,z
x,1/2-y,1/2-z
-x,y,1/2-z
-x,-y,-z
x,1/2+y,-z
-x,1/2+y,1/2+z
x,-y,1/2+z
1/2+x,1/2+y,z
1/2-x,-y,z
1/2+x,-y,1/2-z
1/2-x,1/2+y,1/2-z
1/2-x,1/2-y,-z
1/2+x,y,-z
1/2-x,y,1/2+z
1/2+x,1/2-y,1/2+z
loop_
_atom_site_type_symbol
_atom_site_label
_atom_site_fract_x
_atom_site_fract_y
_atom_site_fract_z
Si Si1 0.544172 0.970146 0.890582
Si Si2 0.933281 0.822826 0.898773
Si Si3 0.148593 0.070327 0.356054
Si Si4 0.692685 0.659667 0.860604
O O1 0.500000 0.928242 0.750000
O O2 0.586565 0.073659 0.777210
O O3 0.521560 0.075064 0.981286
O O4 0.614114 0.927557 0.979369
O O5 0.919547 0.750000 0.750000
O O6 0.781349 0.642320 0.860178
O O7 0.000000 0.750000 0.961817
O O8 0.144052 0.819781 0.506969
O O9 0.170813 0.955110 0.326210
O O10 0.675707 0.750000 0.750000
#
# Coordination Sequence:
#
# PCOD9509762 Si02
#       4
#    16  16  16  16
#     4  11  23  47  80 126 171 233 300 374 456 548
#     4  11  26  49  82 126 182 237 311 395 465 562
#     4  10  24  49  87 127 184 244 309 389 477 561
#     4  10  25  50  85 132 182 248 313 387 478 574
#
# _framework density 29.439858999999998
#
# number of rings (size 3 to 8) (size 9 to 14) (size 15 to 20)
#    0.000    1.500    2.500    0.000    0.000   14.000 
#    0.000    0.000    5.500    2.250    0.000    8.750 
#    0.000    0.000    0.000    0.000    0.000    0.000 
#
# Total GULP energy -178668.118648 kJ/mol
# GULP energy per Si atom -5583.378708 kJ/mol
# Density = 2.937285 g / cm^3
# Si number density = 29.439859 Si / 1000 Ang^3
#
#
#
# Elastic Constant Matrix: (Units=GPa)
#
#
# Indices 1 2 3 4 5 6 
#
# 1 183.6432 74.5905 110.4784 0.0000 0.0000 0.0000
# 2 74.5905 221.1391 74.0066 0.0000 0.0000 0.0000
# 3 110.4784 74.0066 274.9921 0.0000 0.0000 0.0000
# 4 0.0000 0.0000 0.0000 52.8007 0.0000 0.0000
# 5 0.0000 0.0000 0.0000 0.0000 57.9346 0.0000
# 6 0.0000 0.0000 0.0000 0.0000 0.0000 81.7502
#
#
#
# Elastic Compliance Matrix: (Units=1/GPa)
#
#
# Indices 1 2 3 4 5 6 
#
# 1 0.007736 -0.001725 -0.002644 0.000000 0.000000 0.000000
# 2 -0.001725 0.005354 -0.000748 0.000000 0.000000 0.000000
# 3 -0.002644 -0.000748 0.004900 0.000000 0.000000 0.000000
# 4 0.000000 0.000000 0.000000 0.018939 0.000000 0.000000
# 5 0.000000 0.000000 0.000000 0.000000 0.017261 0.000000
# 6 0.000000 0.000000 0.000000 0.000000 0.000000 0.012232
#
#
# Mechanical properties :
#
#
# Convention : Reuss Voigt Hill
#
# Bulk Modulus (GPa) = 128.91241 133.10284 131.00763
# Shear Modulus (GPa) = 63.09782 66.54370 64.82076
#
# Velocity S-wave (km/s) = 4.63458 4.75945 4.69743
# Velocity P-wave (km/s) = 8.51602 8.68982 8.60336
#
# Compressibility (1/GPa) = 0.00775720
#
# Stress axis : x y z
#
# Youngs Moduli (GPa) = 129.25814 186.77240 204.08163
#
# Poissons Ratio (x) = 0.32212 0.53959
# Poissons Ratio (y) = 0.22293 0.15266
# Poissons Ratio (z) = 0.34176 0.13971
#
# Static dielectric constant tensor:
#      x y z
#    x 2.435710 0.000000 0.000000 
#    y 0.000000 2.803420 0.000000 
#    z 0.000000 0.000000 2.364260 
# 
# From -- ./inp_files/23281.got.cif
#   From: 2010.05.17/outbox.cif.g08.bks.cpg/sg68_12_cif.got.tgz:23281.got - 2010.06.03 18:57:09.
