data_PCOD9509617
_publ_section_title
;
Structure prediction by ZEFSAII (Michael W. Deem and Ramdas Pophale) SiO2 
 PCOD9509617
Probable space group: C C C A
;
_chemical_formula_sum "Si O2"
_cell_formula_units_Z 96
_cell_length_a 15.027340
_cell_length_b 18.350612
_cell_length_c 16.574254
_cell_angle_alpha 90.000000
_cell_angle_beta 90.000000
_cell_angle_gamma 90.000000
_cell_volume 4570.530963
_symmetry_space_group_name_H-M "C C C A"
_symmetry_group_IT_number 68
_space_group.IT_coordinate_system_code '2'
_symmetry_cell_setting 'orthorhombic'
loop_
_space_group_symop_operation_xyz
x,y,z
-x,1/2-y,z
x,1/2-y,1/2-z
-x,y,1/2-z
-x,-y,-z
x,1/2+y,-z
-x,1/2+y,1/2+z
x,-y,1/2+z
1/2+x,1/2+y,z
1/2-x,-y,z
1/2+x,-y,1/2-z
1/2-x,1/2+y,1/2-z
1/2-x,1/2-y,-z
1/2+x,y,-z
1/2-x,y,1/2+z
1/2+x,1/2-y,1/2+z
loop_
_atom_site_type_symbol
_atom_site_label
_atom_site_fract_x
_atom_site_fract_y
_atom_site_fract_z
Si Si1 0.750000 0.500000 0.797249
Si Si2 0.078552 0.511211 0.814802
Si Si3 0.000000 0.750000 0.524295
Si Si4 0.035346 0.360103 0.881991
Si Si5 0.331683 0.628275 0.600021
Si Si6 0.795813 0.780164 0.336177
Si Si7 0.862295 0.858283 0.916200
O O1 0.833101 0.510409 0.738676
O O2 0.727079 0.569675 0.852991
O O3 0.071325 0.441949 0.874397
O O4 0.080024 0.584083 0.866988
O O5 0.000000 0.507690 0.750000
O O6 0.033881 0.684039 0.466571
O O7 0.080627 0.784459 0.573625
O O8 0.104486 0.312555 0.829987
O O9 0.930828 0.366401 0.860891
O O10 0.295269 0.710185 0.605813
O O11 0.342968 0.611127 0.505691
O O12 0.766793 0.750000 0.250000
O O13 0.729200 0.840118 0.370848
#
# Coordination Sequence:
#
# PCOD9509617 Si02
#       7
#     8  16   8  16  16  16  16
#     4  12  26  48  68 106 142 186 242 286 372 422
#     4  12  26  46  71 105 147 189 228 295 359 437
#     4  10  24  44  74 102 136 186 238 300 348 420
#     4  11  22  44  71 100 134 179 242 292 353 408
#     4  11  24  45  70 103 136 188 240 302 352 422
#     4  12  24  41  73 102 141 184 239 302 357 416
#     4  11  26  47  66 108 143 189 239 283 365 430
#
# _framework density 21.004124000000001
#
# number of rings (size 3 to 8) (size 9 to 14) (size 15 to 20)
#    0.000    0.667    5.000    3.500    0.000    8.000 
#    3.000    0.000    0.000    0.000    0.000    0.000 
#    0.000    0.000    0.000    0.000    0.000    0.000 
#
# Total GULP energy -268265.128251 kJ/mol
# GULP energy per Si atom -5588.856839 kJ/mol
# Density = 2.095632 g / cm^3
# Si number density = 21.004124 Si / 1000 Ang^3
#
#
#
# Elastic Constant Matrix: (Units=GPa)
#
#
# Indices 1 2 3 4 5 6 
#
# 1 106.5183 35.4918 30.6172 0.0000 0.0000 0.0000
# 2 35.4918 116.3900 22.2564 0.0000 0.0000 0.0000
# 3 30.6172 22.2564 78.6742 0.0000 0.0000 0.0000
# 4 0.0000 0.0000 0.0000 31.9865 0.0000 0.0000
# 5 0.0000 0.0000 0.0000 0.0000 46.3755 0.0000
# 6 0.0000 0.0000 0.0000 0.0000 0.0000 39.5885
#
#
#
# Elastic Compliance Matrix: (Units=1/GPa)
#
#
# Indices 1 2 3 4 5 6 
#
# 1 0.011355 -0.002767 -0.003636 0.000000 0.000000 0.000000
# 2 -0.002767 0.009758 -0.001683 0.000000 0.000000 0.000000
# 3 -0.003636 -0.001683 0.014602 0.000000 0.000000 0.000000
# 4 0.000000 0.000000 0.000000 0.031263 0.000000 0.000000
# 5 0.000000 0.000000 0.000000 0.000000 0.021563 0.000000
# 6 0.000000 0.000000 0.000000 0.000000 0.000000 0.025260
#
#
# Mechanical properties :
#
#
# Convention : Reuss Voigt Hill
#
# Bulk Modulus (GPa) = 51.17465 53.14591 52.16028
# Shear Modulus (GPa) = 36.63312 37.80459 37.21886
#
# Velocity S-wave (km/s) = 4.18076 4.24708 4.21405
# Velocity P-wave (km/s) = 6.90811 7.02907 6.96885
#
# Compressibility (1/GPa) = 0.01954093
#
# Stress axis : x y z
#
# Youngs Moduli (GPa) = 88.06454 102.48450 68.48396
#
# Poissons Ratio (x) = 0.28361 0.24902
# Poissons Ratio (y) = 0.24370 0.11529
# Poissons Ratio (z) = 0.32022 0.17252
#
# Static dielectric constant tensor:
#      x y z
#    x 1.752210 0.000000 0.000000 
#    y 0.000000 1.748700 0.000000 
#    z 0.000000 0.000000 1.771120 
# 
# From -- ./inp_files/22440.got.cif
#   From: 2010.05.17/outbox.cif.g08.bks.cpg/sg68_12_cif.got.tgz:22440.got - 2010.06.03 18:57:09.
