data_PCOD9509621
_publ_section_title
;
Structure prediction by ZEFSAII (Michael W. Deem and Ramdas Pophale) SiO2 
 PCOD9509621
Probable space group: C C C A
;
_chemical_formula_sum "Si O2"
_cell_formula_units_Z 64
_cell_length_a 14.976161
_cell_length_b 17.770123
_cell_length_c 10.360361
_cell_angle_alpha 90.000000
_cell_angle_beta 90.000000
_cell_angle_gamma 90.000000
_cell_volume 2757.184463
_symmetry_space_group_name_H-M "C C C A"
_symmetry_group_IT_number 68
_space_group.IT_coordinate_system_code '2'
_symmetry_cell_setting 'orthorhombic'
loop_
_space_group_symop_operation_xyz
x,y,z
-x,1/2-y,z
x,1/2-y,1/2-z
-x,y,1/2-z
-x,-y,-z
x,1/2+y,-z
-x,1/2+y,1/2+z
x,-y,1/2+z
1/2+x,1/2+y,z
1/2-x,-y,z
1/2+x,-y,1/2-z
1/2-x,1/2+y,1/2-z
1/2-x,1/2-y,-z
1/2+x,y,-z
1/2-x,y,1/2+z
1/2+x,1/2-y,1/2+z
loop_
_atom_site_type_symbol
_atom_site_label
_atom_site_fract_x
_atom_site_fract_y
_atom_site_fract_z
Si Si1 0.103883 0.934373 0.453763
Si Si2 0.219819 0.663927 0.501375
Si Si3 0.470136 0.337022 0.609626
Si Si4 0.657923 0.043912 0.320837
O O1 0.195838 0.886706 0.461350
O O2 0.098420 0.959127 0.306292
O O3 0.023568 0.882588 0.501657
O O4 0.116279 0.001510 0.555829
O O5 0.250000 0.750000 0.500000
O O6 0.135819 0.657271 0.596404
O O7 0.183658 0.628206 0.367002
O O8 0.500000 0.250000 0.598572
O O9 0.500000 0.364373 0.750000
O O10 0.750000 0.000000 0.290713
#
# Coordination Sequence:
#
# PCOD9509621 Si02
#       4
#    16  16  16  16
#     4  11  25  48  72 107 152 190 250 312 371 459
#     4  11  24  45  75 106 146 201 246 308 370 444
#     4  11  26  46  73 109 150 195 251 306 382 451
#     4  10  24  44  74 108 149 196 248 301 388 441
#
# _framework density 23.212084000000001
#
# number of rings (size 3 to 8) (size 9 to 14) (size 15 to 20)
#    0.000    1.250    2.500    2.250   10.500    3.000 
#    0.000    1.250    0.000    0.000    0.000    0.000 
#    0.000    0.000    0.000    0.000    0.000    0.000 
#
# Total GULP energy -179375.375068 kJ/mol
# GULP energy per Si atom -5605.480471 kJ/mol
# Density = 2.315925 g / cm^3
# Si number density = 23.212084 Si / 1000 Ang^3
#
#
#
# Elastic Constant Matrix: (Units=GPa)
#
#
# Indices 1 2 3 4 5 6 
#
# 1 160.2512 49.1132 52.8588 0.0000 0.0000 0.0000
# 2 49.1132 147.1504 80.8353 0.0000 0.0000 0.0000
# 3 52.8588 80.8353 171.7831 0.0000 0.0000 0.0000
# 4 0.0000 0.0000 0.0000 19.0867 0.0000 0.0000
# 5 0.0000 0.0000 0.0000 0.0000 28.6686 0.0000
# 6 0.0000 0.0000 0.0000 0.0000 0.0000 44.0443
#
#
#
# Elastic Compliance Matrix: (Units=1/GPa)
#
#
# Indices 1 2 3 4 5 6 
#
# 1 0.007215 -0.001603 -0.001466 0.000000 0.000000 0.000000
# 2 -0.001603 0.009521 -0.003987 0.000000 0.000000 0.000000
# 3 -0.001466 -0.003987 0.008149 0.000000 0.000000 0.000000
# 4 0.000000 0.000000 0.000000 0.052393 0.000000 0.000000
# 5 0.000000 0.000000 0.000000 0.000000 0.034881 0.000000
# 6 0.000000 0.000000 0.000000 0.000000 0.000000 0.022704
#
#
# Mechanical properties :
#
#
# Convention : Reuss Voigt Hill
#
# Bulk Modulus (GPa) = 92.82482 93.86659 93.34570
# Shear Modulus (GPa) = 32.77288 38.11841 35.44564
#
# Velocity S-wave (km/s) = 3.76159 4.05678 3.91197
# Velocity P-wave (km/s) = 7.67742 7.90378 7.79142
#
# Compressibility (1/GPa) = 0.01077298
#
# Stress axis : x y z
#
# Youngs Moduli (GPa) = 138.60124 105.03136 122.72174
#
# Poissons Ratio (x) = 0.16835 0.17989
# Poissons Ratio (y) = 0.22215 0.48930
# Poissons Ratio (z) = 0.20317 0.41876
#
# Static dielectric constant tensor:
#      x y z
#    x 1.848020 0.000000 0.000000 
#    y 0.000000 1.864370 0.000000 
#    z 0.000000 0.000000 1.857770 
# 
# From -- ./inp_files/12804.got.cif
#   From: 2010.05.17/outbox.cif.g08.bks.cpg/sg68_7_cif.got.tgz:12804.got - 2010.06.03 18:57:09.
