data_PCOD9509397
_publ_section_title
;
Structure prediction by ZEFSAII (Michael W. Deem and Ramdas Pophale) SiO2 
 PCOD9509397
Probable space group: C C C A
;
_chemical_formula_sum "Si O2"
_cell_formula_units_Z 44
_cell_length_a 14.384001
_cell_length_b 4.872275
_cell_length_c 27.735533
_cell_angle_alpha 90.000000
_cell_angle_beta 90.000000
_cell_angle_gamma 90.000000
_cell_volume 1943.784047
_symmetry_space_group_name_H-M "C C C A"
_symmetry_group_IT_number 68
_space_group.IT_coordinate_system_code '2'
_symmetry_cell_setting 'orthorhombic'
loop_
_space_group_symop_operation_xyz
x,y,z
-x,1/2-y,z
x,1/2-y,1/2-z
-x,y,1/2-z
-x,-y,-z
x,1/2+y,-z
-x,1/2+y,1/2+z
x,-y,1/2+z
1/2+x,1/2+y,z
1/2-x,-y,z
1/2+x,-y,1/2-z
1/2-x,1/2+y,1/2-z
1/2-x,1/2-y,-z
1/2+x,y,-z
1/2-x,y,1/2+z
1/2+x,1/2-y,1/2+z
loop_
_atom_site_type_symbol
_atom_site_label
_atom_site_fract_x
_atom_site_fract_y
_atom_site_fract_z
Si Si1 0.500000 0.250000 0.462177
Si Si2 0.354530 0.028848 0.610846
Si Si3 0.500000 0.750000 0.750000
Si Si4 0.855484 0.461475 0.821431
O O1 0.500000 0.500000 0.500000
O O2 0.576977 0.121968 0.425865
O O3 0.356742 0.844938 0.658184
O O4 0.250000 0.000000 0.590409
O O5 0.371980 0.332813 0.632701
O O6 0.434613 0.948786 0.781838
O O7 0.750000 0.500000 0.803263
#
# Coordination Sequence:
#
# PCOD9509397 Si02
#       4
#     8  16   4  16
#     4  12  25  40  68 105 130 163 226 282 333 408
#     4  10  23  46  67  91 136 181 216 270 341 403
#     4  12  26  42  72 104 140 178 228 294 334 372
#     4  10  24  44  68  98 135 182 230 272 331 406
#
# _framework density 22.63626
#
# number of rings (size 3 to 8) (size 9 to 14) (size 15 to 20)
#    0.000    1.455    0.000    3.273    0.000   13.091 
#    0.000    3.636    0.000    0.000    0.000    0.000 
#    0.000    0.000    0.000    0.000    0.000    0.000 
#
# Total GULP energy -122602.390232 kJ/mol
# GULP energy per Si atom -5572.835920 kJ/mol
# Density = 2.258474 g / cm^3
# Si number density = 22.636260 Si / 1000 Ang^3
#
#
#
# Elastic Constant Matrix: (Units=GPa)
#
#
# Indices 1 2 3 4 5 6 
#
# 1 192.9512 33.6471 112.9548 0.0000 0.0000 0.0000
# 2 33.6471 126.6286 22.9541 0.0000 0.0000 0.0000
# 3 112.9548 22.9541 89.2253 0.0000 0.0000 0.0000
# 4 0.0000 0.0000 0.0000 111.9654 0.0000 0.0000
# 5 0.0000 0.0000 0.0000 0.0000 -69.9545 0.0000
# 6 0.0000 0.0000 0.0000 0.0000 0.0000 34.1427
#
#
#
# Elastic Compliance Matrix: (Units=1/GPa)
#
#
# Indices 1 2 3 4 5 6 
#
# 1 0.020088 -0.000763 -0.025234 0.000000 0.000000 0.000000
# 2 -0.000763 0.008312 -0.001172 0.000000 0.000000 0.000000
# 3 -0.025234 -0.001172 0.043454 0.000000 0.000000 0.000000
# 4 0.000000 0.000000 0.000000 0.008931 0.000000 0.000000
# 5 0.000000 0.000000 0.000000 0.000000 -0.014295 0.000000
# 6 0.000000 0.000000 0.000000 0.000000 0.000000 0.029289
#
#
# Mechanical properties :
#
#
# Convention : Reuss Voigt Hill
#
# Bulk Modulus (GPa) = 57.09174 83.10188 70.09681
# Shear Modulus (GPa) = 32.06039 31.18066 31.62053
#
# Velocity S-wave (km/s) = 3.76750 3.71545 3.74156
# Velocity P-wave (km/s) = 6.64842 7.42951 7.04979
#
# Compressibility (1/GPa) = 0.01751567
#
# Stress axis : x y z
#
# Youngs Moduli (GPa) = 49.78159 120.30202 23.01302
#
# Poissons Ratio (x) = 0.09185 0.58070
# Poissons Ratio (y) = 0.03801 0.02697
# Poissons Ratio (z) = 1.25617 0.14098
#
# Static dielectric constant tensor:
#      x y z
#    x 2.158300 0.000000 0.000000 
#    y 0.000000 1.801010 0.000000 
#    z 0.000000 0.000000 1.939140 
# 
# From -- ./inp_files/47792.got.cif
#   From: 2010.05.17/outbox.cif.g08.bks.cpg/sg68_24_cif.got.tgz:47792.got - 2010.06.03 18:57:09.
