data_PCOD9509246
_publ_section_title
;
Structure prediction by ZEFSAII (Michael W. Deem and Ramdas Pophale) SiO2 
 PCOD9509246
Probable space group: C C C A
;
_chemical_formula_sum "Si O2"
_cell_formula_units_Z 60
_cell_length_a 30.373642
_cell_length_b 10.568111
_cell_length_c 8.990601
_cell_angle_alpha 90.000000
_cell_angle_beta 90.000000
_cell_angle_gamma 90.000000
_cell_volume 2885.911177
_symmetry_space_group_name_H-M "C C C A"
_symmetry_group_IT_number 68
_space_group.IT_coordinate_system_code '2'
_symmetry_cell_setting 'orthorhombic'
loop_
_space_group_symop_operation_xyz
x,y,z
-x,1/2-y,z
x,1/2-y,1/2-z
-x,y,1/2-z
-x,-y,-z
x,1/2+y,-z
-x,1/2+y,1/2+z
x,-y,1/2+z
1/2+x,1/2+y,z
1/2-x,-y,z
1/2+x,-y,1/2-z
1/2-x,1/2+y,1/2-z
1/2-x,1/2-y,-z
1/2+x,y,-z
1/2-x,y,1/2+z
1/2+x,1/2-y,1/2+z
loop_
_atom_site_type_symbol
_atom_site_label
_atom_site_fract_x
_atom_site_fract_y
_atom_site_fract_z
Si Si1 0.080896 0.143945 0.419400
Si Si2 0.113615 0.578548 0.899917
Si Si3 0.255205 0.250000 0.250000
Si Si4 0.000000 0.250000 0.250000
Si Si5 0.210127 0.403208 0.500513
O O1 0.109379 0.096201 0.277202
O O2 0.099026 0.283361 0.462949
O O3 0.032374 0.167697 0.352749
O O4 0.083784 0.036897 0.543489
O O5 0.162570 0.548279 0.955810
O O6 0.223035 0.297867 0.379228
O O7 0.286303 0.149310 0.332215
O O8 0.250000 0.500000 0.486728
#
# Coordination Sequence:
#
# PCOD9509246 Si02
#       5
#    16  16   8   4  16
#     4  10  23  42  68  94 127 162 201 268 313 389
#     4  10  24  40  63  94 128 163 213 256 318 361
#     4  10  24  39  56  84 116 176 212 260 305 352
#     4   8  20  46  68  96 128 156 204 256 334 380
#     4  11  24  38  59  84 123 168 213 259 301 366
#
# _framework density 20.790659999999999
#
# number of rings (size 3 to 8) (size 9 to 14) (size 15 to 20)
#    0.000    2.133    0.000    2.400   14.933    5.333 
#    0.000    0.000    0.000   12.800    0.000    0.000 
#    0.000    0.000    0.000    0.000    0.000    0.000 
#
# Total GULP energy -167467.290958 kJ/mol
# GULP energy per Si atom -5582.243032 kJ/mol
# Density = 2.074334 g / cm^3
# Si number density = 20.790660 Si / 1000 Ang^3
#
#
#
# Elastic Constant Matrix: (Units=GPa)
#
#
# Indices 1 2 3 4 5 6 
#
# 1 125.2194 13.7678 10.6509 0.0000 0.0000 0.0000
# 2 13.7678 92.7375 19.9156 0.0000 0.0000 0.0000
# 3 10.6509 19.9156 46.7984 0.0000 0.0000 0.0000
# 4 0.0000 0.0000 0.0000 19.6305 0.0000 0.0000
# 5 0.0000 0.0000 0.0000 0.0000 -10.6267 0.0000
# 6 0.0000 0.0000 0.0000 0.0000 0.0000 46.0490
#
#
#
# Elastic Compliance Matrix: (Units=1/GPa)
#
#
# Indices 1 2 3 4 5 6 
#
# 1 0.008211 -0.000900 -0.001486 0.000000 0.000000 0.000000
# 2 -0.000900 0.011966 -0.004888 0.000000 0.000000 0.000000
# 3 -0.001486 -0.004888 0.023786 0.000000 0.000000 0.000000
# 4 0.000000 0.000000 0.000000 0.050941 0.000000 0.000000
# 5 0.000000 0.000000 0.000000 0.000000 -0.094102 0.000000
# 6 0.000000 0.000000 0.000000 0.000000 0.000000 0.021716
#
#
# Mechanical properties :
#
#
# Convention : Reuss Voigt Hill
#
# Bulk Modulus (GPa) = 33.99365 39.26933 36.63149
# Shear Modulus (GPa) = 106.67509 25.70529 66.19019
#
# Velocity S-wave (km/s) = 7.17081 3.52004 5.64851
# Velocity P-wave (km/s) = 9.21665 5.95398 7.75875
#
# Compressibility (1/GPa) = 0.02941726
#
# Stress axis : x y z
#
# Youngs Moduli (GPa) = 121.78321 83.56761 42.04084
#
# Poissons Ratio (x) = 0.07521 0.06247
# Poissons Ratio (y) = 0.10960 0.20548
# Poissons Ratio (z) = 0.18095 0.40845
#
# Static dielectric constant tensor:
#      x y z
#    x 1.795850 0.000000 0.000000 
#    y 0.000000 1.851730 0.000000 
#    z 0.000000 0.000000 1.764190 
# 
# From -- ./inp_files/3935.got.cif
#   From: 2010.05.17/outbox.cif.g08.bks.cpg/sg68_2_cif.got.tgz:3935.got - 2010.06.03 18:57:09.
