data_PCOD9509832
_publ_section_title
;
Structure prediction by ZEFSAII (Michael W. Deem and Ramdas Pophale) SiO2 
 PCOD9509832
Probable space group: C C C A
;
_chemical_formula_sum "Si O2"
_cell_formula_units_Z 120
_cell_length_a 20.590888
_cell_length_b 11.820159
_cell_length_c 22.882162
_cell_angle_alpha 90.000000
_cell_angle_beta 90.000000
_cell_angle_gamma 90.000000
_cell_volume 5569.233808
_symmetry_space_group_name_H-M "C C C A"
_symmetry_group_IT_number 68
_space_group.IT_coordinate_system_code '2'
_symmetry_cell_setting 'orthorhombic'
loop_
_space_group_symop_operation_xyz
x,y,z
-x,1/2-y,z
x,1/2-y,1/2-z
-x,y,1/2-z
-x,-y,-z
x,1/2+y,-z
-x,1/2+y,1/2+z
x,-y,1/2+z
1/2+x,1/2+y,z
1/2-x,-y,z
1/2+x,-y,1/2-z
1/2-x,1/2+y,1/2-z
1/2-x,1/2-y,-z
1/2+x,y,-z
1/2-x,y,1/2+z
1/2+x,1/2-y,1/2+z
loop_
_atom_site_type_symbol
_atom_site_label
_atom_site_fract_x
_atom_site_fract_y
_atom_site_fract_z
Si Si1 0.750000 0.500000 0.518436
Si Si2 0.911984 0.339710 0.193739
Si Si3 0.477887 0.883056 0.537514
Si Si4 0.357829 0.491034 0.219028
Si Si5 0.969912 0.968988 0.633940
Si Si6 0.797704 0.297992 0.098435
Si Si7 0.364678 0.397154 0.536626
Si Si8 0.748370 0.827737 0.198392
O O1 0.768140 0.599106 0.563436
O O2 0.687791 0.506851 0.475444
O O3 0.919953 0.250000 0.250000
O O4 0.879648 0.451260 0.221522
O O5 0.860130 0.309633 0.142687
O O6 0.979466 0.379268 0.162427
O O7 0.500000 0.750000 0.525466
O O8 0.402558 0.880642 0.523503
O O9 0.500000 0.000000 0.500000
O O10 0.495271 0.927322 0.601352
O O11 0.422939 0.481953 0.182811
O O12 0.307191 0.578376 0.188246
O O13 0.314268 0.380974 0.222208
O O14 0.919270 0.914431 0.586779
O O15 0.822877 0.210860 0.051095
O O16 0.743754 0.242102 0.139891
O O17 0.721948 0.750000 0.250000
#
# Coordination Sequence:
#
# PCOD9509832 Si02
#       8
#     8  16  16  16  16  16  16  16
#     4  12  30  44  70 104 146 184 266 304 378 452
#     4  12  24  45  74 114 142 184 253 312 378 460
#     4  10  25  48  75 104 149 198 256 310 380 446
#     4  11  23  42  68 105 143 178 236 293 375 454
#     4  11  25  43  72 104 143 194 241 311 380 447
#     4  12  25  44  73 103 137 192 239 311 375 440
#     4  11  26  45  68 103 141 195 243 317 360 443
#     4  11  23  43  69 104 139 187 229 296 372 454
#
# _framework density 21.546949999999999
#
# number of rings (size 3 to 8) (size 9 to 14) (size 15 to 20)
#    0.000    0.800    4.000    1.600   11.200    4.800 
#    2.400    0.000    0.000    0.000    0.000    0.000 
#    0.000    0.000    0.000    0.000    0.000    0.000 
#
# Total GULP energy -334138.924430 kJ/mol
# GULP energy per Si atom -5568.982074 kJ/mol
# Density = 2.149791 g / cm^3
# Si number density = 21.546950 Si / 1000 Ang^3
#
#
#
# Elastic Constant Matrix: (Units=GPa)
#
#
# Indices 1 2 3 4 5 6 
#
# 1 75.8041 27.7297 31.4824 0.0000 0.0000 0.0000
# 2 27.7297 100.2178 43.8748 0.0000 0.0000 0.0000
# 3 31.4824 43.8748 60.8355 0.0000 0.0000 0.0000
# 4 0.0000 0.0000 0.0000 41.7241 0.0000 0.0000
# 5 0.0000 0.0000 0.0000 0.0000 21.3123 0.0000
# 6 0.0000 0.0000 0.0000 0.0000 0.0000 -3.9075
#
#
#
# Elastic Compliance Matrix: (Units=1/GPa)
#
#
# Indices 1 2 3 4 5 6 
#
# 1 0.016908 -0.001239 -0.007856 0.000000 0.000000 0.000000
# 2 -0.001239 0.014673 -0.009941 0.000000 0.000000 0.000000
# 3 -0.007856 -0.009941 0.027673 0.000000 0.000000 0.000000
# 4 0.000000 0.000000 0.000000 0.023967 0.000000 0.000000
# 5 0.000000 0.000000 0.000000 0.000000 0.046921 0.000000
# 6 0.000000 0.000000 0.000000 0.000000 0.000000 -0.255921
#
#
# Mechanical properties :
#
#
# Convention : Reuss Voigt Hill
#
# Bulk Modulus (GPa) = 47.21153 49.22568 48.21861
# Shear Modulus (GPa) = -62.00043 20.74382 -20.62830
#
# Velocity S-wave (km/s) = -5.37001 3.10615 -3.09749
# Velocity P-wave (km/s) = 4.06089 5.97993 3.10393
#
# Compressibility (1/GPa) = 0.02118126
#
# Stress axis : x y z
#
# Youngs Moduli (GPa) = 59.14375 68.15094 36.13603
#
# Poissons Ratio (x) = 0.08443 0.28390
# Poissons Ratio (y) = 0.07327 0.35924
# Poissons Ratio (z) = 0.46466 0.67751
#
# Static dielectric constant tensor:
#      x y z
#    x 1.752100 0.000000 0.000000 
#    y 0.000000 2.016160 0.000000 
#    z 0.000000 0.000000 1.895580 
# 
# From -- ./inp_files/46716.got.cif
#   From: 2010.05.17/outbox.cif.g08.bks.cpg/sg68_24_cif.got.tgz:46716.got - 2010.06.03 18:57:09.
