data_PCOD9509187
_publ_section_title
;
Structure prediction by ZEFSAII (Michael W. Deem and Ramdas Pophale) SiO2 
 PCOD9509187
Probable space group: C C C A
;
_chemical_formula_sum "Si O2"
_cell_formula_units_Z 64
_cell_length_a 8.145867
_cell_length_b 19.071574
_cell_length_c 17.383694
_cell_angle_alpha 90.000000
_cell_angle_beta 90.000000
_cell_angle_gamma 90.000000
_cell_volume 2700.635181
_symmetry_space_group_name_H-M "C C C A"
_symmetry_group_IT_number 68
_space_group.IT_coordinate_system_code '2'
_symmetry_cell_setting 'orthorhombic'
loop_
_space_group_symop_operation_xyz
x,y,z
-x,1/2-y,z
x,1/2-y,1/2-z
-x,y,1/2-z
-x,-y,-z
x,1/2+y,-z
-x,1/2+y,1/2+z
x,-y,1/2+z
1/2+x,1/2+y,z
1/2-x,-y,z
1/2+x,-y,1/2-z
1/2-x,1/2+y,1/2-z
1/2-x,1/2-y,-z
1/2+x,y,-z
1/2-x,y,1/2+z
1/2+x,1/2-y,1/2+z
loop_
_atom_site_type_symbol
_atom_site_label
_atom_site_fract_x
_atom_site_fract_y
_atom_site_fract_z
Si Si1 0.901781 0.636786 0.472745
Si Si2 0.697087 0.924301 0.896429
Si Si3 0.122582 0.809317 0.886918
Si Si4 0.694001 0.334613 0.245889
O O1 0.781749 0.587402 0.521182
O O2 0.802958 0.698666 0.428452
O O3 0.007101 0.590994 0.413742
O O4 0.018135 0.665198 0.539951
O O5 0.751777 0.866360 0.834724
O O6 0.750000 0.000000 0.867393
O O7 0.184300 0.856424 0.815308
O O8 0.000000 0.750000 0.855403
O O9 0.697995 0.250000 0.250000
O O10 0.500000 0.354156 0.250000
#
# Coordination Sequence:
#
# PCOD9509187 Si02
#       4
#    16  16  16  16
#     4  10  23  41  66 103 137 180 242 308 357 440
#     4  11  23  45  69 100 140 193 242 301 373 443
#     4  11  22  41  67 100 137 185 237 294 369 435
#     4  11  24  44  66  98 145 189 236 300 364 435
#
# _framework density 23.698129999999999
#
# number of rings (size 3 to 8) (size 9 to 14) (size 15 to 20)
#    0.000    1.250    2.500    3.000    0.000    5.500 
#    4.500    1.250    0.000    0.000    0.000    0.000 
#    0.000    0.000    0.000    0.000    0.000    0.000 
#
# Total GULP energy -178323.999410 kJ/mol
# GULP energy per Si atom -5572.624982 kJ/mol
# Density = 2.364419 g / cm^3
# Si number density = 23.698130 Si / 1000 Ang^3
#
#
#
# Elastic Constant Matrix: (Units=GPa)
#
#
# Indices 1 2 3 4 5 6 
#
# 1 143.0213 43.7667 48.4873 0.0000 0.0000 0.0000
# 2 43.7667 81.0018 41.5621 0.0000 0.0000 0.0000
# 3 48.4873 41.5621 134.5479 0.0000 0.0000 0.0000
# 4 0.0000 0.0000 0.0000 22.5335 0.0000 0.0000
# 5 0.0000 0.0000 0.0000 0.0000 46.0458 0.0000
# 6 0.0000 0.0000 0.0000 0.0000 0.0000 16.6473
#
#
#
# Elastic Compliance Matrix: (Units=1/GPa)
#
#
# Indices 1 2 3 4 5 6 
#
# 1 0.008819 -0.003725 -0.002028 0.000000 0.000000 0.000000
# 2 -0.003725 0.016244 -0.003675 0.000000 0.000000 0.000000
# 3 -0.002028 -0.003675 0.009298 0.000000 0.000000 0.000000
# 4 0.000000 0.000000 0.000000 0.044378 0.000000 0.000000
# 5 0.000000 0.000000 0.000000 0.000000 0.021718 0.000000
# 6 0.000000 0.000000 0.000000 0.000000 0.000000 0.060070
#
#
# Mechanical properties :
#
#
# Convention : Reuss Voigt Hill
#
# Bulk Modulus (GPa) = 64.49237 69.57813 67.03525
# Shear Modulus (GPa) = 27.09274 32.02898 29.56086
#
# Velocity S-wave (km/s) = 3.38486 3.68032 3.53568
# Velocity P-wave (km/s) = 6.52300 6.89083 6.70944
#
# Compressibility (1/GPa) = 0.01550571
#
# Stress axis : x y z
#
# Youngs Moduli (GPa) = 113.38883 61.56170 107.54608
#
# Poissons Ratio (x) = 0.22931 0.21806
# Poissons Ratio (y) = 0.42235 0.39528
# Poissons Ratio (z) = 0.22991 0.22627
#
# Static dielectric constant tensor:
#      x y z
#    x 1.984350 0.000000 0.000000 
#    y 0.000000 1.940060 0.000000 
#    z 0.000000 0.000000 1.926610 
# 
# From -- ./inp_files/27862.got.cif
#   From: 2010.05.17/outbox.cif.g08.bks.cpg/sg68_14_cif.got.tgz:27862.got - 2010.06.03 18:57:09.
