data_PCOD9509815
_publ_section_title
;
Structure prediction by ZEFSAII (Michael W. Deem and Ramdas Pophale) SiO2 
 PCOD9509815
Probable space group: C C C A
;
_chemical_formula_sum "Si O2"
_cell_formula_units_Z 44
_cell_length_a 4.887002
_cell_length_b 20.226780
_cell_length_c 18.060300
_cell_angle_alpha 90.000000
_cell_angle_beta 90.000000
_cell_angle_gamma 90.000000
_cell_volume 1785.230211
_symmetry_space_group_name_H-M "C C C A"
_symmetry_group_IT_number 68
_space_group.IT_coordinate_system_code '2'
_symmetry_cell_setting 'orthorhombic'
loop_
_space_group_symop_operation_xyz
x,y,z
-x,1/2-y,z
x,1/2-y,1/2-z
-x,y,1/2-z
-x,-y,-z
x,1/2+y,-z
-x,1/2+y,1/2+z
x,-y,1/2+z
1/2+x,1/2+y,z
1/2-x,-y,z
1/2+x,-y,1/2-z
1/2-x,1/2+y,1/2-z
1/2-x,1/2-y,-z
1/2+x,y,-z
1/2-x,y,1/2+z
1/2+x,1/2-y,1/2+z
loop_
_atom_site_type_symbol
_atom_site_label
_atom_site_fract_x
_atom_site_fract_y
_atom_site_fract_z
Si Si1 0.654759 0.860106 0.326887
Si Si2 0.734571 0.080121 0.549283
Si Si3 0.500000 0.250000 0.250000
Si Si4 0.000000 0.455694 0.750000
O O1 0.500000 0.871304 0.250000
O O2 0.431035 0.877686 0.388714
O O3 0.808475 0.791463 0.307176
O O4 0.896969 0.913748 0.319726
O O5 0.540600 0.096033 0.477577
O O6 0.750000 0.000000 0.561009
O O7 0.250000 0.500000 0.726118
#
# Coordination Sequence:
#
# PCOD9509815 Si02
#       4
#    16  16   4   8
#     4  11  25  45  76 104 152 198 253 320 377 445
#     4  10  25  46  71 109 156 199 247 310 391 466
#     4  10  26  48  72 114 144 196 274 320 360 444
#     4  11  24  37  64 113 140 177 246 310 376 451
#
# _framework density 24.646681000000001
#
# number of rings (size 3 to 8) (size 9 to 14) (size 15 to 20)
#    0.000    1.455    1.818    0.545   15.273    1.455 
#    0.000    1.818    0.000    0.000    0.000    0.000 
#    0.000    0.000    0.000    0.000    0.000    0.000 
#
# Total GULP energy -122693.859070 kJ/mol
# GULP energy per Si atom -5576.993594 kJ/mol
# Density = 2.459058 g / cm^3
# Si number density = 24.646681 Si / 1000 Ang^3
#
#
#
# Elastic Constant Matrix: (Units=GPa)
#
#
# Indices 1 2 3 4 5 6 
#
# 1 163.8990 55.1655 30.0927 0.0000 0.0000 0.0000
# 2 55.1655 113.0254 31.8506 0.0000 0.0000 0.0000
# 3 30.0927 31.8506 164.5082 0.0000 0.0000 0.0000
# 4 0.0000 0.0000 0.0000 0.5990 0.0000 0.0000
# 5 0.0000 0.0000 0.0000 0.0000 28.7025 0.0000
# 6 0.0000 0.0000 0.0000 0.0000 0.0000 52.9672
#
#
#
# Elastic Compliance Matrix: (Units=1/GPa)
#
#
# Indices 1 2 3 4 5 6 
#
# 1 0.007374 -0.003405 -0.000690 0.000000 0.000000 0.000000
# 2 -0.003405 0.010930 -0.001493 0.000000 0.000000 0.000000
# 3 -0.000690 -0.001493 0.006494 0.000000 0.000000 0.000000
# 4 0.000000 0.000000 0.000000 1.669443 0.000000 0.000000
# 5 0.000000 0.000000 0.000000 0.000000 0.034840 0.000000
# 6 0.000000 0.000000 0.000000 0.000000 0.000000 0.018880
#
#
# Mechanical properties :
#
#
# Convention : Reuss Voigt Hill
#
# Bulk Modulus (GPa) = 73.40777 75.07224 74.24001
# Shear Modulus (GPa) = 2.83499 38.07534 20.45516
#
# Velocity S-wave (km/s) = 1.07366 3.93472 2.88399
# Velocity P-wave (km/s) = 5.60229 7.15319 6.42471
#
# Compressibility (1/GPa) = 0.01362254
#
# Stress axis : x y z
#
# Youngs Moduli (GPa) = 135.61329 91.48983 153.98774
#
# Poissons Ratio (x) = 0.31150 0.10620
# Poissons Ratio (y) = 0.46172 0.22996
# Poissons Ratio (z) = 0.09353 0.13663
#
# Static dielectric constant tensor:
#      x y z
#    x 2.218840 0.000000 0.000000 
#    y 0.000000 2.099870 0.000000 
#    z 0.000000 0.000000 2.093980 
# 
# From -- ./inp_files/26840.got.cif
#   From: 2010.05.17/outbox.cif.g08.bks.cpg/sg68_14_cif.got.tgz:26840.got - 2010.06.03 18:57:09.
