data_PCOD9509429
_publ_section_title
;
Structure prediction by ZEFSAII (Michael W. Deem and Ramdas Pophale) SiO2 
 PCOD9509429
Probable space group: C C C A
;
_chemical_formula_sum "Si O2"
_cell_formula_units_Z 64
_cell_length_a 8.607575
_cell_length_b 25.559232
_cell_length_c 11.131910
_cell_angle_alpha 90.000000
_cell_angle_beta 90.000000
_cell_angle_gamma 90.000000
_cell_volume 2449.053667
_symmetry_space_group_name_H-M "C C C A"
_symmetry_group_IT_number 68
_space_group.IT_coordinate_system_code '2'
_symmetry_cell_setting 'orthorhombic'
loop_
_space_group_symop_operation_xyz
x,y,z
-x,1/2-y,z
x,1/2-y,1/2-z
-x,y,1/2-z
-x,-y,-z
x,1/2+y,-z
-x,1/2+y,1/2+z
x,-y,1/2+z
1/2+x,1/2+y,z
1/2-x,-y,z
1/2+x,-y,1/2-z
1/2-x,1/2+y,1/2-z
1/2-x,1/2-y,-z
1/2+x,y,-z
1/2-x,y,1/2+z
1/2+x,1/2-y,1/2+z
loop_
_atom_site_type_symbol
_atom_site_label
_atom_site_fract_x
_atom_site_fract_y
_atom_site_fract_z
Si Si1 0.745297 0.404073 0.427276
Si Si2 0.500000 0.750000 0.750000
Si Si3 0.500000 0.750000 0.250000
Si Si4 0.258008 0.319821 0.875818
Si Si5 0.250000 0.500000 0.902502
Si Si6 0.000000 0.061342 0.750000
Si Si7 0.500000 0.397633 0.750000
O O1 0.768664 0.349365 0.497653
O O2 0.704552 0.451478 0.515423
O O3 0.598311 0.402713 0.339366
O O4 0.904559 0.421756 0.360556
O O5 0.605429 0.789838 0.829046
O O6 0.614009 0.723682 0.152629
O O7 0.352917 0.364798 0.801465
O O8 0.116981 0.476133 0.819707
#
# Coordination Sequence:
#
# PCOD9509429 Si02
#       7
#    16   4   4  16   8   8   8
#     4  12  27  49  78 112 158 211 258 319 388 457
#     4  10  24  52  86 120 152 200 270 328 388 482
#     4   8  20  48  82 114 152 194 262 324 388 480
#     4  10  23  48  79 114 154 202 254 326 398 458
#     4  12  28  50  80 116 156 208 258 316 386 464
#     4  12  28  49  76 118 160 204 264 318 380 473
#     4  11  26  48  74 114 160 204 260 319 384 468
#
# _framework density 26.132543999999999
#
# number of rings (size 3 to 8) (size 9 to 14) (size 15 to 20)
#    0.000    1.000    0.000    4.500    0.000   14.000 
#    0.000   26.250    0.000    3.750    0.000    0.000 
#    0.000    0.000    0.000    0.000    0.000    0.000 
#
# Total GULP energy -178839.521936 kJ/mol
# GULP energy per Si atom -5588.735061 kJ/mol
# Density = 2.607306 g / cm^3
# Si number density = 26.132544 Si / 1000 Ang^3
#
#
#
# Elastic Constant Matrix: (Units=GPa)
#
#
# Indices 1 2 3 4 5 6 
#
# 1 182.2011 94.4575 106.8990 0.0000 0.0000 0.0000
# 2 94.4575 132.9677 82.3809 0.0000 0.0000 0.0000
# 3 106.8990 82.3809 139.1762 0.0000 0.0000 0.0000
# 4 0.0000 0.0000 0.0000 28.7196 0.0000 0.0000
# 5 0.0000 0.0000 0.0000 0.0000 51.9370 0.0000
# 6 0.0000 0.0000 0.0000 0.0000 0.0000 172.2562
#
#
#
# Elastic Compliance Matrix: (Units=1/GPa)
#
#
# Indices 1 2 3 4 5 6 
#
# 1 0.011293 -0.004182 -0.006199 0.000000 0.000000 0.000000
# 2 -0.004182 0.013424 -0.004734 0.000000 0.000000 0.000000
# 3 -0.006199 -0.004734 0.014749 0.000000 0.000000 0.000000
# 4 0.000000 0.000000 0.000000 0.034819 0.000000 0.000000
# 5 0.000000 0.000000 0.000000 0.000000 0.019254 0.000000
# 6 0.000000 0.000000 0.000000 0.000000 0.000000 0.005805
#
#
# Mechanical properties :
#
#
# Convention : Reuss Voigt Hill
#
# Bulk Modulus (GPa) = 108.26551 113.53552 110.90052
# Shear Modulus (GPa) = 37.69202 61.95640 49.82421
#
# Velocity S-wave (km/s) = 3.80194 4.87442 4.37120
# Velocity P-wave (km/s) = 7.79694 8.67297 8.24659
#
# Compressibility (1/GPa) = 0.00923655
#
# Stress axis : x y z
#
# Youngs Moduli (GPa) = 88.54664 74.49088 67.80345
#
# Poissons Ratio (x) = 0.31153 0.42031
# Poissons Ratio (y) = 0.37031 0.32098
# Poissons Ratio (z) = 0.54889 0.35264
#
# Static dielectric constant tensor:
#      x y z
#    x 1.986010 0.000000 0.000000 
#    y 0.000000 2.117090 0.000000 
#    z 0.000000 0.000000 1.900820 
# 
# From -- ./inp_files/10846.got.cif
#   From: 2010.05.17/outbox.cif.g08.bks.cpg/sg68_6_cif.got.tgz:10846.got - 2010.06.03 18:57:09.
