data_PCOD9509124
_publ_section_title
;
Structure prediction by ZEFSAII (Michael W. Deem and Ramdas Pophale) SiO2 
 PCOD9509124
Probable space group: C C C A
;
_chemical_formula_sum "Si O2"
_cell_formula_units_Z 116
_cell_length_a 13.968679
_cell_length_b 24.873747
_cell_length_c 19.229531
_cell_angle_alpha 90.000000
_cell_angle_beta 90.000000
_cell_angle_gamma 90.000000
_cell_volume 6681.365683
_symmetry_space_group_name_H-M "C C C A"
_symmetry_group_IT_number 68
_space_group.IT_coordinate_system_code '2'
_symmetry_cell_setting 'orthorhombic'
loop_
_space_group_symop_operation_xyz
x,y,z
-x,1/2-y,z
x,1/2-y,1/2-z
-x,y,1/2-z
-x,-y,-z
x,1/2+y,-z
-x,1/2+y,1/2+z
x,-y,1/2+z
1/2+x,1/2+y,z
1/2-x,-y,z
1/2+x,-y,1/2-z
1/2-x,1/2+y,1/2-z
1/2-x,1/2-y,-z
1/2+x,y,-z
1/2-x,y,1/2+z
1/2+x,1/2-y,1/2+z
loop_
_atom_site_type_symbol
_atom_site_label
_atom_site_fract_x
_atom_site_fract_y
_atom_site_fract_z
Si Si1 0.301606 0.443808 0.670712
Si Si2 0.170020 0.147057 0.581014
Si Si3 0.103461 0.262514 0.616579
Si Si4 0.000000 0.750000 0.250000
Si Si5 0.210690 0.559451 0.834454
Si Si6 0.007588 0.421464 0.544219
Si Si7 0.709099 0.365826 0.440553
Si Si8 0.497634 0.463358 0.890513
O O1 0.250000 0.500000 0.650530
O O2 0.281686 0.433821 0.751600
O O3 0.264709 0.396553 0.620843
O O4 0.414286 0.451694 0.659621
O O5 0.161131 0.206600 0.612894
O O6 0.228022 0.105559 0.628876
O O7 0.223693 0.144742 0.506787
O O8 0.062684 0.124745 0.570748
O O9 0.069612 0.279104 0.694850
O O10 0.163980 0.309650 0.583583
O O11 0.000000 0.250000 0.580999
O O12 0.250000 0.500000 0.852706
O O13 0.101271 0.559064 0.860490
O O14 0.117674 0.403360 0.542148
O O15 0.980178 0.437768 0.465864
O O16 0.992624 0.473007 0.593574
#
# Coordination Sequence:
#
# PCOD9509124 Si02
#       8
#    16  16  16   4  16  16  16  16
#     4  11  24  38  59  90 123 162 202 248 312 373
#     4  12  23  41  63  89 122 161 208 256 306 367
#     4  10  23  39  64  93 117 159 203 254 308 362
#     4   8  20  44  68  84 128 154 198 260 328 358
#     4  11  24  38  59  90 123 162 202 248 312 373
#     4  11  21  35  63  89 115 160 203 252 295 361
#     4  12  23  41  63  89 122 161 208 256 306 367
#     4  11  21  38  58  87 125 158 205 247 296 376
#
# _framework density 17.361719999999998
#
# number of rings (size 3 to 8) (size 9 to 14) (size 15 to 20)
#    0.414    0.552    6.897    0.828    1.931    0.552 
#    0.000    0.000    0.000    0.000    0.000    1.931 
#    0.000    0.000    0.000    0.000    0.000    0.000 
#
# Total GULP energy -323566.623760 kJ/mol
# GULP energy per Si atom -5578.734892 kJ/mol
# Density = 1.732220 g / cm^3
# Si number density = 17.361720 Si / 1000 Ang^3
#
#
#
# Elastic Constant Matrix: (Units=GPa)
#
#
# Indices 1 2 3 4 5 6 
#
# 1 82.9323 19.7029 19.2551 0.0000 0.0000 0.0000
# 2 19.7029 100.1877 43.3830 0.0000 0.0000 0.0000
# 3 19.2551 43.3830 69.8866 0.0000 0.0000 0.0000
# 4 0.0000 0.0000 0.0000 16.7366 0.0000 0.0000
# 5 0.0000 0.0000 0.0000 0.0000 16.5517 0.0000
# 6 0.0000 0.0000 0.0000 0.0000 0.0000 25.4124
#
#
#
# Elastic Compliance Matrix: (Units=1/GPa)
#
#
# Indices 1 2 3 4 5 6 
#
# 1 0.013020 -0.001377 -0.002732 0.000000 0.000000 0.000000
# 2 -0.001377 0.013796 -0.008185 0.000000 0.000000 0.000000
# 3 -0.002732 -0.008185 0.020142 0.000000 0.000000 0.000000
# 4 0.000000 0.000000 0.000000 0.059749 0.000000 0.000000
# 5 0.000000 0.000000 0.000000 0.000000 0.060417 0.000000
# 6 0.000000 0.000000 0.000000 0.000000 0.000000 0.039351
#
#
# Mechanical properties :
#
#
# Convention : Reuss Voigt Hill
#
# Bulk Modulus (GPa) = 44.70302 46.40983 45.55643
# Shear Modulus (GPa) = 20.96259 23.11786 22.04022
#
# Velocity S-wave (km/s) = 3.47854 3.65299 3.56683
# Velocity P-wave (km/s) = 6.47592 6.67694 6.57720
#
# Compressibility (1/GPa) = 0.02236985
#
# Stress axis : x y z
#
# Youngs Moduli (GPa) = 76.80727 72.48343 49.64654
#
# Poissons Ratio (x) = 0.09984 0.13564
# Poissons Ratio (y) = 0.10579 0.40634
# Poissons Ratio (z) = 0.20985 0.59326
#
# Static dielectric constant tensor:
#      x y z
#    x 1.583930 0.000000 0.000000 
#    y 0.000000 1.579100 0.000000 
#    z 0.000000 0.000000 1.582860 
# 
# From -- ./inp_files/31252.got.cif
#   From: 2010.05.17/outbox.cif.g08.bks.cpg/sg68_16_cif.got.tgz:31252.got - 2010.06.03 18:57:09.
