data_PCOD9509825
_publ_section_title
;
Structure prediction by ZEFSAII (Michael W. Deem and Ramdas Pophale) SiO2 
 PCOD9509825
Probable space group: C C C A
;
_chemical_formula_sum "Si O2"
_cell_formula_units_Z 64
_cell_length_a 9.154372
_cell_length_b 15.893124
_cell_length_c 16.027098
_cell_angle_alpha 90.000000
_cell_angle_beta 90.000000
_cell_angle_gamma 90.000000
_cell_volume 2331.807640
_symmetry_space_group_name_H-M "C C C A"
_symmetry_group_IT_number 68
_space_group.IT_coordinate_system_code '2'
_symmetry_cell_setting 'orthorhombic'
loop_
_space_group_symop_operation_xyz
x,y,z
-x,1/2-y,z
x,1/2-y,1/2-z
-x,y,1/2-z
-x,-y,-z
x,1/2+y,-z
-x,1/2+y,1/2+z
x,-y,1/2+z
1/2+x,1/2+y,z
1/2-x,-y,z
1/2+x,-y,1/2-z
1/2-x,1/2+y,1/2-z
1/2-x,1/2-y,-z
1/2+x,y,-z
1/2-x,y,1/2+z
1/2+x,1/2-y,1/2+z
loop_
_atom_site_type_symbol
_atom_site_label
_atom_site_fract_x
_atom_site_fract_y
_atom_site_fract_z
Si Si1 0.396033 0.670621 0.949769
Si Si2 0.399438 0.332708 0.632810
Si Si3 0.839257 0.862958 0.273833
Si Si4 0.588702 0.998853 0.888351
O O1 0.500000 0.750000 0.947438
O O2 0.500000 0.668314 0.750000
O O3 0.300061 0.673734 0.865583
O O4 0.326205 0.671590 0.040830
O O5 0.500000 0.250000 0.645881
O O6 0.282267 0.346624 0.705746
O O7 0.501768 0.416098 0.623983
O O8 0.626816 0.041093 0.298308
O O9 0.983303 0.918622 0.435628
O O10 0.750000 0.000000 0.930633
#
# Coordination Sequence:
#
# PCOD9509825 Si02
#       4
#    16  16  16  16
#     4   9  23  49  81 123 175 221 286 354 425 508
#     4  11  25  52  86 128 172 229 289 353 430 519
#     4  10  26  47  81 123 175 218 287 351 439 500
#     4  10  25  47  80 121 170 217 284 348 427 503
#
# _framework density 27.446517
#
# number of rings (size 3 to 8) (size 9 to 14) (size 15 to 20)
#    1.500    0.500    0.000    0.750    3.500    4.500 
#    9.000    6.250    0.000    3.000    0.000    0.000 
#    0.000    0.000    0.000    0.000    0.000    0.000 
#
# Total GULP energy -178856.265209 kJ/mol
# GULP energy per Si atom -5589.258288 kJ/mol
# Density = 2.738405 g / cm^3
# Si number density = 27.446517 Si / 1000 Ang^3
#
#
#
# Elastic Constant Matrix: (Units=GPa)
#
#
# Indices 1 2 3 4 5 6 
#
# 1 163.9651 84.0242 114.7542 0.0000 0.0000 0.0000
# 2 84.0242 212.1326 69.9991 0.0000 0.0000 0.0000
# 3 114.7542 69.9991 282.3317 0.0000 0.0000 0.0000
# 4 0.0000 0.0000 0.0000 32.1471 0.0000 0.0000
# 5 0.0000 0.0000 0.0000 0.0000 44.3147 0.0000
# 6 0.0000 0.0000 0.0000 0.0000 0.0000 36.5877
#
#
#
# Elastic Compliance Matrix: (Units=1/GPa)
#
#
# Indices 1 2 3 4 5 6 
#
# 1 0.009855 -0.002812 -0.003309 0.000000 0.000000 0.000000
# 2 -0.002812 0.005936 -0.000329 0.000000 0.000000 0.000000
# 3 -0.003309 -0.000329 0.004968 0.000000 0.000000 0.000000
# 4 0.000000 0.000000 0.000000 0.031107 0.000000 0.000000
# 5 0.000000 0.000000 0.000000 0.000000 0.022566 0.000000
# 6 0.000000 0.000000 0.000000 0.000000 0.000000 0.027332
#
#
# Mechanical properties :
#
#
# Convention : Reuss Voigt Hill
#
# Bulk Modulus (GPa) = 127.20674 132.88718 130.04696
# Shear Modulus (GPa) = 42.63170 48.58670 45.60920
#
# Velocity S-wave (km/s) = 3.94542 4.21198 4.08088
# Velocity P-wave (km/s) = 8.19774 8.49566 8.34803
#
# Compressibility (1/GPa) = 0.00786122
#
# Stress axis : x y z
#
# Youngs Moduli (GPa) = 101.46732 168.45414 201.27773
#
# Poissons Ratio (x) = 0.47367 0.66594
# Poissons Ratio (y) = 0.28531 0.06620
# Poissons Ratio (z) = 0.33571 0.05541
#
# Static dielectric constant tensor:
#      x y z
#    x 2.340620 0.000000 0.000000 
#    y 0.000000 2.281950 0.000000 
#    z 0.000000 0.000000 2.239580 
# 
# From -- ./inp_files/20426.got.cif
#   From: 2010.05.17/outbox.cif.g08.bks.cpg/sg68_11_cif.got.tgz:20426.got - 2010.06.03 18:57:09.
