data_PCOD9509053
_publ_section_title
;
Structure prediction by ZEFSAII (Michael W. Deem and Ramdas Pophale) SiO2 
 PCOD9509053
Probable space group: C C C A
;
_chemical_formula_sum "Si O2"
_cell_formula_units_Z 68
_cell_length_a 22.009198
_cell_length_b 7.505377
_cell_length_c 16.279883
_cell_angle_alpha 90.000000
_cell_angle_beta 90.000000
_cell_angle_gamma 90.000000
_cell_volume 2689.230380
_symmetry_space_group_name_H-M "C C C A"
_symmetry_group_IT_number 68
_space_group.IT_coordinate_system_code '2'
_symmetry_cell_setting 'orthorhombic'
loop_
_space_group_symop_operation_xyz
x,y,z
-x,1/2-y,z
x,1/2-y,1/2-z
-x,y,1/2-z
-x,-y,-z
x,1/2+y,-z
-x,1/2+y,1/2+z
x,-y,1/2+z
1/2+x,1/2+y,z
1/2-x,-y,z
1/2+x,-y,1/2-z
1/2-x,1/2+y,1/2-z
1/2-x,1/2-y,-z
1/2+x,y,-z
1/2-x,y,1/2+z
1/2+x,1/2-y,1/2+z
loop_
_atom_site_type_symbol
_atom_site_label
_atom_site_fract_x
_atom_site_fract_y
_atom_site_fract_z
Si Si1 0.000000 0.250000 0.750000
Si Si2 0.452866 0.123719 0.545972
Si Si3 0.862275 0.728280 0.656037
Si Si4 0.737340 0.709423 0.903261
Si Si5 0.895585 0.633417 0.377499
O O1 0.049109 0.342307 0.687207
O O2 0.500000 0.250000 0.592957
O O3 0.402680 0.078428 0.612223
O O4 0.416993 0.198520 0.467321
O O5 0.500000 0.000000 0.500000
O O6 0.877132 0.750000 0.750000
O O7 0.791401 0.691354 0.643665
O O8 0.879756 0.921232 0.616640
O O9 0.750000 0.500000 0.893364
O O10 0.669729 0.729733 0.866663
O O11 0.750000 0.750000 0.000000
#
# Coordination Sequence:
#
# PCOD9509053 Si02
#       5
#     4  16  16  16  16
#     4  12  28  44  70 100 158 176 240 308 368 424
#     4  12  24  42  69 100 139 184 235 281 356 434
#     4  11  26  45  72 104 143 187 242 299 361 427
#     4  10  22  46  72 102 138 183 241 290 355 440
#     4  11  25  45  69 104 137 189 238 295 365 432
#
# _framework density 25.286044
#
# number of rings (size 3 to 8) (size 9 to 14) (size 15 to 20)
#    0.000    0.941    5.882    0.000    4.941    0.471 
#    4.235    0.000    0.000    0.000    0.000    0.000 
#    0.000    0.000    0.000    0.000    0.000    0.000 
#
# Total GULP energy -189764.396458 kJ/mol
# GULP energy per Si atom -5581.305778 kJ/mol
# Density = 2.522849 g / cm^3
# Si number density = 25.286044 Si / 1000 Ang^3
#
#
#
# Elastic Constant Matrix: (Units=GPa)
#
#
# Indices 1 2 3 4 5 6 
#
# 1 252.6108 53.1625 62.1410 0.0000 0.0000 0.0000
# 2 53.1625 45.2824 9.2489 0.0000 0.0000 0.0000
# 3 62.1410 9.2489 139.6990 0.0000 0.0000 0.0000
# 4 0.0000 0.0000 0.0000 10.2384 0.0000 0.0000
# 5 0.0000 0.0000 0.0000 0.0000 48.1270 0.0000
# 6 0.0000 0.0000 0.0000 0.0000 0.0000 31.2607
#
#
#
# Elastic Compliance Matrix: (Units=1/GPa)
#
#
# Indices 1 2 3 4 5 6 
#
# 1 0.005844 -0.006417 -0.002175 0.000000 0.000000 0.000000
# 2 -0.006417 0.029432 0.000906 0.000000 0.000000 0.000000
# 3 -0.002175 0.000906 0.008066 0.000000 0.000000 0.000000
# 4 0.000000 0.000000 0.000000 0.097671 0.000000 0.000000
# 5 0.000000 0.000000 0.000000 0.000000 0.020778 0.000000
# 6 0.000000 0.000000 0.000000 0.000000 0.000000 0.031989
#
#
# Mechanical properties :
#
#
# Convention : Reuss Voigt Hill
#
# Bulk Modulus (GPa) = 35.75227 76.29967 56.02597
# Shear Modulus (GPa) = 22.88584 38.79455 30.84019
#
# Velocity S-wave (km/s) = 3.01171 3.92117 3.49614
# Velocity P-wave (km/s) = 5.12481 7.12326 6.20502
#
# Compressibility (1/GPa) = 0.02797025
#
# Stress axis : x y z
#
# Youngs Moduli (GPa) = 171.11327 33.97639 123.98269
#
# Poissons Ratio (x) = 0.21802 0.26963
# Poissons Ratio (y) = 1.09802 -0.11230
# Poissons Ratio (z) = 0.37213 -0.03078
#
# Static dielectric constant tensor:
#      x y z
#    x 2.155890 0.000000 0.000000 
#    y 0.000000 2.121640 0.000000 
#    z 0.000000 0.000000 2.625030 
# 
# From -- ./inp_files/32574.got.cif
#   From: 2010.05.17/outbox.cif.g08.bks.cpg/sg68_17_cif.got.tgz:32574.got - 2010.06.03 18:57:09.
