data_PCOD9509976
_publ_section_title
;
Structure prediction by ZEFSAII (Michael W. Deem and Ramdas Pophale) SiO2 
 PCOD9509976
Probable space group: C C C A
;
_chemical_formula_sum "Si O2"
_cell_formula_units_Z 116
_cell_length_a 24.704374
_cell_length_b 8.840843
_cell_length_c 28.763634
_cell_angle_alpha 90.000000
_cell_angle_beta 90.000000
_cell_angle_gamma 90.000000
_cell_volume 6282.193161
_symmetry_space_group_name_H-M "C C C A"
_symmetry_group_IT_number 68
_space_group.IT_coordinate_system_code '2'
_symmetry_cell_setting 'orthorhombic'
loop_
_space_group_symop_operation_xyz
x,y,z
-x,1/2-y,z
x,1/2-y,1/2-z
-x,y,1/2-z
-x,-y,-z
x,1/2+y,-z
-x,1/2+y,1/2+z
x,-y,1/2+z
1/2+x,1/2+y,z
1/2-x,-y,z
1/2+x,-y,1/2-z
1/2-x,1/2+y,1/2-z
1/2-x,1/2-y,-z
1/2+x,y,-z
1/2-x,y,1/2+z
1/2+x,1/2-y,1/2+z
loop_
_atom_site_type_symbol
_atom_site_label
_atom_site_fract_x
_atom_site_fract_y
_atom_site_fract_z
Si Si1 0.213888 0.862374 0.468108
Si Si2 0.000000 0.250000 0.750000
Si Si3 0.434803 0.760772 0.303369
Si Si4 0.044481 0.989203 0.376379
Si Si5 0.565905 0.425771 0.173191
Si Si6 0.048869 0.165669 0.465670
Si Si7 0.627901 0.770992 0.898536
Si Si8 0.614229 0.043674 0.968931
O O1 0.250000 0.750000 0.500000
O O2 0.181962 0.787025 0.424694
O O3 0.169735 0.934519 0.503134
O O4 0.250000 0.000000 0.450261
O O5 0.959856 0.142447 0.779684
O O6 0.500000 0.750000 0.301313
O O7 0.414944 0.750000 0.250000
O O8 0.417429 0.601302 0.325364
O O9 0.427176 0.911677 0.334809
O O10 0.085067 0.867345 0.398959
O O11 0.988292 0.918974 0.358746
O O12 0.028569 0.102950 0.417062
O O13 0.616151 0.328638 0.153935
O O14 0.094816 0.289585 0.456040
O O15 0.000000 0.250000 0.490950
O O16 0.072138 0.031555 0.495798
O O17 0.615657 0.922744 0.927823
#
# Coordination Sequence:
#
# PCOD9509976 Si02
#       8
#    16   4  16  16  16  16  16  16
#     4  12  24  45  65  82 113 162 215 282 335 366
#     4  12  20  36  62  92 136 176 202 244 312 372
#     4   9  18  33  55  82 122 174 212 238 286 353
#     4  11  20  37  52  85 127 171 208 245 296 369
#     4  11  22  36  58  90 134 173 210 247 294 379
#     4  12  22  34  54  80 126 171 206 245 300 372
#     4  12  23  38  60  88 122 156 215 268 308 377
#     4  12  23  40  56  87 115 164 217 260 310 377
#
# _framework density 18.464887999999998
#
# number of rings (size 3 to 8) (size 9 to 14) (size 15 to 20)
#    0.000    0.690    5.517    4.966    0.000    1.103 
#    0.000    0.000    0.000    0.000    0.000    0.000 
#    6.207    0.000    0.000    0.000    0.000    0.000 
#
# Total GULP energy -323265.322705 kJ/mol
# GULP energy per Si atom -5573.540047 kJ/mol
# Density = 1.842286 g / cm^3
# Si number density = 18.464888 Si / 1000 Ang^3
#
#
#
# Elastic Constant Matrix: (Units=GPa)
#
#
# Indices 1 2 3 4 5 6 
#
# 1 62.6916 20.6747 22.9592 0.0000 0.0000 0.0000
# 2 20.6747 84.6446 16.4177 0.0000 0.0000 0.0000
# 3 22.9592 16.4177 65.7615 0.0000 0.0000 0.0000
# 4 0.0000 0.0000 0.0000 34.6985 0.0000 0.0000
# 5 0.0000 0.0000 0.0000 0.0000 22.5162 0.0000
# 6 0.0000 0.0000 0.0000 0.0000 0.0000 29.9989
#
#
#
# Elastic Compliance Matrix: (Units=1/GPa)
#
#
# Indices 1 2 3 4 5 6 
#
# 1 0.019266 -0.003574 -0.005834 0.000000 0.000000 0.000000
# 2 -0.003574 0.013078 -0.002017 0.000000 0.000000 0.000000
# 3 -0.005834 -0.002017 0.017747 0.000000 0.000000 0.000000
# 4 0.000000 0.000000 0.000000 0.028820 0.000000 0.000000
# 5 0.000000 0.000000 0.000000 0.000000 0.044412 0.000000
# 6 0.000000 0.000000 0.000000 0.000000 0.000000 0.033335
#
#
# Mechanical properties :
#
#
# Convention : Reuss Voigt Hill
#
# Bulk Modulus (GPa) = 36.71002 37.02234 36.86618
# Shear Modulus (GPa) = 26.51255 27.64578 27.07917
#
# Velocity S-wave (km/s) = 3.79335 3.87358 3.83367
# Velocity P-wave (km/s) = 6.25381 6.33244 6.29325
#
# Compressibility (1/GPa) = 0.02724052
#
# Stress axis : x y z
#
# Youngs Moduli (GPa) = 51.90366 76.46201 56.34781
#
# Poissons Ratio (x) = 0.27330 0.32874
# Poissons Ratio (y) = 0.18552 0.11366
# Poissons Ratio (z) = 0.30281 0.15424
#
# Static dielectric constant tensor:
#      x y z
#    x 1.638630 0.000000 0.000000 
#    y 0.000000 1.702360 0.000000 
#    z 0.000000 0.000000 1.704310 
# 
# From -- ./inp_files/52181.got.cif
#   From: 2010.05.17/outbox.cif.g08.bks.cpg/sg68_27_cif.got.tgz:52181.got - 2010.06.03 18:57:09.
