data_PCOD9509807
_publ_section_title
;
Structure prediction by ZEFSAII (Michael W. Deem and Ramdas Pophale) SiO2 
 PCOD9509807
Probable space group: C C C A
;
_chemical_formula_sum "Si O2"
_cell_formula_units_Z 88
_cell_length_a 13.555558
_cell_length_b 25.258257
_cell_length_c 11.956455
_cell_angle_alpha 90.000000
_cell_angle_beta 90.000000
_cell_angle_gamma 90.000000
_cell_volume 4093.767850
_symmetry_space_group_name_H-M "C C C A"
_symmetry_group_IT_number 68
_space_group.IT_coordinate_system_code '2'
_symmetry_cell_setting 'orthorhombic'
loop_
_space_group_symop_operation_xyz
x,y,z
-x,1/2-y,z
x,1/2-y,1/2-z
-x,y,1/2-z
-x,-y,-z
x,1/2+y,-z
-x,1/2+y,1/2+z
x,-y,1/2+z
1/2+x,1/2+y,z
1/2-x,-y,z
1/2+x,-y,1/2-z
1/2-x,1/2+y,1/2-z
1/2-x,1/2-y,-z
1/2+x,y,-z
1/2-x,y,1/2+z
1/2+x,1/2-y,1/2+z
loop_
_atom_site_type_symbol
_atom_site_label
_atom_site_fract_x
_atom_site_fract_y
_atom_site_fract_z
Si Si1 0.379203 0.250000 0.250000
Si Si2 0.943199 0.801337 0.028576
Si Si3 0.188278 0.577193 0.754335
Si Si4 0.906758 0.894237 0.521025
Si Si5 0.103666 0.530585 0.312724
Si Si6 0.745541 0.174356 0.899593
O O1 0.432963 0.290098 0.161818
O O2 0.311989 0.213609 0.171770
O O3 0.000000 0.750000 0.983804
O O4 0.999033 0.855507 0.995398
O O5 0.836894 0.799273 0.974107
O O6 0.124681 0.584138 0.641880
O O7 0.135783 0.530459 0.823560
O O8 0.303911 0.558487 0.746692
O O9 0.193220 0.632665 0.817272
O O10 0.909298 0.941636 0.431972
O O11 0.816367 0.857871 0.481191
O O12 0.000000 0.535465 0.250000
#
# Coordination Sequence:
#
# PCOD9509807 Si02
#       6
#     8  16  16  16  16  16
#     4  12  25  48  71 102 148 192 249 298 347 444
#     4  12  27  44  73 106 141 191 242 294 362 434
#     4  10  25  48  67 106 150 181 243 304 359 427
#     4  11  26  45  73 107 141 191 241 299 364 434
#     4  10  25  45  76 100 139 195 242 294 358 433
#     4  11  26  44  72 102 148 188 237 300 366 423
#
# _framework density 21.496089000000001
#
# number of rings (size 3 to 8) (size 9 to 14) (size 15 to 20)
#    0.000    1.091    1.818    1.909   12.727    6.545 
#    0.000    0.000    0.000    0.000    0.000    0.000 
#    0.000    0.000    0.000    0.000    0.000    0.000 
#
# Total GULP energy -245932.823491 kJ/mol
# GULP energy per Si atom -5589.382352 kJ/mol
# Density = 2.144716 g / cm^3
# Si number density = 21.496089 Si / 1000 Ang^3
#
#
#
# Elastic Constant Matrix: (Units=GPa)
#
#
# Indices 1 2 3 4 5 6 
#
# 1 83.4082 15.6100 21.6468 0.0000 0.0000 0.0000
# 2 15.6100 100.2704 27.1687 0.0000 0.0000 0.0000
# 3 21.6468 27.1687 26.8550 0.0000 0.0000 0.0000
# 4 0.0000 0.0000 0.0000 -439.6294 0.0000 0.0000
# 5 0.0000 0.0000 0.0000 0.0000 38.3403 0.0000
# 6 0.0000 0.0000 0.0000 0.0000 0.0000 88.6062
#
#
#
# Elastic Compliance Matrix: (Units=1/GPa)
#
#
# Indices 1 2 3 4 5 6 
#
# 1 0.015287 0.001321 -0.013659 0.000000 0.000000 0.000000
# 2 0.001321 0.013853 -0.015080 0.000000 0.000000 0.000000
# 3 -0.013659 -0.015080 0.063503 0.000000 0.000000 0.000000
# 4 0.000000 0.000000 0.000000 -0.002275 0.000000 0.000000
# 5 0.000000 0.000000 0.000000 0.000000 0.026082 0.000000
# 6 0.000000 0.000000 0.000000 0.000000 0.000000 0.011286
#
#
# Mechanical properties :
#
#
# Convention : Reuss Voigt Hill
#
# Bulk Modulus (GPa) = 26.44949 37.70938 32.07943
# Shear Modulus (GPa) = 25.61816 -52.79603 -13.58894
#
# Velocity S-wave (km/s) = 3.45593 -4.96126 -2.51700
# Velocity P-wave (km/s) = 5.31560 3.90362 2.55122
#
# Compressibility (1/GPa) = 0.03780792
#
# Stress axis : x y z
#
# Youngs Moduli (GPa) = 65.41598 72.18467 15.74734
#
# Poissons Ratio (x) = -0.09536 0.21509
# Poissons Ratio (y) = -0.08641 0.23747
# Poissons Ratio (z) = 0.89349 1.08854
#
# Static dielectric constant tensor:
#      x y z
#    x 1.838350 0.000000 0.000000 
#    y 0.000000 1.416670 0.000000 
#    z 0.000000 0.000000 1.656160 
# 
# From -- ./inp_files/13340.got.cif
#   From: 2010.05.17/outbox.cif.g08.bks.cpg/sg68_7_cif.got.tgz:13340.got - 2010.06.03 18:57:09.
