data_PCOD9509602
_publ_section_title
;
Structure prediction by ZEFSAII (Michael W. Deem and Ramdas Pophale) SiO2 
 PCOD9509602
Probable space group: C C C A
;
_chemical_formula_sum "Si O2"
_cell_formula_units_Z 48
_cell_length_a 20.082247
_cell_length_b 4.799019
_cell_length_c 18.370756
_cell_angle_alpha 90.000000
_cell_angle_beta 90.000000
_cell_angle_gamma 90.000000
_cell_volume 1770.483169
_symmetry_space_group_name_H-M "C C C A"
_symmetry_group_IT_number 68
_space_group.IT_coordinate_system_code '2'
_symmetry_cell_setting 'orthorhombic'
loop_
_space_group_symop_operation_xyz
x,y,z
-x,1/2-y,z
x,1/2-y,1/2-z
-x,y,1/2-z
-x,-y,-z
x,1/2+y,-z
-x,1/2+y,1/2+z
x,-y,1/2+z
1/2+x,1/2+y,z
1/2-x,-y,z
1/2+x,-y,1/2-z
1/2-x,1/2+y,1/2-z
1/2-x,1/2-y,-z
1/2+x,y,-z
1/2-x,y,1/2+z
1/2+x,1/2-y,1/2+z
loop_
_atom_site_type_symbol
_atom_site_label
_atom_site_fract_x
_atom_site_fract_y
_atom_site_fract_z
Si Si1 0.457441 0.490591 0.623192
Si Si2 0.129864 0.750000 0.750000
Si Si3 0.668286 0.777265 0.949688
Si Si4 0.250000 0.500000 0.673655
O O1 0.500000 0.250000 0.581861
O O2 0.419858 0.297162 0.682646
O O3 0.402555 0.661742 0.578322
O O4 0.500000 0.750000 0.655266
O O5 0.186636 0.531582 0.726297
O O6 0.719230 0.717143 0.884632
O O7 0.675665 0.589236 0.022151
#
# Coordination Sequence:
#
# PCOD9509602 Si02
#       4
#    16   8  16   8
#     4  11  25  45  70 103 143 191 242 294 356 428
#     4  10  25  44  70 104 145 192 238 296 358 428
#     4  11  24  44  72 104 141 186 237 298 360 425
#     4  10  24  44  70 106 146 188 242 298 364 432
#
# _framework density 27.111243000000002
#
# number of rings (size 3 to 8) (size 9 to 14) (size 15 to 20)
#    0.000    1.333    0.000    3.500    0.000   17.333 
#    0.000    0.000    0.000    0.000    0.000    0.000 
#    0.000    0.000    0.000    0.000    0.000    0.000 
#
# Total GULP energy -133771.937678 kJ/mol
# GULP energy per Si atom -5573.830737 kJ/mol
# Density = 2.704954 g / cm^3
# Si number density = 27.111243 Si / 1000 Ang^3
#
#
#
# Elastic Constant Matrix: (Units=GPa)
#
#
# Indices 1 2 3 4 5 6 
#
# 1 131.7965 60.5693 40.1978 0.0000 0.0000 0.0000
# 2 60.5693 127.0751 43.5035 0.0000 0.0000 0.0000
# 3 40.1978 43.5035 98.7507 0.0000 0.0000 0.0000
# 4 0.0000 0.0000 0.0000 -19.2701 0.0000 0.0000
# 5 0.0000 0.0000 0.0000 0.0000 44.1112 0.0000
# 6 0.0000 0.0000 0.0000 0.0000 0.0000 37.9261
#
#
#
# Elastic Compliance Matrix: (Units=1/GPa)
#
#
# Indices 1 2 3 4 5 6 
#
# 1 0.010162 -0.004036 -0.002358 0.000000 0.000000 0.000000
# 2 -0.004036 0.010870 -0.003146 0.000000 0.000000 0.000000
# 3 -0.002358 -0.003146 0.012472 0.000000 0.000000 0.000000
# 4 0.000000 0.000000 0.000000 -0.051894 0.000000 0.000000
# 5 0.000000 0.000000 0.000000 0.000000 0.022670 0.000000
# 6 0.000000 0.000000 0.000000 0.000000 0.000000 0.026367
#
#
# Mechanical properties :
#
#
# Convention : Reuss Voigt Hill
#
# Bulk Modulus (GPa) = 69.33069 71.79593 70.56331
# Shear Modulus (GPa) = 91.68347 26.77688 59.23017
#
# Velocity S-wave (km/s) = 5.82159 3.14613 4.67916
# Velocity P-wave (km/s) = 8.41523 6.30373 7.43482
#
# Compressibility (1/GPa) = 0.01442363
#
# Stress axis : x y z
#
# Youngs Moduli (GPa) = 98.40976 91.99592 80.17744
#
# Poissons Ratio (x) = 0.37130 0.18909
# Poissons Ratio (y) = 0.39719 0.25222
# Poissons Ratio (z) = 0.23209 0.28940
#
# Static dielectric constant tensor:
#      x y z
#    x 2.304180 0.000000 0.000000 
#    y 0.000000 2.044070 0.000000 
#    z 0.000000 0.000000 2.151430 
# 
# From -- ./inp_files/39941.got.cif
#   From: 2010.05.17/outbox.cif.g08.bks.cpg/sg68_20_cif.got.tgz:39941.got - 2010.06.03 18:57:09.
