data_PCOD9509969
_publ_section_title
;
Structure prediction by ZEFSAII (Michael W. Deem and Ramdas Pophale) SiO2 
 PCOD9509969
Probable space group: C C C A
;
_chemical_formula_sum "Si O2"
_cell_formula_units_Z 88
_cell_length_a 19.372658
_cell_length_b 8.117533
_cell_length_c 23.996854
_cell_angle_alpha 90.000000
_cell_angle_beta 90.000000
_cell_angle_gamma 90.000000
_cell_volume 3773.701840
_symmetry_space_group_name_H-M "C C C A"
_symmetry_group_IT_number 68
_space_group.IT_coordinate_system_code '2'
_symmetry_cell_setting 'orthorhombic'
loop_
_space_group_symop_operation_xyz
x,y,z
-x,1/2-y,z
x,1/2-y,1/2-z
-x,y,1/2-z
-x,-y,-z
x,1/2+y,-z
-x,1/2+y,1/2+z
x,-y,1/2+z
1/2+x,1/2+y,z
1/2-x,-y,z
1/2+x,-y,1/2-z
1/2-x,1/2+y,1/2-z
1/2-x,1/2-y,-z
1/2+x,y,-z
1/2-x,y,1/2+z
1/2+x,1/2-y,1/2+z
loop_
_atom_site_type_symbol
_atom_site_label
_atom_site_fract_x
_atom_site_fract_y
_atom_site_fract_z
Si Si1 0.327615 0.988990 0.952504
Si Si2 0.750000 0.000000 0.361763
Si Si3 0.575179 0.295988 0.671615
Si Si4 0.698325 0.346734 0.332181
Si Si5 0.082034 0.975448 0.266841
Si Si6 0.871148 0.637059 0.563957
O O1 0.321769 0.878495 0.897314
O O2 0.250000 0.000000 0.976584
O O3 0.347264 0.173964 0.937517
O O4 0.377147 0.923227 0.001106
O O5 0.737171 0.170865 0.329224
O O6 0.814300 0.033210 0.402757
O O7 0.500000 0.250000 0.692938
O O8 0.604113 0.117207 0.686497
O O9 0.607161 0.436973 0.710090
O O10 0.567836 0.358350 0.608822
O O11 0.750000 0.500000 0.317370
O O12 0.628092 0.337030 0.296149
O O13 0.000000 0.939518 0.250000
#
# Coordination Sequence:
#
# PCOD9509969 Si02
#       6
#    16   8  16  16  16  16
#     4  11  20  35  59  95 146 185 231 286 355 438
#     4  12  22  36  66 100 148 182 228 298 362 432
#     4   9  19  38  68  98 132 181 245 298 360 425
#     4  11  21  39  66 107 148 188 240 300 367 432
#     4   9  18  39  71  98 133 194 248 304 365 432
#     4  12  21  37  61  99 140 189 236 286 365 431
#
# _framework density 23.319279000000002
#
# number of rings (size 3 to 8) (size 9 to 14) (size 15 to 20)
#    0.000    1.455    6.364    2.727    0.000    0.000 
#    1.636    1.818    0.000   16.364    0.000    0.000 
#    0.000    0.000    0.000    0.000    0.000    0.000 
#
# Total GULP energy -244962.983243 kJ/mol
# GULP energy per Si atom -5567.340528 kJ/mol
# Density = 2.326620 g / cm^3
# Si number density = 23.319279 Si / 1000 Ang^3
#
#
#
# Elastic Constant Matrix: (Units=GPa)
#
#
# Indices 1 2 3 4 5 6 
#
# 1 73.1990 15.0569 39.5832 0.0000 0.0000 0.0000
# 2 15.0569 131.5899 26.1575 0.0000 0.0000 0.0000
# 3 39.5832 26.1575 126.0615 0.0000 0.0000 0.0000
# 4 0.0000 0.0000 0.0000 17.0800 0.0000 0.0000
# 5 0.0000 0.0000 0.0000 0.0000 23.9885 0.0000
# 6 0.0000 0.0000 0.0000 0.0000 0.0000 21.1463
#
#
#
# Elastic Compliance Matrix: (Units=1/GPa)
#
#
# Indices 1 2 3 4 5 6 
#
# 1 0.016557 -0.000898 -0.005012 0.000000 0.000000 0.000000
# 2 -0.000898 0.007975 -0.001373 0.000000 0.000000 0.000000
# 3 -0.005012 -0.001373 0.009791 0.000000 0.000000 0.000000
# 4 0.000000 0.000000 0.000000 0.058548 0.000000 0.000000
# 5 0.000000 0.000000 0.000000 0.000000 0.041687 0.000000
# 6 0.000000 0.000000 0.000000 0.000000 0.000000 0.047290
#
#
# Mechanical properties :
#
#
# Convention : Reuss Voigt Hill
#
# Bulk Modulus (GPa) = 50.61646 54.71620 52.66633
# Shear Modulus (GPa) = 24.63060 29.11314 26.87187
#
# Velocity S-wave (km/s) = 3.25350 3.53719 3.39830
# Velocity P-wave (km/s) = 5.98888 6.34012 6.16700
#
# Compressibility (1/GPa) = 0.01975642
#
# Stress axis : x y z
#
# Youngs Moduli (GPa) = 60.39875 125.39164 102.13067
#
# Poissons Ratio (x) = 0.11261 0.51192
# Poissons Ratio (y) = 0.05424 0.14020
# Poissons Ratio (z) = 0.30274 0.17214
#
# Static dielectric constant tensor:
#      x y z
#    x 2.338340 0.000000 0.000000 
#    y 0.000000 3.127910 0.000000 
#    z 0.000000 0.000000 1.915020 
# 
# From -- ./inp_files/46496.got.cif
#   From: 2010.05.17/outbox.cif.g08.bks.cpg/sg68_24_cif.got.tgz:46496.got - 2010.06.03 18:57:09.
