data_PCOD9509772
_publ_section_title
;
Structure prediction by ZEFSAII (Michael W. Deem and Ramdas Pophale) SiO2 
 PCOD9509772
Probable space group: C C C A
;
_chemical_formula_sum "Si O2"
_cell_formula_units_Z 100
_cell_length_a 16.067491
_cell_length_b 14.107060
_cell_length_c 19.224862
_cell_angle_alpha 90.000000
_cell_angle_beta 90.000000
_cell_angle_gamma 90.000000
_cell_volume 4357.604491
_symmetry_space_group_name_H-M "C C C A"
_symmetry_group_IT_number 68
_space_group.IT_coordinate_system_code '2'
_symmetry_cell_setting 'orthorhombic'
loop_
_space_group_symop_operation_xyz
x,y,z
-x,1/2-y,z
x,1/2-y,1/2-z
-x,y,1/2-z
-x,-y,-z
x,1/2+y,-z
-x,1/2+y,1/2+z
x,-y,1/2+z
1/2+x,1/2+y,z
1/2-x,-y,z
1/2+x,-y,1/2-z
1/2-x,1/2+y,1/2-z
1/2-x,1/2-y,-z
1/2+x,y,-z
1/2-x,y,1/2+z
1/2+x,1/2-y,1/2+z
loop_
_atom_site_type_symbol
_atom_site_label
_atom_site_fract_x
_atom_site_fract_y
_atom_site_fract_z
Si Si1 0.250000 0.000000 0.134464
Si Si2 0.157750 0.039885 0.462523
Si Si3 0.500000 0.250000 0.750000
Si Si4 0.406048 0.898915 0.053590
Si Si5 0.158116 0.731790 0.469898
Si Si6 0.939745 0.414127 0.341347
Si Si7 0.654174 0.184091 0.314117
Si Si8 0.500000 0.083563 0.250000
O O1 0.176475 0.056211 0.091544
O O2 0.292529 0.087226 0.175691
O O3 0.141491 0.121814 0.517790
O O4 0.141478 0.082527 0.387649
O O5 0.250000 0.000000 0.464815
O O6 0.092326 0.959115 0.482319
O O7 0.555777 0.178927 0.705340
O O8 0.481237 0.907701 0.106593
O O9 0.397071 0.794154 0.022082
O O10 0.250000 0.750000 0.500000
O O11 0.154077 0.743082 0.386793
O O12 0.948042 0.510190 0.297549
O O13 0.682540 0.250000 0.250000
O O14 0.561818 0.147218 0.295228
#
# Coordination Sequence:
#
# PCOD9509772 Si02
#       8
#     8  16   4  16  16  16  16   8
#     4  12  22  52  78 104 148 200 244 316 390 438
#     4  12  23  43  72 108 143 178 242 316 374 440
#     4  10  24  52  62 100 150 196 242 308 350 452
#     4  12  22  46  77 105 142 186 253 319 370 437
#     4  12  23  44  76 106 146 192 251 322 384 452
#     4  11  25  45  74 102 141 200 254 301 379 451
#     4  12  27  49  73 112 156 204 246 314 396 472
#     4  11  25  51  69  98 162 202 242 314 392 482
#
# _framework density 22.948387
#
# number of rings (size 3 to 8) (size 9 to 14) (size 15 to 20)
#    0.000    0.320    7.200    1.680    2.240    0.000 
#    8.640    0.800    0.000    0.000    0.000    0.000 
#    0.000    0.000    0.000    0.000    0.000    0.000 
#
# Total GULP energy -279517.713693 kJ/mol
# GULP energy per Si atom -5590.354274 kJ/mol
# Density = 2.289616 g / cm^3
# Si number density = 22.948387 Si / 1000 Ang^3
#
#
#
# Elastic Constant Matrix: (Units=GPa)
#
#
# Indices 1 2 3 4 5 6 
#
# 1 63.2997 27.4283 30.3131 0.0000 0.0000 0.0000
# 2 27.4283 113.6342 42.5506 0.0000 0.0000 0.0000
# 3 30.3131 42.5506 132.6823 0.0000 0.0000 0.0000
# 4 0.0000 0.0000 0.0000 -21.4465 0.0000 0.0000
# 5 0.0000 0.0000 0.0000 0.0000 30.0888 0.0000
# 6 0.0000 0.0000 0.0000 0.0000 0.0000 11.3812
#
#
#
# Elastic Compliance Matrix: (Units=1/GPa)
#
#
# Indices 1 2 3 4 5 6 
#
# 1 0.018783 -0.003326 -0.003225 0.000000 0.000000 0.000000
# 2 -0.003326 0.010590 -0.002636 0.000000 0.000000 0.000000
# 3 -0.003225 -0.002636 0.009119 0.000000 0.000000 0.000000
# 4 0.000000 0.000000 0.000000 -0.046628 0.000000 0.000000
# 5 0.000000 0.000000 0.000000 0.000000 0.033235 0.000000
# 6 0.000000 0.000000 0.000000 0.000000 0.000000 0.087864
#
#
# Mechanical properties :
#
#
# Convention : Reuss Voigt Hill
#
# Bulk Modulus (GPa) = 49.70642 56.68889 53.19766
# Shear Modulus (GPa) = 36.22024 17.95966 27.08995
#
# Velocity S-wave (km/s) = 3.97714 2.80055 3.43953
# Velocity P-wave (km/s) = 6.54196 5.93413 6.24544
#
# Compressibility (1/GPa) = 0.02011812
#
# Stress axis : x y z
#
# Youngs Moduli (GPa) = 53.23845 94.42664 109.66185
#
# Poissons Ratio (x) = 0.31410 0.35361
# Poissons Ratio (y) = 0.17709 0.28910
# Poissons Ratio (z) = 0.17167 0.24893
#
# Static dielectric constant tensor:
#      x y z
#    x 1.875760 0.000000 0.000000 
#    y 0.000000 -17.410140 0.000000 
#    z 0.000000 0.000000 1.928780 
# 
# From -- ./inp_files/39668.got.cif
#   From: 2010.05.17/outbox.cif.g08.bks.cpg/sg68_20_cif.got.tgz:39668.got - 2010.06.03 18:57:09.
