data_PCOD9509334
_publ_section_title
;
Structure prediction by ZEFSAII (Michael W. Deem and Ramdas Pophale) SiO2 
 PCOD9509334
Probable space group: C C C A
;
_chemical_formula_sum "Si O2"
_cell_formula_units_Z 48
_cell_length_a 26.685476
_cell_length_b 5.102658
_cell_length_c 14.447104
_cell_angle_alpha 90.000000
_cell_angle_beta 90.000000
_cell_angle_gamma 90.000000
_cell_volume 1967.216753
_symmetry_space_group_name_H-M "C C C A"
_symmetry_group_IT_number 68
_space_group.IT_coordinate_system_code '2'
_symmetry_cell_setting 'orthorhombic'
loop_
_space_group_symop_operation_xyz
x,y,z
-x,1/2-y,z
x,1/2-y,1/2-z
-x,y,1/2-z
-x,-y,-z
x,1/2+y,-z
-x,1/2+y,1/2+z
x,-y,1/2+z
1/2+x,1/2+y,z
1/2-x,-y,z
1/2+x,-y,1/2-z
1/2-x,1/2+y,1/2-z
1/2-x,1/2-y,-z
1/2+x,y,-z
1/2-x,y,1/2+z
1/2+x,1/2-y,1/2+z
loop_
_atom_site_type_symbol
_atom_site_label
_atom_site_fract_x
_atom_site_fract_y
_atom_site_fract_z
Si Si1 0.392948 0.713648 0.054722
Si Si2 0.216474 0.249610 0.139222
Si Si3 0.540821 0.583325 0.675263
O O1 0.336365 0.751583 0.088387
O O2 0.430096 0.853790 0.126069
O O3 0.400060 0.405498 0.034700
O O4 0.207082 0.250000 0.250000
O O5 0.250000 0.500000 0.116305
O O6 0.250000 0.000000 0.116177
O O7 0.500000 0.750000 0.612861
O O8 0.574925 0.750000 0.750000
O O9 0.500000 0.495257 0.750000
#
# Coordination Sequence:
#
# PCOD9509334 Si02
#       3
#    16  16  16
#     4  12  25  40  69 106 139 179 226 292 362 413
#     4  10  23  44  67  97 134 185 237 284 338 423
#     4   6  18  44  65  94 134 191 232 290 327 417
#
# _framework density 24.399954999999999
#
# number of rings (size 3 to 8) (size 9 to 14) (size 15 to 20)
#    2.000    0.667    0.000    2.000    0.000   12.000 
#    0.000    1.667    0.000    0.000    0.000    0.000 
#    0.000    0.000    0.000    0.000    0.000    0.000 
#
# Total GULP energy -133798.394665 kJ/mol
# GULP energy per Si atom -5574.933111 kJ/mol
# Density = 2.434442 g / cm^3
# Si number density = 24.399955 Si / 1000 Ang^3
#
#
#
# Elastic Constant Matrix: (Units=GPa)
#
#
# Indices 1 2 3 4 5 6 
#
# 1 137.1050 19.7819 30.4246 0.0000 0.0000 0.0000
# 2 19.7819 120.3837 -8.3534 0.0000 0.0000 0.0000
# 3 30.4246 -8.3534 60.2329 0.0000 0.0000 0.0000
# 4 0.0000 0.0000 0.0000 24.9100 0.0000 0.0000
# 5 0.0000 0.0000 0.0000 0.0000 42.1019 0.0000
# 6 0.0000 0.0000 0.0000 0.0000 0.0000 61.4913
#
#
#
# Elastic Compliance Matrix: (Units=1/GPa)
#
#
# Indices 1 2 3 4 5 6 
#
# 1 0.008554 -0.001722 -0.004560 0.000000 0.000000 0.000000
# 2 -0.001722 0.008734 0.002081 0.000000 0.000000 0.000000
# 3 -0.004560 0.002081 0.019194 0.000000 0.000000 0.000000
# 4 0.000000 0.000000 0.000000 0.040144 0.000000 0.000000
# 5 0.000000 0.000000 0.000000 0.000000 0.023752 0.000000
# 6 0.000000 0.000000 0.000000 0.000000 0.000000 0.016262
#
#
# Mechanical properties :
#
#
# Convention : Reuss Voigt Hill
#
# Bulk Modulus (GPa) = 35.61110 44.60310 40.10710
# Shear Modulus (GPa) = 37.20180 44.09187 40.64683
#
# Velocity S-wave (km/s) = 3.90893 4.25555 4.08592
# Velocity P-wave (km/s) = 5.91603 6.51659 6.22356
#
# Compressibility (1/GPa) = 0.02808113
#
# Stress axis : x y z
#
# Youngs Moduli (GPa) = 116.90527 114.49316 52.09981
#
# Poissons Ratio (x) = 0.19716 0.23755
# Poissons Ratio (y) = 0.20131 -0.10843
# Poissons Ratio (z) = 0.53303 -0.23827
#
# Static dielectric constant tensor:
#      x y z
#    x 1.980930 0.000000 0.000000 
#    y 0.000000 2.198150 0.000000 
#    z 0.000000 0.000000 2.136390 
# 
# From -- ./inp_files/25700.got.cif
#   From: 2010.05.17/outbox.cif.g08.bks.cpg/sg68_13_cif.got.tgz:25700.got - 2010.06.03 18:57:09.
