data_PCOD9509647
_publ_section_title
;
Structure prediction by ZEFSAII (Michael W. Deem and Ramdas Pophale) SiO2 
 PCOD9509647
Probable space group: C C C A
;
_chemical_formula_sum "Si O2"
_cell_formula_units_Z 64
_cell_length_a 9.151139
_cell_length_b 29.831651
_cell_length_c 9.998283
_cell_angle_alpha 90.000000
_cell_angle_beta 90.000000
_cell_angle_gamma 90.000000
_cell_volume 2729.467119
_symmetry_space_group_name_H-M "C C C A"
_symmetry_group_IT_number 68
_space_group.IT_coordinate_system_code '2'
_symmetry_cell_setting 'orthorhombic'
loop_
_space_group_symop_operation_xyz
x,y,z
-x,1/2-y,z
x,1/2-y,1/2-z
-x,y,1/2-z
-x,-y,-z
x,1/2+y,-z
-x,1/2+y,1/2+z
x,-y,1/2+z
1/2+x,1/2+y,z
1/2-x,-y,z
1/2+x,-y,1/2-z
1/2-x,1/2+y,1/2-z
1/2-x,1/2-y,-z
1/2+x,y,-z
1/2-x,y,1/2+z
1/2+x,1/2-y,1/2+z
loop_
_atom_site_type_symbol
_atom_site_label
_atom_site_fract_x
_atom_site_fract_y
_atom_site_fract_z
Si Si1 0.500000 0.858087 0.750000
Si Si2 0.666678 0.953457 0.280708
Si Si3 0.818283 0.898274 0.049380
Si Si4 0.768480 0.191209 0.894526
Si Si5 0.500000 0.250000 0.937692
O O1 0.474657 0.888414 0.880175
O O2 0.642981 0.827519 0.767539
O O3 0.500000 0.962512 0.250000
O O4 0.723770 0.917825 0.171222
O O5 0.678730 0.933072 0.428643
O O6 0.750000 0.000000 0.269000
O O7 0.769682 0.851319 0.985814
O O8 0.617359 0.217255 0.865481
O O9 0.889301 0.221109 0.970547
#
# Coordination Sequence:
#
# PCOD9509647 Si02
#       5
#     8  16  16  16   8
#     4  12  24  45  80 110 156 212 254 324 390 471
#     4  12  30  50  82 118 155 202 261 324 392 479
#     4  12  26  50  82 114 159 205 259 316 402 470
#     4  11  23  47  75 112 160 209 260 325 391 465
#     4  10  24  45  73 114 156 202 272 322 386 460
#
# _framework density 23.447800999999998
#
# number of rings (size 3 to 8) (size 9 to 14) (size 15 to 20)
#    0.000    0.500    5.000    2.250    1.750    2.500 
#    0.000    1.250    0.000    0.000    0.000    0.000 
#    0.000    0.000    0.000    0.000    0.000    0.000 
#
# Total GULP energy -179181.519348 kJ/mol
# GULP energy per Si atom -5599.422480 kJ/mol
# Density = 2.339443 g / cm^3
# Si number density = 23.447801 Si / 1000 Ang^3
#
#
#
# Elastic Constant Matrix: (Units=GPa)
#
#
# Indices 1 2 3 4 5 6 
#
# 1 183.9858 68.3463 45.2244 0.0000 0.0000 0.0000
# 2 68.3463 131.0621 37.2623 0.0000 0.0000 0.0000
# 3 45.2244 37.2623 113.6169 0.0000 0.0000 0.0000
# 4 0.0000 0.0000 0.0000 70.7956 0.0000 0.0000
# 5 0.0000 0.0000 0.0000 0.0000 46.5410 0.0000
# 6 0.0000 0.0000 0.0000 0.0000 0.0000 47.0890
#
#
#
# Elastic Compliance Matrix: (Units=1/GPa)
#
#
# Indices 1 2 3 4 5 6 
#
# 1 0.007048 -0.003174 -0.001765 0.000000 0.000000 0.000000
# 2 -0.003174 0.009844 -0.001965 0.000000 0.000000 0.000000
# 3 -0.001765 -0.001965 0.010148 0.000000 0.000000 0.000000
# 4 0.000000 0.000000 0.000000 0.014125 0.000000 0.000000
# 5 0.000000 0.000000 0.000000 0.000000 0.021486 0.000000
# 6 0.000000 0.000000 0.000000 0.000000 0.000000 0.021236
#
#
# Mechanical properties :
#
#
# Convention : Reuss Voigt Hill
#
# Bulk Modulus (GPa) = 75.56685 81.14785 78.35735
# Shear Modulus (GPa) = 48.96895 51.40726 50.18810
#
# Velocity S-wave (km/s) = 4.57489 4.68740 4.63148
# Velocity P-wave (km/s) = 7.75911 7.99866 7.87980
#
# Compressibility (1/GPa) = 0.01323332
#
# Stress axis : x y z
#
# Youngs Moduli (GPa) = 141.88703 101.58807 98.53825
#
# Poissons Ratio (x) = 0.32241 0.17387
# Poissons Ratio (y) = 0.45030 0.19364
# Poissons Ratio (z) = 0.25036 0.19963
#
# Static dielectric constant tensor:
#      x y z
#    x 1.906820 0.000000 0.000000 
#    y 0.000000 1.907720 0.000000 
#    z 0.000000 0.000000 1.895600 
# 
# From -- ./inp_files/10815.got.cif
#   From: 2010.05.17/outbox.cif.g08.bks.cpg/sg68_6_cif.got.tgz:10815.got - 2010.06.03 18:57:09.
