data_PCOD9509708
_publ_section_title
;
Structure prediction by ZEFSAII (Michael W. Deem and Ramdas Pophale) SiO2 
 PCOD9509708
Probable space group: C C C A
;
_chemical_formula_sum "Si O2"
_cell_formula_units_Z 40
_cell_length_a 9.040075
_cell_length_b 9.360334
_cell_length_c 15.512546
_cell_angle_alpha 90.000000
_cell_angle_beta 90.000000
_cell_angle_gamma 90.000000
_cell_volume 1312.642500
_symmetry_space_group_name_H-M "C C C A"
_symmetry_group_IT_number 68
_space_group.IT_coordinate_system_code '2'
_symmetry_cell_setting 'orthorhombic'
loop_
_space_group_symop_operation_xyz
x,y,z
-x,1/2-y,z
x,1/2-y,1/2-z
-x,y,1/2-z
-x,-y,-z
x,1/2+y,-z
-x,1/2+y,1/2+z
x,-y,1/2+z
1/2+x,1/2+y,z
1/2-x,-y,z
1/2+x,-y,1/2-z
1/2-x,1/2+y,1/2-z
1/2-x,1/2-y,-z
1/2+x,y,-z
1/2-x,y,1/2+z
1/2+x,1/2-y,1/2+z
loop_
_atom_site_type_symbol
_atom_site_label
_atom_site_fract_x
_atom_site_fract_y
_atom_site_fract_z
Si Si1 0.311672 0.184927 0.103128
Si Si2 0.250000 0.500000 0.139945
Si Si3 0.500000 0.971712 0.750000
Si Si4 0.000000 0.250000 0.451950
O O1 0.322850 0.357416 0.104194
O O2 0.391920 0.120851 0.186717
O O3 0.134595 0.162810 0.094321
O O4 0.400877 0.148552 0.015513
O O5 0.384998 0.562520 0.195496
#
# Coordination Sequence:
#
# PCOD9509708 Si02
#       4
#    16   8   8   8
#     4  11  24  49  69 103 148 187 239 308 349 437
#     4  12  24  42  74 102 136 202 234 304 362 422
#     4  12  27  50  71 108 155 180 256 308 345 432
#     4  10  24  47  71 100 152 188 226 308 370 410
#
# _framework density 30.472885000000002
#
# number of rings (size 3 to 8) (size 9 to 14) (size 15 to 20)
#    0.000    0.800    4.000    2.400    5.600    1.600 
#    0.000    0.000    0.000    0.000    0.000    0.000 
#    0.000    0.000    0.000    0.000    0.000    0.000 
#
# Total GULP energy -111812.558332 kJ/mol
# GULP energy per Si atom -5590.627917 kJ/mol
# Density = 3.040353 g / cm^3
# Si number density = 30.472885 Si / 1000 Ang^3
#
#
#
# Elastic Constant Matrix: (Units=GPa)
#
#
# Indices 1 2 3 4 5 6 
#
# 1 334.3700 5.4360 86.9780 0.0000 0.0000 0.0000
# 2 5.4360 116.6301 14.7225 0.0000 0.0000 0.0000
# 3 86.9780 14.7225 94.5806 0.0000 0.0000 0.0000
# 4 0.0000 0.0000 0.0000 27.9821 0.0000 0.0000
# 5 0.0000 0.0000 0.0000 0.0000 102.4140 0.0000
# 6 0.0000 0.0000 0.0000 0.0000 0.0000 43.8788
#
#
#
# Elastic Compliance Matrix: (Units=1/GPa)
#
#
# Indices 1 2 3 4 5 6 
#
# 1 0.003940 0.000279 -0.003667 0.000000 0.000000 0.000000
# 2 0.000279 0.008766 -0.001621 0.000000 0.000000 0.000000
# 3 -0.003667 -0.001621 0.014197 0.000000 0.000000 0.000000
# 4 0.000000 0.000000 0.000000 0.035737 0.000000 0.000000
# 5 0.000000 0.000000 0.000000 0.000000 0.009764 0.000000
# 6 0.000000 0.000000 0.000000 0.000000 0.000000 0.022790
#
#
# Mechanical properties :
#
#
# Convention : Reuss Voigt Hill
#
# Bulk Modulus (GPa) = 59.22228 84.42816 71.82522
# Shear Modulus (GPa) = 45.10982 64.08458 54.59720
#
# Velocity S-wave (km/s) = 3.85168 4.59083 4.23740
# Velocity P-wave (km/s) = 6.26555 7.47443 6.89653
#
# Compressibility (1/GPa) = 0.01688554
#
# Stress axis : x y z
#
# Youngs Moduli (GPa) = 253.80924 114.08024 70.43571
#
# Poissons Ratio (x) = -0.03185 0.25827
# Poissons Ratio (y) = -0.07087 0.11419
# Poissons Ratio (z) = 0.93065 0.18495
#
# Static dielectric constant tensor:
#      x y z
#    x 2.392400 0.000000 0.000000 
#    y 0.000000 2.308160 0.000000 
#    z 0.000000 0.000000 2.581280 
# 
# From -- ./inp_files/27307.got.cif
#   From: 2010.05.17/outbox.cif.g08.bks.cpg/sg68_14_cif.got.tgz:27307.got - 2010.06.03 18:57:09.
