data_PCOD9509741
_publ_section_title
;
Structure prediction by ZEFSAII (Michael W. Deem and Ramdas Pophale) SiO2 
 PCOD9509741
Probable space group: C C C A
;
_chemical_formula_sum "Si O2"
_cell_formula_units_Z 116
_cell_length_a 22.622867
_cell_length_b 7.550733
_cell_length_c 27.079191
_cell_angle_alpha 90.000000
_cell_angle_beta 90.000000
_cell_angle_gamma 90.000000
_cell_volume 4625.646513
_symmetry_space_group_name_H-M "C C C A"
_symmetry_group_IT_number 68
_space_group.IT_coordinate_system_code '2'
_symmetry_cell_setting 'orthorhombic'
loop_
_space_group_symop_operation_xyz
x,y,z
-x,1/2-y,z
x,1/2-y,1/2-z
-x,y,1/2-z
-x,-y,-z
x,1/2+y,-z
-x,1/2+y,1/2+z
x,-y,1/2+z
1/2+x,1/2+y,z
1/2-x,-y,z
1/2+x,-y,1/2-z
1/2-x,1/2+y,1/2-z
1/2-x,1/2-y,-z
1/2+x,y,-z
1/2-x,y,1/2+z
1/2+x,1/2-y,1/2+z
loop_
_atom_site_type_symbol
_atom_site_label
_atom_site_fract_x
_atom_site_fract_y
_atom_site_fract_z
Si Si1 0.423206 0.072797 0.382855
Si Si2 0.647570 0.725964 0.344599
Si Si3 0.978615 0.043981 0.945902
Si Si4 0.900039 0.105226 0.816919
Si Si5 0.000000 0.250000 0.750000
Si Si6 0.655093 0.100939 0.948513
Si Si7 0.181188 0.798236 0.441700
Si Si8 0.729303 0.706589 0.659641
O O1 0.480922 0.971528 0.401684
O O2 0.425648 0.271374 0.361138
O O3 0.380318 0.103351 0.429656
O O4 0.391388 0.948791 0.342999
O O5 0.661273 0.764701 0.403121
O O6 0.710884 0.711320 0.317917
O O7 0.612885 0.901151 0.327961
O O8 0.000000 0.250000 0.941801
O O9 0.913590 0.960129 0.947487
O O10 0.000000 0.000000 0.000000
O O11 0.952836 0.127850 0.778565
O O12 0.833223 0.187321 0.811612
O O13 0.683426 0.912561 0.938584
O O14 0.684833 0.165165 0.999592
O O15 0.216119 0.824128 0.389939
O O16 0.750000 0.500000 0.651152
#
# Coordination Sequence:
#
# PCOD9509741 Si02
#       8
#    16  16  16  16   4  16  16  16
#     4  11  23  40  66  98 132 189 235 289 359 417
#     4  11  23  43  72 100 136 191 239 285 342 419
#     4  12  23  36  55  85 135 190 247 305 348 409
#     4  10  24  48  75 104 140 173 223 276 367 446
#     4  12  28  52  86 116 144 174 200 298 378 456
#     4  12  21  35  54  90 138 186 255 297 340 388
#     4  11  21  36  56  91 136 188 253 304 343 384
#     4   9  19  44  71  94 136 194 240 288 348 415
#
# _framework density 25.077576000000001
#
# number of rings (size 3 to 8) (size 9 to 14) (size 15 to 20)
#    0.000    1.103    6.897    0.828    4.828    2.759 
#    0.000    1.379    9.103    0.000    0.000    0.000 
#    0.000    0.000    0.000    0.000    0.000    0.000 
#
# Total GULP energy -323124.440920 kJ/mol
# GULP energy per Si atom -5571.111050 kJ/mol
# Density = 2.502050 g / cm^3
# Si number density = 25.077576 Si / 1000 Ang^3
#
#
#
# Elastic Constant Matrix: (Units=GPa)
#
#
# Indices 1 2 3 4 5 6 
#
# 1 188.1113 31.4414 45.8642 0.0000 0.0000 0.0000
# 2 31.4414 69.4535 5.1756 0.0000 0.0000 0.0000
# 3 45.8642 5.1756 45.1794 0.0000 0.0000 0.0000
# 4 0.0000 0.0000 0.0000 6.6968 0.0000 0.0000
# 5 0.0000 0.0000 0.0000 0.0000 8.5618 0.0000
# 6 0.0000 0.0000 0.0000 0.0000 0.0000 16.7150
#
#
#
# Elastic Compliance Matrix: (Units=1/GPa)
#
#
# Indices 1 2 3 4 5 6 
#
# 1 0.007599 -0.002890 -0.007383 0.000000 0.000000 0.000000
# 2 -0.002890 0.015621 0.001144 0.000000 0.000000 0.000000
# 3 -0.007383 0.001144 0.029498 0.000000 0.000000 0.000000
# 4 0.000000 0.000000 0.000000 0.149326 0.000000 0.000000
# 5 0.000000 0.000000 0.000000 0.000000 0.116798 0.000000
# 6 0.000000 0.000000 0.000000 0.000000 0.000000 0.059827
#
#
# Mechanical properties :
#
#
# Convention : Reuss Voigt Hill
#
# Bulk Modulus (GPa) = 29.01880 51.96741 40.49311
# Shear Modulus (GPa) = 12.24248 21.07889 16.66068
#
# Velocity S-wave (km/s) = 2.21189 2.90237 2.58033
# Velocity P-wave (km/s) = 4.25676 5.65679 5.00596
#
# Compressibility (1/GPa) = 0.03446042
#
# Stress axis : x y z
#
# Youngs Moduli (GPa) = 131.59290 64.01592 33.90042
#
# Poissons Ratio (x) = 0.18500 0.25030
# Poissons Ratio (y) = 0.38030 -0.03879
# Poissons Ratio (z) = 0.97159 -0.07325
#
# Static dielectric constant tensor:
#      x y z
#    x 2.158790 0.000000 0.000000 
#    y 0.000000 2.015830 0.000000 
#    z 0.000000 0.000000 2.424990 
# 
# From -- ./inp_files/52196.got.cif
#   From: 2010.05.17/outbox.cif.g08.bks.cpg/sg68_27_cif.got.tgz:52196.got - 2010.06.03 18:57:09.
