data_PCOD9509635
_publ_section_title
;
Structure prediction by ZEFSAII (Michael W. Deem and Ramdas Pophale) SiO2 
 PCOD9509635
Probable space group: C C C A
;
_chemical_formula_sum "Si O2"
_cell_formula_units_Z 64
_cell_length_a 16.366146
_cell_length_b 17.578174
_cell_length_c 9.993300
_cell_angle_alpha 90.000000
_cell_angle_beta 90.000000
_cell_angle_gamma 90.000000
_cell_volume 2874.942118
_symmetry_space_group_name_H-M "C C C A"
_symmetry_group_IT_number 68
_space_group.IT_coordinate_system_code '2'
_symmetry_cell_setting 'orthorhombic'
loop_
_space_group_symop_operation_xyz
x,y,z
-x,1/2-y,z
x,1/2-y,1/2-z
-x,y,1/2-z
-x,-y,-z
x,1/2+y,-z
-x,1/2+y,1/2+z
x,-y,1/2+z
1/2+x,1/2+y,z
1/2-x,-y,z
1/2+x,-y,1/2-z
1/2-x,1/2+y,1/2-z
1/2-x,1/2-y,-z
1/2+x,y,-z
1/2-x,y,1/2+z
1/2+x,1/2-y,1/2+z
loop_
_atom_site_type_symbol
_atom_site_label
_atom_site_fract_x
_atom_site_fract_y
_atom_site_fract_z
Si Si1 0.413592 0.685698 0.867663
Si Si2 0.688270 0.710672 0.394714
Si Si3 0.792004 0.423420 0.785395
Si Si4 0.535633 0.948709 0.613626
O O1 0.412712 0.750000 0.750000
O O2 0.340663 0.627692 0.823481
O O3 0.505091 0.635085 0.614527
O O4 0.392908 0.713210 0.016364
O O5 0.682291 0.750000 0.250000
O O6 0.750000 0.750000 0.500000
O O7 0.725180 0.628112 0.359399
O O8 0.750000 0.500000 0.733066
O O9 0.867026 0.444573 0.883741
O O10 0.500000 0.983754 0.750000
O O11 0.500000 0.000000 0.500000
#
# Coordination Sequence:
#
# PCOD9509635 Si02
#       4
#    16  16  16  16
#     4  11  23  45  71 100 140 191 237 290 365 434
#     4  12  22  43  68 103 141 177 238 293 348 428
#     4  11  23  40  71 102 136 183 237 292 354 418
#     4  10  24  45  67  99 141 184 235 295 361 429
#
# _framework density 22.261316999999998
#
# number of rings (size 3 to 8) (size 9 to 14) (size 15 to 20)
#    0.000    1.000    5.000    1.500    0.000   10.500 
#    4.500    0.000    0.000    3.000    0.000    0.000 
#    0.000    0.000    0.000    0.000    0.000    0.000 
#
# Total GULP energy -178651.649806 kJ/mol
# GULP energy per Si atom -5582.864056 kJ/mol
# Density = 2.221065 g / cm^3
# Si number density = 22.261317 Si / 1000 Ang^3
#
#
#
# Elastic Constant Matrix: (Units=GPa)
#
#
# Indices 1 2 3 4 5 6 
#
# 1 91.0794 51.9407 35.3859 0.0000 0.0000 0.0000
# 2 51.9407 135.6221 64.6746 0.0000 0.0000 0.0000
# 3 35.3859 64.6746 169.3818 0.0000 0.0000 0.0000
# 4 0.0000 0.0000 0.0000 30.7867 0.0000 0.0000
# 5 0.0000 0.0000 0.0000 0.0000 29.3468 0.0000
# 6 0.0000 0.0000 0.0000 0.0000 0.0000 33.7189
#
#
#
# Elastic Compliance Matrix: (Units=1/GPa)
#
#
# Indices 1 2 3 4 5 6 
#
# 1 0.014210 -0.004923 -0.001089 0.000000 0.000000 0.000000
# 2 -0.004923 0.010720 -0.003065 0.000000 0.000000 0.000000
# 3 -0.001089 -0.003065 0.007302 0.000000 0.000000 0.000000
# 4 0.000000 0.000000 0.000000 0.032482 0.000000 0.000000
# 5 0.000000 0.000000 0.000000 0.000000 0.034075 0.000000
# 6 0.000000 0.000000 0.000000 0.000000 0.000000 0.029657
#
#
# Mechanical properties :
#
#
# Convention : Reuss Voigt Hill
#
# Bulk Modulus (GPa) = 71.03031 77.78728 74.40879
# Shear Modulus (GPa) = 33.04874 35.04263 34.04568
#
# Velocity S-wave (km/s) = 3.85721 3.97186 3.91495
# Velocity P-wave (km/s) = 7.19821 7.48685 7.34394
#
# Compressibility (1/GPa) = 0.01407850
#
# Stress axis : x y z
#
# Youngs Moduli (GPa) = 70.37351 93.28066 136.95681
#
# Poissons Ratio (x) = 0.45920 0.14914
# Poissons Ratio (y) = 0.34644 0.41976
# Poissons Ratio (z) = 0.07663 0.28589
#
# Static dielectric constant tensor:
#      x y z
#    x 1.907980 0.000000 0.000000 
#    y 0.000000 1.934680 0.000000 
#    z 0.000000 0.000000 1.840360 
# 
# From -- ./inp_files/7736.got.cif
#   From: 2010.05.17/outbox.cif.g08.bks.cpg/sg68_4_cif.got.tgz:7736.got - 2010.06.03 18:57:09.
