data_PCOD9509524
_publ_section_title
;
Structure prediction by ZEFSAII (Michael W. Deem and Ramdas Pophale) SiO2 
 PCOD9509524
Probable space group: C C C A
;
_chemical_formula_sum "Si O2"
_cell_formula_units_Z 92
_cell_length_a 24.117800
_cell_length_b 19.541161
_cell_length_c 8.570164
_cell_angle_alpha 90.000000
_cell_angle_beta 90.000000
_cell_angle_gamma 90.000000
_cell_volume 4039.030987
_symmetry_space_group_name_H-M "C C C A"
_symmetry_group_IT_number 68
_space_group.IT_coordinate_system_code '2'
_symmetry_cell_setting 'orthorhombic'
loop_
_space_group_symop_operation_xyz
x,y,z
-x,1/2-y,z
x,1/2-y,1/2-z
-x,y,1/2-z
-x,-y,-z
x,1/2+y,-z
-x,1/2+y,1/2+z
x,-y,1/2+z
1/2+x,1/2+y,z
1/2-x,-y,z
1/2+x,-y,1/2-z
1/2-x,1/2+y,1/2-z
1/2-x,1/2-y,-z
1/2+x,y,-z
1/2-x,y,1/2+z
1/2+x,1/2-y,1/2+z
loop_
_atom_site_type_symbol
_atom_site_label
_atom_site_fract_x
_atom_site_fract_y
_atom_site_fract_z
Si Si1 0.696468 0.151153 0.110881
Si Si2 0.444366 0.480344 0.656928
Si Si3 0.430808 0.159096 0.989732
Si Si4 0.110722 0.750000 0.250000
Si Si5 0.365281 0.038084 0.556419
Si Si6 0.500000 0.750000 0.250000
Si Si7 0.188257 0.389148 0.973681
O O1 0.654158 0.214836 0.128559
O O2 0.670869 0.102957 0.978865
O O3 0.693961 0.122185 0.287562
O O4 0.760558 0.146903 0.060892
O O5 0.500000 0.492983 0.750000
O O6 0.453349 0.418050 0.534708
O O7 0.417364 0.541387 0.561497
O O8 0.395058 0.463606 0.778318
O O9 0.462158 0.204206 0.863030
O O10 0.428009 0.195842 0.158319
O O11 0.365875 0.147876 0.960332
O O12 0.327301 0.970751 0.519557
#
# Coordination Sequence:
#
# PCOD9509524 Si02
#       7
#    16  16  16   8  16   4  16
#     4  11  24  42  70 102 138 191 225 292 357 421
#     4  11  23  44  68 102 140 181 234 292 354 416
#     4  10  25  44  66 100 138 180 241 289 346 422
#     4  10  26  48  66  98 148 186 242 288 350 428
#     4  11  23  41  67 102 141 177 228 293 357 431
#     4  12  24  44  72 100 136 192 236 290 354 406
#     4  10  24  42  66 102 138 174 237 289 362 421
#
# _framework density 22.777740999999999
#
# number of rings (size 3 to 8) (size 9 to 14) (size 15 to 20)
#    0.000    1.391    2.609    1.043    7.304    5.217 
#    0.000    1.739    0.000    0.000    0.000    0.000 
#    0.000    0.000    0.000    0.000    0.000    0.000 
#
# Total GULP energy -256520.427844 kJ/mol
# GULP energy per Si atom -5576.531040 kJ/mol
# Density = 2.272590 g / cm^3
# Si number density = 22.777741 Si / 1000 Ang^3
#
#
#
# Elastic Constant Matrix: (Units=GPa)
#
#
# Indices 1 2 3 4 5 6 
#
# 1 71.0990 -6.6058 33.4111 0.0000 0.0000 0.0000
# 2 -6.6058 22.6656 -8.9882 0.0000 0.0000 0.0000
# 3 33.4111 -8.9882 74.8919 0.0000 0.0000 0.0000
# 4 0.0000 0.0000 0.0000 43.9052 0.0000 0.0000
# 5 0.0000 0.0000 0.0000 0.0000 45.1878 0.0000
# 6 0.0000 0.0000 0.0000 0.0000 0.0000 2.4788
#
#
#
# Elastic Compliance Matrix: (Units=1/GPa)
#
#
# Indices 1 2 3 4 5 6 
#
# 1 0.017895 0.002152 -0.007725 0.000000 0.000000 0.000000
# 2 0.002152 0.046583 0.004631 0.000000 0.000000 0.000000
# 3 -0.007725 0.004631 0.017355 0.000000 0.000000 0.000000
# 4 0.000000 0.000000 0.000000 0.022776 0.000000 0.000000
# 5 0.000000 0.000000 0.000000 0.000000 0.022130 0.000000
# 6 0.000000 0.000000 0.000000 0.000000 0.000000 0.403417
#
#
# Mechanical properties :
#
#
# Convention : Reuss Voigt Hill
#
# Bulk Modulus (GPa) = 12.50813 22.69895 17.60354
# Shear Modulus (GPa) = 8.94950 28.37032 18.65991
#
# Velocity S-wave (km/s) = 1.98434 3.53303 2.86530
# Velocity P-wave (km/s) = 3.27924 5.16044 4.32340
#
# Compressibility (1/GPa) = 0.07994798
#
# Stress axis : x y z
#
# Youngs Moduli (GPa) = 55.88133 21.46697 57.62121
#
# Poissons Ratio (x) = -0.04620 0.44513
# Poissons Ratio (y) = -0.12026 -0.26683
# Poissons Ratio (z) = 0.43169 -0.09941
#
# Static dielectric constant tensor:
#      x y z
#    x 1.882050 0.000000 0.000000 
#    y 0.000000 1.915640 0.000000 
#    z 0.000000 0.000000 2.543080 
# 
# From -- ./inp_files/7342.got.cif
#   From: 2010.05.17/outbox.cif.g08.bks.cpg/sg68_4_cif.got.tgz:7342.got - 2010.06.03 18:57:09.
