data_PCOD9509492
_publ_section_title
;
Structure prediction by ZEFSAII (Michael W. Deem and Ramdas Pophale) SiO2 
 PCOD9509492
Probable space group: C C C A
;
_chemical_formula_sum "Si O2"
_cell_formula_units_Z 56
_cell_length_a 26.016164
_cell_length_b 17.688517
_cell_length_c 5.180093
_cell_angle_alpha 90.000000
_cell_angle_beta 90.000000
_cell_angle_gamma 90.000000
_cell_volume 2383.813318
_symmetry_space_group_name_H-M "C C C A"
_symmetry_group_IT_number 68
_space_group.IT_coordinate_system_code '2'
_symmetry_cell_setting 'orthorhombic'
loop_
_space_group_symop_operation_xyz
x,y,z
-x,1/2-y,z
x,1/2-y,1/2-z
-x,y,1/2-z
-x,-y,-z
x,1/2+y,-z
-x,1/2+y,1/2+z
x,-y,1/2+z
1/2+x,1/2+y,z
1/2-x,-y,z
1/2+x,-y,1/2-z
1/2-x,1/2+y,1/2-z
1/2-x,1/2-y,-z
1/2+x,y,-z
1/2-x,y,1/2+z
1/2+x,1/2-y,1/2+z
loop_
_atom_site_type_symbol
_atom_site_label
_atom_site_fract_x
_atom_site_fract_y
_atom_site_fract_z
Si Si1 0.349169 0.832583 0.373013
Si Si2 0.307072 0.467276 0.901369
Si Si3 0.556624 0.053876 0.695979
Si Si4 0.787300 0.250000 0.750000
O O1 0.355430 0.750000 0.250000
O O2 0.308418 0.883810 0.212493
O O3 0.400729 0.881031 0.336473
O O4 0.326188 0.816965 0.658464
O O5 0.332046 0.518488 0.677500
O O6 0.250000 0.500000 0.942864
O O7 0.500000 0.088588 0.750000
O O8 0.560524 0.002489 0.440350
O O9 0.750000 0.250000 0.500000
#
# Coordination Sequence:
#
# PCOD9509492 Si02
#       4
#    16  16  16   8
#     4  12  28  45  75 109 156 198 256 325 402 465
#     4  10  24  41  64  91 132 190 252 298 359 445
#     4  10  24  49  81 112 148 198 261 326 399 483
#     4  12  30  46  66 103 159 208 258 308 378 470
#
# _framework density 23.491772000000001
#
# number of rings (size 3 to 8) (size 9 to 14) (size 15 to 20)
#    0.000    1.143    1.429    1.714   16.000    0.571 
#    0.000    0.000    0.000    0.000    0.000    0.000 
#    0.000    0.000    0.000    0.000    0.000    0.000 
#
# Total GULP energy -156359.273097 kJ/mol
# GULP energy per Si atom -5584.259753 kJ/mol
# Density = 2.343830 g / cm^3
# Si number density = 23.491772 Si / 1000 Ang^3
#
#
#
# Elastic Constant Matrix: (Units=GPa)
#
#
# Indices 1 2 3 4 5 6 
#
# 1 166.7414 65.7274 38.6873 0.0000 0.0000 0.0000
# 2 65.7274 192.3990 51.5414 0.0000 0.0000 0.0000
# 3 38.6873 51.5414 192.2068 0.0000 0.0000 0.0000
# 4 0.0000 0.0000 0.0000 48.8991 0.0000 0.0000
# 5 0.0000 0.0000 0.0000 0.0000 20.1268 0.0000
# 6 0.0000 0.0000 0.0000 0.0000 0.0000 55.6224
#
#
#
# Elastic Compliance Matrix: (Units=1/GPa)
#
#
# Indices 1 2 3 4 5 6 
#
# 1 0.007052 -0.002186 -0.000833 0.000000 0.000000 0.000000
# 2 -0.002186 0.006277 -0.001243 0.000000 0.000000 0.000000
# 3 -0.000833 -0.001243 0.005704 0.000000 0.000000 0.000000
# 4 0.000000 0.000000 0.000000 0.020450 0.000000 0.000000
# 5 0.000000 0.000000 0.000000 0.000000 0.049685 0.000000
# 6 0.000000 0.000000 0.000000 0.000000 0.000000 0.017978
#
#
# Mechanical properties :
#
#
# Convention : Reuss Voigt Hill
#
# Bulk Modulus (GPa) = 95.16244 95.91772 95.54008
# Shear Modulus (GPa) = 41.95501 51.28905 46.62203
#
# Velocity S-wave (km/s) = 4.23063 4.67762 4.45973
# Velocity P-wave (km/s) = 8.02877 8.37213 8.20224
#
# Compressibility (1/GPa) = 0.01050835
#
# Stress axis : x y z
#
# Youngs Moduli (GPa) = 141.79677 159.30206 175.31981
#
# Poissons Ratio (x) = 0.34823 0.14610
# Poissons Ratio (y) = 0.30997 0.21798
# Poissons Ratio (z) = 0.11816 0.19806
#
# Static dielectric constant tensor:
#      x y z
#    x 2.162550 0.000000 0.000000 
#    y 0.000000 1.909070 0.000000 
#    z 0.000000 0.000000 2.012740 
# 
# From -- ./inp_files/984.got.cif
#   From: 2010.05.17/outbox.cif.g08.bks.cpg/sg68_1_cif.got.tgz:984.got - 2010.06.03 18:57:09.
