data_PCOD9509388
_publ_section_title
;
Structure prediction by ZEFSAII (Michael W. Deem and Ramdas Pophale) SiO2 
 PCOD9509388
Probable space group: C C C A
;
_chemical_formula_sum "Si O2"
_cell_formula_units_Z 64
_cell_length_a 11.665939
_cell_length_b 18.897799
_cell_length_c 11.963460
_cell_angle_alpha 90.000000
_cell_angle_beta 90.000000
_cell_angle_gamma 90.000000
_cell_volume 2637.471215
_symmetry_space_group_name_H-M "C C C A"
_symmetry_group_IT_number 68
_space_group.IT_coordinate_system_code '2'
_symmetry_cell_setting 'orthorhombic'
loop_
_space_group_symop_operation_xyz
x,y,z
-x,1/2-y,z
x,1/2-y,1/2-z
-x,y,1/2-z
-x,-y,-z
x,1/2+y,-z
-x,1/2+y,1/2+z
x,-y,1/2+z
1/2+x,1/2+y,z
1/2-x,-y,z
1/2+x,-y,1/2-z
1/2-x,1/2+y,1/2-z
1/2-x,1/2-y,-z
1/2+x,y,-z
1/2-x,y,1/2+z
1/2+x,1/2-y,1/2+z
loop_
_atom_site_type_symbol
_atom_site_label
_atom_site_fract_x
_atom_site_fract_y
_atom_site_fract_z
Si Si1 0.909055 0.349846 0.340250
Si Si2 0.132010 0.221670 0.561792
Si Si3 0.650793 0.649628 0.788636
Si Si4 0.115414 0.004829 0.922294
O O1 0.933051 0.313946 0.458361
O O2 0.783427 0.331131 0.301022
O O3 0.901031 0.434264 0.351049
O O4 0.000000 0.328975 0.250000
O O5 0.250000 0.250000 0.500000
O O6 0.137214 0.159962 0.656173
O O7 0.094522 0.289995 0.633929
O O8 0.619169 0.574661 0.843942
O O9 0.250000 0.000000 0.970508
O O10 0.000000 0.000000 0.000000
#
# Coordination Sequence:
#
# PCOD9509388 Si02
#       4
#    16  16  16  16
#     4  11  26  44  69 102 139 183 235 295 359 431
#     4  11  24  43  68  98 137 182 232 291 355 429
#     4  10  23  46  70  99 138 188 239 292 358 430
#     4  10  23  45  73 106 144 188 240 298 361 428
#
# _framework density 24.265667000000001
#
# number of rings (size 3 to 8) (size 9 to 14) (size 15 to 20)
#    0.000    1.500    0.000    3.750    0.000   14.500 
#    0.000    7.500    0.000    0.000    0.000    0.000 
#    0.000    0.000    0.000    0.000    0.000    0.000 
#
# Total GULP energy -178495.469279 kJ/mol
# GULP energy per Si atom -5577.983415 kJ/mol
# Density = 2.421044 g / cm^3
# Si number density = 24.265667 Si / 1000 Ang^3
#
#
#
# Elastic Constant Matrix: (Units=GPa)
#
#
# Indices 1 2 3 4 5 6 
#
# 1 186.5632 46.2381 98.1294 0.0000 0.0000 0.0000
# 2 46.2381 170.1648 76.1153 0.0000 0.0000 0.0000
# 3 98.1294 76.1153 230.6814 0.0000 0.0000 0.0000
# 4 0.0000 0.0000 0.0000 32.7692 0.0000 0.0000
# 5 0.0000 0.0000 0.0000 0.0000 55.1310 0.0000
# 6 0.0000 0.0000 0.0000 0.0000 0.0000 28.3629
#
#
#
# Elastic Compliance Matrix: (Units=1/GPa)
#
#
# Indices 1 2 3 4 5 6 
#
# 1 0.006969 -0.000666 -0.002745 0.000000 0.000000 0.000000
# 2 -0.000666 0.006958 -0.002013 0.000000 0.000000 0.000000
# 3 -0.002745 -0.002013 0.006167 0.000000 0.000000 0.000000
# 4 0.000000 0.000000 0.000000 0.030516 0.000000 0.000000
# 5 0.000000 0.000000 0.000000 0.000000 0.018139 0.000000
# 6 0.000000 0.000000 0.000000 0.000000 0.000000 0.035257
#
#
# Mechanical properties :
#
#
# Convention : Reuss Voigt Hill
#
# Bulk Modulus (GPa) = 108.14381 114.26388 111.20384
# Shear Modulus (GPa) = 42.39646 47.71438 45.05542
#
# Velocity S-wave (km/s) = 4.18446 4.43915 4.31368
# Velocity P-wave (km/s) = 8.24680 8.57121 8.41057
#
# Compressibility (1/GPa) = 0.00924695
#
# Stress axis : x y z
#
# Youngs Moduli (GPa) = 143.49573 143.72359 162.16321
#
# Poissons Ratio (x) = 0.09570 0.44510
# Poissons Ratio (y) = 0.09555 0.32636
# Poissons Ratio (z) = 0.39386 0.28925
#
# Static dielectric constant tensor:
#      x y z
#    x 1.967430 0.000000 0.000000 
#    y 0.000000 1.878790 0.000000 
#    z 0.000000 0.000000 1.964530 
# 
# From -- ./inp_files/11542.got.cif
#   From: 2010.05.17/outbox.cif.g08.bks.cpg/sg68_6_cif.got.tgz:11542.got - 2010.06.03 18:57:09.
