data_PCOD9509938
_publ_section_title
;
Structure prediction by ZEFSAII (Michael W. Deem and Ramdas Pophale) SiO2 
 PCOD9509938
Probable space group: C C C A
;
_chemical_formula_sum "Si O2"
_cell_formula_units_Z 84
_cell_length_a 25.966401
_cell_length_b 14.086798
_cell_length_c 9.841430
_cell_angle_alpha 90.000000
_cell_angle_beta 90.000000
_cell_angle_gamma 90.000000
_cell_volume 3599.832176
_symmetry_space_group_name_H-M "C C C A"
_symmetry_group_IT_number 68
_space_group.IT_coordinate_system_code '2'
_symmetry_cell_setting 'orthorhombic'
loop_
_space_group_symop_operation_xyz
x,y,z
-x,1/2-y,z
x,1/2-y,1/2-z
-x,y,1/2-z
-x,-y,-z
x,1/2+y,-z
-x,1/2+y,1/2+z
x,-y,1/2+z
1/2+x,1/2+y,z
1/2-x,-y,z
1/2+x,-y,1/2-z
1/2-x,1/2+y,1/2-z
1/2-x,1/2-y,-z
1/2+x,y,-z
1/2-x,y,1/2+z
1/2+x,1/2-y,1/2+z
loop_
_atom_site_type_symbol
_atom_site_label
_atom_site_fract_x
_atom_site_fract_y
_atom_site_fract_z
Si Si1 0.862480 0.343806 0.036209
Si Si2 0.443168 0.364453 0.731886
Si Si3 0.732036 0.903605 0.331959
Si Si4 0.500000 0.750000 0.750000
Si Si5 0.086838 0.348503 0.930777
Si Si6 0.334362 0.439699 0.227147
O O1 0.883335 0.248604 0.968583
O O2 0.857136 0.419492 0.917977
O O3 0.901533 0.381689 0.150857
O O4 0.804456 0.330459 0.093276
O O5 0.447701 0.250000 0.750000
O O6 0.500000 0.406440 0.750000
O O7 0.426724 0.388602 0.579133
O O8 0.784290 0.873335 0.260422
O O9 0.750000 0.000000 0.416283
O O10 0.692056 0.957156 0.232069
O O11 0.536653 0.814830 0.845537
O O12 0.123251 0.413310 0.838715
#
# Coordination Sequence:
#
# PCOD9509938 Si02
#       6
#    16  16  16   4  16  16
#     4  11  19  38  64  89 125 162 209 262 308 372
#     4   9  20  35  56  89 122 158 193 252 318 367
#     4   8  23  37  59  86 121 167 207 253 312 367
#     4  12  20  36  66  96 124 168 202 258 318 372
#     4  11  21  36  63  94 126 159 208 260 313 371
#     4   9  21  38  59  92 118 164 212 253 309 377
#
# _framework density 23.334422
#
# number of rings (size 3 to 8) (size 9 to 14) (size 15 to 20)
#    1.143    0.952    1.905    2.286    2.667    3.810 
#    0.000    3.810    2.095    3.429    0.000    0.000 
#    0.000    0.000    0.000    0.000    0.000    0.000 
#
# Total GULP energy -234208.969762 kJ/mol
# GULP energy per Si atom -5576.404042 kJ/mol
# Density = 2.328131 g / cm^3
# Si number density = 23.334422 Si / 1000 Ang^3
#
#
#
# Elastic Constant Matrix: (Units=GPa)
#
#
# Indices 1 2 3 4 5 6 
#
# 1 173.5727 37.5451 91.1286 0.0000 0.0000 0.0000
# 2 37.5451 44.2245 15.2526 0.0000 0.0000 0.0000
# 3 91.1286 15.2526 161.1305 0.0000 0.0000 0.0000
# 4 0.0000 0.0000 0.0000 -5.7740 0.0000 0.0000
# 5 0.0000 0.0000 0.0000 0.0000 32.4201 0.0000
# 6 0.0000 0.0000 0.0000 0.0000 0.0000 37.3326
#
#
#
# Elastic Compliance Matrix: (Units=1/GPa)
#
#
# Indices 1 2 3 4 5 6 
#
# 1 0.009757 -0.006596 -0.004894 0.000000 0.000000 0.000000
# 2 -0.006596 0.027834 0.001096 0.000000 0.000000 0.000000
# 3 -0.004894 0.001096 0.008870 0.000000 0.000000 0.000000
# 4 0.000000 0.000000 0.000000 -0.173191 0.000000 0.000000
# 5 0.000000 0.000000 0.000000 0.000000 0.030845 0.000000
# 6 0.000000 0.000000 0.000000 0.000000 0.000000 0.026786
#
#
# Mechanical properties :
#
#
# Convention : Reuss Voigt Hill
#
# Bulk Modulus (GPa) = 38.95165 74.08672 56.51918
# Shear Modulus (GPa) = -125.77885 28.46252 -48.65816
#
# Velocity S-wave (km/s) = -7.34981 3.49630 -4.57141
# Velocity P-wave (km/s) = 7.43621 6.93670 1.89467
#
# Compressibility (1/GPa) = 0.02567285
#
# Stress axis : x y z
#
# Youngs Moduli (GPa) = 102.48561 35.92770 112.73569
#
# Poissons Ratio (x) = 0.23697 0.55173
# Poissons Ratio (y) = 0.67598 -0.12351
# Poissons Ratio (z) = 0.50157 -0.03936
#
# Static dielectric constant tensor:
#      x y z
#    x 1.940530 0.000000 0.000000 
#    y 0.000000 1.975500 0.000000 
#    z 0.000000 0.000000 1.883160 
# 
# From -- ./inp_files/8012.got.cif
#   From: 2010.05.17/outbox.cif.g08.bks.cpg/sg68_5_cif.got.tgz:8012.got - 2010.06.03 18:57:09.
