data_PCOD9509839
_publ_section_title
;
Structure prediction by ZEFSAII (Michael W. Deem and Ramdas Pophale) SiO2 
 PCOD9509839
Probable space group: C C C A
;
_chemical_formula_sum "Si O2"
_cell_formula_units_Z 88
_cell_length_a 11.139907
_cell_length_b 31.032724
_cell_length_c 11.663746
_cell_angle_alpha 90.000000
_cell_angle_beta 90.000000
_cell_angle_gamma 90.000000
_cell_volume 4032.176346
_symmetry_space_group_name_H-M "C C C A"
_symmetry_group_IT_number 68
_space_group.IT_coordinate_system_code '2'
_symmetry_cell_setting 'orthorhombic'
loop_
_space_group_symop_operation_xyz
x,y,z
-x,1/2-y,z
x,1/2-y,1/2-z
-x,y,1/2-z
-x,-y,-z
x,1/2+y,-z
-x,1/2+y,1/2+z
x,-y,1/2+z
1/2+x,1/2+y,z
1/2-x,-y,z
1/2+x,-y,1/2-z
1/2-x,1/2+y,1/2-z
1/2-x,1/2-y,-z
1/2+x,y,-z
1/2-x,y,1/2+z
1/2+x,1/2-y,1/2+z
loop_
_atom_site_type_symbol
_atom_site_label
_atom_site_fract_x
_atom_site_fract_y
_atom_site_fract_z
Si Si1 0.810803 0.750000 0.750000
Si Si2 0.500000 0.750000 0.444192
Si Si3 0.123328 0.520396 0.054852
Si Si4 0.038328 0.161886 0.935812
Si Si5 0.193108 0.342078 0.777774
Si Si6 0.880462 0.903814 0.903091
Si Si7 0.000000 0.522794 0.750000
O O1 0.893408 0.763177 0.641981
O O2 0.740271 0.792918 0.786373
O O3 0.541883 0.789122 0.522658
O O4 0.250000 0.500000 0.018000
O O5 0.095283 0.507828 0.185885
O O6 0.143431 0.569849 0.021228
O O7 0.000000 0.500000 0.000000
O O8 0.152383 0.152548 0.854148
O O9 0.923267 0.154511 0.857686
O O10 0.031316 0.132931 0.049820
O O11 0.283802 0.377498 0.829161
O O12 0.929980 0.943197 0.829161
#
# Coordination Sequence:
#
# PCOD9509839 Si02
#       7
#     8   8  16  16  16  16   8
#     4  11  24  43  70 104 142 193 244 289 360 436
#     4  11  24  43  70 102 144 191 240 289 360 430
#     4  10  25  49  75 107 144 194 241 309 381 452
#     4  11  26  44  68 105 144 186 242 300 355 433
#     4  11  26  43  69 105 141 190 243 300 356 435
#     4  11  26  45  74 101 144 187 240 302 366 442
#     4  10  26  46  72 107 142 189 242 300 376 462
#
# _framework density 21.824442000000001
#
# number of rings (size 3 to 8) (size 9 to 14) (size 15 to 20)
#    0.000    1.273    1.818    1.091   12.727    7.273 
#    0.000    0.000    0.000    0.000    0.000    0.000 
#    0.000    0.000    0.000    0.000    0.000    0.000 
#
# Total GULP energy -245283.419044 kJ/mol
# GULP energy per Si atom -5574.623160 kJ/mol
# Density = 2.177477 g / cm^3
# Si number density = 21.824442 Si / 1000 Ang^3
#
#
#
# Elastic Constant Matrix: (Units=GPa)
#
#
# Indices 1 2 3 4 5 6 
#
# 1 86.9692 35.2394 30.3948 0.0000 0.0000 0.0000
# 2 35.2394 144.8483 53.2789 0.0000 0.0000 0.0000
# 3 30.3948 53.2789 97.3918 0.0000 0.0000 0.0000
# 4 0.0000 0.0000 0.0000 63.9614 0.0000 0.0000
# 5 0.0000 0.0000 0.0000 0.0000 29.8223 0.0000
# 6 0.0000 0.0000 0.0000 0.0000 0.0000 -3.4112
#
#
#
# Elastic Compliance Matrix: (Units=1/GPa)
#
#
# Indices 1 2 3 4 5 6 
#
# 1 0.013425 -0.002159 -0.003008 0.000000 0.000000 0.000000
# 2 -0.002159 0.008990 -0.004244 0.000000 0.000000 0.000000
# 3 -0.003008 -0.004244 0.013529 0.000000 0.000000 0.000000
# 4 0.000000 0.000000 0.000000 0.015634 0.000000 0.000000
# 5 0.000000 0.000000 0.000000 0.000000 0.033532 0.000000
# 6 0.000000 0.000000 0.000000 0.000000 0.000000 -0.293152
#
#
# Mechanical properties :
#
#
# Convention : Reuss Voigt Hill
#
# Bulk Modulus (GPa) = 58.41334 63.00395 60.70865
# Shear Modulus (GPa) = -27.24630 32.09425 2.42398
#
# Velocity S-wave (km/s) = -3.53715 3.83895 1.05503
# Velocity P-wave (km/s) = 3.18455 6.97003 5.41861
#
# Compressibility (1/GPa) = 0.01711938
#
# Stress axis : x y z
#
# Youngs Moduli (GPa) = 74.48951 111.23119 73.91798
#
# Poissons Ratio (x) = 0.24020 0.22237
# Poissons Ratio (y) = 0.16086 0.31373
# Poissons Ratio (z) = 0.22409 0.47209
#
# Static dielectric constant tensor:
#      x y z
#    x 1.783990 0.000000 0.000000 
#    y 0.000000 1.889240 0.000000 
#    z 0.000000 0.000000 1.745310 
# 
# From -- ./inp_files/12090.got.cif
#   From: 2010.05.17/outbox.cif.g08.bks.cpg/sg68_7_cif.got.tgz:12090.got - 2010.06.03 18:57:09.
