data_PCOD9509903
_publ_section_title
;
Structure prediction by ZEFSAII (Michael W. Deem and Ramdas Pophale) SiO2 
 PCOD9509903
Probable space group: C C C A
;
_chemical_formula_sum "Si O2"
_cell_formula_units_Z 60
_cell_length_a 9.498501
_cell_length_b 15.848237
_cell_length_c 18.388215
_cell_angle_alpha 90.000000
_cell_angle_beta 90.000000
_cell_angle_gamma 90.000000
_cell_volume 2768.060659
_symmetry_space_group_name_H-M "C C C A"
_symmetry_group_IT_number 68
_space_group.IT_coordinate_system_code '2'
_symmetry_cell_setting 'orthorhombic'
loop_
_space_group_symop_operation_xyz
x,y,z
-x,1/2-y,z
x,1/2-y,1/2-z
-x,y,1/2-z
-x,-y,-z
x,1/2+y,-z
-x,1/2+y,1/2+z
x,-y,1/2+z
1/2+x,1/2+y,z
1/2-x,-y,z
1/2+x,-y,1/2-z
1/2-x,1/2+y,1/2-z
1/2-x,1/2-y,-z
1/2+x,y,-z
1/2-x,y,1/2+z
1/2+x,1/2-y,1/2+z
loop_
_atom_site_type_symbol
_atom_site_label
_atom_site_fract_x
_atom_site_fract_y
_atom_site_fract_z
Si Si1 0.173063 0.617845 0.156566
Si Si2 0.505094 0.848710 0.355700
Si Si3 0.000000 0.518139 0.750000
Si Si4 0.875768 0.934618 0.992869
Si Si5 0.500000 0.250000 0.250000
O O1 0.341795 0.624171 0.151505
O O2 0.101118 0.541251 0.201814
O O3 0.137488 0.608093 0.071509
O O4 0.101920 0.696699 0.197075
O O5 0.500000 0.750000 0.337688
O O6 0.581025 0.915792 0.302485
O O7 0.580107 0.866307 0.432478
O O8 0.750000 0.000000 0.974668
O O9 0.000000 0.000000 0.000000
#
# Coordination Sequence:
#
# PCOD9509903 Si02
#       5
#    16  16   8  16   4
#     4  11  25  50  72 108 149 194 256 299 370 455
#     4  12  28  46  74 112 150 188 250 317 366 440
#     4  11  23  47  73  98 148 202 235 301 365 441
#     4  12  24  48  77 107 145 195 247 300 370 447
#     4  10  28  44  80 104 154 198 234 326 372 426
#
# _framework density 21.675827000000002
#
# number of rings (size 3 to 8) (size 9 to 14) (size 15 to 20)
#    0.000    0.533    5.333    1.200    5.600    5.333 
#    0.000    0.000    0.000    0.000    0.000    0.000 
#    0.000    0.000    0.000    0.000    0.000    0.000 
#
# Total GULP energy -167374.120524 kJ/mol
# GULP energy per Si atom -5579.137351 kJ/mol
# Density = 2.162649 g / cm^3
# Si number density = 21.675827 Si / 1000 Ang^3
#
#
#
# Elastic Constant Matrix: (Units=GPa)
#
#
# Indices 1 2 3 4 5 6 
#
# 1 111.5130 35.9710 49.2781 0.0000 0.0000 0.0000
# 2 35.9710 161.0368 77.8148 0.0000 0.0000 0.0000
# 3 49.2781 77.8148 191.4408 0.0000 0.0000 0.0000
# 4 0.0000 0.0000 0.0000 40.9697 0.0000 0.0000
# 5 0.0000 0.0000 0.0000 0.0000 28.6408 0.0000
# 6 0.0000 0.0000 0.0000 0.0000 0.0000 20.8366
#
#
#
# Elastic Compliance Matrix: (Units=1/GPa)
#
#
# Indices 1 2 3 4 5 6 
#
# 1 0.010324 -0.001272 -0.002140 0.000000 0.000000 0.000000
# 2 -0.001272 0.007884 -0.002877 0.000000 0.000000 0.000000
# 3 -0.002140 -0.002877 0.006944 0.000000 0.000000 0.000000
# 4 0.000000 0.000000 0.000000 0.024408 0.000000 0.000000
# 5 0.000000 0.000000 0.000000 0.000000 0.034915 0.000000
# 6 0.000000 0.000000 0.000000 0.000000 0.000000 0.047992
#
#
# Mechanical properties :
#
#
# Convention : Reuss Voigt Hill
#
# Bulk Modulus (GPa) = 79.53621 87.79093 83.66357
# Shear Modulus (GPa) = 33.50356 38.15120 35.82738
#
# Velocity S-wave (km/s) = 3.93576 4.19988 4.06996
# Velocity P-wave (km/s) = 7.57805 8.00677 7.79536
#
# Compressibility (1/GPa) = 0.01257289
#
# Stress axis : x y z
#
# Youngs Moduli (GPa) = 96.86485 126.83626 144.00789
#
# Poissons Ratio (x) = 0.16130 0.30824
# Poissons Ratio (y) = 0.12318 0.41436
# Poissons Ratio (z) = 0.20734 0.36495
#
# Static dielectric constant tensor:
#      x y z
#    x 1.711560 0.000000 0.000000 
#    y 0.000000 1.728320 0.000000 
#    z 0.000000 0.000000 1.950250 
# 
# From -- ./inp_files/27733.got.cif
#   From: 2010.05.17/outbox.cif.g08.bks.cpg/sg68_14_cif.got.tgz:27733.got - 2010.06.03 18:57:09.
