data_PCOD9509068
_publ_section_title
;
Structure prediction by ZEFSAII (Michael W. Deem and Ramdas Pophale) SiO2 
 PCOD9509068
Probable space group: C C C A
;
_chemical_formula_sum "Si O2"
_cell_formula_units_Z 56
_cell_length_a 17.034797
_cell_length_b 13.689813
_cell_length_c 10.013415
_cell_angle_alpha 90.000000
_cell_angle_beta 90.000000
_cell_angle_gamma 90.000000
_cell_volume 2335.160275
_symmetry_space_group_name_H-M "C C C A"
_symmetry_group_IT_number 68
_space_group.IT_coordinate_system_code '2'
_symmetry_cell_setting 'orthorhombic'
loop_
_space_group_symop_operation_xyz
x,y,z
-x,1/2-y,z
x,1/2-y,1/2-z
-x,y,1/2-z
-x,-y,-z
x,1/2+y,-z
-x,1/2+y,1/2+z
x,-y,1/2+z
1/2+x,1/2+y,z
1/2-x,-y,z
1/2+x,-y,1/2-z
1/2-x,1/2+y,1/2-z
1/2-x,1/2-y,-z
1/2+x,y,-z
1/2-x,y,1/2+z
1/2+x,1/2-y,1/2+z
loop_
_atom_site_type_symbol
_atom_site_label
_atom_site_fract_x
_atom_site_fract_y
_atom_site_fract_z
Si Si1 0.412342 0.285362 0.402604
Si Si2 0.834296 0.823679 0.874417
Si Si3 0.084984 0.992088 0.191600
Si Si4 0.250000 0.500000 0.775248
O O1 0.500000 0.250000 0.442149
O O2 0.402342 0.250000 0.250000
O O3 0.346459 0.236013 0.492482
O O4 0.407347 0.402283 0.409873
O O5 0.831861 0.750000 0.750000
O O6 0.907620 0.899051 0.864308
O O7 0.764698 0.902289 0.861389
O O8 0.163283 0.986388 0.287647
O O9 0.000000 0.977194 0.250000
#
# Coordination Sequence:
#
# PCOD9509068 Si02
#       4
#    16  16  16   8
#     4  11  24  43  72 111 149 205 249 312 382 452
#     4  10  25  46  75 110 153 199 253 319 377 448
#     4  10  22  47  72 110 147 204 246 314 374 456
#     4   8  24  46  70 118 142 200 252 316 366 464
#
# _framework density 23.981221999999999
#
# number of rings (size 3 to 8) (size 9 to 14) (size 15 to 20)
#    1.714    0.286    2.857    0.000    4.000    5.714 
#    0.000    2.857    0.000    0.000    0.000    0.000 
#    0.000    0.000    0.000    0.000    0.000    0.000 
#
# Total GULP energy -156072.235748 kJ/mol
# GULP energy per Si atom -5574.008420 kJ/mol
# Density = 2.392664 g / cm^3
# Si number density = 23.981222 Si / 1000 Ang^3
#
#
#
# Elastic Constant Matrix: (Units=GPa)
#
#
# Indices 1 2 3 4 5 6 
#
# 1 174.5876 39.7786 35.1928 0.0000 0.0000 0.0000
# 2 39.7786 203.6643 49.9757 0.0000 0.0000 0.0000
# 3 35.1928 49.9757 62.7758 0.0000 0.0000 0.0000
# 4 0.0000 0.0000 0.0000 21.6062 0.0000 0.0000
# 5 0.0000 0.0000 0.0000 0.0000 5.4728 0.0000
# 6 0.0000 0.0000 0.0000 0.0000 0.0000 40.4117
#
#
#
# Elastic Compliance Matrix: (Units=1/GPa)
#
#
# Indices 1 2 3 4 5 6 
#
# 1 0.006493 -0.000466 -0.003269 0.000000 0.000000 0.000000
# 2 -0.000466 0.006136 -0.004623 0.000000 0.000000 0.000000
# 3 -0.003269 -0.004623 0.021443 0.000000 0.000000 0.000000
# 4 0.000000 0.000000 0.000000 0.046283 0.000000 0.000000
# 5 0.000000 0.000000 0.000000 0.000000 0.182722 0.000000
# 6 0.000000 0.000000 0.000000 0.000000 0.000000 0.024745
#
#
# Mechanical properties :
#
#
# Convention : Reuss Voigt Hill
#
# Bulk Modulus (GPa) = 57.62084 76.76910 67.19497
# Shear Modulus (GPa) = 16.11223 34.57020 25.34122
#
# Velocity S-wave (km/s) = 2.59486 3.80090 3.25424
# Velocity P-wave (km/s) = 5.74955 7.16548 6.49621
#
# Compressibility (1/GPa) = 0.01735483
#
# Stress axis : x y z
#
# Youngs Moduli (GPa) = 154.01401 162.98548 46.63551
#
# Poissons Ratio (x) = 0.07595 0.15245
# Poissons Ratio (y) = 0.07177 0.21561
# Poissons Ratio (z) = 0.50347 0.75352
#
# Static dielectric constant tensor:
#      x y z
#    x 2.073310 0.000000 0.000000 
#    y 0.000000 1.928490 0.000000 
#    z 0.000000 0.000000 1.936740 
# 
# From -- ./inp_files/13905.got.cif
#   From: 2010.05.17/outbox.cif.g08.bks.cpg/sg68_7_cif.got.tgz:13905.got - 2010.06.03 18:57:09.
