data_PCOD9509165
_publ_section_title
;
Structure prediction by ZEFSAII (Michael W. Deem and Ramdas Pophale) SiO2 
 PCOD9509165
Probable space group: C C C A
;
_chemical_formula_sum "Si O2"
_cell_formula_units_Z 88
_cell_length_a 15.135177
_cell_length_b 23.271127
_cell_length_c 11.759650
_cell_angle_alpha 90.000000
_cell_angle_beta 90.000000
_cell_angle_gamma 90.000000
_cell_volume 4141.897209
_symmetry_space_group_name_H-M "C C C A"
_symmetry_group_IT_number 68
_space_group.IT_coordinate_system_code '2'
_symmetry_cell_setting 'orthorhombic'
loop_
_space_group_symop_operation_xyz
x,y,z
-x,1/2-y,z
x,1/2-y,1/2-z
-x,y,1/2-z
-x,-y,-z
x,1/2+y,-z
-x,1/2+y,1/2+z
x,-y,1/2+z
1/2+x,1/2+y,z
1/2-x,-y,z
1/2+x,-y,1/2-z
1/2-x,1/2+y,1/2-z
1/2-x,1/2-y,-z
1/2+x,y,-z
1/2-x,y,1/2+z
1/2+x,1/2-y,1/2+z
loop_
_atom_site_type_symbol
_atom_site_label
_atom_site_fract_x
_atom_site_fract_y
_atom_site_fract_z
Si Si1 0.598226 0.073891 0.192874
Si Si2 0.833664 0.601163 0.548142
Si Si3 0.099823 0.307535 0.798396
Si Si4 0.097164 0.681513 0.756185
Si Si5 0.806435 0.190708 0.023573
Si Si6 0.750000 0.000000 0.301954
O O1 0.500000 0.063811 0.250000
O O2 0.634523 0.133149 0.248671
O O3 0.671210 0.027040 0.226533
O O4 0.601187 0.083820 0.056215
O O5 0.868057 0.651155 0.631730
O O6 0.749965 0.634308 0.499607
O O7 0.798974 0.546987 0.619174
O O8 0.145005 0.250000 0.750000
O O9 0.000000 0.306765 0.750000
O O10 0.112769 0.305985 0.933076
O O11 0.088431 0.750000 0.750000
O O12 0.158445 0.676076 0.647600
O O13 0.000000 0.655604 0.750000
O O14 0.750000 0.250000 0.000000
#
# Coordination Sequence:
#
# PCOD9509165 Si02
#       6
#    16  16  16  16  16   8
#     4  11  26  48  76 107 143 197 258 304 377 452
#     4  12  26  45  75 105 147 194 245 309 365 444
#     4  10  23  40  71 106 141 185 242 297 361 443
#     4  11  27  44  68 107 152 190 230 296 376 436
#     4  12  24  42  71 103 148 193 240 297 365 444
#     4  12  26  50  72 110 148 190 256 318 374 434
#
# _framework density 21.246302
#
# number of rings (size 3 to 8) (size 9 to 14) (size 15 to 20)
#    0.000    0.727    3.636    2.727    7.636    2.909 
#    0.000    0.000    0.000    0.000    0.000    0.000 
#    0.000    0.000    0.000    0.000    0.000    0.000 
#
# Total GULP energy -245277.740984 kJ/mol
# GULP energy per Si atom -5574.494113 kJ/mol
# Density = 2.119794 g / cm^3
# Si number density = 21.246302 Si / 1000 Ang^3
#
#
#
# Elastic Constant Matrix: (Units=GPa)
#
#
# Indices 1 2 3 4 5 6 
#
# 1 106.1675 33.6139 69.7791 0.0000 0.0000 0.0000
# 2 33.6139 99.8479 36.4518 0.0000 0.0000 0.0000
# 3 69.7791 36.4518 150.0340 0.0000 0.0000 0.0000
# 4 0.0000 0.0000 0.0000 39.2034 0.0000 0.0000
# 5 0.0000 0.0000 0.0000 0.0000 51.4904 0.0000
# 6 0.0000 0.0000 0.0000 0.0000 0.0000 424.6576
#
#
#
# Elastic Compliance Matrix: (Units=1/GPa)
#
#
# Indices 1 2 3 4 5 6 
#
# 1 0.014152 -0.002591 -0.005952 0.000000 0.000000 0.000000
# 2 -0.002591 0.011464 -0.001580 0.000000 0.000000 0.000000
# 3 -0.005952 -0.001580 0.009817 0.000000 0.000000 0.000000
# 4 0.000000 0.000000 0.000000 0.025508 0.000000 0.000000
# 5 0.000000 0.000000 0.000000 0.000000 0.019421 0.000000
# 6 0.000000 0.000000 0.000000 0.000000 0.000000 0.002355
#
#
# Mechanical properties :
#
#
# Convention : Reuss Voigt Hill
#
# Bulk Modulus (GPa) = 65.84921 70.63766 68.24344
# Shear Modulus (GPa) = 46.28489 117.48393 81.88441
#
# Velocity S-wave (km/s) = 4.67249 7.44421 6.21484
# Velocity P-wave (km/s) = 7.75694 10.35411 9.14816
#
# Compressibility (1/GPa) = 0.01518621
#
# Stress axis : x y z
#
# Youngs Moduli (GPa) = 70.66350 87.22615 101.86012
#
# Poissons Ratio (x) = 0.22602 0.60629
# Poissons Ratio (y) = 0.18310 0.16096
# Poissons Ratio (z) = 0.42060 0.13784
#
# Static dielectric constant tensor:
#      x y z
#    x 1.692390 0.000000 0.000000 
#    y 0.000000 1.766420 0.000000 
#    z 0.000000 0.000000 1.666200 
# 
# From -- ./inp_files/13316.got.cif
#   From: 2010.05.17/outbox.cif.g08.bks.cpg/sg68_7_cif.got.tgz:13316.got - 2010.06.03 18:57:09.
