data_PCOD9509383
_publ_section_title
;
Structure prediction by ZEFSAII (Michael W. Deem and Ramdas Pophale) SiO2 
 PCOD9509383
Probable space group: C C C A
;
_chemical_formula_sum "Si O2"
_cell_formula_units_Z 48
_cell_length_a 7.736861
_cell_length_b 17.287174
_cell_length_c 15.720225
_cell_angle_alpha 90.000000
_cell_angle_beta 90.000000
_cell_angle_gamma 90.000000
_cell_volume 2102.555921
_symmetry_space_group_name_H-M "C C C A"
_symmetry_group_IT_number 68
_space_group.IT_coordinate_system_code '2'
_symmetry_cell_setting 'orthorhombic'
loop_
_space_group_symop_operation_xyz
x,y,z
-x,1/2-y,z
x,1/2-y,1/2-z
-x,y,1/2-z
-x,-y,-z
x,1/2+y,-z
-x,1/2+y,1/2+z
x,-y,1/2+z
1/2+x,1/2+y,z
1/2-x,-y,z
1/2+x,-y,1/2-z
1/2-x,1/2+y,1/2-z
1/2-x,1/2-y,-z
1/2+x,y,-z
1/2-x,y,1/2+z
1/2+x,1/2-y,1/2+z
loop_
_atom_site_type_symbol
_atom_site_label
_atom_site_fract_x
_atom_site_fract_y
_atom_site_fract_z
Si Si1 0.221914 0.698644 0.615528
Si Si2 0.000000 0.394559 0.250000
Si Si3 0.893711 0.347834 0.569055
Si Si4 0.250000 0.000000 0.635487
O O1 0.121394 0.679137 0.528363
O O2 0.261878 0.790392 0.618851
O O3 0.414538 0.664284 0.604469
O O4 0.121293 0.659456 0.691878
O O5 0.117063 0.451641 0.307012
O O6 0.843390 0.436096 0.578652
#
# Coordination Sequence:
#
# PCOD9509383 Si02
#       4
#    16   8  16   8
#     4  10  23  45  71  96 132 180 228 273 334 409
#     4  12  26  43  66 101 140 178 224 285 342 392
#     4  10  23  45  70  97 131 179 228 273 333 412
#     4  12  26  40  64 100 138 176 224 284 340 392
#
# _framework density 22.829357999999999
#
# number of rings (size 3 to 8) (size 9 to 14) (size 15 to 20)
#    0.000    1.333    0.000    4.000    0.000   13.333 
#    0.000    3.333    0.000    0.000    0.000    0.000 
#    0.000    0.000    0.000    0.000    0.000    0.000 
#
# Total GULP energy -134542.409548 kJ/mol
# GULP energy per Si atom -5605.933731 kJ/mol
# Density = 2.277740 g / cm^3
# Si number density = 22.829358 Si / 1000 Ang^3
#
#
#
# Elastic Constant Matrix: (Units=GPa)
#
#
# Indices 1 2 3 4 5 6 
#
# 1 154.8953 88.0665 75.1913 0.0000 0.0000 0.0000
# 2 88.0665 199.4797 74.6127 0.0000 0.0000 0.0000
# 3 75.1913 74.6127 111.9205 0.0000 0.0000 0.0000
# 4 0.0000 0.0000 0.0000 327.1577 0.0000 0.0000
# 5 0.0000 0.0000 0.0000 0.0000 25.7265 0.0000
# 6 0.0000 0.0000 0.0000 0.0000 0.0000 39.9043
#
#
#
# Elastic Compliance Matrix: (Units=1/GPa)
#
#
# Indices 1 2 3 4 5 6 
#
# 1 0.010552 -0.002674 -0.005307 0.000000 0.000000 0.000000
# 2 -0.002674 0.007356 -0.003108 0.000000 0.000000 0.000000
# 3 -0.005307 -0.003108 0.014572 0.000000 0.000000 0.000000
# 4 0.000000 0.000000 0.000000 0.003057 0.000000 0.000000
# 5 0.000000 0.000000 0.000000 0.000000 0.038870 0.000000
# 6 0.000000 0.000000 0.000000 0.000000 0.000000 0.025060
#
#
# Mechanical properties :
#
#
# Convention : Reuss Voigt Hill
#
# Bulk Modulus (GPa) = 97.05209 104.67073 100.86141
# Shear Modulus (GPa) = 39.97519 93.78602 66.88061
#
# Velocity S-wave (km/s) = 4.18909 6.41642 5.41844
# Velocity P-wave (km/s) = 8.12417 10.04205 9.13359
#
# Compressibility (1/GPa) = 0.01030374
#
# Stress axis : x y z
#
# Youngs Moduli (GPa) = 94.76685 135.94831 68.62533
#
# Poissons Ratio (x) = 0.36348 0.36419
# Poissons Ratio (y) = 0.25337 0.21326
# Poissons Ratio (z) = 0.50291 0.42246
#
# Static dielectric constant tensor:
#      x y z
#    x 1.858580 0.000000 0.000000 
#    y 0.000000 1.808790 0.000000 
#    z 0.000000 0.000000 1.834540 
# 
# From -- ./inp_files/18850.got.cif
#   From: 2010.05.17/outbox.cif.g08.bks.cpg/sg68_10_cif.got.tgz:18850.got - 2010.06.03 18:57:09.
