data_PCOD9509342
_publ_section_title
;
Structure prediction by ZEFSAII (Michael W. Deem and Ramdas Pophale) SiO2 
 PCOD9509342
Probable space group: C C C A
;
_chemical_formula_sum "Si O2"
_cell_formula_units_Z 60
_cell_length_a 5.284713
_cell_length_b 15.653040
_cell_length_c 29.824820
_cell_angle_alpha 90.000000
_cell_angle_beta 90.000000
_cell_angle_gamma 90.000000
_cell_volume 2467.163510
_symmetry_space_group_name_H-M "C C C A"
_symmetry_group_IT_number 68
_space_group.IT_coordinate_system_code '2'
_symmetry_cell_setting 'orthorhombic'
loop_
_space_group_symop_operation_xyz
x,y,z
-x,1/2-y,z
x,1/2-y,1/2-z
-x,y,1/2-z
-x,-y,-z
x,1/2+y,-z
-x,1/2+y,1/2+z
x,-y,1/2+z
1/2+x,1/2+y,z
1/2-x,-y,z
1/2+x,-y,1/2-z
1/2-x,1/2+y,1/2-z
1/2-x,1/2-y,-z
1/2+x,y,-z
1/2-x,y,1/2+z
1/2+x,1/2-y,1/2+z
loop_
_atom_site_type_symbol
_atom_site_label
_atom_site_fract_x
_atom_site_fract_y
_atom_site_fract_z
Si Si1 0.500000 0.750000 0.750000
Si Si2 0.220987 0.396304 0.878701
Si Si3 0.285000 0.650951 0.175769
Si Si4 0.000000 0.031165 0.250000
Si Si5 0.238276 0.847614 0.019196
O O1 0.294621 0.776681 0.788663
O O2 0.250000 0.500000 0.881907
O O3 0.465444 0.352094 0.855053
O O4 0.201993 0.355207 0.928042
O O5 0.962698 0.372706 0.852845
O O6 0.341766 0.579523 0.212604
O O7 0.750000 0.000000 0.277336
O O8 0.250000 0.750000 0.000000
O O9 0.502352 0.888883 0.005761
#
# Coordination Sequence:
#
# PCOD9509342 Si02
#       5
#     4  16  16   8  16
#     4  12  30  46  68 102 146 198 244 296 356 434
#     4  12  26  45  73 105 138 180 237 298 355 425
#     4  12  27  45  67 101 141 185 237 291 350 416
#     4  12  23  43  72 101 141 188 236 290 356 424
#     4  10  23  44  69 100 137 181 224 281 359 433
#
# _framework density 24.319424999999999
#
# number of rings (size 3 to 8) (size 9 to 14) (size 15 to 20)
#    0.000    0.533    0.000    8.800    0.000   12.267 
#    0.000    0.000    0.000    0.000    0.000    0.000 
#    0.000    0.000    0.000    0.000    0.000    0.000 
#
# Total GULP energy -167104.300381 kJ/mol
# GULP energy per Si atom -5570.143346 kJ/mol
# Density = 2.426407 g / cm^3
# Si number density = 24.319425 Si / 1000 Ang^3
#
#
#
# Elastic Constant Matrix: (Units=GPa)
#
#
# Indices 1 2 3 4 5 6 
#
# 1 220.1508 6.0871 61.3253 0.0000 0.0000 0.0000
# 2 6.0871 14.6045 40.0242 0.0000 0.0000 0.0000
# 3 61.3253 40.0242 209.8989 0.0000 0.0000 0.0000
# 4 0.0000 0.0000 0.0000 -85.1297 0.0000 0.0000
# 5 0.0000 0.0000 0.0000 0.0000 55.0585 0.0000
# 6 0.0000 0.0000 0.0000 0.0000 0.0000 19.8194
#
#
#
# Elastic Compliance Matrix: (Units=1/GPa)
#
#
# Indices 1 2 3 4 5 6 
#
# 1 0.005058 0.004067 -0.002253 0.000000 0.000000 0.000000
# 2 0.004067 0.146690 -0.029160 0.000000 0.000000 0.000000
# 3 -0.002253 -0.029160 0.010983 0.000000 0.000000 0.000000
# 4 0.000000 0.000000 0.000000 -0.011747 0.000000 0.000000
# 5 0.000000 0.000000 0.000000 0.000000 0.018162 0.000000
# 6 0.000000 0.000000 0.000000 0.000000 0.000000 0.050456
#
#
# Mechanical properties :
#
#
# Convention : Reuss Voigt Hill
#
# Bulk Modulus (GPa) = 9.25595 73.28084 41.26839
# Shear Modulus (GPa) = 16.11311 20.43081 18.27196
#
# Velocity S-wave (km/s) = 2.57682 2.90160 2.74402
# Velocity P-wave (km/s) = 3.55915 6.43613 5.20054
#
# Compressibility (1/GPa) = 0.10803863
#
# Stress axis : x y z
#
# Youngs Moduli (GPa) = 197.72534 6.81709 91.05216
#
# Poissons Ratio (x) = -0.02772 0.20515
# Poissons Ratio (y) = -0.80410 2.65504
# Poissons Ratio (z) = 0.44549 0.19878
#
# Static dielectric constant tensor:
#      x y z
#    x 1.802650 0.000000 0.000000 
#    y 0.000000 2.128980 0.000000 
#    z 0.000000 0.000000 1.886960 
# 
# From -- ./inp_files/48017.got.cif
#   From: 2010.05.17/outbox.cif.g08.bks.cpg/sg68_25_cif.got.tgz:48017.got - 2010.06.03 18:57:09.
