data_PCOD9509052
_publ_section_title
;
Structure prediction by ZEFSAII (Michael W. Deem and Ramdas Pophale) SiO2 
 PCOD9509052
Probable space group: C C C A
;
_chemical_formula_sum "Si O2"
_cell_formula_units_Z 104
_cell_length_a 26.566829
_cell_length_b 9.465721
_cell_length_c 21.150751
_cell_angle_alpha 90.000000
_cell_angle_beta 90.000000
_cell_angle_gamma 90.000000
_cell_volume 5318.868000
_symmetry_space_group_name_H-M "C C C A"
_symmetry_group_IT_number 68
_space_group.IT_coordinate_system_code '2'
_symmetry_cell_setting 'orthorhombic'
loop_
_space_group_symop_operation_xyz
x,y,z
-x,1/2-y,z
x,1/2-y,1/2-z
-x,y,1/2-z
-x,-y,-z
x,1/2+y,-z
-x,1/2+y,1/2+z
x,-y,1/2+z
1/2+x,1/2+y,z
1/2-x,-y,z
1/2+x,-y,1/2-z
1/2-x,1/2+y,1/2-z
1/2-x,1/2-y,-z
1/2+x,y,-z
1/2-x,y,1/2+z
1/2+x,1/2-y,1/2+z
loop_
_atom_site_type_symbol
_atom_site_label
_atom_site_fract_x
_atom_site_fract_y
_atom_site_fract_z
Si Si1 0.577300 0.750000 0.750000
Si Si2 0.109170 0.541199 0.135722
Si Si3 0.358948 0.262108 0.815381
Si Si4 0.542071 0.543295 0.198155
Si Si5 0.221504 0.130385 0.086223
Si Si6 0.510740 0.080768 0.565224
Si Si7 0.707696 0.389285 0.441614
O O1 0.600906 0.659696 0.809448
O O2 0.550290 0.620547 0.714907
O O3 0.123073 0.394382 0.168879
O O4 0.063323 0.488008 0.090841
O O5 0.155530 0.591520 0.093290
O O6 0.328752 0.250000 0.750000
O O7 0.406886 0.363912 0.802313
O O8 0.323690 0.315349 0.871271
O O9 0.500000 0.592241 0.250000
O O10 0.523332 0.551449 0.126557
O O11 0.265531 0.241925 0.072346
O O12 0.250000 0.000000 0.117447
O O13 0.200874 0.090150 0.016767
O O14 0.500000 0.250000 0.554498
O O15 0.500000 0.000000 0.500000
O O16 0.750000 0.500000 0.419759
#
# Coordination Sequence:
#
# PCOD9509052 Si02
#       7
#     8  16  16  16  16  16  16
#     4  12  27  44  72 102 138 186 242 298 349 432
#     4  12  26  45  71 104 140 189 242 292 365 426
#     4  12  24  46  70 101 138 188 237 286 357 434
#     4  12  26  47  73  99 143 192 242 292 359 436
#     4  10  24  45  71 104 135 187 236 290 366 431
#     4  12  29  47  70 107 147 188 237 300 362 426
#     4  10  22  46  71  97 143 182 234 295 357 433
#
# _framework density 19.553032999999999
#
# number of rings (size 3 to 8) (size 9 to 14) (size 15 to 20)
#    0.000    0.615    6.154    0.231    6.462    0.000 
#    4.154    0.000    0.000    0.000    0.000    0.000 
#    0.000    0.000    0.000    0.000    0.000    0.000 
#
# Total GULP energy -289777.311235 kJ/mol
# GULP energy per Si atom -5572.640601 kJ/mol
# Density = 1.950853 g / cm^3
# Si number density = 19.553033 Si / 1000 Ang^3
#
#
#
# Elastic Constant Matrix: (Units=GPa)
#
#
# Indices 1 2 3 4 5 6 
#
# 1 107.2272 54.3149 73.8372 0.0000 0.0000 0.0000
# 2 54.3149 147.5207 58.6029 0.0000 0.0000 0.0000
# 3 73.8372 58.6029 161.3133 0.0000 0.0000 0.0000
# 4 0.0000 0.0000 0.0000 47.8350 0.0000 0.0000
# 5 0.0000 0.0000 0.0000 0.0000 -60.5762 0.0000
# 6 0.0000 0.0000 0.0000 0.0000 0.0000 30.8483
#
#
#
# Elastic Compliance Matrix: (Units=1/GPa)
#
#
# Indices 1 2 3 4 5 6 
#
# 1 0.014827 -0.003229 -0.005614 0.000000 0.000000 0.000000
# 2 -0.003229 0.008625 -0.001655 0.000000 0.000000 0.000000
# 3 -0.005614 -0.001655 0.009370 0.000000 0.000000 0.000000
# 4 0.000000 0.000000 0.000000 0.020905 0.000000 0.000000
# 5 0.000000 0.000000 0.000000 0.000000 -0.016508 0.000000
# 6 0.000000 0.000000 0.000000 0.000000 0.000000 0.032417
#
#
# Mechanical properties :
#
#
# Convention : Reuss Voigt Hill
#
# Bulk Modulus (GPa) = 84.55868 87.73014 86.14441
# Shear Modulus (GPa) = 52.86814 18.90849 35.88831
#
# Velocity S-wave (km/s) = 5.20548 3.11309 4.28885
# Velocity P-wave (km/s) = 8.91454 7.60835 8.28722
#
# Compressibility (1/GPa) = 0.01182611
#
# Stress axis : x y z
#
# Youngs Moduli (GPa) = 67.44295 115.93901 106.72301
#
# Poissons Ratio (x) = 0.37438 0.59912
# Poissons Ratio (y) = 0.21778 0.17667
# Poissons Ratio (z) = 0.37861 0.19192
#
# Static dielectric constant tensor:
#      x y z
#    x 1.848970 0.000000 0.000000 
#    y 0.000000 1.768620 0.000000 
#    z 0.000000 0.000000 1.658120 
# 
# From -- ./inp_files/41331.got.cif
#   From: 2010.05.17/outbox.cif.g08.bks.cpg/sg68_21_cif.got.tgz:41331.got - 2010.06.03 18:57:09.
