data_PCOD9509296
_publ_section_title
;
Structure prediction by ZEFSAII (Michael W. Deem and Ramdas Pophale) SiO2 
 PCOD9509296
Probable space group: C C C A
;
_chemical_formula_sum "Si O2"
_cell_formula_units_Z 64
_cell_length_a 23.197713
_cell_length_b 8.382753
_cell_length_c 13.700086
_cell_angle_alpha 90.000000
_cell_angle_beta 90.000000
_cell_angle_gamma 90.000000
_cell_volume 2664.128290
_symmetry_space_group_name_H-M "C C C A"
_symmetry_group_IT_number 68
_space_group.IT_coordinate_system_code '2'
_symmetry_cell_setting 'orthorhombic'
loop_
_space_group_symop_operation_xyz
x,y,z
-x,1/2-y,z
x,1/2-y,1/2-z
-x,y,1/2-z
-x,-y,-z
x,1/2+y,-z
-x,1/2+y,1/2+z
x,-y,1/2+z
1/2+x,1/2+y,z
1/2-x,-y,z
1/2+x,-y,1/2-z
1/2-x,1/2+y,1/2-z
1/2-x,1/2-y,-z
1/2+x,y,-z
1/2-x,y,1/2+z
1/2+x,1/2-y,1/2+z
loop_
_atom_site_type_symbol
_atom_site_label
_atom_site_fract_x
_atom_site_fract_y
_atom_site_fract_z
Si Si1 0.316524 0.741000 0.525132
Si Si2 0.501884 0.932230 0.368075
Si Si3 0.385933 0.408716 0.316237
Si Si4 0.874594 0.054834 0.119175
O O1 0.250000 0.750000 0.500000
O O2 0.335298 0.863480 0.610422
O O3 0.356690 0.780926 0.431690
O O4 0.332068 0.571299 0.570601
O O5 0.500000 0.750000 0.404348
O O6 0.500000 0.922915 0.250000
O O7 0.440480 0.999367 0.401288
O O8 0.558683 0.037952 0.379400
O O9 0.398803 0.250000 0.250000
O O10 0.370024 0.542260 0.236081
#
# Coordination Sequence:
#
# PCOD9509296 Si02
#       4
#    16  16  16  16
#     4  11  24  44  66  96 136 179 234 282 322 412
#     4   9  19  38  68 100 136 171 224 288 348 426
#     4   9  21  43  71  98 136 182 223 280 362 408
#     4  10  23  43  68  98 134 176 228 279 352 403
#
# _framework density 24.022867000000002
#
# number of rings (size 3 to 8) (size 9 to 14) (size 15 to 20)
#    0.000    2.250    0.000    0.750    3.500   12.500 
#    0.000   15.000    0.000    0.000    0.000    0.000 
#    0.000    0.000    0.000    0.000    0.000    0.000 
#
# Total GULP energy -178877.218079 kJ/mol
# GULP energy per Si atom -5589.913065 kJ/mol
# Density = 2.396819 g / cm^3
# Si number density = 24.022867 Si / 1000 Ang^3
#
#
#
# Elastic Constant Matrix: (Units=GPa)
#
#
# Indices 1 2 3 4 5 6 
#
# 1 215.6712 45.2359 48.7518 0.0000 0.0000 0.0000
# 2 45.2359 35.7947 27.3119 0.0000 0.0000 0.0000
# 3 48.7518 27.3119 122.3520 0.0000 0.0000 0.0000
# 4 0.0000 0.0000 0.0000 37.9483 0.0000 0.0000
# 5 0.0000 0.0000 0.0000 0.0000 50.8039 0.0000
# 6 0.0000 0.0000 0.0000 0.0000 0.0000 32.6707
#
#
#
# Elastic Compliance Matrix: (Units=1/GPa)
#
#
# Indices 1 2 3 4 5 6 
#
# 1 0.006389 -0.007391 -0.000896 0.000000 0.000000 0.000000
# 2 -0.007391 0.042222 -0.006480 0.000000 0.000000 0.000000
# 3 -0.000896 -0.006480 0.009977 0.000000 0.000000 0.000000
# 4 0.000000 0.000000 0.000000 0.026352 0.000000 0.000000
# 5 0.000000 0.000000 0.000000 0.000000 0.019684 0.000000
# 6 0.000000 0.000000 0.000000 0.000000 0.000000 0.030608
#
#
# Mechanical properties :
#
#
# Convention : Reuss Voigt Hill
#
# Bulk Modulus (GPa) = 34.41875 68.49082 51.45478
# Shear Modulus (GPa) = 28.66142 41.11911 34.89027
#
# Velocity S-wave (km/s) = 3.45786 4.14172 3.81514
# Velocity P-wave (km/s) = 5.50463 7.17247 6.39317
#
# Compressibility (1/GPa) = 0.02905393
#
# Stress axis : x y z
#
# Youngs Moduli (GPa) = 156.50729 23.68437 100.23397
#
# Poissons Ratio (x) = 0.17505 0.08982
# Poissons Ratio (y) = 1.15676 0.64951
# Poissons Ratio (z) = 0.14024 0.15347
#
# Static dielectric constant tensor:
#      x y z
#    x 1.880530 0.000000 0.000000 
#    y 0.000000 2.015270 0.000000 
#    z 0.000000 0.000000 1.962490 
# 
# From -- ./inp_files/25020.got.cif
#   From: 2010.05.17/outbox.cif.g08.bks.cpg/sg68_13_cif.got.tgz:25020.got - 2010.06.03 18:57:09.
