data_PCOD9509292
_publ_section_title
;
Structure prediction by ZEFSAII (Michael W. Deem and Ramdas Pophale) SiO2 
 PCOD9509292
Probable space group: C C C A
;
_chemical_formula_sum "Si O2"
_cell_formula_units_Z 60
_cell_length_a 17.372901
_cell_length_b 4.918550
_cell_length_c 29.689895
_cell_angle_alpha 90.000000
_cell_angle_beta 90.000000
_cell_angle_gamma 90.000000
_cell_volume 2536.986155
_symmetry_space_group_name_H-M "C C C A"
_symmetry_group_IT_number 68
_space_group.IT_coordinate_system_code '2'
_symmetry_cell_setting 'orthorhombic'
loop_
_space_group_symop_operation_xyz
x,y,z
-x,1/2-y,z
x,1/2-y,1/2-z
-x,y,1/2-z
-x,-y,-z
x,1/2+y,-z
-x,1/2+y,1/2+z
x,-y,1/2+z
1/2+x,1/2+y,z
1/2-x,-y,z
1/2+x,-y,1/2-z
1/2-x,1/2+y,1/2-z
1/2-x,1/2-y,-z
1/2+x,y,-z
1/2-x,y,1/2+z
1/2+x,1/2-y,1/2+z
loop_
_atom_site_type_symbol
_atom_site_label
_atom_site_fract_x
_atom_site_fract_y
_atom_site_fract_z
Si Si1 0.250000 0.000000 0.225497
Si Si2 0.391140 0.445434 0.326710
Si Si3 0.343021 0.967042 0.380066
Si Si4 0.908526 0.270743 0.029148
Si Si5 0.000000 0.250000 0.750000
O O1 0.209025 0.250000 0.250000
O O2 0.312652 0.154437 0.196642
O O3 0.375097 0.744599 0.344762
O O4 0.451337 0.424164 0.286223
O O5 0.393258 0.237488 0.368787
O O6 0.362401 0.841127 0.428555
O O7 0.250000 0.000000 0.377400
O O8 0.000000 0.250000 0.038988
O O9 0.891892 0.575772 0.013528
#
# Coordination Sequence:
#
# PCOD9509292 Si02
#       5
#     8  16  16  16   4
#     4  12  22  44  68  90 132 184 230 288 364 416
#     4  12  27  44  67 101 139 182 238 296 354 429
#     4  12  25  45  72 103 138 184 238 295 354 425
#     4  10  23  43  68 101 142 183 225 283 360 432
#     4  12  32  46  72 106 144 192 248 298 376 430
#
# _framework density 23.650112
#
# number of rings (size 3 to 8) (size 9 to 14) (size 15 to 20)
#    0.000    0.533    4.000    3.200    3.733    2.133 
#    0.000    0.000    0.000    0.000    0.000    0.000 
#    0.000    0.000    0.000    0.000    0.000    0.000 
#
# Total GULP energy -167602.790289 kJ/mol
# GULP energy per Si atom -5586.759676 kJ/mol
# Density = 2.359628 g / cm^3
# Si number density = 23.650112 Si / 1000 Ang^3
#
#
#
# Elastic Constant Matrix: (Units=GPa)
#
#
# Indices 1 2 3 4 5 6 
#
# 1 81.8373 20.4718 52.7409 0.0000 0.0000 0.0000
# 2 20.4718 102.3666 11.3317 0.0000 0.0000 0.0000
# 3 52.7409 11.3317 107.9734 0.0000 0.0000 0.0000
# 4 0.0000 0.0000 0.0000 22.8135 0.0000 0.0000
# 5 0.0000 0.0000 0.0000 0.0000 71.1465 0.0000
# 6 0.0000 0.0000 0.0000 0.0000 0.0000 21.6853
#
#
#
# Elastic Compliance Matrix: (Units=1/GPa)
#
#
# Indices 1 2 3 4 5 6 
#
# 1 0.018563 -0.002740 -0.008780 0.000000 0.000000 0.000000
# 2 -0.002740 0.010288 0.000259 0.000000 0.000000 0.000000
# 3 -0.008780 0.000259 0.013523 0.000000 0.000000 0.000000
# 4 0.000000 0.000000 0.000000 0.043834 0.000000 0.000000
# 5 0.000000 0.000000 0.000000 0.000000 0.014056 0.000000
# 6 0.000000 0.000000 0.000000 0.000000 0.000000 0.046114
#
#
# Mechanical properties :
#
#
# Convention : Reuss Voigt Hill
#
# Bulk Modulus (GPa) = 50.37383 51.25178 50.81280
# Shear Modulus (GPa) = 28.48717 36.97125 32.72921
#
# Velocity S-wave (km/s) = 3.47439 3.95810 3.72411
# Velocity P-wave (km/s) = 6.11891 6.52737 6.32644
#
# Compressibility (1/GPa) = 0.01985158
#
# Stress axis : x y z
#
# Youngs Moduli (GPa) = 53.87025 97.19868 73.94825
#
# Poissons Ratio (x) = 0.26637 0.64925
# Poissons Ratio (y) = 0.14763 -0.01914
# Poissons Ratio (z) = 0.47297 -0.02516
#
# Static dielectric constant tensor:
#      x y z
#    x 1.987160 0.000000 0.000000 
#    y 0.000000 1.786960 0.000000 
#    z 0.000000 0.000000 1.986320 
# 
# From -- ./inp_files/51190.got.cif
#   From: 2010.05.17/outbox.cif.g08.bks.cpg/sg68_26_cif.got.tgz:51190.got - 2010.06.03 18:57:09.
