data_PCOD9509545
_publ_section_title
;
Structure prediction by ZEFSAII (Michael W. Deem and Ramdas Pophale) SiO2 
 PCOD9509545
Probable space group: C C C A
;
_chemical_formula_sum "Si O2"
_cell_formula_units_Z 96
_cell_length_a 10.346303
_cell_length_b 18.322324
_cell_length_c 21.382109
_cell_angle_alpha 90.000000
_cell_angle_beta 90.000000
_cell_angle_gamma 90.000000
_cell_volume 4053.370391
_symmetry_space_group_name_H-M "C C C A"
_symmetry_group_IT_number 68
_space_group.IT_coordinate_system_code '2'
_symmetry_cell_setting 'orthorhombic'
loop_
_space_group_symop_operation_xyz
x,y,z
-x,1/2-y,z
x,1/2-y,1/2-z
-x,y,1/2-z
-x,-y,-z
x,1/2+y,-z
-x,1/2+y,1/2+z
x,-y,1/2+z
1/2+x,1/2+y,z
1/2-x,-y,z
1/2+x,-y,1/2-z
1/2-x,1/2+y,1/2-z
1/2-x,1/2-y,-z
1/2+x,y,-z
1/2-x,y,1/2+z
1/2+x,1/2-y,1/2+z
loop_
_atom_site_type_symbol
_atom_site_label
_atom_site_fract_x
_atom_site_fract_y
_atom_site_fract_z
Si Si1 0.849830 0.357819 0.479984
Si Si2 0.434675 0.675593 0.151426
Si Si3 0.000000 0.926244 0.750000
Si Si4 0.424850 0.628683 0.813439
Si Si5 0.257282 0.250000 0.250000
Si Si6 0.586161 0.137707 0.063098
Si Si7 0.250000 0.000000 0.474590
Si Si8 0.750000 0.000000 0.284548
O O1 0.891898 0.369543 0.408190
O O2 0.712194 0.320639 0.465250
O O3 0.822266 0.436703 0.511393
O O4 0.970490 0.333823 0.519573
O O5 0.500000 0.750000 0.128708
O O6 0.528097 0.624632 0.190749
O O7 0.328785 0.701305 0.202521
O O8 0.134900 0.967642 0.758448
O O9 0.500000 0.609669 0.750000
O O10 0.343266 0.699742 0.794759
O O11 0.528479 0.644076 0.867630
O O12 0.324853 0.562023 0.824270
O O13 0.642146 0.053244 0.058260
#
# Coordination Sequence:
#
# PCOD9509545 Si02
#       8
#    16  16   8  16   8  16   8   8
#     4  10  24  42  73 101 141 187 238 303 361 448
#     4  12  23  46  70 102 143 198 244 295 367 439
#     4  12  25  44  70 107 144 184 236 298 366 433
#     4  12  26  44  71 107 145 192 244 306 373 446
#     4  12  24  48  68 102 148 202 240 302 374 452
#     4  10  24  45  70 111 140 192 243 301 381 437
#     4   8  22  44  74  96 152 181 241 292 382 436
#     4  12  26  40  74 106 150 179 247 306 372 430
#
# _framework density 23.683994999999999
#
# number of rings (size 3 to 8) (size 9 to 14) (size 15 to 20)
#    1.000    0.000    4.167    1.750    2.333    4.667 
#    0.000    5.000    0.000    0.000    0.000    0.000 
#    0.000    0.000    0.000    0.000    0.000    0.000 
#
# Total GULP energy -267233.539482 kJ/mol
# GULP energy per Si atom -5567.365406 kJ/mol
# Density = 2.363009 g / cm^3
# Si number density = 23.683995 Si / 1000 Ang^3
#
#
#
# Elastic Constant Matrix: (Units=GPa)
#
#
# Indices 1 2 3 4 5 6 
#
# 1 138.1141 27.9362 61.4032 0.0000 0.0000 0.0000
# 2 27.9362 67.8575 5.3716 0.0000 0.0000 0.0000
# 3 61.4032 5.3716 116.0011 0.0000 0.0000 0.0000
# 4 0.0000 0.0000 0.0000 4.5211 0.0000 0.0000
# 5 0.0000 0.0000 0.0000 0.0000 -21.3199 0.0000
# 6 0.0000 0.0000 0.0000 0.0000 0.0000 -3.6118
#
#
#
# Elastic Compliance Matrix: (Units=1/GPa)
#
#
# Indices 1 2 3 4 5 6 
#
# 1 0.010384 -0.003854 -0.005318 0.000000 0.000000 0.000000
# 2 -0.003854 0.016221 0.001289 0.000000 0.000000 0.000000
# 3 -0.005318 0.001289 0.011376 0.000000 0.000000 0.000000
# 4 0.000000 0.000000 0.000000 0.221187 0.000000 0.000000
# 5 0.000000 0.000000 0.000000 0.000000 -0.046904 0.000000
# 6 0.000000 0.000000 0.000000 0.000000 0.000000 -0.276871
#
#
# Mechanical properties :
#
#
# Convention : Reuss Voigt Hill
#
# Bulk Modulus (GPa) = 45.01479 56.82161 50.91820
# Shear Modulus (GPa) = -120.67376 11.06865 -54.80255
#
# Velocity S-wave (km/s) = -7.14578 2.16417 -4.81553
# Velocity P-wave (km/s) = 7.00252 5.50350 3.06160
#
# Compressibility (1/GPa) = 0.02221492
#
# Stress axis : x y z
#
# Youngs Moduli (GPa) = 96.29831 61.64679 87.90373
#
# Poissons Ratio (x) = 0.23760 0.46750
# Poissons Ratio (y) = 0.37115 -0.11331
# Poissons Ratio (z) = 0.51215 -0.07946
#
# Static dielectric constant tensor:
#      x y z
#    x 1.974180 0.000000 0.000000 
#    y 0.000000 2.300610 0.000000 
#    z 0.000000 0.000000 1.809180 
# 
# From -- ./inp_files/37723.got.cif
#   From: 2010.05.17/outbox.cif.g08.bks.cpg/sg68_19_cif.got.tgz:37723.got - 2010.06.03 18:57:09.
