data_PCOD9509618
_publ_section_title
;
Structure prediction by ZEFSAII (Michael W. Deem and Ramdas Pophale) SiO2 
 PCOD9509618
Probable space group: C C C A
;
_chemical_formula_sum "Si O2"
_cell_formula_units_Z 64
_cell_length_a 10.845839
_cell_length_b 23.072430
_cell_length_c 10.911358
_cell_angle_alpha 90.000000
_cell_angle_beta 90.000000
_cell_angle_gamma 90.000000
_cell_volume 2730.456711
_symmetry_space_group_name_H-M "C C C A"
_symmetry_group_IT_number 68
_space_group.IT_coordinate_system_code '2'
_symmetry_cell_setting 'orthorhombic'
loop_
_space_group_symop_operation_xyz
x,y,z
-x,1/2-y,z
x,1/2-y,1/2-z
-x,y,1/2-z
-x,-y,-z
x,1/2+y,-z
-x,1/2+y,1/2+z
x,-y,1/2+z
1/2+x,1/2+y,z
1/2-x,-y,z
1/2+x,-y,1/2-z
1/2-x,1/2+y,1/2-z
1/2-x,1/2-y,-z
1/2+x,y,-z
1/2-x,y,1/2+z
1/2+x,1/2-y,1/2+z
loop_
_atom_site_type_symbol
_atom_site_label
_atom_site_fract_x
_atom_site_fract_y
_atom_site_fract_z
Si Si1 0.338413 0.844366 0.631021
Si Si2 0.500000 0.250000 0.250000
Si Si3 0.382629 0.481986 0.580774
Si Si4 0.338657 0.850935 0.362100
Si Si5 0.000000 0.250000 0.250000
Si Si6 0.000000 0.064752 0.750000
O O1 0.412479 0.786804 0.662552
O O2 0.279173 0.842432 0.497045
O O3 0.247668 0.853564 0.744066
O O4 0.441255 0.894507 0.646059
O O5 0.500000 0.500000 0.500000
O O6 0.250000 0.500000 0.523186
O O7 0.394357 0.415383 0.622655
O O8 0.394179 0.523997 0.697783
O O9 0.423693 0.795083 0.334685
#
# Coordination Sequence:
#
# PCOD9509618 Si02
#       6
#    16   4  16  16   4   8
#     4  11  25  47  75 108 153 211 270 339 418 504
#     4  10  24  44  74 104 150 206 274 336 406 512
#     4  12  26  48  81 118 165 219 278 351 425 516
#     4  12  27  50  78 114 164 213 279 347 426 509
#     4  12  30  48  78 124 160 224 286 356 432 512
#     4  11  23  45  72 111 151 211 268 330 416 495
#
# _framework density 23.439304
#
# number of rings (size 3 to 8) (size 9 to 14) (size 15 to 20)
#    0.000    0.500    5.000    2.250    0.000   13.000 
#    0.000    0.000    0.000    0.000    0.000    0.000 
#    0.000    0.000    0.000    0.000    0.000    0.000 
#
# Total GULP energy -178823.897187 kJ/mol
# GULP energy per Si atom -5588.246787 kJ/mol
# Density = 2.338595 g / cm^3
# Si number density = 23.439304 Si / 1000 Ang^3
#
#
#
# Elastic Constant Matrix: (Units=GPa)
#
#
# Indices 1 2 3 4 5 6 
#
# 1 104.1278 55.4436 47.1047 0.0000 0.0000 0.0000
# 2 55.4436 195.8542 48.4593 0.0000 0.0000 0.0000
# 3 47.1047 48.4593 176.3491 0.0000 0.0000 0.0000
# 4 0.0000 0.0000 0.0000 -176.1152 0.0000 0.0000
# 5 0.0000 0.0000 0.0000 0.0000 28.6063 0.0000
# 6 0.0000 0.0000 0.0000 0.0000 0.0000 16.7657
#
#
#
# Elastic Compliance Matrix: (Units=1/GPa)
#
#
# Indices 1 2 3 4 5 6 
#
# 1 0.012247 -0.002851 -0.002488 0.000000 0.000000 0.000000
# 2 -0.002851 0.006142 -0.000926 0.000000 0.000000 0.000000
# 3 -0.002488 -0.000926 0.006590 0.000000 0.000000 0.000000
# 4 0.000000 0.000000 0.000000 -0.005678 0.000000 0.000000
# 5 0.000000 0.000000 0.000000 0.000000 0.034957 0.000000
# 6 0.000000 0.000000 0.000000 0.000000 0.000000 0.059646
#
#
# Mechanical properties :
#
#
# Convention : Reuss Voigt Hill
#
# Bulk Modulus (GPa) = 80.33316 86.48294 83.40805
# Shear Modulus (GPa) = 38.28942 -4.46041 16.91450
#
# Velocity S-wave (km/s) = 4.04611 -1.38098 2.68923
# Velocity P-wave (km/s) = 7.49502 5.86804 6.73087
#
# Compressibility (1/GPa) = 0.01244816
#
# Stress axis : x y z
#
# Youngs Moduli (GPa) = 81.65065 162.80777 151.75444
#
# Poissons Ratio (x) = 0.46425 0.37754
# Poissons Ratio (y) = 0.23283 0.14055
# Poissons Ratio (z) = 0.20313 0.15079
#
# Static dielectric constant tensor:
#      x y z
#    x 1.890410 0.000000 0.000000 
#    y 0.000000 1.945830 0.000000 
#    z 0.000000 0.000000 2.233380 
# 
# From -- ./inp_files/11743.got.cif
#   From: 2010.05.17/outbox.cif.g08.bks.cpg/sg68_6_cif.got.tgz:11743.got - 2010.06.03 18:57:09.
