data_PCOD9509530
_publ_section_title
;
Structure prediction by ZEFSAII (Michael W. Deem and Ramdas Pophale) SiO2 
 PCOD9509530
Probable space group: C C C A
;
_chemical_formula_sum "Si O2"
_cell_formula_units_Z 104
_cell_length_a 21.760116
_cell_length_b 26.509968
_cell_length_c 8.992165
_cell_angle_alpha 90.000000
_cell_angle_beta 90.000000
_cell_angle_gamma 90.000000
_cell_volume 5187.220112
_symmetry_space_group_name_H-M "C C C A"
_symmetry_group_IT_number 68
_space_group.IT_coordinate_system_code '2'
_symmetry_cell_setting 'orthorhombic'
loop_
_space_group_symop_operation_xyz
x,y,z
-x,1/2-y,z
x,1/2-y,1/2-z
-x,y,1/2-z
-x,-y,-z
x,1/2+y,-z
-x,1/2+y,1/2+z
x,-y,1/2+z
1/2+x,1/2+y,z
1/2-x,-y,z
1/2+x,-y,1/2-z
1/2-x,1/2+y,1/2-z
1/2-x,1/2-y,-z
1/2+x,y,-z
1/2-x,y,1/2+z
1/2+x,1/2-y,1/2+z
loop_
_atom_site_type_symbol
_atom_site_label
_atom_site_fract_x
_atom_site_fract_y
_atom_site_fract_z
Si Si1 0.903417 0.398003 0.887796
Si Si2 0.500000 0.035778 0.250000
Si Si3 0.884002 0.471287 0.152645
Si Si4 0.712016 0.303437 0.673024
Si Si5 0.694888 0.565796 0.649455
Si Si6 0.162342 0.799628 0.337176
Si Si7 0.313774 0.096386 0.827760
O O1 0.859865 0.415268 0.753516
O O2 0.892416 0.338397 0.876781
O O3 0.968046 0.425267 0.862938
O O4 0.880863 0.425781 0.035621
O O5 0.447995 0.000999 0.172651
O O6 0.829395 0.509929 0.111707
O O7 0.869398 0.442811 0.306670
O O8 0.697845 0.250000 0.750000
O O9 0.782709 0.315416 0.722615
O O10 0.697522 0.296522 0.497810
O O11 0.676005 0.349543 0.751016
O O12 0.701828 0.598053 0.500379
O O13 0.756245 0.570821 0.744419
O O14 0.138878 0.750000 0.250000
#
# Coordination Sequence:
#
# PCOD9509530 Si02
#       7
#    16   8  16  16  16  16  16
#     4  11  22  41  63  90 120 161 212 257 311 371
#     4  10  24  42  67  88 119 160 214 264 316 370
#     4  11  23  42  61  88 123 165 208 259 310 380
#     4  11  22  37  60  91 130 162 202 244 305 376
#     4  11  23  35  57  88 131 167 199 245 312 375
#     4  11  22  38  63  92 126 164 201 252 308 373
#     4  12  22  37  58  92 129 164 202 249 311 378
#
# _framework density 20.049275000000002
#
# number of rings (size 3 to 8) (size 9 to 14) (size 15 to 20)
#    0.000    0.923    3.077    6.462    2.154    2.462 
#    0.000    0.385    0.000    0.000    0.000    0.538 
#    0.000    0.000    0.000    0.000    0.000    0.000 
#
# Total GULP energy -289821.745951 kJ/mol
# GULP energy per Si atom -5573.495114 kJ/mol
# Density = 2.000364 g / cm^3
# Si number density = 20.049275 Si / 1000 Ang^3
#
#
#
# Elastic Constant Matrix: (Units=GPa)
#
#
# Indices 1 2 3 4 5 6 
#
# 1 66.9683 49.7736 25.3432 0.0000 0.0000 0.0000
# 2 49.7736 133.6610 39.6714 0.0000 0.0000 0.0000
# 3 25.3432 39.6714 128.1406 0.0000 0.0000 0.0000
# 4 0.0000 0.0000 0.0000 35.5581 0.0000 0.0000
# 5 0.0000 0.0000 0.0000 0.0000 21.2281 0.0000
# 6 0.0000 0.0000 0.0000 0.0000 0.0000 32.5380
#
#
#
# Elastic Compliance Matrix: (Units=1/GPa)
#
#
# Indices 1 2 3 4 5 6 
#
# 1 0.021065 -0.007276 -0.001913 0.000000 0.000000 0.000000
# 2 -0.007276 0.010752 -0.001890 0.000000 0.000000 0.000000
# 3 -0.001913 -0.001890 0.008767 0.000000 0.000000 0.000000
# 4 0.000000 0.000000 0.000000 0.028123 0.000000 0.000000
# 5 0.000000 0.000000 0.000000 0.000000 0.047107 0.000000
# 6 0.000000 0.000000 0.000000 0.000000 0.000000 0.030733
#
#
# Mechanical properties :
#
#
# Convention : Reuss Voigt Hill
#
# Bulk Modulus (GPa) = 54.27316 62.03850 58.15583
# Shear Modulus (GPa) = 28.59624 32.13028 30.36326
#
# Velocity S-wave (km/s) = 3.78073 4.00755 3.89579
# Velocity P-wave (km/s) = 6.79612 7.24045 7.02180
#
# Compressibility (1/GPa) = 0.01842531
#
# Stress axis : x y z
#
# Youngs Moduli (GPa) = 47.47312 93.00532 114.05908
#
# Poissons Ratio (x) = 0.67673 0.21824
# Poissons Ratio (y) = 0.34543 0.21554
# Poissons Ratio (z) = 0.09083 0.17575
#
# Static dielectric constant tensor:
#      x y z
#    x 1.755750 0.000000 0.000000 
#    y 0.000000 1.822760 0.000000 
#    z 0.000000 0.000000 1.765860 
# 
# From -- ./inp_files/8304.got.cif
#   From: 2010.05.17/outbox.cif.g08.bks.cpg/sg68_5_cif.got.tgz:8304.got - 2010.06.03 18:57:09.
