data_PCOD9509946
_publ_section_title
;
Structure prediction by ZEFSAII (Michael W. Deem and Ramdas Pophale) SiO2 
 PCOD9509946
Probable space group: C C C A
;
_chemical_formula_sum "Si O2"
_cell_formula_units_Z 80
_cell_length_a 11.320903
_cell_length_b 14.424700
_cell_length_c 23.999267
_cell_angle_alpha 90.000000
_cell_angle_beta 90.000000
_cell_angle_gamma 90.000000
_cell_volume 3919.095409
_symmetry_space_group_name_H-M "C C C A"
_symmetry_group_IT_number 68
_space_group.IT_coordinate_system_code '2'
_symmetry_cell_setting 'orthorhombic'
loop_
_space_group_symop_operation_xyz
x,y,z
-x,1/2-y,z
x,1/2-y,1/2-z
-x,y,1/2-z
-x,-y,-z
x,1/2+y,-z
-x,1/2+y,1/2+z
x,-y,1/2+z
1/2+x,1/2+y,z
1/2-x,-y,z
1/2+x,-y,1/2-z
1/2-x,1/2+y,1/2-z
1/2-x,1/2-y,-z
1/2+x,y,-z
1/2-x,y,1/2+z
1/2+x,1/2-y,1/2+z
loop_
_atom_site_type_symbol
_atom_site_label
_atom_site_fract_x
_atom_site_fract_y
_atom_site_fract_z
Si Si1 0.873806 0.857375 0.268030
Si Si2 0.727177 0.896601 0.659672
Si Si3 0.530819 0.353675 0.113982
Si Si4 0.203042 0.102551 0.525290
Si Si5 0.640300 0.765438 0.078067
O O1 0.878792 0.750000 0.250000
O O2 0.773487 0.895305 0.227280
O O3 0.876211 0.858781 0.334615
O O4 0.000000 0.900854 0.250000
O O5 0.593776 0.881259 0.639236
O O6 0.807210 0.816100 0.633007
O O7 0.750000 0.000000 0.639831
O O8 0.500000 0.250000 0.093950
O O9 0.585960 0.407882 0.063069
O O10 0.292798 0.169984 0.560243
O O11 0.170933 0.160811 0.470593
O O12 0.250000 0.000000 0.513432
O O13 0.500000 0.750000 0.082059
#
# Coordination Sequence:
#
# PCOD9509946 Si02
#       5
#    16  16  16  16  16
#     4   9  15  33  62  88 114 158 206 253 302 369
#     4  11  23  38  64  96 127 165 211 265 324 375
#     4  11  19  40  70  93 123 166 220 263 312 382
#     4  11  25  41  65  96 124 174 219 262 313 389
#     4  11  25  43  62  90 137 167 208 270 327 371
#
# _framework density 20.412875
#
# number of rings (size 3 to 8) (size 9 to 14) (size 15 to 20)
#    0.000    1.400    6.000    1.200    5.600    1.600 
#    0.000    0.000    4.400    1.200    0.000    0.000 
#    0.000    0.000    0.000    0.000    0.000    0.000 
#
# Total GULP energy -222937.977583 kJ/mol
# GULP energy per Si atom -5573.449440 kJ/mol
# Density = 2.036641 g / cm^3
# Si number density = 20.412875 Si / 1000 Ang^3
#
#
#
# Elastic Constant Matrix: (Units=GPa)
#
#
# Indices 1 2 3 4 5 6 
#
# 1 91.4596 39.5741 25.6351 0.0000 0.0000 0.0000
# 2 39.5741 112.4624 18.8451 0.0000 0.0000 0.0000
# 3 25.6351 18.8451 70.3856 0.0000 0.0000 0.0000
# 4 0.0000 0.0000 0.0000 16.4357 0.0000 0.0000
# 5 0.0000 0.0000 0.0000 0.0000 13.1169 0.0000
# 6 0.0000 0.0000 0.0000 0.0000 0.0000 3.2335
#
#
#
# Elastic Compliance Matrix: (Units=1/GPa)
#
#
# Indices 1 2 3 4 5 6 
#
# 1 0.013858 -0.004220 -0.003917 0.000000 0.000000 0.000000
# 2 -0.004220 0.010595 -0.001300 0.000000 0.000000 0.000000
# 3 -0.003917 -0.001300 0.015982 0.000000 0.000000 0.000000
# 4 0.000000 0.000000 0.000000 0.060843 0.000000 0.000000
# 5 0.000000 0.000000 0.000000 0.000000 0.076237 0.000000
# 6 0.000000 0.000000 0.000000 0.000000 0.000000 0.309262
#
#
# Mechanical properties :
#
#
# Convention : Reuss Voigt Hill
#
# Bulk Modulus (GPa) = 46.38069 49.15737 47.76903
# Shear Modulus (GPa) = 9.74966 19.24077 14.49522
#
# Velocity S-wave (km/s) = 2.18783 3.07348 2.66766
# Velocity P-wave (km/s) = 5.39933 6.06043 5.73941
#
# Compressibility (1/GPa) = 0.02156070
#
# Stress axis : x y z
#
# Youngs Moduli (GPa) = 72.16203 94.38785 62.56985
#
# Poissons Ratio (x) = 0.39831 0.24510
# Poissons Ratio (y) = 0.30452 0.08132
# Poissons Ratio (z) = 0.28268 0.12267
#
# Static dielectric constant tensor:
#      x y z
#    x 1.752500 0.000000 0.000000 
#    y 0.000000 1.688120 0.000000 
#    z 0.000000 0.000000 1.779390 
# 
# From -- ./inp_files/44092.got.cif
#   From: 2010.05.17/outbox.cif.g08.bks.cpg/sg68_23_cif.got.tgz:44092.got - 2010.06.03 18:57:09.
