data_PCOD9509622
_publ_section_title
;
Structure prediction by ZEFSAII (Michael W. Deem and Ramdas Pophale) SiO2 
 PCOD9509622
Probable space group: C C C A
;
_chemical_formula_sum "Si O2"
_cell_formula_units_Z 56
_cell_length_a 28.587498
_cell_length_b 10.333222
_cell_length_c 8.316813
_cell_angle_alpha 90.000000
_cell_angle_beta 90.000000
_cell_angle_gamma 90.000000
_cell_volume 2456.794571
_symmetry_space_group_name_H-M "C C C A"
_symmetry_group_IT_number 68
_space_group.IT_coordinate_system_code '2'
_symmetry_cell_setting 'orthorhombic'
loop_
_space_group_symop_operation_xyz
x,y,z
-x,1/2-y,z
x,1/2-y,1/2-z
-x,y,1/2-z
-x,-y,-z
x,1/2+y,-z
-x,1/2+y,1/2+z
x,-y,1/2+z
1/2+x,1/2+y,z
1/2-x,-y,z
1/2+x,-y,1/2-z
1/2-x,1/2+y,1/2-z
1/2-x,1/2-y,-z
1/2+x,y,-z
1/2-x,y,1/2+z
1/2+x,1/2-y,1/2+z
loop_
_atom_site_type_symbol
_atom_site_label
_atom_site_fract_x
_atom_site_fract_y
_atom_site_fract_z
Si Si1 0.621776 0.820748 0.073483
Si Si2 0.250000 0.000000 0.686338
Si Si3 0.478334 0.626341 0.929781
Si Si4 0.820413 0.909354 0.070239
O O1 0.613592 0.750000 0.250000
O O2 0.651341 0.954330 0.091754
O O3 0.576131 0.863320 0.970853
O O4 0.647081 0.712725 0.963550
O O5 0.213570 0.920550 0.581947
O O6 0.283035 0.905589 0.787363
O O7 0.500000 0.750000 0.016397
O O8 0.500000 0.627193 0.750000
O O9 0.500000 0.500000 0.000000
#
# Coordination Sequence:
#
# PCOD9509622 Si02
#       4
#    16   8  16  16
#     4  12  27  48  78 113 152 206 258 320 392 468
#     4  10  24  44  74 112 152 212 254 318 382 458
#     4  11  28  49  77 111 149 196 250 323 390 467
#     4  11  25  46  74 111 156 202 260 315 383 456
#
# _framework density 22.79393
#
# number of rings (size 3 to 8) (size 9 to 14) (size 15 to 20)
#    0.000    0.857    2.857    1.714    8.000   12.571 
#    0.000    0.000    0.000    0.000    0.000    0.000 
#    0.000    0.000    0.000    0.000    0.000    0.000 
#
# Total GULP energy -156350.779537 kJ/mol
# GULP energy per Si atom -5583.956412 kJ/mol
# Density = 2.274205 g / cm^3
# Si number density = 22.793930 Si / 1000 Ang^3
#
#
#
# Elastic Constant Matrix: (Units=GPa)
#
#
# Indices 1 2 3 4 5 6 
#
# 1 200.5211 91.1503 78.6772 0.0000 0.0000 0.0000
# 2 91.1503 190.5201 44.6445 0.0000 0.0000 0.0000
# 3 78.6772 44.6445 111.2889 0.0000 0.0000 0.0000
# 4 0.0000 0.0000 0.0000 9.7422 0.0000 0.0000
# 5 0.0000 0.0000 0.0000 0.0000 12.6705 0.0000
# 6 0.0000 0.0000 0.0000 0.0000 0.0000 45.1312
#
#
#
# Elastic Compliance Matrix: (Units=1/GPa)
#
#
# Indices 1 2 3 4 5 6 
#
# 1 0.008043 -0.002777 -0.004572 0.000000 0.000000 0.000000
# 2 -0.002777 0.006752 -0.000746 0.000000 0.000000 0.000000
# 3 -0.004572 -0.000746 0.012517 0.000000 0.000000 0.000000
# 4 0.000000 0.000000 0.000000 0.102647 0.000000 0.000000
# 5 0.000000 0.000000 0.000000 0.000000 0.078923 0.000000
# 6 0.000000 0.000000 0.000000 0.000000 0.000000 0.022158
#
#
# Mechanical properties :
#
#
# Convention : Reuss Voigt Hill
#
# Bulk Modulus (GPa) = 89.90294 103.47490 96.68892
# Shear Modulus (GPa) = 19.92534 32.69934 26.31234
#
# Velocity S-wave (km/s) = 2.95981 3.79167 3.40127
# Velocity P-wave (km/s) = 7.15597 8.04136 7.61155
#
# Compressibility (1/GPa) = 0.01112311
#
# Stress axis : x y z
#
# Youngs Moduli (GPa) = 124.32828 148.10558 79.88986
#
# Poissons Ratio (x) = 0.41124 0.36529
# Poissons Ratio (y) = 0.34522 0.05957
# Poissons Ratio (z) = 0.56848 0.11043
#
# Static dielectric constant tensor:
#      x y z
#    x 1.861790 0.000000 0.000000 
#    y 0.000000 1.831100 0.000000 
#    z 0.000000 0.000000 1.928180 
# 
# From -- ./inp_files/8518.got.cif
#   From: 2010.05.17/outbox.cif.g08.bks.cpg/sg68_5_cif.got.tgz:8518.got - 2010.06.03 18:57:09.
