data_PCOD9509065
_publ_section_title
;
Structure prediction by ZEFSAII (Michael W. Deem and Ramdas Pophale) SiO2 
 PCOD9509065
Probable space group: C C C A
;
_chemical_formula_sum "Si O2"
_cell_formula_units_Z 112
_cell_length_a 19.842883
_cell_length_b 17.707186
_cell_length_c 14.244045
_cell_angle_alpha 90.000000
_cell_angle_beta 90.000000
_cell_angle_gamma 90.000000
_cell_volume 5004.810727
_symmetry_space_group_name_H-M "C C C A"
_symmetry_group_IT_number 68
_space_group.IT_coordinate_system_code '2'
_symmetry_cell_setting 'orthorhombic'
loop_
_space_group_symop_operation_xyz
x,y,z
-x,1/2-y,z
x,1/2-y,1/2-z
-x,y,1/2-z
-x,-y,-z
x,1/2+y,-z
-x,1/2+y,1/2+z
x,-y,1/2+z
1/2+x,1/2+y,z
1/2-x,-y,z
1/2+x,-y,1/2-z
1/2-x,1/2+y,1/2-z
1/2-x,1/2-y,-z
1/2+x,y,-z
1/2-x,y,1/2+z
1/2+x,1/2-y,1/2+z
loop_
_atom_site_type_symbol
_atom_site_label
_atom_site_fract_x
_atom_site_fract_y
_atom_site_fract_z
Si Si1 0.885663 0.063692 0.450860
Si Si2 0.673414 0.510641 0.723937
Si Si3 0.364927 0.569556 0.086833
Si Si4 0.935956 0.699453 0.473488
Si Si5 0.756380 0.338987 0.974416
Si Si6 0.660973 0.670790 0.800479
Si Si7 0.077128 0.719739 0.651849
O O1 0.875372 0.033552 0.346650
O O2 0.946400 0.120948 0.472147
O O3 0.817091 0.112122 0.477561
O O4 0.895492 0.994037 0.520516
O O5 0.750000 0.500000 0.689238
O O6 0.669568 0.475832 0.827938
O O7 0.654140 0.598716 0.733863
O O8 0.311975 0.613607 0.019939
O O9 0.411858 0.631360 0.137500
O O10 0.897567 0.679353 0.378342
O O11 0.895668 0.745528 0.554174
O O12 0.000000 0.750000 0.450673
O O13 0.772866 0.340584 0.863338
O O14 0.750000 0.250000 0.000000
O O15 0.665309 0.750000 0.750000
O O16 0.107617 0.750000 0.750000
O O17 0.000000 0.750000 0.652776
#
# Coordination Sequence:
#
# PCOD9509065 Si02
#       7
#    16  16  16  16  16  16  16
#     4  11  24  40  67 105 136 184 228 286 358 410
#     4  12  23  41  66 101 148 181 222 283 349 428
#     4  12  21  41  67  96 140 177 223 289 344 418
#     4  10  22  47  71  92 134 183 237 294 349 404
#     4  11  23  39  63 101 143 185 225 272 348 434
#     4  11  25  41  64 100 140 183 232 277 345 435
#     4  10  23  43  69  95 129 177 236 296 348 408
#
# _framework density 22.378468000000002
#
# number of rings (size 3 to 8) (size 9 to 14) (size 15 to 20)
#    0.000    1.000    4.286    3.857    6.000    0.857 
#    0.000    2.857    6.286    0.000    0.000    0.000 
#    0.000    0.000    0.000    0.000    0.000    0.000 
#
# Total GULP energy -312531.413357 kJ/mol
# GULP energy per Si atom -5580.918096 kJ/mol
# Density = 2.232753 g / cm^3
# Si number density = 22.378468 Si / 1000 Ang^3
#
#
#
# Elastic Constant Matrix: (Units=GPa)
#
#
# Indices 1 2 3 4 5 6 
#
# 1 53.4468 35.4161 3.9837 0.0000 0.0000 0.0000
# 2 35.4161 181.4390 36.1140 0.0000 0.0000 0.0000
# 3 3.9837 36.1140 78.7214 0.0000 0.0000 0.0000
# 4 0.0000 0.0000 0.0000 51.5438 0.0000 0.0000
# 5 0.0000 0.0000 0.0000 0.0000 -3.1679 0.0000
# 6 0.0000 0.0000 0.0000 0.0000 0.0000 44.2909
#
#
#
# Elastic Compliance Matrix: (Units=1/GPa)
#
#
# Indices 1 2 3 4 5 6 
#
# 1 0.021551 -0.004390 0.000924 0.000000 0.000000 0.000000
# 2 -0.004390 0.006960 -0.002971 0.000000 0.000000 0.000000
# 3 0.000924 -0.002971 0.014019 0.000000 0.000000 0.000000
# 4 0.000000 0.000000 0.000000 0.019401 0.000000 0.000000
# 5 0.000000 0.000000 0.000000 0.000000 -0.315666 0.000000
# 6 0.000000 0.000000 0.000000 0.000000 0.000000 0.022578
#
#
# Mechanical properties :
#
#
# Convention : Reuss Voigt Hill
#
# Bulk Modulus (GPa) = 33.72173 51.62611 42.67392
# Shear Modulus (GPa) = -23.99256 34.40626 5.20685
#
# Velocity S-wave (km/s) = -3.27789 3.92531 1.52701
# Velocity P-wave (km/s) = 0.88061 6.60786 4.71377
#
# Compressibility (1/GPa) = 0.02965447
#
# Stress axis : x y z
#
# Youngs Moduli (GPa) = 46.40232 143.68277 71.33122
#
# Poissons Ratio (x) = 0.63083 -0.06588
# Poissons Ratio (y) = 0.20373 0.21190
# Poissons Ratio (z) = -0.04286 0.42683
#
# Static dielectric constant tensor:
#      x y z
#    x 1.945630 0.000000 0.000000 
#    y 0.000000 1.870140 0.000000 
#    z 0.000000 0.000000 1.841490 
# 
# From -- ./inp_files/25461.got.cif
#   From: 2010.05.17/outbox.cif.g08.bks.cpg/sg68_13_cif.got.tgz:25461.got - 2010.06.03 18:57:09.
