data_PCOD9509482
_publ_section_title
;
Structure prediction by ZEFSAII (Michael W. Deem and Ramdas Pophale) SiO2 
 PCOD9509482
Probable space group: C C C A
;
_chemical_formula_sum "Si O2"
_cell_formula_units_Z 104
_cell_length_a 18.741039
_cell_length_b 8.141590
_cell_length_c 29.125600
_cell_angle_alpha 90.000000
_cell_angle_beta 90.000000
_cell_angle_gamma 90.000000
_cell_volume 4444.038097
_symmetry_space_group_name_H-M "C C C A"
_symmetry_group_IT_number 68
_space_group.IT_coordinate_system_code '2'
_symmetry_cell_setting 'orthorhombic'
loop_
_space_group_symop_operation_xyz
x,y,z
-x,1/2-y,z
x,1/2-y,1/2-z
-x,y,1/2-z
-x,-y,-z
x,1/2+y,-z
-x,1/2+y,1/2+z
x,-y,1/2+z
1/2+x,1/2+y,z
1/2-x,-y,z
1/2+x,-y,1/2-z
1/2-x,1/2+y,1/2-z
1/2-x,1/2-y,-z
1/2+x,y,-z
1/2-x,y,1/2+z
1/2+x,1/2-y,1/2+z
loop_
_atom_site_type_symbol
_atom_site_label
_atom_site_fract_x
_atom_site_fract_y
_atom_site_fract_z
Si Si1 0.365059 0.750000 0.250000
Si Si2 0.071472 0.850559 0.560581
Si Si3 0.227792 0.744389 0.144743
Si Si4 0.612843 0.307867 0.851438
Si Si5 0.615929 0.829291 0.975913
Si Si6 0.927355 0.645973 0.388442
Si Si7 0.750000 0.500000 0.564470
Si Si8 0.750000 0.500000 0.223860
O O1 0.404418 0.742618 0.200858
O O2 0.315121 0.586189 0.250178
O O3 0.100271 0.841595 0.612557
O O4 0.120222 0.743803 0.526234
O O5 0.000000 0.750000 0.557270
O O6 0.059632 0.031640 0.540364
O O7 0.302383 0.642884 0.148878
O O8 0.145572 0.697345 0.137662
O O9 0.249203 0.849814 0.100075
O O10 0.225511 0.855344 0.190171
O O11 0.566782 0.457265 0.872298
O O12 0.597495 0.680655 0.941046
O O13 0.685791 0.938227 0.966762
O O14 0.000000 0.750000 0.379196
#
# Coordination Sequence:
#
# PCOD9509482 Si02
#       8
#     8  16  16  16  16  16   8   8
#     4  10  24  40  71 106 131 176 234 286 346 410
#     4  12  24  42  67  93 136 178 227 278 344 413
#     4   9  19  39  68  92 134 175 221 276 341 400
#     4  11  23  44  66 105 130 179 229 284 341 409
#     4  11  23  41  64  97 134 179 225 272 343 410
#     4  11  23  40  68 100 139 174 224 275 341 411
#     4   9  18  38  59  94 128 176 215 282 325 400
#     4   9  20  38  67  98 128 168 225 284 333 402
#
# _framework density 23.402141
#
# number of rings (size 3 to 8) (size 9 to 14) (size 15 to 20)
#    0.000    1.538    1.538    3.231    6.462    0.615 
#    2.769    0.385    0.000    0.923    0.000    0.000 
#    0.000    0.000    0.000    0.000    0.000    0.000 
#
# Total GULP energy -289765.892296 kJ/mol
# GULP energy per Si atom -5572.421006 kJ/mol
# Density = 2.334888 g / cm^3
# Si number density = 23.402141 Si / 1000 Ang^3
#
#
#
# Elastic Constant Matrix: (Units=GPa)
#
#
# Indices 1 2 3 4 5 6 
#
# 1 94.4146 25.1794 12.1698 0.0000 0.0000 0.0000
# 2 25.1794 77.1231 47.0240 0.0000 0.0000 0.0000
# 3 12.1698 47.0240 165.1765 0.0000 0.0000 0.0000
# 4 0.0000 0.0000 0.0000 15.2143 0.0000 0.0000
# 5 0.0000 0.0000 0.0000 0.0000 11.4359 0.0000
# 6 0.0000 0.0000 0.0000 0.0000 0.0000 19.8953
#
#
#
# Elastic Compliance Matrix: (Units=1/GPa)
#
#
# Indices 1 2 3 4 5 6 
#
# 1 0.011612 -0.003956 0.000271 0.000000 0.000000 0.000000
# 2 -0.003956 0.017038 -0.004559 0.000000 0.000000 0.000000
# 3 0.000271 -0.004559 0.007332 0.000000 0.000000 0.000000
# 4 0.000000 0.000000 0.000000 0.065728 0.000000 0.000000
# 5 0.000000 0.000000 0.000000 0.000000 0.087444 0.000000
# 6 0.000000 0.000000 0.000000 0.000000 0.000000 0.050263
#
#
# Mechanical properties :
#
#
# Convention : Reuss Voigt Hill
#
# Bulk Modulus (GPa) = 51.30110 56.16228 53.73169
# Shear Modulus (GPa) = 19.05469 26.13182 22.59326
#
# Velocity S-wave (km/s) = 2.85656 3.34525 3.11052
# Velocity P-wave (km/s) = 5.73141 6.24274 5.99253
#
# Compressibility (1/GPa) = 0.01949276
#
# Stress axis : x y z
#
# Youngs Moduli (GPa) = 86.11975 58.69368 136.38716
#
# Poissons Ratio (x) = 0.23220 -0.03693
# Poissons Ratio (y) = 0.34070 0.62178
# Poissons Ratio (z) = -0.02332 0.26758
#
# Static dielectric constant tensor:
#      x y z
#    x 2.004620 0.000000 0.000000 
#    y 0.000000 2.008400 0.000000 
#    z 0.000000 0.000000 1.896610 
# 
# From -- ./inp_files/51873.got.cif
#   From: 2010.05.17/outbox.cif.g08.bks.cpg/sg68_26_cif.got.tgz:51873.got - 2010.06.03 18:57:09.
