data_PCOD9509432
_publ_section_title
;
Structure prediction by ZEFSAII (Michael W. Deem and Ramdas Pophale) SiO2 
 PCOD9509432
Probable space group: C C C A
;
_chemical_formula_sum "Si O2"
_cell_formula_units_Z 72
_cell_length_a 21.228128
_cell_length_b 19.125480
_cell_length_c 8.961902
_cell_angle_alpha 90.000000
_cell_angle_beta 90.000000
_cell_angle_gamma 90.000000
_cell_volume 3638.515520
_symmetry_space_group_name_H-M "C C C A"
_symmetry_group_IT_number 68
_space_group.IT_coordinate_system_code '2'
_symmetry_cell_setting 'orthorhombic'
loop_
_space_group_symop_operation_xyz
x,y,z
-x,1/2-y,z
x,1/2-y,1/2-z
-x,y,1/2-z
-x,-y,-z
x,1/2+y,-z
-x,1/2+y,1/2+z
x,-y,1/2+z
1/2+x,1/2+y,z
1/2-x,-y,z
1/2+x,-y,1/2-z
1/2-x,1/2+y,1/2-z
1/2-x,1/2-y,-z
1/2+x,y,-z
1/2-x,y,1/2+z
1/2+x,1/2-y,1/2+z
loop_
_atom_site_type_symbol
_atom_site_label
_atom_site_fract_x
_atom_site_fract_y
_atom_site_fract_z
Si Si1 0.250000 0.000000 0.089916
Si Si2 0.064445 0.536833 0.051672
Si Si3 0.000000 0.863176 0.250000
Si Si4 0.169000 0.928983 0.848543
Si Si5 0.500000 0.750000 0.997620
Si Si6 0.072071 0.347022 0.307168
O O1 0.298409 0.961961 0.201989
O O2 0.220008 0.940167 0.981513
O O3 0.945823 0.585279 0.303592
O O4 0.113644 0.478789 0.093199
O O5 0.083586 0.590635 0.924083
O O6 0.000000 0.500000 0.000000
O O7 0.017163 0.814030 0.110871
O O8 0.130604 0.858011 0.805390
O O9 0.558282 0.723885 0.098777
O O10 0.000000 0.360354 0.250000
#
# Coordination Sequence:
#
# PCOD9509432 Si02
#       6
#     8  16   8  16   8  16
#     4  10  24  36  54  84 132 168 212 234 316 372
#     4  11  19  31  57  91 121 152 187 252 340 385
#     4   9  20  34  52  80 130 153 192 236 316 393
#     4  11  21  38  55  89 125 163 198 257 304 386
#     4   9  21  36  48  84 117 167 196 238 298 380
#     4  11  20  33  57  86 122 153 199 258 318 373
#
# _framework density 19.78829
#
# number of rings (size 3 to 8) (size 9 to 14) (size 15 to 20)
#    0.000    1.556    4.444    1.667    0.000    0.000 
#    0.000    0.000    0.000    0.000    0.000   28.000 
#    0.000    0.000    0.000    0.000    0.000    0.000 
#
# Total GULP energy -200524.334011 kJ/mol
# GULP energy per Si atom -5570.120389 kJ/mol
# Density = 1.974325 g / cm^3
# Si number density = 19.788290 Si / 1000 Ang^3
#
#
#
# Elastic Constant Matrix: (Units=GPa)
#
#
# Indices 1 2 3 4 5 6 
#
# 1 94.4515 25.8030 42.5000 0.0000 0.0000 0.0000
# 2 25.8030 68.7837 21.0245 0.0000 0.0000 0.0000
# 3 42.5000 21.0245 102.2528 0.0000 0.0000 0.0000
# 4 0.0000 0.0000 0.0000 27.3236 0.0000 0.0000
# 5 0.0000 0.0000 0.0000 0.0000 39.4437 0.0000
# 6 0.0000 0.0000 0.0000 0.0000 0.0000 23.3191
#
#
#
# Elastic Compliance Matrix: (Units=1/GPa)
#
#
# Indices 1 2 3 4 5 6 
#
# 1 0.013837 -0.003663 -0.004998 0.000000 0.000000 0.000000
# 2 -0.003663 0.016483 -0.001867 0.000000 0.000000 0.000000
# 3 -0.004998 -0.001867 0.012241 0.000000 0.000000 0.000000
# 4 0.000000 0.000000 0.000000 0.036598 0.000000 0.000000
# 5 0.000000 0.000000 0.000000 0.000000 0.025353 0.000000
# 6 0.000000 0.000000 0.000000 0.000000 0.000000 0.042883
#
#
# Mechanical properties :
#
#
# Convention : Reuss Voigt Hill
#
# Bulk Modulus (GPa) = 46.49963 49.34923 47.92443
# Shear Modulus (GPa) = 28.47070 29.76131 29.11600
#
# Velocity S-wave (km/s) = 3.79722 3.88233 3.84001
# Velocity P-wave (km/s) = 6.54024 6.71487 6.62813
#
# Compressibility (1/GPa) = 0.02150555
#
# Stress axis : x y z
#
# Youngs Moduli (GPa) = 72.26959 60.66853 81.69368
#
# Poissons Ratio (x) = 0.22223 0.40831
# Poissons Ratio (y) = 0.26473 0.15249
# Poissons Ratio (z) = 0.36121 0.11325
#
# Static dielectric constant tensor:
#      x y z
#    x 1.721870 0.000000 0.000000 
#    y 0.000000 1.721050 0.000000 
#    z 0.000000 0.000000 1.815760 
# 
# From -- ./inp_files/6991.got.cif
#   From: 2010.05.17/outbox.cif.g08.bks.cpg/sg68_4_cif.got.tgz:6991.got - 2010.06.03 18:57:09.
