data_PCOD9509888
_publ_section_title
;
Structure prediction by ZEFSAII (Michael W. Deem and Ramdas Pophale) SiO2 
 PCOD9509888
Probable space group: C C C A
;
_chemical_formula_sum "Si O2"
_cell_formula_units_Z 64
_cell_length_a 28.419544
_cell_length_b 9.586304
_cell_length_c 9.519611
_cell_angle_alpha 90.000000
_cell_angle_beta 90.000000
_cell_angle_gamma 90.000000
_cell_volume 2593.507478
_symmetry_space_group_name_H-M "C C C A"
_symmetry_group_IT_number 68
_space_group.IT_coordinate_system_code '2'
_symmetry_cell_setting 'orthorhombic'
loop_
_space_group_symop_operation_xyz
x,y,z
-x,1/2-y,z
x,1/2-y,1/2-z
-x,y,1/2-z
-x,-y,-z
x,1/2+y,-z
-x,1/2+y,1/2+z
x,-y,1/2+z
1/2+x,1/2+y,z
1/2-x,-y,z
1/2+x,-y,1/2-z
1/2-x,1/2+y,1/2-z
1/2-x,1/2-y,-z
1/2+x,y,-z
1/2-x,y,1/2+z
1/2+x,1/2-y,1/2+z
loop_
_atom_site_type_symbol
_atom_site_label
_atom_site_fract_x
_atom_site_fract_y
_atom_site_fract_z
Si Si1 0.580463 0.250000 0.750000
Si Si2 0.033238 0.475598 0.632781
Si Si3 0.371980 0.384832 0.012061
Si Si4 0.750000 0.000000 0.702350
Si Si5 0.191744 0.635630 0.455909
O O1 0.549711 0.128295 0.682559
O O2 0.612810 0.176865 0.864002
O O3 0.080741 0.389911 0.603394
O O4 0.000000 0.411439 0.750000
O O5 0.000000 0.500000 0.500000
O O6 0.353560 0.540139 0.988783
O O7 0.328486 0.290354 0.061191
O O8 0.784127 0.076981 0.814880
O O9 0.724444 0.108152 0.593944
#
# Coordination Sequence:
#
# PCOD9509888 Si02
#       5
#     8  16  16   8  16
#     4  12  25  52  76 112 170 208 258 346 394 458
#     4  12  27  49  81 116 161 218 266 332 401 470
#     4  12  26  48  81 117 155 219 260 334 392 494
#     4  10  26  50  78 116 158 212 252 354 398 502
#     4  11  26  48  79 114 159 202 273 317 422 478
#
# _framework density 24.677008000000001
#
# number of rings (size 3 to 8) (size 9 to 14) (size 15 to 20)
#    0.000    0.500    5.000    1.875    0.000    7.000 
#    4.500    3.750    0.000    0.000    0.000    0.000 
#    0.000    0.000    0.000    0.000    0.000    0.000 
#
# Total GULP energy -179453.434200 kJ/mol
# GULP energy per Si atom -5607.919819 kJ/mol
# Density = 2.462084 g / cm^3
# Si number density = 24.677008 Si / 1000 Ang^3
#
#
#
# Elastic Constant Matrix: (Units=GPa)
#
#
# Indices 1 2 3 4 5 6 
#
# 1 139.9472 6.8808 75.6054 0.0000 0.0000 0.0000
# 2 6.8808 57.8551 11.4438 0.0000 0.0000 0.0000
# 3 75.6054 11.4438 168.1957 0.0000 0.0000 0.0000
# 4 0.0000 0.0000 0.0000 40.0305 0.0000 0.0000
# 5 0.0000 0.0000 0.0000 0.0000 366.5633 0.0000
# 6 0.0000 0.0000 0.0000 0.0000 0.0000 47.8858
#
#
#
# Elastic Compliance Matrix: (Units=1/GPa)
#
#
# Indices 1 2 3 4 5 6 
#
# 1 0.009442 -0.000287 -0.004225 0.000000 0.000000 0.000000
# 2 -0.000287 0.017529 -0.001064 0.000000 0.000000 0.000000
# 3 -0.004225 -0.001064 0.007917 0.000000 0.000000 0.000000
# 4 0.000000 0.000000 0.000000 0.024981 0.000000 0.000000
# 5 0.000000 0.000000 0.000000 0.000000 0.002728 0.000000
# 6 0.000000 0.000000 0.000000 0.000000 0.000000 0.020883
#
#
# Mechanical properties :
#
#
# Convention : Reuss Voigt Hill
#
# Bulk Modulus (GPa) = 42.12847 61.53980 51.83414
# Shear Modulus (GPa) = 48.75981 109.03379 78.89680
#
# Velocity S-wave (km/s) = 4.44996 6.65434 5.66049
# Velocity P-wave (km/s) = 6.59635 9.16693 7.98575
#
# Compressibility (1/GPa) = 0.02373692
#
# Stress axis : x y z
#
# Youngs Moduli (GPa) = 105.90909 57.04799 126.31254
#
# Poissons Ratio (x) = 0.01639 0.53364
# Poissons Ratio (y) = 0.03043 0.13433
# Poissons Ratio (z) = 0.44744 0.06067
#
# Static dielectric constant tensor:
#      x y z
#    x 2.018730 0.000000 0.000000 
#    y 0.000000 1.928070 0.000000 
#    z 0.000000 0.000000 1.929340 
# 
# From -- ./inp_files/4085.got.cif
#   From: 2010.05.17/outbox.cif.g08.bks.cpg/sg68_3_cif.got.tgz:4085.got - 2010.06.03 18:57:09.
