data_PCOD9509351
_publ_section_title
;
Structure prediction by ZEFSAII (Michael W. Deem and Ramdas Pophale) SiO2 
 PCOD9509351
Probable space group: C C C A
;
_chemical_formula_sum "Si O2"
_cell_formula_units_Z 120
_cell_length_a 11.359743
_cell_length_b 22.618240
_cell_length_c 21.352706
_cell_angle_alpha 90.000000
_cell_angle_beta 90.000000
_cell_angle_gamma 90.000000
_cell_volume 5486.308624
_symmetry_space_group_name_H-M "C C C A"
_symmetry_group_IT_number 68
_space_group.IT_coordinate_system_code '2'
_symmetry_cell_setting 'orthorhombic'
loop_
_space_group_symop_operation_xyz
x,y,z
-x,1/2-y,z
x,1/2-y,1/2-z
-x,y,1/2-z
-x,-y,-z
x,1/2+y,-z
-x,1/2+y,1/2+z
x,-y,1/2+z
1/2+x,1/2+y,z
1/2-x,-y,z
1/2+x,-y,1/2-z
1/2-x,1/2+y,1/2-z
1/2-x,1/2-y,-z
1/2+x,y,-z
1/2-x,y,1/2+z
1/2+x,1/2-y,1/2+z
loop_
_atom_site_type_symbol
_atom_site_label
_atom_site_fract_x
_atom_site_fract_y
_atom_site_fract_z
Si Si1 0.463711 0.583626 0.620770
Si Si2 0.750612 0.181020 0.260320
Si Si3 0.126691 0.639294 0.886840
Si Si4 0.628133 0.257638 0.961354
Si Si5 0.740314 0.140374 0.618835
Si Si6 0.000000 0.867799 0.250000
Si Si7 0.688915 0.936168 0.947149
Si Si8 0.417722 0.450345 0.582959
O O1 0.376362 0.635379 0.596949
O O2 0.454516 0.590519 0.694823
O O3 0.599739 0.589182 0.603946
O O4 0.438874 0.518432 0.595369
O O5 0.778632 0.250000 0.250000
O O6 0.819211 0.147959 0.316908
O O7 0.773861 0.157040 0.190717
O O8 0.610471 0.171690 0.271747
O O9 0.111132 0.706143 0.909929
O O10 0.208066 0.611183 0.941979
O O11 0.019066 0.592624 0.889596
O O12 0.500000 0.250000 0.995849
O O13 0.658528 0.318599 0.924574
O O14 0.750000 0.250000 0.000000
O O15 0.700192 0.072845 0.614466
O O16 0.750000 0.000000 0.935394
O O17 0.611495 0.940929 0.009716
#
# Coordination Sequence:
#
# PCOD9509351 Si02
#       8
#    16  16  16  16  16   8  16  16
#     4  11  24  43  71 104 138 190 239 302 369 440
#     4  11  23  46  69 100 141 189 247 297 368 443
#     4  12  26  44  72 104 138 190 241 299 365 438
#     4  12  27  48  70 106 148 193 247 308 374 443
#     4  11  25  44  70 101 142 191 240 304 369 440
#     4  10  23  44  70 100 144 179 246 308 354 440
#     4  12  25  45  73 103 147 192 240 302 372 454
#     4  12  26  44  67 106 143 185 239 294 367 451
#
# _framework density 21.872630000000001
#
# number of rings (size 3 to 8) (size 9 to 14) (size 15 to 20)
#    0.000    0.533    5.333    2.600    3.733    1.600 
#    0.000    2.667    0.000    0.000    0.000    0.000 
#    0.000    0.000    0.000    0.000    0.000    0.000 
#
# Total GULP energy -334296.291925 kJ/mol
# GULP energy per Si atom -5571.604865 kJ/mol
# Density = 2.182285 g / cm^3
# Si number density = 21.872630 Si / 1000 Ang^3
#
#
#
# Elastic Constant Matrix: (Units=GPa)
#
#
# Indices 1 2 3 4 5 6 
#
# 1 116.1218 22.7355 35.1639 0.0000 0.0000 0.0000
# 2 22.7355 74.3939 24.2887 0.0000 0.0000 0.0000
# 3 35.1639 24.2887 73.4920 0.0000 0.0000 0.0000
# 4 0.0000 0.0000 0.0000 22.9457 0.0000 0.0000
# 5 0.0000 0.0000 0.0000 0.0000 30.3899 0.0000
# 6 0.0000 0.0000 0.0000 0.0000 0.0000 45.1357
#
#
#
# Elastic Compliance Matrix: (Units=1/GPa)
#
#
# Indices 1 2 3 4 5 6 
#
# 1 0.010263 -0.001719 -0.004343 0.000000 0.000000 0.000000
# 2 -0.001719 0.015356 -0.004253 0.000000 0.000000 0.000000
# 3 -0.004343 -0.004253 0.017090 0.000000 0.000000 0.000000
# 4 0.000000 0.000000 0.000000 0.043581 0.000000 0.000000
# 5 0.000000 0.000000 0.000000 0.000000 0.032906 0.000000
# 6 0.000000 0.000000 0.000000 0.000000 0.000000 0.022155
#
#
# Mechanical properties :
#
#
# Convention : Reuss Voigt Hill
#
# Bulk Modulus (GPa) = 45.28746 47.59820 46.44283
# Shear Modulus (GPa) = 29.52648 31.81557 30.67102
#
# Velocity S-wave (km/s) = 3.67812 3.81804 3.74873
# Velocity P-wave (km/s) = 6.22801 6.42225 6.32588
#
# Compressibility (1/GPa) = 0.02208117
#
# Stress axis : x y z
#
# Youngs Moduli (GPa) = 97.43570 65.12263 58.51310
#
# Poissons Ratio (x) = 0.11193 0.25410
# Poissons Ratio (y) = 0.16746 0.24883
# Poissons Ratio (z) = 0.42313 0.27694
#
# Static dielectric constant tensor:
#      x y z
#    x 1.994710 0.000000 0.000000 
#    y 0.000000 1.786220 0.000000 
#    z 0.000000 0.000000 1.652740 
# 
# From -- ./inp_files/37883.got.cif
#   From: 2010.05.17/outbox.cif.g08.bks.cpg/sg68_19_cif.got.tgz:37883.got - 2010.06.03 18:57:09.
