data_PCOD9509914
_publ_section_title
;
Structure prediction by ZEFSAII (Michael W. Deem and Ramdas Pophale) SiO2 
 PCOD9509914
Probable space group: C C C A
;
_chemical_formula_sum "Si O2"
_cell_formula_units_Z 60
_cell_length_a 24.884074
_cell_length_b 10.918465
_cell_length_c 9.279284
_cell_angle_alpha 90.000000
_cell_angle_beta 90.000000
_cell_angle_gamma 90.000000
_cell_volume 2521.143334
_symmetry_space_group_name_H-M "C C C A"
_symmetry_group_IT_number 68
_space_group.IT_coordinate_system_code '2'
_symmetry_cell_setting 'orthorhombic'
loop_
_space_group_symop_operation_xyz
x,y,z
-x,1/2-y,z
x,1/2-y,1/2-z
-x,y,1/2-z
-x,-y,-z
x,1/2+y,-z
-x,1/2+y,1/2+z
x,-y,1/2+z
1/2+x,1/2+y,z
1/2-x,-y,z
1/2+x,-y,1/2-z
1/2-x,1/2+y,1/2-z
1/2-x,1/2-y,-z
1/2+x,y,-z
1/2-x,y,1/2+z
1/2+x,1/2-y,1/2+z
loop_
_atom_site_type_symbol
_atom_site_label
_atom_site_fract_x
_atom_site_fract_y
_atom_site_fract_z
Si Si1 0.239387 0.369092 0.897954
Si Si2 0.092629 0.121357 0.077946
Si Si3 0.000000 0.250000 0.250000
Si Si4 0.326640 0.750000 0.250000
Si Si5 0.376513 0.115532 0.254418
O O1 0.250000 0.500000 0.971820
O O2 0.285965 0.360856 0.775459
O O3 0.182566 0.366025 0.816997
O O4 0.250000 0.250000 0.000000
O O5 0.133005 0.234389 0.118187
O O6 0.036258 0.171270 0.138444
O O7 0.100496 0.998302 0.168571
O O8 0.112951 0.084262 0.920609
O O9 0.403432 0.250000 0.250000
#
# Coordination Sequence:
#
# PCOD9509914 Si02
#       5
#    16  16   4   8  16
#     4  12  27  43  74 116 170 230 274 326 405 502
#     4  11  28  52  82 116 164 213 284 357 420 504
#     4  10  28  60  92 108 156 224 282 372 452 482
#     4  11  24  43  74 104 166 211 274 319 404 484
#     4  12  28  47  79 123 166 213 273 337 424 504
#
# _framework density 23.798728000000001
#
# number of rings (size 3 to 8) (size 9 to 14) (size 15 to 20)
#    0.000    0.533    4.000    1.600   11.200    2.133 
#    0.000    0.000    0.000    0.000    0.000    0.000 
#    0.000    0.000    0.000    0.000    0.000    0.000 
#
# Total GULP energy -167178.948494 kJ/mol
# GULP energy per Si atom -5572.631616 kJ/mol
# Density = 2.374456 g / cm^3
# Si number density = 23.798728 Si / 1000 Ang^3
#
#
#
# Elastic Constant Matrix: (Units=GPa)
#
#
# Indices 1 2 3 4 5 6 
#
# 1 142.4451 65.6266 51.8583 0.0000 0.0000 0.0000
# 2 65.6266 192.3443 88.6825 0.0000 0.0000 0.0000
# 3 51.8583 88.6825 196.8663 0.0000 0.0000 0.0000
# 4 0.0000 0.0000 0.0000 63.1319 0.0000 0.0000
# 5 0.0000 0.0000 0.0000 0.0000 -119.6639 0.0000
# 6 0.0000 0.0000 0.0000 0.0000 0.0000 28.4661
#
#
#
# Elastic Compliance Matrix: (Units=1/GPa)
#
#
# Indices 1 2 3 4 5 6 
#
# 1 0.008542 -0.002369 -0.001183 0.000000 0.000000 0.000000
# 2 -0.002369 0.007219 -0.002628 0.000000 0.000000 0.000000
# 3 -0.001183 -0.002628 0.006575 0.000000 0.000000 0.000000
# 4 0.000000 0.000000 0.000000 0.015840 0.000000 0.000000
# 5 0.000000 0.000000 0.000000 0.000000 -0.008357 0.000000
# 6 0.000000 0.000000 0.000000 0.000000 0.000000 0.035130
#
#
# Mechanical properties :
#
#
# Convention : Reuss Voigt Hill
#
# Bulk Modulus (GPa) = 100.23720 104.88783 102.56251
# Shear Modulus (GPa) = 62.00818 16.08603 39.04711
#
# Velocity S-wave (km/s) = 5.10997 2.60267 4.05498
# Velocity P-wave (km/s) = 8.77644 7.29386 8.06927
#
# Compressibility (1/GPa) = 0.00997634
#
# Stress axis : x y z
#
# Youngs Moduli (GPa) = 117.06244 138.52407 152.09183
#
# Poissons Ratio (x) = 0.32819 0.17992
# Poissons Ratio (y) = 0.27734 0.39967
# Poissons Ratio (z) = 0.13848 0.36402
#
# Static dielectric constant tensor:
#      x y z
#    x 1.950680 0.000000 0.000000 
#    y 0.000000 1.939100 0.000000 
#    z 0.000000 0.000000 1.815540 
# 
# From -- ./inp_files/8541.got.cif
#   From: 2010.05.17/outbox.cif.g08.bks.cpg/sg68_5_cif.got.tgz:8541.got - 2010.06.03 18:57:09.
