data_PCOD9509498
_publ_section_title
;
Structure prediction by ZEFSAII (Michael W. Deem and Ramdas Pophale) SiO2 
 PCOD9509498
Probable space group: C C C A
;
_chemical_formula_sum "Si O2"
_cell_formula_units_Z 116
_cell_length_a 22.366780
_cell_length_b 8.550112
_cell_length_c 27.139861
_cell_angle_alpha 90.000000
_cell_angle_beta 90.000000
_cell_angle_gamma 90.000000
_cell_volume 5190.185604
_symmetry_space_group_name_H-M "C C C A"
_symmetry_group_IT_number 68
_space_group.IT_coordinate_system_code '2'
_symmetry_cell_setting 'orthorhombic'
loop_
_space_group_symop_operation_xyz
x,y,z
-x,1/2-y,z
x,1/2-y,1/2-z
-x,y,1/2-z
-x,-y,-z
x,1/2+y,-z
-x,1/2+y,1/2+z
x,-y,1/2+z
1/2+x,1/2+y,z
1/2-x,-y,z
1/2+x,-y,1/2-z
1/2-x,1/2+y,1/2-z
1/2-x,1/2-y,-z
1/2+x,y,-z
1/2-x,y,1/2+z
1/2+x,1/2-y,1/2+z
loop_
_atom_site_type_symbol
_atom_site_label
_atom_site_fract_x
_atom_site_fract_y
_atom_site_fract_z
Si Si1 0.103016 0.609449 0.824814
Si Si2 0.067583 0.237692 0.691049
Si Si3 0.818077 0.950527 0.048137
Si Si4 0.893337 0.344051 0.524870
Si Si5 0.275190 0.724789 0.197172
Si Si6 0.941694 0.350663 0.068003
Si Si7 0.000000 0.250000 0.250000
Si Si8 0.329704 0.066668 0.344388
O O1 0.096242 0.424261 0.824199
O O2 0.170305 0.655928 0.809466
O O3 0.095862 0.663970 0.881506
O O4 0.048548 0.666972 0.787830
O O5 0.068837 0.250000 0.750000
O O6 0.105642 0.374755 0.668037
O O7 0.000000 0.250000 0.673978
O O8 0.846481 0.774692 0.051442
O O9 0.828830 0.013834 0.102859
O O10 0.750000 0.000000 0.037887
O O11 0.853769 0.034690 0.005538
O O12 0.923737 0.237987 0.482661
O O13 0.938115 0.460735 0.555084
O O14 0.245839 0.750000 0.250000
O O15 0.309735 0.559883 0.195284
O O16 0.221278 0.701669 0.158460
O O17 0.000000 0.250000 0.081742
#
# Coordination Sequence:
#
# PCOD9509498 Si02
#       8
#    16  16  16  16  16  16   4  16
#     4  12  25  42  70  99 136 183 229 280 345 411
#     4  11  25  43  65  98 136 175 227 284 342 406
#     4  11  21  43  65  94 130 170 224 283 350 416
#     4  10  24  41  67  96 133 174 229 286 350 419
#     4  11  23  41  65  93 133 180 227 276 338 404
#     4  11  23  43  67 100 137 180 229 286 350 421
#     4  12  24  44  66 100 140 176 232 280 332 410
#     4  11  24  43  66  94 135 176 226 277 345 410
#
# _framework density 22.349875000000001
#
# number of rings (size 3 to 8) (size 9 to 14) (size 15 to 20)
#    0.000    0.966    2.759    4.552    1.931    2.759 
#    0.000    3.448    0.000    0.000    0.000    0.000 
#    0.000    0.000    0.000    0.000    0.000    0.000 
#
# Total GULP energy -323170.605476 kJ/mol
# GULP energy per Si atom -5571.906991 kJ/mol
# Density = 2.229901 g / cm^3
# Si number density = 22.349875 Si / 1000 Ang^3
#
#
#
# Elastic Constant Matrix: (Units=GPa)
#
#
# Indices 1 2 3 4 5 6 
#
# 1 79.6038 16.5662 -7.4520 0.0000 0.0000 0.0000
# 2 16.5662 87.7076 2.3995 0.0000 0.0000 0.0000
# 3 -7.4520 2.3995 73.1260 0.0000 0.0000 0.0000
# 4 0.0000 0.0000 0.0000 41.6447 0.0000 0.0000
# 5 0.0000 0.0000 0.0000 0.0000 35.1134 0.0000
# 6 0.0000 0.0000 0.0000 0.0000 0.0000 28.5388
#
#
#
# Elastic Compliance Matrix: (Units=1/GPa)
#
#
# Indices 1 2 3 4 5 6 
#
# 1 0.013224 -0.002537 0.001431 0.000000 0.000000 0.000000
# 2 -0.002537 0.011898 -0.000649 0.000000 0.000000 0.000000
# 3 0.001431 -0.000649 0.013842 0.000000 0.000000 0.000000
# 4 0.000000 0.000000 0.000000 0.024013 0.000000 0.000000
# 5 0.000000 0.000000 0.000000 0.000000 0.028479 0.000000
# 6 0.000000 0.000000 0.000000 0.000000 0.000000 0.035040
#
#
# Mechanical properties :
#
#
# Convention : Reuss Voigt Hill
#
# Bulk Modulus (GPa) = 28.20503 29.27388 28.73946
# Shear Modulus (GPa) = 35.25477 36.32095 35.78786
#
# Velocity S-wave (km/s) = 3.97596 4.03564 4.00591
# Velocity P-wave (km/s) = 5.80731 5.90268 5.85519
#
# Compressibility (1/GPa) = 0.03545466
#
# Stress axis : x y z
#
# Youngs Moduli (GPa) = 75.61949 84.04459 72.24321
#
# Poissons Ratio (x) = 0.21321 -0.10337
# Poissons Ratio (y) = 0.19184 0.04688
# Poissons Ratio (z) = -0.10820 0.05454
#
# Static dielectric constant tensor:
#      x y z
#    x 1.882090 0.000000 0.000000 
#    y 0.000000 1.896170 0.000000 
#    z 0.000000 0.000000 1.787400 
# 
# From -- ./inp_files/52217.got.cif
#   From: 2010.05.17/outbox.cif.g08.bks.cpg/sg68_27_cif.got.tgz:52217.got - 2010.06.03 18:57:09.
