data_PCOD9509017
_publ_section_title
;
Structure prediction by ZEFSAII (Michael W. Deem and Ramdas Pophale) SiO2 
 PCOD9509017
Probable space group: C C C A
;
_chemical_formula_sum "Si O2"
_cell_formula_units_Z 96
_cell_length_a 24.505391
_cell_length_b 20.962044
_cell_length_c 9.899171
_cell_angle_alpha 90.000000
_cell_angle_beta 90.000000
_cell_angle_gamma 90.000000
_cell_volume 5085.036692
_symmetry_space_group_name_H-M "C C C A"
_symmetry_group_IT_number 68
_space_group.IT_coordinate_system_code '2'
_symmetry_cell_setting 'orthorhombic'
loop_
_space_group_symop_operation_xyz
x,y,z
-x,1/2-y,z
x,1/2-y,1/2-z
-x,y,1/2-z
-x,-y,-z
x,1/2+y,-z
-x,1/2+y,1/2+z
x,-y,1/2+z
1/2+x,1/2+y,z
1/2-x,-y,z
1/2+x,-y,1/2-z
1/2-x,1/2+y,1/2-z
1/2-x,1/2-y,-z
1/2+x,y,-z
1/2-x,y,1/2+z
1/2+x,1/2-y,1/2+z
loop_
_atom_site_type_symbol
_atom_site_label
_atom_site_fract_x
_atom_site_fract_y
_atom_site_fract_z
Si Si1 0.805099 0.960268 0.223552
Si Si2 0.943160 0.691854 0.830587
Si Si3 0.394910 0.237013 0.097955
Si Si4 0.320870 0.353130 0.997957
Si Si5 0.858270 0.911389 0.718038
Si Si6 0.799892 0.361754 0.541633
O O1 0.813661 0.905163 0.115066
O O2 0.798773 0.925388 0.367347
O O3 0.750000 0.000000 0.197959
O O4 0.853121 0.012525 0.215300
O O5 0.912780 0.750000 0.750000
O O6 0.914211 0.623856 0.818705
O O7 0.000000 0.686895 0.750000
O O8 0.939236 0.713992 0.986712
O O9 0.415032 0.250000 0.250000
O O10 0.363038 0.200824 0.456791
O O11 0.347302 0.183355 0.099656
O O12 0.259635 0.329830 0.961767
O O13 0.342465 0.388479 0.866036
O O14 0.816634 0.881420 0.609245
#
# Coordination Sequence:
#
# PCOD9509017 Si02
#       6
#    16  16  16  16  16  16
#     4  12  22  36  56  85 135 181 215 240 300 378
#     4  10  22  45  70  90 111 157 216 271 331 371
#     4  11  23  40  61  96 127 160 208 273 323 374
#     4  12  21  37  56  89 133 175 211 247 305 373
#     4  11  23  35  61  90 120 169 216 256 297 377
#     4  11  22  36  56  87 135 178 210 248 300 376
#
# _framework density 18.878919
#
# number of rings (size 3 to 8) (size 9 to 14) (size 15 to 20)
#    0.000    0.833    6.667    1.500    0.000    0.000 
#    0.000    1.667    0.000    9.000    0.000    0.000 
#    0.000    0.000    0.000    0.000    0.000    0.000 
#
# Total GULP energy -267895.838104 kJ/mol
# GULP energy per Si atom -5581.163294 kJ/mol
# Density = 1.883595 g / cm^3
# Si number density = 18.878919 Si / 1000 Ang^3
#
#
#
# Elastic Constant Matrix: (Units=GPa)
#
#
# Indices 1 2 3 4 5 6 
#
# 1 82.8300 37.5918 40.1124 0.0000 0.0000 0.0000
# 2 37.5918 89.3347 18.1098 0.0000 0.0000 0.0000
# 3 40.1124 18.1098 121.5001 0.0000 0.0000 0.0000
# 4 0.0000 0.0000 0.0000 27.8526 0.0000 0.0000
# 5 0.0000 0.0000 0.0000 0.0000 15.9233 0.0000
# 6 0.0000 0.0000 0.0000 0.0000 0.0000 26.8174
#
#
#
# Elastic Compliance Matrix: (Units=1/GPa)
#
#
# Indices 1 2 3 4 5 6 
#
# 1 0.017226 -0.006286 -0.004750 0.000000 0.000000 0.000000
# 2 -0.006286 0.013836 0.000013 0.000000 0.000000 0.000000
# 3 -0.004750 0.000013 0.009797 0.000000 0.000000 0.000000
# 4 0.000000 0.000000 0.000000 0.035903 0.000000 0.000000
# 5 0.000000 0.000000 0.000000 0.000000 0.062801 0.000000
# 6 0.000000 0.000000 0.000000 0.000000 0.000000 0.037289
#
#
# Mechanical properties :
#
#
# Convention : Reuss Voigt Hill
#
# Bulk Modulus (GPa) = 53.15464 53.92143 53.53803
# Shear Modulus (GPa) = 24.37005 27.30870 25.83938
#
# Velocity S-wave (km/s) = 3.59675 3.80744 3.70359
# Velocity P-wave (km/s) = 6.74281 6.92477 6.83440
#
# Compressibility (1/GPa) = 0.01881303
#
# Stress axis : x y z
#
# Youngs Moduli (GPa) = 58.05169 72.27382 102.07463
#
# Poissons Ratio (x) = 0.45429 0.48487
# Poissons Ratio (y) = 0.36490 -0.00131
# Poissons Ratio (z) = 0.27575 -0.00093
#
# Static dielectric constant tensor:
#      x y z
#    x 1.697170 0.000000 0.000000 
#    y 0.000000 1.662290 0.000000 
#    z 0.000000 0.000000 1.662610 
# 
# From -- ./inp_files/9084.got.cif
#   From: 2010.05.17/outbox.cif.g08.bks.cpg/sg68_5_cif.got.tgz:9084.got - 2010.06.03 18:57:09.
