data_PCOD9509850
_publ_section_title
;
Structure prediction by ZEFSAII (Michael W. Deem and Ramdas Pophale) SiO2 
 PCOD9509850
Probable space group: C C C A
;
_chemical_formula_sum "Si O2"
_cell_formula_units_Z 88
_cell_length_a 27.273659
_cell_length_b 5.543174
_cell_length_c 28.165372
_cell_angle_alpha 90.000000
_cell_angle_beta 90.000000
_cell_angle_gamma 90.000000
_cell_volume 4258.115224
_symmetry_space_group_name_H-M "C C C A"
_symmetry_group_IT_number 68
_space_group.IT_coordinate_system_code '2'
_symmetry_cell_setting 'orthorhombic'
loop_
_space_group_symop_operation_xyz
x,y,z
-x,1/2-y,z
x,1/2-y,1/2-z
-x,y,1/2-z
-x,-y,-z
x,1/2+y,-z
-x,1/2+y,1/2+z
x,-y,1/2+z
1/2+x,1/2+y,z
1/2-x,-y,z
1/2+x,-y,1/2-z
1/2-x,1/2+y,1/2-z
1/2-x,1/2-y,-z
1/2+x,y,-z
1/2-x,y,1/2+z
1/2+x,1/2-y,1/2+z
loop_
_atom_site_type_symbol
_atom_site_label
_atom_site_fract_x
_atom_site_fract_y
_atom_site_fract_z
Si Si1 0.750000 0.500000 0.864384
Si Si2 0.750000 0.500000 0.574337
Si Si3 0.098034 0.487492 0.370431
Si Si4 0.144976 0.986720 0.027432
Si Si5 0.500000 0.250000 0.654793
Si Si6 0.564185 0.616414 0.798692
Si Si7 0.337217 0.679568 0.198124
O O1 0.748930 0.749638 0.894892
O O2 0.702001 0.476568 0.831109
O O3 0.797919 0.495173 0.541670
O O4 0.116619 0.530289 0.422912
O O5 0.078601 0.720579 0.343351
O O6 0.142747 0.385940 0.337894
O O7 0.050229 0.313445 0.372139
O O8 0.134155 0.243203 0.002161
O O9 0.483621 0.467541 0.688034
O O10 0.557600 0.750000 0.750000
O O11 0.612070 0.453499 0.790516
O O12 0.316429 0.750000 0.250000
#
# Coordination Sequence:
#
# PCOD9509850 Si02
#       7
#     8   8  16  16   8  16  16
#     4  12  26  42  76 106 152 196 244 282 370 432
#     4  12  24  48  74 108 140 188 240 316 358 428
#     4  11  24  47  69 101 145 184 240 297 363 427
#     4  12  27  47  77 106 140 188 242 305 371 430
#     4  10  26  41  72 104 140 186 238 302 363 428
#     4  11  23  43  71 102 145 191 243 295 362 433
#     4  11  24  43  65 103 147 198 237 288 352 440
#
# _framework density 20.666419999999999
#
# number of rings (size 3 to 8) (size 9 to 14) (size 15 to 20)
#    0.000    0.727    3.636    3.273    5.091    3.636 
#    0.000    0.909    0.000    0.000    0.000    0.000 
#    0.000    0.000    0.000    0.000    0.000    0.000 
#
# Total GULP energy -245925.419584 kJ/mol
# GULP energy per Si atom -5589.214081 kJ/mol
# Density = 2.061938 g / cm^3
# Si number density = 20.666420 Si / 1000 Ang^3
#
#
#
# Elastic Constant Matrix: (Units=GPa)
#
#
# Indices 1 2 3 4 5 6 
#
# 1 66.3304 24.2431 30.7992 0.0000 0.0000 0.0000
# 2 24.2431 135.4943 80.7297 0.0000 0.0000 0.0000
# 3 30.7992 80.7297 155.3493 0.0000 0.0000 0.0000
# 4 0.0000 0.0000 0.0000 35.5182 0.0000 0.0000
# 5 0.0000 0.0000 0.0000 0.0000 24.7048 0.0000
# 6 0.0000 0.0000 0.0000 0.0000 0.0000 33.4158
#
#
#
# Elastic Compliance Matrix: (Units=1/GPa)
#
#
# Indices 1 2 3 4 5 6 
#
# 1 0.016807 -0.001480 -0.002563 0.000000 0.000000 0.000000
# 2 -0.001480 0.010821 -0.005330 0.000000 0.000000 0.000000
# 3 -0.002563 -0.005330 0.009715 0.000000 0.000000 0.000000
# 4 0.000000 0.000000 0.000000 0.028155 0.000000 0.000000
# 5 0.000000 0.000000 0.000000 0.000000 0.040478 0.000000
# 6 0.000000 0.000000 0.000000 0.000000 0.000000 0.029926
#
#
# Mechanical properties :
#
#
# Convention : Reuss Voigt Hill
#
# Bulk Modulus (GPa) = 53.77182 69.85758 61.81470
# Shear Modulus (GPa) = 31.08564 33.48788 32.28676
#
# Velocity S-wave (km/s) = 3.88256 4.02979 3.95686
# Velocity P-wave (km/s) = 6.79518 7.45172 7.13101
#
# Compressibility (1/GPa) = 0.01859710
#
# Stress axis : x y z
#
# Youngs Moduli (GPa) = 59.49877 92.41495 102.93454
#
# Poissons Ratio (x) = 0.13679 0.26382
# Poissons Ratio (y) = 0.08807 0.54861
# Poissons Ratio (z) = 0.15249 0.49255
#
# Static dielectric constant tensor:
#      x y z
#    x 1.730470 0.000000 0.000000 
#    y 0.000000 1.836820 0.000000 
#    z 0.000000 0.000000 1.709270 
# 
# From -- ./inp_files/47497.got.cif
#   From: 2010.05.17/outbox.cif.g08.bks.cpg/sg68_24_cif.got.tgz:47497.got - 2010.06.03 18:57:09.
