data_PCOD9509473
_publ_section_title
;
Structure prediction by ZEFSAII (Michael W. Deem and Ramdas Pophale) SiO2 
 PCOD9509473
Probable space group: C C C A
;
_chemical_formula_sum "Si O2"
_cell_formula_units_Z 104
_cell_length_a 27.509194
_cell_length_b 8.899014
_cell_length_c 21.324494
_cell_angle_alpha 90.000000
_cell_angle_beta 90.000000
_cell_angle_gamma 90.000000
_cell_volume 5220.336410
_symmetry_space_group_name_H-M "C C C A"
_symmetry_group_IT_number 68
_space_group.IT_coordinate_system_code '2'
_symmetry_cell_setting 'orthorhombic'
loop_
_space_group_symop_operation_xyz
x,y,z
-x,1/2-y,z
x,1/2-y,1/2-z
-x,y,1/2-z
-x,-y,-z
x,1/2+y,-z
-x,1/2+y,1/2+z
x,-y,1/2+z
1/2+x,1/2+y,z
1/2-x,-y,z
1/2+x,-y,1/2-z
1/2-x,1/2+y,1/2-z
1/2-x,1/2-y,-z
1/2+x,y,-z
1/2-x,y,1/2+z
1/2+x,1/2-y,1/2+z
loop_
_atom_site_type_symbol
_atom_site_label
_atom_site_fract_x
_atom_site_fract_y
_atom_site_fract_z
Si Si1 0.191151 0.250000 0.250000
Si Si2 0.447783 0.166224 0.071576
Si Si3 0.875045 0.267084 0.822395
Si Si4 0.055200 0.196690 0.061028
Si Si5 0.267881 0.855923 0.661991
Si Si6 0.771406 0.657917 0.942733
Si Si7 0.365388 0.383833 0.632610
O O1 0.229425 0.364360 0.280929
O O2 0.158171 0.188128 0.305302
O O3 0.500000 0.250000 0.082043
O O4 0.413228 0.194964 0.130273
O O5 0.447365 0.985195 0.062437
O O6 0.428654 0.245532 0.007954
O O7 0.891138 0.250000 0.750000
O O8 0.823987 0.173642 0.824052
O O9 0.870497 0.439832 0.848037
O O10 0.087744 0.286576 0.111734
O O11 0.000000 0.250000 0.068920
O O12 0.252550 0.713804 0.621591
O O13 0.250000 0.000000 0.622509
O O14 0.750000 0.500000 0.956472
O O15 0.828008 0.642139 0.925378
O O16 0.750000 0.750000 0.000000
#
# Coordination Sequence:
#
# PCOD9509473 Si02
#       7
#     8  16  16  16  16  16  16
#     4  10  24  40  67  92 141 176 238 272 334 398
#     4  11  25  46  73 105 136 177 227 288 356 424
#     4  12  25  42  71  98 140 186 236 287 348 419
#     4  11  24  47  77 102 137 176 225 289 356 425
#     4  11  23  40  63  91 131 181 232 273 336 405
#     4  11  24  41  60  93 136 180 222 287 339 401
#     4  11  25  43  68 102 137 182 236 286 345 423
#
# _framework density 19.922089
#
# number of rings (size 3 to 8) (size 9 to 14) (size 15 to 20)
#    0.000    0.923    2.308    5.077    8.615    1.538 
#    0.000    0.385    0.000    0.000    0.000    0.000 
#    0.000    0.000    0.000    0.000    0.000    0.000 
#
# Total GULP energy -289763.195345 kJ/mol
# GULP energy per Si atom -5572.369141 kJ/mol
# Density = 1.987674 g / cm^3
# Si number density = 19.922089 Si / 1000 Ang^3
#
#
#
# Elastic Constant Matrix: (Units=GPa)
#
#
# Indices 1 2 3 4 5 6 
#
# 1 100.6255 55.2173 80.0707 0.0000 0.0000 0.0000
# 2 55.2173 172.6385 66.9667 0.0000 0.0000 0.0000
# 3 80.0707 66.9667 135.8504 0.0000 0.0000 0.0000
# 4 0.0000 0.0000 0.0000 63.3685 0.0000 0.0000
# 5 0.0000 0.0000 0.0000 0.0000 -28.3775 0.0000
# 6 0.0000 0.0000 0.0000 0.0000 0.0000 16.5885
#
#
#
# Elastic Compliance Matrix: (Units=1/GPa)
#
#
# Indices 1 2 3 4 5 6 
#
# 1 0.019359 -0.002183 -0.010334 0.000000 0.000000 0.000000
# 2 -0.002183 0.007408 -0.002365 0.000000 0.000000 0.000000
# 3 -0.010334 -0.002365 0.014618 0.000000 0.000000 0.000000
# 4 0.000000 0.000000 0.000000 0.015781 0.000000 0.000000
# 5 0.000000 0.000000 0.000000 0.000000 -0.035239 0.000000
# 6 0.000000 0.000000 0.000000 0.000000 0.000000 0.060283
#
#
# Mechanical properties :
#
#
# Convention : Reuss Voigt Hill
#
# Bulk Modulus (GPa) = 86.05604 90.40266 88.22935
# Shear Modulus (GPa) = 43.16032 24.10655 33.63344
#
# Velocity S-wave (km/s) = 4.65957 3.48234 4.11329
# Velocity P-wave (km/s) = 8.49934 7.85147 8.18182
#
# Compressibility (1/GPa) = 0.01162033
#
# Stress axis : x y z
#
# Youngs Moduli (GPa) = 51.65565 134.98683 68.41004
#
# Poissons Ratio (x) = 0.29471 0.70695
# Poissons Ratio (y) = 0.11278 0.16179
# Poissons Ratio (z) = 0.53381 0.31924
#
# Static dielectric constant tensor:
#      x y z
#    x 1.702330 0.000000 0.000000 
#    y 0.000000 1.905060 0.000000 
#    z 0.000000 0.000000 1.513910 
# 
# From -- ./inp_files/36579.got.cif
#   From: 2010.05.17/outbox.cif.g08.bks.cpg/sg68_19_cif.got.tgz:36579.got - 2010.06.03 18:57:09.
