data_PCOD9509626
_publ_section_title
;
Structure prediction by ZEFSAII (Michael W. Deem and Ramdas Pophale) SiO2 
 PCOD9509626
Probable space group: C C C A
;
_chemical_formula_sum "Si O2"
_cell_formula_units_Z 84
_cell_length_a 20.214925
_cell_length_b 20.549372
_cell_length_c 9.386200
_cell_angle_alpha 90.000000
_cell_angle_beta 90.000000
_cell_angle_gamma 90.000000
_cell_volume 3899.065154
_symmetry_space_group_name_H-M "C C C A"
_symmetry_group_IT_number 68
_space_group.IT_coordinate_system_code '2'
_symmetry_cell_setting 'orthorhombic'
loop_
_space_group_symop_operation_xyz
x,y,z
-x,1/2-y,z
x,1/2-y,1/2-z
-x,y,1/2-z
-x,-y,-z
x,1/2+y,-z
-x,1/2+y,1/2+z
x,-y,1/2+z
1/2+x,1/2+y,z
1/2-x,-y,z
1/2+x,-y,1/2-z
1/2-x,1/2+y,1/2-z
1/2-x,1/2-y,-z
1/2+x,y,-z
1/2-x,y,1/2+z
1/2+x,1/2-y,1/2+z
loop_
_atom_site_type_symbol
_atom_site_label
_atom_site_fract_x
_atom_site_fract_y
_atom_site_fract_z
Si Si1 0.572761 0.938766 0.804858
Si Si2 0.750000 0.000000 0.444877
Si Si3 0.181116 0.129528 0.166549
Si Si4 0.382087 0.671079 0.616073
Si Si5 0.500000 0.250000 0.250000
Si Si6 0.122683 0.052437 0.390932
Si Si7 0.229763 0.250000 0.750000
O O1 0.500000 0.923923 0.750000
O O2 0.620323 0.883635 0.739680
O O3 0.594438 0.005851 0.731510
O O4 0.575006 0.940651 0.974409
O O5 0.724722 0.936155 0.359666
O O6 0.811418 0.978251 0.541014
O O7 0.142314 0.118695 0.313766
O O8 0.226577 0.192434 0.184667
O O9 0.129860 0.137683 0.035970
O O10 0.450177 0.709041 0.648809
O O11 0.320398 0.718926 0.636118
#
# Coordination Sequence:
#
# PCOD9509626 Si02
#       7
#    16   8  16  16   4  16   8
#     4  12  24  45  71  99 137 186 234 286 349 414
#     4  12  22  42  72 106 148 184 220 292 364 430
#     4  12  25  44  71 109 144 181 234 290 361 420
#     4  11  23  47  71 100 139 187 238 283 347 425
#     4  10  24  44  76  94 136 198 238 288 348 414
#     4  12  25  42  71 108 143 179 231 293 355 426
#     4  11  26  43  72 107 140 189 232 296 352 425
#
# _framework density 21.543627000000001
#
# number of rings (size 3 to 8) (size 9 to 14) (size 15 to 20)
#    0.000    0.381    4.762    4.000    0.000    3.048 
#    0.000    0.000    0.000    0.000    0.000    0.000 
#    0.000    0.000    0.000    0.000    0.000    0.000 
#
# Total GULP energy -234905.883336 kJ/mol
# GULP energy per Si atom -5592.997222 kJ/mol
# Density = 2.149459 g / cm^3
# Si number density = 21.543627 Si / 1000 Ang^3
#
#
#
# Elastic Constant Matrix: (Units=GPa)
#
#
# Indices 1 2 3 4 5 6 
#
# 1 87.3943 46.5754 43.8064 0.0000 0.0000 0.0000
# 2 46.5754 109.3459 43.5667 0.0000 0.0000 0.0000
# 3 43.8064 43.5667 120.6576 0.0000 0.0000 0.0000
# 4 0.0000 0.0000 0.0000 36.8890 0.0000 0.0000
# 5 0.0000 0.0000 0.0000 0.0000 -3.0447 0.0000
# 6 0.0000 0.0000 0.0000 0.0000 0.0000 22.0412
#
#
#
# Elastic Compliance Matrix: (Units=1/GPa)
#
#
# Indices 1 2 3 4 5 6 
#
# 1 0.016291 -0.005352 -0.003982 0.000000 0.000000 0.000000
# 2 -0.005352 0.012441 -0.002549 0.000000 0.000000 0.000000
# 3 -0.003982 -0.002549 0.010654 0.000000 0.000000 0.000000
# 4 0.000000 0.000000 0.000000 0.027108 0.000000 0.000000
# 5 0.000000 0.000000 0.000000 0.000000 -0.328444 0.000000
# 6 0.000000 0.000000 0.000000 0.000000 0.000000 0.045370
#
#
# Mechanical properties :
#
#
# Convention : Reuss Voigt Hill
#
# Bulk Modulus (GPa) = 64.02435 65.03275 64.52855
# Shear Modulus (GPa) = -26.65128 23.40706 -1.62211
#
# Velocity S-wave (km/s) = -3.52104 3.29978 -0.86866
# Velocity P-wave (km/s) = 3.64043 6.69105 5.38623
#
# Compressibility (1/GPa) = 0.01561906
#
# Stress axis : x y z
#
# Youngs Moduli (GPa) = 61.38408 80.38165 93.86222
#
# Poissons Ratio (x) = 0.43024 0.37376
# Poissons Ratio (y) = 0.32856 0.23923
# Poissons Ratio (z) = 0.24443 0.20487
#
# Static dielectric constant tensor:
#      x y z
#    x 1.787150 0.000000 0.000000 
#    y 0.000000 1.837900 0.000000 
#    z 0.000000 0.000000 1.785980 
# 
# From -- ./inp_files/7099.got.cif
#   From: 2010.05.17/outbox.cif.g08.bks.cpg/sg68_4_cif.got.tgz:7099.got - 2010.06.03 18:57:09.
