data_PCOD9509462
_publ_section_title
;
Structure prediction by ZEFSAII (Michael W. Deem and Ramdas Pophale) SiO2 
 PCOD9509462
Probable space group: C C C A
;
_chemical_formula_sum "Si O2"
_cell_formula_units_Z 92
_cell_length_a 18.502581
_cell_length_b 24.333623
_cell_length_c 10.101291
_cell_angle_alpha 90.000000
_cell_angle_beta 90.000000
_cell_angle_gamma 90.000000
_cell_volume 4547.953042
_symmetry_space_group_name_H-M "C C C A"
_symmetry_group_IT_number 68
_space_group.IT_coordinate_system_code '2'
_symmetry_cell_setting 'orthorhombic'
loop_
_space_group_symop_operation_xyz
x,y,z
-x,1/2-y,z
x,1/2-y,1/2-z
-x,y,1/2-z
-x,-y,-z
x,1/2+y,-z
-x,1/2+y,1/2+z
x,-y,1/2+z
1/2+x,1/2+y,z
1/2-x,-y,z
1/2+x,-y,1/2-z
1/2-x,1/2+y,1/2-z
1/2-x,1/2-y,-z
1/2+x,y,-z
1/2-x,y,1/2+z
1/2+x,1/2-y,1/2+z
loop_
_atom_site_type_symbol
_atom_site_label
_atom_site_fract_x
_atom_site_fract_y
_atom_site_fract_z
Si Si1 0.500000 0.250000 0.750000
Si Si2 0.000000 0.353977 0.750000
Si Si3 0.086221 0.933656 0.616229
Si Si4 0.392261 0.553532 0.840533
Si Si5 0.853943 0.387723 0.391498
Si Si6 0.710512 0.056710 0.102490
Si Si7 0.508318 0.166988 0.541396
O O1 0.467566 0.207352 0.642679
O O2 0.065690 0.396073 0.773646
O O3 0.005658 0.321335 0.612533
O O4 0.119653 0.910225 0.751108
O O5 0.147037 0.933124 0.502520
O O6 0.021846 0.894076 0.570726
O O7 0.065109 0.996523 0.644927
O O8 0.323597 0.545073 0.746489
O O9 0.372508 0.572291 0.986865
O O10 0.766831 0.392381 0.390173
O O11 0.905765 0.335306 0.423742
O O12 0.750000 0.000000 0.064052
#
# Coordination Sequence:
#
# PCOD9509462 Si02
#       7
#     4   8  16  16  16  16  16
#     4  12  24  48  76  88 104 144 212 282 344 356
#     4  10  24  40  60  96 124 162 204 252 314 366
#     4  12  21  37  58  92 129 169 211 240 290 362
#     4  11  22  34  57  87 138 173 202 233 289 364
#     4  11  23  35  56  89 128 163 206 244 291 360
#     4  12  22  35  53  90 133 182 204 233 284 362
#     4  11  25  44  65  94 114 159 209 271 317 364
#
# _framework density 20.22888
#
# number of rings (size 3 to 8) (size 9 to 14) (size 15 to 20)
#    0.000    0.696    6.957    1.043    2.435    1.739 
#    0.000    0.000    0.000    1.043    0.000    0.000 
#    0.000    0.000    0.000    0.000    0.000    0.000 
#
# Total GULP energy -256562.508194 kJ/mol
# GULP energy per Si atom -5577.445830 kJ/mol
# Density = 2.018284 g / cm^3
# Si number density = 20.228880 Si / 1000 Ang^3
#
#
#
# Elastic Constant Matrix: (Units=GPa)
#
#
# Indices 1 2 3 4 5 6 
#
# 1 71.5088 12.9022 23.7799 0.0000 0.0000 0.0000
# 2 12.9022 54.9906 28.5046 0.0000 0.0000 0.0000
# 3 23.7799 28.5046 172.6495 0.0000 0.0000 0.0000
# 4 0.0000 0.0000 0.0000 12.4698 0.0000 0.0000
# 5 0.0000 0.0000 0.0000 0.0000 14.9703 0.0000
# 6 0.0000 0.0000 0.0000 0.0000 0.0000 5.1241
#
#
#
# Elastic Compliance Matrix: (Units=1/GPa)
#
#
# Indices 1 2 3 4 5 6 
#
# 1 0.015008 -0.002679 -0.001625 0.000000 0.000000 0.000000
# 2 -0.002679 0.020365 -0.002993 0.000000 0.000000 0.000000
# 3 -0.001625 -0.002993 0.006510 0.000000 0.000000 0.000000
# 4 0.000000 0.000000 0.000000 0.080194 0.000000 0.000000
# 5 0.000000 0.000000 0.000000 0.000000 0.066799 0.000000
# 6 0.000000 0.000000 0.000000 0.000000 0.000000 0.195156
#
#
# Mechanical properties :
#
#
# Convention : Reuss Voigt Hill
#
# Bulk Modulus (GPa) = 36.64499 47.72469 42.18484
# Shear Modulus (GPa) = 12.26323 22.11032 17.18678
#
# Velocity S-wave (km/s) = 2.46483 3.30965 2.91798
# Velocity P-wave (km/s) = 5.12397 6.18455 5.67907
#
# Compressibility (1/GPa) = 0.02728886
#
# Stress axis : x y z
#
# Youngs Moduli (GPa) = 66.63122 49.10371 153.60816
#
# Poissons Ratio (x) = 0.13155 0.24959
# Poissons Ratio (y) = 0.17851 0.45979
# Poissons Ratio (z) = 0.10826 0.14698
#
# Static dielectric constant tensor:
#      x y z
#    x 1.805870 0.000000 0.000000 
#    y 0.000000 1.748620 0.000000 
#    z 0.000000 0.000000 1.730820 
# 
# From -- ./inp_files/7320.got.cif
#   From: 2010.05.17/outbox.cif.g08.bks.cpg/sg68_4_cif.got.tgz:7320.got - 2010.06.03 18:57:09.
