data_PCOD9509954
_publ_section_title
;
Structure prediction by ZEFSAII (Michael W. Deem and Ramdas Pophale) SiO2 
 PCOD9509954
Probable space group: C C C A
;
_chemical_formula_sum "Si O2"
_cell_formula_units_Z 80
_cell_length_a 25.464974
_cell_length_b 8.542531
_cell_length_c 18.108795
_cell_angle_alpha 90.000000
_cell_angle_beta 90.000000
_cell_angle_gamma 90.000000
_cell_volume 3939.302693
_symmetry_space_group_name_H-M "C C C A"
_symmetry_group_IT_number 68
_space_group.IT_coordinate_system_code '2'
_symmetry_cell_setting 'orthorhombic'
loop_
_space_group_symop_operation_xyz
x,y,z
-x,1/2-y,z
x,1/2-y,1/2-z
-x,y,1/2-z
-x,-y,-z
x,1/2+y,-z
-x,1/2+y,1/2+z
x,-y,1/2+z
1/2+x,1/2+y,z
1/2-x,-y,z
1/2+x,-y,1/2-z
1/2-x,1/2+y,1/2-z
1/2-x,1/2-y,-z
1/2+x,y,-z
1/2-x,y,1/2+z
1/2+x,1/2-y,1/2+z
loop_
_atom_site_type_symbol
_atom_site_label
_atom_site_fract_x
_atom_site_fract_y
_atom_site_fract_z
Si Si1 0.537782 0.620356 0.543289
Si Si2 0.104952 0.653941 0.932306
Si Si3 0.810784 0.153346 0.129800
Si Si4 0.694690 0.572216 0.537077
Si Si5 0.194370 0.796962 0.330361
O O1 0.500000 0.750000 0.579668
O O2 0.500000 0.500000 0.500000
O O3 0.569288 0.493527 0.591546
O O4 0.574452 0.720612 0.485101
O O5 0.136809 0.743259 0.868330
O O6 0.150874 0.560253 0.975267
O O7 0.758268 0.212820 0.168811
O O8 0.819837 0.976343 0.154501
O O9 0.796138 0.146910 0.042683
O O10 0.750000 0.500000 0.561200
O O11 0.676751 0.687259 0.602183
O O12 0.174801 0.750000 0.250000
#
# Coordination Sequence:
#
# PCOD9509954 Si02
#       5
#    16  16  16  16  16
#     4   9  20  35  52  83 126 155 184 258 341 368
#     4  11  20  31  58  83 117 162 199 246 301 388
#     4  11  22  35  56  83 113 169 221 242 293 359
#     4  12  21  35  58  89 120 169 209 247 296 358
#     4  11  25  38  53  81 133 179 209 252 293 347
#
# _framework density 20.308163
#
# number of rings (size 3 to 8) (size 9 to 14) (size 15 to 20)
#    0.000    1.200    6.000    1.800    2.800    0.000 
#    0.000    0.000    0.000    0.000    0.000    0.000 
#    0.000  108.800    0.800    0.000    0.000    0.000 
#
# Total GULP energy -222946.885721 kJ/mol
# GULP energy per Si atom -5573.672143 kJ/mol
# Density = 2.026194 g / cm^3
# Si number density = 20.308163 Si / 1000 Ang^3
#
#
#
# Elastic Constant Matrix: (Units=GPa)
#
#
# Indices 1 2 3 4 5 6 
#
# 1 80.3815 51.3939 -5.0057 0.0000 0.0000 0.0000
# 2 51.3939 139.7422 36.8773 0.0000 0.0000 0.0000
# 3 -5.0057 36.8773 81.7554 0.0000 0.0000 0.0000
# 4 0.0000 0.0000 0.0000 15.5579 0.0000 0.0000
# 5 0.0000 0.0000 0.0000 0.0000 6.8250 0.0000
# 6 0.0000 0.0000 0.0000 0.0000 0.0000 66.2721
#
#
#
# Elastic Compliance Matrix: (Units=1/GPa)
#
#
# Indices 1 2 3 4 5 6 
#
# 1 0.017639 -0.007687 0.004547 0.000000 0.000000 0.000000
# 2 -0.007687 0.011473 -0.005646 0.000000 0.000000 0.000000
# 3 0.004547 -0.005646 0.015057 0.000000 0.000000 0.000000
# 4 0.000000 0.000000 0.000000 0.064276 0.000000 0.000000
# 5 0.000000 0.000000 0.000000 0.000000 0.146521 0.000000
# 6 0.000000 0.000000 0.000000 0.000000 0.000000 0.015089
#
#
# Mechanical properties :
#
#
# Convention : Reuss Voigt Hill
#
# Bulk Modulus (GPa) = 37.59755 52.04559 44.82157
# Shear Modulus (GPa) = 16.86387 32.30523 24.58455
#
# Velocity S-wave (km/s) = 2.88479 3.99275 3.48311
# Velocity P-wave (km/s) = 5.44516 6.85125 6.18827
#
# Compressibility (1/GPa) = 0.02659748
#
# Stress axis : x y z
#
# Youngs Moduli (GPa) = 56.69294 87.16017 66.41562
#
# Poissons Ratio (x) = 0.67002 -0.30202
# Poissons Ratio (y) = 0.43581 0.37497
# Poissons Ratio (z) = -0.25781 0.49209
#
# Static dielectric constant tensor:
#      x y z
#    x 1.847290 0.000000 0.000000 
#    y 0.000000 1.813890 0.000000 
#    z 0.000000 0.000000 1.665870 
# 
# From -- ./inp_files/34326.got.cif
#   From: 2010.05.17/outbox.cif.g08.bks.cpg/sg68_18_cif.got.tgz:34326.got - 2010.06.03 18:57:09.
