data_PCOD9509714
_publ_section_title
;
Structure prediction by ZEFSAII (Michael W. Deem and Ramdas Pophale) SiO2 
 PCOD9509714
Probable space group: C C C A
;
_chemical_formula_sum "Si O2"
_cell_formula_units_Z 60
_cell_length_a 26.478004
_cell_length_b 5.276240
_cell_length_c 19.604863
_cell_angle_alpha 90.000000
_cell_angle_beta 90.000000
_cell_angle_gamma 90.000000
_cell_volume 2738.883737
_symmetry_space_group_name_H-M "C C C A"
_symmetry_group_IT_number 68
_space_group.IT_coordinate_system_code '2'
_symmetry_cell_setting 'orthorhombic'
loop_
_space_group_symop_operation_xyz
x,y,z
-x,1/2-y,z
x,1/2-y,1/2-z
-x,y,1/2-z
-x,-y,-z
x,1/2+y,-z
-x,1/2+y,1/2+z
x,-y,1/2+z
1/2+x,1/2+y,z
1/2-x,-y,z
1/2+x,-y,1/2-z
1/2-x,1/2+y,1/2-z
1/2-x,1/2-y,-z
1/2+x,y,-z
1/2-x,y,1/2+z
1/2+x,1/2-y,1/2+z
loop_
_atom_site_type_symbol
_atom_site_label
_atom_site_fract_x
_atom_site_fract_y
_atom_site_fract_z
Si Si1 0.835259 0.750000 0.250000
Si Si2 0.500000 0.750000 0.250000
Si Si3 0.750000 0.500000 0.323675
Si Si4 0.137110 0.090393 0.037759
Si Si5 0.904299 0.088424 0.316706
Si Si6 0.750000 0.000000 0.916540
O O1 0.798063 0.530520 0.275110
O O2 0.873189 0.670100 0.190534
O O3 0.463816 0.585030 0.299665
O O4 0.754267 0.749931 0.369735
O O5 0.113216 0.179497 0.109671
O O6 0.198218 0.058001 0.043411
O O7 0.121630 0.308212 0.984651
O O8 0.887856 0.250000 0.250000
#
# Coordination Sequence:
#
# PCOD9509714 Si02
#       6
#     8   4   8  16  16   8
#     4  12  24  38  70 104 146 190 242 310 362 438
#     4   8  24  48  80 104 134 178 262 326 376 436
#     4  12  25  37  66 108 142 192 246 294 356 426
#     4  12  26  44  68 105 150 194 239 293 362 439
#     4  10  24  47  74 102 140 189 247 312 372 431
#     4  12  23  45  62  98 154 204 240 282 344 456
#
# _framework density 21.906734
#
# number of rings (size 3 to 8) (size 9 to 14) (size 15 to 20)
#    0.800    0.000    2.667    4.800    5.600    0.533 
#    0.000    1.333    0.000    0.000    0.000    0.000 
#    0.000    0.000    0.000    0.000    0.000    0.000 
#
# Total GULP energy -167206.396137 kJ/mol
# GULP energy per Si atom -5573.546538 kJ/mol
# Density = 2.185687 g / cm^3
# Si number density = 21.906734 Si / 1000 Ang^3
#
#
#
# Elastic Constant Matrix: (Units=GPa)
#
#
# Indices 1 2 3 4 5 6 
#
# 1 127.5826 25.1133 21.5779 0.0000 0.0000 0.0000
# 2 25.1133 119.2171 33.2326 0.0000 0.0000 0.0000
# 3 21.5779 33.2326 99.9578 0.0000 0.0000 0.0000
# 4 0.0000 0.0000 0.0000 45.4045 0.0000 0.0000
# 5 0.0000 0.0000 0.0000 0.0000 -10.4460 0.0000
# 6 0.0000 0.0000 0.0000 0.0000 0.0000 -55.1305
#
#
#
# Elastic Compliance Matrix: (Units=1/GPa)
#
#
# Indices 1 2 3 4 5 6 
#
# 1 0.008337 -0.001383 -0.001340 0.000000 0.000000 0.000000
# 2 -0.001383 0.009474 -0.002851 0.000000 0.000000 0.000000
# 3 -0.001340 -0.002851 0.011241 0.000000 0.000000 0.000000
# 4 0.000000 0.000000 0.000000 0.022024 0.000000 0.000000
# 5 0.000000 0.000000 0.000000 0.000000 -0.095731 0.000000
# 6 0.000000 0.000000 0.000000 0.000000 0.000000 -0.018139
#
#
# Mechanical properties :
#
#
# Convention : Reuss Voigt Hill
#
# Bulk Modulus (GPa) = 55.85200 56.28948 56.07074
# Shear Modulus (GPa) = -109.46550 13.75452 -47.85549
#
# Velocity S-wave (km/s) = -7.07654 2.50845 -4.67895
# Velocity P-wave (km/s) = 6.42021 5.84299 1.88129
#
# Compressibility (1/GPa) = 0.01790446
#
# Stress axis : x y z
#
# Youngs Moduli (GPa) = 119.94943 105.55037 88.95638
#
# Poissons Ratio (x) = 0.14594 0.11920
# Poissons Ratio (y) = 0.16585 0.25365
# Poissons Ratio (z) = 0.16073 0.30096
#
# Static dielectric constant tensor:
#      x y z
#    x 1.821660 0.000000 0.000000 
#    y 0.000000 1.812040 0.000000 
#    z 0.000000 0.000000 1.921270 
# 
# From -- ./inp_files/27109.got.cif
#   From: 2010.05.17/outbox.cif.g08.bks.cpg/sg68_14_cif.got.tgz:27109.got - 2010.06.03 18:57:09.
