data_PCOD9509697
_publ_section_title
;
Structure prediction by ZEFSAII (Michael W. Deem and Ramdas Pophale) SiO2 
 PCOD9509697
Probable space group: C C C A
;
_chemical_formula_sum "Si O2"
_cell_formula_units_Z 52
_cell_length_a 10.902697
_cell_length_b 23.209939
_cell_length_c 8.815438
_cell_angle_alpha 90.000000
_cell_angle_beta 90.000000
_cell_angle_gamma 90.000000
_cell_volume 2230.754805
_symmetry_space_group_name_H-M "C C C A"
_symmetry_group_IT_number 68
_space_group.IT_coordinate_system_code '2'
_symmetry_cell_setting 'orthorhombic'
loop_
_space_group_symop_operation_xyz
x,y,z
-x,1/2-y,z
x,1/2-y,1/2-z
-x,y,1/2-z
-x,-y,-z
x,1/2+y,-z
-x,1/2+y,1/2+z
x,-y,1/2+z
1/2+x,1/2+y,z
1/2-x,-y,z
1/2+x,-y,1/2-z
1/2-x,1/2+y,1/2-z
1/2-x,1/2-y,-z
1/2+x,y,-z
1/2-x,y,1/2+z
1/2+x,1/2-y,1/2+z
loop_
_atom_site_type_symbol
_atom_site_label
_atom_site_fract_x
_atom_site_fract_y
_atom_site_fract_z
Si Si1 0.315642 0.189892 0.045851
Si Si2 0.625692 0.962928 0.487836
Si Si3 0.214697 0.893751 0.789223
Si Si4 0.500000 0.250000 0.250000
O O1 0.236388 0.156420 0.168295
O O2 0.431582 0.208767 0.137114
O O3 0.250000 0.250000 0.000000
O O4 0.350032 0.141359 0.923376
O O5 0.660460 0.918597 0.627865
O O6 0.639812 0.938139 0.315739
O O7 0.500000 0.000000 0.500000
O O8 0.750000 0.000000 0.500736
#
# Coordination Sequence:
#
# PCOD9509697 Si02
#       4
#    16  16  16   4
#     4  11  22  48  71 114 153 187 253 310 383 473
#     4  11  26  49  73 111 152 199 262 325 378 457
#     4  10  24  46  78 108 151 200 247 321 395 465
#     4  12  24  40  82 102 152 204 234 320 380 458
#
# _framework density 23.310495
#
# number of rings (size 3 to 8) (size 9 to 14) (size 15 to 20)
#    0.000    1.231    3.077    0.923    0.000    9.846 
#    5.538    6.154    0.000    0.000    0.000    0.000 
#    0.000    0.000    0.000    0.000    0.000    0.000 
#
# Total GULP energy -144817.691914 kJ/mol
# GULP energy per Si atom -5569.911227 kJ/mol
# Density = 2.325744 g / cm^3
# Si number density = 23.310495 Si / 1000 Ang^3
#
#
#
# Elastic Constant Matrix: (Units=GPa)
#
#
# Indices 1 2 3 4 5 6 
#
# 1 125.8999 67.8021 60.6683 0.0000 0.0000 0.0000
# 2 67.8021 114.8912 62.2154 0.0000 0.0000 0.0000
# 3 60.6683 62.2154 157.7057 0.0000 0.0000 0.0000
# 4 0.0000 0.0000 0.0000 125.3555 0.0000 0.0000
# 5 0.0000 0.0000 0.0000 0.0000 45.5471 0.0000
# 6 0.0000 0.0000 0.0000 0.0000 0.0000 250.8617
#
#
#
# Elastic Compliance Matrix: (Units=1/GPa)
#
#
# Indices 1 2 3 4 5 6 
#
# 1 0.012306 -0.005975 -0.002377 0.000000 0.000000 0.000000
# 2 -0.005975 0.013970 -0.003212 0.000000 0.000000 0.000000
# 3 -0.002377 -0.003212 0.008523 0.000000 0.000000 0.000000
# 4 0.000000 0.000000 0.000000 0.007977 0.000000 0.000000
# 5 0.000000 0.000000 0.000000 0.000000 0.021955 0.000000
# 6 0.000000 0.000000 0.000000 0.000000 0.000000 0.003986
#
#
# Mechanical properties :
#
#
# Convention : Reuss Voigt Hill
#
# Bulk Modulus (GPa) = 85.69456 86.65204 86.17330
# Shear Modulus (GPa) = 52.22694 98.20694 75.21694
#
# Velocity S-wave (km/s) = 4.73852 6.49780 5.68660
# Velocity P-wave (km/s) = 8.17191 9.67207 8.95346
#
# Compressibility (1/GPa) = 0.01166935
#
# Stress axis : x y z
#
# Youngs Moduli (GPa) = 81.26089 71.58338 117.33520
#
# Poissons Ratio (x) = 0.42773 0.27888
# Poissons Ratio (y) = 0.48555 0.37694
# Poissons Ratio (z) = 0.19314 0.22996
#
# Static dielectric constant tensor:
#      x y z
#    x 1.900260 0.000000 0.000000 
#    y 0.000000 1.885680 0.000000 
#    z 0.000000 0.000000 1.919510 
# 
# From -- ./inp_files/3825.got.cif
#   From: 2010.05.17/outbox.cif.g08.bks.cpg/sg68_2_cif.got.tgz:3825.got - 2010.06.03 18:57:09.
