data_PCOD9509373
_publ_section_title
;
Structure prediction by ZEFSAII (Michael W. Deem and Ramdas Pophale) SiO2 
 PCOD9509373
Probable space group: C C C A
;
_chemical_formula_sum "Si O2"
_cell_formula_units_Z 96
_cell_length_a 17.681161
_cell_length_b 10.513352
_cell_length_c 23.700910
_cell_angle_alpha 90.000000
_cell_angle_beta 90.000000
_cell_angle_gamma 90.000000
_cell_volume 4405.721142
_symmetry_space_group_name_H-M "C C C A"
_symmetry_group_IT_number 68
_space_group.IT_coordinate_system_code '2'
_symmetry_cell_setting 'orthorhombic'
loop_
_space_group_symop_operation_xyz
x,y,z
-x,1/2-y,z
x,1/2-y,1/2-z
-x,y,1/2-z
-x,-y,-z
x,1/2+y,-z
-x,1/2+y,1/2+z
x,-y,1/2+z
1/2+x,1/2+y,z
1/2-x,-y,z
1/2+x,-y,1/2-z
1/2-x,1/2+y,1/2-z
1/2-x,1/2-y,-z
1/2+x,y,-z
1/2-x,y,1/2+z
1/2+x,1/2-y,1/2+z
loop_
_atom_site_type_symbol
_atom_site_label
_atom_site_fract_x
_atom_site_fract_y
_atom_site_fract_z
Si Si1 0.939941 0.360456 0.400181
Si Si2 0.577959 0.104914 0.272469
Si Si3 0.325092 0.330455 0.949152
Si Si4 0.661445 0.223024 0.072220
Si Si5 0.570334 0.451443 0.095148
Si Si6 0.663089 0.026042 0.171675
O O1 0.877735 0.294291 0.439970
O O2 0.891031 0.413286 0.348675
O O3 0.000000 0.250000 0.385478
O O4 0.991530 0.479466 0.420564
O O5 0.577490 0.250000 0.250000
O O6 0.500000 0.045584 0.250000
O O7 0.646932 0.048298 0.237285
O O8 0.575000 0.084786 0.338820
O O9 0.241162 0.299922 0.926859
O O10 0.365100 0.445049 0.917246
O O11 0.327307 0.360448 0.015927
O O12 0.592673 0.321422 0.064644
O O13 0.646977 0.143792 0.129083
O O14 0.750000 0.000000 0.161736
#
# Coordination Sequence:
#
# PCOD9509373 Si02
#       6
#    16  16  16  16  16  16
#     4  10  23  45  65  98 139 177 222 282 347 410
#     4  11  23  44  68  98 133 178 232 288 351 402
#     4  10  24  44  66 101 144 181 223 287 350 417
#     4  11  24  41  71 101 136 184 229 282 350 410
#     4  11  23  44  69  97 138 180 231 283 343 417
#     4  12  24  43  71 101 137 179 233 286 338 417
#
# _framework density 21.789849
#
# number of rings (size 3 to 8) (size 9 to 14) (size 15 to 20)
#    0.000    1.167    5.000    0.500    2.333    2.667 
#    6.000    5.833    0.000    0.000    0.000    0.000 
#    0.000    0.000    0.000    0.000    0.000    0.000 
#
# Total GULP energy -267969.059029 kJ/mol
# GULP energy per Si atom -5582.688730 kJ/mol
# Density = 2.174025 g / cm^3
# Si number density = 21.789849 Si / 1000 Ang^3
#
#
#
# Elastic Constant Matrix: (Units=GPa)
#
#
# Indices 1 2 3 4 5 6 
#
# 1 91.8052 19.1529 -20.5923 0.0000 0.0000 0.0000
# 2 19.1529 40.1058 -6.9178 0.0000 0.0000 0.0000
# 3 -20.5923 -6.9178 63.9759 0.0000 0.0000 0.0000
# 4 0.0000 0.0000 0.0000 25.3181 0.0000 0.0000
# 5 0.0000 0.0000 0.0000 0.0000 20.5525 0.0000
# 6 0.0000 0.0000 0.0000 0.0000 0.0000 30.7249
#
#
#
# Elastic Compliance Matrix: (Units=1/GPa)
#
#
# Indices 1 2 3 4 5 6 
#
# 1 0.012837 -0.005521 0.003535 0.000000 0.000000 0.000000
# 2 -0.005521 0.027782 0.001227 0.000000 0.000000 0.000000
# 3 0.003535 0.001227 0.016901 0.000000 0.000000 0.000000
# 4 0.000000 0.000000 0.000000 0.039497 0.000000 0.000000
# 5 0.000000 0.000000 0.000000 0.000000 0.048656 0.000000
# 6 0.000000 0.000000 0.000000 0.000000 0.000000 0.032547
#
#
# Mechanical properties :
#
#
# Convention : Reuss Voigt Hill
#
# Bulk Modulus (GPa) = 17.85596 19.90804 18.88200
# Shear Modulus (GPa) = 25.20080 28.93537 27.06808
#
# Velocity S-wave (km/s) = 3.40448 3.64803 3.52836
# Velocity P-wave (km/s) = 4.86481 5.18656 5.02826
#
# Compressibility (1/GPa) = 0.05600369
#
# Stress axis : x y z
#
# Youngs Moduli (GPa) = 77.89777 35.99421 59.16657
#
# Poissons Ratio (x) = 0.19872 -0.20916
# Poissons Ratio (y) = 0.43006 -0.07260
# Poissons Ratio (z) = -0.27537 -0.04417
#
# Static dielectric constant tensor:
#      x y z
#    x 1.798660 0.000000 0.000000 
#    y 0.000000 1.865850 0.000000 
#    z 0.000000 0.000000 1.766980 
# 
# From -- ./inp_files/45988.got.cif
#   From: 2010.05.17/outbox.cif.g08.bks.cpg/sg68_23_cif.got.tgz:45988.got - 2010.06.03 18:57:09.
