data_PCOD9509175
_publ_section_title
;
Structure prediction by ZEFSAII (Michael W. Deem and Ramdas Pophale) SiO2 
 PCOD9509175
Probable space group: C C C A
;
_chemical_formula_sum "Si O2"
_cell_formula_units_Z 56
_cell_length_a 13.996900
_cell_length_b 8.529583
_cell_length_c 18.132206
_cell_angle_alpha 90.000000
_cell_angle_beta 90.000000
_cell_angle_gamma 90.000000
_cell_volume 2164.762738
_symmetry_space_group_name_H-M "C C C A"
_symmetry_group_IT_number 68
_space_group.IT_coordinate_system_code '2'
_symmetry_cell_setting 'orthorhombic'
loop_
_space_group_symop_operation_xyz
x,y,z
-x,1/2-y,z
x,1/2-y,1/2-z
-x,y,1/2-z
-x,-y,-z
x,1/2+y,-z
-x,1/2+y,1/2+z
x,-y,1/2+z
1/2+x,1/2+y,z
1/2-x,-y,z
1/2+x,-y,1/2-z
1/2-x,1/2+y,1/2-z
1/2-x,1/2-y,-z
1/2+x,y,-z
1/2-x,y,1/2+z
1/2+x,1/2-y,1/2+z
loop_
_atom_site_type_symbol
_atom_site_label
_atom_site_fract_x
_atom_site_fract_y
_atom_site_fract_z
Si Si1 0.951614 0.500644 0.593449
Si Si2 0.127970 0.175455 0.467640
Si Si3 0.750000 0.000000 0.124638
Si Si4 0.652994 0.934641 0.766644
O O1 0.900891 0.354685 0.552223
O O2 0.900678 0.659078 0.565443
O O3 0.933489 0.476704 0.679904
O O4 0.058493 0.537884 0.566664
O O5 0.231309 0.138154 0.433765
O O6 0.665671 0.989761 0.185983
O O7 0.657290 0.750000 0.750000
O O8 0.750000 0.000000 0.805858
#
# Coordination Sequence:
#
# PCOD9509175 Si02
#       4
#    16  16   8  16
#     4  10  23  43  67  94 133 175 216 273 327 400
#     4  10  23  42  67  97 129 173 223 268 331 387
#     4  10  24  38  64  96 126 170 220 274 318 392
#     4  10  23  41  64  96 130 169 215 269 328 391
#
# _framework density 25.868884000000001
#
# number of rings (size 3 to 8) (size 9 to 14) (size 15 to 20)
#    0.857    1.143    0.000    1.714    6.000    2.286 
#    0.000    4.286    0.000    0.000    0.000    0.000 
#    0.000    0.000    0.000    0.000    0.000    0.000 
#
# Total GULP energy -156053.102522 kJ/mol
# GULP energy per Si atom -5573.325090 kJ/mol
# Density = 2.581001 g / cm^3
# Si number density = 25.868884 Si / 1000 Ang^3
#
#
#
# Elastic Constant Matrix: (Units=GPa)
#
#
# Indices 1 2 3 4 5 6 
#
# 1 60.5056 0.3593 9.5860 0.0000 0.0000 0.0000
# 2 0.3593 103.2534 15.2789 0.0000 0.0000 0.0000
# 3 9.5860 15.2789 138.1241 0.0000 0.0000 0.0000
# 4 0.0000 0.0000 0.0000 10.1760 0.0000 0.0000
# 5 0.0000 0.0000 0.0000 0.0000 -29.9302 0.0000
# 6 0.0000 0.0000 0.0000 0.0000 0.0000 10.6926
#
#
#
# Elastic Compliance Matrix: (Units=1/GPa)
#
#
# Indices 1 2 3 4 5 6 
#
# 1 0.016712 0.000115 -0.001173 0.000000 0.000000 0.000000
# 2 0.000115 0.009847 -0.001097 0.000000 0.000000 0.000000
# 3 -0.001173 -0.001097 0.007443 0.000000 0.000000 0.000000
# 4 0.000000 0.000000 0.000000 0.098270 0.000000 0.000000
# 5 0.000000 0.000000 0.000000 0.000000 -0.033411 0.000000
# 6 0.000000 0.000000 0.000000 0.000000 0.000000 0.093523
#
#
# Mechanical properties :
#
#
# Convention : Reuss Voigt Hill
#
# Bulk Modulus (GPa) = 33.67801 39.14794 36.41298
# Shear Modulus (GPa) = 24.20244 16.63161 20.41702
#
# Velocity S-wave (km/s) = 3.06205 2.53834 2.81241
# Velocity P-wave (km/s) = 5.05455 4.87411 4.96515
#
# Compressibility (1/GPa) = 0.02969297
#
# Stress axis : x y z
#
# Youngs Moduli (GPa) = 59.83552 101.55507 134.36125
#
# Poissons Ratio (x) = -0.01172 0.15756
# Poissons Ratio (y) = -0.00690 0.14743
# Poissons Ratio (z) = 0.07017 0.11143
#
# Static dielectric constant tensor:
#      x y z
#    x 2.482210 0.000000 0.000000 
#    y 0.000000 2.223170 0.000000 
#    z 0.000000 0.000000 1.993700 
# 
# From -- ./inp_files/31466.got.cif
#   From: 2010.05.17/outbox.cif.g08.bks.cpg/sg68_16_cif.got.tgz:31466.got - 2010.06.03 18:57:09.
