data_PCOD9509809
_publ_section_title
;
Structure prediction by ZEFSAII (Michael W. Deem and Ramdas Pophale) SiO2 
 PCOD9509809
Probable space group: C C C A
;
_chemical_formula_sum "Si O2"
_cell_formula_units_Z 64
_cell_length_a 8.283579
_cell_length_b 21.153632
_cell_length_c 16.784553
_cell_angle_alpha 90.000000
_cell_angle_beta 90.000000
_cell_angle_gamma 90.000000
_cell_volume 2941.119991
_symmetry_space_group_name_H-M "C C C A"
_symmetry_group_IT_number 68
_space_group.IT_coordinate_system_code '2'
_symmetry_cell_setting 'orthorhombic'
loop_
_space_group_symop_operation_xyz
x,y,z
-x,1/2-y,z
x,1/2-y,1/2-z
-x,y,1/2-z
-x,-y,-z
x,1/2+y,-z
-x,1/2+y,1/2+z
x,-y,1/2+z
1/2+x,1/2+y,z
1/2-x,-y,z
1/2+x,-y,1/2-z
1/2-x,1/2+y,1/2-z
1/2-x,1/2-y,-z
1/2+x,y,-z
1/2-x,y,1/2+z
1/2+x,1/2-y,1/2+z
loop_
_atom_site_type_symbol
_atom_site_label
_atom_site_fract_x
_atom_site_fract_y
_atom_site_fract_z
Si Si1 0.000000 0.250000 0.618866
Si Si2 0.865842 0.560076 0.915456
Si Si3 0.000000 0.102153 0.250000
Si Si4 0.599308 0.138442 0.011252
Si Si5 0.660102 0.293284 0.655736
O O1 0.998111 0.187770 0.563990
O O2 0.828150 0.256203 0.662741
O O3 0.750000 0.500000 0.924269
O O4 0.748609 0.618900 0.933911
O O5 0.939053 0.563445 0.826651
O O6 0.005264 0.575828 0.980142
O O7 0.139495 0.148920 0.217340
O O8 0.648379 0.175358 0.931591
O O9 0.500000 0.250000 0.662805
#
# Coordination Sequence:
#
# PCOD9509809 Si02
#       5
#     8  16   8  16  16
#     4  12  20  38  71 107 132 174 222 286 350 419
#     4  11  24  46  69  95 132 184 230 286 339 398
#     4  10  25  46  60  96 146 187 224 282 352 404
#     4  11  21  40  70 104 130 166 233 287 343 402
#     4  11  22  40  67  99 149 176 217 284 353 417
#
# _framework density 21.760417
#
# number of rings (size 3 to 8) (size 9 to 14) (size 15 to 20)
#    0.000    1.000    3.750    4.875    0.000    0.000 
#    4.500   11.250    0.000    0.000    0.000    0.000 
#    0.000    0.000    0.000    0.000    0.000    0.000 
#
# Total GULP energy -178617.424220 kJ/mol
# GULP energy per Si atom -5581.794507 kJ/mol
# Density = 2.171089 g / cm^3
# Si number density = 21.760417 Si / 1000 Ang^3
#
#
#
# Elastic Constant Matrix: (Units=GPa)
#
#
# Indices 1 2 3 4 5 6 
#
# 1 144.1461 35.3115 36.8438 0.0000 0.0000 0.0000
# 2 35.3115 59.7985 27.3583 0.0000 0.0000 0.0000
# 3 36.8438 27.3583 101.9537 0.0000 0.0000 0.0000
# 4 0.0000 0.0000 0.0000 6.7119 0.0000 0.0000
# 5 0.0000 0.0000 0.0000 0.0000 16.4156 0.0000
# 6 0.0000 0.0000 0.0000 0.0000 0.0000 42.7645
#
#
#
# Elastic Compliance Matrix: (Units=1/GPa)
#
#
# Indices 1 2 3 4 5 6 
#
# 1 0.008438 -0.004090 -0.001952 0.000000 0.000000 0.000000
# 2 -0.004090 0.021045 -0.004169 0.000000 0.000000 0.000000
# 3 -0.001952 -0.004169 0.011633 0.000000 0.000000 0.000000
# 4 0.000000 0.000000 0.000000 0.148990 0.000000 0.000000
# 5 0.000000 0.000000 0.000000 0.000000 0.060918 0.000000
# 6 0.000000 0.000000 0.000000 0.000000 0.000000 0.023384
#
#
# Mechanical properties :
#
#
# Convention : Reuss Voigt Hill
#
# Bulk Modulus (GPa) = 48.32322 56.10284 52.21303
# Shear Modulus (GPa) = 16.57121 26.93736 21.75429
#
# Velocity S-wave (km/s) = 2.76258 3.52221 3.16526
# Velocity P-wave (km/s) = 5.69482 6.50994 6.11597
#
# Compressibility (1/GPa) = 0.02069398
#
# Stress axis : x y z
#
# Youngs Moduli (GPa) = 118.50865 47.51633 85.96560
#
# Poissons Ratio (x) = 0.19433 0.16780
# Poissons Ratio (y) = 0.48468 0.35842
# Poissons Ratio (z) = 0.23132 0.19811
#
# Static dielectric constant tensor:
#      x y z
#    x 1.839150 0.000000 0.000000 
#    y 0.000000 1.787780 0.000000 
#    z 0.000000 0.000000 1.778470 
# 
# From -- ./inp_files/19272.got.cif
#   From: 2010.05.17/outbox.cif.g08.bks.cpg/sg68_10_cif.got.tgz:19272.got - 2010.06.03 18:57:09.
