data_PCOD9509161
_publ_section_title
;
Structure prediction by ZEFSAII (Michael W. Deem and Ramdas Pophale) SiO2 
 PCOD9509161
Probable space group: C C C A
;
_chemical_formula_sum "Si O2"
_cell_formula_units_Z 108
_cell_length_a 23.731109
_cell_length_b 15.280822
_cell_length_c 14.449753
_cell_angle_alpha 90.000000
_cell_angle_beta 90.000000
_cell_angle_gamma 90.000000
_cell_volume 5239.926249
_symmetry_space_group_name_H-M "C C C A"
_symmetry_group_IT_number 68
_space_group.IT_coordinate_system_code '2'
_symmetry_cell_setting 'orthorhombic'
loop_
_space_group_symop_operation_xyz
x,y,z
-x,1/2-y,z
x,1/2-y,1/2-z
-x,y,1/2-z
-x,-y,-z
x,1/2+y,-z
-x,1/2+y,1/2+z
x,-y,1/2+z
1/2+x,1/2+y,z
1/2-x,-y,z
1/2+x,-y,1/2-z
1/2-x,1/2+y,1/2-z
1/2-x,1/2-y,-z
1/2+x,y,-z
1/2-x,y,1/2+z
1/2+x,1/2-y,1/2+z
loop_
_atom_site_type_symbol
_atom_site_label
_atom_site_fract_x
_atom_site_fract_y
_atom_site_fract_z
Si Si1 0.250000 0.500000 0.997633
Si Si2 0.130122 0.836409 0.798070
Si Si3 0.750013 0.856419 0.143211
Si Si4 0.448296 0.053737 0.677663
Si Si5 0.584435 0.363922 0.130691
Si Si6 0.000000 0.250000 0.750000
Si Si7 0.029646 0.840015 0.940976
Si Si8 0.286778 0.657289 0.856961
O O1 0.223731 0.571649 0.072332
O O2 0.275277 0.574195 0.925697
O O3 0.153357 0.750000 0.750000
O O4 0.182361 0.874672 0.854868
O O5 0.103625 0.889668 0.713751
O O6 0.074805 0.820428 0.860211
O O7 0.760145 0.753212 0.117820
O O8 0.769720 0.865564 0.250583
O O9 0.500000 0.051787 0.750000
O O10 0.480095 0.094235 0.589470
O O11 0.421709 0.959754 0.670467
O O12 0.539810 0.306250 0.184843
O O13 0.646493 0.327118 0.140506
O O14 0.565999 0.373192 0.025174
O O15 0.000000 0.750000 0.966446
#
# Coordination Sequence:
#
# PCOD9509161 Si02
#       8
#     8  16  16  16  16   4  16  16
#     4  12  26  44  72 104 142 174 238 298 346 404
#     4  11  21  41  72  98 134 182 222 274 349 402
#     4  11  25  49  72 100 144 190 231 290 352 420
#     4  10  23  40  68  98 134 170 226 281 331 405
#     4  12  25  46  64  97 134 181 230 272 343 404
#     4  12  24  44  68  84 132 192 216 276 338 412
#     4  11  22  40  65 103 131 171 224 283 337 405
#     4  11  26  47  70 103 143 184 238 284 350 427
#
# _framework density 20.610976000000001
#
# number of rings (size 3 to 8) (size 9 to 14) (size 15 to 20)
#    0.000    0.889    4.444    3.111    4.148    0.000 
#    2.667    0.000    0.000    0.000    0.000    0.000 
#    0.000    0.000    0.000    0.000    0.000    0.000 
#
# Total GULP energy -300896.980964 kJ/mol
# GULP energy per Si atom -5572.166314 kJ/mol
# Density = 2.056406 g / cm^3
# Si number density = 20.610976 Si / 1000 Ang^3
#
#
#
# Elastic Constant Matrix: (Units=GPa)
#
#
# Indices 1 2 3 4 5 6 
#
# 1 102.5771 29.3299 11.3343 0.0000 0.0000 0.0000
# 2 29.3299 100.6742 43.0543 0.0000 0.0000 0.0000
# 3 11.3343 43.0543 81.8236 0.0000 0.0000 0.0000
# 4 0.0000 0.0000 0.0000 33.7790 0.0000 0.0000
# 5 0.0000 0.0000 0.0000 0.0000 21.4042 0.0000
# 6 0.0000 0.0000 0.0000 0.0000 0.0000 10.2698
#
#
#
# Elastic Compliance Matrix: (Units=1/GPa)
#
#
# Indices 1 2 3 4 5 6 
#
# 1 0.010637 -0.003186 0.000203 0.000000 0.000000 0.000000
# 2 -0.003186 0.013771 -0.006805 0.000000 0.000000 0.000000
# 3 0.000203 -0.006805 0.015774 0.000000 0.000000 0.000000
# 4 0.000000 0.000000 0.000000 0.029604 0.000000 0.000000
# 5 0.000000 0.000000 0.000000 0.000000 0.046720 0.000000
# 6 0.000000 0.000000 0.000000 0.000000 0.000000 0.097373
#
#
# Mechanical properties :
#
#
# Convention : Reuss Voigt Hill
#
# Bulk Modulus (GPa) = 48.52773 50.27911 49.40342
# Shear Modulus (GPa) = 20.80524 26.51437 23.65980
#
# Velocity S-wave (km/s) = 3.18059 3.59056 3.39178
# Velocity P-wave (km/s) = 6.08966 6.45266 6.27378
#
# Compressibility (1/GPa) = 0.02060677
#
# Stress axis : x y z
#
# Youngs Moduli (GPa) = 94.00925 72.61450 63.39548
#
# Poissons Ratio (x) = 0.23133 -0.01286
# Poissons Ratio (y) = 0.29949 0.43140
# Poissons Ratio (z) = -0.01906 0.49414
#
# Static dielectric constant tensor:
#      x y z
#    x 1.665930 0.000000 0.000000 
#    y 0.000000 1.711690 0.000000 
#    z 0.000000 0.000000 1.851540 
# 
# From -- ./inp_files/25496.got.cif
#   From: 2010.05.17/outbox.cif.g08.bks.cpg/sg68_13_cif.got.tgz:25496.got - 2010.06.03 18:57:09.
