data_PCOD9509771
_publ_section_title
;
Structure prediction by ZEFSAII (Michael W. Deem and Ramdas Pophale) SiO2 
 PCOD9509771
Probable space group: C C C A
;
_chemical_formula_sum "Si O2"
_cell_formula_units_Z 36
_cell_length_a 10.165568
_cell_length_b 15.083861
_cell_length_c 9.217160
_cell_angle_alpha 90.000000
_cell_angle_beta 90.000000
_cell_angle_gamma 90.000000
_cell_volume 1413.322581
_symmetry_space_group_name_H-M "C C C A"
_symmetry_group_IT_number 68
_space_group.IT_coordinate_system_code '2'
_symmetry_cell_setting 'orthorhombic'
loop_
_space_group_symop_operation_xyz
x,y,z
-x,1/2-y,z
x,1/2-y,1/2-z
-x,y,1/2-z
-x,-y,-z
x,1/2+y,-z
-x,1/2+y,1/2+z
x,-y,1/2+z
1/2+x,1/2+y,z
1/2-x,-y,z
1/2+x,-y,1/2-z
1/2-x,1/2+y,1/2-z
1/2-x,1/2-y,-z
1/2+x,y,-z
1/2-x,y,1/2+z
1/2+x,1/2-y,1/2+z
loop_
_atom_site_type_symbol
_atom_site_label
_atom_site_fract_x
_atom_site_fract_y
_atom_site_fract_z
Si Si1 0.343040 0.834455 0.002727
Si Si2 0.250000 0.000000 0.348631
Si Si3 0.500000 0.750000 0.250000
Si Si4 0.500000 0.911892 0.750000
O O1 0.412729 0.817109 0.154778
O O2 0.250000 0.750000 0.000000
O O3 0.460906 0.849966 0.885822
O O4 0.248798 0.915643 0.955946
O O5 0.125352 0.977027 0.248671
#
# Coordination Sequence:
#
# PCOD9509771 Si02
#       4
#    16   8   4   8
#     4  10  24  51  89 133 189 241 315 396 466 569
#     4   8  20  50  92 134 182 244 328 384 454 566
#     4  12  28  48  82 138 188 240 296 376 510 566
#     4   8  20  48  97 130 181 254 318 386 461 557
#
# _framework density 25.471889999999998
#
# number of rings (size 3 to 8) (size 9 to 14) (size 15 to 20)
#    2.667    0.000    0.000    0.000    0.000    6.222 
#    0.000    8.889    0.000    0.000    0.000    0.000 
#    0.000    0.000    0.000    0.000    0.000    0.000 
#
# Total GULP energy -100324.457463 kJ/mol
# GULP energy per Si atom -5573.580970 kJ/mol
# Density = 2.541392 g / cm^3
# Si number density = 25.471890 Si / 1000 Ang^3
#
#
#
# Elastic Constant Matrix: (Units=GPa)
#
#
# Indices 1 2 3 4 5 6 
#
# 1 198.2077 99.2976 100.2503 0.0000 0.0000 0.0000
# 2 99.2976 216.7937 80.9854 0.0000 0.0000 0.0000
# 3 100.2503 80.9854 172.8491 0.0000 0.0000 0.0000
# 4 0.0000 0.0000 0.0000 110.0159 0.0000 0.0000
# 5 0.0000 0.0000 0.0000 0.0000 58.7857 0.0000
# 6 0.0000 0.0000 0.0000 0.0000 0.0000 43.0300
#
#
#
# Elastic Compliance Matrix: (Units=1/GPa)
#
#
# Indices 1 2 3 4 5 6 
#
# 1 0.008016 -0.002345 -0.003550 0.000000 0.000000 0.000000
# 2 -0.002345 0.006277 -0.001581 0.000000 0.000000 0.000000
# 3 -0.003550 -0.001581 0.008585 0.000000 0.000000 0.000000
# 4 0.000000 0.000000 0.000000 0.009090 0.000000 0.000000
# 5 0.000000 0.000000 0.000000 0.000000 0.017011 0.000000
# 6 0.000000 0.000000 0.000000 0.000000 0.000000 0.023240
#
#
# Mechanical properties :
#
#
# Convention : Reuss Voigt Hill
#
# Bulk Modulus (GPa) = 126.17406 127.65746 126.91576
# Shear Modulus (GPa) = 55.67103 62.85413 59.26258
#
# Velocity S-wave (km/s) = 4.68010 4.97287 4.82870
# Velocity P-wave (km/s) = 8.87956 9.12132 9.00125
#
# Compressibility (1/GPa) = 0.00792556
#
# Stress axis : x y z
#
# Youngs Moduli (GPa) = 124.75412 159.30030 116.47910
#
# Poissons Ratio (x) = 0.37359 0.41353
# Poissons Ratio (y) = 0.29258 0.18415
# Poissons Ratio (z) = 0.44291 0.25185
#
# Static dielectric constant tensor:
#      x y z
#    x -1.650510 0.000000 0.000000 
#    y 0.000000 2.052470 0.000000 
#    z 0.000000 0.000000 2.081950 
# 
# From -- ./inp_files/11017.got.cif
#   From: 2010.05.17/outbox.cif.g08.bks.cpg/sg68_6_cif.got.tgz:11017.got - 2010.06.03 18:57:09.
