data_PCOD9509902
_publ_section_title
;
Structure prediction by ZEFSAII (Michael W. Deem and Ramdas Pophale) SiO2 
 PCOD9509902
Probable space group: C C C A
;
_chemical_formula_sum "Si O2"
_cell_formula_units_Z 92
_cell_length_a 17.272437
_cell_length_b 16.584681
_cell_length_c 14.093248
_cell_angle_alpha 90.000000
_cell_angle_beta 90.000000
_cell_angle_gamma 90.000000
_cell_volume 4037.121631
_symmetry_space_group_name_H-M "C C C A"
_symmetry_group_IT_number 68
_space_group.IT_coordinate_system_code '2'
_symmetry_cell_setting 'orthorhombic'
loop_
_space_group_symop_operation_xyz
x,y,z
-x,1/2-y,z
x,1/2-y,1/2-z
-x,y,1/2-z
-x,-y,-z
x,1/2+y,-z
-x,1/2+y,1/2+z
x,-y,1/2+z
1/2+x,1/2+y,z
1/2-x,-y,z
1/2+x,-y,1/2-z
1/2-x,1/2+y,1/2-z
1/2-x,1/2-y,-z
1/2+x,y,-z
1/2-x,y,1/2+z
1/2+x,1/2-y,1/2+z
loop_
_atom_site_type_symbol
_atom_site_label
_atom_site_fract_x
_atom_site_fract_y
_atom_site_fract_z
Si Si1 0.500000 0.250000 0.250000
Si Si2 0.815284 0.429086 0.917583
Si Si3 0.500000 0.018709 0.750000
Si Si4 0.081079 0.420656 0.078585
Si Si5 0.706963 0.663342 0.299754
Si Si6 0.909771 0.383630 0.637747
Si Si7 0.232668 0.593622 0.884208
O O1 0.550853 0.193556 0.317170
O O2 0.750000 0.500000 0.908055
O O3 0.889673 0.485635 0.917111
O O4 0.791120 0.365133 0.838120
O O5 0.808246 0.384049 0.018169
O O6 0.434141 0.957842 0.707067
O O7 0.481306 0.076469 0.838748
O O8 0.147663 0.358341 0.115723
O O9 0.062089 0.401994 0.969922
O O10 0.706033 0.750000 0.250000
O O11 0.685832 0.606564 0.211173
O O12 0.817820 0.369496 0.627048
O O13 0.250000 0.500000 0.894175
#
# Coordination Sequence:
#
# PCOD9509902 Si02
#       7
#     4  16   8  16  16  16  16
#     4  10  28  44  68 102 146 196 218 278 346 446
#     4   9  18  38  63  92 123 167 213 288 337 394
#     4  11  24  39  71 100 121 182 242 288 331 392
#     4  11  22  45  66  97 136 173 238 286 334 411
#     4  11  23  37  57  98 136 169 210 273 358 414
#     4  11  22  46  68  99 137 180 234 280 346 417
#     4  11  19  38  70  91 125 168 222 289 337 397
#
# _framework density 22.788513999999999
#
# number of rings (size 3 to 8) (size 9 to 14) (size 15 to 20)
#    0.000    1.391    5.217    4.174    1.217    0.696 
#    3.130    0.000    0.000    0.000    0.000    0.000 
#    0.000    0.000    0.000    0.000    0.000    0.000 
#
# Total GULP energy -256705.980781 kJ/mol
# GULP energy per Si atom -5580.564800 kJ/mol
# Density = 2.273665 g / cm^3
# Si number density = 22.788514 Si / 1000 Ang^3
#
#
#
# Elastic Constant Matrix: (Units=GPa)
#
#
# Indices 1 2 3 4 5 6 
#
# 1 40.6494 22.8298 20.6850 0.0000 0.0000 0.0000
# 2 22.8298 95.7821 53.0758 0.0000 0.0000 0.0000
# 3 20.6850 53.0758 197.2143 0.0000 0.0000 0.0000
# 4 0.0000 0.0000 0.0000 13.1202 0.0000 0.0000
# 5 0.0000 0.0000 0.0000 0.0000 53.5121 0.0000
# 6 0.0000 0.0000 0.0000 0.0000 0.0000 13.2150
#
#
#
# Elastic Compliance Matrix: (Units=1/GPa)
#
#
# Indices 1 2 3 4 5 6 
#
# 1 0.028716 -0.006083 -0.001375 0.000000 0.000000 0.000000
# 2 -0.006083 0.013559 -0.003011 0.000000 0.000000 0.000000
# 3 -0.001375 -0.003011 0.006025 0.000000 0.000000 0.000000
# 4 0.000000 0.000000 0.000000 0.076218 0.000000 0.000000
# 5 0.000000 0.000000 0.000000 0.000000 0.018687 0.000000
# 6 0.000000 0.000000 0.000000 0.000000 0.000000 0.075672
#
#
# Mechanical properties :
#
#
# Convention : Reuss Voigt Hill
#
# Bulk Modulus (GPa) = 36.54567 58.53632 47.54100
# Shear Modulus (GPa) = 20.08548 31.77314 25.92931
#
# Velocity S-wave (km/s) = 2.97204 3.73803 3.37682
# Velocity P-wave (km/s) = 5.27722 6.66131 6.00925
#
# Compressibility (1/GPa) = 0.02736302
#
# Stress axis : x y z
#
# Youngs Moduli (GPa) = 34.82320 73.75343 165.96994
#
# Poissons Ratio (x) = 0.44862 0.22820
# Poissons Ratio (y) = 0.21182 0.49974
# Poissons Ratio (z) = 0.04788 0.22207
#
# Static dielectric constant tensor:
#      x y z
#    x 1.943920 0.000000 0.000000 
#    y 0.000000 1.836000 0.000000 
#    z 0.000000 0.000000 1.899430 
# 
# From -- ./inp_files/24611.got.cif
#   From: 2010.05.17/outbox.cif.g08.bks.cpg/sg68_13_cif.got.tgz:24611.got - 2010.06.03 18:57:09.
