data_PCOD9509188
_publ_section_title
;
Structure prediction by ZEFSAII (Michael W. Deem and Ramdas Pophale) SiO2 
 PCOD9509188
Probable space group: C C C A
;
_chemical_formula_sum "Si O2"
_cell_formula_units_Z 88
_cell_length_a 8.344156
_cell_length_b 25.860506
_cell_length_c 20.260915
_cell_angle_alpha 90.000000
_cell_angle_beta 90.000000
_cell_angle_gamma 90.000000
_cell_volume 4371.983234
_symmetry_space_group_name_H-M "C C C A"
_symmetry_group_IT_number 68
_space_group.IT_coordinate_system_code '2'
_symmetry_cell_setting 'orthorhombic'
loop_
_space_group_symop_operation_xyz
x,y,z
-x,1/2-y,z
x,1/2-y,1/2-z
-x,y,1/2-z
-x,-y,-z
x,1/2+y,-z
-x,1/2+y,1/2+z
x,-y,1/2+z
1/2+x,1/2+y,z
1/2-x,-y,z
1/2+x,-y,1/2-z
1/2-x,1/2+y,1/2-z
1/2-x,1/2-y,-z
1/2+x,y,-z
1/2-x,y,1/2+z
1/2+x,1/2-y,1/2+z
loop_
_atom_site_type_symbol
_atom_site_label
_atom_site_fract_x
_atom_site_fract_y
_atom_site_fract_z
Si Si1 0.500000 0.083878 0.250000
Si Si2 0.050474 0.810311 0.558356
Si Si3 0.759132 0.444523 0.345088
Si Si4 0.500000 0.750000 0.836360
Si Si5 0.778105 0.663289 0.181023
Si Si6 0.188727 0.659807 0.082391
Si Si7 0.500000 0.604670 0.250000
O O1 0.362329 0.050867 0.283469
O O2 0.412890 0.119503 0.194541
O O3 0.879610 0.831785 0.580549
O O4 0.000000 0.750000 0.549549
O O5 0.189789 0.823634 0.611663
O O6 0.112298 0.834177 0.489963
O O7 0.750000 0.500000 0.379785
O O8 0.686933 0.397795 0.388051
O O9 0.928653 0.428138 0.311461
O O10 0.632122 0.784514 0.800716
O O11 0.401542 0.794130 0.877574
O O12 0.640809 0.642798 0.228385
#
# Coordination Sequence:
#
# PCOD9509188 Si02
#       7
#     8  16  16   8  16  16   8
#     4  10  23  41  66  92 128 172 214 270 326 400
#     4  12  23  41  66  95 133 175 216 266 330 400
#     4  11  23  44  69  95 126 170 223 277 330 388
#     4  12  22  41  62  96 134 165 218 264 334 398
#     4  11  23  41  64  96 130 173 213 267 330 392
#     4  12  24  41  66  96 128 173 219 271 327 397
#     4  10  23  46  65  94 134 171 223 268 332 400
#
# _framework density 20.128164000000002
#
# number of rings (size 3 to 8) (size 9 to 14) (size 15 to 20)
#    0.000    0.727    6.364    2.182    0.000    0.364 
#    3.273    1.818    0.000    0.000    0.000    0.000 
#    0.000    0.000    0.000    0.000    0.000    0.000 
#
# Total GULP energy -245135.859876 kJ/mol
# GULP energy per Si atom -5571.269543 kJ/mol
# Density = 2.008235 g / cm^3
# Si number density = 20.128164 Si / 1000 Ang^3
#
#
#
# Elastic Constant Matrix: (Units=GPa)
#
#
# Indices 1 2 3 4 5 6 
#
# 1 125.9980 48.4802 23.8056 0.0000 0.0000 0.0000
# 2 48.4802 142.9737 44.1879 0.0000 0.0000 0.0000
# 3 23.8056 44.1879 50.6589 0.0000 0.0000 0.0000
# 4 0.0000 0.0000 0.0000 17.0924 0.0000 0.0000
# 5 0.0000 0.0000 0.0000 0.0000 -80.7044 0.0000
# 6 0.0000 0.0000 0.0000 0.0000 0.0000 18.7570
#
#
#
# Elastic Compliance Matrix: (Units=1/GPa)
#
#
# Indices 1 2 3 4 5 6 
#
# 1 0.009306 -0.002470 -0.002219 0.000000 0.000000 0.000000
# 2 -0.002470 0.010231 -0.007764 0.000000 0.000000 0.000000
# 3 -0.002219 -0.007764 0.027555 0.000000 0.000000 0.000000
# 4 0.000000 0.000000 0.000000 0.058506 0.000000 0.000000
# 5 0.000000 0.000000 0.000000 0.000000 -0.012391 0.000000
# 6 0.000000 0.000000 0.000000 0.000000 0.000000 0.053313
#
#
# Mechanical properties :
#
#
# Convention : Reuss Voigt Hill
#
# Bulk Modulus (GPa) = 45.07096 61.39757 53.23426
# Shear Modulus (GPa) = 27.96098 4.57279 16.26688
#
# Velocity S-wave (km/s) = 3.73117 1.50890 2.84591
# Velocity P-wave (km/s) = 6.40334 5.79700 6.10770
#
# Compressibility (1/GPa) = 0.02218724
#
# Stress axis : x y z
#
# Youngs Moduli (GPa) = 107.45565 97.73969 36.29164
#
# Poissons Ratio (x) = 0.24140 0.08052
# Poissons Ratio (y) = 0.26540 0.28176
# Poissons Ratio (z) = 0.23842 0.75883
#
# Static dielectric constant tensor:
#      x y z
#    x 1.809500 0.000000 0.000000 
#    y 0.000000 1.763210 0.000000 
#    z 0.000000 0.000000 1.769990 
# 
# From -- ./inp_files/36323.got.cif
#   From: 2010.05.17/outbox.cif.g08.bks.cpg/sg68_19_cif.got.tgz:36323.got - 2010.06.03 18:57:09.
