data_PCOD9509882
_publ_section_title
;
Structure prediction by ZEFSAII (Michael W. Deem and Ramdas Pophale) SiO2 
 PCOD9509882
Probable space group: C C C A
;
_chemical_formula_sum "Si O2"
_cell_formula_units_Z 60
_cell_length_a 12.273547
_cell_length_b 10.473619
_cell_length_c 19.164426
_cell_angle_alpha 90.000000
_cell_angle_beta 90.000000
_cell_angle_gamma 90.000000
_cell_volume 2463.557354
_symmetry_space_group_name_H-M "C C C A"
_symmetry_group_IT_number 68
_space_group.IT_coordinate_system_code '2'
_symmetry_cell_setting 'orthorhombic'
loop_
_space_group_symop_operation_xyz
x,y,z
-x,1/2-y,z
x,1/2-y,1/2-z
-x,y,1/2-z
-x,-y,-z
x,1/2+y,-z
-x,1/2+y,1/2+z
x,-y,1/2+z
1/2+x,1/2+y,z
1/2-x,-y,z
1/2+x,-y,1/2-z
1/2-x,1/2+y,1/2-z
1/2-x,1/2-y,-z
1/2+x,y,-z
1/2-x,y,1/2+z
1/2+x,1/2-y,1/2+z
loop_
_atom_site_type_symbol
_atom_site_label
_atom_site_fract_x
_atom_site_fract_y
_atom_site_fract_z
Si Si1 0.000000 0.750000 0.750000
Si Si2 0.250000 0.500000 0.910082
Si Si3 0.116363 0.779347 0.140298
Si Si4 0.390304 0.442302 0.031453
Si Si5 0.180976 0.389494 0.165490
O O1 0.074564 0.840069 0.797371
O O2 0.152474 0.425065 0.871933
O O3 0.311871 0.411404 0.966229
O O4 0.099943 0.689736 0.072281
O O5 0.230723 0.722877 0.166708
O O6 0.000000 0.750000 0.176561
O O7 0.350936 0.547073 0.090194
O O8 0.500000 0.500000 0.000000
O O9 0.250000 0.500000 0.203538
#
# Coordination Sequence:
#
# PCOD9509882 Si02
#       5
#     4   8  16  16  16
#     4  12  28  52  78  94 136 208 244 308 362 412
#     4  12  22  34  66 104 144 190 212 270 378 440
#     4  11  23  39  63 102 143 181 230 285 356 437
#     4  11  22  39  66 102 146 181 223 295 355 437
#     4  10  26  50  68 102 139 177 249 297 346 436
#
# _framework density 24.355024
#
# number of rings (size 3 to 8) (size 9 to 14) (size 15 to 20)
#    0.000    1.067    6.667    0.800    3.733    0.000 
#   12.000    0.000    0.000    0.000    0.000    0.000 
#    0.000    0.000    0.000    0.000    0.000    0.000 
#
# Total GULP energy -167208.753809 kJ/mol
# GULP energy per Si atom -5573.625127 kJ/mol
# Density = 2.429959 g / cm^3
# Si number density = 24.355024 Si / 1000 Ang^3
#
#
#
# Elastic Constant Matrix: (Units=GPa)
#
#
# Indices 1 2 3 4 5 6 
#
# 1 205.4064 42.0878 70.0824 0.0000 0.0000 0.0000
# 2 42.0878 83.4515 40.4797 0.0000 0.0000 0.0000
# 3 70.0824 40.4797 80.7970 0.0000 0.0000 0.0000
# 4 0.0000 0.0000 0.0000 87.2250 0.0000 0.0000
# 5 0.0000 0.0000 0.0000 0.0000-2359.4985 0.0000
# 6 0.0000 0.0000 0.0000 0.0000 0.0000 60.9449
#
#
#
# Elastic Compliance Matrix: (Units=1/GPa)
#
#
# Indices 1 2 3 4 5 6 
#
# 1 0.006952 -0.000768 -0.005645 0.000000 0.000000 0.000000
# 2 -0.000768 0.015915 -0.007308 0.000000 0.000000 0.000000
# 3 -0.005645 -0.007308 0.020934 0.000000 0.000000 0.000000
# 4 0.000000 0.000000 0.000000 0.011465 0.000000 0.000000
# 5 0.000000 0.000000 0.000000 0.000000 -0.000424 0.000000
# 6 0.000000 0.000000 0.000000 0.000000 0.000000 0.016408
#
#
# Mechanical properties :
#
#
# Convention : Reuss Voigt Hill
#
# Bulk Modulus (GPa) = 61.12439 74.99495 68.05967
# Shear Modulus (GPa) = 48.01018 -427.79871 -189.89427
#
# Velocity S-wave (km/s) = 4.44471 -13.26772 -8.83960
# Velocity P-wave (km/s) = 7.17581 14.27763 8.72807
#
# Compressibility (1/GPa) = 0.01636008
#
# Stress axis : x y z
#
# Youngs Moduli (GPa) = 143.84739 62.83443 47.76809
#
# Poissons Ratio (x) = 0.04824 0.26967
# Poissons Ratio (y) = 0.11043 0.34907
# Poissons Ratio (z) = 0.81206 0.45916
#
# Static dielectric constant tensor:
#      x y z
#    x 0.677780 0.000000 0.000000 
#    y 0.000000 2.095110 0.000000 
#    z 0.000000 0.000000 2.010990 
# 
# From -- ./inp_files/37052.got.cif
#   From: 2010.05.17/outbox.cif.g08.bks.cpg/sg68_19_cif.got.tgz:37052.got - 2010.06.03 18:57:09.
