data_PCOD9509458
_publ_section_title
;
Structure prediction by ZEFSAII (Michael W. Deem and Ramdas Pophale) SiO2 
 PCOD9509458
Probable space group: C C C A
;
_chemical_formula_sum "Si O2"
_cell_formula_units_Z 72
_cell_length_a 16.032218
_cell_length_b 16.272263
_cell_length_c 14.922290
_cell_angle_alpha 90.000000
_cell_angle_beta 90.000000
_cell_angle_gamma 90.000000
_cell_volume 3892.933995
_symmetry_space_group_name_H-M "C C C A"
_symmetry_group_IT_number 68
_space_group.IT_coordinate_system_code '2'
_symmetry_cell_setting 'orthorhombic'
loop_
_space_group_symop_operation_xyz
x,y,z
-x,1/2-y,z
x,1/2-y,1/2-z
-x,y,1/2-z
-x,-y,-z
x,1/2+y,-z
-x,1/2+y,1/2+z
x,-y,1/2+z
1/2+x,1/2+y,z
1/2-x,-y,z
1/2+x,-y,1/2-z
1/2-x,1/2+y,1/2-z
1/2-x,1/2-y,-z
1/2+x,y,-z
1/2-x,y,1/2+z
1/2+x,1/2-y,1/2+z
loop_
_atom_site_type_symbol
_atom_site_label
_atom_site_fract_x
_atom_site_fract_y
_atom_site_fract_z
Si Si1 0.829387 0.943755 0.629234
Si Si2 0.000000 0.250000 0.918449
Si Si3 0.766465 0.346237 0.728150
Si Si4 0.178550 0.686608 0.472033
Si Si5 0.065135 0.412261 0.678252
O O1 0.807664 0.899862 0.725524
O O2 0.832662 0.877562 0.551562
O O3 0.750000 0.000000 0.610366
O O4 0.906061 0.006977 0.625396
O O5 0.910979 0.231277 0.963656
O O6 0.980235 0.334328 0.865945
O O7 0.752228 0.250000 0.750000
O O8 0.789299 0.351695 0.622696
O O9 0.850277 0.375779 0.778702
O O10 0.250000 0.750000 0.500000
O O11 0.000000 0.444001 0.750000
#
# Coordination Sequence:
#
# PCOD9509458 Si02
#       5
#    16   8  16  16  16
#     4  10  24  40  59  97 131 162 216 276 332 394
#     4  12  23  40  70  93 122 180 232 265 328 401
#     4  11  19  40  69  88 122 171 222 262 334 396
#     4  12  23  41  68  95 129 173 222 278 330 400
#     4  11  20  40  63  91 125 168 222 273 320 398
#
# _framework density 18.495047
#
# number of rings (size 3 to 8) (size 9 to 14) (size 15 to 20)
#    0.000    0.889    6.667    1.667    0.000    3.556 
#    4.000    0.000    0.000    0.000    0.000    0.000 
#    0.000    0.000    0.000    0.000    0.000    0.000 
#
# Total GULP energy -200539.434863 kJ/mol
# GULP energy per Si atom -5570.539857 kJ/mol
# Density = 1.845295 g / cm^3
# Si number density = 18.495047 Si / 1000 Ang^3
#
#
#
# Elastic Constant Matrix: (Units=GPa)
#
#
# Indices 1 2 3 4 5 6 
#
# 1 92.1189 46.1084 39.8194 0.0000 0.0000 0.0000
# 2 46.1084 104.8271 50.2784 0.0000 0.0000 0.0000
# 3 39.8194 50.2784 90.3799 0.0000 0.0000 0.0000
# 4 0.0000 0.0000 0.0000 21.8234 0.0000 0.0000
# 5 0.0000 0.0000 0.0000 0.0000 21.2679 0.0000
# 6 0.0000 0.0000 0.0000 0.0000 0.0000 33.8935
#
#
#
# Elastic Compliance Matrix: (Units=1/GPa)
#
#
# Indices 1 2 3 4 5 6 
#
# 1 0.014901 -0.004645 -0.003981 0.000000 0.000000 0.000000
# 2 -0.004645 0.014459 -0.005997 0.000000 0.000000 0.000000
# 3 -0.003981 -0.005997 0.016155 0.000000 0.000000 0.000000
# 4 0.000000 0.000000 0.000000 0.045822 0.000000 0.000000
# 5 0.000000 0.000000 0.000000 0.000000 0.047019 0.000000
# 6 0.000000 0.000000 0.000000 0.000000 0.000000 0.029504
#
#
# Mechanical properties :
#
#
# Convention : Reuss Voigt Hill
#
# Bulk Modulus (GPa) = 61.46839 62.19313 61.83076
# Shear Modulus (GPa) = 24.68766 25.47159 25.07963
#
# Velocity S-wave (km/s) = 3.65749 3.71511 3.68641
# Velocity P-wave (km/s) = 7.15147 7.21821 7.18492
#
# Compressibility (1/GPa) = 0.01626852
#
# Stress axis : x y z
#
# Youngs Moduli (GPa) = 67.10787 69.16120 61.90156
#
# Poissons Ratio (x) = 0.32124 0.24645
# Poissons Ratio (y) = 0.31171 0.37123
# Poissons Ratio (z) = 0.26718 0.41477
#
# Static dielectric constant tensor:
#      x y z
#    x 1.651070 0.000000 0.000000 
#    y 0.000000 1.688180 0.000000 
#    z 0.000000 0.000000 1.720450 
# 
# From -- ./inp_files/21985.got.cif
#   From: 2010.05.17/outbox.cif.g08.bks.cpg/sg68_11_cif.got.tgz:21985.got - 2010.06.03 18:57:09.
