data_PCOD9509350
_publ_section_title
;
Structure prediction by ZEFSAII (Michael W. Deem and Ramdas Pophale) SiO2 
 PCOD9509350
Probable space group: C C C A
;
_chemical_formula_sum "Si O2"
_cell_formula_units_Z 24
_cell_length_a 12.995354
_cell_length_b 13.826370
_cell_length_c 5.224900
_cell_angle_alpha 90.000000
_cell_angle_beta 90.000000
_cell_angle_gamma 90.000000
_cell_volume 938.802574
_symmetry_space_group_name_H-M "C C C A"
_symmetry_group_IT_number 68
_space_group.IT_coordinate_system_code '2'
_symmetry_cell_setting 'orthorhombic'
loop_
_space_group_symop_operation_xyz
x,y,z
-x,1/2-y,z
x,1/2-y,1/2-z
-x,y,1/2-z
-x,-y,-z
x,1/2+y,-z
-x,1/2+y,1/2+z
x,-y,1/2+z
1/2+x,1/2+y,z
1/2-x,-y,z
1/2+x,-y,1/2-z
1/2-x,1/2+y,1/2-z
1/2-x,1/2-y,-z
1/2+x,y,-z
1/2-x,y,1/2+z
1/2+x,1/2-y,1/2+z
loop_
_atom_site_type_symbol
_atom_site_label
_atom_site_fract_x
_atom_site_fract_y
_atom_site_fract_z
Si Si1 0.000000 0.067286 0.250000
Si Si2 0.711007 0.357983 0.569900
O O1 0.899075 0.132413 0.296478
O O2 0.000000 0.000000 0.500000
O O3 0.750000 0.250000 0.500000
O O4 0.711998 0.401833 0.283342
#
# Coordination Sequence:
#
# PCOD9509350 Si02
#       2
#     8  16
#     4  12  26  43  70 109 148 186 240 314 386 443
#     4  10  23  44  70 100 139 191 245 297 361 449
#
# _framework density 25.564478000000001
#
# number of rings (size 3 to 8) (size 9 to 14) (size 15 to 20)
#    0.000    1.333    0.000    4.000    0.000   13.333 
#    0.000   13.333    0.000    0.000    0.000    0.000 
#    0.000    0.000    0.000    0.000    0.000    0.000 
#
# Total GULP energy -66999.610669 kJ/mol
# GULP energy per Si atom -5583.300889 kJ/mol
# Density = 2.550629 g / cm^3
# Si number density = 25.564478 Si / 1000 Ang^3
#
#
#
# Elastic Constant Matrix: (Units=GPa)
#
#
# Indices 1 2 3 4 5 6 
#
# 1 209.8177 60.3527 79.8530 0.0000 0.0000 0.0000
# 2 60.3527 152.4350 39.7557 0.0000 0.0000 0.0000
# 3 79.8530 39.7557 303.2799 0.0000 0.0000 0.0000
# 4 0.0000 0.0000 0.0000 25.7845 0.0000 0.0000
# 5 0.0000 0.0000 0.0000 0.0000 46.3399 0.0000
# 6 0.0000 0.0000 0.0000 0.0000 0.0000 48.5606
#
#
#
# Elastic Compliance Matrix: (Units=1/GPa)
#
#
# Indices 1 2 3 4 5 6 
#
# 1 0.005818 -0.001971 -0.001273 0.000000 0.000000 0.000000
# 2 -0.001971 0.007460 -0.000459 0.000000 0.000000 0.000000
# 3 -0.001273 -0.000459 0.003693 0.000000 0.000000 0.000000
# 4 0.000000 0.000000 0.000000 0.038783 0.000000 0.000000
# 5 0.000000 0.000000 0.000000 0.000000 0.021580 0.000000
# 6 0.000000 0.000000 0.000000 0.000000 0.000000 0.020593
#
#
# Mechanical properties :
#
#
# Convention : Reuss Voigt Hill
#
# Bulk Modulus (GPa) = 104.56286 113.93949 109.25118
# Shear Modulus (GPa) = 46.07392 56.50841 51.29117
#
# Velocity S-wave (km/s) = 4.24991 4.70662 4.48408
# Velocity P-wave (km/s) = 8.06677 8.61409 8.34492
#
# Compressibility (1/GPa) = 0.00956363
#
# Stress axis : x y z
#
# Youngs Moduli (GPa) = 171.88952 134.04235 270.80310
#
# Poissons Ratio (x) = 0.26423 0.34484
# Poissons Ratio (y) = 0.33884 0.12428
# Poissons Ratio (z) = 0.21888 0.06151
#
# Static dielectric constant tensor:
#      x y z
#    x 2.075560 0.000000 0.000000 
#    y 0.000000 2.342530 0.000000 
#    z 0.000000 0.000000 2.272820 
# 
# From -- ./inp_files/112.got.cif
#   From: 2010.05.17/outbox.cif.g08.bks.cpg/sg68_1_cif.got.tgz:112.got - 2010.06.03 18:57:09.
