data_PCOD9509413
_publ_section_title
;
Structure prediction by ZEFSAII (Michael W. Deem and Ramdas Pophale) SiO2 
 PCOD9509413
Probable space group: C C C A
;
_chemical_formula_sum "Si O2"
_cell_formula_units_Z 72
_cell_length_a 8.761991
_cell_length_b 15.791823
_cell_length_c 19.709351
_cell_angle_alpha 90.000000
_cell_angle_beta 90.000000
_cell_angle_gamma 90.000000
_cell_volume 2727.139754
_symmetry_space_group_name_H-M "C C C A"
_symmetry_group_IT_number 68
_space_group.IT_coordinate_system_code '2'
_symmetry_cell_setting 'orthorhombic'
loop_
_space_group_symop_operation_xyz
x,y,z
-x,1/2-y,z
x,1/2-y,1/2-z
-x,y,1/2-z
-x,-y,-z
x,1/2+y,-z
-x,1/2+y,1/2+z
x,-y,1/2+z
1/2+x,1/2+y,z
1/2-x,-y,z
1/2+x,-y,1/2-z
1/2-x,1/2+y,1/2-z
1/2-x,1/2-y,-z
1/2+x,y,-z
1/2-x,y,1/2+z
1/2+x,1/2-y,1/2+z
loop_
_atom_site_type_symbol
_atom_site_label
_atom_site_fract_x
_atom_site_fract_y
_atom_site_fract_z
Si Si1 0.661240 0.362473 0.772879
Si Si2 0.112018 0.670236 0.343468
Si Si3 0.808208 0.095898 0.076822
Si Si4 0.884864 0.832374 0.955275
Si Si5 0.500000 0.969520 0.750000
O O1 0.500000 0.327723 0.750000
O O2 0.692196 0.355749 0.851638
O O3 0.631168 0.461004 0.758066
O O4 0.790254 0.327163 0.725250
O O5 0.244382 0.663921 0.401098
O O6 0.000000 0.750000 0.354176
O O7 0.017133 0.585669 0.319574
O O8 0.798707 0.648799 0.474493
O O9 0.987434 0.095652 0.056640
O O10 0.750000 0.000000 0.080136
O O11 0.000000 0.750000 0.955141
#
# Coordination Sequence:
#
# PCOD9509413 Si02
#       5
#    16  16  16  16   8
#     4  10  24  50  88 122 172 214 276 356 434 504
#     4  12  27  50  82 129 172 226 289 351 430 522
#     4  12  27  52  88 123 163 225 286 354 436 514
#     4  12  30  53  78 119 180 229 285 357 431 513
#     4  10  23  46  82 126 167 212 278 358 425 508
#
# _framework density 26.401287
#
# number of rings (size 3 to 8) (size 9 to 14) (size 15 to 20)
#    0.667    0.000    2.222    3.667    0.000   16.000 
#    0.000    1.111    0.000    0.000    0.000    0.000 
#    0.000    0.000    0.000    0.000    0.000    0.000 
#
# Total GULP energy -201213.932219 kJ/mol
# GULP energy per Si atom -5589.275895 kJ/mol
# Density = 2.634120 g / cm^3
# Si number density = 26.401287 Si / 1000 Ang^3
#
#
#
# Elastic Constant Matrix: (Units=GPa)
#
#
# Indices 1 2 3 4 5 6 
#
# 1 205.9426 80.9292 90.6123 0.0000 0.0000 0.0000
# 2 80.9292 183.2167 64.4363 0.0000 0.0000 0.0000
# 3 90.6123 64.4363 228.3770 0.0000 0.0000 0.0000
# 4 0.0000 0.0000 0.0000 19.9525 0.0000 0.0000
# 5 0.0000 0.0000 0.0000 0.0000 73.6384 0.0000
# 6 0.0000 0.0000 0.0000 0.0000 0.0000 25.2221
#
#
#
# Elastic Compliance Matrix: (Units=1/GPa)
#
#
# Indices 1 2 3 4 5 6 
#
# 1 0.006604 -0.002215 -0.001995 0.000000 0.000000 0.000000
# 2 -0.002215 0.006802 -0.001040 0.000000 0.000000 0.000000
# 3 -0.001995 -0.001040 0.005464 0.000000 0.000000 0.000000
# 4 0.000000 0.000000 0.000000 0.050119 0.000000 0.000000
# 5 0.000000 0.000000 0.000000 0.000000 0.013580 0.000000
# 6 0.000000 0.000000 0.000000 0.000000 0.000000 0.039648
#
#
# Mechanical properties :
#
#
# Convention : Reuss Voigt Hill
#
# Bulk Modulus (GPa) = 119.49428 121.05465 120.27446
# Shear Modulus (GPa) = 36.89798 49.19984 43.04891
#
# Velocity S-wave (km/s) = 3.74248 4.32156 4.04240
# Velocity P-wave (km/s) = 8.00212 8.41739 8.21238
#
# Compressibility (1/GPa) = 0.00836860
#
# Stress axis : x y z
#
# Youngs Moduli (GPa) = 151.41865 147.00525 183.01993
#
# Poissons Ratio (x) = 0.32568 0.36517
# Poissons Ratio (y) = 0.33546 0.19039
# Poissons Ratio (z) = 0.30212 0.15293
#
# Static dielectric constant tensor:
#      x y z
#    x 2.079170 0.000000 0.000000 
#    y 0.000000 2.186170 0.000000 
#    z 0.000000 0.000000 2.064950 
# 
# From -- ./inp_files/49245.got.cif
#   From: 2010.05.17/outbox.cif.g08.bks.cpg/sg68_25_cif.got.tgz:49245.got - 2010.06.03 18:57:09.
