data_PCOD9509676
_publ_section_title
;
Structure prediction by ZEFSAII (Michael W. Deem and Ramdas Pophale) SiO2 
 PCOD9509676
Probable space group: C C C A
;
_chemical_formula_sum "Si O2"
_cell_formula_units_Z 36
_cell_length_a 27.557726
_cell_length_b 5.035025
_cell_length_c 9.960889
_cell_angle_alpha 90.000000
_cell_angle_beta 90.000000
_cell_angle_gamma 90.000000
_cell_volume 1382.111592
_symmetry_space_group_name_H-M "C C C A"
_symmetry_group_IT_number 68
_space_group.IT_coordinate_system_code '2'
_symmetry_cell_setting 'orthorhombic'
loop_
_space_group_symop_operation_xyz
x,y,z
-x,1/2-y,z
x,1/2-y,1/2-z
-x,y,1/2-z
-x,-y,-z
x,1/2+y,-z
-x,1/2+y,1/2+z
x,-y,1/2+z
1/2+x,1/2+y,z
1/2-x,-y,z
1/2+x,-y,1/2-z
1/2-x,1/2+y,1/2-z
1/2-x,1/2-y,-z
1/2+x,y,-z
1/2-x,y,1/2+z
1/2+x,1/2-y,1/2+z
loop_
_atom_site_type_symbol
_atom_site_label
_atom_site_fract_x
_atom_site_fract_y
_atom_site_fract_z
Si Si1 0.337228 0.250000 0.250000
Si Si2 0.500000 0.250000 0.750000
Si Si3 0.250000 0.500000 0.669387
Si Si4 0.587809 0.922441 0.410837
O O1 0.299855 0.150727 0.370116
O O2 0.371142 0.474621 0.310422
O O3 0.464286 0.070306 0.660964
O O4 0.228024 0.750000 0.750000
O O5 0.591446 0.625849 0.466149
#
# Coordination Sequence:
#
# PCOD9509676 Si02
#       4
#     8   4   8  16
#     4  10  24  46  72 100 154 182 232 304 340 414
#     4  12  28  52  72 100 156 184 228 318 352 418
#     4   8  20  38  74  96 138 198 224 276 374 398
#     4  12  28  45  75 108 136 190 245 286 361 427
#
# _framework density 26.047097000000001
#
# number of rings (size 3 to 8) (size 9 to 14) (size 15 to 20)
#    1.333    0.000    0.000    4.000    9.333    6.222 
#    0.000    6.667    0.000    0.000    0.000    0.000 
#    0.000    0.000    0.000    0.000    0.000    0.000 
#
# Total GULP energy -100281.190121 kJ/mol
# GULP energy per Si atom -5571.177229 kJ/mol
# Density = 2.598781 g / cm^3
# Si number density = 26.047097 Si / 1000 Ang^3
#
#
#
# Elastic Constant Matrix: (Units=GPa)
#
#
# Indices 1 2 3 4 5 6 
#
# 1 235.0154 32.1346 54.4849 0.0000 0.0000 0.0000
# 2 32.1346 102.3998 22.5791 0.0000 0.0000 0.0000
# 3 54.4849 22.5791 83.8127 0.0000 0.0000 0.0000
# 4 0.0000 0.0000 0.0000 13.1081 0.0000 0.0000
# 5 0.0000 0.0000 0.0000 0.0000 -35.0505 0.0000
# 6 0.0000 0.0000 0.0000 0.0000 0.0000 69.1033
#
#
#
# Elastic Compliance Matrix: (Units=1/GPa)
#
#
# Indices 1 2 3 4 5 6 
#
# 1 0.005091 -0.000923 -0.003061 0.000000 0.000000 0.000000
# 2 -0.000923 0.010550 -0.002242 0.000000 0.000000 0.000000
# 3 -0.003061 -0.002242 0.014525 0.000000 0.000000 0.000000
# 4 0.000000 0.000000 0.000000 0.076288 0.000000 0.000000
# 5 0.000000 0.000000 0.000000 0.000000 -0.028530 0.000000
# 6 0.000000 0.000000 0.000000 0.000000 0.000000 0.014471
#
#
# Mechanical properties :
#
#
# Convention : Reuss Voigt Hill
#
# Bulk Modulus (GPa) = 56.45223 71.06944 63.76084
# Shear Modulus (GPa) = 45.14624 30.23414 37.69019
#
# Velocity S-wave (km/s) = 4.16775 3.41067 3.80807
# Velocity P-wave (km/s) = 6.69928 6.54633 6.62325
#
# Compressibility (1/GPa) = 0.01771409
#
# Stress axis : x y z
#
# Youngs Moduli (GPa) = 196.43211 94.79035 68.84569
#
# Poissons Ratio (x) = 0.08746 0.21073
# Poissons Ratio (y) = 0.18124 0.15437
# Poissons Ratio (z) = 0.60125 0.21254
#
# Static dielectric constant tensor:
#      x y z
#    x 2.007340 0.000000 0.000000 
#    y 0.000000 1.799050 0.000000 
#    z 0.000000 0.000000 2.293130 
# 
# From -- ./inp_files/9922.got.cif
#   From: 2010.05.17/outbox.cif.g08.bks.cpg/sg68_5_cif.got.tgz:9922.got - 2010.06.03 18:57:09.
