data_PCOD9509991
_publ_section_title
;
Structure prediction by ZEFSAII (Michael W. Deem and Ramdas Pophale) SiO2 
 PCOD9509991
Probable space group: C C C A
;
_chemical_formula_sum "Si O2"
_cell_formula_units_Z 64
_cell_length_a 22.307792
_cell_length_b 12.561729
_cell_length_c 10.742380
_cell_angle_alpha 90.000000
_cell_angle_beta 90.000000
_cell_angle_gamma 90.000000
_cell_volume 3010.277395
_symmetry_space_group_name_H-M "C C C A"
_symmetry_group_IT_number 68
_space_group.IT_coordinate_system_code '2'
_symmetry_cell_setting 'orthorhombic'
loop_
_space_group_symop_operation_xyz
x,y,z
-x,1/2-y,z
x,1/2-y,1/2-z
-x,y,1/2-z
-x,-y,-z
x,1/2+y,-z
-x,1/2+y,1/2+z
x,-y,1/2+z
1/2+x,1/2+y,z
1/2-x,-y,z
1/2+x,-y,1/2-z
1/2-x,1/2+y,1/2-z
1/2-x,1/2-y,-z
1/2+x,y,-z
1/2-x,y,1/2+z
1/2+x,1/2-y,1/2+z
loop_
_atom_site_type_symbol
_atom_site_label
_atom_site_fract_x
_atom_site_fract_y
_atom_site_fract_z
Si Si1 0.067834 0.226412 0.085395
Si Si2 0.127934 0.590108 0.695125
Si Si3 0.889071 0.854868 0.163839
Si Si4 0.253494 0.179105 0.374308
O O1 0.107522 0.157051 0.182477
O O2 0.097855 0.343128 0.082799
O O3 0.000000 0.250000 0.122226
O O4 0.069937 0.168108 0.954378
O O5 0.101703 0.472811 0.716593
O O6 0.198029 0.600435 0.656467
O O7 0.893641 0.750000 0.250000
O O8 0.820299 0.865408 0.118389
O O9 0.252863 0.250000 0.250000
O O10 0.250000 0.250000 0.500000
#
# Coordination Sequence:
#
# PCOD9509991 Si02
#       4
#    16  16  16  16
#     4  11  25  48  69  96 137 185 230 278 342 410
#     4  11  22  44  71  96 134 180 226 277 349 404
#     4  11  26  41  67 106 136 175 232 284 342 407
#     4  11  20  40  68 101 140 175 222 284 347 413
#
# _framework density 21.260498999999999
#
# number of rings (size 3 to 8) (size 9 to 14) (size 15 to 20)
#    0.000    1.000    5.000    2.250    3.500    1.500 
#    4.500    5.000    0.000    0.000    0.000    0.000 
#    0.000    0.000    0.000    0.000    0.000    0.000 
#
# Total GULP energy -178195.150761 kJ/mol
# GULP energy per Si atom -5568.598461 kJ/mol
# Density = 2.121211 g / cm^3
# Si number density = 21.260499 Si / 1000 Ang^3
#
#
#
# Elastic Constant Matrix: (Units=GPa)
#
#
# Indices 1 2 3 4 5 6 
#
# 1 74.9294 10.6392 24.0114 0.0000 0.0000 0.0000
# 2 10.6392 145.8531 40.2650 0.0000 0.0000 0.0000
# 3 24.0114 40.2650 105.5286 0.0000 0.0000 0.0000
# 4 0.0000 0.0000 0.0000 14.8999 0.0000 0.0000
# 5 0.0000 0.0000 0.0000 0.0000 54.6928 0.0000
# 6 0.0000 0.0000 0.0000 0.0000 0.0000 -0.6745
#
#
#
# Elastic Compliance Matrix: (Units=1/GPa)
#
#
# Indices 1 2 3 4 5 6 
#
# 1 0.014399 -0.000163 -0.003214 0.000000 0.000000 0.000000
# 2 -0.000163 0.007665 -0.002888 0.000000 0.000000 0.000000
# 3 -0.003214 -0.002888 0.011309 0.000000 0.000000 0.000000
# 4 0.000000 0.000000 0.000000 0.067114 0.000000 0.000000
# 5 0.000000 0.000000 0.000000 0.000000 0.018284 0.000000
# 6 0.000000 0.000000 0.000000 0.000000 0.000000 -1.482652
#
#
# Mechanical properties :
#
#
# Convention : Reuss Voigt Hill
#
# Bulk Modulus (GPa) = 47.97540 52.90470 50.44005
# Shear Modulus (GPa) = -3.71912 30.54334 13.41211
#
# Velocity S-wave (km/s) = -1.32405 3.79439 2.51439
# Velocity P-wave (km/s) = 4.50300 6.64339 5.67502
#
# Compressibility (1/GPa) = 0.02084402
#
# Stress axis : x y z
#
# Youngs Moduli (GPa) = 69.44929 130.45830 88.42352
#
# Poissons Ratio (x) = 0.02127 0.28420
# Poissons Ratio (y) = 0.01132 0.25533
# Poissons Ratio (z) = 0.22321 0.37672
#
# Static dielectric constant tensor:
#      x y z
#    x 1.844630 0.000000 0.000000 
#    y 0.000000 1.857370 0.000000 
#    z 0.000000 0.000000 1.778780 
# 
# From -- ./inp_files/12965.got.cif
#   From: 2010.05.17/outbox.cif.g08.bks.cpg/sg68_7_cif.got.tgz:12965.got - 2010.06.03 18:57:09.
