data_PCOD9509611
_publ_section_title
;
Structure prediction by ZEFSAII (Michael W. Deem and Ramdas Pophale) SiO2 
 PCOD9509611
Probable space group: C C C A
;
_chemical_formula_sum "Si O2"
_cell_formula_units_Z 44
_cell_length_a 14.766495
_cell_length_b 13.394039
_cell_length_c 9.633539
_cell_angle_alpha 90.000000
_cell_angle_beta 90.000000
_cell_angle_gamma 90.000000
_cell_volume 1905.350340
_symmetry_space_group_name_H-M "C C C A"
_symmetry_group_IT_number 68
_space_group.IT_coordinate_system_code '2'
_symmetry_cell_setting 'orthorhombic'
loop_
_space_group_symop_operation_xyz
x,y,z
-x,1/2-y,z
x,1/2-y,1/2-z
-x,y,1/2-z
-x,-y,-z
x,1/2+y,-z
-x,1/2+y,1/2+z
x,-y,1/2+z
1/2+x,1/2+y,z
1/2-x,-y,z
1/2+x,-y,1/2-z
1/2-x,1/2+y,1/2-z
1/2-x,1/2-y,-z
1/2+x,y,-z
1/2-x,y,1/2+z
1/2+x,1/2-y,1/2+z
loop_
_atom_site_type_symbol
_atom_site_label
_atom_site_fract_x
_atom_site_fract_y
_atom_site_fract_z
Si Si1 0.143665 0.390788 0.123527
Si Si2 0.598880 0.058827 0.325580
Si Si3 0.500000 0.250000 0.750000
Si Si4 0.289307 0.250000 0.250000
O O1 0.150212 0.469588 0.248242
O O2 0.059184 0.319926 0.153592
O O3 0.227356 0.313340 0.140927
O O4 0.115293 0.455677 0.989785
O O5 0.500000 0.061471 0.250000
O O6 0.646228 0.165931 0.311719
#
# Coordination Sequence:
#
# PCOD9509611 Si02
#       4
#    16  16   4   8
#     4  11  26  47  73 104 148 189 241 299 363 429
#     4  12  26  46  75 108 143 192 245 299 362 432
#     4  10  24  44  72 102 142 184 236 304 356 420
#     4  11  27  45  73 108 150 190 239 297 365 431
#
# _framework density 23.092867999999999
#
# number of rings (size 3 to 8) (size 9 to 14) (size 15 to 20)
#    0.000    0.727    1.818    3.818    5.091    8.727 
#    0.000    0.000    0.000    0.000    0.000    0.000 
#    0.000    0.000    0.000    0.000    0.000    0.000 
#
# Total GULP energy -122775.301751 kJ/mol
# GULP energy per Si atom -5580.695534 kJ/mol
# Density = 2.304031 g / cm^3
# Si number density = 23.092868 Si / 1000 Ang^3
#
#
#
# Elastic Constant Matrix: (Units=GPa)
#
#
# Indices 1 2 3 4 5 6 
#
# 1 93.9569 24.4335 14.2085 0.0000 0.0000 0.0000
# 2 24.4335 137.1872 42.4034 0.0000 0.0000 0.0000
# 3 14.2085 42.4034 151.5826 0.0000 0.0000 0.0000
# 4 0.0000 0.0000 0.0000 82.4051 0.0000 0.0000
# 5 0.0000 0.0000 0.0000 0.0000 73.1203 0.0000
# 6 0.0000 0.0000 0.0000 0.0000 0.0000 25.4392
#
#
#
# Elastic Compliance Matrix: (Units=1/GPa)
#
#
# Indices 1 2 3 4 5 6 
#
# 1 0.011200 -0.001828 -0.000538 0.000000 0.000000 0.000000
# 2 -0.001828 0.008278 -0.002144 0.000000 0.000000 0.000000
# 3 -0.000538 -0.002144 0.007247 0.000000 0.000000 0.000000
# 4 0.000000 0.000000 0.000000 0.012135 0.000000 0.000000
# 5 0.000000 0.000000 0.000000 0.000000 0.013676 0.000000
# 6 0.000000 0.000000 0.000000 0.000000 0.000000 0.039309
#
#
# Mechanical properties :
#
#
# Convention : Reuss Voigt Hill
#
# Bulk Modulus (GPa) = 56.48686 60.53526 58.51106
# Shear Modulus (GPa) = 46.83017 56.30499 51.56758
#
# Velocity S-wave (km/s) = 4.50811 4.94317 4.73064
# Velocity P-wave (km/s) = 7.18410 7.67142 7.43175
#
# Compressibility (1/GPa) = 0.01770323
#
# Stress axis : x y z
#
# Youngs Moduli (GPa) = 89.28523 120.80641 137.98159
#
# Poissons Ratio (x) = 0.22088 0.07428
# Poissons Ratio (y) = 0.16325 0.29586
# Poissons Ratio (z) = 0.04807 0.25903
#
# Static dielectric constant tensor:
#      x y z
#    x 1.908140 0.000000 0.000000 
#    y 0.000000 1.803800 0.000000 
#    z 0.000000 0.000000 1.788470 
# 
# From -- ./inp_files/4450.got.cif
#   From: 2010.05.17/outbox.cif.g08.bks.cpg/sg68_3_cif.got.tgz:4450.got - 2010.06.03 18:57:09.
