data_PCOD9509601
_publ_section_title
;
Structure prediction by ZEFSAII (Michael W. Deem and Ramdas Pophale) SiO2 
 PCOD9509601
Probable space group: C C C A
;
_chemical_formula_sum "Si O2"
_cell_formula_units_Z 88
_cell_length_a 23.404729
_cell_length_b 14.655974
_cell_length_c 12.202535
_cell_angle_alpha 90.000000
_cell_angle_beta 90.000000
_cell_angle_gamma 90.000000
_cell_volume 4185.702570
_symmetry_space_group_name_H-M "C C C A"
_symmetry_group_IT_number 68
_space_group.IT_coordinate_system_code '2'
_symmetry_cell_setting 'orthorhombic'
loop_
_space_group_symop_operation_xyz
x,y,z
-x,1/2-y,z
x,1/2-y,1/2-z
-x,y,1/2-z
-x,-y,-z
x,1/2+y,-z
-x,1/2+y,1/2+z
x,-y,1/2+z
1/2+x,1/2+y,z
1/2-x,-y,z
1/2+x,-y,1/2-z
1/2-x,1/2+y,1/2-z
1/2-x,1/2-y,-z
1/2+x,y,-z
1/2-x,y,1/2+z
1/2+x,1/2-y,1/2+z
loop_
_atom_site_type_symbol
_atom_site_label
_atom_site_fract_x
_atom_site_fract_y
_atom_site_fract_z
Si Si1 0.633458 0.637264 0.465413
Si Si2 0.638928 0.665540 0.942109
Si Si3 0.752275 0.605175 0.578385
Si Si4 0.790327 0.750000 0.250000
Si Si5 0.432162 0.859282 0.244413
Si Si6 0.435093 0.973146 0.027254
O O1 0.619051 0.740524 0.500048
O O2 0.700272 0.623471 0.492260
O O3 0.609435 0.613735 0.344628
O O4 0.599660 0.566072 0.540232
O O5 0.668905 0.692906 0.829617
O O6 0.689169 0.623058 0.015858
O O7 0.589720 0.590841 0.930763
O O8 0.750000 0.500000 0.615753
O O9 0.745193 0.679400 0.675145
O O10 0.427372 0.750000 0.250000
O O11 0.500000 0.879446 0.250000
O O12 0.419989 0.910537 0.131760
O O13 0.500000 0.000000 0.000000
#
# Coordination Sequence:
#
# PCOD9509601 Si02
#       6
#    16  16  16   8  16  16
#     4  11  23  44  70 100 145 177 233 298 352 417
#     4  11  25  47  68 103 147 182 238 296 352 427
#     4  11  24  47  71 107 139 187 238 294 353 434
#     4  10  24  44  70 103 144 183 230 292 374 418
#     4  11  23  43  73 100 133 192 245 290 353 419
#     4  12  25  43  71 106 142 180 242 296 352 422
#
# _framework density 21.023949000000002
#
# number of rings (size 3 to 8) (size 9 to 14) (size 15 to 20)
#    0.000    0.909    5.455    2.182    0.000    7.273 
#    4.909    0.000    0.000    4.364    0.000    0.000 
#    0.000    0.000    0.000    0.000    0.000    0.000 
#
# Total GULP energy -245657.032773 kJ/mol
# GULP energy per Si atom -5583.114381 kJ/mol
# Density = 2.097610 g / cm^3
# Si number density = 21.023949 Si / 1000 Ang^3
#
#
#
# Elastic Constant Matrix: (Units=GPa)
#
#
# Indices 1 2 3 4 5 6 
#
# 1 123.6398 58.3951 36.9031 0.0000 0.0000 0.0000
# 2 58.3951 126.3187 10.3586 0.0000 0.0000 0.0000
# 3 36.9031 10.3586 81.5271 0.0000 0.0000 0.0000
# 4 0.0000 0.0000 0.0000 22.5340 0.0000 0.0000
# 5 0.0000 0.0000 0.0000 0.0000 11.0801 0.0000
# 6 0.0000 0.0000 0.0000 0.0000 0.0000 15.8565
#
#
#
# Elastic Compliance Matrix: (Units=1/GPa)
#
#
# Indices 1 2 3 4 5 6 
#
# 1 0.011924 -0.005123 -0.004747 0.000000 0.000000 0.000000
# 2 -0.005123 0.010201 0.001023 0.000000 0.000000 0.000000
# 3 -0.004747 0.001023 0.014284 0.000000 0.000000 0.000000
# 4 0.000000 0.000000 0.000000 0.044377 0.000000 0.000000
# 5 0.000000 0.000000 0.000000 0.000000 0.090252 0.000000
# 6 0.000000 0.000000 0.000000 0.000000 0.000000 0.063066
#
#
# Mechanical properties :
#
#
# Convention : Reuss Voigt Hill
#
# Bulk Modulus (GPa) = 53.43033 60.31104 56.87069
# Shear Modulus (GPa) = 19.37704 24.94937 22.16320
#
# Velocity S-wave (km/s) = 3.03919 3.44861 3.25035
# Velocity P-wave (km/s) = 6.14693 6.67879 6.41837
#
# Compressibility (1/GPa) = 0.01871596
#
# Stress axis : x y z
#
# Youngs Moduli (GPa) = 83.86118 98.02964 70.00621
#
# Poissons Ratio (x) = 0.50223 0.33229
# Poissons Ratio (y) = 0.42964 -0.07161
# Poissons Ratio (z) = 0.39806 -0.10028
#
# Static dielectric constant tensor:
#      x y z
#    x 1.828250 0.000000 0.000000 
#    y 0.000000 1.768080 0.000000 
#    z 0.000000 0.000000 1.932160 
# 
# From -- ./inp_files/16331.got.cif
#   From: 2010.05.17/outbox.cif.g08.bks.cpg/sg68_9_cif.got.tgz:16331.got - 2010.06.03 18:57:09.
