data_PCOD9509375
_publ_section_title
;
Structure prediction by ZEFSAII (Michael W. Deem and Ramdas Pophale) SiO2 
 PCOD9509375
Probable space group: C C C A
;
_chemical_formula_sum "Si O2"
_cell_formula_units_Z 72
_cell_length_a 23.001937
_cell_length_b 14.630971
_cell_length_c 9.473445
_cell_angle_alpha 90.000000
_cell_angle_beta 90.000000
_cell_angle_gamma 90.000000
_cell_volume 3188.199558
_symmetry_space_group_name_H-M "C C C A"
_symmetry_group_IT_number 68
_space_group.IT_coordinate_system_code '2'
_symmetry_cell_setting 'orthorhombic'
loop_
_space_group_symop_operation_xyz
x,y,z
-x,1/2-y,z
x,1/2-y,1/2-z
-x,y,1/2-z
-x,-y,-z
x,1/2+y,-z
-x,1/2+y,1/2+z
x,-y,1/2+z
1/2+x,1/2+y,z
1/2-x,-y,z
1/2+x,-y,1/2-z
1/2-x,1/2+y,1/2-z
1/2-x,1/2-y,-z
1/2+x,y,-z
1/2-x,y,1/2+z
1/2+x,1/2-y,1/2+z
loop_
_atom_site_type_symbol
_atom_site_label
_atom_site_fract_x
_atom_site_fract_y
_atom_site_fract_z
Si Si1 0.250000 0.500000 0.926830
Si Si2 0.438408 0.941517 0.319022
Si Si3 0.881634 0.731253 0.903887
Si Si4 0.211121 0.191941 0.611427
Si Si5 0.624435 0.439426 0.536648
O O1 0.237083 0.405744 0.846399
O O2 0.310276 0.470741 0.003730
O O3 0.500000 0.960550 0.250000
O O4 0.434846 0.834618 0.364004
O O5 0.388403 0.957638 0.201504
O O6 0.422618 0.006671 0.446741
O O7 0.851936 0.750000 0.750000
O O8 0.886845 0.830568 0.973772
O O9 0.845109 0.673642 0.015878
O O10 0.199719 0.250000 0.750000
O O11 0.250000 0.250000 0.500000
#
# Coordination Sequence:
#
# PCOD9509375 Si02
#       5
#     8  16  16  16  16
#     4  12  26  42  72 108 152 196 238 300 380 446
#     4  11  25  48  72 103 141 195 248 307 360 437
#     4  10  23  45  67 102 139 190 242 298 368 433
#     4  12  26  42  67 102 153 193 242 296 364 446
#     4  11  25  41  73 104 146 186 244 297 373 439
#
# _framework density 22.583279000000001
#
# number of rings (size 3 to 8) (size 9 to 14) (size 15 to 20)
#    0.000    0.889    4.444    1.333    6.222    5.778 
#    0.000    0.000    0.000    1.333    0.000    0.000 
#    0.000    0.000    0.000    0.000    0.000    0.000 
#
# Total GULP energy -200985.313563 kJ/mol
# GULP energy per Si atom -5582.925377 kJ/mol
# Density = 2.253188 g / cm^3
# Si number density = 22.583279 Si / 1000 Ang^3
#
#
#
# Elastic Constant Matrix: (Units=GPa)
#
#
# Indices 1 2 3 4 5 6 
#
# 1 89.3960 44.2791 19.1507 0.0000 0.0000 0.0000
# 2 44.2791 174.6867 53.5761 0.0000 0.0000 0.0000
# 3 19.1507 53.5761 84.6509 0.0000 0.0000 0.0000
# 4 0.0000 0.0000 0.0000 24.9082 0.0000 0.0000
# 5 0.0000 0.0000 0.0000 0.0000 18.9360 0.0000
# 6 0.0000 0.0000 0.0000 0.0000 0.0000 23.3723
#
#
#
# Elastic Compliance Matrix: (Units=1/GPa)
#
#
# Indices 1 2 3 4 5 6 
#
# 1 0.012867 -0.002939 -0.001051 0.000000 0.000000 0.000000
# 2 -0.002939 0.007775 -0.004256 0.000000 0.000000 0.000000
# 3 -0.001051 -0.004256 0.014744 0.000000 0.000000 0.000000
# 4 0.000000 0.000000 0.000000 0.040147 0.000000 0.000000
# 5 0.000000 0.000000 0.000000 0.000000 0.052810 0.000000
# 6 0.000000 0.000000 0.000000 0.000000 0.000000 0.042786
#
#
# Mechanical properties :
#
#
# Convention : Reuss Voigt Hill
#
# Bulk Modulus (GPa) = 52.92424 64.74950 58.83687
# Shear Modulus (GPa) = 25.78399 28.89181 27.33790
#
# Velocity S-wave (km/s) = 3.38261 3.58067 3.48305
# Velocity P-wave (km/s) = 6.22432 6.76969 6.50272
#
# Compressibility (1/GPa) = 0.01889493
#
# Stress axis : x y z
#
# Youngs Moduli (GPa) = 77.71740 128.62039 67.82228
#
# Poissons Ratio (x) = 0.37805 0.07126
# Poissons Ratio (y) = 0.22843 0.28864
# Poissons Ratio (z) = 0.08165 0.54738
#
# Static dielectric constant tensor:
#      x y z
#    x 1.921180 0.000000 0.000000 
#    y 0.000000 1.860560 0.000000 
#    z 0.000000 0.000000 1.819000 
# 
# From -- ./inp_files/8641.got.cif
#   From: 2010.05.17/outbox.cif.g08.bks.cpg/sg68_5_cif.got.tgz:8641.got - 2010.06.03 18:57:09.
