data_PCOD9509127
_publ_section_title
;
Structure prediction by ZEFSAII (Michael W. Deem and Ramdas Pophale) SiO2 
 PCOD9509127
Probable space group: C C C A
;
_chemical_formula_sum "Si O2"
_cell_formula_units_Z 64
_cell_length_a 13.437982
_cell_length_b 21.415339
_cell_length_c 10.506778
_cell_angle_alpha 90.000000
_cell_angle_beta 90.000000
_cell_angle_gamma 90.000000
_cell_volume 3023.629436
_symmetry_space_group_name_H-M "C C C A"
_symmetry_group_IT_number 68
_space_group.IT_coordinate_system_code '2'
_symmetry_cell_setting 'orthorhombic'
loop_
_space_group_symop_operation_xyz
x,y,z
-x,1/2-y,z
x,1/2-y,1/2-z
-x,y,1/2-z
-x,-y,-z
x,1/2+y,-z
-x,1/2+y,1/2+z
x,-y,1/2+z
1/2+x,1/2+y,z
1/2-x,-y,z
1/2+x,-y,1/2-z
1/2-x,1/2+y,1/2-z
1/2-x,1/2-y,-z
1/2+x,y,-z
1/2-x,y,1/2+z
1/2+x,1/2-y,1/2+z
loop_
_atom_site_type_symbol
_atom_site_label
_atom_site_fract_x
_atom_site_fract_y
_atom_site_fract_z
Si Si1 0.500000 0.750000 0.554117
Si Si2 0.819932 0.560579 0.939818
Si Si3 0.508707 0.873006 0.397501
Si Si4 0.272332 0.875357 0.170250
Si Si5 0.327190 0.750000 0.750000
O O1 0.474713 0.812033 0.474789
O O2 0.404598 0.731178 0.639025
O O3 0.750000 0.500000 0.945247
O O4 0.782882 0.595127 0.810559
O O5 0.939715 0.566519 0.921318
O O6 0.806306 0.593158 0.076735
O O7 0.500000 0.855557 0.250000
O O8 0.625896 0.883620 0.409694
O O9 0.241371 0.804536 0.195908
#
# Coordination Sequence:
#
# PCOD9509127 Si02
#       5
#     8  16  16  16   8
#     4  11  21  40  62 106 143 179 226 288 366 429
#     4  11  24  45  67  95 136 187 242 292 348 423
#     4  10  23  39  65  99 134 180 231 286 352 422
#     4  11  24  43  67 102 137 188 236 292 364 417
#     4  11  24  38  69 100 148 186 223 300 365 438
#
# _framework density 21.166615
#
# number of rings (size 3 to 8) (size 9 to 14) (size 15 to 20)
#    0.000    1.250    2.500    2.625    7.000    3.000 
#    0.000    2.500    0.000    0.000    0.000    0.000 
#    0.000    0.000    0.000    0.000    0.000    0.000 
#
# Total GULP energy -178354.089663 kJ/mol
# GULP energy per Si atom -5573.565302 kJ/mol
# Density = 2.111844 g / cm^3
# Si number density = 21.166615 Si / 1000 Ang^3
#
#
#
# Elastic Constant Matrix: (Units=GPa)
#
#
# Indices 1 2 3 4 5 6 
#
# 1 108.7095 43.6842 5.2419 0.0000 0.0000 0.0000
# 2 43.6842 102.0881 17.7285 0.0000 0.0000 0.0000
# 3 5.2419 17.7285 61.7909 0.0000 0.0000 0.0000
# 4 0.0000 0.0000 0.0000 57.2344 0.0000 0.0000
# 5 0.0000 0.0000 0.0000 0.0000 10.7303 0.0000
# 6 0.0000 0.0000 0.0000 0.0000 0.0000 32.7321
#
#
#
# Elastic Compliance Matrix: (Units=1/GPa)
#
#
# Indices 1 2 3 4 5 6 
#
# 1 0.011121 -0.004836 0.000444 0.000000 0.000000 0.000000
# 2 -0.004836 0.012412 -0.003151 0.000000 0.000000 0.000000
# 3 0.000444 -0.003151 0.017050 0.000000 0.000000 0.000000
# 4 0.000000 0.000000 0.000000 0.017472 0.000000 0.000000
# 5 0.000000 0.000000 0.000000 0.000000 0.093194 0.000000
# 6 0.000000 0.000000 0.000000 0.000000 0.000000 0.030551
#
#
# Mechanical properties :
#
#
# Convention : Reuss Voigt Hill
#
# Bulk Modulus (GPa) = 39.21977 45.09974 42.15976
# Shear Modulus (GPa) = 24.34466 33.86829 29.10648
#
# Velocity S-wave (km/s) = 3.39506 4.00444 3.71227
# Velocity P-wave (km/s) = 5.82562 6.53712 6.19160
#
# Compressibility (1/GPa) = 0.02549734
#
# Stress axis : x y z
#
# Youngs Moduli (GPa) = 89.92313 80.56806 58.65110
#
# Poissons Ratio (x) = 0.38960 -0.02604
# Poissons Ratio (y) = 0.43484 0.18480
# Poissons Ratio (z) = -0.03993 0.25386
#
# Static dielectric constant tensor:
#      x y z
#    x 1.925250 0.000000 0.000000 
#    y 0.000000 1.766490 0.000000 
#    z 0.000000 0.000000 1.743210 
# 
# From -- ./inp_files/7762.got.cif
#   From: 2010.05.17/outbox.cif.g08.bks.cpg/sg68_4_cif.got.tgz:7762.got - 2010.06.03 18:57:09.
