data_PCOD9509312
_publ_section_title
;
Structure prediction by ZEFSAII (Michael W. Deem and Ramdas Pophale) SiO2 
 PCOD9509312
Probable space group: C C C A
;
_chemical_formula_sum "Si O2"
_cell_formula_units_Z 116
_cell_length_a 24.019033
_cell_length_b 11.188001
_cell_length_c 19.731480
_cell_angle_alpha 90.000000
_cell_angle_beta 90.000000
_cell_angle_gamma 90.000000
_cell_volume 5302.341277
_symmetry_space_group_name_H-M "C C C A"
_symmetry_group_IT_number 68
_space_group.IT_coordinate_system_code '2'
_symmetry_cell_setting 'orthorhombic'
loop_
_space_group_symop_operation_xyz
x,y,z
-x,1/2-y,z
x,1/2-y,1/2-z
-x,y,1/2-z
-x,-y,-z
x,1/2+y,-z
-x,1/2+y,1/2+z
x,-y,1/2+z
1/2+x,1/2+y,z
1/2-x,-y,z
1/2+x,-y,1/2-z
1/2-x,1/2+y,1/2-z
1/2-x,1/2-y,-z
1/2+x,y,-z
1/2-x,y,1/2+z
1/2+x,1/2-y,1/2+z
loop_
_atom_site_type_symbol
_atom_site_label
_atom_site_fract_x
_atom_site_fract_y
_atom_site_fract_z
Si Si1 0.136715 0.849613 0.064583
Si Si2 0.951933 0.159827 0.603260
Si Si3 0.313991 0.139388 0.707322
Si Si4 0.551260 0.926198 0.453781
Si Si5 0.000000 0.750000 0.750000
Si Si6 0.445606 0.418762 0.646179
Si Si7 0.144123 0.769133 0.921546
Si Si8 0.317225 0.371833 0.288908
O O1 0.102603 0.733152 0.086958
O O2 0.174863 0.870389 0.129583
O O3 0.090263 0.955357 0.054574
O O4 0.166460 0.819507 0.993202
O O5 0.967528 0.096462 0.531317
O O6 0.000000 0.250000 0.622586
O O7 0.943522 0.059347 0.658913
O O8 0.337749 0.250000 0.750000
O O9 0.319820 0.189214 0.630099
O O10 0.248773 0.128320 0.724596
O O11 0.339094 0.008331 0.725134
O O12 0.499830 0.906105 0.403071
O O13 0.593105 0.818065 0.438837
O O14 0.960564 0.835038 0.707241
O O15 0.387277 0.379903 0.613695
O O16 0.338659 0.250000 0.250000
#
# Coordination Sequence:
#
# PCOD9509312 Si02
#       8
#    16  16  16  16   4  16  16  16
#     4  11  22  39  65  94 129 167 211 261 329 381
#     4  11  22  36  62  92 124 167 206 256 313 377
#     4  10  23  43  72  95 125 169 220 267 329 398
#     4  11  19  38  62  91 123 165 204 257 311 374
#     4  12  28  40  58  80 124 180 198 266 300 356
#     4  12  23  40  57  90 129 163 219 256 306 366
#     4  11  22  37  65  96 123 164 214 267 317 381
#     4  10  23  47  67  94 130 170 213 271 332 393
#
# _framework density 21.877129
#
# number of rings (size 3 to 8) (size 9 to 14) (size 15 to 20)
#    0.000    1.103    5.517    2.069    0.966    1.655 
#    2.483    0.345    0.000    0.000    0.000    0.000 
#    0.000    0.000    0.000    0.000    0.000    0.000 
#
# Total GULP energy -323350.319500 kJ/mol
# GULP energy per Si atom -5575.005509 kJ/mol
# Density = 2.182734 g / cm^3
# Si number density = 21.877129 Si / 1000 Ang^3
#
#
#
# Elastic Constant Matrix: (Units=GPa)
#
#
# Indices 1 2 3 4 5 6 
#
# 1 14.1326 13.1213 0.8638 0.0000 0.0000 0.0000
# 2 13.1213 180.7058 54.3938 0.0000 0.0000 0.0000
# 3 0.8638 54.3938 75.1740 0.0000 0.0000 0.0000
# 4 0.0000 0.0000 0.0000 39.1197 0.0000 0.0000
# 5 0.0000 0.0000 0.0000 0.0000 13.2210 0.0000
# 6 0.0000 0.0000 0.0000 0.0000 0.0000 11.8044
#
#
#
# Elastic Compliance Matrix: (Units=1/GPa)
#
#
# Indices 1 2 3 4 5 6 
#
# 1 0.076817 -0.006791 0.004031 0.000000 0.000000 0.000000
# 2 -0.006791 0.007675 -0.005475 0.000000 0.000000 0.000000
# 3 0.004031 -0.005475 0.017218 0.000000 0.000000 0.000000
# 4 0.000000 0.000000 0.000000 0.025563 0.000000 0.000000
# 5 0.000000 0.000000 0.000000 0.000000 0.075637 0.000000
# 6 0.000000 0.000000 0.000000 0.000000 0.000000 0.084714
#
#
# Mechanical properties :
#
#
# Convention : Reuss Voigt Hill
#
# Bulk Modulus (GPa) = 11.73163 45.19668 28.46416
# Shear Modulus (GPa) = 15.03720 26.27126 20.65423
#
# Velocity S-wave (km/s) = 2.62458 3.46909 3.07596
# Velocity P-wave (km/s) = 3.81559 6.06221 5.06503
#
# Compressibility (1/GPa) = 0.08523961
#
# Stress axis : x y z
#
# Youngs Moduli (GPa) = 13.01789 130.29090 58.07859
#
# Poissons Ratio (x) = 0.88484 -0.23413
# Poissons Ratio (y) = 0.08841 0.31801
# Poissons Ratio (z) = -0.05248 0.71340
#
# Static dielectric constant tensor:
#      x y z
#    x 1.803040 0.000000 0.000000 
#    y 0.000000 1.899240 0.000000 
#    z 0.000000 0.000000 1.876020 
# 
# From -- ./inp_files/34171.got.cif
#   From: 2010.05.17/outbox.cif.g08.bks.cpg/sg68_18_cif.got.tgz:34171.got - 2010.06.03 18:57:09.
