data_PCOD9509605
_publ_section_title
;
Structure prediction by ZEFSAII (Michael W. Deem and Ramdas Pophale) SiO2 
 PCOD9509605
Probable space group: C C C A
;
_chemical_formula_sum "Si O2"
_cell_formula_units_Z 88
_cell_length_a 19.646446
_cell_length_b 23.733337
_cell_length_c 8.695472
_cell_angle_alpha 90.000000
_cell_angle_beta 90.000000
_cell_angle_gamma 90.000000
_cell_volume 4054.487500
_symmetry_space_group_name_H-M "C C C A"
_symmetry_group_IT_number 68
_space_group.IT_coordinate_system_code '2'
_symmetry_cell_setting 'orthorhombic'
loop_
_space_group_symop_operation_xyz
x,y,z
-x,1/2-y,z
x,1/2-y,1/2-z
-x,y,1/2-z
-x,-y,-z
x,1/2+y,-z
-x,1/2+y,1/2+z
x,-y,1/2+z
1/2+x,1/2+y,z
1/2-x,-y,z
1/2+x,-y,1/2-z
1/2-x,1/2+y,1/2-z
1/2-x,1/2-y,-z
1/2+x,y,-z
1/2-x,y,1/2+z
1/2+x,1/2-y,1/2+z
loop_
_atom_site_type_symbol
_atom_site_label
_atom_site_fract_x
_atom_site_fract_y
_atom_site_fract_z
Si Si1 0.309149 0.218763 0.097118
Si Si2 0.724371 0.438439 0.906150
Si Si3 0.930196 0.574285 0.959133
Si Si4 0.797390 0.872615 0.874059
Si Si5 0.000000 0.518083 0.250000
Si Si6 0.409410 0.189426 0.819449
O O1 0.334616 0.250000 0.250000
O O2 0.267462 0.334104 0.340494
O O3 0.250000 0.250000 0.000000
O O4 0.364901 0.205293 0.969593
O O5 0.750000 0.500000 0.935598
O O6 0.783290 0.394816 0.956518
O O7 0.651463 0.425400 0.983733
O O8 0.707789 0.428016 0.728961
O O9 0.948403 0.524663 0.837577
O O10 0.951270 0.635453 0.887150
O O11 0.966350 0.556565 0.117664
O O12 0.862514 0.838550 0.814885
O O13 0.432218 0.250000 0.750000
#
# Coordination Sequence:
#
# PCOD9509605 Si02
#       6
#    16  16  16  16   8  16
#     4  12  18  31  52  82 132 174 200 237 304 415
#     4  11  24  34  58  98 136 161 206 267 335 393
#     4  10  24  44  70  94 123 174 225 278 331 389
#     4  11  19  34  51  88 134 171 197 238 321 404
#     4  10  24  50  69  90 123 174 240 280 316 378
#     4  11  22  37  61  96 130 172 214 257 330 406
#
# _framework density 21.704346000000001
#
# number of rings (size 3 to 8) (size 9 to 14) (size 15 to 20)
#    0.000    1.091    7.273    0.545    7.636    0.000 
#    0.000    4.091    0.000    0.000    0.000    0.000 
#    0.000    0.000    0.000    0.000    0.000    0.000 
#
# Total GULP energy -245143.111509 kJ/mol
# GULP energy per Si atom -5571.434352 kJ/mol
# Density = 2.165495 g / cm^3
# Si number density = 21.704346 Si / 1000 Ang^3
#
#
#
# Elastic Constant Matrix: (Units=GPa)
#
#
# Indices 1 2 3 4 5 6 
#
# 1 57.5259 35.3904 42.8924 0.0000 0.0000 0.0000
# 2 35.3904 156.8813 60.5536 0.0000 0.0000 0.0000
# 3 42.8924 60.5536 109.2623 0.0000 0.0000 0.0000
# 4 0.0000 0.0000 0.0000 31.8708 0.0000 0.0000
# 5 0.0000 0.0000 0.0000 0.0000 9.1474 0.0000
# 6 0.0000 0.0000 0.0000 0.0000 0.0000 0.3958
#
#
#
# Elastic Compliance Matrix: (Units=1/GPa)
#
#
# Indices 1 2 3 4 5 6 
#
# 1 0.025257 -0.002380 -0.008596 0.000000 0.000000 0.000000
# 2 -0.002380 0.008333 -0.003684 0.000000 0.000000 0.000000
# 3 -0.008596 -0.003684 0.014569 0.000000 0.000000 0.000000
# 4 0.000000 0.000000 0.000000 0.031377 0.000000 0.000000
# 5 0.000000 0.000000 0.000000 0.000000 0.109320 0.000000
# 6 0.000000 0.000000 0.000000 0.000000 0.000000 2.526282
#
#
# Mechanical properties :
#
#
# Convention : Reuss Voigt Hill
#
# Bulk Modulus (GPa) = 53.08189 66.81581 59.94885
# Shear Modulus (GPa) = 1.81769 20.60503 11.21136
#
# Velocity S-wave (km/s) = 0.91613 3.08450 2.27524
# Velocity P-wave (km/s) = 5.06251 6.59825 5.88072
#
# Compressibility (1/GPa) = 0.01883882
#
# Stress axis : x y z
#
# Youngs Moduli (GPa) = 39.59315 120.00423 68.64120
#
# Poissons Ratio (x) = 0.28557 0.59005
# Poissons Ratio (y) = 0.09422 0.25288
# Poissons Ratio (z) = 0.34035 0.44210
#
# Static dielectric constant tensor:
#      x y z
#    x 1.845190 0.000000 0.000000 
#    y 0.000000 1.981930 0.000000 
#    z 0.000000 0.000000 1.748490 
# 
# From -- ./inp_files/8013.got.cif
#   From: 2010.05.17/outbox.cif.g08.bks.cpg/sg68_5_cif.got.tgz:8013.got - 2010.06.03 18:57:09.
