data_PCOD9509769
_publ_section_title
;
Structure prediction by ZEFSAII (Michael W. Deem and Ramdas Pophale) SiO2 
 PCOD9509769
Probable space group: C C C A
;
_chemical_formula_sum "Si O2"
_cell_formula_units_Z 64
_cell_length_a 8.725240
_cell_length_b 27.450809
_cell_length_c 10.261801
_cell_angle_alpha 90.000000
_cell_angle_beta 90.000000
_cell_angle_gamma 90.000000
_cell_volume 2457.854207
_symmetry_space_group_name_H-M "C C C A"
_symmetry_group_IT_number 68
_space_group.IT_coordinate_system_code '2'
_symmetry_cell_setting 'orthorhombic'
loop_
_space_group_symop_operation_xyz
x,y,z
-x,1/2-y,z
x,1/2-y,1/2-z
-x,y,1/2-z
-x,-y,-z
x,1/2+y,-z
-x,1/2+y,1/2+z
x,-y,1/2+z
1/2+x,1/2+y,z
1/2-x,-y,z
1/2+x,-y,1/2-z
1/2-x,1/2+y,1/2-z
1/2-x,1/2-y,-z
1/2+x,y,-z
1/2-x,y,1/2+z
1/2+x,1/2-y,1/2+z
loop_
_atom_site_type_symbol
_atom_site_label
_atom_site_fract_x
_atom_site_fract_y
_atom_site_fract_z
Si Si1 0.500000 0.855273 0.250000
Si Si2 0.773202 0.585204 0.376958
Si Si3 0.500000 0.489318 0.250000
Si Si4 0.500000 0.657581 0.750000
Si Si5 0.250000 0.000000 0.567667
Si Si6 0.775768 0.216256 0.373218
O O1 0.372208 0.888555 0.316015
O O2 0.586221 0.822754 0.360602
O O3 0.904217 0.626322 0.356736
O O4 0.718229 0.552443 0.498103
O O5 0.857811 0.542692 0.297140
O O6 0.412759 0.514858 0.366148
O O7 0.619729 0.688716 0.666131
O O8 0.808499 0.250000 0.250000
O O9 0.750000 0.250000 0.500000
#
# Coordination Sequence:
#
# PCOD9509769 Si02
#       6
#     8  16   8   8   8  16
#     4  10  25  52  80 129 158 206 283 347 407 509
#     4  10  24  51  79 113 165 209 264 339 409 478
#     4  11  26  47  75 119 149 216 276 321 398 499
#     4   9  23  51  79 124 160 206 284 344 409 506
#     4  12  26  50  82 108 168 220 266 328 410 486
#     4  11  25  51  84 115 166 219 280 341 431 498
#
# _framework density 26.038972000000001
#
# number of rings (size 3 to 8) (size 9 to 14) (size 15 to 20)
#    0.000    1.500    0.000    2.250    0.000   11.000 
#   45.000    8.750    0.000    0.000    0.000    0.000 
#    0.000    0.000    0.000    0.000    0.000    0.000 
#
# Total GULP energy -178749.714945 kJ/mol
# GULP energy per Si atom -5585.928592 kJ/mol
# Density = 2.597971 g / cm^3
# Si number density = 26.038972 Si / 1000 Ang^3
#
#
#
# Elastic Constant Matrix: (Units=GPa)
#
#
# Indices 1 2 3 4 5 6 
#
# 1 218.0270 105.0090 70.1052 0.0000 0.0000 0.0000
# 2 105.0090 147.6580 74.0840 0.0000 0.0000 0.0000
# 3 70.1052 74.0840 130.9469 0.0000 0.0000 0.0000
# 4 0.0000 0.0000 0.0000 26.9295 0.0000 0.0000
# 5 0.0000 0.0000 0.0000 0.0000 30.0074 0.0000
# 6 0.0000 0.0000 0.0000 0.0000 0.0000 53.9316
#
#
#
# Elastic Compliance Matrix: (Units=1/GPa)
#
#
# Indices 1 2 3 4 5 6 
#
# 1 0.007137 -0.004410 -0.001326 0.000000 0.000000 0.000000
# 2 -0.004410 0.012182 -0.004531 0.000000 0.000000 0.000000
# 3 -0.001326 -0.004531 0.010910 0.000000 0.000000 0.000000
# 4 0.000000 0.000000 0.000000 0.037134 0.000000 0.000000
# 5 0.000000 0.000000 0.000000 0.000000 0.033325 0.000000
# 6 0.000000 0.000000 0.000000 0.000000 0.000000 0.018542
#
#
# Mechanical properties :
#
#
# Convention : Reuss Voigt Hill
#
# Bulk Modulus (GPa) = 103.14715 110.55871 106.85293
# Shear Modulus (GPa) = 34.96592 38.66928 36.81760
#
# Velocity S-wave (km/s) = 3.66844 3.85782 3.76432
# Velocity P-wave (km/s) = 7.59222 7.89904 7.74715
#
# Compressibility (1/GPa) = 0.00969489
#
# Stress axis : x y z
#
# Youngs Moduli (GPa) = 140.11266 82.08634 91.66014
#
# Poissons Ratio (x) = 0.36204 0.12152
# Poissons Ratio (y) = 0.61797 0.41531
# Poissons Ratio (z) = 0.18575 0.37193
#
# Static dielectric constant tensor:
#      x y z
#    x 2.026710 0.000000 0.000000 
#    y 0.000000 1.718120 0.000000 
#    z 0.000000 0.000000 2.532690 
# 
# From -- ./inp_files/10840.got.cif
#   From: 2010.05.17/outbox.cif.g08.bks.cpg/sg68_6_cif.got.tgz:10840.got - 2010.06.03 18:57:09.
