data_PCOD9509479
_publ_section_title
;
Structure prediction by ZEFSAII (Michael W. Deem and Ramdas Pophale) SiO2 
 PCOD9509479
Probable space group: C C C A
;
_chemical_formula_sum "Si O2"
_cell_formula_units_Z 88
_cell_length_a 18.481846
_cell_length_b 9.265160
_cell_length_c 21.378815
_cell_angle_alpha 90.000000
_cell_angle_beta 90.000000
_cell_angle_gamma 90.000000
_cell_volume 3660.849709
_symmetry_space_group_name_H-M "C C C A"
_symmetry_group_IT_number 68
_space_group.IT_coordinate_system_code '2'
_symmetry_cell_setting 'orthorhombic'
loop_
_space_group_symop_operation_xyz
x,y,z
-x,1/2-y,z
x,1/2-y,1/2-z
-x,y,1/2-z
-x,-y,-z
x,1/2+y,-z
-x,1/2+y,1/2+z
x,-y,1/2+z
1/2+x,1/2+y,z
1/2-x,-y,z
1/2+x,-y,1/2-z
1/2-x,1/2+y,1/2-z
1/2-x,1/2-y,-z
1/2+x,y,-z
1/2-x,y,1/2+z
1/2+x,1/2-y,1/2+z
loop_
_atom_site_type_symbol
_atom_site_label
_atom_site_fract_x
_atom_site_fract_y
_atom_site_fract_z
Si Si1 0.250000 0.000000 0.186234
Si Si2 0.116361 0.363675 0.296626
Si Si3 0.500000 0.250000 0.139643
Si Si4 0.865058 0.551731 0.479032
Si Si5 0.344563 0.672256 0.914000
Si Si6 0.000000 0.570261 0.250000
Si Si7 0.579969 0.230599 0.580802
O O1 0.306453 0.913796 0.227305
O O2 0.200344 0.894513 0.143267
O O3 0.084125 0.250000 0.250000
O O4 0.059672 0.490485 0.290859
O O5 0.128985 0.296914 0.364838
O O6 0.567794 0.313879 0.100049
O O7 0.539862 0.151598 0.192617
O O8 0.831326 0.442021 0.529694
O O9 0.821243 0.667373 0.437183
O O10 0.912117 0.663303 0.521252
O O11 0.906382 0.435871 0.435714
O O12 0.500000 0.250000 0.606657
#
# Coordination Sequence:
#
# PCOD9509479 Si02
#       7
#     8  16   8  16  16   8  16
#     4  12  26  52  68 100 152 190 252 310 374 454
#     4  12  27  46  72 102 142 192 242 308 368 445
#     4  11  24  40  76 104 144 186 247 312 380 444
#     4  10  24  40  69 107 142 193 240 304 370 445
#     4  11  25  44  70 103 146 192 242 310 371 446
#     4  11  23  46  72 106 135 193 244 306 378 448
#     4  11  22  41  68 110 145 183 239 304 370 438
#
# _framework density 24.038133999999999
#
# number of rings (size 3 to 8) (size 9 to 14) (size 15 to 20)
#    0.000    0.909    3.636    1.909   12.727    2.182 
#    0.000    0.000    0.000    0.000    0.000    0.000 
#    0.000    0.000    0.000    0.000    0.000    0.000 
#
# Total GULP energy -245315.413804 kJ/mol
# GULP energy per Si atom -5575.350314 kJ/mol
# Density = 2.398342 g / cm^3
# Si number density = 24.038134 Si / 1000 Ang^3
#
#
#
# Elastic Constant Matrix: (Units=GPa)
#
#
# Indices 1 2 3 4 5 6 
#
# 1 73.3885 16.3378 3.5802 0.0000 0.0000 0.0000
# 2 16.3378 149.0426 35.4168 0.0000 0.0000 0.0000
# 3 3.5802 35.4168 77.9656 0.0000 0.0000 0.0000
# 4 0.0000 0.0000 0.0000 31.6060 0.0000 0.0000
# 5 0.0000 0.0000 0.0000 0.0000 23.5445 0.0000
# 6 0.0000 0.0000 0.0000 0.0000 0.0000 10.2834
#
#
#
# Elastic Compliance Matrix: (Units=1/GPa)
#
#
# Indices 1 2 3 4 5 6 
#
# 1 0.013967 -0.001545 0.000061 0.000000 0.000000 0.000000
# 2 -0.001545 0.007692 -0.003423 0.000000 0.000000 0.000000
# 3 0.000061 -0.003423 0.014378 0.000000 0.000000 0.000000
# 4 0.000000 0.000000 0.000000 0.031640 0.000000 0.000000
# 5 0.000000 0.000000 0.000000 0.000000 0.042473 0.000000
# 6 0.000000 0.000000 0.000000 0.000000 0.000000 0.097245
#
#
# Mechanical properties :
#
#
# Convention : Reuss Voigt Hill
#
# Bulk Modulus (GPa) = 38.13632 45.67402 41.90517
# Shear Modulus (GPa) = 22.12859 29.42422 25.77641
#
# Velocity S-wave (km/s) = 3.03737 3.50246 3.27817
# Velocity P-wave (km/s) = 5.31038 5.94964 5.63908
#
# Compressibility (1/GPa) = 0.02622172
#
# Stress axis : x y z
#
# Youngs Moduli (GPa) = 71.59624 129.99842 69.54831
#
# Poissons Ratio (x) = 0.20091 -0.00422
# Poissons Ratio (y) = 0.11065 0.23809
# Poissons Ratio (z) = -0.00434 0.44504
#
# Static dielectric constant tensor:
#      x y z
#    x 1.921640 0.000000 0.000000 
#    y 0.000000 4.305850 0.000000 
#    z 0.000000 0.000000 1.885100 
# 
# From -- ./inp_files/46544.got.cif
#   From: 2010.05.17/outbox.cif.g08.bks.cpg/sg68_24_cif.got.tgz:46544.got - 2010.06.03 18:57:09.
