data_PCOD9509096
_publ_section_title
;
Structure prediction by ZEFSAII (Michael W. Deem and Ramdas Pophale) SiO2 
 PCOD9509096
Probable space group: C C C A
;
_chemical_formula_sum "Si O2"
_cell_formula_units_Z 80
_cell_length_a 17.072840
_cell_length_b 9.473313
_cell_length_c 23.750983
_cell_angle_alpha 90.000000
_cell_angle_beta 90.000000
_cell_angle_gamma 90.000000
_cell_volume 3841.397468
_symmetry_space_group_name_H-M "C C C A"
_symmetry_group_IT_number 68
_space_group.IT_coordinate_system_code '2'
_symmetry_cell_setting 'orthorhombic'
loop_
_space_group_symop_operation_xyz
x,y,z
-x,1/2-y,z
x,1/2-y,1/2-z
-x,y,1/2-z
-x,-y,-z
x,1/2+y,-z
-x,1/2+y,1/2+z
x,-y,1/2+z
1/2+x,1/2+y,z
1/2-x,-y,z
1/2+x,-y,1/2-z
1/2-x,1/2+y,1/2-z
1/2-x,1/2-y,-z
1/2+x,y,-z
1/2-x,y,1/2+z
1/2+x,1/2-y,1/2+z
loop_
_atom_site_type_symbol
_atom_site_label
_atom_site_fract_x
_atom_site_fract_y
_atom_site_fract_z
Si Si1 0.344354 0.400077 0.303324
Si Si2 0.425262 0.320898 0.124735
Si Si3 0.763536 0.834722 0.057059
Si Si4 0.177611 0.692558 0.840871
Si Si5 0.574368 0.564817 0.291634
O O1 0.405253 0.282842 0.322668
O O2 0.258726 0.331053 0.306597
O O3 0.349565 0.530795 0.347463
O O4 0.362700 0.474481 0.244474
O O5 0.500000 0.250000 0.096008
O O6 0.349633 0.319767 0.084854
O O7 0.441848 0.472884 0.152469
O O8 0.703499 0.771547 0.102929
O O9 0.750000 0.000000 0.048337
O O10 0.750000 0.750000 0.000000
O O11 0.113523 0.788433 0.810115
O O12 0.500000 0.575755 0.250000
#
# Coordination Sequence:
#
# PCOD9509096 Si02
#       5
#    16  16  16  16  16
#     4  10  23  37  65  95 140 186 223 268 347 429
#     4  11  23  44  67 101 139 181 230 286 359 430
#     4  11  25  46  76  96 129 180 243 306 357 411
#     4  10  24  43  62  99 135 179 234 291 334 424
#     4  12  23  41  66 104 146 190 227 279 358 426
#
# _framework density 20.825754
#
# number of rings (size 3 to 8) (size 9 to 14) (size 15 to 20)
#    0.000    1.200    4.000    1.200    5.600   12.800 
#    0.000    1.000    4.400    0.000    0.000    0.000 
#    0.000    0.000    0.000    0.000    0.000    0.000 
#
# Total GULP energy -223606.854141 kJ/mol
# GULP energy per Si atom -5590.171354 kJ/mol
# Density = 2.077835 g / cm^3
# Si number density = 20.825754 Si / 1000 Ang^3
#
#
#
# Elastic Constant Matrix: (Units=GPa)
#
#
# Indices 1 2 3 4 5 6 
#
# 1 101.9679 45.3471 42.6206 0.0000 0.0000 0.0000
# 2 45.3471 161.0587 53.0036 0.0000 0.0000 0.0000
# 3 42.6206 53.0036 110.8634 0.0000 0.0000 0.0000
# 4 0.0000 0.0000 0.0000 35.0219 0.0000 0.0000
# 5 0.0000 0.0000 0.0000 0.0000 22.0458 0.0000
# 6 0.0000 0.0000 0.0000 0.0000 0.0000 37.0736
#
#
#
# Elastic Compliance Matrix: (Units=1/GPa)
#
#
# Indices 1 2 3 4 5 6 
#
# 1 0.012347 -0.002272 -0.003661 0.000000 0.000000 0.000000
# 2 -0.002272 0.007786 -0.002849 0.000000 0.000000 0.000000
# 3 -0.003661 -0.002849 0.011790 0.000000 0.000000 0.000000
# 4 0.000000 0.000000 0.000000 0.028554 0.000000 0.000000
# 5 0.000000 0.000000 0.000000 0.000000 0.045360 0.000000
# 6 0.000000 0.000000 0.000000 0.000000 0.000000 0.026973
#
#
# Mechanical properties :
#
#
# Convention : Reuss Voigt Hill
#
# Bulk Modulus (GPa) = 69.63862 72.87030 71.25446
# Shear Modulus (GPa) = 32.22472 34.35617 33.29044
#
# Velocity S-wave (km/s) = 3.93790 4.06605 4.00249
# Velocity P-wave (km/s) = 7.36121 7.55712 7.45981
#
# Compressibility (1/GPa) = 0.01435985
#
# Stress axis : x y z
#
# Youngs Moduli (GPa) = 80.98847 128.43226 84.82006
#
# Poissons Ratio (x) = 0.29177 0.31051
# Poissons Ratio (y) = 0.18399 0.24167
# Poissons Ratio (z) = 0.29648 0.36593
#
# Static dielectric constant tensor:
#      x y z
#    x 1.808800 0.000000 0.000000 
#    y 0.000000 1.777980 0.000000 
#    z 0.000000 0.000000 1.738510 
# 
# From -- ./inp_files/51311.got.cif
#   From: 2010.05.17/outbox.cif.g08.bks.cpg/sg68_26_cif.got.tgz:51311.got - 2010.06.03 18:57:09.
