data_PCOD9509843
_publ_section_title
;
Structure prediction by ZEFSAII (Michael W. Deem and Ramdas Pophale) SiO2 
 PCOD9509843
Probable space group: C C C A
;
_chemical_formula_sum "Si O2"
_cell_formula_units_Z 24
_cell_length_a 11.870410
_cell_length_b 7.042650
_cell_length_c 11.465966
_cell_angle_alpha 90.000000
_cell_angle_beta 90.000000
_cell_angle_gamma 90.000000
_cell_volume 958.544931
_symmetry_space_group_name_H-M "C C C A"
_symmetry_group_IT_number 68
_space_group.IT_coordinate_system_code '2'
_symmetry_cell_setting 'orthorhombic'
loop_
_space_group_symop_operation_xyz
x,y,z
-x,1/2-y,z
x,1/2-y,1/2-z
-x,y,1/2-z
-x,-y,-z
x,1/2+y,-z
-x,1/2+y,1/2+z
x,-y,1/2+z
1/2+x,1/2+y,z
1/2-x,-y,z
1/2+x,-y,1/2-z
1/2-x,1/2+y,1/2-z
1/2-x,1/2-y,-z
1/2+x,y,-z
1/2-x,y,1/2+z
1/2+x,1/2-y,1/2+z
loop_
_atom_site_type_symbol
_atom_site_label
_atom_site_fract_x
_atom_site_fract_y
_atom_site_fract_z
Si Si1 0.870307 0.600106 0.355311
Si Si2 0.500000 0.250000 0.564220
O O1 0.879143 0.750000 0.250000
O O2 0.750000 0.500000 0.347970
O O3 0.962743 0.432368 0.363897
O O4 0.895585 0.705946 0.477530
#
# Coordination Sequence:
#
# PCOD9509843 Si02
#       2
#    16   8
#     4  11  25  45  75 109 143 190 245 300 361 432
#     4  10  25  50  73 104 148 194 240 298 366 432
#
# _framework density 25.037952000000001
#
# number of rings (size 3 to 8) (size 9 to 14) (size 15 to 20)
#    0.000    1.333    0.000    3.000    0.000   18.667 
#    0.000    3.333    0.000    0.000    0.000    0.000 
#    0.000    0.000    0.000    0.000    0.000    0.000 
#
# Total GULP energy -67216.900982 kJ/mol
# GULP energy per Si atom -5601.408415 kJ/mol
# Density = 2.498096 g / cm^3
# Si number density = 25.037952 Si / 1000 Ang^3
#
#
#
# Elastic Constant Matrix: (Units=GPa)
#
#
# Indices 1 2 3 4 5 6 
#
# 1 144.6770 84.2232 97.9279 0.0000 0.0000 0.0000
# 2 84.2232 220.5850 135.1635 0.0000 0.0000 0.0000
# 3 97.9279 135.1635 215.5844 0.0000 0.0000 0.0000
# 4 0.0000 0.0000 0.0000 51.4421 0.0000 0.0000
# 5 0.0000 0.0000 0.0000 0.0000 -29.0743 0.0000
# 6 0.0000 0.0000 0.0000 0.0000 0.0000 61.1532
#
#
#
# Elastic Compliance Matrix: (Units=1/GPa)
#
#
# Indices 1 2 3 4 5 6 
#
# 1 0.010378 -0.001744 -0.003621 0.000000 0.000000 0.000000
# 2 -0.001744 0.007654 -0.004007 0.000000 0.000000 0.000000
# 3 -0.003621 -0.004007 0.008795 0.000000 0.000000 0.000000
# 4 0.000000 0.000000 0.000000 0.019439 0.000000 0.000000
# 5 0.000000 0.000000 0.000000 0.000000 -0.034395 0.000000
# 6 0.000000 0.000000 0.000000 0.000000 0.000000 0.016352
#
#
# Mechanical properties :
#
#
# Convention : Reuss Voigt Hill
#
# Bulk Modulus (GPa) = 123.68974 135.05286 129.37130
# Shear Modulus (GPa) = 100.67836 34.27297 67.47567
#
# Velocity S-wave (km/s) = 6.34804 3.70380 5.19691
# Velocity P-wave (km/s) = 10.16062 8.50572 9.36978
#
# Compressibility (1/GPa) = 0.00808474
#
# Stress axis : x y z
#
# Youngs Moduli (GPa) = 96.35836 130.64230 113.69456
#
# Poissons Ratio (x) = 0.22782 0.41166
# Poissons Ratio (y) = 0.16803 0.45557
# Poissons Ratio (z) = 0.34889 0.52348
#
# Static dielectric constant tensor:
#      x y z
#    x 1.984040 0.000000 0.000000 
#    y 0.000000 1.702050 0.000000 
#    z 0.000000 0.000000 2.007350 
# 
# From -- ./inp_files/3073.got.cif
#   From: 2010.05.17/outbox.cif.g08.bks.cpg/sg68_2_cif.got.tgz:3073.got - 2010.06.03 18:57:09.
