data_PCOD9509008
_publ_section_title
;
Structure prediction by ZEFSAII (Michael W. Deem and Ramdas Pophale) SiO2 
 PCOD9509008
Probable space group: C C C A
;
_chemical_formula_sum "Si O2"
_cell_formula_units_Z 52
_cell_length_a 25.832931
_cell_length_b 5.564414
_cell_length_c 17.445536
_cell_angle_alpha 90.000000
_cell_angle_beta 90.000000
_cell_angle_gamma 90.000000
_cell_volume 2507.710717
_symmetry_space_group_name_H-M "C C C A"
_symmetry_group_IT_number 68
_space_group.IT_coordinate_system_code '2'
_symmetry_cell_setting 'orthorhombic'
loop_
_space_group_symop_operation_xyz
x,y,z
-x,1/2-y,z
x,1/2-y,1/2-z
-x,y,1/2-z
-x,-y,-z
x,1/2+y,-z
-x,1/2+y,1/2+z
x,-y,1/2+z
1/2+x,1/2+y,z
1/2-x,-y,z
1/2+x,-y,1/2-z
1/2-x,1/2+y,1/2-z
1/2-x,1/2-y,-z
1/2+x,y,-z
1/2-x,y,1/2+z
1/2+x,1/2-y,1/2+z
loop_
_atom_site_type_symbol
_atom_site_label
_atom_site_fract_x
_atom_site_fract_y
_atom_site_fract_z
Si Si1 0.664777 0.750000 0.250000
Si Si2 0.500000 0.250000 0.250000
Si Si3 0.173652 0.741462 0.046752
Si Si4 0.099670 0.890173 0.174476
Si Si5 0.750000 0.000000 0.650764
O O1 0.627436 0.643398 0.184654
O O2 0.703636 0.580173 0.295368
O O3 0.538613 0.394933 0.193397
O O4 0.122453 0.761466 0.100387
O O5 0.225227 0.711279 0.098940
O O6 0.173702 0.490279 0.000265
O O7 0.119300 0.750000 0.250000
#
# Coordination Sequence:
#
# PCOD9509008 Si02
#       5
#     8   4  16  16   8
#     4  12  22  40  70  98 134 172 238 284 322 378
#     4   8  20  44  72  96 118 162 242 282 336 396
#     4  12  26  43  63  99 143 180 218 275 342 410
#     4  10  22  45  67  94 126 170 227 284 326 396
#     4  12  22  40  62  98 132 188 224 270 324 412
#
# _framework density 20.736044
#
# number of rings (size 3 to 8) (size 9 to 14) (size 15 to 20)
#    0.923    0.000    3.077    4.615    0.000    3.077 
#    0.000    1.538    0.000    0.000    0.000    0.000 
#    0.000    0.000    0.000    0.000    0.000    0.000 
#
# Total GULP energy -144867.361526 kJ/mol
# GULP energy per Si atom -5571.821597 kJ/mol
# Density = 2.068885 g / cm^3
# Si number density = 20.736044 Si / 1000 Ang^3
#
#
#
# Elastic Constant Matrix: (Units=GPa)
#
#
# Indices 1 2 3 4 5 6 
#
# 1 173.7284 53.3515 40.7430 0.0000 0.0000 0.0000
# 2 53.3515 102.7822 47.2220 0.0000 0.0000 0.0000
# 3 40.7430 47.2220 79.0169 0.0000 0.0000 0.0000
# 4 0.0000 0.0000 0.0000 31.7425 0.0000 0.0000
# 5 0.0000 0.0000 0.0000 0.0000 -63.0741 0.0000
# 6 0.0000 0.0000 0.0000 0.0000 0.0000 16.4701
#
#
#
# Elastic Compliance Matrix: (Units=1/GPa)
#
#
# Indices 1 2 3 4 5 6 
#
# 1 0.007070 -0.002750 -0.002002 0.000000 0.000000 0.000000
# 2 -0.002750 0.014482 -0.007236 0.000000 0.000000 0.000000
# 3 -0.002002 -0.007236 0.018012 0.000000 0.000000 0.000000
# 4 0.000000 0.000000 0.000000 0.031503 0.000000 0.000000
# 5 0.000000 0.000000 0.000000 0.000000 -0.015854 0.000000
# 6 0.000000 0.000000 0.000000 0.000000 0.000000 0.060716
#
#
# Mechanical properties :
#
#
# Convention : Reuss Voigt Hill
#
# Bulk Modulus (GPa) = 64.15599 70.90673 67.53136
# Shear Modulus (GPa) = 34.45848 11.30844 22.88346
#
# Velocity S-wave (km/s) = 4.08090 2.33781 3.32559
# Velocity P-wave (km/s) = 7.29462 6.44642 6.88360
#
# Compressibility (1/GPa) = 0.01558701
#
# Stress axis : x y z
#
# Youngs Moduli (GPa) = 141.43898 69.05354 55.51727
#
# Poissons Ratio (x) = 0.18991 0.11115
# Poissons Ratio (y) = 0.38898 0.40174
# Poissons Ratio (z) = 0.28316 0.49970
#
# Static dielectric constant tensor:
#      x y z
#    x 1.722090 0.000000 0.000000 
#    y 0.000000 1.967470 0.000000 
#    z 0.000000 0.000000 1.804550 
# 
# From -- ./inp_files/26959.got.cif
#   From: 2010.05.17/outbox.cif.g08.bks.cpg/sg68_14_cif.got.tgz:26959.got - 2010.06.03 18:57:09.
