data_PCOD9509355
_publ_section_title
;
Structure prediction by ZEFSAII (Michael W. Deem and Ramdas Pophale) SiO2 
 PCOD9509355
Probable space group: C C C A
;
_chemical_formula_sum "Si O2"
_cell_formula_units_Z 64
_cell_length_a 16.911957
_cell_length_b 16.883560
_cell_length_c 8.975866
_cell_angle_alpha 90.000000
_cell_angle_beta 90.000000
_cell_angle_gamma 90.000000
_cell_volume 2562.915288
_symmetry_space_group_name_H-M "C C C A"
_symmetry_group_IT_number 68
_space_group.IT_coordinate_system_code '2'
_symmetry_cell_setting 'orthorhombic'
loop_
_space_group_symop_operation_xyz
x,y,z
-x,1/2-y,z
x,1/2-y,1/2-z
-x,y,1/2-z
-x,-y,-z
x,1/2+y,-z
-x,1/2+y,1/2+z
x,-y,1/2+z
1/2+x,1/2+y,z
1/2-x,-y,z
1/2+x,-y,1/2-z
1/2-x,1/2+y,1/2-z
1/2-x,1/2-y,-z
1/2+x,y,-z
1/2-x,y,1/2+z
1/2+x,1/2-y,1/2+z
loop_
_atom_site_type_symbol
_atom_site_label
_atom_site_fract_x
_atom_site_fract_y
_atom_site_fract_z
Si Si1 0.814149 0.849337 0.515762
Si Si2 0.845255 0.381128 0.150727
Si Si3 0.089852 0.944215 0.192300
Si Si4 0.883902 0.698607 0.383552
O O1 0.820796 0.842738 0.692651
O O2 0.734734 0.887571 0.448713
O O3 0.889555 0.902637 0.464384
O O4 0.821934 0.764899 0.434128
O O5 0.878470 0.467671 0.185531
O O6 0.908420 0.332301 0.048492
O O7 0.134449 0.884385 0.304012
O O8 0.000000 0.941688 0.250000
O O9 0.923993 0.750000 0.250000
#
# Coordination Sequence:
#
# PCOD9509355 Si02
#       4
#    16  16  16  16
#     4  11  24  42  70 104 142 188 240 299 358 425
#     4  12  24  44  71 106 143 183 241 298 360 430
#     4  11  26  47  70 102 147 193 236 291 360 431
#     4  10  23  44  71 101 139 185 233 292 358 423
#
# _framework density 24.971563
#
# number of rings (size 3 to 8) (size 9 to 14) (size 15 to 20)
#    0.000    1.000    0.000    6.750    0.000   12.500 
#    0.000    0.000    0.000    7.500    0.000    0.000 
#    0.000    0.000    0.000    0.000    0.000    0.000 
#
# Total GULP energy -178358.272173 kJ/mol
# GULP energy per Si atom -5573.696005 kJ/mol
# Density = 2.491473 g / cm^3
# Si number density = 24.971563 Si / 1000 Ang^3
#
#
#
# Elastic Constant Matrix: (Units=GPa)
#
#
# Indices 1 2 3 4 5 6 
#
# 1 99.4069 67.3948 63.2725 0.0000 0.0000 0.0000
# 2 67.3948 172.5756 68.1344 0.0000 0.0000 0.0000
# 3 63.2725 68.1344 235.1557 0.0000 0.0000 0.0000
# 4 0.0000 0.0000 0.0000 30.0446 0.0000 0.0000
# 5 0.0000 0.0000 0.0000 0.0000 -4.9548 0.0000
# 6 0.0000 0.0000 0.0000 0.0000 0.0000 108.2264
#
#
#
# Elastic Compliance Matrix: (Units=1/GPa)
#
#
# Indices 1 2 3 4 5 6 
#
# 1 0.015008 -0.004818 -0.002642 0.000000 0.000000 0.000000
# 2 -0.004818 0.008090 -0.001048 0.000000 0.000000 0.000000
# 3 -0.002642 -0.001048 0.005267 0.000000 0.000000 0.000000
# 4 0.000000 0.000000 0.000000 0.033284 0.000000 0.000000
# 5 0.000000 0.000000 0.000000 0.000000 -0.201825 0.000000
# 6 0.000000 0.000000 0.000000 0.000000 0.000000 0.009240
#
#
# Mechanical properties :
#
#
# Convention : Reuss Voigt Hill
#
# Bulk Modulus (GPa) = 88.11151 100.52685 94.31918
# Shear Modulus (GPa) = -45.39729 47.21901 0.91086
#
# Velocity S-wave (km/s) = -4.26838 4.35318 0.60461
# Velocity P-wave (km/s) = 3.32705 8.10005 6.19193
#
# Compressibility (1/GPa) = 0.01134926
#
# Stress axis : x y z
#
# Youngs Moduli (GPa) = 66.63275 123.61582 189.86288
#
# Poissons Ratio (x) = 0.59554 0.50165
# Poissons Ratio (y) = 0.32101 0.19890
# Poissons Ratio (z) = 0.17606 0.12950
#
# Static dielectric constant tensor:
#      x y z
#    x 2.111700 0.000000 0.000000 
#    y 0.000000 1.958710 0.000000 
#    z 0.000000 0.000000 2.058110 
# 
# From -- ./inp_files/6768.got.cif
#   From: 2010.05.17/outbox.cif.g08.bks.cpg/sg68_4_cif.got.tgz:6768.got - 2010.06.03 18:57:09.
