data_PCOD9509465
_publ_section_title
;
Structure prediction by ZEFSAII (Michael W. Deem and Ramdas Pophale) SiO2 
 PCOD9509465
Probable space group: C C C A
;
_chemical_formula_sum "Si O2"
_cell_formula_units_Z 72
_cell_length_a 14.810499
_cell_length_b 16.953324
_cell_length_c 10.230141
_cell_angle_alpha 90.000000
_cell_angle_beta 90.000000
_cell_angle_gamma 90.000000
_cell_volume 2568.657338
_symmetry_space_group_name_H-M "C C C A"
_symmetry_group_IT_number 68
_space_group.IT_coordinate_system_code '2'
_symmetry_cell_setting 'orthorhombic'
loop_
_space_group_symop_operation_xyz
x,y,z
-x,1/2-y,z
x,1/2-y,1/2-z
-x,y,1/2-z
-x,-y,-z
x,1/2+y,-z
-x,1/2+y,1/2+z
x,-y,1/2+z
1/2+x,1/2+y,z
1/2-x,-y,z
1/2+x,-y,1/2-z
1/2-x,1/2+y,1/2-z
1/2-x,1/2-y,-z
1/2+x,y,-z
1/2-x,y,1/2+z
1/2+x,1/2-y,1/2+z
loop_
_atom_site_type_symbol
_atom_site_label
_atom_site_fract_x
_atom_site_fract_y
_atom_site_fract_z
Si Si1 0.396114 0.600552 0.095292
Si Si2 0.397445 0.837191 0.794239
Si Si3 0.885600 0.016687 0.839688
Si Si4 0.203498 0.866840 0.540767
Si Si5 0.369707 0.750000 0.250000
O O1 0.411064 0.534599 0.208680
O O2 0.294426 0.622225 0.044062
O O3 0.422344 0.684505 0.161009
O O4 0.435979 0.561034 0.962727
O O5 0.377892 0.750000 0.750000
O O6 0.500000 0.854144 0.750000
O O7 0.377151 0.840607 0.944785
O O8 0.340934 0.906778 0.726993
O O9 0.826761 0.952040 0.911289
O O10 0.193296 0.802395 0.654473
#
# Coordination Sequence:
#
# PCOD9509465 Si02
#       5
#    16  16  16  16   8
#     4  11  24  39  68 104 141 179 226 283 363 417
#     4  11  26  46  68  94 135 185 240 284 344 414
#     4  11  24  42  68 100 139 179 226 290 346 427
#     4  11  24  40  68 102 139 181 229 287 353 421
#     4  10  24  40  64 105 145 180 230 282 360 426
#
# _framework density 28.030208999999999
#
# number of rings (size 3 to 8) (size 9 to 14) (size 15 to 20)
#    0.000    1.111    2.222    2.667   10.889    0.889 
#    0.000    0.000    0.000    1.333    0.000    0.000 
#    0.000    0.000    0.000    0.000    0.000    0.000 
#
# Total GULP energy -201096.821008 kJ/mol
# GULP energy per Si atom -5586.022806 kJ/mol
# Density = 2.796641 g / cm^3
# Si number density = 28.030209 Si / 1000 Ang^3
#
#
#
# Elastic Constant Matrix: (Units=GPa)
#
#
# Indices 1 2 3 4 5 6 
#
# 1 85.7414 42.8201 51.4744 0.0000 0.0000 0.0000
# 2 42.8201 283.2153 126.7012 0.0000 0.0000 0.0000
# 3 51.4744 126.7012 221.1636 0.0000 0.0000 0.0000
# 4 0.0000 0.0000 0.0000 92.1393 0.0000 0.0000
# 5 0.0000 0.0000 0.0000 0.0000 24.1173 0.0000
# 6 0.0000 0.0000 0.0000 0.0000 0.0000 33.5422
#
#
#
# Elastic Compliance Matrix: (Units=1/GPa)
#
#
# Indices 1 2 3 4 5 6 
#
# 1 0.013714 -0.000868 -0.002695 0.000000 0.000000 0.000000
# 2 -0.000868 0.004803 -0.002549 0.000000 0.000000 0.000000
# 3 -0.002695 -0.002549 0.006609 0.000000 0.000000 0.000000
# 4 0.000000 0.000000 0.000000 0.010853 0.000000 0.000000
# 5 0.000000 0.000000 0.000000 0.000000 0.041464 0.000000
# 6 0.000000 0.000000 0.000000 0.000000 0.000000 0.029813
#
#
# Mechanical properties :
#
#
# Convention : Reuss Voigt Hill
#
# Bulk Modulus (GPa) = 77.50699 114.67907 96.09303
# Shear Modulus (GPa) = 40.39398 54.56806 47.48102
#
# Velocity S-wave (km/s) = 3.80028 4.41700 4.12019
# Velocity P-wave (km/s) = 6.85328 8.18625 7.54924
#
# Compressibility (1/GPa) = 0.01290206
#
# Stress axis : x y z
#
# Youngs Moduli (GPa) = 72.91729 208.22071 151.30520
#
# Poissons Ratio (x) = 0.18073 0.40771
# Poissons Ratio (y) = 0.06329 0.38572
# Poissons Ratio (z) = 0.19648 0.53082
#
# Static dielectric constant tensor:
#      x y z
#    x 2.222850 0.000000 0.000000 
#    y 0.000000 2.043480 0.000000 
#    z 0.000000 0.000000 2.267510 
# 
# From -- ./inp_files/7845.got.cif
#   From: 2010.05.17/outbox.cif.g08.bks.cpg/sg68_4_cif.got.tgz:7845.got - 2010.06.03 18:57:09.
