data_PCOD9509257
_publ_section_title
;
Structure prediction by ZEFSAII (Michael W. Deem and Ramdas Pophale) SiO2 
 PCOD9509257
Probable space group: C C C A
;
_chemical_formula_sum "Si O2"
_cell_formula_units_Z 64
_cell_length_a 14.755144
_cell_length_b 5.214140
_cell_length_c 32.599979
_cell_angle_alpha 90.000000
_cell_angle_beta 90.000000
_cell_angle_gamma 90.000000
_cell_volume 2508.091985
_symmetry_space_group_name_H-M "C C C A"
_symmetry_group_IT_number 68
_space_group.IT_coordinate_system_code '2'
_symmetry_cell_setting 'orthorhombic'
loop_
_space_group_symop_operation_xyz
x,y,z
-x,1/2-y,z
x,1/2-y,1/2-z
-x,y,1/2-z
-x,-y,-z
x,1/2+y,-z
-x,1/2+y,1/2+z
x,-y,1/2+z
1/2+x,1/2+y,z
1/2-x,-y,z
1/2+x,-y,1/2-z
1/2-x,1/2+y,1/2-z
1/2-x,1/2-y,-z
1/2+x,y,-z
1/2-x,y,1/2+z
1/2+x,1/2-y,1/2+z
loop_
_atom_site_type_symbol
_atom_site_label
_atom_site_fract_x
_atom_site_fract_y
_atom_site_fract_z
Si Si1 0.853397 0.396557 0.364580
Si Si2 0.360723 0.498551 0.225145
Si Si3 0.633609 0.614090 0.527794
Si Si4 0.000000 0.750000 0.570946
Si Si5 0.750000 0.000000 0.395514
O O1 0.750000 0.500000 0.372001
O O2 0.891077 0.495121 0.322044
O O3 0.923879 0.388032 0.401432
O O4 0.826339 0.097018 0.364076
O O5 0.388827 0.250000 0.250000
O O6 0.250000 0.500000 0.222757
O O7 0.388186 0.750000 0.250000
O O8 0.652811 0.874329 0.503035
O O9 0.540138 0.484604 0.544550
O O10 0.690727 0.644881 0.569685
#
# Coordination Sequence:
#
# PCOD9509257 Si02
#       5
#    16  16  16   8   8
#     4  10  23  42  70  99 142 181 237 296 355 432
#     4   9  19  36  64  98 130 174 223 272 342 416
#     4  11  24  44  67  96 141 187 236 299 363 428
#     4  10  24  46  67 104 134 188 238 294 359 432
#     4  10  24  38  68 104 136 184 244 296 360 426
#
# _framework density 25.517403000000002
#
# number of rings (size 3 to 8) (size 9 to 14) (size 15 to 20)
#    0.000    2.000    0.000    1.500   15.750    0.000 
#    4.500    0.625    0.000    1.500    0.000    0.000 
#    0.000    0.000    0.000    0.000    0.000    0.000 
#
# Total GULP energy -178276.350710 kJ/mol
# GULP energy per Si atom -5571.135960 kJ/mol
# Density = 2.545932 g / cm^3
# Si number density = 25.517403 Si / 1000 Ang^3
#
#
#
# Elastic Constant Matrix: (Units=GPa)
#
#
# Indices 1 2 3 4 5 6 
#
# 1 71.4565 12.5485 41.9857 0.0000 0.0000 0.0000
# 2 12.5485 133.8003 96.3748 0.0000 0.0000 0.0000
# 3 41.9857 96.3748 138.7183 0.0000 0.0000 0.0000
# 4 0.0000 0.0000 0.0000 33.8834 0.0000 0.0000
# 5 0.0000 0.0000 0.0000 0.0000 -30.4818 0.0000
# 6 0.0000 0.0000 0.0000 0.0000 0.0000 25.3630
#
#
#
# Elastic Compliance Matrix: (Units=1/GPa)
#
#
# Indices 1 2 3 4 5 6 
#
# 1 0.018310 0.004553 -0.008705 0.000000 0.000000 0.000000
# 2 0.004553 0.016092 -0.012558 0.000000 0.000000 0.000000
# 3 -0.008705 -0.012558 0.018568 0.000000 0.000000 0.000000
# 4 0.000000 0.000000 0.000000 0.029513 0.000000 0.000000
# 5 0.000000 0.000000 0.000000 0.000000 -0.032807 0.000000
# 6 0.000000 0.000000 0.000000 0.000000 0.000000 0.039427
#
#
# Mechanical properties :
#
#
# Convention : Reuss Voigt Hill
#
# Bulk Modulus (GPa) = 51.15091 71.75478 61.45285
# Shear Modulus (GPa) = 38.74724 18.62402 28.68563
#
# Velocity S-wave (km/s) = 3.90097 2.70451 3.35649
# Velocity P-wave (km/s) = 6.35446 6.15902 6.25750
#
# Compressibility (1/GPa) = 0.01954999
#
# Stress axis : x y z
#
# Youngs Moduli (GPa) = 54.61582 62.14135 53.85506
#
# Poissons Ratio (x) = -0.28292 0.46880
# Poissons Ratio (y) = -0.24866 0.67632
# Poissons Ratio (z) = 0.47542 0.78038
#
# Static dielectric constant tensor:
#      x y z
#    x 2.170160 0.000000 0.000000 
#    y 0.000000 2.087990 0.000000 
#    z 0.000000 0.000000 1.921050 
# 
# From -- ./inp_files/55489.got.cif
#   From: 2010.05.17/outbox.cif.g08.bks.cpg/sg68_28_cif.got.tgz:55489.got - 2010.06.03 18:57:09.
