data_PCOD9509534
_publ_section_title
;
Structure prediction by ZEFSAII (Michael W. Deem and Ramdas Pophale) SiO2 
 PCOD9509534
Probable space group: C C C A
;
_chemical_formula_sum "Si O2"
_cell_formula_units_Z 44
_cell_length_a 13.032764
_cell_length_b 7.394014
_cell_length_c 22.509028
_cell_angle_alpha 90.000000
_cell_angle_beta 90.000000
_cell_angle_gamma 90.000000
_cell_volume 2169.069866
_symmetry_space_group_name_H-M "C C C A"
_symmetry_group_IT_number 68
_space_group.IT_coordinate_system_code '2'
_symmetry_cell_setting 'orthorhombic'
loop_
_space_group_symop_operation_xyz
x,y,z
-x,1/2-y,z
x,1/2-y,1/2-z
-x,y,1/2-z
-x,-y,-z
x,1/2+y,-z
-x,1/2+y,1/2+z
x,-y,1/2+z
1/2+x,1/2+y,z
1/2-x,-y,z
1/2+x,-y,1/2-z
1/2-x,1/2+y,1/2-z
1/2-x,1/2-y,-z
1/2+x,y,-z
1/2-x,y,1/2+z
1/2+x,1/2-y,1/2+z
loop_
_atom_site_type_symbol
_atom_site_label
_atom_site_fract_x
_atom_site_fract_y
_atom_site_fract_z
Si Si1 0.500000 0.250000 0.250000
Si Si2 0.250000 0.000000 0.980019
Si Si3 0.381899 0.692529 0.427149
Si Si4 0.862055 0.426950 0.208716
O O1 0.567699 0.394439 0.214189
O O2 0.155625 0.049589 0.023617
O O3 0.297173 0.153142 0.938761
O O4 0.500000 0.750000 0.436184
O O5 0.368944 0.630588 0.359671
O O6 0.885704 0.250000 0.250000
O O7 0.750000 0.500000 0.225322
#
# Coordination Sequence:
#
# PCOD9509534 Si02
#       4
#     4   8  16  16
#     4  12  26  48  72 100 140 184 230 284 366 412
#     4  10  24  42  68  98 134 184 230 284 336 408
#     4  11  23  44  67  99 136 179 232 283 344 409
#     4  12  26  46  73 105 139 182 231 290 351 416
#
# _framework density 20.285191999999999
#
# number of rings (size 3 to 8) (size 9 to 14) (size 15 to 20)
#    0.000    0.727    3.636    3.818    2.545    2.909 
#    3.273    0.000    0.000    0.000    0.000    0.000 
#    0.000    0.000    0.000    0.000    0.000    0.000 
#
# Total GULP energy -122728.012670 kJ/mol
# GULP energy per Si atom -5578.546030 kJ/mol
# Density = 2.023902 g / cm^3
# Si number density = 20.285192 Si / 1000 Ang^3
#
#
#
# Elastic Constant Matrix: (Units=GPa)
#
#
# Indices 1 2 3 4 5 6 
#
# 1 95.0259 43.5577 49.1192 0.0000 0.0000 0.0000
# 2 43.5577 141.5869 96.9237 0.0000 0.0000 0.0000
# 3 49.1192 96.9237 151.0012 0.0000 0.0000 0.0000
# 4 0.0000 0.0000 0.0000 -14.3045 0.0000 0.0000
# 5 0.0000 0.0000 0.0000 0.0000 -566.8027 0.0000
# 6 0.0000 0.0000 0.0000 0.0000 0.0000 -65.6896
#
#
#
# Elastic Compliance Matrix: (Units=1/GPa)
#
#
# Indices 1 2 3 4 5 6 
#
# 1 0.012949 -0.001962 -0.002953 0.000000 0.000000 0.000000
# 2 -0.001962 0.012896 -0.007639 0.000000 0.000000 0.000000
# 3 -0.002953 -0.007639 0.012486 0.000000 0.000000 0.000000
# 4 0.000000 0.000000 0.000000 -0.069908 0.000000 0.000000
# 5 0.000000 0.000000 0.000000 0.000000 -0.001764 0.000000
# 6 0.000000 0.000000 0.000000 0.000000 0.000000 -0.015223
#
#
# Mechanical properties :
#
#
# Convention : Reuss Voigt Hill
#
# Bulk Modulus (GPa) = 75.62612 85.20169 80.41391
# Shear Modulus (GPa) = -262.49581 -116.15845 -189.32713
#
# Velocity S-wave (km/s) = -11.38787 -7.57542 -9.67136
# Velocity P-wave (km/s) = 11.64255 5.86710 9.21878
#
# Compressibility (1/GPa) = 0.01322294
#
# Stress axis : x y z
#
# Youngs Moduli (GPa) = 77.22480 77.54353 80.08764
#
# Poissons Ratio (x) = 0.15218 0.23647
# Poissons Ratio (y) = 0.15155 0.61181
# Poissons Ratio (z) = 0.22801 0.59237
#
# Static dielectric constant tensor:
#      x y z
#    x 1.753570 0.000000 0.000000 
#    y 0.000000 1.830470 0.000000 
#    z 0.000000 0.000000 1.668990 
# 
# From -- ./inp_files/27431.got.cif
#   From: 2010.05.17/outbox.cif.g08.bks.cpg/sg68_14_cif.got.tgz:27431.got - 2010.06.03 18:57:09.
