data_PCOD9509706
_publ_section_title
;
Structure prediction by ZEFSAII (Michael W. Deem and Ramdas Pophale) SiO2 
 PCOD9509706
Probable space group: C C C A
;
_chemical_formula_sum "Si O2"
_cell_formula_units_Z 44
_cell_length_a 5.569218
_cell_length_b 25.334713
_cell_length_c 12.567326
_cell_angle_alpha 90.000000
_cell_angle_beta 90.000000
_cell_angle_gamma 90.000000
_cell_volume 1773.181077
_symmetry_space_group_name_H-M "C C C A"
_symmetry_group_IT_number 68
_space_group.IT_coordinate_system_code '2'
_symmetry_cell_setting 'orthorhombic'
loop_
_space_group_symop_operation_xyz
x,y,z
-x,1/2-y,z
x,1/2-y,1/2-z
-x,y,1/2-z
-x,-y,-z
x,1/2+y,-z
-x,1/2+y,1/2+z
x,-y,1/2+z
1/2+x,1/2+y,z
1/2-x,-y,z
1/2+x,-y,1/2-z
1/2-x,1/2+y,1/2-z
1/2-x,1/2-y,-z
1/2+x,y,-z
1/2-x,y,1/2+z
1/2+x,1/2-y,1/2+z
loop_
_atom_site_type_symbol
_atom_site_label
_atom_site_fract_x
_atom_site_fract_y
_atom_site_fract_z
Si Si1 0.000000 0.250000 0.250000
Si Si2 0.860340 0.154023 0.368572
Si Si3 0.750000 0.500000 0.818959
Si Si4 0.639161 0.887072 0.608835
O O1 0.161315 0.286040 0.328579
O O2 0.625399 0.119676 0.343349
O O3 0.878827 0.142346 0.495507
O O4 0.131951 0.139054 0.334779
O O5 0.500000 0.493257 0.750000
O O6 0.706020 0.551362 0.891602
#
# Coordination Sequence:
#
# PCOD9509706 Si02
#       4
#     4  16   8  16
#     4  12  28  46  76 114 138 206 256 302 360 432
#     4  10  25  44  74 102 152 186 249 304 361 439
#     4  12  26  42  78 114 146 196 246 300 372 452
#     4  10  24  47  70 108 148 191 235 310 377 432
#
# _framework density 24.814162
#
# number of rings (size 3 to 8) (size 9 to 14) (size 15 to 20)
#    0.000    1.455    0.000    2.182    7.636   14.545 
#    0.000    0.000    0.000    0.000    0.000    0.000 
#    0.000    0.000    0.000    0.000    0.000    0.000 
#
# Total GULP energy -122735.217620 kJ/mol
# GULP energy per Si atom -5578.873528 kJ/mol
# Density = 2.475768 g / cm^3
# Si number density = 24.814162 Si / 1000 Ang^3
#
#
#
# Elastic Constant Matrix: (Units=GPa)
#
#
# Indices 1 2 3 4 5 6 
#
# 1 206.2782 25.1710 39.7009 0.0000 0.0000 0.0000
# 2 25.1710 172.2170 49.1062 0.0000 0.0000 0.0000
# 3 39.7009 49.1062 95.2968 0.0000 0.0000 0.0000
# 4 0.0000 0.0000 0.0000 108.6524 0.0000 0.0000
# 5 0.0000 0.0000 0.0000 0.0000 23.2175 0.0000
# 6 0.0000 0.0000 0.0000 0.0000 0.0000 -4.8686
#
#
#
# Elastic Compliance Matrix: (Units=1/GPa)
#
#
# Indices 1 2 3 4 5 6 
#
# 1 0.005275 -0.000169 -0.002110 0.000000 0.000000 0.000000
# 2 -0.000169 0.006812 -0.003440 0.000000 0.000000 0.000000
# 3 -0.002110 -0.003440 0.013145 0.000000 0.000000 0.000000
# 4 0.000000 0.000000 0.000000 0.009204 0.000000 0.000000
# 5 0.000000 0.000000 0.000000 0.000000 0.043071 0.000000
# 6 0.000000 0.000000 0.000000 0.000000 0.000000 -0.205400
#
#
# Mechanical properties :
#
#
# Convention : Reuss Voigt Hill
#
# Bulk Modulus (GPa) = 72.49795 77.97201 75.23498
# Shear Modulus (GPa) = -44.69994 49.38786 2.34396
#
# Velocity S-wave (km/s) = -4.24888 4.46613 0.97296
# Velocity P-wave (km/s) = 2.28235 7.62140 5.62560
#
# Compressibility (1/GPa) = 0.01379349
#
# Stress axis : x y z
#
# Youngs Moduli (GPa) = 189.58749 146.79566 76.07350
#
# Poissons Ratio (x) = 0.02484 0.16053
# Poissons Ratio (y) = 0.03208 0.26168
# Poissons Ratio (z) = 0.40007 0.50495
#
# Static dielectric constant tensor:
#      x y z
#    x 2.037850 0.000000 0.000000 
#    y 0.000000 1.935480 0.000000 
#    z 0.000000 0.000000 1.973390 
# 
# From -- ./inp_files/18179.got.cif
#   From: 2010.05.17/outbox.cif.g08.bks.cpg/sg68_10_cif.got.tgz:18179.got - 2010.06.03 18:57:09.
