data_PCOD9509792
_publ_section_title
;
Structure prediction by ZEFSAII (Michael W. Deem and Ramdas Pophale) SiO2 
 PCOD9509792
Probable space group: C C C A
;
_chemical_formula_sum "Si O2"
_cell_formula_units_Z 72
_cell_length_a 23.938170
_cell_length_b 9.333211
_cell_length_c 15.611896
_cell_angle_alpha 90.000000
_cell_angle_beta 90.000000
_cell_angle_gamma 90.000000
_cell_volume 3488.009673
_symmetry_space_group_name_H-M "C C C A"
_symmetry_group_IT_number 68
_space_group.IT_coordinate_system_code '2'
_symmetry_cell_setting 'orthorhombic'
loop_
_space_group_symop_operation_xyz
x,y,z
-x,1/2-y,z
x,1/2-y,1/2-z
-x,y,1/2-z
-x,-y,-z
x,1/2+y,-z
-x,1/2+y,1/2+z
x,-y,1/2+z
1/2+x,1/2+y,z
1/2-x,-y,z
1/2+x,-y,1/2-z
1/2-x,1/2+y,1/2-z
1/2-x,1/2-y,-z
1/2+x,y,-z
1/2-x,y,1/2+z
1/2+x,1/2-y,1/2+z
loop_
_atom_site_type_symbol
_atom_site_label
_atom_site_fract_x
_atom_site_fract_y
_atom_site_fract_z
Si Si1 0.691616 0.918073 0.910233
Si Si2 0.152222 0.750000 0.250000
Si Si3 0.629563 0.804240 0.473995
Si Si4 0.552926 0.353105 0.367566
Si Si5 0.053553 0.676045 0.657671
O O1 0.685921 0.855593 0.813458
O O2 0.750000 0.000000 0.922611
O O3 0.647839 0.044275 0.933526
O O4 0.676797 0.783811 0.972796
O O5 0.108474 0.828315 0.311643
O O6 0.577693 0.833639 0.537493
O O7 0.608042 0.701924 0.398606
O O8 0.500000 0.250000 0.353598
O O9 0.536608 0.511935 0.342036
O O10 0.061302 0.750000 0.750000
O O11 0.000000 0.750000 0.616095
#
# Coordination Sequence:
#
# PCOD9509792 Si02
#       5
#    16   8  16  16  16
#     4  11  24  47  71 102 133 183 236 294 347 403
#     4  10  25  44  68 100 140 182 227 284 350 404
#     4  11  23  44  71  97 140 176 235 284 346 407
#     4  11  24  41  68 100 141 184 223 275 343 421
#     4  11  25  39  63 101 137 185 227 276 343 414
#
# _framework density 20.642143999999998
#
# number of rings (size 3 to 8) (size 9 to 14) (size 15 to 20)
#    0.000    1.111    2.222    3.000   12.444    1.778 
#    6.000    2.222    0.000    0.000    0.000    0.000 
#    0.000    0.000    0.000    0.000    0.000    0.000 
#
# Total GULP energy -200827.107309 kJ/mol
# GULP energy per Si atom -5578.530759 kJ/mol
# Density = 2.059516 g / cm^3
# Si number density = 20.642144 Si / 1000 Ang^3
#
#
#
# Elastic Constant Matrix: (Units=GPa)
#
#
# Indices 1 2 3 4 5 6 
#
# 1 66.4233 28.5900 39.0384 0.0000 0.0000 0.0000
# 2 28.5900 152.2578 46.2068 0.0000 0.0000 0.0000
# 3 39.0384 46.2068 124.9470 0.0000 0.0000 0.0000
# 4 0.0000 0.0000 0.0000 26.8971 0.0000 0.0000
# 5 0.0000 0.0000 0.0000 0.0000 18.6753 0.0000
# 6 0.0000 0.0000 0.0000 0.0000 0.0000 28.0157
#
#
#
# Elastic Compliance Matrix: (Units=1/GPa)
#
#
# Indices 1 2 3 4 5 6 
#
# 1 0.018959 -0.001985 -0.005190 0.000000 0.000000 0.000000
# 2 -0.001985 0.007606 -0.002193 0.000000 0.000000 0.000000
# 3 -0.005190 -0.002193 0.010436 0.000000 0.000000 0.000000
# 4 0.000000 0.000000 0.000000 0.037179 0.000000 0.000000
# 5 0.000000 0.000000 0.000000 0.000000 0.053547 0.000000
# 6 0.000000 0.000000 0.000000 0.000000 0.000000 0.035694
#
#
# Mechanical properties :
#
#
# Convention : Reuss Voigt Hill
#
# Bulk Modulus (GPa) = 54.74489 63.47762 59.11125
# Shear Modulus (GPa) = 26.56126 30.03713 28.29920
#
# Velocity S-wave (km/s) = 3.59102 3.81876 3.70664
# Velocity P-wave (km/s) = 6.61607 7.08958 6.85692
#
# Compressibility (1/GPa) = 0.01826655
#
# Stress axis : x y z
#
# Youngs Moduli (GPa) = 52.74418 131.47595 95.82555
#
# Poissons Ratio (x) = 0.26100 0.49729
# Poissons Ratio (y) = 0.10471 0.21010
# Poissons Ratio (z) = 0.27372 0.28826
#
# Static dielectric constant tensor:
#      x y z
#    x 1.757460 0.000000 0.000000 
#    y 0.000000 1.700190 0.000000 
#    z 0.000000 0.000000 1.827090 
# 
# From -- ./inp_files/19473.got.cif
#   From: 2010.05.17/outbox.cif.g08.bks.cpg/sg68_10_cif.got.tgz:19473.got - 2010.06.03 18:57:09.
