data_PCOD9509695
_publ_section_title
;
Structure prediction by ZEFSAII (Michael W. Deem and Ramdas Pophale) SiO2 
 PCOD9509695
Probable space group: C C C A
;
_chemical_formula_sum "Si O2"
_cell_formula_units_Z 72
_cell_length_a 12.423664
_cell_length_b 27.978195
_cell_length_c 9.357518
_cell_angle_alpha 90.000000
_cell_angle_beta 90.000000
_cell_angle_gamma 90.000000
_cell_volume 3252.595533
_symmetry_space_group_name_H-M "C C C A"
_symmetry_group_IT_number 68
_space_group.IT_coordinate_system_code '2'
_symmetry_cell_setting 'orthorhombic'
loop_
_space_group_symop_operation_xyz
x,y,z
-x,1/2-y,z
x,1/2-y,1/2-z
-x,y,1/2-z
-x,-y,-z
x,1/2+y,-z
-x,1/2+y,1/2+z
x,-y,1/2+z
1/2+x,1/2+y,z
1/2-x,-y,z
1/2+x,-y,1/2-z
1/2-x,1/2+y,1/2-z
1/2-x,1/2-y,-z
1/2+x,y,-z
1/2-x,y,1/2+z
1/2+x,1/2-y,1/2+z
loop_
_atom_site_type_symbol
_atom_site_label
_atom_site_fract_x
_atom_site_fract_y
_atom_site_fract_z
Si Si1 0.250000 0.000000 0.743468
Si Si2 0.599301 0.962635 0.006249
Si Si3 0.797462 0.781708 0.370676
Si Si4 0.433531 0.199337 0.628399
Si Si5 0.028441 0.138423 0.587561
O O1 0.325194 0.970126 0.634208
O O2 0.171200 0.971579 0.852164
O O3 0.552517 0.909621 0.996713
O O4 0.500000 0.000000 0.000000
O O5 0.855047 0.750000 0.250000
O O6 0.750000 0.750000 0.500000
O O7 0.684402 0.798150 0.306129
O O8 0.870900 0.825244 0.416778
O O9 0.500000 0.250000 0.605152
O O10 0.500000 0.172916 0.750000
O O11 0.433769 0.169098 0.485165
O O12 0.000000 0.126897 0.750000
#
# Coordination Sequence:
#
# PCOD9509695 Si02
#       5
#     8  16  16  16  16
#     4  10  24  46  78 100 144 180 238 300 380 428
#     4  11  25  48  73 107 144 186 238 310 370 444
#     4  12  23  39  63  89 131 182 227 287 339 406
#     4  11  22  42  62  91 133 182 237 283 346 418
#     4  12  27  41  68 102 139 183 242 286 367 434
#
# _framework density 22.136168000000001
#
# number of rings (size 3 to 8) (size 9 to 14) (size 15 to 20)
#    0.000    0.667    4.444    3.333    0.000   10.667 
#    0.000    0.000    0.000    0.000    0.000    0.000 
#    0.000    0.000    0.000    0.000    0.000    0.000 
#
# Total GULP energy -201069.591123 kJ/mol
# GULP energy per Si atom -5585.266420 kJ/mol
# Density = 2.208578 g / cm^3
# Si number density = 22.136168 Si / 1000 Ang^3
#
#
#
# Elastic Constant Matrix: (Units=GPa)
#
#
# Indices 1 2 3 4 5 6 
#
# 1 84.7658 31.5975 0.9255 0.0000 0.0000 0.0000
# 2 31.5975 127.6093 22.4884 0.0000 0.0000 0.0000
# 3 0.9255 22.4884 94.9548 0.0000 0.0000 0.0000
# 4 0.0000 0.0000 0.0000 22.9329 0.0000 0.0000
# 5 0.0000 0.0000 0.0000 0.0000 42.5902 0.0000
# 6 0.0000 0.0000 0.0000 0.0000 0.0000 21.7160
#
#
#
# Elastic Compliance Matrix: (Units=1/GPa)
#
#
# Indices 1 2 3 4 5 6 
#
# 1 0.013037 -0.003345 0.000665 0.000000 0.000000 0.000000
# 2 -0.003345 0.009036 -0.002107 0.000000 0.000000 0.000000
# 3 0.000665 -0.002107 0.011024 0.000000 0.000000 0.000000
# 4 0.000000 0.000000 0.000000 0.043605 0.000000 0.000000
# 5 0.000000 0.000000 0.000000 0.000000 0.023480 0.000000
# 6 0.000000 0.000000 0.000000 0.000000 0.000000 0.046049
#
#
# Mechanical properties :
#
#
# Convention : Reuss Voigt Hill
#
# Bulk Modulus (GPa) = 42.51349 46.37252 44.44300
# Shear Modulus (GPa) = 30.55358 34.26905 32.41131
#
# Velocity S-wave (km/s) = 3.71921 3.93886 3.83061
# Velocity P-wave (km/s) = 6.13926 6.45604 6.29964
#
# Compressibility (1/GPa) = 0.02352195
#
# Stress axis : x y z
#
# Youngs Moduli (GPa) = 76.70501 110.66650 90.71150
#
# Poissons Ratio (x) = 0.37022 -0.06034
# Poissons Ratio (y) = 0.25660 0.19117
# Poissons Ratio (z) = -0.05103 0.23322
#
# Static dielectric constant tensor:
#      x y z
#    x 1.940130 0.000000 0.000000 
#    y 0.000000 2.066360 0.000000 
#    z 0.000000 0.000000 2.001470 
# 
# From -- ./inp_files/5220.got.cif
#   From: 2010.05.17/outbox.cif.g08.bks.cpg/sg68_3_cif.got.tgz:5220.got - 2010.06.03 18:57:09.
