data_PCOD9509088
_publ_section_title
;
Structure prediction by ZEFSAII (Michael W. Deem and Ramdas Pophale) SiO2 
 PCOD9509088
Probable space group: C C C A
;
_chemical_formula_sum "Si O2"
_cell_formula_units_Z 116
_cell_length_a 24.540673
_cell_length_b 19.933149
_cell_length_c 11.878065
_cell_angle_alpha 90.000000
_cell_angle_beta 90.000000
_cell_angle_gamma 90.000000
_cell_volume 5810.427401
_symmetry_space_group_name_H-M "C C C A"
_symmetry_group_IT_number 68
_space_group.IT_coordinate_system_code '2'
_symmetry_cell_setting 'orthorhombic'
loop_
_space_group_symop_operation_xyz
x,y,z
-x,1/2-y,z
x,1/2-y,1/2-z
-x,y,1/2-z
-x,-y,-z
x,1/2+y,-z
-x,1/2+y,1/2+z
x,-y,1/2+z
1/2+x,1/2+y,z
1/2-x,-y,z
1/2+x,-y,1/2-z
1/2-x,1/2+y,1/2-z
1/2-x,1/2-y,-z
1/2+x,y,-z
1/2-x,y,1/2+z
1/2+x,1/2-y,1/2+z
loop_
_atom_site_type_symbol
_atom_site_label
_atom_site_fract_x
_atom_site_fract_y
_atom_site_fract_z
Si Si1 0.369087 0.918675 0.844304
Si Si2 0.637882 0.848414 0.412614
Si Si3 0.738371 0.318916 0.064081
Si Si4 0.413396 0.699809 0.081179
Si Si5 0.117993 0.812320 0.167973
Si Si6 0.000000 0.250000 0.250000
Si Si7 0.754778 0.070917 0.119802
Si Si8 0.869077 0.570366 0.797217
O O1 0.394358 0.878082 0.741051
O O2 0.303476 0.915224 0.826844
O O3 0.387303 0.996676 0.839765
O O4 0.373857 0.879043 0.963351
O O5 0.702645 0.839495 0.386599
O O6 0.615259 0.772692 0.400601
O O7 0.613554 0.901591 0.324163
O O8 0.682761 0.311605 0.134260
O O9 0.750000 0.250000 0.000000
O O10 0.729105 0.373642 0.968516
O O11 0.464950 0.705286 0.163606
O O12 0.383177 0.632303 0.121128
O O13 0.416639 0.693559 0.946349
O O14 0.108574 0.750000 0.250000
O O15 0.803631 0.062789 0.205830
O O16 0.750000 0.000000 0.056318
#
# Coordination Sequence:
#
# PCOD9509088 Si02
#       8
#    16  16  16  16  16   4  16  16
#     4  10  23  35  57  97 141 175 215 263 310 405
#     4  11  21  38  60  95 132 181 221 266 316 394
#     4  11  19  31  56  89 134 175 224 261 301 386
#     4  12  24  44  71  91 121 164 218 285 339 390
#     4  12  22  38  62  96 137 177 208 267 335 393
#     4  12  28  52  74 104 116 152 242 302 340 398
#     4   9  18  33  49  85 132 183 227 249 297 374
#     4  11  21  37  62  89 130 182 225 262 322 378
#
# _framework density 19.964108
#
# number of rings (size 3 to 8) (size 9 to 14) (size 15 to 20)
#    0.000    1.103    5.517    1.655    1.931    2.207 
#    0.000    2.414    0.000    3.310    0.000    0.000 
#    0.000    0.000    0.000    0.000    0.000    0.000 
#
# Total GULP energy -323130.364660 kJ/mol
# GULP energy per Si atom -5571.213184 kJ/mol
# Density = 1.991867 g / cm^3
# Si number density = 19.964108 Si / 1000 Ang^3
#
#
#
# Elastic Constant Matrix: (Units=GPa)
#
#
# Indices 1 2 3 4 5 6 
#
# 1 32.6687 22.7543 25.8251 0.0000 0.0000 0.0000
# 2 22.7543 168.4369 64.5981 0.0000 0.0000 0.0000
# 3 25.8251 64.5981 122.9007 0.0000 0.0000 0.0000
# 4 0.0000 0.0000 0.0000 28.5804 0.0000 0.0000
# 5 0.0000 0.0000 0.0000 0.0000 29.2177 0.0000
# 6 0.0000 0.0000 0.0000 0.0000 0.0000 10.4830
#
#
#
# Elastic Compliance Matrix: (Units=1/GPa)
#
#
# Indices 1 2 3 4 5 6 
#
# 1 0.037572 -0.002565 -0.006547 0.000000 0.000000 0.000000
# 2 -0.002565 0.007611 -0.003461 0.000000 0.000000 0.000000
# 3 -0.006547 -0.003461 0.011332 0.000000 0.000000 0.000000
# 4 0.000000 0.000000 0.000000 0.034989 0.000000 0.000000
# 5 0.000000 0.000000 0.000000 0.000000 0.034226 0.000000
# 6 0.000000 0.000000 0.000000 0.000000 0.000000 0.095393
#
#
# Mechanical properties :
#
#
# Convention : Reuss Voigt Hill
#
# Bulk Modulus (GPa) = 31.87917 61.15126 46.51522
# Shear Modulus (GPa) = 19.47608 27.71146 23.59377
#
# Velocity S-wave (km/s) = 3.12678 3.72972 3.44147
# Velocity P-wave (km/s) = 5.38874 7.01746 6.25633
#
# Compressibility (1/GPa) = 0.03136845
#
# Stress axis : x y z
#
# Youngs Moduli (GPa) = 26.61545 131.38961 88.24767
#
# Poissons Ratio (x) = 0.33699 0.57775
# Poissons Ratio (y) = 0.06826 0.30547
# Poissons Ratio (z) = 0.17425 0.45480
#
# Static dielectric constant tensor:
#      x y z
#    x 1.745480 0.000000 0.000000 
#    y 0.000000 1.721100 0.000000 
#    z 0.000000 0.000000 1.715120 
# 
# From -- ./inp_files/17248.got.cif
#   From: 2010.05.17/outbox.cif.g08.bks.cpg/sg68_9_cif.got.tgz:17248.got - 2010.06.03 18:57:09.
