data_PCOD9509206
_publ_section_title
;
Structure prediction by ZEFSAII (Michael W. Deem and Ramdas Pophale) SiO2 
 PCOD9509206
Probable space group: C C C A
;
_chemical_formula_sum "Si O2"
_cell_formula_units_Z 52
_cell_length_a 8.504746
_cell_length_b 28.191931
_cell_length_c 9.870259
_cell_angle_alpha 90.000000
_cell_angle_beta 90.000000
_cell_angle_gamma 90.000000
_cell_volume 2366.544746
_symmetry_space_group_name_H-M "C C C A"
_symmetry_group_IT_number 68
_space_group.IT_coordinate_system_code '2'
_symmetry_cell_setting 'orthorhombic'
loop_
_space_group_symop_operation_xyz
x,y,z
-x,1/2-y,z
x,1/2-y,1/2-z
-x,y,1/2-z
-x,-y,-z
x,1/2+y,-z
-x,1/2+y,1/2+z
x,-y,1/2+z
1/2+x,1/2+y,z
1/2-x,-y,z
1/2+x,-y,1/2-z
1/2-x,1/2+y,1/2-z
1/2-x,1/2-y,-z
1/2+x,y,-z
1/2-x,y,1/2+z
1/2+x,1/2-y,1/2+z
loop_
_atom_site_type_symbol
_atom_site_label
_atom_site_fract_x
_atom_site_fract_y
_atom_site_fract_z
Si Si1 0.402154 0.970040 0.386492
Si Si2 0.734689 0.627438 0.857296
Si Si3 0.500000 0.750000 0.750000
Si Si4 0.116201 0.661916 0.406278
O O1 0.500000 0.964562 0.250000
O O2 0.322820 0.918955 0.415201
O O3 0.500000 0.000000 0.500000
O O4 0.250000 0.000000 0.351149
O O5 0.734439 0.633481 0.695332
O O6 0.551143 0.634306 0.895976
O O7 0.824325 0.667162 0.942089
O O8 0.402977 0.786489 0.658794
#
# Coordination Sequence:
#
# PCOD9509206 Si02
#       4
#    16  16   4  16
#     4  12  28  44  67  95 132 174 226 276 324 394
#     4  10  24  42  64  96 130 174 214 265 337 382
#     4   8  20  44  64 104 128 164 220 272 324 388
#     4  10  23  41  71  93 135 169 213 274 322 403
#
# _framework density 21.972964000000001
#
# number of rings (size 3 to 8) (size 9 to 14) (size 15 to 20)
#    0.000    1.846    0.000    2.769   17.231    4.923 
#    0.000    0.000    0.000   14.769    0.000    0.000 
#    0.000    0.000    0.000    0.000    0.000    0.000 
#
# Total GULP energy -144895.679801 kJ/mol
# GULP energy per Si atom -5572.910762 kJ/mol
# Density = 2.192295 g / cm^3
# Si number density = 21.972964 Si / 1000 Ang^3
#
#
#
# Elastic Constant Matrix: (Units=GPa)
#
#
# Indices 1 2 3 4 5 6 
#
# 1 91.0293 37.2985 52.4844 0.0000 0.0000 0.0000
# 2 37.2985 113.2333 26.6263 0.0000 0.0000 0.0000
# 3 52.4844 26.6263 100.6562 0.0000 0.0000 0.0000
# 4 0.0000 0.0000 0.0000 -11.0235 0.0000 0.0000
# 5 0.0000 0.0000 0.0000 0.0000 5.6812 0.0000
# 6 0.0000 0.0000 0.0000 0.0000 0.0000 14.0232
#
#
#
# Elastic Compliance Matrix: (Units=1/GPa)
#
#
# Indices 1 2 3 4 5 6 
#
# 1 0.017094 -0.003769 -0.007916 0.000000 0.000000 0.000000
# 2 -0.003769 0.010248 -0.000746 0.000000 0.000000 0.000000
# 3 -0.007916 -0.000746 0.014260 0.000000 0.000000 0.000000
# 4 0.000000 0.000000 0.000000 -0.090715 0.000000 0.000000
# 5 0.000000 0.000000 0.000000 0.000000 0.176018 0.000000
# 6 0.000000 0.000000 0.000000 0.000000 0.000000 0.071310
#
#
# Mechanical properties :
#
#
# Convention : Reuss Voigt Hill
#
# Bulk Modulus (GPa) = 59.73704 59.74857 59.74281
# Shear Modulus (GPa) = 21.86676 14.30349 18.08513
#
# Velocity S-wave (km/s) = 3.15805 2.55416 2.87202
# Velocity P-wave (km/s) = 6.36736 5.99576 6.18436
#
# Compressibility (1/GPa) = 0.01674003
#
# Stress axis : x y z
#
# Youngs Moduli (GPa) = 58.49979 97.57796 70.12776
#
# Poissons Ratio (x) = 0.36780 0.55514
# Poissons Ratio (y) = 0.22050 0.05228
# Poissons Ratio (z) = 0.46309 0.07275
#
# Static dielectric constant tensor:
#      x y z
#    x 1.797850 0.000000 0.000000 
#    y 0.000000 2.668520 0.000000 
#    z 0.000000 0.000000 1.843850 
# 
# From -- ./inp_files/10504.got.cif
#   From: 2010.05.17/outbox.cif.g08.bks.cpg/sg68_6_cif.got.tgz:10504.got - 2010.06.03 18:57:09.
