data_PCOD9509652
_publ_section_title
;
Structure prediction by ZEFSAII (Michael W. Deem and Ramdas Pophale) SiO2 
 PCOD9509652
Probable space group: C C C A
;
_chemical_formula_sum "Si O2"
_cell_formula_units_Z 64
_cell_length_a 9.455464
_cell_length_b 13.104636
_cell_length_c 20.761274
_cell_angle_alpha 90.000000
_cell_angle_beta 90.000000
_cell_angle_gamma 90.000000
_cell_volume 2572.538055
_symmetry_space_group_name_H-M "C C C A"
_symmetry_group_IT_number 68
_space_group.IT_coordinate_system_code '2'
_symmetry_cell_setting 'orthorhombic'
loop_
_space_group_symop_operation_xyz
x,y,z
-x,1/2-y,z
x,1/2-y,1/2-z
-x,y,1/2-z
-x,-y,-z
x,1/2+y,-z
-x,1/2+y,1/2+z
x,-y,1/2+z
1/2+x,1/2+y,z
1/2-x,-y,z
1/2+x,-y,1/2-z
1/2-x,1/2+y,1/2-z
1/2-x,1/2-y,-z
1/2+x,y,-z
1/2-x,y,1/2+z
1/2+x,1/2-y,1/2+z
loop_
_atom_site_type_symbol
_atom_site_label
_atom_site_fract_x
_atom_site_fract_y
_atom_site_fract_z
Si Si1 0.500000 0.113558 0.750000
Si Si2 0.750000 0.500000 0.518554
Si Si3 0.250000 0.000000 0.732133
Si Si4 0.000000 0.750000 0.862970
Si Si5 0.209414 0.676466 0.084616
Si Si6 0.922138 0.894931 0.380655
O O1 0.363951 0.056475 0.775208
O O2 0.564336 0.171979 0.810818
O O3 0.785335 0.599899 0.476180
O O4 0.881980 0.479577 0.566314
O O5 0.154346 0.070824 0.684984
O O6 0.126444 0.803416 0.899770
O O7 0.145267 0.791773 0.088165
O O8 0.089101 0.621879 0.128353
#
# Coordination Sequence:
#
# PCOD9509652 Si02
#       6
#     8   8   8   8  16  16
#     4  11  26  46  70 101 136 184 235 302 354 429
#     4  11  24  39  74 104 136 193 238 283 362 426
#     4  11  24  45  74 102 140 179 244 291 364 428
#     4  11  26  46  66 104 140 182 236 297 358 418
#     4  11  24  43  69  99 145 183 232 294 350 427
#     4  10  24  46  65 103 145 185 234 291 348 440
#
# _framework density 24.878153999999999
#
# number of rings (size 3 to 8) (size 9 to 14) (size 15 to 20)
#    0.000    1.250    2.500    1.500    7.000    4.000 
#    0.000    0.000    0.000    0.000    0.000    0.000 
#    0.000    0.000    0.000    0.000    0.000    0.000 
#
# Total GULP energy -178487.402985 kJ/mol
# GULP energy per Si atom -5577.731343 kJ/mol
# Density = 2.482153 g / cm^3
# Si number density = 24.878154 Si / 1000 Ang^3
#
#
#
# Elastic Constant Matrix: (Units=GPa)
#
#
# Indices 1 2 3 4 5 6 
#
# 1 158.0064 24.3446 8.7824 0.0000 0.0000 0.0000
# 2 24.3446 79.5585 40.6232 0.0000 0.0000 0.0000
# 3 8.7824 40.6232 45.7325 0.0000 0.0000 0.0000
# 4 0.0000 0.0000 0.0000 2107.5837 0.0000 0.0000
# 5 0.0000 0.0000 0.0000 0.0000 18.1541 0.0000
# 6 0.0000 0.0000 0.0000 0.0000 0.0000 45.1589
#
#
#
# Elastic Compliance Matrix: (Units=1/GPa)
#
#
# Indices 1 2 3 4 5 6 
#
# 1 0.006666 -0.002536 0.000973 0.000000 0.000000 0.000000
# 2 -0.002536 0.023968 -0.020803 0.000000 0.000000 0.000000
# 3 0.000973 -0.020803 0.040158 0.000000 0.000000 0.000000
# 4 0.000000 0.000000 0.000000 0.000474 0.000000 0.000000
# 5 0.000000 0.000000 0.000000 0.000000 0.055084 0.000000
# 6 0.000000 0.000000 0.000000 0.000000 0.000000 0.022144
#
#
# Mechanical properties :
#
#
# Convention : Reuss Voigt Hill
#
# Bulk Modulus (GPa) = 38.37473 47.86643 43.12058
# Shear Modulus (GPa) = 24.76320 448.14915 236.45617
#
# Velocity S-wave (km/s) = 3.15839 13.43610 9.75972
# Velocity P-wave (km/s) = 5.36275 16.12411 12.01553
#
# Compressibility (1/GPa) = 0.02605881
#
# Stress axis : x y z
#
# Youngs Moduli (GPa) = 150.02449 41.72294 24.90156
#
# Poissons Ratio (x) = 0.10583 -0.02423
# Poissons Ratio (y) = 0.38054 0.51802
# Poissons Ratio (z) = -0.14598 0.86796
#
# Static dielectric constant tensor:
#      x y z
#    x 2.110900 0.000000 0.000000 
#    y 0.000000 2.223510 0.000000 
#    z 0.000000 0.000000 1.919900 
# 
# From -- ./inp_files/42810.got.cif
#   From: 2010.05.17/outbox.cif.g08.bks.cpg/sg68_22_cif.got.tgz:42810.got - 2010.06.03 18:57:09.
