data_PCOD9509141
_publ_section_title
;
Structure prediction by ZEFSAII (Michael W. Deem and Ramdas Pophale) SiO2 
 PCOD9509141
Probable space group: C C C A
;
_chemical_formula_sum "Si O2"
_cell_formula_units_Z 96
_cell_length_a 21.007342
_cell_length_b 9.279649
_cell_length_c 23.646980
_cell_angle_alpha 90.000000
_cell_angle_beta 90.000000
_cell_angle_gamma 90.000000
_cell_volume 4609.760257
_symmetry_space_group_name_H-M "C C C A"
_symmetry_group_IT_number 68
_space_group.IT_coordinate_system_code '2'
_symmetry_cell_setting 'orthorhombic'
loop_
_space_group_symop_operation_xyz
x,y,z
-x,1/2-y,z
x,1/2-y,1/2-z
-x,y,1/2-z
-x,-y,-z
x,1/2+y,-z
-x,1/2+y,1/2+z
x,-y,1/2+z
1/2+x,1/2+y,z
1/2-x,-y,z
1/2+x,-y,1/2-z
1/2-x,1/2+y,1/2-z
1/2-x,1/2-y,-z
1/2+x,y,-z
1/2-x,y,1/2+z
1/2+x,1/2-y,1/2+z
loop_
_atom_site_type_symbol
_atom_site_label
_atom_site_fract_x
_atom_site_fract_y
_atom_site_fract_z
Si Si1 0.354542 0.230382 0.507306
Si Si2 0.315023 0.181981 0.875621
Si Si3 0.558544 0.521949 0.539866
Si Si4 0.827671 0.155392 0.621874
Si Si5 0.055742 0.145428 0.661547
Si Si6 0.433143 0.179962 0.688555
O O1 0.308873 0.278882 0.557650
O O2 0.394134 0.367057 0.488495
O O3 0.331170 0.169580 0.446988
O O4 0.402363 0.123986 0.539519
O O5 0.242243 0.198866 0.855351
O O6 0.369984 0.275934 0.846246
O O7 0.335418 0.015208 0.867626
O O8 0.500000 0.500000 0.500000
O O9 0.536978 0.584494 0.599465
O O10 0.881383 0.257243 0.650027
O O11 0.000000 0.250000 0.682585
O O12 0.064007 0.994196 0.694045
O O13 0.500000 0.250000 0.664814
O O14 0.426791 0.250000 0.750000
#
# Coordination Sequence:
#
# PCOD9509141 Si02
#       6
#    16  16  16  16  16  16
#     4  11  20  35  55  90 136 180 218 267 324 401
#     4  11  22  42  65  89 136 181 223 277 330 397
#     4  11  21  32  54  95 134 180 219 261 327 398
#     4  10  23  40  61 100 135 179 221 266 334 403
#     4  11  23  42  67  99 138 170 220 279 335 401
#     4  11  26  47  71  99 127 169 227 286 350 400
#
# _framework density 20.825379000000002
#
# number of rings (size 3 to 8) (size 9 to 14) (size 15 to 20)
#    0.000    1.167    3.333    4.000    2.333    0.667 
#    0.000    9.167    0.000    0.000    0.000    0.000 
#    0.000    0.000    0.000    0.000    0.000    0.000 
#
# Total GULP energy -267819.459734 kJ/mol
# GULP energy per Si atom -5579.572078 kJ/mol
# Density = 2.077798 g / cm^3
# Si number density = 20.825379 Si / 1000 Ang^3
#
#
#
# Elastic Constant Matrix: (Units=GPa)
#
#
# Indices 1 2 3 4 5 6 
#
# 1 114.9948 65.8825 43.3807 0.0000 0.0000 0.0000
# 2 65.8825 171.0006 41.1373 0.0000 0.0000 0.0000
# 3 43.3807 41.1373 58.0708 0.0000 0.0000 0.0000
# 4 0.0000 0.0000 0.0000 24.8400 0.0000 0.0000
# 5 0.0000 0.0000 0.0000 0.0000 13.5991 0.0000
# 6 0.0000 0.0000 0.0000 0.0000 0.0000 28.5052
#
#
#
# Elastic Compliance Matrix: (Units=1/GPa)
#
#
# Indices 1 2 3 4 5 6 
#
# 1 0.013536 -0.003354 -0.007736 0.000000 0.000000 0.000000
# 2 -0.003354 0.007880 -0.003077 0.000000 0.000000 0.000000
# 3 -0.007736 -0.003077 0.025179 0.000000 0.000000 0.000000
# 4 0.000000 0.000000 0.000000 0.040258 0.000000 0.000000
# 5 0.000000 0.000000 0.000000 0.000000 0.073534 0.000000
# 6 0.000000 0.000000 0.000000 0.000000 0.000000 0.035081
#
#
# Mechanical properties :
#
#
# Convention : Reuss Voigt Hill
#
# Bulk Modulus (GPa) = 54.75912 71.65190 63.20551
# Shear Modulus (GPa) = 21.74968 26.29993 24.02480
#
# Velocity S-wave (km/s) = 3.23520 3.55756 3.40020
# Velocity P-wave (km/s) = 6.34877 7.16629 6.76988
#
# Compressibility (1/GPa) = 0.01826180
#
# Stress axis : x y z
#
# Youngs Moduli (GPa) = 73.87774 126.89754 39.71603
#
# Poissons Ratio (x) = 0.42563 0.30723
# Poissons Ratio (y) = 0.24779 0.12220
# Poissons Ratio (z) = 0.57149 0.39044
#
# Static dielectric constant tensor:
#      x y z
#    x 1.734430 0.000000 0.000000 
#    y 0.000000 1.748630 0.000000 
#    z 0.000000 0.000000 1.699450 
# 
# From -- ./inp_files/51745.got.cif
#   From: 2010.05.17/outbox.cif.g08.bks.cpg/sg68_26_cif.got.tgz:51745.got - 2010.06.03 18:57:09.
