data_PCOD9509995
_publ_section_title
;
Structure prediction by ZEFSAII (Michael W. Deem and Ramdas Pophale) SiO2 
 PCOD9509995
Probable space group: C C C A
;
_chemical_formula_sum "Si O2"
_cell_formula_units_Z 112
_cell_length_a 15.135223
_cell_length_b 16.877569
_cell_length_c 22.294063
_cell_angle_alpha 90.000000
_cell_angle_beta 90.000000
_cell_angle_gamma 90.000000
_cell_volume 5694.924101
_symmetry_space_group_name_H-M "C C C A"
_symmetry_group_IT_number 68
_space_group.IT_coordinate_system_code '2'
_symmetry_cell_setting 'orthorhombic'
loop_
_space_group_symop_operation_xyz
x,y,z
-x,1/2-y,z
x,1/2-y,1/2-z
-x,y,1/2-z
-x,-y,-z
x,1/2+y,-z
-x,1/2+y,1/2+z
x,-y,1/2+z
1/2+x,1/2+y,z
1/2-x,-y,z
1/2+x,-y,1/2-z
1/2-x,1/2+y,1/2-z
1/2-x,1/2-y,-z
1/2+x,y,-z
1/2-x,y,1/2+z
1/2+x,1/2-y,1/2+z
loop_
_atom_site_type_symbol
_atom_site_label
_atom_site_fract_x
_atom_site_fract_y
_atom_site_fract_z
Si Si1 0.447746 0.455126 0.186444
Si Si2 0.810791 0.314631 0.794060
Si Si3 0.046414 0.538688 0.443010
Si Si4 0.673108 0.433154 0.751020
Si Si5 0.178314 0.068462 0.119030
Si Si6 0.761076 0.756371 0.915032
Si Si7 0.402549 0.290531 0.495920
O O1 0.500000 0.444702 0.250000
O O2 0.378552 0.382812 0.187390
O O3 0.496749 0.452147 0.121928
O O4 0.395174 0.537461 0.198758
O O5 0.853257 0.250000 0.750000
O O6 0.727438 0.353864 0.761090
O O7 0.770307 0.275061 0.851908
O O8 0.117423 0.471495 0.429342
O O9 0.082722 0.623725 0.465313
O O10 0.000000 0.500000 0.500000
O O11 0.750000 0.500000 0.751652
O O12 0.632499 0.425796 0.684476
O O13 0.215153 0.151185 0.095074
O O14 0.250000 0.000000 0.128847
O O15 0.673033 0.746896 0.956037
O O16 0.847743 0.711724 0.941434
O O17 0.500000 0.250000 0.499413
#
# Coordination Sequence:
#
# PCOD9509995 Si02
#       7
#    16  16  16  16  16  16  16
#     4  11  24  43  68 101 133 175 227 293 344 413
#     4  11  23  40  69 100 133 174 226 283 352 412
#     4  12  26  43  67  97 134 178 230 284 343 411
#     4   9  20  39  63  91 128 170 216 270 335 413
#     4  11  20  41  66  91 128 177 221 265 344 414
#     4  11  24  43  69  98 137 181 225 288 348 410
#     4  11  25  46  67  96 137 181 231 287 343 411
#
# _framework density 19.666637000000001
#
# number of rings (size 3 to 8) (size 9 to 14) (size 15 to 20)
#    0.000    1.143    4.286    1.714    4.000    1.429 
#    0.000    0.000    0.000    0.000    0.000    0.000 
#    0.000    0.000    0.000    0.000    0.000    0.000 
#
# Total GULP energy -311846.380796 kJ/mol
# GULP energy per Si atom -5568.685371 kJ/mol
# Density = 1.962187 g / cm^3
# Si number density = 19.666637 Si / 1000 Ang^3
#
#
#
# Elastic Constant Matrix: (Units=GPa)
#
#
# Indices 1 2 3 4 5 6 
#
# 1 85.8219 28.3886 37.7315 0.0000 0.0000 0.0000
# 2 28.3886 40.7136 13.8001 0.0000 0.0000 0.0000
# 3 37.7315 13.8001 103.5231 0.0000 0.0000 0.0000
# 4 0.0000 0.0000 0.0000 34.5348 0.0000 0.0000
# 5 0.0000 0.0000 0.0000 0.0000 18.0187 0.0000
# 6 0.0000 0.0000 0.0000 0.0000 0.0000 84.1122
#
#
#
# Elastic Compliance Matrix: (Units=1/GPa)
#
#
# Indices 1 2 3 4 5 6 
#
# 1 0.017231 -0.010354 -0.004900 0.000000 0.000000 0.000000
# 2 -0.010354 0.031946 -0.000485 0.000000 0.000000 0.000000
# 3 -0.004900 -0.000485 0.011510 0.000000 0.000000 0.000000
# 4 0.000000 0.000000 0.000000 0.028956 0.000000 0.000000
# 5 0.000000 0.000000 0.000000 0.000000 0.055498 0.000000
# 6 0.000000 0.000000 0.000000 0.000000 0.000000 0.011889
#
#
# Mechanical properties :
#
#
# Convention : Reuss Voigt Hill
#
# Bulk Modulus (GPa) = 34.23542 43.32211 38.77877
# Shear Modulus (GPa) = 25.22133 37.34237 31.28185
#
# Velocity S-wave (km/s) = 3.58501 4.36221 3.99257
# Velocity P-wave (km/s) = 5.88065 6.88824 6.40429
#
# Compressibility (1/GPa) = 0.02920952
#
# Stress axis : x y z
#
# Youngs Moduli (GPa) = 58.03369 31.30301 86.87896
#
# Poissons Ratio (x) = 0.32411 0.42572
# Poissons Ratio (y) = 0.60089 0.04211
# Poissons Ratio (z) = 0.28437 0.01517
#
# Static dielectric constant tensor:
#      x y z
#    x 1.759280 0.000000 0.000000 
#    y 0.000000 1.721370 0.000000 
#    z 0.000000 0.000000 1.620190 
# 
# From -- ./inp_files/45521.got.cif
#   From: 2010.05.17/outbox.cif.g08.bks.cpg/sg68_23_cif.got.tgz:45521.got - 2010.06.03 18:57:09.
