data_PCOD9509674
_publ_section_title
;
Structure prediction by ZEFSAII (Michael W. Deem and Ramdas Pophale) SiO2 
 PCOD9509674
Probable space group: C C C A
;
_chemical_formula_sum "Si O2"
_cell_formula_units_Z 60
_cell_length_a 20.812106
_cell_length_b 20.777302
_cell_length_c 5.149199
_cell_angle_alpha 90.000000
_cell_angle_beta 90.000000
_cell_angle_gamma 90.000000
_cell_volume 2226.613602
_symmetry_space_group_name_H-M "C C C A"
_symmetry_group_IT_number 68
_space_group.IT_coordinate_system_code '2'
_symmetry_cell_setting 'orthorhombic'
loop_
_space_group_symop_operation_xyz
x,y,z
-x,1/2-y,z
x,1/2-y,1/2-z
-x,y,1/2-z
-x,-y,-z
x,1/2+y,-z
-x,1/2+y,1/2+z
x,-y,1/2+z
1/2+x,1/2+y,z
1/2-x,-y,z
1/2+x,-y,1/2-z
1/2-x,1/2+y,1/2-z
1/2-x,1/2-y,-z
1/2+x,y,-z
1/2-x,y,1/2+z
1/2+x,1/2-y,1/2+z
loop_
_atom_site_type_symbol
_atom_site_label
_atom_site_fract_x
_atom_site_fract_y
_atom_site_fract_z
Si Si1 0.000000 0.250000 0.750000
Si Si2 0.105386 0.338960 0.673010
Si Si3 0.781814 0.117981 0.032720
Si Si4 0.682050 0.250000 0.750000
Si Si5 0.927729 0.971172 0.974863
O O1 0.052584 0.301759 0.847547
O O2 0.153527 0.375937 0.864780
O O3 0.139679 0.290404 0.466213
O O4 0.071603 0.395230 0.509616
O O5 0.730583 0.091142 0.822217
O O6 0.777693 0.194355 0.107953
O O7 0.894892 0.006841 0.213602
O O8 0.000000 0.000000 0.000000
#
# Coordination Sequence:
#
# PCOD9509674 Si02
#       5
#     4  16  16   8  16
#     4  12  24  44  60 116 160 184 218 312 370 456
#     4  12  27  43  73 110 151 191 242 298 382 437
#     4  12  25  45  73 107 150 194 242 293 369 452
#     4  12  24  42  68 116 149 193 228 304 374 458
#     4  10  24  46  71  97 135 197 247 291 341 433
#
# _framework density 26.946750999999999
#
# number of rings (size 3 to 8) (size 9 to 14) (size 15 to 20)
#    0.000    0.533    5.333    2.400    3.733    4.800 
#    0.000    0.000    0.000    4.800    0.000    0.000 
#    0.000    0.000    0.000    0.000    0.000    0.000 
#
# Total GULP energy -167143.452157 kJ/mol
# GULP energy per Si atom -5571.448405 kJ/mol
# Density = 2.688542 g / cm^3
# Si number density = 26.946751 Si / 1000 Ang^3
#
#
#
# Elastic Constant Matrix: (Units=GPa)
#
#
# Indices 1 2 3 4 5 6 
#
# 1 113.4006 34.7124 25.2617 0.0000 0.0000 0.0000
# 2 34.7124 85.6141 24.3579 0.0000 0.0000 0.0000
# 3 25.2617 24.3579 204.8362 0.0000 0.0000 0.0000
# 4 0.0000 0.0000 0.0000 38.3411 0.0000 0.0000
# 5 0.0000 0.0000 0.0000 0.0000 3.6670 0.0000
# 6 0.0000 0.0000 0.0000 0.0000 0.0000 38.0423
#
#
#
# Elastic Compliance Matrix: (Units=1/GPa)
#
#
# Indices 1 2 3 4 5 6 
#
# 1 0.010191 -0.003906 -0.000792 0.000000 0.000000 0.000000
# 2 -0.003906 0.013587 -0.001134 0.000000 0.000000 0.000000
# 3 -0.000792 -0.001134 0.005114 0.000000 0.000000 0.000000
# 4 0.000000 0.000000 0.000000 0.026082 0.000000 0.000000
# 5 0.000000 0.000000 0.000000 0.000000 0.272702 0.000000
# 6 0.000000 0.000000 0.000000 0.000000 0.000000 0.026287
#
#
# Mechanical properties :
#
#
# Convention : Reuss Voigt Hill
#
# Bulk Modulus (GPa) = 58.04918 63.61276 60.83097
# Shear Modulus (GPa) = 13.46370 37.31134 25.38752
#
# Velocity S-wave (km/s) = 2.23769 3.72510 3.07275
# Velocity P-wave (km/s) = 5.31651 6.49307 5.93402
#
# Compressibility (1/GPa) = 0.01722677
#
# Stress axis : x y z
#
# Youngs Moduli (GPa) = 98.13024 73.60104 195.52289
#
# Poissons Ratio (x) = 0.28751 0.15490
# Poissons Ratio (y) = 0.38333 0.22170
# Poissons Ratio (z) = 0.07774 0.08346
#
# Static dielectric constant tensor:
#      x y z
#    x 2.179410 0.000000 0.000000 
#    y 0.000000 2.123740 0.000000 
#    z 0.000000 0.000000 2.373500 
# 
# From -- ./inp_files/1428.got.cif
#   From: 2010.05.17/outbox.cif.g08.bks.cpg/sg68_1_cif.got.tgz:1428.got - 2010.06.03 18:57:09.
