data_PCOD9509937
_publ_section_title
;
Structure prediction by ZEFSAII (Michael W. Deem and Ramdas Pophale) SiO2 
 PCOD9509937
Probable space group: C C C A
;
_chemical_formula_sum "Si O2"
_cell_formula_units_Z 88
_cell_length_a 15.420395
_cell_length_b 11.096307
_cell_length_c 23.285988
_cell_angle_alpha 90.000000
_cell_angle_beta 90.000000
_cell_angle_gamma 90.000000
_cell_volume 3984.452296
_symmetry_space_group_name_H-M "C C C A"
_symmetry_group_IT_number 68
_space_group.IT_coordinate_system_code '2'
_symmetry_cell_setting 'orthorhombic'
loop_
_space_group_symop_operation_xyz
x,y,z
-x,1/2-y,z
x,1/2-y,1/2-z
-x,y,1/2-z
-x,-y,-z
x,1/2+y,-z
-x,1/2+y,1/2+z
x,-y,1/2+z
1/2+x,1/2+y,z
1/2-x,-y,z
1/2+x,-y,1/2-z
1/2-x,1/2+y,1/2-z
1/2-x,1/2-y,-z
1/2+x,y,-z
1/2-x,y,1/2+z
1/2+x,1/2-y,1/2+z
loop_
_atom_site_type_symbol
_atom_site_label
_atom_site_fract_x
_atom_site_fract_y
_atom_site_fract_z
Si Si1 0.405594 0.776994 0.875129
Si Si2 0.668217 0.443702 0.284756
Si Si3 0.148215 0.487330 0.836411
Si Si4 0.303421 0.250000 0.750000
Si Si5 0.102425 0.735872 0.871842
Si Si6 0.745651 0.355924 0.952176
O O1 0.500000 0.750000 0.900178
O O2 0.400890 0.873213 0.822643
O O3 0.378596 0.646428 0.852190
O O4 0.332795 0.828491 0.916478
O O5 0.750000 0.500000 0.321134
O O6 0.623490 0.511465 0.231098
O O7 0.732132 0.355744 0.249388
O O8 0.250000 0.500000 0.845277
O O9 0.112926 0.591717 0.877411
O O10 0.358633 0.237975 0.807976
O O11 0.160393 0.817780 0.914443
O O12 0.000000 0.750000 0.875384
O O13 0.750000 0.500000 0.968400
O O14 0.750000 0.250000 0.000000
#
# Coordination Sequence:
#
# PCOD9509937 Si02
#       6
#    16  16  16   8  16  16
#     4  12  26  43  73 108 146 190 254 306 372 443
#     4  11  19  37  67  99 152 201 241 286 354 431
#     4  11  20  42  70  99 153 202 234 299 357 441
#     4  12  19  40  67 106 150 196 243 280 363 448
#     4  12  27  45  75 113 149 196 249 309 374 451
#     4  12  30  55  83 107 146 195 250 326 392 456
#
# _framework density 22.085844999999999
#
# number of rings (size 3 to 8) (size 9 to 14) (size 15 to 20)
#    0.000    0.364    9.091    0.818    5.091    2.182 
#    3.273    1.818    0.000    0.000    0.000    0.000 
#    0.000    0.000    0.000    0.000    0.000    0.000 
#
# Total GULP energy -245003.923190 kJ/mol
# GULP energy per Si atom -5568.270982 kJ/mol
# Density = 2.203558 g / cm^3
# Si number density = 22.085845 Si / 1000 Ang^3
#
#
#
# Elastic Constant Matrix: (Units=GPa)
#
#
# Indices 1 2 3 4 5 6 
#
# 1 136.0414 15.2317 37.6485 0.0000 0.0000 0.0000
# 2 15.2317 107.4778 44.3064 0.0000 0.0000 0.0000
# 3 37.6485 44.3064 68.4704 0.0000 0.0000 0.0000
# 4 0.0000 0.0000 0.0000 36.0322 0.0000 0.0000
# 5 0.0000 0.0000 0.0000 0.0000 -25.1620 0.0000
# 6 0.0000 0.0000 0.0000 0.0000 0.0000 28.7660
#
#
#
# Elastic Compliance Matrix: (Units=1/GPa)
#
#
# Indices 1 2 3 4 5 6 
#
# 1 0.008750 0.001014 -0.005467 0.000000 0.000000 0.000000
# 2 0.001014 0.012807 -0.008844 0.000000 0.000000 0.000000
# 3 -0.005467 -0.008844 0.023334 0.000000 0.000000 0.000000
# 4 0.000000 0.000000 0.000000 0.027753 0.000000 0.000000
# 5 0.000000 0.000000 0.000000 0.000000 -0.039742 0.000000
# 6 0.000000 0.000000 0.000000 0.000000 0.000000 0.034763
#
#
# Mechanical properties :
#
#
# Convention : Reuss Voigt Hill
#
# Bulk Modulus (GPa) = 54.65954 56.26252 55.46103
# Shear Modulus (GPa) = 49.82119 22.24745 36.03432
#
# Velocity S-wave (km/s) = 4.75468 3.17727 4.04364
# Velocity P-wave (km/s) = 7.41249 6.24418 6.85328
#
# Compressibility (1/GPa) = 0.01829507
#
# Stress axis : x y z
#
# Youngs Moduli (GPa) = 114.28263 78.08500 42.85567
#
# Poissons Ratio (x) = -0.07916 0.23430
# Poissons Ratio (y) = -0.11585 0.37903
# Poissons Ratio (z) = 0.62482 0.69061
#
# Static dielectric constant tensor:
#      x y z
#    x 1.771710 0.000000 0.000000 
#    y 0.000000 2.292870 0.000000 
#    z 0.000000 0.000000 1.903070 
# 
# From -- ./inp_files/45303.got.cif
#   From: 2010.05.17/outbox.cif.g08.bks.cpg/sg68_23_cif.got.tgz:45303.got - 2010.06.03 18:57:09.
