data_PCOD9509665
_publ_section_title
;
Structure prediction by ZEFSAII (Michael W. Deem and Ramdas Pophale) SiO2 
 PCOD9509665
Probable space group: C C C A
;
_chemical_formula_sum "Si O2"
_cell_formula_units_Z 88
_cell_length_a 22.764459
_cell_length_b 11.130904
_cell_length_c 16.178588
_cell_angle_alpha 90.000000
_cell_angle_beta 90.000000
_cell_angle_gamma 90.000000
_cell_volume 4099.476360
_symmetry_space_group_name_H-M "C C C A"
_symmetry_group_IT_number 68
_space_group.IT_coordinate_system_code '2'
_symmetry_cell_setting 'orthorhombic'
loop_
_space_group_symop_operation_xyz
x,y,z
-x,1/2-y,z
x,1/2-y,1/2-z
-x,y,1/2-z
-x,-y,-z
x,1/2+y,-z
-x,1/2+y,1/2+z
x,-y,1/2+z
1/2+x,1/2+y,z
1/2-x,-y,z
1/2+x,-y,1/2-z
1/2-x,1/2+y,1/2-z
1/2-x,1/2-y,-z
1/2+x,y,-z
1/2-x,y,1/2+z
1/2+x,1/2-y,1/2+z
loop_
_atom_site_type_symbol
_atom_site_label
_atom_site_fract_x
_atom_site_fract_y
_atom_site_fract_z
Si Si1 0.493132 0.491707 0.349163
Si Si2 0.900084 0.834971 0.174839
Si Si3 0.899322 0.846816 0.457653
Si Si4 0.223535 0.376643 0.032514
Si Si5 0.224671 0.615515 0.215842
Si Si6 0.000000 0.250000 0.426495
O O1 0.500000 0.482640 0.250000
O O2 0.550454 0.412184 0.371067
O O3 0.438404 0.436249 0.400385
O O4 0.494384 0.630076 0.373169
O O5 0.923675 0.750000 0.250000
O O6 0.872586 0.745025 0.108460
O O7 0.845111 0.909449 0.207274
O O8 0.845623 0.889468 0.513323
O O9 0.944561 0.776360 0.515510
O O10 0.250000 0.500000 0.995391
O O11 0.240454 0.379778 0.129141
O O12 0.250000 0.250000 0.000000
O O13 0.229868 0.750000 0.250000
O O14 0.250000 0.500000 0.263814
#
# Coordination Sequence:
#
# PCOD9509665 Si02
#       6
#    16  16  16  16  16   8
#     4  12  26  47  71 104 143 188 238 293 368 432
#     4  11  22  45  75 103 132 191 246 287 347 445
#     4  12  25  45  74 104 140 190 243 288 357 441
#     4  11  26  45  71 103 143 186 239 295 355 421
#     4  10  24  46  70 103 140 188 242 297 357 429
#     4  12  29  40  69 108 148 176 232 308 373 404
#
# _framework density 21.466155000000001
#
# number of rings (size 3 to 8) (size 9 to 14) (size 15 to 20)
#    0.000    0.727    5.455    0.818    7.636    0.727 
#    3.273    0.000    0.000    0.000    0.000    0.000 
#    0.000    0.000    0.000    0.000    0.000    0.000 
#
# Total GULP energy -245442.350076 kJ/mol
# GULP energy per Si atom -5578.235229 kJ/mol
# Density = 2.141730 g / cm^3
# Si number density = 21.466155 Si / 1000 Ang^3
#
#
#
# Elastic Constant Matrix: (Units=GPa)
#
#
# Indices 1 2 3 4 5 6 
#
# 1 155.2426 64.0531 33.5685 0.0000 0.0000 0.0000
# 2 64.0531 144.4826 26.5178 0.0000 0.0000 0.0000
# 3 33.5685 26.5178 73.4371 0.0000 0.0000 0.0000
# 4 0.0000 0.0000 0.0000 46.0746 0.0000 0.0000
# 5 0.0000 0.0000 0.0000 0.0000 31.0728 0.0000
# 6 0.0000 0.0000 0.0000 0.0000 0.0000 34.0433
#
#
#
# Elastic Compliance Matrix: (Units=1/GPa)
#
#
# Indices 1 2 3 4 5 6 
#
# 1 0.008340 -0.003210 -0.002653 0.000000 0.000000 0.000000
# 2 -0.003210 0.008648 -0.001655 0.000000 0.000000 0.000000
# 3 -0.002653 -0.001655 0.015428 0.000000 0.000000 0.000000
# 4 0.000000 0.000000 0.000000 0.021704 0.000000 0.000000
# 5 0.000000 0.000000 0.000000 0.000000 0.032183 0.000000
# 6 0.000000 0.000000 0.000000 0.000000 0.000000 0.029374
#
#
# Mechanical properties :
#
#
# Convention : Reuss Voigt Hill
#
# Bulk Modulus (GPa) = 57.54308 69.04899 63.29604
# Shear Modulus (GPa) = 36.62832 38.83967 37.73400
#
# Velocity S-wave (km/s) = 4.13525 4.25825 4.19720
# Velocity P-wave (km/s) = 7.04734 7.51088 7.28280
#
# Compressibility (1/GPa) = 0.01737828
#
# Stress axis : x y z
#
# Youngs Moduli (GPa) = 119.90748 115.62962 64.81926
#
# Poissons Ratio (x) = 0.37121 0.17196
# Poissons Ratio (y) = 0.38494 0.10730
# Poissons Ratio (z) = 0.31810 0.19141
#
# Static dielectric constant tensor:
#      x y z
#    x 1.841440 0.000000 0.000000 
#    y 0.000000 1.813960 0.000000 
#    z 0.000000 0.000000 1.874450 
# 
# From -- ./inp_files/25248.got.cif
#   From: 2010.05.17/outbox.cif.g08.bks.cpg/sg68_13_cif.got.tgz:25248.got - 2010.06.03 18:57:09.
