data_PCOD9509812
_publ_section_title
;
Structure prediction by ZEFSAII (Michael W. Deem and Ramdas Pophale) SiO2 
 PCOD9509812
Probable space group: C C C A
;
_chemical_formula_sum "Si O2"
_cell_formula_units_Z 88
_cell_length_a 9.497287
_cell_length_b 18.937141
_cell_length_c 23.815227
_cell_angle_alpha 90.000000
_cell_angle_beta 90.000000
_cell_angle_gamma 90.000000
_cell_volume 4283.203418
_symmetry_space_group_name_H-M "C C C A"
_symmetry_group_IT_number 68
_space_group.IT_coordinate_system_code '2'
_symmetry_cell_setting 'orthorhombic'
loop_
_space_group_symop_operation_xyz
x,y,z
-x,1/2-y,z
x,1/2-y,1/2-z
-x,y,1/2-z
-x,-y,-z
x,1/2+y,-z
-x,1/2+y,1/2+z
x,-y,1/2+z
1/2+x,1/2+y,z
1/2-x,-y,z
1/2+x,-y,1/2-z
1/2-x,1/2+y,1/2-z
1/2-x,1/2-y,-z
1/2+x,y,-z
1/2-x,y,1/2+z
1/2+x,1/2-y,1/2+z
loop_
_atom_site_type_symbol
_atom_site_label
_atom_site_fract_x
_atom_site_fract_y
_atom_site_fract_z
Si Si1 0.176287 0.172875 0.511677
Si Si2 0.336646 0.435159 0.260874
Si Si3 0.710425 0.794586 0.698536
Si Si4 0.500000 0.250000 0.396670
Si Si5 0.750000 0.000000 0.371002
Si Si6 0.000000 0.750000 0.647421
Si Si7 0.439917 0.886587 0.069780
O O1 0.250000 0.250000 0.500000
O O2 0.073515 0.192486 0.563264
O O3 0.308474 0.126858 0.529062
O O4 0.083321 0.129548 0.465997
O O5 0.500000 0.442567 0.250000
O O6 0.250000 0.500000 0.237575
O O7 0.282610 0.370217 0.225985
O O8 0.307166 0.439321 0.327880
O O9 0.650667 0.750000 0.750000
O O10 0.614488 0.785985 0.643826
O O11 0.865175 0.769887 0.683097
O O12 0.883527 0.039439 0.401671
O O13 0.952112 0.680595 0.612150
#
# Coordination Sequence:
#
# PCOD9509812 Si02
#       7
#    16  16  16   8   8   8  16
#     4  12  22  43  70 104 136 177 237 305 365 423
#     4  10  25  46  67  97 147 191 232 289 357 422
#     4  12  25  40  68 105 137 182 241 286 348 427
#     4  12  22  38  66 102 138 176 220 298 356 408
#     4  10  28  44  70  96 150 190 238 292 364 434
#     4  12  24  40  76 106 138 178 246 300 360 426
#     4  12  24  45  71 105 139 187 234 302 369 437
#
# _framework density 20.545370999999999
#
# number of rings (size 3 to 8) (size 9 to 14) (size 15 to 20)
#    0.545    0.000    5.455    2.727    5.091    0.727 
#    0.000    0.000    2.000    0.000    0.000    0.000 
#    0.000    0.000    0.000    0.000    0.000    0.000 
#
# Total GULP energy -245036.467292 kJ/mol
# GULP energy per Si atom -5569.010620 kJ/mol
# Density = 2.049861 g / cm^3
# Si number density = 20.545371 Si / 1000 Ang^3
#
#
#
# Elastic Constant Matrix: (Units=GPa)
#
#
# Indices 1 2 3 4 5 6 
#
# 1 138.6132 17.1856 64.5938 0.0000 0.0000 0.0000
# 2 17.1856 79.1733 44.9783 0.0000 0.0000 0.0000
# 3 64.5938 44.9783 96.1035 0.0000 0.0000 0.0000
# 4 0.0000 0.0000 0.0000 15.0607 0.0000 0.0000
# 5 0.0000 0.0000 0.0000 0.0000 57.3147 0.0000
# 6 0.0000 0.0000 0.0000 0.0000 0.0000 14.0352
#
#
#
# Elastic Compliance Matrix: (Units=1/GPa)
#
#
# Indices 1 2 3 4 5 6 
#
# 1 0.010838 0.002433 -0.008423 0.000000 0.000000 0.000000
# 2 0.002433 0.017751 -0.009943 0.000000 0.000000 0.000000
# 3 -0.008423 -0.009943 0.020720 0.000000 0.000000 0.000000
# 4 0.000000 0.000000 0.000000 0.066398 0.000000 0.000000
# 5 0.000000 0.000000 0.000000 0.000000 0.017448 0.000000
# 6 0.000000 0.000000 0.000000 0.000000 0.000000 0.071249
#
#
# Mechanical properties :
#
#
# Convention : Reuss Voigt Hill
#
# Bulk Modulus (GPa) = 57.33065 63.04505 60.18785
# Shear Modulus (GPa) = 20.65397 29.75760 25.20579
#
# Velocity S-wave (km/s) = 3.17406 3.80989 3.50642
# Velocity P-wave (km/s) = 6.43412 7.07857 6.76402
#
# Compressibility (1/GPa) = 0.01744268
#
# Stress axis : x y z
#
# Youngs Moduli (GPa) = 92.26980 56.33482 48.26231
#
# Poissons Ratio (x) = -0.13704 0.40651
# Poissons Ratio (y) = -0.22445 0.47986
# Poissons Ratio (z) = 0.77717 0.56013
#
# Static dielectric constant tensor:
#      x y z
#    x 1.722530 0.000000 0.000000 
#    y 0.000000 1.753860 0.000000 
#    z 0.000000 0.000000 1.798160 
# 
# From -- ./inp_files/43201.got.cif
#   From: 2010.05.17/outbox.cif.g08.bks.cpg/sg68_22_cif.got.tgz:43201.got - 2010.06.03 18:57:09.
