data_PCOD9509268
_publ_section_title
;
Structure prediction by ZEFSAII (Michael W. Deem and Ramdas Pophale) SiO2 
 PCOD9509268
Probable space group: C C C A
;
_chemical_formula_sum "Si O2"
_cell_formula_units_Z 96
_cell_length_a 14.309632
_cell_length_b 20.796425
_cell_length_c 14.400462
_cell_angle_alpha 90.000000
_cell_angle_beta 90.000000
_cell_angle_gamma 90.000000
_cell_volume 4285.421803
_symmetry_space_group_name_H-M "C C C A"
_symmetry_group_IT_number 68
_space_group.IT_coordinate_system_code '2'
_symmetry_cell_setting 'orthorhombic'
loop_
_space_group_symop_operation_xyz
x,y,z
-x,1/2-y,z
x,1/2-y,1/2-z
-x,y,1/2-z
-x,-y,-z
x,1/2+y,-z
-x,1/2+y,1/2+z
x,-y,1/2+z
1/2+x,1/2+y,z
1/2-x,-y,z
1/2+x,-y,1/2-z
1/2-x,1/2+y,1/2-z
1/2-x,1/2-y,-z
1/2+x,y,-z
1/2-x,y,1/2+z
1/2+x,1/2-y,1/2+z
loop_
_atom_site_type_symbol
_atom_site_label
_atom_site_fract_x
_atom_site_fract_y
_atom_site_fract_z
Si Si1 0.901976 0.109621 0.425799
Si Si2 0.343426 0.969586 0.581158
Si Si3 0.758580 0.866396 0.561125
Si Si4 0.558446 0.191855 0.530849
Si Si5 0.720031 0.323116 0.733694
Si Si6 0.575954 0.153506 0.329272
O O1 0.842510 0.138732 0.513146
O O2 0.845564 0.137122 0.336895
O O3 0.008867 0.131280 0.421475
O O4 0.900452 0.033336 0.440401
O O5 0.304889 0.927647 0.493379
O O6 0.398730 0.920323 0.645397
O O7 0.250000 0.000000 0.626786
O O8 0.830822 0.808639 0.539186
O O9 0.761748 0.864018 0.672055
O O10 0.500000 0.250000 0.570835
O O11 0.537923 0.184219 0.422832
O O12 0.683667 0.250000 0.750000
O O13 0.823633 0.315575 0.691573
O O14 0.500000 0.159469 0.250000
#
# Coordination Sequence:
#
# PCOD9509268 Si02
#       6
#    16  16  16  16  16  16
#     4  11  23  46  68  93 138 181 216 283 329 391
#     4   9  19  47  63  88 134 170 220 272 325 396
#     4  10  23  43  64 100 126 178 221 272 333 396
#     4  11  24  41  66  93 135 176 220 270 330 399
#     4  12  25  41  69  99 134 175 222 269 342 403
#     4  11  24  40  63 103 129 167 224 279 331 391
#
# _framework density 22.401530000000001
#
# number of rings (size 3 to 8) (size 9 to 14) (size 15 to 20)
#    0.000    1.333    5.000    2.000    4.667    4.667 
#   15.000    1.667    0.000    0.000    0.000    0.000 
#    0.000    0.000    0.000    0.000    0.000    0.000 
#
# Total GULP energy -267864.207993 kJ/mol
# GULP energy per Si atom -5580.504333 kJ/mol
# Density = 2.235054 g / cm^3
# Si number density = 22.401530 Si / 1000 Ang^3
#
#
#
# Elastic Constant Matrix: (Units=GPa)
#
#
# Indices 1 2 3 4 5 6 
#
# 1 64.6993 -0.5283 -1.4382 0.0000 0.0000 0.0000
# 2 -0.5283 71.5741 -16.5954 0.0000 0.0000 0.0000
# 3 -1.4382 -16.5954 98.5107 0.0000 0.0000 0.0000
# 4 0.0000 0.0000 0.0000 -35.8667 0.0000 0.0000
# 5 0.0000 0.0000 0.0000 0.0000 37.6578 0.0000
# 6 0.0000 0.0000 0.0000 0.0000 0.0000 30.6817
#
#
#
# Elastic Compliance Matrix: (Units=1/GPa)
#
#
# Indices 1 2 3 4 5 6 
#
# 1 0.015463 0.000173 0.000255 0.000000 0.000000 0.000000
# 2 0.000173 0.014541 0.002452 0.000000 0.000000 0.000000
# 3 0.000255 0.002452 0.010568 0.000000 0.000000 0.000000
# 4 0.000000 0.000000 0.000000 -0.027881 0.000000 0.000000
# 5 0.000000 0.000000 0.000000 0.000000 0.026555 0.000000
# 6 0.000000 0.000000 0.000000 0.000000 0.000000 0.032593
#
#
# Mechanical properties :
#
#
# Convention : Reuss Voigt Hill
#
# Bulk Modulus (GPa) = 21.58272 21.96227 21.77250
# Shear Modulus (GPa) = 61.33246 23.38429 42.35838
#
# Velocity S-wave (km/s) = 5.23814 3.23440 4.35313
# Velocity P-wave (km/s) = 6.79997 4.87583 5.91664
#
# Compressibility (1/GPa) = 0.04633337
#
# Stress axis : x y z
#
# Youngs Moduli (GPa) = 64.66968 68.76917 94.62520
#
# Poissons Ratio (x) = -0.01191 -0.02412
# Poissons Ratio (y) = -0.01120 -0.23204
# Poissons Ratio (z) = -0.01649 -0.16864
#
# Static dielectric constant tensor:
#      x y z
#    x 1.840260 0.000000 0.000000 
#    y 0.000000 1.469870 0.000000 
#    z 0.000000 0.000000 1.854840 
# 
# From -- ./inp_files/22355.got.cif
#   From: 2010.05.17/outbox.cif.g08.bks.cpg/sg68_12_cif.got.tgz:22355.got - 2010.06.03 18:57:09.
