data_PCOD9509897
_publ_section_title
;
Structure prediction by ZEFSAII (Michael W. Deem and Ramdas Pophale) SiO2 
 PCOD9509897
Probable space group: C C C A
;
_chemical_formula_sum "Si O2"
_cell_formula_units_Z 56
_cell_length_a 24.165655
_cell_length_b 10.762569
_cell_length_c 8.880453
_cell_angle_alpha 90.000000
_cell_angle_beta 90.000000
_cell_angle_gamma 90.000000
_cell_volume 2309.668439
_symmetry_space_group_name_H-M "C C C A"
_symmetry_group_IT_number 68
_space_group.IT_coordinate_system_code '2'
_symmetry_cell_setting 'orthorhombic'
loop_
_space_group_symop_operation_xyz
x,y,z
-x,1/2-y,z
x,1/2-y,1/2-z
-x,y,1/2-z
-x,-y,-z
x,1/2+y,-z
-x,1/2+y,1/2+z
x,-y,1/2+z
1/2+x,1/2+y,z
1/2-x,-y,z
1/2+x,-y,1/2-z
1/2-x,1/2+y,1/2-z
1/2-x,1/2-y,-z
1/2+x,y,-z
1/2-x,y,1/2+z
1/2+x,1/2-y,1/2+z
loop_
_atom_site_type_symbol
_atom_site_label
_atom_site_fract_x
_atom_site_fract_y
_atom_site_fract_z
Si Si1 0.827737 0.392714 0.731938
Si Si2 0.440770 0.059911 0.341355
Si Si3 0.250000 0.500000 0.015366
Si Si4 0.563817 0.777879 0.086597
O O1 0.836668 0.250000 0.750000
O O2 0.888360 0.451856 0.729626
O O3 0.788279 0.416857 0.590911
O O4 0.793464 0.434619 0.876757
O O5 0.500000 0.073459 0.250000
O O6 0.425857 0.178299 0.450693
O O7 0.437620 0.928093 0.429560
O O8 0.500000 0.750000 0.107187
O O9 0.592498 0.750000 0.250000
#
# Coordination Sequence:
#
# PCOD9509897 Si02
#       4
#    16  16   8  16
#     4  11  27  49  83 112 155 211 261 336 394 471
#     4  12  29  50  79 120 162 209 259 326 405 484
#     4  10  26  54  76 114 152 200 286 320 396 456
#     4  11  26  48  73 108 165 211 258 308 391 477
#
# _framework density 24.245906000000002
#
# number of rings (size 3 to 8) (size 9 to 14) (size 15 to 20)
#    0.000    0.857    2.857    1.714   12.000    0.000 
#    5.143    0.000    0.000    0.000    0.000    0.000 
#    0.000    0.000    0.000    0.000    0.000    0.000 
#
# Total GULP energy -156192.169309 kJ/mol
# GULP energy per Si atom -5578.291761 kJ/mol
# Density = 2.419072 g / cm^3
# Si number density = 24.245906 Si / 1000 Ang^3
#
#
#
# Elastic Constant Matrix: (Units=GPa)
#
#
# Indices 1 2 3 4 5 6 
#
# 1 166.3750 49.3934 70.7256 0.0000 0.0000 0.0000
# 2 49.3934 183.6947 73.7994 0.0000 0.0000 0.0000
# 3 70.7256 73.7994 172.7908 0.0000 0.0000 0.0000
# 4 0.0000 0.0000 0.0000 -180.2086 0.0000 0.0000
# 5 0.0000 0.0000 0.0000 0.0000 -10.1233 0.0000
# 6 0.0000 0.0000 0.0000 0.0000 0.0000 26.4386
#
#
#
# Elastic Compliance Matrix: (Units=1/GPa)
#
#
# Indices 1 2 3 4 5 6 
#
# 1 0.007407 -0.000934 -0.002633 0.000000 0.000000 0.000000
# 2 -0.000934 0.006689 -0.002475 0.000000 0.000000 0.000000
# 3 -0.002633 -0.002475 0.007922 0.000000 0.000000 0.000000
# 4 0.000000 0.000000 0.000000 -0.005549 0.000000 0.000000
# 5 0.000000 0.000000 0.000000 0.000000 -0.098782 0.000000
# 6 0.000000 0.000000 0.000000 0.000000 0.000000 0.037824
#
#
# Mechanical properties :
#
#
# Convention : Reuss Voigt Hill
#
# Bulk Modulus (GPa) = 100.65297 101.18859 100.92078
# Shear Modulus (GPa) = -171.85506 -10.84921 -91.35214
#
# Velocity S-wave (km/s) = -8.42816 -2.11763 -6.14485
# Velocity P-wave (km/s) = 7.28755 5.98713 2.93791
#
# Compressibility (1/GPa) = 0.00993513
#
# Stress axis : x y z
#
# Youngs Moduli (GPa) = 135.00697 149.49615 126.23087
#
# Poissons Ratio (x) = 0.13961 0.33236
# Poissons Ratio (y) = 0.12608 0.31238
# Poissons Ratio (z) = 0.35546 0.36996
#
# Static dielectric constant tensor:
#      x y z
#    x 1.787180 0.000000 0.000000 
#    y 0.000000 2.012470 0.000000 
#    z 0.000000 0.000000 1.775920 
# 
# From -- ./inp_files/8521.got.cif
#   From: 2010.05.17/outbox.cif.g08.bks.cpg/sg68_5_cif.got.tgz:8521.got - 2010.06.03 18:57:09.
