data_PCOD9509855
_publ_section_title
;
Structure prediction by ZEFSAII (Michael W. Deem and Ramdas Pophale) SiO2 
 PCOD9509855
Probable space group: C C C A
;
_chemical_formula_sum "Si O2"
_cell_formula_units_Z 88
_cell_length_a 14.050600
_cell_length_b 21.665469
_cell_length_c 13.335510
_cell_angle_alpha 90.000000
_cell_angle_beta 90.000000
_cell_angle_gamma 90.000000
_cell_volume 4059.500455
_symmetry_space_group_name_H-M "C C C A"
_symmetry_group_IT_number 68
_space_group.IT_coordinate_system_code '2'
_symmetry_cell_setting 'orthorhombic'
loop_
_space_group_symop_operation_xyz
x,y,z
-x,1/2-y,z
x,1/2-y,1/2-z
-x,y,1/2-z
-x,-y,-z
x,1/2+y,-z
-x,1/2+y,1/2+z
x,-y,1/2+z
1/2+x,1/2+y,z
1/2-x,-y,z
1/2+x,-y,1/2-z
1/2-x,1/2+y,1/2-z
1/2-x,1/2-y,-z
1/2+x,y,-z
1/2-x,y,1/2+z
1/2+x,1/2-y,1/2+z
loop_
_atom_site_type_symbol
_atom_site_label
_atom_site_fract_x
_atom_site_fract_y
_atom_site_fract_z
Si Si1 0.047455 0.088526 0.977678
Si Si2 0.659232 0.750000 0.750000
Si Si3 0.145456 0.644848 0.392344
Si Si4 0.779806 0.835211 0.074413
Si Si5 0.959158 0.523479 0.843446
Si Si6 0.223401 0.928728 0.760428
O O1 0.116985 0.147262 0.971296
O O2 0.944048 0.106234 0.932390
O O3 0.083217 0.027728 0.917778
O O4 0.030055 0.063065 0.088764
O O5 0.608435 0.695483 0.688198
O O6 0.717198 0.717281 0.840203
O O7 0.200992 0.672864 0.488567
O O8 0.225963 0.605871 0.332072
O O9 0.759454 0.896044 0.139288
O O10 0.888218 0.569154 0.785818
O O11 0.000000 0.485205 0.750000
O O12 0.250000 0.000000 0.750900
#
# Coordination Sequence:
#
# PCOD9509855 Si02
#       6
#    16   8  16  16  16  16
#     4  11  24  38  66  97 133 174 215 272 324 405
#     4  10  26  43  70  89 126 170 234 293 318 391
#     4  11  24  43  67  95 130 178 222 271 342 384
#     4  11  23  43  64  94 130 170 224 274 337 384
#     4  11  22  39  59  98 139 169 210 262 324 399
#     4  11  21  37  63  94 133 175 207 259 324 405
#
# _framework density 21.677544000000001
#
# number of rings (size 3 to 8) (size 9 to 14) (size 15 to 20)
#    0.000    1.091    3.636    2.727    2.545    3.636 
#    0.000    0.000    0.000    1.091    0.000    0.000 
#    0.000    0.000    0.000    0.000    0.000    0.000 
#
# Total GULP energy -245165.488331 kJ/mol
# GULP energy per Si atom -5571.942917 kJ/mol
# Density = 2.162821 g / cm^3
# Si number density = 21.677544 Si / 1000 Ang^3
#
#
#
# Elastic Constant Matrix: (Units=GPa)
#
#
# Indices 1 2 3 4 5 6 
#
# 1 59.0811 6.1740 36.5730 0.0000 0.0000 0.0000
# 2 6.1740 74.5657 41.3756 0.0000 0.0000 0.0000
# 3 36.5730 41.3756 143.2230 0.0000 0.0000 0.0000
# 4 0.0000 0.0000 0.0000 29.5610 0.0000 0.0000
# 5 0.0000 0.0000 0.0000 0.0000 23.1191 0.0000
# 6 0.0000 0.0000 0.0000 0.0000 0.0000 2.7206
#
#
#
# Elastic Compliance Matrix: (Units=1/GPa)
#
#
# Indices 1 2 3 4 5 6 
#
# 1 0.020229 0.001419 -0.005576 0.000000 0.000000 0.000000
# 2 0.001419 0.016071 -0.005005 0.000000 0.000000 0.000000
# 3 -0.005576 -0.005005 0.009852 0.000000 0.000000 0.000000
# 4 0.000000 0.000000 0.000000 0.033828 0.000000 0.000000
# 5 0.000000 0.000000 0.000000 0.000000 0.043254 0.000000
# 6 0.000000 0.000000 0.000000 0.000000 0.000000 0.367565
#
#
# Mechanical properties :
#
#
# Convention : Reuss Voigt Hill
#
# Bulk Modulus (GPa) = 35.93478 49.45723 42.69601
# Shear Modulus (GPa) = 9.64508 23.92995 16.78752
#
# Velocity S-wave (km/s) = 2.11163 3.32611 2.78586
# Velocity P-wave (km/s) = 4.74956 6.13312 5.48514
#
# Compressibility (1/GPa) = 0.02782819
#
# Stress axis : x y z
#
# Youngs Moduli (GPa) = 49.43391 62.22494 101.50486
#
# Poissons Ratio (x) = -0.08829 0.56594
# Poissons Ratio (y) = -0.07014 0.50803
# Poissons Ratio (z) = 0.27562 0.31143
#
# Static dielectric constant tensor:
#      x y z
#    x 1.907210 0.000000 0.000000 
#    y 0.000000 1.811830 0.000000 
#    z 0.000000 0.000000 1.799060 
# 
# From -- ./inp_files/13308.got.cif
#   From: 2010.05.17/outbox.cif.g08.bks.cpg/sg68_7_cif.got.tgz:13308.got - 2010.06.03 18:57:09.
