data_PCOD9509134
_publ_section_title
;
Structure prediction by ZEFSAII (Michael W. Deem and Ramdas Pophale) SiO2 
 PCOD9509134
Probable space group: C C C A
;
_chemical_formula_sum "Si O2"
_cell_formula_units_Z 108
_cell_length_a 21.184261
_cell_length_b 10.693932
_cell_length_c 25.907172
_cell_angle_alpha 90.000000
_cell_angle_beta 90.000000
_cell_angle_gamma 90.000000
_cell_volume 5869.089674
_symmetry_space_group_name_H-M "C C C A"
_symmetry_group_IT_number 68
_space_group.IT_coordinate_system_code '2'
_symmetry_cell_setting 'orthorhombic'
loop_
_space_group_symop_operation_xyz
x,y,z
-x,1/2-y,z
x,1/2-y,1/2-z
-x,y,1/2-z
-x,-y,-z
x,1/2+y,-z
-x,1/2+y,1/2+z
x,-y,1/2+z
1/2+x,1/2+y,z
1/2-x,-y,z
1/2+x,-y,1/2-z
1/2-x,1/2+y,1/2-z
1/2-x,1/2-y,-z
1/2+x,y,-z
1/2-x,y,1/2+z
1/2+x,1/2-y,1/2+z
loop_
_atom_site_type_symbol
_atom_site_label
_atom_site_fract_x
_atom_site_fract_y
_atom_site_fract_z
Si Si1 0.424581 0.426253 0.885659
Si Si2 0.691380 0.420908 0.069423
Si Si3 0.000000 0.750000 0.250000
Si Si4 0.859761 0.650018 0.422872
Si Si5 0.545489 0.442574 0.335516
Si Si6 0.575282 0.279738 0.806883
Si Si7 0.463374 0.868830 0.006402
Si Si8 0.250000 0.500000 0.533123
O O1 0.370682 0.502657 0.915113
O O2 0.476246 0.515596 0.857587
O O3 0.398168 0.321165 0.847052
O O4 0.457619 0.354605 0.932518
O O5 0.750000 0.500000 0.092626
O O6 0.673495 0.282490 0.086328
O O7 0.711832 0.414125 0.008708
O O8 0.962920 0.655028 0.288487
O O9 0.911644 0.617747 0.379961
O O10 0.897076 0.637899 0.477164
O O11 0.802316 0.556556 0.430079
O O12 0.578386 0.573672 0.319464
O O13 0.500000 0.250000 0.807256
O O14 0.599658 0.250000 0.750000
O O15 0.500000 0.750000 0.984027
O O16 0.500000 0.000000 0.000000
#
# Coordination Sequence:
#
# PCOD9509134 Si02
#       8
#    16  16   4  16  16  16  16   8
#     4  11  20  39  63  93 128 167 210 263 336 389
#     4  10  23  40  58  87 125 180 218 257 315 387
#     4  12  24  40  62  96 140 160 208 274 340 404
#     4  12  24  39  62  92 134 169 221 263 322 394
#     4  11  23  37  63 101 125 167 208 272 340 385
#     4   9  19  36  59  89 125 160 209 259 318 394
#     4  12  23  35  57  93 137 168 205 262 329 403
#     4  10  24  42  58  86 130 174 224 250 300 384
#
# _framework density 18.401491
#
# number of rings (size 3 to 8) (size 9 to 14) (size 15 to 20)
#    0.444    0.741    2.963    5.333    1.037    1.185 
#    0.000    0.000    0.000    0.000   30.815    0.000 
#    0.000    0.000    0.000    0.000    0.000    0.000 
#
# Total GULP energy -300776.108159 kJ/mol
# GULP energy per Si atom -5569.927929 kJ/mol
# Density = 1.835961 g / cm^3
# Si number density = 18.401491 Si / 1000 Ang^3
#
#
#
# Elastic Constant Matrix: (Units=GPa)
#
#
# Indices 1 2 3 4 5 6 
#
# 1 74.5556 33.1760 10.6684 0.0000 0.0000 0.0000
# 2 33.1760 86.3516 30.1372 0.0000 0.0000 0.0000
# 3 10.6684 30.1372 99.2872 0.0000 0.0000 0.0000
# 4 0.0000 0.0000 0.0000 5.0045 0.0000 0.0000
# 5 0.0000 0.0000 0.0000 0.0000 30.5899 0.0000
# 6 0.0000 0.0000 0.0000 0.0000 0.0000 21.1747
#
#
#
# Elastic Compliance Matrix: (Units=1/GPa)
#
#
# Indices 1 2 3 4 5 6 
#
# 1 0.016181 -0.006275 0.000166 0.000000 0.000000 0.000000
# 2 -0.006275 0.015386 -0.003996 0.000000 0.000000 0.000000
# 3 0.000166 -0.003996 0.011267 0.000000 0.000000 0.000000
# 4 0.000000 0.000000 0.000000 0.199821 0.000000 0.000000
# 5 0.000000 0.000000 0.000000 0.000000 0.032691 0.000000
# 6 0.000000 0.000000 0.000000 0.000000 0.000000 0.047226
#
#
# Mechanical properties :
#
#
# Convention : Reuss Voigt Hill
#
# Bulk Modulus (GPa) = 44.19978 45.35085 44.77531
# Shear Modulus (GPa) = 14.27255 23.76801 19.02028
#
# Velocity S-wave (km/s) = 2.78802 3.59783 3.21849
# Velocity P-wave (km/s) = 5.86821 6.47749 6.18036
#
# Compressibility (1/GPa) = 0.02262455
#
# Stress axis : x y z
#
# Youngs Moduli (GPa) = 61.80011 64.99464 88.75577
#
# Poissons Ratio (x) = 0.40782 -0.01473
# Poissons Ratio (y) = 0.38778 0.35466
# Poissons Ratio (z) = -0.01025 0.25971
#
# Static dielectric constant tensor:
#      x y z
#    x 1.483030 0.000000 0.000000 
#    y 0.000000 1.688270 0.000000 
#    z 0.000000 0.000000 1.641870 
# 
# From -- ./inp_files/46690.got.cif
#   From: 2010.05.17/outbox.cif.g08.bks.cpg/sg68_24_cif.got.tgz:46690.got - 2010.06.03 18:57:09.
