data_PCOD9509732
_publ_section_title
;
Structure prediction by ZEFSAII (Michael W. Deem and Ramdas Pophale) SiO2 
 PCOD9509732
Probable space group: C C C A
;
_chemical_formula_sum "Si O2"
_cell_formula_units_Z 56
_cell_length_a 21.108830
_cell_length_b 10.285167
_cell_length_c 10.175104
_cell_angle_alpha 90.000000
_cell_angle_beta 90.000000
_cell_angle_gamma 90.000000
_cell_volume 2209.094869
_symmetry_space_group_name_H-M "C C C A"
_symmetry_group_IT_number 68
_space_group.IT_coordinate_system_code '2'
_symmetry_cell_setting 'orthorhombic'
loop_
_space_group_symop_operation_xyz
x,y,z
-x,1/2-y,z
x,1/2-y,1/2-z
-x,y,1/2-z
-x,-y,-z
x,1/2+y,-z
-x,1/2+y,1/2+z
x,-y,1/2+z
1/2+x,1/2+y,z
1/2-x,-y,z
1/2+x,-y,1/2-z
1/2-x,1/2+y,1/2-z
1/2-x,1/2-y,-z
1/2+x,y,-z
1/2-x,y,1/2+z
1/2+x,1/2-y,1/2+z
loop_
_atom_site_type_symbol
_atom_site_label
_atom_site_fract_x
_atom_site_fract_y
_atom_site_fract_z
Si Si1 0.912132 0.877344 0.005624
Si Si2 0.940683 0.389571 0.648715
Si Si3 0.322974 0.007230 0.318223
Si Si4 0.115296 0.250000 0.250000
O O1 0.922971 0.821501 0.861488
O O2 0.939973 0.022373 0.983879
O O3 0.935167 0.760133 0.099768
O O4 0.840193 0.911719 0.050177
O O5 0.873969 0.428423 0.718256
O O6 0.000000 0.418743 0.750000
O O7 0.343407 0.857242 0.324707
O O8 0.250000 0.000000 0.281942
#
# Coordination Sequence:
#
# PCOD9509732 Si02
#       4
#    16  16  16   8
#     4  11  24  52  80 119 159 213 263 344 400 483
#     4  11  27  54  83 122 163 212 276 334 409 486
#     4  11  26  47  81 118 164 212 272 330 405 482
#     4  10  24  48  73 120 153 206 268 326 400 480
#
# _framework density 25.349751000000001
#
# number of rings (size 3 to 8) (size 9 to 14) (size 15 to 20)
#    0.000    1.143    2.857    0.857    4.000    9.143 
#   10.286    7.857    0.000    0.000    0.000    0.000 
#    0.000    0.000    0.000    0.000    0.000    0.000 
#
# Total GULP energy -155979.570149 kJ/mol
# GULP energy per Si atom -5570.698934 kJ/mol
# Density = 2.529205 g / cm^3
# Si number density = 25.349751 Si / 1000 Ang^3
#
#
#
# Elastic Constant Matrix: (Units=GPa)
#
#
# Indices 1 2 3 4 5 6 
#
# 1 191.8337 46.3254 47.4968 0.0000 0.0000 0.0000
# 2 46.3254 183.0151 39.2337 0.0000 0.0000 0.0000
# 3 47.4968 39.2337 91.1058 0.0000 0.0000 0.0000
# 4 0.0000 0.0000 0.0000 -6.4556 0.0000 0.0000
# 5 0.0000 0.0000 0.0000 0.0000 18.6040 0.0000
# 6 0.0000 0.0000 0.0000 0.0000 0.0000 12.2968
#
#
#
# Elastic Compliance Matrix: (Units=1/GPa)
#
#
# Indices 1 2 3 4 5 6 
#
# 1 0.006133 -0.000955 -0.002786 0.000000 0.000000 0.000000
# 2 -0.000955 0.006169 -0.002158 0.000000 0.000000 0.000000
# 3 -0.002786 -0.002158 0.013358 0.000000 0.000000 0.000000
# 4 0.000000 0.000000 0.000000 -0.154904 0.000000 0.000000
# 5 0.000000 0.000000 0.000000 0.000000 0.053752 0.000000
# 6 0.000000 0.000000 0.000000 0.000000 0.000000 0.081322
#
#
# Mechanical properties :
#
#
# Convention : Reuss Voigt Hill
#
# Bulk Modulus (GPa) = 72.14731 81.34071 76.74401
# Shear Modulus (GPa) = 224.72281 27.08230 125.90256
#
# Velocity S-wave (km/s) = 9.42557 3.27210 7.05507
# Velocity P-wave (km/s) = 12.12344 6.81415 9.83388
#
# Compressibility (1/GPa) = 0.01386053
#
# Stress axis : x y z
#
# Youngs Moduli (GPa) = 163.04267 162.11328 74.85989
#
# Poissons Ratio (x) = 0.15485 0.20857
# Poissons Ratio (y) = 0.15574 0.16158
# Poissons Ratio (z) = 0.45427 0.34991
#
# Static dielectric constant tensor:
#      x y z
#    x 1.972890 0.000000 0.000000 
#    y 0.000000 2.027200 0.000000 
#    z 0.000000 0.000000 2.230890 
# 
# From -- ./inp_files/15082.got.cif
#   From: 2010.05.17/outbox.cif.g08.bks.cpg/sg68_8_cif.got.tgz:15082.got - 2010.06.03 18:57:09.
