data_PCOD9509371
_publ_section_title
;
Structure prediction by ZEFSAII (Michael W. Deem and Ramdas Pophale) SiO2 
 PCOD9509371
Probable space group: C C C A
;
_chemical_formula_sum "Si O2"
_cell_formula_units_Z 48
_cell_length_a 11.543062
_cell_length_b 15.591088
_cell_length_c 12.550988
_cell_angle_alpha 90.000000
_cell_angle_beta 90.000000
_cell_angle_gamma 90.000000
_cell_volume 2258.787447
_symmetry_space_group_name_H-M "C C C A"
_symmetry_group_IT_number 68
_space_group.IT_coordinate_system_code '2'
_symmetry_cell_setting 'orthorhombic'
loop_
_space_group_symop_operation_xyz
x,y,z
-x,1/2-y,z
x,1/2-y,1/2-z
-x,y,1/2-z
-x,-y,-z
x,1/2+y,-z
-x,1/2+y,1/2+z
x,-y,1/2+z
1/2+x,1/2+y,z
1/2-x,-y,z
1/2+x,-y,1/2-z
1/2-x,1/2+y,1/2-z
1/2-x,1/2-y,-z
1/2+x,y,-z
1/2-x,y,1/2+z
1/2+x,1/2-y,1/2+z
loop_
_atom_site_type_symbol
_atom_site_label
_atom_site_fract_x
_atom_site_fract_y
_atom_site_fract_z
Si Si1 0.439963 0.610029 0.640663
Si Si2 0.694702 0.328812 0.814443
Si Si3 0.500000 0.250000 0.968023
Si Si4 0.000000 0.447993 0.250000
O O1 0.500000 0.644478 0.750000
O O2 0.301072 0.615109 0.645408
O O3 0.474031 0.668824 0.542725
O O4 0.482113 0.511265 0.649221
O O5 0.748692 0.250000 0.750000
O O6 0.608410 0.282592 0.897737
O O7 0.611485 0.387997 0.742897
#
# Coordination Sequence:
#
# PCOD9509371 Si02
#       4
#    16  16   8   8
#     4  10  25  42  68  97 137 172 221 271 338 385
#     4  12  22  45  69  96 135 177 221 271 330 402
#     4  12  22  42  70 104 128 178 228 268 332 400
#     4  10  23  45  64  98 132 176 220 273 333 380
#
# _framework density 21.250337999999999
#
# number of rings (size 3 to 8) (size 9 to 14) (size 15 to 20)
#    1.000    0.000    3.333    4.500    0.000    1.333 
#    0.000    0.000    0.000    0.000    0.000    0.000 
#    0.000    0.000    0.000    0.000    0.000    0.000 
#
# Total GULP energy -133819.567485 kJ/mol
# GULP energy per Si atom -5575.815312 kJ/mol
# Density = 2.120197 g / cm^3
# Si number density = 21.250338 Si / 1000 Ang^3
#
#
#
# Elastic Constant Matrix: (Units=GPa)
#
#
# Indices 1 2 3 4 5 6 
#
# 1 99.2878 23.3393 32.8980 0.0000 0.0000 0.0000
# 2 23.3393 130.8538 28.0923 0.0000 0.0000 0.0000
# 3 32.8980 28.0923 51.5806 0.0000 0.0000 0.0000
# 4 0.0000 0.0000 0.0000 24.5715 0.0000 0.0000
# 5 0.0000 0.0000 0.0000 0.0000 8.2429 0.0000
# 6 0.0000 0.0000 0.0000 0.0000 0.0000 10.3545
#
#
#
# Elastic Compliance Matrix: (Units=1/GPa)
#
#
# Indices 1 2 3 4 5 6 
#
# 1 0.012812 -0.000601 -0.007844 0.000000 0.000000 0.000000
# 2 -0.000601 0.008682 -0.004345 0.000000 0.000000 0.000000
# 3 -0.007844 -0.004345 0.026757 0.000000 0.000000 0.000000
# 4 0.000000 0.000000 0.000000 0.040698 0.000000 0.000000
# 5 0.000000 0.000000 0.000000 0.000000 0.121316 0.000000
# 6 0.000000 0.000000 0.000000 0.000000 0.000000 0.096577
#
#
# Mechanical properties :
#
#
# Convention : Reuss Voigt Hill
#
# Bulk Modulus (GPa) = 44.11117 50.04239 47.07678
# Shear Modulus (GPa) = 14.70678 21.79327 18.25003
#
# Velocity S-wave (km/s) = 2.63358 3.20589 2.93373
# Velocity P-wave (km/s) = 5.48184 6.10768 5.80321
#
# Compressibility (1/GPa) = 0.02266999
#
# Stress axis : x y z
#
# Youngs Moduli (GPa) = 78.05108 115.17844 37.37396
#
# Poissons Ratio (x) = 0.06924 0.29317
# Poissons Ratio (y) = 0.04692 0.16240
# Poissons Ratio (z) = 0.61224 0.50047
#
# Static dielectric constant tensor:
#      x y z
#    x 1.699930 0.000000 0.000000 
#    y 0.000000 1.774390 0.000000 
#    z 0.000000 0.000000 1.794500 
# 
# From -- ./inp_files/11272.got.cif
#   From: 2010.05.17/outbox.cif.g08.bks.cpg/sg68_6_cif.got.tgz:11272.got - 2010.06.03 18:57:09.
