data_PCOD9509056
_publ_section_title
;
Structure prediction by ZEFSAII (Michael W. Deem and Ramdas Pophale) SiO2 
 PCOD9509056
Probable space group: C C C A
;
_chemical_formula_sum "Si O2"
_cell_formula_units_Z 96
_cell_length_a 31.140613
_cell_length_b 13.651448
_cell_length_c 11.222274
_cell_angle_alpha 90.000000
_cell_angle_beta 90.000000
_cell_angle_gamma 90.000000
_cell_volume 4770.750941
_symmetry_space_group_name_H-M "C C C A"
_symmetry_group_IT_number 68
_space_group.IT_coordinate_system_code '2'
_symmetry_cell_setting 'orthorhombic'
loop_
_space_group_symop_operation_xyz
x,y,z
-x,1/2-y,z
x,1/2-y,1/2-z
-x,y,1/2-z
-x,-y,-z
x,1/2+y,-z
-x,1/2+y,1/2+z
x,-y,1/2+z
1/2+x,1/2+y,z
1/2-x,-y,z
1/2+x,-y,1/2-z
1/2-x,1/2+y,1/2-z
1/2-x,1/2-y,-z
1/2+x,y,-z
1/2-x,y,1/2+z
1/2+x,1/2-y,1/2+z
loop_
_atom_site_type_symbol
_atom_site_label
_atom_site_fract_x
_atom_site_fract_y
_atom_site_fract_z
Si Si1 0.194657 0.235532 0.611805
Si Si2 0.454233 0.884743 0.563431
Si Si3 0.613139 0.240023 0.976273
Si Si4 0.734626 0.112219 0.580321
Si Si5 0.000000 0.250000 0.750000
Si Si6 0.823821 0.750000 0.750000
Si Si7 0.500000 0.750000 0.250000
Si Si8 0.457119 0.398803 0.919198
O O1 0.203265 0.250000 0.750000
O O2 0.145204 0.250973 0.585568
O O3 0.222682 0.323655 0.557313
O O4 0.208007 0.136173 0.541430
O O5 0.417450 0.835883 0.482470
O O6 0.468821 0.814126 0.668414
O O7 0.497743 0.896987 0.487670
O O8 0.444160 0.991857 0.613453
O O9 0.643577 0.226315 0.859858
O O10 0.581324 0.149320 0.991666
O O11 0.793131 0.335278 0.311134
O O12 0.750000 0.000000 0.599283
O O13 0.532483 0.677061 0.184300
#
# Coordination Sequence:
#
# PCOD9509056 Si02
#       8
#    16  16  16  16   4   8   4  16
#     4  10  23  42  68 100 135 174 223 282 343 419
#     4  11  24  40  64  90 132 180 231 270 346 413
#     4  11  22  42  63  96 141 175 220 297 339 400
#     4  10  22  46  72  96 135 181 227 278 350 423
#     4  12  20  44  58  92 128 178 220 294 330 402
#     4  10  23  44  68 104 136 174 235 285 348 419
#     4  12  18  40  68  88 116 174 224 292 336 386
#     4  11  23  41  64  94 125 180 229 273 335 412
#
# _framework density 20.122619
#
# number of rings (size 3 to 8) (size 9 to 14) (size 15 to 20)
#    0.000    1.333    4.167    1.000    1.167    3.333 
#    3.000    0.000    0.000    0.000    0.000    0.000 
#    0.000    0.000    0.000    0.000    0.000    0.000 
#
# Total GULP energy -267290.202035 kJ/mol
# GULP energy per Si atom -5568.545876 kJ/mol
# Density = 2.007682 g / cm^3
# Si number density = 20.122619 Si / 1000 Ang^3
#
#
#
# Elastic Constant Matrix: (Units=GPa)
#
#
# Indices 1 2 3 4 5 6 
#
# 1 118.3186 46.1032 16.1449 0.0000 0.0000 0.0000
# 2 46.1032 163.3990 42.4951 0.0000 0.0000 0.0000
# 3 16.1449 42.4951 85.6239 0.0000 0.0000 0.0000
# 4 0.0000 0.0000 0.0000 48.0010 0.0000 0.0000
# 5 0.0000 0.0000 0.0000 0.0000 26.4825 0.0000
# 6 0.0000 0.0000 0.0000 0.0000 0.0000 251.5348
#
#
#
# Elastic Compliance Matrix: (Units=1/GPa)
#
#
# Indices 1 2 3 4 5 6 
#
# 1 0.009517 -0.002547 -0.000530 0.000000 0.000000 0.000000
# 2 -0.002547 0.007709 -0.003346 0.000000 0.000000 0.000000
# 3 -0.000530 -0.003346 0.013439 0.000000 0.000000 0.000000
# 4 0.000000 0.000000 0.000000 0.020833 0.000000 0.000000
# 5 0.000000 0.000000 0.000000 0.000000 0.037761 0.000000
# 6 0.000000 0.000000 0.000000 0.000000 0.000000 0.003976
#
#
# Mechanical properties :
#
#
# Convention : Reuss Voigt Hill
#
# Bulk Modulus (GPa) = 56.12074 64.09199 60.10637
# Shear Modulus (GPa) = 44.63502 82.71023 63.67263
#
# Velocity S-wave (km/s) = 4.71484 6.41813 5.63125
# Velocity P-wave (km/s) = 7.58877 9.31896 8.49801
#
# Compressibility (1/GPa) = 0.01781872
#
# Stress axis : x y z
#
# Youngs Moduli (GPa) = 105.07901 129.72236 74.40835
#
# Poissons Ratio (x) = 0.33043 0.03945
# Poissons Ratio (y) = 0.26766 0.24894
# Poissons Ratio (z) = 0.05572 0.43399
#
# Static dielectric constant tensor:
#      x y z
#    x 1.784800 0.000000 0.000000 
#    y 0.000000 1.747190 0.000000 
#    z 0.000000 0.000000 1.799910 
# 
# From -- ./inp_files/17748.got.cif
#   From: 2010.05.17/outbox.cif.g08.bks.cpg/sg68_9_cif.got.tgz:17748.got - 2010.06.03 18:57:09.
