data_PCOD9509138
_publ_section_title
;
Structure prediction by ZEFSAII (Michael W. Deem and Ramdas Pophale) SiO2 
 PCOD9509138
Probable space group: C C C A
;
_chemical_formula_sum "Si O2"
_cell_formula_units_Z 96
_cell_length_a 23.903956
_cell_length_b 23.209396
_cell_length_c 9.218564
_cell_angle_alpha 90.000000
_cell_angle_beta 90.000000
_cell_angle_gamma 90.000000
_cell_volume 5114.425943
_symmetry_space_group_name_H-M "C C C A"
_symmetry_group_IT_number 68
_space_group.IT_coordinate_system_code '2'
_symmetry_cell_setting 'orthorhombic'
loop_
_space_group_symop_operation_xyz
x,y,z
-x,1/2-y,z
x,1/2-y,1/2-z
-x,y,1/2-z
-x,-y,-z
x,1/2+y,-z
-x,1/2+y,1/2+z
x,-y,1/2+z
1/2+x,1/2+y,z
1/2-x,-y,z
1/2+x,-y,1/2-z
1/2-x,1/2+y,1/2-z
1/2-x,1/2-y,-z
1/2+x,y,-z
1/2-x,y,1/2+z
1/2+x,1/2-y,1/2+z
loop_
_atom_site_type_symbol
_atom_site_label
_atom_site_fract_x
_atom_site_fract_y
_atom_site_fract_z
Si Si1 0.807319 0.282708 0.452723
Si Si2 0.609971 0.991282 0.006931
Si Si3 0.290509 0.919835 0.938389
Si Si4 0.655634 0.170941 0.846889
Si Si5 0.063516 0.923909 0.715977
Si Si6 0.316226 0.100566 0.109255
O O1 0.750000 0.250000 0.500000
O O2 0.807002 0.314545 0.295524
O O3 0.852865 0.232459 0.424997
O O4 0.822479 0.332695 0.565533
O O5 0.587598 0.963121 0.153724
O O6 0.665395 0.029576 0.033485
O O7 0.628006 0.937270 0.906785
O O8 0.568711 0.035467 0.925982
O O9 0.292427 0.906456 0.769371
O O10 0.311732 0.867199 0.036789
O O11 0.227997 0.927031 0.996141
O O12 0.602590 0.132568 0.801242
O O13 0.000000 0.908391 0.750000
#
# Coordination Sequence:
#
# PCOD9509138 Si02
#       6
#    16  16  16  16  16  16
#     4  11  22  37  62  87 128 166 203 245 298 378
#     4  11  23  40  62  94 126 156 209 262 322 381
#     4  11  24  36  59  93 129 168 199 245 314 387
#     4  10  23  40  59  92 125 163 215 248 303 373
#     4  11  23  44  67  90 120 162 214 272 319 366
#     4  12  23  37  59  90 131 171 202 249 312 382
#
# _framework density 18.770436
#
# number of rings (size 3 to 8) (size 9 to 14) (size 15 to 20)
#    0.000    1.000    5.000    2.000    4.667    2.000 
#    0.000    1.667    0.000    0.000    0.000    0.000 
#   10.000    0.000    0.000    0.000    0.000    0.000 
#
# Total GULP energy -267858.891020 kJ/mol
# GULP energy per Si atom -5580.393563 kJ/mol
# Density = 1.872771 g / cm^3
# Si number density = 18.770436 Si / 1000 Ang^3
#
#
#
# Elastic Constant Matrix: (Units=GPa)
#
#
# Indices 1 2 3 4 5 6 
#
# 1 43.6606 40.5718 0.7960 0.0000 0.0000 0.0000
# 2 40.5718 105.8814 47.0868 0.0000 0.0000 0.0000
# 3 0.7960 47.0868 87.6096 0.0000 0.0000 0.0000
# 4 0.0000 0.0000 0.0000 27.5616 0.0000 0.0000
# 5 0.0000 0.0000 0.0000 0.0000 18.8469 0.0000
# 6 0.0000 0.0000 0.0000 0.0000 0.0000 16.8390
#
#
#
# Elastic Compliance Matrix: (Units=1/GPa)
#
#
# Indices 1 2 3 4 5 6 
#
# 1 0.042279 -0.021064 0.010937 0.000000 0.000000 0.000000
# 2 -0.021064 0.022906 -0.012120 0.000000 0.000000 0.000000
# 3 0.010937 -0.012120 0.017829 0.000000 0.000000 0.000000
# 4 0.000000 0.000000 0.000000 0.036282 0.000000 0.000000
# 5 0.000000 0.000000 0.000000 0.000000 0.053059 0.000000
# 6 0.000000 0.000000 0.000000 0.000000 0.000000 0.059386
#
#
# Mechanical properties :
#
#
# Convention : Reuss Voigt Hill
#
# Bulk Modulus (GPa) = 25.96083 46.00675 35.98379
# Shear Modulus (GPa) = 17.29664 22.56264 19.92964
#
# Velocity S-wave (km/s) = 3.03889 3.47079 3.26200
# Velocity P-wave (km/s) = 5.11604 6.37380 5.77924
#
# Compressibility (1/GPa) = 0.03851957
#
# Stress axis : x y z
#
# Youngs Moduli (GPa) = 23.65268 43.65731 56.08928
#
# Poissons Ratio (x) = 0.91961 -0.61345
# Poissons Ratio (y) = 0.49822 0.67978
# Poissons Ratio (z) = -0.25869 0.52911
#
# Static dielectric constant tensor:
#      x y z
#    x 1.674620 0.000000 0.000000 
#    y 0.000000 1.698270 0.000000 
#    z 0.000000 0.000000 1.661360 
# 
# From -- ./inp_files/8114.got.cif
#   From: 2010.05.17/outbox.cif.g08.bks.cpg/sg68_5_cif.got.tgz:8114.got - 2010.06.03 18:57:09.
