data_PCOD9509777
_publ_section_title
;
Structure prediction by ZEFSAII (Michael W. Deem and Ramdas Pophale) SiO2 
 PCOD9509777
Probable space group: C C C A
;
_chemical_formula_sum "Si O2"
_cell_formula_units_Z 80
_cell_length_a 29.594312
_cell_length_b 12.452764
_cell_length_c 11.125244
_cell_angle_alpha 90.000000
_cell_angle_beta 90.000000
_cell_angle_gamma 90.000000
_cell_volume 4099.997108
_symmetry_space_group_name_H-M "C C C A"
_symmetry_group_IT_number 68
_space_group.IT_coordinate_system_code '2'
_symmetry_cell_setting 'orthorhombic'
loop_
_space_group_symop_operation_xyz
x,y,z
-x,1/2-y,z
x,1/2-y,1/2-z
-x,y,1/2-z
-x,-y,-z
x,1/2+y,-z
-x,1/2+y,1/2+z
x,-y,1/2+z
1/2+x,1/2+y,z
1/2-x,-y,z
1/2+x,-y,1/2-z
1/2-x,1/2+y,1/2-z
1/2-x,1/2-y,-z
1/2+x,y,-z
1/2-x,y,1/2+z
1/2+x,1/2-y,1/2+z
loop_
_atom_site_type_symbol
_atom_site_label
_atom_site_fract_x
_atom_site_fract_y
_atom_site_fract_z
Si Si1 0.791324 0.645769 0.825636
Si Si2 0.004501 0.425527 0.384904
Si Si3 0.660733 0.782845 0.946620
Si Si4 0.923438 0.253008 0.384533
Si Si5 0.685928 0.908218 0.710459
O O1 0.804193 0.750000 0.750000
O O2 0.739397 0.619731 0.792913
O O3 0.818475 0.536007 0.799830
O O4 0.799912 0.678074 0.963506
O O5 0.051371 0.360705 0.400315
O O6 0.000000 0.475264 0.250000
O O7 0.000000 0.500000 0.500000
O O8 0.963740 0.339608 0.386947
O O9 0.663833 0.859380 0.830432
O O10 0.667120 0.661172 0.900332
O O11 0.614285 0.784095 0.019887
O O12 0.904117 0.250000 0.250000
#
# Coordination Sequence:
#
# PCOD9509777 Si02
#       5
#    16  16  16  16  16
#     4  11  23  40  65  85 121 177 219 258 340 375
#     4   9  19  41  66  94 127 164 208 255 320 395
#     4  11  22  42  60  92 131 161 220 273 319 382
#     4   9  20  41  65  90 124 165 206 255 321 391
#     4  10  25  40  61  93 124 171 217 282 314 384
#
# _framework density 19.512208000000001
#
# number of rings (size 3 to 8) (size 9 to 14) (size 15 to 20)
#    0.000    2.000    2.000    2.400    2.800    3.200 
#   14.400    1.000    0.000    0.000    0.000    0.000 
#    0.000    0.000    0.000    0.000    0.000    0.000 
#
# Total GULP energy -223174.936997 kJ/mol
# GULP energy per Si atom -5579.373425 kJ/mol
# Density = 1.946780 g / cm^3
# Si number density = 19.512208 Si / 1000 Ang^3
#
#
#
# Elastic Constant Matrix: (Units=GPa)
#
#
# Indices 1 2 3 4 5 6 
#
# 1 86.7955 16.3919 43.8558 0.0000 0.0000 0.0000
# 2 16.3919 126.5497 67.0566 0.0000 0.0000 0.0000
# 3 43.8558 67.0566 144.2338 0.0000 0.0000 0.0000
# 4 0.0000 0.0000 0.0000 23.5388 0.0000 0.0000
# 5 0.0000 0.0000 0.0000 0.0000 31.3465 0.0000
# 6 0.0000 0.0000 0.0000 0.0000 0.0000 8.3446
#
#
#
# Elastic Compliance Matrix: (Units=1/GPa)
#
#
# Indices 1 2 3 4 5 6 
#
# 1 0.013644 0.000572 -0.004414 0.000000 0.000000 0.000000
# 2 0.000572 0.010509 -0.005060 0.000000 0.000000 0.000000
# 3 -0.004414 -0.005060 0.010628 0.000000 0.000000 0.000000
# 4 0.000000 0.000000 0.000000 0.042483 0.000000 0.000000
# 5 0.000000 0.000000 0.000000 0.000000 0.031902 0.000000
# 6 0.000000 0.000000 0.000000 0.000000 0.000000 0.119838
#
#
# Mechanical properties :
#
#
# Convention : Reuss Voigt Hill
#
# Bulk Modulus (GPa) = 58.90631 68.02085 63.46358
# Shear Modulus (GPa) = 19.80459 27.99762 23.90111
#
# Velocity S-wave (km/s) = 3.18934 3.79209 3.50370
# Velocity P-wave (km/s) = 6.61948 7.35592 6.99739
#
# Compressibility (1/GPa) = 0.01697611
#
# Stress axis : x y z
#
# Youngs Moduli (GPa) = 73.29316 95.15657 94.09330
#
# Poissons Ratio (x) = -0.05441 0.41537
# Poissons Ratio (y) = -0.04191 0.47608
# Poissons Ratio (z) = 0.32355 0.48146
#
# Static dielectric constant tensor:
#      x y z
#    x 1.689330 0.000000 0.000000 
#    y 0.000000 1.686650 0.000000 
#    z 0.000000 0.000000 1.770780 
# 
# From -- ./inp_files/11959.got.cif
#   From: 2010.05.17/outbox.cif.g08.bks.cpg/sg68_6_cif.got.tgz:11959.got - 2010.06.03 18:57:09.
