data_PCOD9509656
_publ_section_title
;
Structure prediction by ZEFSAII (Michael W. Deem and Ramdas Pophale) SiO2 
 PCOD9509656
Probable space group: C C C A
;
_chemical_formula_sum "Si O2"
_cell_formula_units_Z 88
_cell_length_a 11.594188
_cell_length_b 25.528550
_cell_length_c 13.726619
_cell_angle_alpha 90.000000
_cell_angle_beta 90.000000
_cell_angle_gamma 90.000000
_cell_volume 4062.843237
_symmetry_space_group_name_H-M "C C C A"
_symmetry_group_IT_number 68
_space_group.IT_coordinate_system_code '2'
_symmetry_cell_setting 'orthorhombic'
loop_
_space_group_symop_operation_xyz
x,y,z
-x,1/2-y,z
x,1/2-y,1/2-z
-x,y,1/2-z
-x,-y,-z
x,1/2+y,-z
-x,1/2+y,1/2+z
x,-y,1/2+z
1/2+x,1/2+y,z
1/2-x,-y,z
1/2+x,-y,1/2-z
1/2-x,1/2+y,1/2-z
1/2-x,1/2-y,-z
1/2+x,y,-z
1/2-x,y,1/2+z
1/2+x,1/2-y,1/2+z
loop_
_atom_site_type_symbol
_atom_site_label
_atom_site_fract_x
_atom_site_fract_y
_atom_site_fract_z
Si Si1 0.120807 0.485794 0.186930
Si Si2 0.595063 0.616435 0.439508
Si Si3 0.028096 0.407804 0.634157
Si Si4 0.920753 0.300868 0.128377
Si Si5 0.187650 0.311819 0.574302
Si Si6 0.251129 0.750000 0.750000
O O1 0.250000 0.500000 0.231411
O O2 0.132284 0.433026 0.124663
O O3 0.090037 0.536307 0.121147
O O4 0.000000 0.479969 0.250000
O O5 0.569477 0.598230 0.550687
O O6 0.485324 0.644472 0.387718
O O7 0.687599 0.662856 0.440639
O O8 0.110389 0.359861 0.609803
O O9 0.000000 0.404916 0.750000
O O10 0.829252 0.298421 0.215595
O O11 0.000000 0.250000 0.143037
O O12 0.856651 0.290726 0.027346
O O13 0.180632 0.268348 0.656996
#
# Coordination Sequence:
#
# PCOD9509656 Si02
#       6
#    16  16  16  16  16   8
#     4  11  24  46  73 109 145 185 242 291 359 431
#     4  11  24  43  69  96 142 180 230 293 355 421
#     4  10  24  46  67 101 136 182 234 289 352 429
#     4  11  25  41  63  96 133 175 232 285 349 422
#     4  11  25  41  68  96 133 183 231 289 357 418
#     4  12  25  40  67  96 134 178 231 290 345 428
#
# _framework density 21.659707999999998
#
# number of rings (size 3 to 8) (size 9 to 14) (size 15 to 20)
#    0.000    1.091    3.636    1.364    5.091    1.455 
#    9.818    0.909    0.000    0.000    0.000    0.000 
#    0.000    0.000    0.000    0.000    0.000    0.000 
#
# Total GULP energy -245513.126389 kJ/mol
# GULP energy per Si atom -5579.843782 kJ/mol
# Density = 2.161041 g / cm^3
# Si number density = 21.659708 Si / 1000 Ang^3
#
#
#
# Elastic Constant Matrix: (Units=GPa)
#
#
# Indices 1 2 3 4 5 6 
#
# 1 66.8018 8.4444 27.8307 0.0000 0.0000 0.0000
# 2 8.4444 81.7085 25.3937 0.0000 0.0000 0.0000
# 3 27.8307 25.3937 101.4924 0.0000 0.0000 0.0000
# 4 0.0000 0.0000 0.0000 32.0499 0.0000 0.0000
# 5 0.0000 0.0000 0.0000 0.0000 31.8963 0.0000
# 6 0.0000 0.0000 0.0000 0.0000 0.0000 42.4490
#
#
#
# Elastic Compliance Matrix: (Units=1/GPa)
#
#
# Indices 1 2 3 4 5 6 
#
# 1 0.016909 -0.000332 -0.004553 0.000000 0.000000 0.000000
# 2 -0.000332 0.013277 -0.003231 0.000000 0.000000 0.000000
# 3 -0.004553 -0.003231 0.011910 0.000000 0.000000 0.000000
# 4 0.000000 0.000000 0.000000 0.031201 0.000000 0.000000
# 5 0.000000 0.000000 0.000000 0.000000 0.031352 0.000000
# 6 0.000000 0.000000 0.000000 0.000000 0.000000 0.023558
#
#
# Mechanical properties :
#
#
# Convention : Reuss Voigt Hill
#
# Bulk Modulus (GPa) = 38.66608 41.48226 40.07417
# Shear Modulus (GPa) = 32.66682 33.83462 33.25072
#
# Velocity S-wave (km/s) = 3.88775 3.95663 3.92234
# Velocity P-wave (km/s) = 6.16791 6.32982 6.24939
#
# Compressibility (1/GPa) = 0.02586246
#
# Stress axis : x y z
#
# Youngs Moduli (GPa) = 59.14109 75.31780 83.96343
#
# Poissons Ratio (x) = 0.02503 0.38232
# Poissons Ratio (y) = 0.01965 0.27127
# Poissons Ratio (z) = 0.26930 0.24334
#
# Static dielectric constant tensor:
#      x y z
#    x 1.894920 0.000000 0.000000 
#    y 0.000000 1.759150 0.000000 
#    z 0.000000 0.000000 1.765340 
# 
# From -- ./inp_files/12061.got.cif
#   From: 2010.05.17/outbox.cif.g08.bks.cpg/sg68_7_cif.got.tgz:12061.got - 2010.06.03 18:57:09.
