data_PCOD9509891
_publ_section_title
;
Structure prediction by ZEFSAII (Michael W. Deem and Ramdas Pophale) SiO2 
 PCOD9509891
Probable space group: C C C A
;
_chemical_formula_sum "Si O2"
_cell_formula_units_Z 28
_cell_length_a 4.824008
_cell_length_b 8.799780
_cell_length_c 26.771438
_cell_angle_alpha 90.000000
_cell_angle_beta 90.000000
_cell_angle_gamma 90.000000
_cell_volume 1136.453141
_symmetry_space_group_name_H-M "C C C A"
_symmetry_group_IT_number 68
_space_group.IT_coordinate_system_code '2'
_symmetry_cell_setting 'orthorhombic'
loop_
_space_group_symop_operation_xyz
x,y,z
-x,1/2-y,z
x,1/2-y,1/2-z
-x,y,1/2-z
-x,-y,-z
x,1/2+y,-z
-x,1/2+y,1/2+z
x,-y,1/2+z
1/2+x,1/2+y,z
1/2-x,-y,z
1/2+x,-y,1/2-z
1/2-x,1/2+y,1/2-z
1/2-x,1/2-y,-z
1/2+x,y,-z
1/2-x,y,1/2+z
1/2+x,1/2-y,1/2+z
loop_
_atom_site_type_symbol
_atom_site_label
_atom_site_fract_x
_atom_site_fract_y
_atom_site_fract_z
Si Si1 0.500000 0.250000 0.750000
Si Si2 0.000000 0.250000 0.821901
Si Si3 0.000000 0.250000 0.461795
Si Si4 0.250000 0.500000 0.106455
O O1 0.736223 0.191252 0.789080
O O2 0.905599 0.384738 0.857369
O O3 0.250000 0.250000 0.500000
O O4 0.046786 0.102468 0.427368
#
# Coordination Sequence:
#
# PCOD9509891 Si02
#       4
#     4   8   8   8
#     4  10  26  50  80 114 156 200 256 316 382 454
#     4  11  27  50  79 115 156 203 255 316 383 455
#     4  12  28  50  77 113 154 201 255 316 380 452
#     4  12  28  52  80 114 154 204 256 316 382 456
#
# _framework density 24.638061
#
# number of rings (size 3 to 8) (size 9 to 14) (size 15 to 20)
#    0.000    0.571    0.000    5.143    0.000   22.857 
#    0.000    0.000    0.000    0.000    0.000    0.000 
#    0.000    0.000    0.000    0.000    0.000    0.000 
#
# Total GULP energy -78263.205577 kJ/mol
# GULP energy per Si atom -5590.228970 kJ/mol
# Density = 2.458198 g / cm^3
# Si number density = 24.638061 Si / 1000 Ang^3
#
#
#
# Elastic Constant Matrix: (Units=GPa)
#
#
# Indices 1 2 3 4 5 6 
#
# 1 225.9271 78.1295 109.9791 0.0000 0.0000 0.0000
# 2 78.1295 200.3578 115.1918 0.0000 0.0000 0.0000
# 3 109.9791 115.1918 204.5403 0.0000 0.0000 0.0000
# 4 0.0000 0.0000 0.0000-5685.7580 0.0000 0.0000
# 5 0.0000 0.0000 0.0000 0.0000 28.5596 0.0000
# 6 0.0000 0.0000 0.0000 0.0000 0.0000 44.2532
#
#
#
# Elastic Compliance Matrix: (Units=1/GPa)
#
#
# Indices 1 2 3 4 5 6 
#
# 1 0.006066 -0.000725 -0.002853 0.000000 0.000000 0.000000
# 2 -0.000725 0.007468 -0.003816 0.000000 0.000000 0.000000
# 3 -0.002853 -0.003816 0.008572 0.000000 0.000000 0.000000
# 4 0.000000 0.000000 0.000000 -0.000176 0.000000 0.000000
# 5 0.000000 0.000000 0.000000 0.000000 0.035015 0.000000
# 6 0.000000 0.000000 0.000000 0.000000 0.000000 0.022597
#
#
# Mechanical properties :
#
#
# Convention : Reuss Voigt Hill
#
# Bulk Modulus (GPa) = 136.65680 137.49181 137.07430
# Shear Modulus (GPa) = 51.66971 -1100.75406 -524.54217
#
# Velocity S-wave (km/s) = 4.58443 -21.15986 -14.60689
# Velocity P-wave (km/s) = 9.14379 23.26071 15.12368
#
# Compressibility (1/GPa) = 0.00731760
#
# Stress axis : x y z
#
# Youngs Moduli (GPa) = 164.85737 133.91276 116.65741
#
# Poissons Ratio (x) = 0.09708 0.33286
# Poissons Ratio (y) = 0.11951 0.44513
# Poissons Ratio (z) = 0.47038 0.51098
#
# Static dielectric constant tensor:
#      x y z
#    x 1.921510 0.000000 0.000000 
#    y 0.000000 1.891640 0.000000 
#    z 0.000000 0.000000 1.944520 
# 
# From -- ./inp_files/41648.got.cif
#   From: 2010.05.17/outbox.cif.g08.bks.cpg/sg68_21_cif.got.tgz:41648.got - 2010.06.03 18:57:09.
