data_PCOD9509391
_publ_section_title
;
Structure prediction by ZEFSAII (Michael W. Deem and Ramdas Pophale) SiO2 
 PCOD9509391
Probable space group: C C C A
;
_chemical_formula_sum "Si O2"
_cell_formula_units_Z 116
_cell_length_a 12.600618
_cell_length_b 27.168393
_cell_length_c 14.272369
_cell_angle_alpha 90.000000
_cell_angle_beta 90.000000
_cell_angle_gamma 90.000000
_cell_volume 4885.981992
_symmetry_space_group_name_H-M "C C C A"
_symmetry_group_IT_number 68
_space_group.IT_coordinate_system_code '2'
_symmetry_cell_setting 'orthorhombic'
loop_
_space_group_symop_operation_xyz
x,y,z
-x,1/2-y,z
x,1/2-y,1/2-z
-x,y,1/2-z
-x,-y,-z
x,1/2+y,-z
-x,1/2+y,1/2+z
x,-y,1/2+z
1/2+x,1/2+y,z
1/2-x,-y,z
1/2+x,-y,1/2-z
1/2-x,1/2+y,1/2-z
1/2-x,1/2-y,-z
1/2+x,y,-z
1/2-x,y,1/2+z
1/2+x,1/2-y,1/2+z
loop_
_atom_site_type_symbol
_atom_site_label
_atom_site_fract_x
_atom_site_fract_y
_atom_site_fract_z
Si Si1 0.703429 0.946359 0.834417
Si Si2 0.631819 0.273068 0.529539
Si Si3 0.590379 0.588650 0.503050
Si Si4 0.586442 0.303127 0.082083
Si Si5 0.750451 0.107996 0.148627
Si Si6 0.360618 0.620309 0.456294
Si Si7 0.115568 0.796676 0.798714
Si Si8 0.000000 0.250000 0.750000
O O1 0.603955 0.946501 0.906864
O O2 0.694097 0.919418 0.734339
O O3 0.672771 0.624624 0.934369
O O4 0.750000 0.000000 0.818081
O O5 0.678564 0.235700 0.449526
O O6 0.531465 0.293828 0.463418
O O7 0.650771 0.324283 0.582414
O O8 0.600151 0.228715 0.600107
O O9 0.616840 0.642693 0.548414
O O10 0.667257 0.576446 0.415707
O O11 0.788519 0.584245 0.604244
O O12 0.568778 0.287932 0.188436
O O13 0.817189 0.154255 0.188192
O O14 0.523665 0.096938 0.958565
O O15 0.170592 0.750000 0.750000
O O16 0.000000 0.805277 0.750000
#
# Coordination Sequence:
#
# PCOD9509391 Si02
#       8
#    16  16  16  16  16  16  16   4
#     4  11  27  48  69 102 138 171 237 311 359 424
#     4   9  17  33  58  90 135 176 216 271 318 400
#     4  10  23  45  74  96 138 185 227 288 361 413
#     4   9  16  31  55  93 132 176 221 257 321 402
#     4  11  25  43  66 103 136 185 231 294 349 419
#     4  10  24  45  72 101 139 184 235 282 356 433
#     4  11  21  32  62 100 141 186 228 276 334 406
#     4   8  16  24  52  88 130 184 216 254 312 400
#
# _framework density 23.741389999999999
#
# number of rings (size 3 to 8) (size 9 to 14) (size 15 to 20)
#    0.000    2.069    1.379    2.483    5.793    7.172 
#    2.483    1.379    1.517    0.000    0.000    0.000 
#    0.000    0.000    0.000    0.000    0.000    0.000 
#
# Total GULP energy -323060.161402 kJ/mol
# GULP energy per Si atom -5570.002783 kJ/mol
# Density = 2.368735 g / cm^3
# Si number density = 23.741390 Si / 1000 Ang^3
#
#
#
# Elastic Constant Matrix: (Units=GPa)
#
#
# Indices 1 2 3 4 5 6 
#
# 1 1877.6379 199.5157 741.0750 0.0000 0.0000 0.0000
# 2 199.5157 95.0262 93.1749 0.0000 0.0000 0.0000
# 3 741.0750 93.1749 411.4138 0.0000 0.0000 0.0000
# 4 0.0000 0.0000 0.0000 19.5737 0.0000 0.0000
# 5 0.0000 0.0000 0.0000 0.0000 37.6481 0.0000
# 6 0.0000 0.0000 0.0000 0.0000 0.0000 48.0957
#
#
#
# Elastic Compliance Matrix: (Units=1/GPa)
#
#
# Indices 1 2 3 4 5 6 
#
# 1 0.001890 -0.000810 -0.003221 0.000000 0.000000 0.000000
# 2 -0.000810 0.013874 -0.001683 0.000000 0.000000 0.000000
# 3 -0.003221 -0.001683 0.008613 0.000000 0.000000 0.000000
# 4 0.000000 0.000000 0.000000 0.051089 0.000000 0.000000
# 5 0.000000 0.000000 0.000000 0.000000 0.026562 0.000000
# 6 0.000000 0.000000 0.000000 0.000000 0.000000 0.020792
#
#
# Mechanical properties :
#
#
# Convention : Reuss Voigt Hill
#
# Bulk Modulus (GPa) = 77.22281 494.62321 285.92301
# Shear Modulus (GPa) = 36.08442 111.08433 73.58438
#
# Velocity S-wave (km/s) = 3.90281 6.84769 5.57328
# Velocity P-wave (km/s) = 7.27369 16.47153 12.73220
#
# Compressibility (1/GPa) = 0.01294954
#
# Stress axis : x y z
#
# Youngs Moduli (GPa) = 529.17110 72.07518 116.10275
#
# Poissons Ratio (x) = 0.05837 0.37392
# Poissons Ratio (y) = 0.42856 0.19545
# Poissons Ratio (z) = 1.70423 0.12133
#
# Static dielectric constant tensor:
#      x y z
#    x 2.518830 0.000000 0.000000 
#    y 0.000000 1.958780 0.000000 
#    z 0.000000 0.000000 2.033790 
# 
# From -- ./inp_files/23943.got.cif
#   From: 2010.05.17/outbox.cif.g08.bks.cpg/sg68_12_cif.got.tgz:23943.got - 2010.06.03 18:57:09.
