data_PCOD9509352
_publ_section_title
;
Structure prediction by ZEFSAII (Michael W. Deem and Ramdas Pophale) SiO2 
 PCOD9509352
Probable space group: C C C A
;
_chemical_formula_sum "Si O2"
_cell_formula_units_Z 104
_cell_length_a 19.600609
_cell_length_b 8.869671
_cell_length_c 27.089307
_cell_angle_alpha 90.000000
_cell_angle_beta 90.000000
_cell_angle_gamma 90.000000
_cell_volume 4709.501844
_symmetry_space_group_name_H-M "C C C A"
_symmetry_group_IT_number 68
_space_group.IT_coordinate_system_code '2'
_symmetry_cell_setting 'orthorhombic'
loop_
_space_group_symop_operation_xyz
x,y,z
-x,1/2-y,z
x,1/2-y,1/2-z
-x,y,1/2-z
-x,-y,-z
x,1/2+y,-z
-x,1/2+y,1/2+z
x,-y,1/2+z
1/2+x,1/2+y,z
1/2-x,-y,z
1/2+x,-y,1/2-z
1/2-x,1/2+y,1/2-z
1/2-x,1/2-y,-z
1/2+x,y,-z
1/2-x,y,1/2+z
1/2+x,1/2-y,1/2+z
loop_
_atom_site_type_symbol
_atom_site_label
_atom_site_fract_x
_atom_site_fract_y
_atom_site_fract_z
Si Si1 0.407301 0.853966 0.387450
Si Si2 0.941109 0.597410 0.782283
Si Si3 0.324130 0.571945 0.755668
Si Si4 0.179158 0.090587 0.543574
Si Si5 0.380844 0.403740 0.042453
Si Si6 0.169300 0.549768 0.860446
Si Si7 0.000000 0.750000 0.520237
O O1 0.455255 0.870880 0.339472
O O2 0.351782 0.724134 0.371512
O O3 0.446348 0.809726 0.438166
O O4 0.381740 0.018964 0.404069
O O5 0.928130 0.750000 0.750000
O O6 0.873809 0.498925 0.784017
O O7 0.000000 0.519960 0.750000
O O8 0.319956 0.750000 0.750000
O O9 0.250000 0.500000 0.750476
O O10 0.354638 0.512342 0.807895
O O11 0.174787 0.269372 0.542110
O O12 0.250000 0.000000 0.545147
O O13 0.143910 0.028249 0.495644
O O14 0.139601 0.039602 0.592941
O O15 0.452132 0.344923 0.018032
O O16 0.250000 0.500000 0.858725
#
# Coordination Sequence:
#
# PCOD9509352 Si02
#       7
#    16  16  16  16  16  16   8
#     4  12  25  44  75 106 142 193 241 297 363 433
#     4  11  24  46  73 106 141 192 244 298 367 432
#     4  11  25  45  72 105 148 192 237 304 364 434
#     4  11  23  44  67  99 144 190 236 295 359 424
#     4  12  25  43  71 106 143 190 237 295 358 433
#     4  10  23  44  70 101 142 185 237 297 354 430
#     4  12  24  46  71 108 145 190 242 296 362 430
#
# _framework density 22.083015
#
# number of rings (size 3 to 8) (size 9 to 14) (size 15 to 20)
#    0.000    0.769    4.615    2.308    4.308    1.538 
#    0.000    0.769    0.000    0.000    0.000    0.000 
#    0.000    0.000    0.000    0.000    0.000    0.000 
#
# Total GULP energy -289618.903528 kJ/mol
# GULP energy per Si atom -5569.594299 kJ/mol
# Density = 2.203275 g / cm^3
# Si number density = 22.083015 Si / 1000 Ang^3
#
#
#
# Elastic Constant Matrix: (Units=GPa)
#
#
# Indices 1 2 3 4 5 6 
#
# 1 81.5719 41.4262 31.3845 0.0000 0.0000 0.0000
# 2 41.4262 131.1979 48.2695 0.0000 0.0000 0.0000
# 3 31.3845 48.2695 155.4294 0.0000 0.0000 0.0000
# 4 0.0000 0.0000 0.0000 28.5853 0.0000 0.0000
# 5 0.0000 0.0000 0.0000 0.0000 14.1252 0.0000
# 6 0.0000 0.0000 0.0000 0.0000 0.0000 5.3150
#
#
#
# Elastic Compliance Matrix: (Units=1/GPa)
#
#
# Indices 1 2 3 4 5 6 
#
# 1 0.015015 -0.004093 -0.001761 0.000000 0.000000 0.000000
# 2 -0.004093 0.009721 -0.002192 0.000000 0.000000 0.000000
# 3 -0.001761 -0.002192 0.007470 0.000000 0.000000 0.000000
# 4 0.000000 0.000000 0.000000 0.034983 0.000000 0.000000
# 5 0.000000 0.000000 0.000000 0.000000 0.070796 0.000000
# 6 0.000000 0.000000 0.000000 0.000000 0.000000 0.188145
#
#
# Mechanical properties :
#
#
# Convention : Reuss Voigt Hill
#
# Bulk Modulus (GPa) = 62.05885 67.81772 64.93828
# Shear Modulus (GPa) = 14.38458 26.07972 20.23215
#
# Velocity S-wave (km/s) = 2.55500 3.44028 3.03014
# Velocity P-wave (km/s) = 6.07186 6.82332 6.45853
#
# Compressibility (1/GPa) = 0.01611374
#
# Stress axis : x y z
#
# Youngs Moduli (GPa) = 66.59849 102.86810 133.86549
#
# Poissons Ratio (x) = 0.42108 0.23570
# Poissons Ratio (y) = 0.27261 0.29349
# Poissons Ratio (z) = 0.11726 0.22553
#
# Static dielectric constant tensor:
#      x y z
#    x 1.809510 0.000000 0.000000 
#    y 0.000000 1.860030 0.000000 
#    z 0.000000 0.000000 1.863030 
# 
# From -- ./inp_files/51831.got.cif
#   From: 2010.05.17/outbox.cif.g08.bks.cpg/sg68_26_cif.got.tgz:51831.got - 2010.06.03 18:57:09.
