data_PCOD9509098
_publ_section_title
;
Structure prediction by ZEFSAII (Michael W. Deem and Ramdas Pophale) SiO2 
 PCOD9509098
Probable space group: C C C A
;
_chemical_formula_sum "Si O2"
_cell_formula_units_Z 60
_cell_length_a 29.246786
_cell_length_b 5.017875
_cell_length_c 17.825628
_cell_angle_alpha 90.000000
_cell_angle_beta 90.000000
_cell_angle_gamma 90.000000
_cell_volume 2616.030631
_symmetry_space_group_name_H-M "C C C A"
_symmetry_group_IT_number 68
_space_group.IT_coordinate_system_code '2'
_symmetry_cell_setting 'orthorhombic'
loop_
_space_group_symop_operation_xyz
x,y,z
-x,1/2-y,z
x,1/2-y,1/2-z
-x,y,1/2-z
-x,-y,-z
x,1/2+y,-z
-x,1/2+y,1/2+z
x,-y,1/2+z
1/2+x,1/2+y,z
1/2-x,-y,z
1/2+x,-y,1/2-z
1/2-x,1/2+y,1/2-z
1/2-x,1/2-y,-z
1/2+x,y,-z
1/2-x,y,1/2+z
1/2+x,1/2-y,1/2+z
loop_
_atom_site_type_symbol
_atom_site_label
_atom_site_fract_x
_atom_site_fract_y
_atom_site_fract_z
Si Si1 0.948339 0.165004 0.956163
Si Si2 0.684154 0.982469 0.198526
Si Si3 0.000000 0.250000 0.250000
Si Si4 0.750000 0.000000 0.557094
Si Si5 0.083789 0.452085 0.681462
O O1 0.916666 0.274761 0.892323
O O2 0.000000 0.250000 0.934931
O O3 0.941582 0.354780 0.028581
O O4 0.705800 0.750000 0.250000
O O5 0.708389 0.012317 0.117818
O O6 0.684401 0.250000 0.250000
O O7 0.631585 0.895821 0.182346
O O8 0.963864 0.395563 0.304755
O O9 0.750000 0.250000 0.500000
O O10 0.084394 0.250000 0.750000
#
# Coordination Sequence:
#
# PCOD9509098 Si02
#       5
#    16  16   4   8  16
#     4  10  23  38  57  83 122 170 219 276 337 390
#     4  11  24  46  71 104 141 187 233 286 358 430
#     4  12  22  40  64  98 136 180 244 284 342 382
#     4  12  26  46  78 110 142 180 230 298 368 430
#     4  11  25  40  66  96 136 182 238 287 337 406
#
# _framework density 22.935511999999999
#
# number of rings (size 3 to 8) (size 9 to 14) (size 15 to 20)
#    0.000    1.067    1.333    4.400    9.333    2.133 
#    0.000    0.000    0.000    0.000    0.000    0.000 
#    0.000    0.000    0.000    0.000    0.000    0.000 
#
# Total GULP energy -167509.748235 kJ/mol
# GULP energy per Si atom -5583.658275 kJ/mol
# Density = 2.288331 g / cm^3
# Si number density = 22.935512 Si / 1000 Ang^3
#
#
#
# Elastic Constant Matrix: (Units=GPa)
#
#
# Indices 1 2 3 4 5 6 
#
# 1 145.2337 19.8903 45.8799 0.0000 0.0000 0.0000
# 2 19.8903 108.3134 46.8128 0.0000 0.0000 0.0000
# 3 45.8799 46.8128 150.6707 0.0000 0.0000 0.0000
# 4 0.0000 0.0000 0.0000 54.6521 0.0000 0.0000
# 5 0.0000 0.0000 0.0000 0.0000 49.0341 0.0000
# 6 0.0000 0.0000 0.0000 0.0000 0.0000 19.1245
#
#
#
# Elastic Compliance Matrix: (Units=1/GPa)
#
#
# Indices 1 2 3 4 5 6 
#
# 1 0.007638 -0.000459 -0.002183 0.000000 0.000000 0.000000
# 2 -0.000459 0.010692 -0.003182 0.000000 0.000000 0.000000
# 3 -0.002183 -0.003182 0.008290 0.000000 0.000000 0.000000
# 4 0.000000 0.000000 0.000000 0.018298 0.000000 0.000000
# 5 0.000000 0.000000 0.000000 0.000000 0.020394 0.000000
# 6 0.000000 0.000000 0.000000 0.000000 0.000000 0.052289
#
#
# Mechanical properties :
#
#
# Convention : Reuss Voigt Hill
#
# Bulk Modulus (GPa) = 66.79267 69.93154 68.36210
# Shear Modulus (GPa) = 37.24659 44.00445 40.62552
#
# Velocity S-wave (km/s) = 4.03422 4.38495 4.21324
# Velocity P-wave (km/s) = 7.13338 7.49625 7.31707
#
# Compressibility (1/GPa) = 0.01497170
#
# Stress axis : x y z
#
# Youngs Moduli (GPa) = 130.92430 93.52685 120.62027
#
# Poissons Ratio (x) = 0.04293 0.26334
# Poissons Ratio (y) = 0.06010 0.38384
# Poissons Ratio (z) = 0.28583 0.29762
#
# Static dielectric constant tensor:
#      x y z
#    x 0.000000 0.000000 0.000000 
#    y 0.000000 0.000000 0.000000 
#    z 0.000000 0.000000 0.000000 
# 
# From -- ./inp_files/33871.got.cif
#   From: 2010.05.17/outbox.cif.g08.bks.cpg/sg68_17_cif.got.tgz:33871.got - 2010.06.03 18:57:09.
