data_PCOD9509109
_publ_section_title
;
Structure prediction by ZEFSAII (Michael W. Deem and Ramdas Pophale) SiO2 
 PCOD9509109
Probable space group: C C C A
;
_chemical_formula_sum "Si O2"
_cell_formula_units_Z 92
_cell_length_a 24.545985
_cell_length_b 8.724409
_cell_length_c 21.014475
_cell_angle_alpha 90.000000
_cell_angle_beta 90.000000
_cell_angle_gamma 90.000000
_cell_volume 4500.233271
_symmetry_space_group_name_H-M "C C C A"
_symmetry_group_IT_number 68
_space_group.IT_coordinate_system_code '2'
_symmetry_cell_setting 'orthorhombic'
loop_
_space_group_symop_operation_xyz
x,y,z
-x,1/2-y,z
x,1/2-y,1/2-z
-x,y,1/2-z
-x,-y,-z
x,1/2+y,-z
-x,1/2+y,1/2+z
x,-y,1/2+z
1/2+x,1/2+y,z
1/2-x,-y,z
1/2+x,-y,1/2-z
1/2-x,1/2+y,1/2-z
1/2-x,1/2-y,-z
1/2+x,y,-z
1/2-x,y,1/2+z
1/2+x,1/2-y,1/2+z
loop_
_atom_site_type_symbol
_atom_site_label
_atom_site_fract_x
_atom_site_fract_y
_atom_site_fract_z
Si Si1 0.750000 0.000000 0.675958
Si Si2 0.841539 0.572171 0.915746
Si Si3 0.250000 0.500000 0.383707
Si Si4 0.843605 0.708981 0.053974
Si Si5 0.500000 0.250000 0.250000
Si Si6 0.849461 0.801414 0.821297
Si Si7 0.818228 0.750000 0.250000
Si Si8 0.091496 0.897787 0.163928
O O1 0.713024 0.089982 0.626115
O O2 0.783737 0.113559 0.720034
O O3 0.845066 0.391933 0.932050
O O4 0.876070 0.661569 0.862470
O O5 0.844547 0.671037 0.979330
O O6 0.211260 0.619436 0.422390
O O7 0.204125 0.397226 0.347211
O O8 0.896528 0.637301 0.089761
O O9 0.538724 0.343124 0.201550
O O10 0.836287 0.750000 0.750000
O O11 0.896415 0.927841 0.821164
O O12 0.857691 0.693630 0.194827
#
# Coordination Sequence:
#
# PCOD9509109 Si02
#       8
#     8  16   8  16   4  16   8  16
#     4  12  25  37  58  98 143 199 224 272 324 400
#     4  12  25  40  61  94 142 190 228 272 324 406
#     4  10  23  39  56  92 139 191 234 264 312 402
#     4  11  23  42  63  94 138 186 235 269 333 401
#     4  10  24  48  82 100 128 164 232 298 368 410
#     4  11  25  38  61  94 138 179 221 276 330 396
#     4  11  24  39  60  96 136 183 226 271 330 392
#     4  10  23  45  68  97 127 174 224 288 345 407
#
# _framework density 20.443383999999998
#
# number of rings (size 3 to 8) (size 9 to 14) (size 15 to 20)
#    0.000    1.043    1.739    4.696    8.522    4.870 
#    3.130    0.435    0.000    4.174    0.000    0.000 
#    0.000    0.000    0.000    0.000    0.000    0.000 
#
# Total GULP energy -256425.960046 kJ/mol
# GULP energy per Si atom -5574.477392 kJ/mol
# Density = 2.039685 g / cm^3
# Si number density = 20.443384 Si / 1000 Ang^3
#
#
#
# Elastic Constant Matrix: (Units=GPa)
#
#
# Indices 1 2 3 4 5 6 
#
# 1 73.7115 35.8993 30.7579 0.0000 0.0000 0.0000
# 2 35.8993 156.8663 48.4963 0.0000 0.0000 0.0000
# 3 30.7579 48.4963 140.4154 0.0000 0.0000 0.0000
# 4 0.0000 0.0000 0.0000 431.6455 0.0000 0.0000
# 5 0.0000 0.0000 0.0000 0.0000 10.1466 0.0000
# 6 0.0000 0.0000 0.0000 0.0000 0.0000 13.7136
#
#
#
# Elastic Compliance Matrix: (Units=1/GPa)
#
#
# Indices 1 2 3 4 5 6 
#
# 1 0.016022 -0.002890 -0.002511 0.000000 0.000000 0.000000
# 2 -0.002890 0.007658 -0.002012 0.000000 0.000000 0.000000
# 3 -0.002511 -0.002012 0.008367 0.000000 0.000000 0.000000
# 4 0.000000 0.000000 0.000000 0.002317 0.000000 0.000000
# 5 0.000000 0.000000 0.000000 0.000000 0.098555 0.000000
# 6 0.000000 0.000000 0.000000 0.000000 0.000000 0.072920
#
#
# Mechanical properties :
#
#
# Convention : Reuss Voigt Hill
#
# Bulk Modulus (GPa) = 58.07234 66.81115 62.44175
# Shear Modulus (GPa) = 22.08423 108.15712 65.12067
#
# Velocity S-wave (km/s) = 3.29030 7.28152 5.65007
# Velocity P-wave (km/s) = 6.55003 10.17084 8.55421
#
# Compressibility (1/GPa) = 0.01721990
#
# Stress axis : x y z
#
# Youngs Moduli (GPa) = 62.41435 130.57743 119.52143
#
# Poissons Ratio (x) = 0.37740 0.30016
# Poissons Ratio (y) = 0.18039 0.24046
# Poissons Ratio (z) = 0.15675 0.26271
#
# Static dielectric constant tensor:
#      x y z
#    x 0.447350 0.000000 0.000000 
#    y 0.000000 1.617900 0.000000 
#    z 0.000000 0.000000 1.835550 
# 
# From -- ./inp_files/40822.got.cif
#   From: 2010.05.17/outbox.cif.g08.bks.cpg/sg68_21_cif.got.tgz:40822.got - 2010.06.03 18:57:09.
