data_PCOD9509431
_publ_section_title
;
Structure prediction by ZEFSAII (Michael W. Deem and Ramdas Pophale) SiO2 
 PCOD9509431
Probable space group: C C C A
;
_chemical_formula_sum "Si O2"
_cell_formula_units_Z 104
_cell_length_a 9.201280
_cell_length_b 27.753681
_cell_length_c 20.377932
_cell_angle_alpha 90.000000
_cell_angle_beta 90.000000
_cell_angle_gamma 90.000000
_cell_volume 5203.900063
_symmetry_space_group_name_H-M "C C C A"
_symmetry_group_IT_number 68
_space_group.IT_coordinate_system_code '2'
_symmetry_cell_setting 'orthorhombic'
loop_
_space_group_symop_operation_xyz
x,y,z
-x,1/2-y,z
x,1/2-y,1/2-z
-x,y,1/2-z
-x,-y,-z
x,1/2+y,-z
-x,1/2+y,1/2+z
x,-y,1/2+z
1/2+x,1/2+y,z
1/2-x,-y,z
1/2+x,-y,1/2-z
1/2-x,1/2+y,1/2-z
1/2-x,1/2-y,-z
1/2+x,y,-z
1/2-x,y,1/2+z
1/2+x,1/2-y,1/2+z
loop_
_atom_site_type_symbol
_atom_site_label
_atom_site_fract_x
_atom_site_fract_y
_atom_site_fract_z
Si Si1 0.669971 0.705305 0.332278
Si Si2 0.694789 0.888008 0.629457
Si Si3 0.500000 0.416355 0.250000
Si Si4 0.013670 0.061328 0.548519
Si Si5 0.955179 0.958725 0.604252
Si Si6 0.752749 0.579338 0.150618
Si Si7 0.323087 0.309896 0.821326
O O1 0.733675 0.663454 0.375541
O O2 0.708751 0.694990 0.256167
O O3 0.726784 0.758464 0.350746
O O4 0.496315 0.696382 0.331890
O O5 0.589603 0.889760 0.692819
O O6 0.592774 0.896347 0.567738
O O7 0.818872 0.929379 0.632886
O O8 0.634082 0.438703 0.207000
O O9 0.022235 0.057776 0.471110
O O10 0.170126 0.067953 0.581441
O O11 0.945325 0.015709 0.588944
O O12 0.096045 0.945924 0.647856
O O13 0.730263 0.637272 0.157530
#
# Coordination Sequence:
#
# PCOD9509431 Si02
#       7
#    16  16   8  16  16  16  16
#     4   9  17  32  59  89 116 154 200 232 278 367
#     4  11  20  38  61  86 125 154 191 250 300 343
#     4  10  24  36  53  92 130 144 184 248 295 370
#     4  10  24  40  59  91 115 147 219 259 275 337
#     4  11  22  41  66  81 109 170 213 239 289 345
#     4  11  20  38  61  86 125 154 191 250 300 343
#     4   9  17  32  59  89 116 154 200 232 278 367
#
# _framework density 19.985012000000001
#
# number of rings (size 3 to 8) (size 9 to 14) (size 15 to 20)
#    0.000    1.846    3.077    2.769    0.000    3.077 
#    0.000   16.154    0.000    5.538    0.000    0.000 
#    0.000    0.000    0.000    0.000    0.000    0.000 
#
# Total GULP energy -289504.418025 kJ/mol
# GULP energy per Si atom -5567.392654 kJ/mol
# Density = 1.993952 g / cm^3
# Si number density = 19.985012 Si / 1000 Ang^3
#
#
#
# Elastic Constant Matrix: (Units=GPa)
#
#
# Indices 1 2 3 4 5 6 
#
# 1 82.9119 18.7519 14.7466 0.0000 0.0000 0.0000
# 2 18.7519 99.3986 27.9571 0.0000 0.0000 0.0000
# 3 14.7466 27.9571 32.3892 0.0000 0.0000 0.0000
# 4 0.0000 0.0000 0.0000 10.4390 0.0000 0.0000
# 5 0.0000 0.0000 0.0000 0.0000 21.1694 0.0000
# 6 0.0000 0.0000 0.0000 0.0000 0.0000 -22.4765
#
#
#
# Elastic Compliance Matrix: (Units=1/GPa)
#
#
# Indices 1 2 3 4 5 6 
#
# 1 0.013207 -0.001057 -0.005101 0.000000 0.000000 0.000000
# 2 -0.001057 0.013371 -0.011060 0.000000 0.000000 0.000000
# 3 -0.005101 -0.011060 0.042743 0.000000 0.000000 0.000000
# 4 0.000000 0.000000 0.000000 0.095794 0.000000 0.000000
# 5 0.000000 0.000000 0.000000 0.000000 0.047238 0.000000
# 6 0.000000 0.000000 0.000000 0.000000 0.000000 -0.044491
#
#
# Mechanical properties :
#
#
# Convention : Reuss Voigt Hill
#
# Bulk Modulus (GPa) = 28.66481 37.51231 33.08856
# Shear Modulus (GPa) = 23.37248 12.04264 17.70756
#
# Velocity S-wave (km/s) = 3.42351 2.45742 2.97988
# Velocity P-wave (km/s) = 5.47736 5.18294 5.33218
#
# Compressibility (1/GPa) = 0.03488598
#
# Stress axis : x y z
#
# Youngs Moduli (GPa) = 75.71581 74.79098 23.39545
#
# Poissons Ratio (x) = 0.07905 0.11934
# Poissons Ratio (y) = 0.08002 0.25875
# Poissons Ratio (z) = 0.38622 0.82717
#
# Static dielectric constant tensor:
#      x y z
#    x 1.736790 0.000000 0.000000 
#    y 0.000000 1.762300 0.000000 
#    z 0.000000 0.000000 1.693810 
# 
# From -- ./inp_files/36561.got.cif
#   From: 2010.05.17/outbox.cif.g08.bks.cpg/sg68_19_cif.got.tgz:36561.got - 2010.06.03 18:57:09.
