data_PCOD9509980
_publ_section_title
;
Structure prediction by ZEFSAII (Michael W. Deem and Ramdas Pophale) SiO2 
 PCOD9509980
Probable space group: C C C A
;
_chemical_formula_sum "Si O2"
_cell_formula_units_Z 96
_cell_length_a 21.294881
_cell_length_b 15.530240
_cell_length_c 14.247403
_cell_angle_alpha 90.000000
_cell_angle_beta 90.000000
_cell_angle_gamma 90.000000
_cell_volume 4711.824365
_symmetry_space_group_name_H-M "C C C A"
_symmetry_group_IT_number 68
_space_group.IT_coordinate_system_code '2'
_symmetry_cell_setting 'orthorhombic'
loop_
_space_group_symop_operation_xyz
x,y,z
-x,1/2-y,z
x,1/2-y,1/2-z
-x,y,1/2-z
-x,-y,-z
x,1/2+y,-z
-x,1/2+y,1/2+z
x,-y,1/2+z
1/2+x,1/2+y,z
1/2-x,-y,z
1/2+x,-y,1/2-z
1/2-x,1/2+y,1/2-z
1/2-x,1/2-y,-z
1/2+x,y,-z
1/2-x,y,1/2+z
1/2+x,1/2-y,1/2+z
loop_
_atom_site_type_symbol
_atom_site_label
_atom_site_fract_x
_atom_site_fract_y
_atom_site_fract_z
Si Si1 0.256814 0.351882 0.990651
Si Si2 0.570986 0.758308 0.483102
Si Si3 0.118386 0.413329 0.591753
Si Si4 0.371297 0.574703 0.976756
Si Si5 0.326587 0.506560 0.773081
Si Si6 0.666161 0.324946 0.678962
O O1 0.195478 0.400880 0.023221
O O2 0.274748 0.359373 0.881390
O O3 0.250000 0.250000 0.000000
O O4 0.315072 0.387850 0.046211
O O5 0.500000 0.750000 0.449347
O O6 0.576060 0.831512 0.564036
O O7 0.592925 0.665561 0.522165
O O8 0.616087 0.789593 0.397404
O O9 0.096504 0.498932 0.536028
O O10 0.136995 0.435317 0.697367
O O11 0.349510 0.539703 0.875305
O O12 0.250000 0.500000 0.758226
O O13 0.354158 0.409491 0.765345
O O14 0.683369 0.250000 0.750000
#
# Coordination Sequence:
#
# PCOD9509980 Si02
#       6
#    16  16  16  16  16  16
#     4  11  20  37  63  95 136 174 202 264 337 413
#     4  11  26  47  69  87 126 182 229 278 322 381
#     4  11  24  41  63 100 134 174 219 265 341 393
#     4  12  21  42  65  94 134 170 217 270 328 398
#     4  12  23  36  66 103 135 169 204 264 340 415
#     4  11  23  40  63  98 129 164 224 271 334 390
#
# _framework density 20.374275000000001
#
# number of rings (size 3 to 8) (size 9 to 14) (size 15 to 20)
#    0.000    0.667    8.333    2.500    2.333    1.667 
#    0.000    1.667    0.000    0.000    0.000    0.000 
#    0.000    0.000    0.000    0.000    0.000    0.000 
#
# Total GULP energy -267780.099980 kJ/mol
# GULP energy per Si atom -5578.752083 kJ/mol
# Density = 2.032790 g / cm^3
# Si number density = 20.374275 Si / 1000 Ang^3
#
#
#
# Elastic Constant Matrix: (Units=GPa)
#
#
# Indices 1 2 3 4 5 6 
#
# 1 49.6041 12.1811 -1.8042 0.0000 0.0000 0.0000
# 2 12.1811 133.1460 8.6665 0.0000 0.0000 0.0000
# 3 -1.8042 8.6665 59.9811 0.0000 0.0000 0.0000
# 4 0.0000 0.0000 0.0000 36.9835 0.0000 0.0000
# 5 0.0000 0.0000 0.0000 0.0000 4.1707 0.0000
# 6 0.0000 0.0000 0.0000 0.0000 0.0000 6.8652
#
#
#
# Elastic Compliance Matrix: (Units=1/GPa)
#
#
# Indices 1 2 3 4 5 6 
#
# 1 0.020671 -0.001950 0.000904 0.000000 0.000000 0.000000
# 2 -0.001950 0.007766 -0.001181 0.000000 0.000000 0.000000
# 3 0.000904 -0.001181 0.016870 0.000000 0.000000 0.000000
# 4 0.000000 0.000000 0.000000 0.027039 0.000000 0.000000
# 5 0.000000 0.000000 0.000000 0.000000 0.239768 0.000000
# 6 0.000000 0.000000 0.000000 0.000000 0.000000 0.145662
#
#
# Mechanical properties :
#
#
# Convention : Reuss Voigt Hill
#
# Bulk Modulus (GPa) = 24.47830 31.20201 27.84016
# Shear Modulus (GPa) = 10.50757 24.51640 17.51199
#
# Velocity S-wave (km/s) = 2.27343 3.47263 2.93493
# Velocity P-wave (km/s) = 4.35106 5.60594 5.01788
#
# Compressibility (1/GPa) = 0.04085250
#
# Stress axis : x y z
#
# Youngs Moduli (GPa) = 48.37620 128.76971 59.27787
#
# Poissons Ratio (x) = 0.25110 -0.05356
# Poissons Ratio (y) = 0.09433 0.06999
# Poissons Ratio (z) = -0.04371 0.15204
#
# Static dielectric constant tensor:
#      x y z
#    x 1.715920 0.000000 0.000000 
#    y 0.000000 1.787700 0.000000 
#    z 0.000000 0.000000 1.767230 
# 
# From -- ./inp_files/22343.got.cif
#   From: 2010.05.17/outbox.cif.g08.bks.cpg/sg68_12_cif.got.tgz:22343.got - 2010.06.03 18:57:09.
