data_PCOD9509076
_publ_section_title
;
Structure prediction by ZEFSAII (Michael W. Deem and Ramdas Pophale) SiO2 
 PCOD9509076
Probable space group: C C C A
;
_chemical_formula_sum "Si O2"
_cell_formula_units_Z 104
_cell_length_a 19.874184
_cell_length_b 26.542776
_cell_length_c 9.190154
_cell_angle_alpha 90.000000
_cell_angle_beta 90.000000
_cell_angle_gamma 90.000000
_cell_volume 4847.953407
_symmetry_space_group_name_H-M "C C C A"
_symmetry_group_IT_number 68
_space_group.IT_coordinate_system_code '2'
_symmetry_cell_setting 'orthorhombic'
loop_
_space_group_symop_operation_xyz
x,y,z
-x,1/2-y,z
x,1/2-y,1/2-z
-x,y,1/2-z
-x,-y,-z
x,1/2+y,-z
-x,1/2+y,1/2+z
x,-y,1/2+z
1/2+x,1/2+y,z
1/2-x,-y,z
1/2+x,-y,1/2-z
1/2-x,1/2+y,1/2-z
1/2-x,1/2-y,-z
1/2+x,y,-z
1/2-x,y,1/2+z
1/2+x,1/2-y,1/2+z
loop_
_atom_site_type_symbol
_atom_site_label
_atom_site_fract_x
_atom_site_fract_y
_atom_site_fract_z
Si Si1 0.682535 0.033518 0.905936
Si Si2 0.825592 0.144515 0.947848
Si Si3 0.920401 0.807482 0.245702
Si Si4 0.381110 0.359981 0.944391
Si Si5 0.500000 0.093361 0.750000
Si Si6 0.221194 0.691680 0.744145
Si Si7 0.123549 0.544245 0.591940
O O1 0.670126 0.091681 0.953439
O O2 0.668288 0.033255 0.734394
O O3 0.750000 0.000000 0.934601
O O4 0.623643 0.003851 0.989445
O O5 0.895789 0.166031 0.892177
O O6 0.777866 0.155117 0.810509
O O7 0.795377 0.175638 0.081133
O O8 0.840047 0.088823 0.003187
O O9 0.895070 0.750000 0.250000
O O10 0.000000 0.806489 0.250000
O O11 0.897080 0.837014 0.101337
O O12 0.448293 0.376568 0.855895
O O13 0.343438 0.318916 0.844886
O O14 0.551014 0.061478 0.649461
O O15 0.240339 0.750000 0.750000
#
# Coordination Sequence:
#
# PCOD9509076 Si02
#       7
#    16  16  16  16   8  16  16
#     4  11  24  44  68 102 137 179 235 291 368 432
#     4  12  24  44  66 104 140 184 229 303 350 436
#     4  11  25  45  72 104 146 195 249 293 355 423
#     4  11  24  46  70 104 143 190 236 306 356 435
#     4  10  22  48  67 102 140 186 247 292 372 420
#     4  12  24  42  71 101 138 183 235 294 365 424
#     4  11  25  41  71  97 140 184 231 293 355 436
#
# _framework density 21.452352000000001
#
# number of rings (size 3 to 8) (size 9 to 14) (size 15 to 20)
#    0.000    0.769    3.077    5.077    2.154    2.462 
#    1.385    0.000    0.000    0.000    0.000    0.000 
#    0.000    0.000    0.000    0.000    0.000    0.000 
#
# Total GULP energy -290671.482118 kJ/mol
# GULP energy per Si atom -5589.836195 kJ/mol
# Density = 2.140353 g / cm^3
# Si number density = 21.452352 Si / 1000 Ang^3
#
#
#
# Elastic Constant Matrix: (Units=GPa)
#
#
# Indices 1 2 3 4 5 6 
#
# 1 124.2094 42.2287 37.5987 0.0000 0.0000 0.0000
# 2 42.2287 117.7371 60.6782 0.0000 0.0000 0.0000
# 3 37.5987 60.6782 127.4244 0.0000 0.0000 0.0000
# 4 0.0000 0.0000 0.0000 5.8435 0.0000 0.0000
# 5 0.0000 0.0000 0.0000 0.0000 41.5182 0.0000
# 6 0.0000 0.0000 0.0000 0.0000 0.0000 44.2521
#
#
#
# Elastic Compliance Matrix: (Units=1/GPa)
#
#
# Indices 1 2 3 4 5 6 
#
# 1 0.009394 -0.002572 -0.001547 0.000000 0.000000 0.000000
# 2 -0.002572 0.011960 -0.004936 0.000000 0.000000 0.000000
# 3 -0.001547 -0.004936 0.010655 0.000000 0.000000 0.000000
# 4 0.000000 0.000000 0.000000 0.171131 0.000000 0.000000
# 5 0.000000 0.000000 0.000000 0.000000 0.024086 0.000000
# 6 0.000000 0.000000 0.000000 0.000000 0.000000 0.022598
#
#
# Mechanical properties :
#
#
# Convention : Reuss Voigt Hill
#
# Bulk Modulus (GPa) = 71.95303 72.26469 72.10886
# Shear Modulus (GPa) = 18.34413 33.58044 25.96228
#
# Velocity S-wave (km/s) = 2.92740 3.96074 3.48261
# Velocity P-wave (km/s) = 6.71118 7.39432 7.06101
#
# Compressibility (1/GPa) = 0.01389796
#
# Stress axis : x y z
#
# Youngs Moduli (GPa) = 106.45534 83.61186 93.85341
#
# Poissons Ratio (x) = 0.21504 0.14519
# Poissons Ratio (y) = 0.27379 0.46329
# Poissons Ratio (z) = 0.16469 0.41274
#
# Static dielectric constant tensor:
#      x y z
#    x 1.822880 0.000000 0.000000 
#    y 0.000000 1.812710 0.000000 
#    z 0.000000 0.000000 1.771300 
# 
# From -- ./inp_files/7400.got.cif
#   From: 2010.05.17/outbox.cif.g08.bks.cpg/sg68_4_cif.got.tgz:7400.got - 2010.06.03 18:57:09.
