data_PCOD9509014
_publ_section_title
;
Structure prediction by ZEFSAII (Michael W. Deem and Ramdas Pophale) SiO2 
 PCOD9509014
Probable space group: C C C A
;
_chemical_formula_sum "Si O2"
_cell_formula_units_Z 88
_cell_length_a 12.360678
_cell_length_b 23.074194
_cell_length_c 14.777737
_cell_angle_alpha 90.000000
_cell_angle_beta 90.000000
_cell_angle_gamma 90.000000
_cell_volume 4214.798006
_symmetry_space_group_name_H-M "C C C A"
_symmetry_group_IT_number 68
_space_group.IT_coordinate_system_code '2'
_symmetry_cell_setting 'orthorhombic'
loop_
_space_group_symop_operation_xyz
x,y,z
-x,1/2-y,z
x,1/2-y,1/2-z
-x,y,1/2-z
-x,-y,-z
x,1/2+y,-z
-x,1/2+y,1/2+z
x,-y,1/2+z
1/2+x,1/2+y,z
1/2-x,-y,z
1/2+x,-y,1/2-z
1/2-x,1/2+y,1/2-z
1/2-x,1/2-y,-z
1/2+x,y,-z
1/2-x,y,1/2+z
1/2+x,1/2-y,1/2+z
loop_
_atom_site_type_symbol
_atom_site_label
_atom_site_fract_x
_atom_site_fract_y
_atom_site_fract_z
Si Si1 0.281087 0.931595 0.784646
Si Si2 0.449759 0.040117 0.576459
Si Si3 0.272661 0.622233 0.409343
Si Si4 0.872422 0.742859 0.547613
Si Si5 0.632504 0.633451 0.421907
Si Si6 0.000000 0.967853 0.250000
O O1 0.254298 0.898501 0.691459
O O2 0.222383 0.898928 0.864420
O O3 0.409084 0.930170 0.796780
O O4 0.250000 0.000000 0.784557
O O5 0.335252 0.066665 0.550144
O O6 0.527769 0.094695 0.590104
O O7 0.500000 0.000000 0.500000
O O8 0.446572 0.006410 0.671457
O O9 0.350601 0.678849 0.412996
O O10 0.168836 0.633534 0.472611
O O11 0.750000 0.750000 0.500000
O O12 0.875318 0.800139 0.609449
O O13 0.000000 0.750000 0.507265
#
# Coordination Sequence:
#
# PCOD9509014 Si02
#       6
#    16  16  16  16  16   8
#     4  12  24  41  61  93 133 165 212 274 331 394
#     4  12  22  35  63  94 125 173 213 258 330 402
#     4  11  24  41  64  93 130 170 219 269 327 392
#     4  10  22  45  69  98 131 177 227 277 324 388
#     4  11  24  41  64  93 130 170 219 269 327 392
#     4  12  24  40  58  88 136 168 210 266 330 396
#
# _framework density 20.878819
#
# number of rings (size 3 to 8) (size 9 to 14) (size 15 to 20)
#    0.000    0.727    5.455    2.182    0.000    0.727 
#    3.273    0.909    0.000    1.091    0.000    0.000 
#    0.000    0.000    0.000    0.000    0.000    0.000 
#
# Total GULP energy -244990.405317 kJ/mol
# GULP energy per Si atom -5567.963757 kJ/mol
# Density = 2.083130 g / cm^3
# Si number density = 20.878819 Si / 1000 Ang^3
#
#
#
# Elastic Constant Matrix: (Units=GPa)
#
#
# Indices 1 2 3 4 5 6 
#
# 1 95.3009 12.4533 -10.7652 0.0000 0.0000 0.0000
# 2 12.4533 102.4297 14.9671 0.0000 0.0000 0.0000
# 3 -10.7652 14.9671 55.5409 0.0000 0.0000 0.0000
# 4 0.0000 0.0000 0.0000 16.9764 0.0000 0.0000
# 5 0.0000 0.0000 0.0000 0.0000 28.4418 0.0000
# 6 0.0000 0.0000 0.0000 0.0000 0.0000 38.3376
#
#
#
# Elastic Compliance Matrix: (Units=1/GPa)
#
#
# Indices 1 2 3 4 5 6 
#
# 1 0.011011 -0.001718 0.002597 0.000000 0.000000 0.000000
# 2 -0.001718 0.010431 -0.003144 0.000000 0.000000 0.000000
# 3 0.002597 -0.003144 0.019355 0.000000 0.000000 0.000000
# 4 0.000000 0.000000 0.000000 0.058905 0.000000 0.000000
# 5 0.000000 0.000000 0.000000 0.000000 0.035160 0.000000
# 6 0.000000 0.000000 0.000000 0.000000 0.000000 0.026084
#
#
# Mechanical properties :
#
#
# Convention : Reuss Voigt Hill
#
# Bulk Modulus (GPa) = 27.57289 31.84243 29.70766
# Shear Modulus (GPa) = 28.15860 32.52556 30.34208
#
# Velocity S-wave (km/s) = 3.67641 3.95121 3.81628
# Velocity P-wave (km/s) = 5.59072 6.00835 5.80329
#
# Compressibility (1/GPa) = 0.03626751
#
# Stress axis : x y z
#
# Youngs Moduli (GPa) = 90.81835 95.86720 51.66521
#
# Poissons Ratio (x) = 0.16472 -0.13419
# Poissons Ratio (y) = 0.15605 0.16244
# Poissons Ratio (z) = -0.23588 0.30141
#
# Static dielectric constant tensor:
#      x y z
#    x 1.906060 0.000000 0.000000 
#    y 0.000000 1.786380 0.000000 
#    z 0.000000 0.000000 1.770910 
# 
# From -- ./inp_files/16330.got.cif
#   From: 2010.05.17/outbox.cif.g08.bks.cpg/sg68_9_cif.got.tgz:16330.got - 2010.06.03 18:57:09.
