data_PCOD9509520
_publ_section_title
;
Structure prediction by ZEFSAII (Michael W. Deem and Ramdas Pophale) SiO2 
 PCOD9509520
Probable space group: C C C A
;
_chemical_formula_sum "Si O2"
_cell_formula_units_Z 88
_cell_length_a 8.664061
_cell_length_b 24.489576
_cell_length_c 20.309994
_cell_angle_alpha 90.000000
_cell_angle_beta 90.000000
_cell_angle_gamma 90.000000
_cell_volume 4309.357879
_symmetry_space_group_name_H-M "C C C A"
_symmetry_group_IT_number 68
_space_group.IT_coordinate_system_code '2'
_symmetry_cell_setting 'orthorhombic'
loop_
_space_group_symop_operation_xyz
x,y,z
-x,1/2-y,z
x,1/2-y,1/2-z
-x,y,1/2-z
-x,-y,-z
x,1/2+y,-z
-x,1/2+y,1/2+z
x,-y,1/2+z
1/2+x,1/2+y,z
1/2-x,-y,z
1/2+x,-y,1/2-z
1/2-x,1/2+y,1/2-z
1/2-x,1/2-y,-z
1/2+x,y,-z
1/2-x,y,1/2+z
1/2+x,1/2-y,1/2+z
loop_
_atom_site_type_symbol
_atom_site_label
_atom_site_fract_x
_atom_site_fract_y
_atom_site_fract_z
Si Si1 0.102523 0.394125 0.575952
Si Si2 0.942587 0.312165 0.678677
Si Si3 0.927453 0.310363 0.181888
Si Si4 0.250000 0.500000 0.753586
Si Si5 0.508679 0.502454 0.350010
Si Si6 0.028152 0.891947 0.929453
O O1 0.073717 0.453971 0.606215
O O2 0.286606 0.388930 0.571584
O O3 0.018256 0.350558 0.623484
O O4 0.032053 0.388426 0.503457
O O5 0.757528 0.310295 0.683098
O O6 0.000000 0.250000 0.669032
O O7 0.000000 0.331787 0.750000
O O8 0.000000 0.250000 0.176724
O O9 0.000000 0.333736 0.250000
O O10 0.972598 0.344358 0.118257
O O11 0.365636 0.472156 0.701310
O O12 0.373396 0.523924 0.805103
O O13 0.464193 0.552025 0.397008
#
# Coordination Sequence:
#
# PCOD9509520 Si02
#       6
#    16  16  16   8  16  16
#     4  12  26  44  66  96 135 178 219 269 327 393
#     4  11  24  44  70 100 131 170 219 275 327 385
#     4  11  24  44  70 100 131 170 219 275 327 385
#     4  10  24  42  66 100 126 178 216 278 316 388
#     4  11  25  42  67  98 137 169 222 265 332 380
#     4  12  26  44  66  96 135 178 219 269 327 393
#
# _framework density 20.420676
#
# number of rings (size 3 to 8) (size 9 to 14) (size 15 to 20)
#    0.000    0.727    1.818    6.000   10.182    0.727 
#    0.000    3.636    0.000    0.000    0.000    0.000 
#    0.000    0.000    0.000    0.000    0.000    0.000 
#
# Total GULP energy -245681.687923 kJ/mol
# GULP energy per Si atom -5583.674726 kJ/mol
# Density = 2.037420 g / cm^3
# Si number density = 20.420676 Si / 1000 Ang^3
#
#
#
# Elastic Constant Matrix: (Units=GPa)
#
#
# Indices 1 2 3 4 5 6 
#
# 1 127.7222 37.3304 74.2504 0.0000 0.0000 0.0000
# 2 37.3304 82.1282 77.3998 0.0000 0.0000 0.0000
# 3 74.2504 77.3998 204.1296 0.0000 0.0000 0.0000
# 4 0.0000 0.0000 0.0000 23.9251 0.0000 0.0000
# 5 0.0000 0.0000 0.0000 0.0000 20.0677 0.0000
# 6 0.0000 0.0000 0.0000 0.0000 0.0000 24.5323
#
#
#
# Elastic Compliance Matrix: (Units=1/GPa)
#
#
# Indices 1 2 3 4 5 6 
#
# 1 0.010089 -0.001754 -0.003005 0.000000 0.000000 0.000000
# 2 -0.001754 0.019251 -0.006661 0.000000 0.000000 0.000000
# 3 -0.003005 -0.006661 0.008518 0.000000 0.000000 0.000000
# 4 0.000000 0.000000 0.000000 0.041797 0.000000 0.000000
# 5 0.000000 0.000000 0.000000 0.000000 0.049831 0.000000
# 6 0.000000 0.000000 0.000000 0.000000 0.000000 0.040763
#
#
# Mechanical properties :
#
#
# Convention : Reuss Voigt Hill
#
# Bulk Modulus (GPa) = 66.58968 87.99348 77.29158
# Shear Modulus (GPa) = 25.24040 28.70499 26.97269
#
# Velocity S-wave (km/s) = 3.51952 3.75331 3.63830
# Velocity P-wave (km/s) = 7.01397 7.87192 7.45530
#
# Compressibility (1/GPa) = 0.01501734
#
# Stress axis : x y z
#
# Youngs Moduli (GPa) = 99.11868 51.94432 117.40410
#
# Poissons Ratio (x) = 0.09112 0.35276
# Poissons Ratio (y) = 0.17387 0.78209
# Poissons Ratio (z) = 0.29782 0.34603
#
# Static dielectric constant tensor:
#      x y z
#    x 1.760590 0.000000 0.000000 
#    y 0.000000 1.710800 0.000000 
#    z 0.000000 0.000000 1.691260 
# 
# From -- ./inp_files/36261.got.cif
#   From: 2010.05.17/outbox.cif.g08.bks.cpg/sg68_19_cif.got.tgz:36261.got - 2010.06.03 18:57:09.
