data_PCOD9509563
_publ_section_title
;
Structure prediction by ZEFSAII (Michael W. Deem and Ramdas Pophale) SiO2 
 PCOD9509563
Probable space group: C C C A
;
_chemical_formula_sum "Si O2"
_cell_formula_units_Z 64
_cell_length_a 21.492173
_cell_length_b 11.333506
_cell_length_c 11.047929
_cell_angle_alpha 90.000000
_cell_angle_beta 90.000000
_cell_angle_gamma 90.000000
_cell_volume 2691.073014
_symmetry_space_group_name_H-M "C C C A"
_symmetry_group_IT_number 68
_space_group.IT_coordinate_system_code '2'
_symmetry_cell_setting 'orthorhombic'
loop_
_space_group_symop_operation_xyz
x,y,z
-x,1/2-y,z
x,1/2-y,1/2-z
-x,y,1/2-z
-x,-y,-z
x,1/2+y,-z
-x,1/2+y,1/2+z
x,-y,1/2+z
1/2+x,1/2+y,z
1/2-x,-y,z
1/2+x,-y,1/2-z
1/2-x,1/2+y,1/2-z
1/2-x,1/2-y,-z
1/2+x,y,-z
1/2-x,y,1/2+z
1/2+x,1/2-y,1/2+z
loop_
_atom_site_type_symbol
_atom_site_label
_atom_site_fract_x
_atom_site_fract_y
_atom_site_fract_z
Si Si1 0.631186 0.855957 0.996377
Si Si2 0.103299 0.750000 0.750000
Si Si3 0.062312 0.001257 0.679851
Si Si4 0.841683 0.347219 0.834633
Si Si5 0.750000 0.000000 0.510645
O O1 0.636569 0.816102 0.136424
O O2 0.695961 0.918360 0.953673
O O3 0.618610 0.735811 0.923539
O O4 0.576857 0.946774 0.954496
O O5 0.067468 0.859660 0.687930
O O6 0.000000 0.036666 0.750000
O O7 0.116418 0.063044 0.759742
O O8 0.810338 0.250000 0.750000
O O9 0.790916 0.413520 0.909982
#
# Coordination Sequence:
#
# PCOD9509563 Si02
#       5
#    16   8  16  16   8
#     4  11  26  46  76 110 150 196 258 311 385 451
#     4  12  25  48  76 114 148 200 257 314 388 446
#     4  11  26  51  74 107 149 202 256 317 387 452
#     4  10  24  43  69 104 141 201 247 308 377 447
#     4  12  22  44  68 110 152 196 244 322 366 464
#
# _framework density 23.782333000000001
#
# number of rings (size 3 to 8) (size 9 to 14) (size 15 to 20)
#    0.000    1.000    2.500    2.625    1.750    9.500 
#    4.500    0.000    0.000    0.000    0.000    0.000 
#    0.000    0.000    0.000    0.000    0.000    0.000 
#
# Total GULP energy -178466.509797 kJ/mol
# GULP energy per Si atom -5577.078431 kJ/mol
# Density = 2.372820 g / cm^3
# Si number density = 23.782333 Si / 1000 Ang^3
#
#
#
# Elastic Constant Matrix: (Units=GPa)
#
#
# Indices 1 2 3 4 5 6 
#
# 1 103.3717 34.3632 24.2206 0.0000 0.0000 0.0000
# 2 34.3632 156.9696 46.7024 0.0000 0.0000 0.0000
# 3 24.2206 46.7024 103.5344 0.0000 0.0000 0.0000
# 4 0.0000 0.0000 0.0000 58.8677 0.0000 0.0000
# 5 0.0000 0.0000 0.0000 0.0000 29.5596 0.0000
# 6 0.0000 0.0000 0.0000 0.0000 0.0000 -24.3754
#
#
#
# Elastic Compliance Matrix: (Units=1/GPa)
#
#
# Indices 1 2 3 4 5 6 
#
# 1 0.010677 -0.001841 -0.001667 0.000000 0.000000 0.000000
# 2 -0.001841 0.007676 -0.003032 0.000000 0.000000 0.000000
# 3 -0.001667 -0.003032 0.011416 0.000000 0.000000 0.000000
# 4 0.000000 0.000000 0.000000 0.016987 0.000000 0.000000
# 5 0.000000 0.000000 0.000000 0.000000 0.033830 0.000000
# 6 0.000000 0.000000 0.000000 0.000000 0.000000 -0.041025
#
#
# Mechanical properties :
#
#
# Convention : Reuss Voigt Hill
#
# Bulk Modulus (GPa) = 59.92184 63.82760 61.87472
# Shear Modulus (GPa) = 85.90559 30.04967 57.97763
#
# Velocity S-wave (km/s) = 6.01664 3.55847 4.94281
# Velocity P-wave (km/s) = 8.57422 6.61666 7.65825
#
# Compressibility (1/GPa) = 0.01668841
#
# Stress axis : x y z
#
# Youngs Moduli (GPa) = 93.66356 130.28077 87.59534
#
# Poissons Ratio (x) = 0.23988 0.14603
# Poissons Ratio (y) = 0.17246 0.26556
# Poissons Ratio (z) = 0.15614 0.39496
#
# Static dielectric constant tensor:
#      x y z
#    x 1.211880 0.000000 0.000000 
#    y 0.000000 1.893590 0.000000 
#    z 0.000000 0.000000 2.048560 
# 
# From -- ./inp_files/16117.got.cif
#   From: 2010.05.17/outbox.cif.g08.bks.cpg/sg68_9_cif.got.tgz:16117.got - 2010.06.03 18:57:09.
