data_PCOD9509454
_publ_section_title
;
Structure prediction by ZEFSAII (Michael W. Deem and Ramdas Pophale) SiO2 
 PCOD9509454
Probable space group: C C C A
;
_chemical_formula_sum "Si O2"
_cell_formula_units_Z 116
_cell_length_a 25.506436
_cell_length_b 24.091491
_cell_length_c 9.733498
_cell_angle_alpha 90.000000
_cell_angle_beta 90.000000
_cell_angle_gamma 90.000000
_cell_volume 5981.118433
_symmetry_space_group_name_H-M "C C C A"
_symmetry_group_IT_number 68
_space_group.IT_coordinate_system_code '2'
_symmetry_cell_setting 'orthorhombic'
loop_
_space_group_symop_operation_xyz
x,y,z
-x,1/2-y,z
x,1/2-y,1/2-z
-x,y,1/2-z
-x,-y,-z
x,1/2+y,-z
-x,1/2+y,1/2+z
x,-y,1/2+z
1/2+x,1/2+y,z
1/2-x,-y,z
1/2+x,-y,1/2-z
1/2-x,1/2+y,1/2-z
1/2-x,1/2-y,-z
1/2+x,y,-z
1/2-x,y,1/2+z
1/2+x,1/2-y,1/2+z
loop_
_atom_site_type_symbol
_atom_site_label
_atom_site_fract_x
_atom_site_fract_y
_atom_site_fract_z
Si Si1 0.196394 0.283876 0.476689
Si Si2 0.904331 0.702468 0.923281
Si Si3 0.939999 0.315813 0.721262
Si Si4 0.297136 0.420591 0.467616
Si Si5 0.660426 0.128456 0.194969
Si Si6 0.177553 0.043493 0.033385
Si Si7 0.500000 0.250000 0.750000
Si Si8 0.330906 0.371055 0.749688
O O1 0.250000 0.250000 0.500000
O O2 0.143910 0.245951 0.454138
O O3 0.189096 0.323410 0.608801
O O4 0.198004 0.325398 0.345391
O O5 0.879746 0.659535 0.817543
O O6 0.957606 0.723920 0.854872
O O7 0.922115 0.676013 0.065519
O O8 0.932990 0.250000 0.750000
O O9 0.899597 0.351981 0.807259
O O10 0.000000 0.329448 0.750000
O O11 0.317410 0.380352 0.347877
O O12 0.238355 0.440639 0.437898
O O13 0.329939 0.477911 0.466494
O O14 0.298871 0.393661 0.618667
O O15 0.665892 0.070953 0.113134
O O16 0.150451 0.078726 0.153149
#
# Coordination Sequence:
#
# PCOD9509454 Si02
#       8
#    16  16  16  16  16  16   4  16
#     4  11  26  43  58  95 145 178 212 260 336 413
#     4  12  24  42  64  94 133 179 218 274 319 395
#     4  11  23  42  65  92 128 166 223 269 322 398
#     4  11  22  42  63  94 125 173 221 274 325 389
#     4  11  23  41  64  93 124 176 211 266 334 385
#     4  10  24  39  65  92 130 167 223 270 324 400
#     4  12  24  44  66  88 136 172 236 272 312 392
#     4  11  23  40  61  94 129 174 219 265 334 388
#
# _framework density 19.394366000000002
#
# number of rings (size 3 to 8) (size 9 to 14) (size 15 to 20)
#    0.000    0.966    4.138    2.483    5.793    3.310 
#    2.483    0.690    0.000    0.828    3.586    0.000 
#    0.000    0.000    0.000    0.000    0.000    0.000 
#
# Total GULP energy -323933.013832 kJ/mol
# GULP energy per Si atom -5585.051963 kJ/mol
# Density = 1.935022 g / cm^3
# Si number density = 19.394366 Si / 1000 Ang^3
#
#
#
# Elastic Constant Matrix: (Units=GPa)
#
#
# Indices 1 2 3 4 5 6 
#
# 1 111.9386 55.2627 34.7310 0.0000 0.0000 0.0000
# 2 55.2627 86.1899 43.0083 0.0000 0.0000 0.0000
# 3 34.7310 43.0083 119.8966 0.0000 0.0000 0.0000
# 4 0.0000 0.0000 0.0000 12.5209 0.0000 0.0000
# 5 0.0000 0.0000 0.0000 0.0000 25.6638 0.0000
# 6 0.0000 0.0000 0.0000 0.0000 0.0000 14.1753
#
#
#
# Elastic Compliance Matrix: (Units=1/GPa)
#
#
# Indices 1 2 3 4 5 6 
#
# 1 0.013160 -0.007961 -0.000957 0.000000 0.000000 0.000000
# 2 -0.007961 0.018947 -0.004491 0.000000 0.000000 0.000000
# 3 -0.000957 -0.004491 0.010228 0.000000 0.000000 0.000000
# 4 0.000000 0.000000 0.000000 0.079866 0.000000 0.000000
# 5 0.000000 0.000000 0.000000 0.000000 0.038965 0.000000
# 6 0.000000 0.000000 0.000000 0.000000 0.000000 0.070545
#
#
# Mechanical properties :
#
#
# Convention : Reuss Voigt Hill
#
# Bulk Modulus (GPa) = 64.43203 64.89211 64.66207
# Shear Modulus (GPa) = 18.96077 22.80689 20.88383
#
# Velocity S-wave (km/s) = 3.13012 3.43294 3.28502
# Velocity P-wave (km/s) = 6.80865 7.01750 6.91386
#
# Compressibility (1/GPa) = 0.01552023
#
# Stress axis : x y z
#
# Youngs Moduli (GPa) = 75.98558 52.77803 97.76645
#
# Poissons Ratio (x) = 0.42015 0.09353
# Poissons Ratio (y) = 0.60490 0.43903
# Poissons Ratio (z) = 0.07269 0.23700
#
# Static dielectric constant tensor:
#      x y z
#    x 1.597060 0.000000 0.000000 
#    y 0.000000 1.760580 0.000000 
#    z 0.000000 0.000000 1.734430 
# 
# From -- ./inp_files/9163.got.cif
#   From: 2010.05.17/outbox.cif.g08.bks.cpg/sg68_5_cif.got.tgz:9163.got - 2010.06.03 18:57:09.
