data_PCOD9509638
_publ_section_title
;
Structure prediction by ZEFSAII (Michael W. Deem and Ramdas Pophale) SiO2 
 PCOD9509638
Probable space group: C C C A
;
_chemical_formula_sum "Si O2"
_cell_formula_units_Z 60
_cell_length_a 21.842539
_cell_length_b 13.072474
_cell_length_c 8.680495
_cell_angle_alpha 90.000000
_cell_angle_beta 90.000000
_cell_angle_gamma 90.000000
_cell_volume 2478.594021
_symmetry_space_group_name_H-M "C C C A"
_symmetry_group_IT_number 68
_space_group.IT_coordinate_system_code '2'
_symmetry_cell_setting 'orthorhombic'
loop_
_space_group_symop_operation_xyz
x,y,z
-x,1/2-y,z
x,1/2-y,1/2-z
-x,y,1/2-z
-x,-y,-z
x,1/2+y,-z
-x,1/2+y,1/2+z
x,-y,1/2+z
1/2+x,1/2+y,z
1/2-x,-y,z
1/2+x,-y,1/2-z
1/2-x,1/2+y,1/2-z
1/2-x,1/2-y,-z
1/2+x,y,-z
1/2-x,y,1/2+z
1/2+x,1/2-y,1/2+z
loop_
_atom_site_type_symbol
_atom_site_label
_atom_site_fract_x
_atom_site_fract_y
_atom_site_fract_z
Si Si1 0.979158 0.614625 0.979286
Si Si2 0.282061 0.250000 0.250000
Si Si3 0.101223 0.142461 0.200339
Si Si4 0.709337 0.900831 0.484359
Si Si5 0.000000 0.250000 0.750000
O O1 0.924145 0.603961 0.860838
O O2 0.040468 0.664200 0.901418
O O3 0.000000 0.500000 0.000000
O O4 0.964147 0.673889 0.135876
O O5 0.311314 0.168887 0.370451
O O6 0.247172 0.327531 0.367579
O O7 0.131005 0.250000 0.250000
O O8 0.148258 0.072244 0.110810
O O9 0.750000 0.000000 0.526087
#
# Coordination Sequence:
#
# PCOD9509638 Si02
#       5
#    16   8  16  16   4
#     4  11  24  42  70 111 151 189 246 298 369 451
#     4  10  24  45  68 107 141 184 254 299 364 446
#     4  11  22  48  70  98 153 197 235 313 367 434
#     4  11  24  45  75 104 146 194 245 307 374 440
#     4  12  20  40  72 106 152 194 244 298 368 434
#
# _framework density 24.207270999999999
#
# number of rings (size 3 to 8) (size 9 to 14) (size 15 to 20)
#    0.000    1.067    4.000    3.200    0.000    5.333 
#    0.000    0.000    0.000    0.000    0.000    0.000 
#    0.000    0.000    0.000    0.000    0.000    0.000 
#
# Total GULP energy -167470.792984 kJ/mol
# GULP energy per Si atom -5582.359766 kJ/mol
# Density = 2.415217 g / cm^3
# Si number density = 24.207271 Si / 1000 Ang^3
#
#
#
# Elastic Constant Matrix: (Units=GPa)
#
#
# Indices 1 2 3 4 5 6 
#
# 1 73.6826 35.5691 39.2728 0.0000 0.0000 0.0000
# 2 35.5691 122.4652 56.6298 0.0000 0.0000 0.0000
# 3 39.2728 56.6298 163.1824 0.0000 0.0000 0.0000
# 4 0.0000 0.0000 0.0000 28.4112 0.0000 0.0000
# 5 0.0000 0.0000 0.0000 0.0000 14.6828 0.0000
# 6 0.0000 0.0000 0.0000 0.0000 0.0000 8.2765
#
#
#
# Elastic Compliance Matrix: (Units=1/GPa)
#
#
# Indices 1 2 3 4 5 6 
#
# 1 0.016793 -0.003584 -0.002798 0.000000 0.000000 0.000000
# 2 -0.003584 0.010491 -0.002778 0.000000 0.000000 0.000000
# 3 -0.002798 -0.002778 0.007766 0.000000 0.000000 0.000000
# 4 0.000000 0.000000 0.000000 0.035197 0.000000 0.000000
# 5 0.000000 0.000000 0.000000 0.000000 0.068107 0.000000
# 6 0.000000 0.000000 0.000000 0.000000 0.000000 0.120824
#
#
# Mechanical properties :
#
#
# Convention : Reuss Voigt Hill
#
# Bulk Modulus (GPa) = 59.77251 69.14151 64.45701
# Shear Modulus (GPa) = 17.66323 25.46468 21.56395
#
# Velocity S-wave (km/s) = 2.70416 3.24689 2.98787
# Velocity P-wave (km/s) = 5.87329 6.53304 6.21193
#
# Compressibility (1/GPa) = 0.01673010
#
# Stress axis : x y z
#
# Youngs Moduli (GPa) = 59.54893 95.31846 128.77231
#
# Poissons Ratio (x) = 0.34158 0.36029
# Poissons Ratio (y) = 0.21340 0.35777
# Poissons Ratio (z) = 0.16661 0.26483
#
# Static dielectric constant tensor:
#      x y z
#    x 2.022300 0.000000 0.000000 
#    y 0.000000 1.983900 0.000000 
#    z 0.000000 0.000000 1.935630 
# 
# From -- ./inp_files/7699.got.cif
#   From: 2010.05.17/outbox.cif.g08.bks.cpg/sg68_4_cif.got.tgz:7699.got - 2010.06.03 18:57:09.
