data_PCOD9509299
_publ_section_title
;
Structure prediction by ZEFSAII (Michael W. Deem and Ramdas Pophale) SiO2 
 PCOD9509299
Probable space group: C C C A
;
_chemical_formula_sum "Si O2"
_cell_formula_units_Z 56
_cell_length_a 18.499875
_cell_length_b 8.193819
_cell_length_c 14.206737
_cell_angle_alpha 90.000000
_cell_angle_beta 90.000000
_cell_angle_gamma 90.000000
_cell_volume 2153.522933
_symmetry_space_group_name_H-M "C C C A"
_symmetry_group_IT_number 68
_space_group.IT_coordinate_system_code '2'
_symmetry_cell_setting 'orthorhombic'
loop_
_space_group_symop_operation_xyz
x,y,z
-x,1/2-y,z
x,1/2-y,1/2-z
-x,y,1/2-z
-x,-y,-z
x,1/2+y,-z
-x,1/2+y,1/2+z
x,-y,1/2+z
1/2+x,1/2+y,z
1/2-x,-y,z
1/2+x,-y,1/2-z
1/2-x,1/2+y,1/2-z
1/2-x,1/2-y,-z
1/2+x,y,-z
1/2-x,y,1/2+z
1/2+x,1/2-y,1/2+z
loop_
_atom_site_type_symbol
_atom_site_label
_atom_site_fract_x
_atom_site_fract_y
_atom_site_fract_z
Si Si1 0.750000 0.500000 0.264055
Si Si2 0.369205 0.403188 0.363737
Si Si3 0.431373 0.125717 0.474778
Si Si4 0.406028 0.080827 0.804688
O O1 0.707524 0.391863 0.187232
O O2 0.682001 0.578105 0.318878
O O3 0.376139 0.239768 0.420603
O O4 0.392055 0.550248 0.434351
O O5 0.418953 0.440692 0.273227
O O6 0.500000 0.250000 0.479859
O O7 0.443879 0.975468 0.400920
O O8 0.422573 0.250000 0.750000
#
# Coordination Sequence:
#
# PCOD9509299 Si02
#       4
#     8  16  16  16
#     4   8  24  42  66 104 138 178 250 278 376 392
#     4  10  24  42  66 102 138 185 234 293 346 411
#     4  12  25  45  71 103 144 189 235 283 355 423
#     4  10  23  43  69 103 140 184 238 298 349 416
#
# _framework density 26.003902
#
# number of rings (size 3 to 8) (size 9 to 14) (size 15 to 20)
#    1.714    0.000    0.000    3.429    4.000    4.571 
#    0.000    1.429    0.000    0.000    0.000    0.000 
#    0.000    0.000    0.000    0.000    0.000    0.000 
#
# Total GULP energy -155919.460574 kJ/mol
# GULP energy per Si atom -5568.552163 kJ/mol
# Density = 2.594472 g / cm^3
# Si number density = 26.003902 Si / 1000 Ang^3
#
#
#
# Elastic Constant Matrix: (Units=GPa)
#
#
# Indices 1 2 3 4 5 6 
#
# 1 136.5573 42.7353 22.5655 0.0000 0.0000 0.0000
# 2 42.7353 140.1140 61.5222 0.0000 0.0000 0.0000
# 3 22.5655 61.5222 153.1869 0.0000 0.0000 0.0000
# 4 0.0000 0.0000 0.0000 64.0720 0.0000 0.0000
# 5 0.0000 0.0000 0.0000 0.0000 -64.0530 0.0000
# 6 0.0000 0.0000 0.0000 0.0000 0.0000 40.4932
#
#
#
# Elastic Compliance Matrix: (Units=1/GPa)
#
#
# Indices 1 2 3 4 5 6 
#
# 1 0.008103 -0.002364 -0.000244 0.000000 0.000000 0.000000
# 2 -0.002364 0.009355 -0.003409 0.000000 0.000000 0.000000
# 3 -0.000244 -0.003409 0.007933 0.000000 0.000000 0.000000
# 4 0.000000 0.000000 0.000000 0.015607 0.000000 0.000000
# 5 0.000000 0.000000 0.000000 0.000000 -0.015612 0.000000
# 6 0.000000 0.000000 0.000000 0.000000 0.000000 0.024695
#
#
# Mechanical properties :
#
#
# Convention : Reuss Voigt Hill
#
# Bulk Modulus (GPa) = 74.86928 75.94492 75.40710
# Shear Modulus (GPa) = 75.11050 28.30479 51.70765
#
# Velocity S-wave (km/s) = 5.38024 3.30280 4.46405
# Velocity P-wave (km/s) = 8.21280 6.61915 7.45866
#
# Compressibility (1/GPa) = 0.01335661
#
# Stress axis : x y z
#
# Youngs Moduli (GPa) = 123.40841 106.89555 126.05631
#
# Poissons Ratio (x) = 0.25273 0.03077
# Poissons Ratio (y) = 0.29178 0.42970
# Poissons Ratio (z) = 0.03013 0.36439
#
# Static dielectric constant tensor:
#      x y z
#    x 2.076120 0.000000 0.000000 
#    y 0.000000 2.247950 0.000000 
#    z 0.000000 0.000000 1.992910 
# 
# From -- ./inp_files/31463.got.cif
#   From: 2010.05.17/outbox.cif.g08.bks.cpg/sg68_16_cif.got.tgz:31463.got - 2010.06.03 18:57:09.
