data_PCOD9509119
_publ_section_title
;
Structure prediction by ZEFSAII (Michael W. Deem and Ramdas Pophale) SiO2 
 PCOD9509119
Probable space group: C C C A
;
_chemical_formula_sum "Si O2"
_cell_formula_units_Z 68
_cell_length_a 24.062153
_cell_length_b 5.014733
_cell_length_c 25.986347
_cell_angle_alpha 90.000000
_cell_angle_beta 90.000000
_cell_angle_gamma 90.000000
_cell_volume 3135.649647
_symmetry_space_group_name_H-M "C C C A"
_symmetry_group_IT_number 68
_space_group.IT_coordinate_system_code '2'
_symmetry_cell_setting 'orthorhombic'
loop_
_space_group_symop_operation_xyz
x,y,z
-x,1/2-y,z
x,1/2-y,1/2-z
-x,y,1/2-z
-x,-y,-z
x,1/2+y,-z
-x,1/2+y,1/2+z
x,-y,1/2+z
1/2+x,1/2+y,z
1/2-x,-y,z
1/2+x,-y,1/2-z
1/2-x,1/2+y,1/2-z
1/2-x,1/2-y,-z
1/2+x,y,-z
1/2-x,y,1/2+z
1/2+x,1/2-y,1/2+z
loop_
_atom_site_type_symbol
_atom_site_label
_atom_site_fract_x
_atom_site_fract_y
_atom_site_fract_z
Si Si1 0.570377 0.033236 0.335710
Si Si2 0.613883 0.595646 0.467200
Si Si3 0.141253 0.034696 0.352597
Si Si4 0.000000 0.750000 0.750000
Si Si5 0.750000 0.000000 0.213050
Si Si6 0.500000 0.750000 0.077700
O O1 0.623100 0.835454 0.339439
O O2 0.536867 0.939292 0.286108
O O3 0.532913 0.955363 0.385129
O O4 0.591554 0.334389 0.336283
O O5 0.626800 0.387735 0.511843
O O6 0.644299 0.521677 0.414342
O O7 0.547840 0.601811 0.454208
O O8 0.196455 0.958549 0.322793
O O9 0.740634 0.750000 0.250000
#
# Coordination Sequence:
#
# PCOD9509119 Si02
#       6
#    16  16  16   4   8   8
#     4  10  23  39  63  92 139 172 213 270 323 383
#     4  11  22  38  65  95 131 178 215 261 327 386
#     4  11  25  45  64  96 134 160 227 284 318 392
#     4  10  24  38  64  98 128 190 216 246 342 408
#     4  12  28  48  76  96 120 176 226 280 354 390
#     4   9  20  37  58 100 136 176 217 256 307 402
#
# _framework density 21.686095999999999
#
# number of rings (size 3 to 8) (size 9 to 14) (size 15 to 20)
#    0.000    1.412    0.000    4.941    4.941   13.176 
#    0.000    1.176    0.000    0.000    0.000    0.000 
#    0.000    0.000    0.000    0.000    0.000    0.000 
#
# Total GULP energy -190427.052390 kJ/mol
# GULP energy per Si atom -5600.795659 kJ/mol
# Density = 2.163674 g / cm^3
# Si number density = 21.686096 Si / 1000 Ang^3
#
#
#
# Elastic Constant Matrix: (Units=GPa)
#
#
# Indices 1 2 3 4 5 6 
#
# 1 65.6588 5.2928 32.4903 0.0000 0.0000 0.0000
# 2 5.2928 80.0974 17.2948 0.0000 0.0000 0.0000
# 3 32.4903 17.2948 117.1171 0.0000 0.0000 0.0000
# 4 0.0000 0.0000 0.0000 23.3833 0.0000 0.0000
# 5 0.0000 0.0000 0.0000 0.0000 27.6836 0.0000
# 6 0.0000 0.0000 0.0000 0.0000 0.0000 23.5848
#
#
#
# Elastic Compliance Matrix: (Units=1/GPa)
#
#
# Indices 1 2 3 4 5 6 
#
# 1 0.017655 -0.000113 -0.004881 0.000000 0.000000 0.000000
# 2 -0.000113 0.012897 -0.001873 0.000000 0.000000 0.000000
# 3 -0.004881 -0.001873 0.010169 0.000000 0.000000 0.000000
# 4 0.000000 0.000000 0.000000 0.042766 0.000000 0.000000
# 5 0.000000 0.000000 0.000000 0.000000 0.036122 0.000000
# 6 0.000000 0.000000 0.000000 0.000000 0.000000 0.042400
#
#
# Mechanical properties :
#
#
# Convention : Reuss Voigt Hill
#
# Bulk Modulus (GPa) = 37.05537 41.44767 39.25152
# Shear Modulus (GPa) = 27.06533 28.78337 27.92435
#
# Velocity S-wave (km/s) = 3.53661 3.64713 3.59229
# Velocity P-wave (km/s) = 5.81387 6.07367 5.94519
#
# Compressibility (1/GPa) = 0.02698664
#
# Stress axis : x y z
#
# Youngs Moduli (GPa) = 56.64221 77.53918 98.33632
#
# Poissons Ratio (x) = 0.00874 0.47999
# Poissons Ratio (y) = 0.00638 0.18420
# Poissons Ratio (z) = 0.27648 0.14525
#
# Static dielectric constant tensor:
#      x y z
#    x 1.774640 0.000000 0.000000 
#    y 0.000000 1.745700 0.000000 
#    z 0.000000 0.000000 1.781830 
# 
# From -- ./inp_files/51656.got.cif
#   From: 2010.05.17/outbox.cif.g08.bks.cpg/sg68_26_cif.got.tgz:51656.got - 2010.06.03 18:57:09.
