data_PCOD9509556
_publ_section_title
;
Structure prediction by ZEFSAII (Michael W. Deem and Ramdas Pophale) SiO2 
 PCOD9509556
Probable space group: C C C A
;
_chemical_formula_sum "Si O2"
_cell_formula_units_Z 64
_cell_length_a 4.869527
_cell_length_b 21.179665
_cell_length_c 27.603111
_cell_angle_alpha 90.000000
_cell_angle_beta 90.000000
_cell_angle_gamma 90.000000
_cell_volume 2846.845489
_symmetry_space_group_name_H-M "C C C A"
_symmetry_group_IT_number 68
_space_group.IT_coordinate_system_code '2'
_symmetry_cell_setting 'orthorhombic'
loop_
_space_group_symop_operation_xyz
x,y,z
-x,1/2-y,z
x,1/2-y,1/2-z
-x,y,1/2-z
-x,-y,-z
x,1/2+y,-z
-x,1/2+y,1/2+z
x,-y,1/2+z
1/2+x,1/2+y,z
1/2-x,-y,z
1/2+x,-y,1/2-z
1/2-x,1/2+y,1/2-z
1/2-x,1/2-y,-z
1/2+x,y,-z
1/2-x,y,1/2+z
1/2+x,1/2-y,1/2+z
loop_
_atom_site_type_symbol
_atom_site_label
_atom_site_fract_x
_atom_site_fract_y
_atom_site_fract_z
Si Si1 0.170525 0.677848 0.533146
Si Si2 0.500000 0.455137 0.250000
Si Si3 0.613250 0.619011 0.656108
Si Si4 0.500000 0.250000 0.384655
Si Si5 0.621775 0.431126 0.898731
O O1 0.369097 0.688579 0.487639
O O2 0.283334 0.716251 0.579196
O O3 0.172523 0.605925 0.551518
O O4 0.750000 0.500000 0.268463
O O5 0.363001 0.410918 0.290942
O O6 0.641136 0.694019 0.646524
O O7 0.301127 0.604132 0.641803
O O8 0.811511 0.580681 0.619236
O O9 0.750000 0.500000 0.901613
#
# Coordination Sequence:
#
# PCOD9509556 Si02
#       5
#    16   8  16   8  16
#     4  11  23  39  63  92 126 174 221 270 322 381
#     4  12  24  43  70  99 128 160 210 262 318 398
#     4  11  24  41  66  95 126 170 210 262 328 385
#     4  10  24  43  64  92 132 170 218 267 324 394
#     4  11  23  41  63  92 130 170 215 267 325 384
#
# _framework density 22.481023
#
# number of rings (size 3 to 8) (size 9 to 14) (size 15 to 20)
#    0.000    1.000    0.000    8.250    0.000    9.500 
#    0.000    0.000    0.000    7.500    0.000    0.000 
#    0.000    0.000    0.000    0.000    0.000    0.000 
#
# Total GULP energy -178805.622117 kJ/mol
# GULP energy per Si atom -5587.675691 kJ/mol
# Density = 2.242985 g / cm^3
# Si number density = 22.481023 Si / 1000 Ang^3
#
#
#
# Elastic Constant Matrix: (Units=GPa)
#
#
# Indices 1 2 3 4 5 6 
#
# 1 76.8432 22.0025 11.4532 0.0000 0.0000 0.0000
# 2 22.0025 187.1579 70.9227 0.0000 0.0000 0.0000
# 3 11.4532 70.9227 89.4676 0.0000 0.0000 0.0000
# 4 0.0000 0.0000 0.0000 27.1243 0.0000 0.0000
# 5 0.0000 0.0000 0.0000 0.0000 11.8382 0.0000
# 6 0.0000 0.0000 0.0000 0.0000 0.0000 30.3687
#
#
#
# Elastic Compliance Matrix: (Units=1/GPa)
#
#
# Indices 1 2 3 4 5 6 
#
# 1 0.013495 -0.001332 -0.000672 0.000000 0.000000 0.000000
# 2 -0.001332 0.007769 -0.005988 0.000000 0.000000 0.000000
# 3 -0.000672 -0.005988 0.016010 0.000000 0.000000 0.000000
# 4 0.000000 0.000000 0.000000 0.036867 0.000000 0.000000
# 5 0.000000 0.000000 0.000000 0.000000 0.084472 0.000000
# 6 0.000000 0.000000 0.000000 0.000000 0.000000 0.032929
#
#
# Mechanical properties :
#
#
# Convention : Reuss Voigt Hill
#
# Bulk Modulus (GPa) = 46.96917 62.46951 54.71934
# Shear Modulus (GPa) = 23.29678 30.47226 26.88452
#
# Velocity S-wave (km/s) = 3.22263 3.68566 3.46190
# Velocity P-wave (km/s) = 5.89791 6.77939 6.35395
#
# Compressibility (1/GPa) = 0.02129056
#
# Stress axis : x y z
#
# Youngs Moduli (GPa) = 74.10151 128.72040 62.46102
#
# Poissons Ratio (x) = 0.17145 0.04195
# Poissons Ratio (y) = 0.09870 0.37401
# Poissons Ratio (z) = 0.04977 0.77077
#
# Static dielectric constant tensor:
#      x y z
#    x 1.809570 0.000000 0.000000 
#    y 0.000000 1.929750 0.000000 
#    z 0.000000 0.000000 1.791590 
# 
# From -- ./inp_files/52952.got.cif
#   From: 2010.05.17/outbox.cif.g08.bks.cpg/sg68_27_cif.got.tgz:52952.got - 2010.06.03 18:57:09.
