data_PCOD9509770
_publ_section_title
;
Structure prediction by ZEFSAII (Michael W. Deem and Ramdas Pophale) SiO2 
 PCOD9509770
Probable space group: C C C A
;
_chemical_formula_sum "Si O2"
_cell_formula_units_Z 64
_cell_length_a 9.123503
_cell_length_b 27.626485
_cell_length_c 10.625723
_cell_angle_alpha 90.000000
_cell_angle_beta 90.000000
_cell_angle_gamma 90.000000
_cell_volume 2678.216869
_symmetry_space_group_name_H-M "C C C A"
_symmetry_group_IT_number 68
_space_group.IT_coordinate_system_code '2'
_symmetry_cell_setting 'orthorhombic'
loop_
_space_group_symop_operation_xyz
x,y,z
-x,1/2-y,z
x,1/2-y,1/2-z
-x,y,1/2-z
-x,-y,-z
x,1/2+y,-z
-x,1/2+y,1/2+z
x,-y,1/2+z
1/2+x,1/2+y,z
1/2-x,-y,z
1/2+x,-y,1/2-z
1/2-x,1/2+y,1/2-z
1/2-x,1/2-y,-z
1/2+x,y,-z
1/2-x,y,1/2+z
1/2+x,1/2-y,1/2+z
loop_
_atom_site_type_symbol
_atom_site_label
_atom_site_fract_x
_atom_site_fract_y
_atom_site_fract_z
Si Si1 0.250000 0.500000 0.384964
Si Si2 0.500000 0.942236 0.750000
Si Si3 0.379928 0.095475 0.501808
Si Si4 0.000000 0.250000 0.557134
Si Si5 0.270105 0.812973 0.395856
Si Si6 0.500000 0.137586 0.750000
O O1 0.370525 0.476702 0.295179
O O2 0.306930 0.543837 0.470611
O O3 0.537430 0.909877 0.629865
O O4 0.272806 0.140578 0.479602
O O5 0.476637 0.106629 0.624571
O O6 0.119748 0.283634 0.626662
O O7 0.106537 0.217531 0.469689
O O8 0.354150 0.830843 0.271526
#
# Coordination Sequence:
#
# PCOD9509770 Si02
#       6
#     8   8  16   8  16   8
#     4  12  26  46  82 120 156 208 266 336 396 480
#     4  12  27  50  78 114 164 212 266 318 405 484
#     4  12  26  50  79 118 160 212 266 333 398 483
#     4  10  24  51  81 114 160 209 265 326 414 479
#     4  11  24  50  78 117 164 210 260 334 403 484
#     4  12  25  47  80 117 170 207 264 335 401 474
#
# _framework density 23.896495000000002
#
# number of rings (size 3 to 8) (size 9 to 14) (size 15 to 20)
#    0.000    0.500    2.500    5.250    0.000    0.500 
#    0.000    1.250    0.000    0.000    0.000    0.000 
#    0.000    0.000    0.000    0.000    0.000    0.000 
#
# Total GULP energy -179268.183136 kJ/mol
# GULP energy per Si atom -5602.130723 kJ/mol
# Density = 2.384211 g / cm^3
# Si number density = 23.896495 Si / 1000 Ang^3
#
#
#
# Elastic Constant Matrix: (Units=GPa)
#
#
# Indices 1 2 3 4 5 6 
#
# 1 155.4064 77.5001 75.9805 0.0000 0.0000 0.0000
# 2 77.5001 142.4713 67.9657 0.0000 0.0000 0.0000
# 3 75.9805 67.9657 171.5947 0.0000 0.0000 0.0000
# 4 0.0000 0.0000 0.0000 134.6239 0.0000 0.0000
# 5 0.0000 0.0000 0.0000 0.0000 51.8589 0.0000
# 6 0.0000 0.0000 0.0000 0.0000 0.0000 16.4215
#
#
#
# Elastic Compliance Matrix: (Units=1/GPa)
#
#
# Indices 1 2 3 4 5 6 
#
# 1 0.009774 -0.004010 -0.002740 0.000000 0.000000 0.000000
# 2 -0.004010 0.010299 -0.002304 0.000000 0.000000 0.000000
# 3 -0.002740 -0.002304 0.007953 0.000000 0.000000 0.000000
# 4 0.000000 0.000000 0.000000 0.007428 0.000000 0.000000
# 5 0.000000 0.000000 0.000000 0.000000 0.019283 0.000000
# 6 0.000000 0.000000 0.000000 0.000000 0.000000 0.060896
#
#
# Mechanical properties :
#
#
# Convention : Reuss Voigt Hill
#
# Bulk Modulus (GPa) = 100.80721 101.37389 101.09055
# Shear Modulus (GPa) = 36.48410 57.11595 46.80002
#
# Velocity S-wave (km/s) = 3.91161 4.89421 4.43024
# Velocity P-wave (km/s) = 7.91691 8.62855 8.28038
#
# Compressibility (1/GPa) = 0.00991992
#
# Stress axis : x y z
#
# Youngs Moduli (GPa) = 102.31457 97.09501 125.73487
#
# Poissons Ratio (x) = 0.38933 0.34446
# Poissons Ratio (y) = 0.41026 0.28967
# Poissons Ratio (z) = 0.28030 0.22369
#
# Static dielectric constant tensor:
#      x y z
#    x 1.956770 0.000000 0.000000 
#    y 0.000000 1.949960 0.000000 
#    z 0.000000 0.000000 1.828590 
# 
# From -- ./inp_files/10828.got.cif
#   From: 2010.05.17/outbox.cif.g08.bks.cpg/sg68_6_cif.got.tgz:10828.got - 2010.06.03 18:57:09.
