data_PCOD9509116
_publ_section_title
;
Structure prediction by ZEFSAII (Michael W. Deem and Ramdas Pophale) SiO2 
 PCOD9509116
Probable space group: C C C A
;
_chemical_formula_sum "Si O2"
_cell_formula_units_Z 76
_cell_length_a 5.465318
_cell_length_b 25.370179
_cell_length_c 26.563585
_cell_angle_alpha 90.000000
_cell_angle_beta 90.000000
_cell_angle_gamma 90.000000
_cell_volume 3683.202991
_symmetry_space_group_name_H-M "C C C A"
_symmetry_group_IT_number 68
_space_group.IT_coordinate_system_code '2'
_symmetry_cell_setting 'orthorhombic'
loop_
_space_group_symop_operation_xyz
x,y,z
-x,1/2-y,z
x,1/2-y,1/2-z
-x,y,1/2-z
-x,-y,-z
x,1/2+y,-z
-x,1/2+y,1/2+z
x,-y,1/2+z
1/2+x,1/2+y,z
1/2-x,-y,z
1/2+x,-y,1/2-z
1/2-x,1/2+y,1/2-z
1/2-x,1/2-y,-z
1/2+x,y,-z
1/2-x,y,1/2+z
1/2+x,1/2-y,1/2+z
loop_
_atom_site_type_symbol
_atom_site_label
_atom_site_fract_x
_atom_site_fract_y
_atom_site_fract_z
Si Si1 0.250000 0.000000 0.378201
Si Si2 0.500000 0.750000 0.750000
Si Si3 0.814267 0.839727 0.702530
Si Si4 0.941878 0.438681 0.697334
Si Si5 0.730659 0.936982 0.969259
Si Si6 0.949028 0.900908 0.874664
O O1 0.362466 0.944748 0.397644
O O2 0.033668 0.977555 0.344992
O O3 0.666783 0.786865 0.714761
O O4 0.619029 0.887770 0.701313
O O5 0.000000 0.844373 0.750000
O O6 0.937318 0.847253 0.647427
O O7 0.678974 0.421233 0.677178
O O8 0.000000 0.466254 0.750000
O O9 0.753710 0.900989 0.919429
O O10 0.750000 0.000000 0.956401
O O11 0.467989 0.928012 0.995339
#
# Coordination Sequence:
#
# PCOD9509116 Si02
#       6
#     8   4  16  16  16  16
#     4  10  24  28  54  74 120 164 204 246 298 362
#     4  12  22  40  64  90 124 160 202 268 316 396
#     4  11  22  39  60  86 121 158 204 253 318 386
#     4  11  21  34  51  79 116 161 198 244 292 379
#     4  10  23  39  62  86 121 170 226 280 329 376
#     4  11  23  39  55  84 122 164 216 260 312 383
#
# _framework density 20.634215999999999
#
# number of rings (size 3 to 8) (size 9 to 14) (size 15 to 20)
#    0.000    1.263    3.158    2.211   13.263    0.000 
#    0.000    0.000    0.000    0.000    0.000    1.474 
#    0.000    0.000    0.000    0.000    0.000    0.000 
#
# Total GULP energy -211604.959942 kJ/mol
# GULP energy per Si atom -5568.551577 kJ/mol
# Density = 2.058725 g / cm^3
# Si number density = 20.634216 Si / 1000 Ang^3
#
#
#
# Elastic Constant Matrix: (Units=GPa)
#
#
# Indices 1 2 3 4 5 6 
#
# 1 93.1788 39.9870 44.8674 0.0000 0.0000 0.0000
# 2 39.9870 92.8180 33.3204 0.0000 0.0000 0.0000
# 3 44.8674 33.3204 113.8022 0.0000 0.0000 0.0000
# 4 0.0000 0.0000 0.0000 -76.0851 0.0000 0.0000
# 5 0.0000 0.0000 0.0000 0.0000 22.2080 0.0000
# 6 0.0000 0.0000 0.0000 0.0000 0.0000 31.6042
#
#
#
# Elastic Compliance Matrix: (Units=1/GPa)
#
#
# Indices 1 2 3 4 5 6 
#
# 1 0.014968 -0.004838 -0.004485 0.000000 0.000000 0.000000
# 2 -0.004838 0.013603 -0.002075 0.000000 0.000000 0.000000
# 3 -0.004485 -0.002075 0.011163 0.000000 0.000000 0.000000
# 4 0.000000 0.000000 0.000000 -0.013143 0.000000 0.000000
# 5 0.000000 0.000000 0.000000 0.000000 0.045029 0.000000
# 6 0.000000 0.000000 0.000000 0.000000 0.000000 0.031641
#
#
# Mechanical properties :
#
#
# Convention : Reuss Voigt Hill
#
# Bulk Modulus (GPa) = 59.04105 59.57206 59.30655
# Shear Modulus (GPa) = 37.96414 7.65372 22.80893
#
# Velocity S-wave (km/s) = 4.29402 1.92803 3.32835
# Velocity P-wave (km/s) = 7.29795 5.82148 6.60112
#
# Compressibility (1/GPa) = 0.01693737
#
# Stress axis : x y z
#
# Youngs Moduli (GPa) = 66.81009 73.51198 89.58268
#
# Poissons Ratio (x) = 0.35568 0.40174
# Poissons Ratio (y) = 0.32325 0.18591
# Poissons Ratio (z) = 0.29961 0.15256
#
# Static dielectric constant tensor:
#      x y z
#    x 5.273650 0.000000 0.000000 
#    y 0.000000 1.746440 0.000000 
#    z 0.000000 0.000000 1.838060 
# 
# From -- ./inp_files/48453.got.cif
#   From: 2010.05.17/outbox.cif.g08.bks.cpg/sg68_25_cif.got.tgz:48453.got - 2010.06.03 18:57:09.
