data_PCOD9509867
_publ_section_title
;
Structure prediction by ZEFSAII (Michael W. Deem and Ramdas Pophale) SiO2 
 PCOD9509867
Probable space group: C C C A
;
_chemical_formula_sum "Si O2"
_cell_formula_units_Z 80
_cell_length_a 9.662475
_cell_length_b 29.929384
_cell_length_c 11.153683
_cell_angle_alpha 90.000000
_cell_angle_beta 90.000000
_cell_angle_gamma 90.000000
_cell_volume 3225.555054
_symmetry_space_group_name_H-M "C C C A"
_symmetry_group_IT_number 68
_space_group.IT_coordinate_system_code '2'
_symmetry_cell_setting 'orthorhombic'
loop_
_space_group_symop_operation_xyz
x,y,z
-x,1/2-y,z
x,1/2-y,1/2-z
-x,y,1/2-z
-x,-y,-z
x,1/2+y,-z
-x,1/2+y,1/2+z
x,-y,1/2+z
1/2+x,1/2+y,z
1/2-x,-y,z
1/2+x,-y,1/2-z
1/2-x,1/2+y,1/2-z
1/2-x,1/2-y,-z
1/2+x,y,-z
1/2-x,y,1/2+z
1/2+x,1/2-y,1/2+z
loop_
_atom_site_type_symbol
_atom_site_label
_atom_site_fract_x
_atom_site_fract_y
_atom_site_fract_z
Si Si1 0.579842 0.569145 0.050884
Si Si2 0.163762 0.861215 0.724404
Si Si3 0.127819 0.779226 0.555728
Si Si4 0.607309 0.005615 0.161437
Si Si5 0.423117 0.645777 0.624686
O O1 0.682156 0.595405 0.139684
O O2 0.465596 0.540392 0.121447
O O3 0.640771 0.534198 0.956050
O O4 0.522291 0.608216 0.965705
O O5 0.186485 0.815228 0.651060
O O6 0.262471 0.862884 0.839078
O O7 0.000000 0.861725 0.750000
O O8 0.250000 0.750000 0.500000
O O9 0.066506 0.808377 0.446776
O O10 0.000000 0.750000 0.604904
O O11 0.500000 0.029158 0.250000
O O12 0.750000 0.000000 0.230032
O O13 0.500000 0.646288 0.750000
#
# Coordination Sequence:
#
# PCOD9509867 Si02
#       5
#    16  16  16  16  16
#     4  10  26  45  68 101 141 181 232 292 354 420
#     4  11  25  44  70 101 139 188 236 289 354 420
#     4  11  24  43  67 103 144 182 232 291 353 419
#     4  11  26  47  74 106 140 184 233 295 363 432
#     4  11  25  43  71 102 136 186 239 289 348 424
#
# _framework density 24.801932000000001
#
# number of rings (size 3 to 8) (size 9 to 14) (size 15 to 20)
#    0.000    1.200    0.000    3.600    8.400   11.200 
#    0.000    0.000    0.000    0.000    0.000    0.000 
#    0.000    0.000    0.000    0.000    0.000    0.000 
#
# Total GULP energy -224068.138276 kJ/mol
# GULP energy per Si atom -5601.703457 kJ/mol
# Density = 2.474548 g / cm^3
# Si number density = 24.801932 Si / 1000 Ang^3
#
#
#
# Elastic Constant Matrix: (Units=GPa)
#
#
# Indices 1 2 3 4 5 6 
#
# 1 84.8940 6.9606 -1.1001 0.0000 0.0000 0.0000
# 2 6.9606 149.1900 29.2937 0.0000 0.0000 0.0000
# 3 -1.1001 29.2937 85.0270 0.0000 0.0000 0.0000
# 4 0.0000 0.0000 0.0000 38.2769 0.0000 0.0000
# 5 0.0000 0.0000 0.0000 0.0000 36.7670 0.0000
# 6 0.0000 0.0000 0.0000 0.0000 0.0000 17.2907
#
#
#
# Elastic Compliance Matrix: (Units=1/GPa)
#
#
# Indices 1 2 3 4 5 6 
#
# 1 0.011835 -0.000625 0.000368 0.000000 0.000000 0.000000
# 2 -0.000625 0.007222 -0.002496 0.000000 0.000000 0.000000
# 3 0.000368 -0.002496 0.012626 0.000000 0.000000 0.000000
# 4 0.000000 0.000000 0.000000 0.026125 0.000000 0.000000
# 5 0.000000 0.000000 0.000000 0.000000 0.027198 0.000000
# 6 0.000000 0.000000 0.000000 0.000000 0.000000 0.057835
#
#
# Mechanical properties :
#
#
# Convention : Reuss Voigt Hill
#
# Bulk Modulus (GPa) = 38.19959 43.26883 40.73421
# Shear Modulus (GPa) = 31.83237 37.39736 34.61487
#
# Velocity S-wave (km/s) = 3.58643 3.88730 3.73990
# Velocity P-wave (km/s) = 5.70835 6.13448 5.92525
#
# Compressibility (1/GPa) = 0.02617829
#
# Stress axis : x y z
#
# Youngs Moduli (GPa) = 84.49250 138.46302 79.20317
#
# Poissons Ratio (x) = 0.08647 -0.02917
# Poissons Ratio (y) = 0.05277 0.19771
# Poissons Ratio (z) = -0.03112 0.34564
#
# Static dielectric constant tensor:
#      x y z
#    x 1.969780 0.000000 0.000000 
#    y 0.000000 1.957540 0.000000 
#    z 0.000000 0.000000 1.949650 
# 
# From -- ./inp_files/11949.got.cif
#   From: 2010.05.17/outbox.cif.g08.bks.cpg/sg68_6_cif.got.tgz:11949.got - 2010.06.03 18:57:09.
