data_PCOD9509876
_publ_section_title
;
Structure prediction by ZEFSAII (Michael W. Deem and Ramdas Pophale) SiO2 
 PCOD9509876
Probable space group: C C C A
;
_chemical_formula_sum "Si O2"
_cell_formula_units_Z 88
_cell_length_a 26.738400
_cell_length_b 12.171154
_cell_length_c 12.187007
_cell_angle_alpha 90.000000
_cell_angle_beta 90.000000
_cell_angle_gamma 90.000000
_cell_volume 3966.105241
_symmetry_space_group_name_H-M "C C C A"
_symmetry_group_IT_number 68
_space_group.IT_coordinate_system_code '2'
_symmetry_cell_setting 'orthorhombic'
loop_
_space_group_symop_operation_xyz
x,y,z
-x,1/2-y,z
x,1/2-y,1/2-z
-x,y,1/2-z
-x,-y,-z
x,1/2+y,-z
-x,1/2+y,1/2+z
x,-y,1/2+z
1/2+x,1/2+y,z
1/2-x,-y,z
1/2+x,-y,1/2-z
1/2-x,1/2+y,1/2-z
1/2-x,1/2-y,-z
1/2+x,y,-z
1/2-x,y,1/2+z
1/2+x,1/2-y,1/2+z
loop_
_atom_site_type_symbol
_atom_site_label
_atom_site_fract_x
_atom_site_fract_y
_atom_site_fract_z
Si Si1 0.750000 0.500000 0.455674
Si Si2 0.628439 0.750000 0.250000
Si Si3 0.155585 0.628264 0.537736
Si Si4 0.410874 0.939631 0.887867
Si Si5 0.813767 0.812079 0.138744
Si Si6 0.000000 0.522285 0.250000
Si Si7 0.457919 0.844003 0.099483
O O1 0.802652 0.459055 0.504989
O O2 0.767371 0.612711 0.397468
O O3 0.659614 0.680979 0.339393
O O4 0.589200 0.677699 0.179324
O O5 0.103890 0.557840 0.555092
O O6 0.164571 0.728358 0.453356
O O7 0.358374 0.897584 0.842966
O O8 0.448874 0.925185 0.787403
O O9 0.434799 0.865158 0.981933
O O10 0.801783 0.750000 0.250000
O O11 0.013364 0.448992 0.355012
O O12 0.500000 0.750000 0.102881
#
# Coordination Sequence:
#
# PCOD9509876 Si02
#       7
#     8   8  16  16  16   8  16
#     4  10  26  48  70 110 128 182 232 282 360 428
#     4  12  21  42  72  94 136 180 224 273 340 408
#     4  11  24  47  72 101 138 178 229 287 353 416
#     4  11  26  41  68 103 138 183 231 288 343 406
#     4  11  26  46  71 102 143 176 227 289 358 416
#     4  12  23  40  63 102 136 180 234 279 329 406
#     4  12  22  41  68  97 133 184 234 275 330 405
#
# _framework density 22.188013999999999
#
# number of rings (size 3 to 8) (size 9 to 14) (size 15 to 20)
#    0.000    0.727    5.455    1.091    3.818    2.182 
#    0.000    0.000    0.000    0.000    0.000    0.000 
#    0.000    0.000    0.000    0.000    0.000    0.000 
#
# Total GULP energy -245138.540985 kJ/mol
# GULP energy per Si atom -5571.330477 kJ/mol
# Density = 2.213751 g / cm^3
# Si number density = 22.188014 Si / 1000 Ang^3
#
#
#
# Elastic Constant Matrix: (Units=GPa)
#
#
# Indices 1 2 3 4 5 6 
#
# 1 89.3964 4.6538 0.0344 0.0000 0.0000 0.0000
# 2 4.6538 52.1342 22.6603 0.0000 0.0000 0.0000
# 3 0.0344 22.6603 63.1147 0.0000 0.0000 0.0000
# 4 0.0000 0.0000 0.0000 -28.4837 0.0000 0.0000
# 5 0.0000 0.0000 0.0000 0.0000 -14.8827 0.0000
# 6 0.0000 0.0000 0.0000 0.0000 0.0000 -13.3631
#
#
#
# Elastic Compliance Matrix: (Units=1/GPa)
#
#
# Indices 1 2 3 4 5 6 
#
# 1 0.011248 -0.001187 0.000420 0.000000 0.000000 0.000000
# 2 -0.001187 0.022853 -0.008204 0.000000 0.000000 0.000000
# 3 0.000420 -0.008204 0.018790 0.000000 0.000000 0.000000
# 4 0.000000 0.000000 0.000000 -0.035108 0.000000 0.000000
# 5 0.000000 0.000000 0.000000 0.000000 -0.067192 0.000000
# 6 0.000000 0.000000 0.000000 0.000000 0.000000 -0.074833
#
#
# Mechanical properties :
#
#
# Convention : Reuss Voigt Hill
#
# Bulk Modulus (GPa) = 28.61359 28.81579 28.71469
# Shear Modulus (GPa) = -52.82585 0.47388 -26.17599
#
# Velocity S-wave (km/s) = -4.88467 0.46264 -3.43845
# Velocity P-wave (km/s) = 4.34619 3.64701 1.67162
#
# Compressibility (1/GPa) = 0.03494843
#
# Stress axis : x y z
#
# Youngs Moduli (GPa) = 88.90672 43.75741 53.22095
#
# Poissons Ratio (x) = 0.05192 -0.02235
# Poissons Ratio (y) = 0.10549 0.43665
# Poissons Ratio (z) = -0.03733 0.35900
#
# Static dielectric constant tensor:
#      x y z
#    x 1.857970 0.000000 0.000000 
#    y 0.000000 1.928640 0.000000 
#    z 0.000000 0.000000 1.801370 
# 
# From -- ./inp_files/17664.got.cif
#   From: 2010.05.17/outbox.cif.g08.bks.cpg/sg68_9_cif.got.tgz:17664.got - 2010.06.03 18:57:09.
