data_PCOD9509523
_publ_section_title
;
Structure prediction by ZEFSAII (Michael W. Deem and Ramdas Pophale) SiO2 
 PCOD9509523
Probable space group: C C C A
;
_chemical_formula_sum "Si O2"
_cell_formula_units_Z 108
_cell_length_a 14.294388
_cell_length_b 12.141422
_cell_length_c 25.914488
_cell_angle_alpha 90.000000
_cell_angle_beta 90.000000
_cell_angle_gamma 90.000000
_cell_volume 4497.568154
_symmetry_space_group_name_H-M "C C C A"
_symmetry_group_IT_number 68
_space_group.IT_coordinate_system_code '2'
_symmetry_cell_setting 'orthorhombic'
loop_
_space_group_symop_operation_xyz
x,y,z
-x,1/2-y,z
x,1/2-y,1/2-z
-x,y,1/2-z
-x,-y,-z
x,1/2+y,-z
-x,1/2+y,1/2+z
x,-y,1/2+z
1/2+x,1/2+y,z
1/2-x,-y,z
1/2+x,-y,1/2-z
1/2-x,1/2+y,1/2-z
1/2-x,1/2-y,-z
1/2+x,y,-z
1/2-x,y,1/2+z
1/2+x,1/2-y,1/2+z
loop_
_atom_site_type_symbol
_atom_site_label
_atom_site_fract_x
_atom_site_fract_y
_atom_site_fract_z
Si Si1 0.186316 0.409888 0.171498
Si Si2 0.524491 0.546774 0.825059
Si Si3 0.854182 0.959590 0.496954
Si Si4 0.335938 0.086684 0.655377
Si Si5 0.787956 0.250000 0.250000
Si Si6 0.517309 0.379788 0.436839
Si Si7 0.610759 0.768803 0.079061
Si Si8 0.000000 0.250000 0.750000
O O1 0.250000 0.500000 0.145016
O O2 0.251855 0.341904 0.211057
O O3 0.131213 0.343849 0.128655
O O4 0.102845 0.470527 0.201373
O O5 0.431270 0.478161 0.834985
O O6 0.556130 0.587940 0.881386
O O7 0.509145 0.654835 0.793396
O O8 0.914765 0.930820 0.446787
O O9 0.855611 0.846530 0.531775
O O10 0.750000 0.000000 0.489170
O O11 0.912716 0.059447 0.523660
O O12 0.330447 0.172851 0.704155
O O13 0.341944 0.156135 0.601132
O O14 0.250000 0.000000 0.656396
O O15 0.500000 0.250000 0.442721
O O16 0.500000 0.750000 0.071949
#
# Coordination Sequence:
#
# PCOD9509523 Si02
#       8
#    16  16  16  16   8  16  16   4
#     4  11  23  40  69  99 142 190 246 304 364 438
#     4  12  25  45  67 104 146 194 256 301 370 442
#     4  11  25  46  79 112 145 195 249 300 380 460
#     4  11  25  42  68 103 145 193 250 315 372 441
#     4  10  24  42  66 100 146 188 250 314 372 432
#     4  11  25  47  73 107 154 190 242 320 372 440
#     4  11  21  43  72 105 143 193 246 300 366 446
#     4  12  28  42  72  96 148 206 240 302 386 444
#
# _framework density 24.012976999999999
#
# number of rings (size 3 to 8) (size 9 to 14) (size 15 to 20)
#    0.000    0.889    3.704    2.222    0.000    7.704 
#    0.000    0.000    0.000    0.000    0.000    0.000 
#    0.000    0.000    0.000    0.000    0.000    0.000 
#
# Total GULP energy -300962.484166 kJ/mol
# GULP energy per Si atom -5573.379336 kJ/mol
# Density = 2.395832 g / cm^3
# Si number density = 24.012977 Si / 1000 Ang^3
#
#
#
# Elastic Constant Matrix: (Units=GPa)
#
#
# Indices 1 2 3 4 5 6 
#
# 1 136.8049 53.0230 10.5668 0.0000 0.0000 0.0000
# 2 53.0230 154.8000 33.2629 0.0000 0.0000 0.0000
# 3 10.5668 33.2629 96.9942 0.0000 0.0000 0.0000
# 4 0.0000 0.0000 0.0000 28.9306 0.0000 0.0000
# 5 0.0000 0.0000 0.0000 0.0000 16.1562 0.0000
# 6 0.0000 0.0000 0.0000 0.0000 0.0000 10.9428
#
#
#
# Elastic Compliance Matrix: (Units=1/GPa)
#
#
# Indices 1 2 3 4 5 6 
#
# 1 0.008429 -0.002904 0.000078 0.000000 0.000000 0.000000
# 2 -0.002904 0.007974 -0.002418 0.000000 0.000000 0.000000
# 3 0.000078 -0.002418 0.011131 0.000000 0.000000 0.000000
# 4 0.000000 0.000000 0.000000 0.034566 0.000000 0.000000
# 5 0.000000 0.000000 0.000000 0.000000 0.061896 0.000000
# 6 0.000000 0.000000 0.000000 0.000000 0.000000 0.091384
#
#
# Mechanical properties :
#
#
# Convention : Reuss Voigt Hill
#
# Bulk Modulus (GPa) = 58.66848 64.70050 61.68449
# Shear Modulus (GPa) = 21.59359 30.65568 26.12463
#
# Velocity S-wave (km/s) = 3.00200 3.57687 3.30197
# Velocity P-wave (km/s) = 6.04161 6.63786 6.34674
#
# Compressibility (1/GPa) = 0.01704493
#
# Stress axis : x y z
#
# Youngs Moduli (GPa) = 118.63550 125.40381 89.84099
#
# Poissons Ratio (x) = 0.36416 -0.00697
# Poissons Ratio (y) = 0.34450 0.21726
# Poissons Ratio (z) = -0.00920 0.30326
#
# Static dielectric constant tensor:
#      x y z
#    x 1.904310 0.000000 0.000000 
#    y 0.000000 1.968620 0.000000 
#    z 0.000000 0.000000 1.900660 
# 
# From -- ./inp_files/55320.got.cif
#   From: 2010.05.17/outbox.cif.g08.bks.cpg/sg68_28_cif.got.tgz:55320.got - 2010.06.03 18:57:09.
