data_PCOD9509528
_publ_section_title
;
Structure prediction by ZEFSAII (Michael W. Deem and Ramdas Pophale) SiO2 
 PCOD9509528
Probable space group: C C C A
;
_chemical_formula_sum "Si O2"
_cell_formula_units_Z 56
_cell_length_a 10.046948
_cell_length_b 27.402419
_cell_length_c 8.521561
_cell_angle_alpha 90.000000
_cell_angle_beta 90.000000
_cell_angle_gamma 90.000000
_cell_volume 2346.076743
_symmetry_space_group_name_H-M "C C C A"
_symmetry_group_IT_number 68
_space_group.IT_coordinate_system_code '2'
_symmetry_cell_setting 'orthorhombic'
loop_
_space_group_symop_operation_xyz
x,y,z
-x,1/2-y,z
x,1/2-y,1/2-z
-x,y,1/2-z
-x,-y,-z
x,1/2+y,-z
-x,1/2+y,1/2+z
x,-y,1/2+z
1/2+x,1/2+y,z
1/2-x,-y,z
1/2+x,-y,1/2-z
1/2-x,1/2+y,1/2-z
1/2-x,1/2-y,-z
1/2+x,y,-z
1/2-x,y,1/2+z
1/2+x,1/2-y,1/2+z
loop_
_atom_site_type_symbol
_atom_site_label
_atom_site_fract_x
_atom_site_fract_y
_atom_site_fract_z
Si Si1 0.367223 0.852412 0.837865
Si Si2 0.856694 0.068899 0.209039
Si Si3 0.315413 0.213211 0.620769
Si Si4 0.250000 0.500000 0.973692
O O1 0.500000 0.870748 0.750000
O O2 0.253249 0.893322 0.852097
O O3 0.299220 0.815320 0.714806
O O4 0.391489 0.825242 0.005588
O O5 0.000000 0.090736 0.250000
O O6 0.805192 0.042500 0.364625
O O7 0.860980 0.025004 0.083287
O O8 0.374905 0.250000 0.750000
O O9 0.250000 0.250000 0.500000
#
# Coordination Sequence:
#
# PCOD9509528 Si02
#       4
#    16  16  16   8
#     4  11  24  42  66 100 137 173 222 284 344 408
#     4  11  24  43  67  97 135 180 227 277 336 401
#     4   9  21  42  65  94 130 174 221 275 339 403
#     4  10  24  42  66  96 132 178 232 282 330 392
#
# _framework density 23.869636
#
# number of rings (size 3 to 8) (size 9 to 14) (size 15 to 20)
#    0.000    1.714    0.000    2.571    0.000   18.857 
#    0.000   11.429    0.000    0.000    0.000    2.000 
#    0.000    0.000    0.000    0.000    0.000    0.000 
#
# Total GULP energy -156338.958269 kJ/mol
# GULP energy per Si atom -5583.534224 kJ/mol
# Density = 2.381531 g / cm^3
# Si number density = 23.869636 Si / 1000 Ang^3
#
#
#
# Elastic Constant Matrix: (Units=GPa)
#
#
# Indices 1 2 3 4 5 6 
#
# 1 117.3919 38.1708 36.4726 0.0000 0.0000 0.0000
# 2 38.1708 104.2569 52.4421 0.0000 0.0000 0.0000
# 3 36.4726 52.4421 167.8200 0.0000 0.0000 0.0000
# 4 0.0000 0.0000 0.0000 51.2179 0.0000 0.0000
# 5 0.0000 0.0000 0.0000 0.0000 7.8488 0.0000
# 6 0.0000 0.0000 0.0000 0.0000 0.0000 102.5998
#
#
#
# Elastic Compliance Matrix: (Units=1/GPa)
#
#
# Indices 1 2 3 4 5 6 
#
# 1 0.009871 -0.003008 -0.001205 0.000000 0.000000 0.000000
# 2 -0.003008 0.012297 -0.003189 0.000000 0.000000 0.000000
# 3 -0.001205 -0.003189 0.007217 0.000000 0.000000 0.000000
# 4 0.000000 0.000000 0.000000 0.019524 0.000000 0.000000
# 5 0.000000 0.000000 0.000000 0.000000 0.127408 0.000000
# 6 0.000000 0.000000 0.000000 0.000000 0.000000 0.009747
#
#
# Mechanical properties :
#
#
# Convention : Reuss Voigt Hill
#
# Bulk Modulus (GPa) = 68.58226 71.51553 70.04890
# Shear Modulus (GPa) = 24.30385 49.82553 37.06469
#
# Velocity S-wave (km/s) = 3.19437 4.57377 3.94483
# Velocity P-wave (km/s) = 6.51151 7.61041 7.08231
#
# Compressibility (1/GPa) = 0.01458103
#
# Stress axis : x y z
#
# Youngs Moduli (GPa) = 101.30750 81.32087 138.55641
#
# Poissons Ratio (x) = 0.24458 0.16702
# Poissons Ratio (y) = 0.30470 0.44186
# Poissons Ratio (z) = 0.12212 0.25933
#
# Static dielectric constant tensor:
#      x y z
#    x 1.845150 0.000000 0.000000 
#    y 0.000000 1.963280 0.000000 
#    z 0.000000 0.000000 1.903690 
# 
# From -- ./inp_files/3838.got.cif
#   From: 2010.05.17/outbox.cif.g08.bks.cpg/sg68_2_cif.got.tgz:3838.got - 2010.06.03 18:57:09.
