data_PCOD9509848
_publ_section_title
;
Structure prediction by ZEFSAII (Michael W. Deem and Ramdas Pophale) SiO2 
 PCOD9509848
Probable space group: C C C A
;
_chemical_formula_sum "Si O2"
_cell_formula_units_Z 32
_cell_length_a 6.540238
_cell_length_b 12.531405
_cell_length_c 14.307434
_cell_angle_alpha 90.000000
_cell_angle_beta 90.000000
_cell_angle_gamma 90.000000
_cell_volume 1172.613986
_symmetry_space_group_name_H-M "C C C A"
_symmetry_group_IT_number 68
_space_group.IT_coordinate_system_code '2'
_symmetry_cell_setting 'orthorhombic'
loop_
_space_group_symop_operation_xyz
x,y,z
-x,1/2-y,z
x,1/2-y,1/2-z
-x,y,1/2-z
-x,-y,-z
x,1/2+y,-z
-x,1/2+y,1/2+z
x,-y,1/2+z
1/2+x,1/2+y,z
1/2-x,-y,z
1/2+x,-y,1/2-z
1/2-x,1/2+y,1/2-z
1/2-x,1/2-y,-z
1/2+x,y,-z
1/2-x,y,1/2+z
1/2+x,1/2-y,1/2+z
loop_
_atom_site_type_symbol
_atom_site_label
_atom_site_fract_x
_atom_site_fract_y
_atom_site_fract_z
Si Si1 0.737093 0.725983 0.858926
Si Si2 0.940549 0.066616 0.409389
O O1 0.500000 0.750000 0.871290
O O2 0.778940 0.750000 0.750000
O O3 0.836866 0.818173 0.922430
O O4 0.841974 0.610231 0.869850
O O5 0.750000 0.000000 0.361877
O O6 0.000000 0.000000 0.500000
#
# Coordination Sequence:
#
# PCOD9509848 Si02
#       2
#    16  16
#     4  10  25  53  77 107 158 204 258 331 392 469
#     4  11  26  45  73 114 152 201 257 317 394 472
#
# _framework density 27.289458
#
# number of rings (size 3 to 8) (size 9 to 14) (size 15 to 20)
#    0.000    1.500    0.000    3.000    7.000    8.000 
#   18.000    2.500    0.000    0.000    0.000    0.000 
#    0.000    0.000    0.000    0.000    0.000    0.000 
#
# Total GULP energy -89247.566309 kJ/mol
# GULP energy per Si atom -5577.972894 kJ/mol
# Density = 2.722735 g / cm^3
# Si number density = 27.289458 Si / 1000 Ang^3
#
#
#
# Elastic Constant Matrix: (Units=GPa)
#
#
# Indices 1 2 3 4 5 6 
#
# 1 263.0267 112.0068 50.4841 0.0000 0.0000 0.0000
# 2 112.0068 228.8198 79.9104 0.0000 0.0000 0.0000
# 3 50.4841 79.9104 117.2316 0.0000 0.0000 0.0000
# 4 0.0000 0.0000 0.0000 57.5056 0.0000 0.0000
# 5 0.0000 0.0000 0.0000 0.0000 -132.7085 0.0000
# 6 0.0000 0.0000 0.0000 0.0000 0.0000 92.7579
#
#
#
# Elastic Compliance Matrix: (Units=1/GPa)
#
#
# Indices 1 2 3 4 5 6 
#
# 1 0.004837 -0.002153 -0.000616 0.000000 0.000000 0.000000
# 2 -0.002153 0.006694 -0.003636 0.000000 0.000000 0.000000
# 3 -0.000616 -0.003636 0.011273 0.000000 0.000000 0.000000
# 4 0.000000 0.000000 0.000000 0.017390 0.000000 0.000000
# 5 0.000000 0.000000 0.000000 0.000000 -0.007535 0.000000
# 6 0.000000 0.000000 0.000000 0.000000 0.000000 0.010781
#
#
# Mechanical properties :
#
#
# Convention : Reuss Voigt Hill
#
# Bulk Modulus (GPa) = 100.03894 121.54230 110.79062
# Shear Modulus (GPa) = 83.92279 27.95611 55.93945
#
# Velocity S-wave (km/s) = 5.55154 3.20414 4.53244
# Velocity P-wave (km/s) = 8.82218 7.63699 8.25089
#
# Compressibility (1/GPa) = 0.00999611
#
# Stress axis : x y z
#
# Youngs Moduli (GPa) = 206.75281 149.39582 88.70385
#
# Poissons Ratio (x) = 0.32159 0.05460
# Poissons Ratio (y) = 0.44505 0.32250
# Poissons Ratio (z) = 0.12727 0.54316
#
# Static dielectric constant tensor:
#      x y z
#    x 2.358950 0.000000 0.000000 
#    y 0.000000 2.081270 0.000000 
#    z 0.000000 0.000000 2.239690 
# 
# From -- ./inp_files/18446.got.cif
#   From: 2010.05.17/outbox.cif.g08.bks.cpg/sg68_10_cif.got.tgz:18446.got - 2010.06.03 18:57:09.
