data_PCOD9509873
_publ_section_title
;
Structure prediction by ZEFSAII (Michael W. Deem and Ramdas Pophale) SiO2 
 PCOD9509873
Probable space group: C C C A
;
_chemical_formula_sum "Si O2"
_cell_formula_units_Z 68
_cell_length_a 8.567614
_cell_length_b 17.745753
_cell_length_c 20.317894
_cell_angle_alpha 90.000000
_cell_angle_beta 90.000000
_cell_angle_gamma 90.000000
_cell_volume 3089.107447
_symmetry_space_group_name_H-M "C C C A"
_symmetry_group_IT_number 68
_space_group.IT_coordinate_system_code '2'
_symmetry_cell_setting 'orthorhombic'
loop_
_space_group_symop_operation_xyz
x,y,z
-x,1/2-y,z
x,1/2-y,1/2-z
-x,y,1/2-z
-x,-y,-z
x,1/2+y,-z
-x,1/2+y,1/2+z
x,-y,1/2+z
1/2+x,1/2+y,z
1/2-x,-y,z
1/2+x,-y,1/2-z
1/2-x,1/2+y,1/2-z
1/2-x,1/2-y,-z
1/2+x,y,-z
1/2-x,y,1/2+z
1/2+x,1/2-y,1/2+z
loop_
_atom_site_type_symbol
_atom_site_label
_atom_site_fract_x
_atom_site_fract_y
_atom_site_fract_z
Si Si1 0.500000 0.060998 0.250000
Si Si2 0.792656 0.809670 0.304879
Si Si3 0.955778 0.422183 0.462950
Si Si4 0.750000 0.000000 0.645522
Si Si5 0.000000 0.750000 0.750000
Si Si6 0.243964 0.681761 0.448876
O O1 0.623247 0.112901 0.289457
O O2 0.392791 0.021460 0.305409
O O3 0.844660 0.750000 0.250000
O O4 0.607278 0.804966 0.292736
O O5 0.814340 0.786809 0.379474
O O6 0.830699 0.439668 0.404667
O O7 0.877845 0.375170 0.520654
O O8 0.000000 0.500000 0.500000
O O9 0.100096 0.369503 0.439868
O O10 0.250000 0.750000 0.500000
#
# Coordination Sequence:
#
# PCOD9509873 Si02
#       6
#     8  16  16   8   4  16
#     4  12  29  47  76 108 156 206 272 318 390 488
#     4  10  26  46  76 109 154 196 254 323 400 469
#     4  12  26  51  77 111 157 203 266 330 402 477
#     4  12  30  48  78 112 154 218 268 330 402 482
#     4   8  24  44  72 104 146 202 242 308 398 454
#     4  12  28  45  80 114 152 201 260 328 400 471
#
# _framework density 22.012832
#
# number of rings (size 3 to 8) (size 9 to 14) (size 15 to 20)
#    0.706    0.000    2.353    2.471   13.176    1.882 
#    0.000    0.000    0.000    0.000    0.000    0.000 
#    0.000    0.000    0.000    0.000    0.000    0.000 
#
# Total GULP energy -189639.022826 kJ/mol
# GULP energy per Si atom -5577.618318 kJ/mol
# Density = 2.196273 g / cm^3
# Si number density = 22.012832 Si / 1000 Ang^3
#
#
#
# Elastic Constant Matrix: (Units=GPa)
#
#
# Indices 1 2 3 4 5 6 
#
# 1 82.9027 34.2775 28.8400 0.0000 0.0000 0.0000
# 2 34.2775 98.0368 57.1389 0.0000 0.0000 0.0000
# 3 28.8400 57.1389 198.4957 0.0000 0.0000 0.0000
# 4 0.0000 0.0000 0.0000 33.5970 0.0000 0.0000
# 5 0.0000 0.0000 0.0000 0.0000 31.1280 0.0000
# 6 0.0000 0.0000 0.0000 0.0000 0.0000 19.2352
#
#
#
# Elastic Compliance Matrix: (Units=1/GPa)
#
#
# Indices 1 2 3 4 5 6 
#
# 1 0.014196 -0.004520 -0.000762 0.000000 0.000000 0.000000
# 2 -0.004520 0.013695 -0.003286 0.000000 0.000000 0.000000
# 3 -0.000762 -0.003286 0.006094 0.000000 0.000000 0.000000
# 4 0.000000 0.000000 0.000000 0.029765 0.000000 0.000000
# 5 0.000000 0.000000 0.000000 0.000000 0.032125 0.000000
# 6 0.000000 0.000000 0.000000 0.000000 0.000000 0.051988
#
#
# Mechanical properties :
#
#
# Convention : Reuss Voigt Hill
#
# Bulk Modulus (GPa) = 59.33988 68.88312 64.11150
# Shear Modulus (GPa) = 29.30576 34.07062 31.68819
#
# Velocity S-wave (km/s) = 3.65266 3.93843 3.79823
# Velocity P-wave (km/s) = 6.69363 7.21400 6.95868
#
# Compressibility (1/GPa) = 0.01685207
#
# Stress axis : x y z
#
# Youngs Moduli (GPa) = 70.44254 73.01671 164.08596
#
# Poissons Ratio (x) = 0.33001 0.12496
# Poissons Ratio (y) = 0.31837 0.53914
# Poissons Ratio (z) = 0.05365 0.23991
#
# Static dielectric constant tensor:
#      x y z
#    x 1.868790 0.000000 0.000000 
#    y 0.000000 1.690040 0.000000 
#    z 0.000000 0.000000 1.789020 
# 
# From -- ./inp_files/35921.got.cif
#   From: 2010.05.17/outbox.cif.g08.bks.cpg/sg68_18_cif.got.tgz:35921.got - 2010.06.03 18:57:09.
