data_PCOD9509619
_publ_section_title
;
Structure prediction by ZEFSAII (Michael W. Deem and Ramdas Pophale) SiO2 
 PCOD9509619
Probable space group: C C C A
;
_chemical_formula_sum "Si O2"
_cell_formula_units_Z 56
_cell_length_a 9.706013
_cell_length_b 25.386051
_cell_length_c 9.159021
_cell_angle_alpha 90.000000
_cell_angle_beta 90.000000
_cell_angle_gamma 90.000000
_cell_volume 2256.758421
_symmetry_space_group_name_H-M "C C C A"
_symmetry_group_IT_number 68
_space_group.IT_coordinate_system_code '2'
_symmetry_cell_setting 'orthorhombic'
loop_
_space_group_symop_operation_xyz
x,y,z
-x,1/2-y,z
x,1/2-y,1/2-z
-x,y,1/2-z
-x,-y,-z
x,1/2+y,-z
-x,1/2+y,1/2+z
x,-y,1/2+z
1/2+x,1/2+y,z
1/2-x,-y,z
1/2+x,-y,1/2-z
1/2-x,1/2+y,1/2-z
1/2-x,1/2-y,-z
1/2+x,y,-z
1/2-x,y,1/2+z
1/2+x,1/2-y,1/2+z
loop_
_atom_site_type_symbol
_atom_site_label
_atom_site_fract_x
_atom_site_fract_y
_atom_site_fract_z
Si Si1 0.914249 0.952113 0.566474
Si Si2 0.664701 0.713215 0.607738
Si Si3 0.444132 0.660741 0.404448
Si Si4 0.250000 0.000000 0.667436
O O1 0.797188 0.953313 0.441395
O O2 0.995678 0.897981 0.576907
O O3 0.853624 0.972041 0.719390
O O4 0.000000 0.000000 0.500000
O O5 0.650310 0.750000 0.750000
O O6 0.750000 0.750000 0.500000
O O7 0.523363 0.691887 0.535353
O O8 0.779186 0.666175 0.615421
O O9 0.500000 0.682374 0.250000
#
# Coordination Sequence:
#
# PCOD9509619 Si02
#       4
#    16  16  16   8
#     4  11  25  47  74 113 159 207 259 329 391 488
#     4  12  28  54  79 114 156 204 266 338 399 475
#     4  12  28  50  85 115 157 210 267 327 419 482
#     4  10  24  44  74 106 168 200 264 318 398 458
#
# _framework density 24.814352
#
# number of rings (size 3 to 8) (size 9 to 14) (size 15 to 20)
#    0.000    0.571    2.857    3.429   12.000    2.286 
#    5.143    0.000    0.000    0.000    0.000    0.000 
#    0.000    0.000    0.000    0.000    0.000    0.000 
#
# Total GULP energy -156416.107887 kJ/mol
# GULP energy per Si atom -5586.289567 kJ/mol
# Density = 2.475787 g / cm^3
# Si number density = 24.814352 Si / 1000 Ang^3
#
#
#
# Elastic Constant Matrix: (Units=GPa)
#
#
# Indices 1 2 3 4 5 6 
#
# 1 153.5691 46.7127 64.2534 0.0000 0.0000 0.0000
# 2 46.7127 156.6729 59.3627 0.0000 0.0000 0.0000
# 3 64.2534 59.3627 204.3742 0.0000 0.0000 0.0000
# 4 0.0000 0.0000 0.0000 35.0046 0.0000 0.0000
# 5 0.0000 0.0000 0.0000 0.0000 49.5511 0.0000
# 6 0.0000 0.0000 0.0000 0.0000 0.0000 49.4544
#
#
#
# Elastic Compliance Matrix: (Units=1/GPa)
#
#
# Indices 1 2 3 4 5 6 
#
# 1 0.007829 -0.001575 -0.002004 0.000000 0.000000 0.000000
# 2 -0.001575 0.007489 -0.001680 0.000000 0.000000 0.000000
# 3 -0.002004 -0.001680 0.006011 0.000000 0.000000 0.000000
# 4 0.000000 0.000000 0.000000 0.028568 0.000000 0.000000
# 5 0.000000 0.000000 0.000000 0.000000 0.020181 0.000000
# 6 0.000000 0.000000 0.000000 0.000000 0.000000 0.020221
#
#
# Mechanical properties :
#
#
# Convention : Reuss Voigt Hill
#
# Bulk Modulus (GPa) = 92.49785 95.03043 93.76414
# Shear Modulus (GPa) = 47.88333 49.75453 48.81893
#
# Velocity S-wave (km/s) = 4.39756 4.48266 4.44031
# Velocity P-wave (km/s) = 7.94617 8.07292 8.00979
#
# Compressibility (1/GPa) = 0.01081106
#
# Stress axis : x y z
#
# Youngs Moduli (GPa) = 127.72565 133.53110 166.36155
#
# Poissons Ratio (x) = 0.21032 0.33338
# Poissons Ratio (y) = 0.20117 0.27950
# Poissons Ratio (z) = 0.25596 0.22434
#
# Static dielectric constant tensor:
#      x y z
#    x 2.656610 0.000000 0.000000 
#    y 0.000000 2.044760 0.000000 
#    z 0.000000 0.000000 2.007720 
# 
# From -- ./inp_files/3877.got.cif
#   From: 2010.05.17/outbox.cif.g08.bks.cpg/sg68_2_cif.got.tgz:3877.got - 2010.06.03 18:57:09.
