data_PCOD9509002
_publ_section_title
;
Structure prediction by ZEFSAII (Michael W. Deem and Ramdas Pophale) SiO2 
 PCOD9509002
Probable space group: C C C A
;
_chemical_formula_sum "Si O2"
_cell_formula_units_Z 88
_cell_length_a 18.221538
_cell_length_b 11.390010
_cell_length_c 18.630347
_cell_angle_alpha 90.000000
_cell_angle_beta 90.000000
_cell_angle_gamma 90.000000
_cell_volume 3866.607423
_symmetry_space_group_name_H-M "C C C A"
_symmetry_group_IT_number 68
_space_group.IT_coordinate_system_code '2'
_symmetry_cell_setting 'orthorhombic'
loop_
_space_group_symop_operation_xyz
x,y,z
-x,1/2-y,z
x,1/2-y,1/2-z
-x,y,1/2-z
-x,-y,-z
x,1/2+y,-z
-x,1/2+y,1/2+z
x,-y,1/2+z
1/2+x,1/2+y,z
1/2-x,-y,z
1/2+x,-y,1/2-z
1/2-x,1/2+y,1/2-z
1/2-x,1/2-y,-z
1/2+x,y,-z
1/2-x,y,1/2+z
1/2+x,1/2-y,1/2+z
loop_
_atom_site_type_symbol
_atom_site_label
_atom_site_fract_x
_atom_site_fract_y
_atom_site_fract_z
Si Si1 0.944247 0.533813 0.312102
Si Si2 0.932149 0.827528 0.594455
Si Si3 0.056797 0.921702 0.059977
Si Si4 0.347934 0.250000 0.250000
Si Si5 0.689205 0.271572 0.098112
Si Si6 0.328210 0.630259 0.467425
O O1 0.904655 0.420733 0.346881
O O2 0.897622 0.638845 0.276066
O O3 0.000000 0.494059 0.250000
O O4 0.993172 0.570538 0.381195
O O5 0.964686 0.888451 0.521535
O O6 0.867035 0.746663 0.565251
O O7 0.000000 0.750000 0.623402
O O8 0.106942 0.817395 0.089732
O O9 0.115409 0.028202 0.052394
O O10 0.297083 0.230356 0.181681
O O11 0.746747 0.362294 0.064141
O O12 0.686339 0.151727 0.052147
#
# Coordination Sequence:
#
# PCOD9509002 Si02
#       6
#    16  16  16   8  16  16
#     4  12  25  41  64  98 133 171 218 283 339 400
#     4  11  24  40  67 100 133 175 221 280 340 399
#     4  11  22  40  69  98 130 172 228 276 334 400
#     4  12  25  44  66 100 131 174 228 280 345 408
#     4  10  23  41  68  93 132 178 228 277 332 403
#     4  10  22  45  65  95 132 178 228 280 331 402
#
# _framework density 22.758970000000001
#
# number of rings (size 3 to 8) (size 9 to 14) (size 15 to 20)
#    0.000    1.091    3.636    2.455    5.091    0.364 
#    3.273    2.727    0.000    0.000    0.000    0.000 
#    0.000    0.000    0.000    0.000    0.000    0.000 
#
# Total GULP energy -245614.855867 kJ/mol
# GULP energy per Si atom -5582.155815 kJ/mol
# Density = 2.270717 g / cm^3
# Si number density = 22.758970 Si / 1000 Ang^3
#
#
#
# Elastic Constant Matrix: (Units=GPa)
#
#
# Indices 1 2 3 4 5 6 
#
# 1 56.7458 6.2848 -1.0389 0.0000 0.0000 0.0000
# 2 6.2848 75.1345 39.5921 0.0000 0.0000 0.0000
# 3 -1.0389 39.5921 130.2205 0.0000 0.0000 0.0000
# 4 0.0000 0.0000 0.0000 34.9467 0.0000 0.0000
# 5 0.0000 0.0000 0.0000 0.0000 31.1841 0.0000
# 6 0.0000 0.0000 0.0000 0.0000 0.0000 30.9016
#
#
#
# Elastic Compliance Matrix: (Units=1/GPa)
#
#
# Indices 1 2 3 4 5 6 
#
# 1 0.017842 -0.001866 0.000710 0.000000 0.000000 0.000000
# 2 -0.001866 0.016044 -0.004893 0.000000 0.000000 0.000000
# 3 0.000710 -0.004893 0.009173 0.000000 0.000000 0.000000
# 4 0.000000 0.000000 0.000000 0.028615 0.000000 0.000000
# 5 0.000000 0.000000 0.000000 0.000000 0.032068 0.000000
# 6 0.000000 0.000000 0.000000 0.000000 0.000000 0.032361
#
#
# Mechanical properties :
#
#
# Convention : Reuss Voigt Hill
#
# Bulk Modulus (GPa) = 32.30019 39.08632 35.69325
# Shear Modulus (GPa) = 31.54159 33.89068 32.71613
#
# Velocity S-wave (km/s) = 3.72680 3.86309 3.79556
# Velocity P-wave (km/s) = 5.72205 6.09174 5.90978
#
# Compressibility (1/GPa) = 0.03095957
#
# Stress axis : x y z
#
# Youngs Moduli (GPa) = 56.04700 62.32908 109.02086
#
# Poissons Ratio (x) = 0.11634 -0.07739
# Poissons Ratio (y) = 0.10461 0.53342
# Poissons Ratio (z) = -0.03978 0.30497
#
# Static dielectric constant tensor:
#      x y z
#    x 1.849270 0.000000 0.000000 
#    y 0.000000 1.991280 0.000000 
#    z 0.000000 0.000000 1.855720 
# 
# From -- ./inp_files/32782.got.cif
#   From: 2010.05.17/outbox.cif.g08.bks.cpg/sg68_17_cif.got.tgz:32782.got - 2010.06.03 18:57:09.
