data_PCOD9509475
_publ_section_title
;
Structure prediction by ZEFSAII (Michael W. Deem and Ramdas Pophale) SiO2 
 PCOD9509475
Probable space group: C C C A
;
_chemical_formula_sum "Si O2"
_cell_formula_units_Z 88
_cell_length_a 26.626355
_cell_length_b 8.459988
_cell_length_c 16.043787
_cell_angle_alpha 90.000000
_cell_angle_beta 90.000000
_cell_angle_gamma 90.000000
_cell_volume 3614.001701
_symmetry_space_group_name_H-M "C C C A"
_symmetry_group_IT_number 68
_space_group.IT_coordinate_system_code '2'
_symmetry_cell_setting 'orthorhombic'
loop_
_space_group_symop_operation_xyz
x,y,z
-x,1/2-y,z
x,1/2-y,1/2-z
-x,y,1/2-z
-x,-y,-z
x,1/2+y,-z
-x,1/2+y,1/2+z
x,-y,1/2+z
1/2+x,1/2+y,z
1/2-x,-y,z
1/2+x,-y,1/2-z
1/2-x,1/2+y,1/2-z
1/2-x,1/2-y,-z
1/2+x,y,-z
1/2-x,y,1/2+z
1/2+x,1/2-y,1/2+z
loop_
_atom_site_type_symbol
_atom_site_label
_atom_site_fract_x
_atom_site_fract_y
_atom_site_fract_z
Si Si1 0.000000 0.997806 0.750000
Si Si2 0.591696 0.250000 0.250000
Si Si3 0.842036 0.592350 0.919836
Si Si4 0.824824 0.752052 0.099264
Si Si5 0.451340 0.938412 0.405615
Si Si6 0.000000 0.750000 0.466873
Si Si7 0.250000 0.500000 0.321465
Si Si8 0.822099 0.250000 0.250000
O O1 0.050160 0.109645 0.734475
O O2 0.026821 0.890245 0.818521
O O3 0.630570 0.258932 0.170555
O O4 0.807792 0.435895 0.909071
O O5 0.895634 0.505973 0.917294
O O6 0.846325 0.708535 0.839613
O O7 0.836412 0.686327 0.006086
O O8 0.779953 0.636028 0.129045
O O9 0.456116 0.798987 0.471271
O O10 0.485765 0.092730 0.420309
O O11 0.210213 0.405347 0.267154
#
# Coordination Sequence:
#
# PCOD9509475 Si02
#       8
#     8   8  16  16  16   8   8   8
#     4  11  24  39  74 102 150 198 246 302 392 444
#     4  11  23  46  71 110 152 199 254 314 384 462
#     4  12  27  47  78 112 157 199 263 320 398 465
#     4  12  27  49  77 113 152 208 259 331 391 471
#     4  11  24  44  66 108 143 205 245 314 373 462
#     4  10  24  40  68  96 150 192 256 306 362 446
#     4  12  28  50  82 112 156 204 262 328 402 470
#     4  12  27  50  77 117 148 202 250 333 392 472
#
# _framework density 24.349740000000001
#
# number of rings (size 3 to 8) (size 9 to 14) (size 15 to 20)
#    0.000    0.545    1.818    6.000    5.091    5.455 
#    0.000    0.000    0.000    0.000    0.000    0.000 
#    0.000    0.000    0.000    0.000    0.000    0.000 
#
# Total GULP energy -245109.984793 kJ/mol
# GULP energy per Si atom -5570.681473 kJ/mol
# Density = 2.429432 g / cm^3
# Si number density = 24.349740 Si / 1000 Ang^3
#
#
#
# Elastic Constant Matrix: (Units=GPa)
#
#
# Indices 1 2 3 4 5 6 
#
# 1 60.0969 -1.2465 31.0676 0.0000 0.0000 0.0000
# 2 -1.2465 90.0512 30.4096 0.0000 0.0000 0.0000
# 3 31.0676 30.4096 159.5217 0.0000 0.0000 0.0000
# 4 0.0000 0.0000 0.0000 337.6186 0.0000 0.0000
# 5 0.0000 0.0000 0.0000 0.0000 -19.3080 0.0000
# 6 0.0000 0.0000 0.0000 0.0000 0.0000 29.9596
#
#
#
# Elastic Compliance Matrix: (Units=1/GPa)
#
#
# Indices 1 2 3 4 5 6 
#
# 1 0.018714 0.001592 -0.003948 0.000000 0.000000 0.000000
# 2 0.001592 0.012004 -0.002598 0.000000 0.000000 0.000000
# 3 -0.003948 -0.002598 0.007533 0.000000 0.000000 0.000000
# 4 0.000000 0.000000 0.000000 0.002962 0.000000 0.000000
# 5 0.000000 0.000000 0.000000 0.000000 -0.051792 0.000000
# 6 0.000000 0.000000 0.000000 0.000000 0.000000 0.033378
#
#
# Mechanical properties :
#
#
# Convention : Reuss Voigt Hill
#
# Bulk Modulus (GPa) = 35.28271 47.79235 41.53753
# Shear Modulus (GPa) = 118.60818 86.28330 102.44574
#
# Velocity S-wave (km/s) = 6.98684 5.95919 6.49338
# Velocity P-wave (km/s) = 8.92241 8.18653 8.56238
#
# Compressibility (1/GPa) = 0.02834249
#
# Stress axis : x y z
#
# Youngs Moduli (GPa) = 53.43637 83.30337 132.74906
#
# Poissons Ratio (x) = -0.13264 0.52411
# Poissons Ratio (y) = -0.08509 0.34495
# Poissons Ratio (z) = 0.21097 0.21646
#
# Static dielectric constant tensor:
#      x y z
#    x 2.035030 0.000000 0.000000 
#    y 0.000000 1.997600 0.000000 
#    z 0.000000 0.000000 2.119520 
# 
# From -- ./inp_files/34396.got.cif
#   From: 2010.05.17/outbox.cif.g08.bks.cpg/sg68_18_cif.got.tgz:34396.got - 2010.06.03 18:57:09.
