data_PCOD9509317
_publ_section_title
;
Structure prediction by ZEFSAII (Michael W. Deem and Ramdas Pophale) SiO2 
 PCOD9509317
Probable space group: C C C A
;
_chemical_formula_sum "Si O2"
_cell_formula_units_Z 52
_cell_length_a 9.499595
_cell_length_b 22.743268
_cell_length_c 10.114847
_cell_angle_alpha 90.000000
_cell_angle_beta 90.000000
_cell_angle_gamma 90.000000
_cell_volume 2185.331255
_symmetry_space_group_name_H-M "C C C A"
_symmetry_group_IT_number 68
_space_group.IT_coordinate_system_code '2'
_symmetry_cell_setting 'orthorhombic'
loop_
_space_group_symop_operation_xyz
x,y,z
-x,1/2-y,z
x,1/2-y,1/2-z
-x,y,1/2-z
-x,-y,-z
x,1/2+y,-z
-x,1/2+y,1/2+z
x,-y,1/2+z
1/2+x,1/2+y,z
1/2-x,-y,z
1/2+x,-y,1/2-z
1/2-x,1/2+y,1/2-z
1/2-x,1/2-y,-z
1/2+x,y,-z
1/2-x,y,1/2+z
1/2+x,1/2-y,1/2+z
loop_
_atom_site_type_symbol
_atom_site_label
_atom_site_fract_x
_atom_site_fract_y
_atom_site_fract_z
Si Si1 0.750000 0.500000 0.590160
Si Si2 0.317938 0.113720 0.442366
Si Si3 0.000000 0.250000 0.750000
Si Si4 0.934394 0.191099 0.016582
Si Si5 0.500000 0.537564 0.750000
O O1 0.763479 0.439445 0.511530
O O2 0.602607 0.496546 0.665915
O O3 0.209009 0.166875 0.423032
O O4 0.446759 0.141385 0.523457
O O5 0.391166 0.080943 0.321468
O O6 0.918831 0.208953 0.858342
O O7 0.000000 0.250000 0.077208
#
# Coordination Sequence:
#
# PCOD9509317 Si02
#       5
#     8  16   4  16   8
#     4  12  28  44  76 106 146 194 246 306 376 446
#     4  12  24  47  70 109 148 190 244 304 363 443
#     4   8  22  44  72 110 134 200 234 294 374 426
#     4  10  23  43  74 103 149 189 242 293 364 439
#     4  12  27  46  73 112 147 196 245 306 382 426
#
# _framework density 23.795017000000001
#
# number of rings (size 3 to 8) (size 9 to 14) (size 15 to 20)
#    0.923    0.000    3.077    3.692    4.308    0.000 
#    0.000    0.000    0.000    3.692    0.000    0.000 
#    0.000    0.000    0.000    0.000    0.000    0.000 
#
# Total GULP energy -145125.939684 kJ/mol
# GULP energy per Si atom -5581.766911 kJ/mol
# Density = 2.374086 g / cm^3
# Si number density = 23.795017 Si / 1000 Ang^3
#
#
#
# Elastic Constant Matrix: (Units=GPa)
#
#
# Indices 1 2 3 4 5 6 
#
# 1 127.9826 29.8396 19.7153 0.0000 0.0000 0.0000
# 2 29.8396 107.1402 15.3887 0.0000 0.0000 0.0000
# 3 19.7153 15.3887 18.9539 0.0000 0.0000 0.0000
# 4 0.0000 0.0000 0.0000 -9.1739 0.0000 0.0000
# 5 0.0000 0.0000 0.0000 0.0000 15.3802 0.0000
# 6 0.0000 0.0000 0.0000 0.0000 0.0000 8.4957
#
#
#
# Elastic Compliance Matrix: (Units=1/GPa)
#
#
# Indices 1 2 3 4 5 6 
#
# 1 0.009483 -0.001386 -0.008738 0.000000 0.000000 0.000000
# 2 -0.001386 0.010768 -0.007301 0.000000 0.000000 0.000000
# 3 -0.008738 -0.007301 0.067777 0.000000 0.000000 0.000000
# 4 0.000000 0.000000 0.000000 -0.109005 0.000000 0.000000
# 5 0.000000 0.000000 0.000000 0.000000 0.065019 0.000000
# 6 0.000000 0.000000 0.000000 0.000000 0.000000 0.117706
#
#
# Mechanical properties :
#
#
# Convention : Reuss Voigt Hill
#
# Bulk Modulus (GPa) = 18.80523 42.66265 30.73394
# Shear Modulus (GPa) = 23.32920 15.54929 19.43924
#
# Velocity S-wave (km/s) = 3.13457 2.55908 2.86133
# Velocity P-wave (km/s) = 4.58485 5.16720 4.88471
#
# Compressibility (1/GPa) = 0.05317670
#
# Stress axis : x y z
#
# Youngs Moduli (GPa) = 105.45372 92.86581 14.75434
#
# Poissons Ratio (x) = 0.12871 0.12893
# Poissons Ratio (y) = 0.14615 0.10772
# Poissons Ratio (z) = 0.92151 0.67802
#
# Static dielectric constant tensor:
#      x y z
#    x 1.175800 0.000000 0.000000 
#    y 0.000000 1.738480 0.000000 
#    z 0.000000 0.000000 2.023770 
# 
# From -- ./inp_files/10538.got.cif
#   From: 2010.05.17/outbox.cif.g08.bks.cpg/sg68_6_cif.got.tgz:10538.got - 2010.06.03 18:57:09.
