data_PCOD9509372
_publ_section_title
;
Structure prediction by ZEFSAII (Michael W. Deem and Ramdas Pophale) SiO2 
 PCOD9509372
Probable space group: C C C A
;
_chemical_formula_sum "Si O2"
_cell_formula_units_Z 64
_cell_length_a 8.782708
_cell_length_b 14.920330
_cell_length_c 22.539823
_cell_angle_alpha 90.000000
_cell_angle_beta 90.000000
_cell_angle_gamma 90.000000
_cell_volume 2953.638729
_symmetry_space_group_name_H-M "C C C A"
_symmetry_group_IT_number 68
_space_group.IT_coordinate_system_code '2'
_symmetry_cell_setting 'orthorhombic'
loop_
_space_group_symop_operation_xyz
x,y,z
-x,1/2-y,z
x,1/2-y,1/2-z
-x,y,1/2-z
-x,-y,-z
x,1/2+y,-z
-x,1/2+y,1/2+z
x,-y,1/2+z
1/2+x,1/2+y,z
1/2-x,-y,z
1/2+x,-y,1/2-z
1/2-x,1/2+y,1/2-z
1/2-x,1/2-y,-z
1/2+x,y,-z
1/2-x,y,1/2+z
1/2+x,1/2-y,1/2+z
loop_
_atom_site_type_symbol
_atom_site_label
_atom_site_fract_x
_atom_site_fract_y
_atom_site_fract_z
Si Si1 0.542821 0.343117 0.139906
Si Si2 0.118383 0.568671 0.029115
Si Si3 0.115395 0.165182 0.092755
Si Si4 0.928577 0.474948 0.191185
O O1 0.500000 0.250000 0.168076
O O2 0.453310 0.368780 0.079476
O O3 0.720139 0.327605 0.123872
O O4 0.502717 0.427437 0.180156
O O5 0.250000 0.500000 0.049638
O O6 0.156989 0.632603 0.973479
O O7 0.000000 0.500000 0.000000
O O8 0.043671 0.085596 0.133064
O O9 0.000000 0.250000 0.092096
O O10 0.750000 0.500000 0.196914
O O11 0.000000 0.433025 0.250000
#
# Coordination Sequence:
#
# PCOD9509372 Si02
#       4
#    16  16  16  16
#     4  11  25  41  63  95 127 163 210 258 313 375
#     4  12  22  40  66  92 131 170 207 253 313 373
#     4  11  24  42  63  92 129 165 207 259 312 377
#     4  10  23  45  65  88 123 163 208 262 315 371
#
# _framework density 21.668189000000002
#
# number of rings (size 3 to 8) (size 9 to 14) (size 15 to 20)
#    0.000    1.000    5.000    1.500    3.500    6.000 
#    0.000    5.000    0.000    0.000    0.000    0.000 
#    0.000    0.000    0.000    0.000    0.000    0.000 
#
# Total GULP energy -178477.764972 kJ/mol
# GULP energy per Si atom -5577.430155 kJ/mol
# Density = 2.161887 g / cm^3
# Si number density = 21.668189 Si / 1000 Ang^3
#
#
#
# Elastic Constant Matrix: (Units=GPa)
#
#
# Indices 1 2 3 4 5 6 
#
# 1 55.7321 19.1692 -5.9809 0.0000 0.0000 0.0000
# 2 19.1692 118.2600 10.9998 0.0000 0.0000 0.0000
# 3 -5.9809 10.9998 79.5496 0.0000 0.0000 0.0000
# 4 0.0000 0.0000 0.0000 -2.9042 0.0000 0.0000
# 5 0.0000 0.0000 0.0000 0.0000 18.3178 0.0000
# 6 0.0000 0.0000 0.0000 0.0000 0.0000 39.0083
#
#
#
# Elastic Compliance Matrix: (Units=1/GPa)
#
#
# Indices 1 2 3 4 5 6 
#
# 1 0.019284 -0.003303 0.001907 0.000000 0.000000 0.000000
# 2 -0.003303 0.009132 -0.001511 0.000000 0.000000 0.000000
# 3 0.001907 -0.001511 0.012923 0.000000 0.000000 0.000000
# 4 0.000000 0.000000 0.000000 -0.344325 0.000000 0.000000
# 5 0.000000 0.000000 0.000000 0.000000 0.054592 0.000000
# 6 0.000000 0.000000 0.000000 0.000000 0.000000 0.025636
#
#
# Mechanical properties :
#
#
# Convention : Reuss Voigt Hill
#
# Bulk Modulus (GPa) = 28.15041 33.54643 30.84842
# Shear Modulus (GPa) = -24.37800 26.17462 0.89831
#
# Velocity S-wave (km/s) = -3.35783 3.47936 0.64457
# Velocity P-wave (km/s) = 1.41900 5.62644 3.84988
#
# Compressibility (1/GPa) = 0.03552347
#
# Stress axis : x y z
#
# Youngs Moduli (GPa) = 51.85732 109.50617 77.38102
#
# Poissons Ratio (x) = 0.36171 -0.14753
# Poissons Ratio (y) = 0.17129 0.11693
# Poissons Ratio (z) = -0.09887 0.16547
#
# Static dielectric constant tensor:
#      x y z
#    x 1.893350 0.000000 0.000000 
#    y 0.000000 1.813330 0.000000 
#    z 0.000000 0.000000 1.778820 
# 
# From -- ./inp_files/42739.got.cif
#   From: 2010.05.17/outbox.cif.g08.bks.cpg/sg68_22_cif.got.tgz:42739.got - 2010.06.03 18:57:09.
