data_PCOD9509900
_publ_section_title
;
Structure prediction by ZEFSAII (Michael W. Deem and Ramdas Pophale) SiO2 
 PCOD9509900
Probable space group: C C C A
;
_chemical_formula_sum "Si O2"
_cell_formula_units_Z 120
_cell_length_a 13.815368
_cell_length_b 22.765753
_cell_length_c 19.189062
_cell_angle_alpha 90.000000
_cell_angle_beta 90.000000
_cell_angle_gamma 90.000000
_cell_volume 6035.291116
_symmetry_space_group_name_H-M "C C C A"
_symmetry_group_IT_number 68
_space_group.IT_coordinate_system_code '2'
_symmetry_cell_setting 'orthorhombic'
loop_
_space_group_symop_operation_xyz
x,y,z
-x,1/2-y,z
x,1/2-y,1/2-z
-x,y,1/2-z
-x,-y,-z
x,1/2+y,-z
-x,1/2+y,1/2+z
x,-y,1/2+z
1/2+x,1/2+y,z
1/2-x,-y,z
1/2+x,-y,1/2-z
1/2-x,1/2+y,1/2-z
1/2-x,1/2-y,-z
1/2+x,y,-z
1/2-x,y,1/2+z
1/2+x,1/2-y,1/2+z
loop_
_atom_site_type_symbol
_atom_site_label
_atom_site_fract_x
_atom_site_fract_y
_atom_site_fract_z
Si Si1 0.244674 0.163393 0.536139
Si Si2 0.430514 0.092978 0.545235
Si Si3 0.447995 0.192426 0.325362
Si Si4 0.750901 0.778600 0.614033
Si Si5 0.000000 0.582158 0.750000
Si Si6 0.633436 0.994811 0.334941
Si Si7 0.449306 0.600221 0.916353
Si Si8 0.465063 0.817016 0.363504
O O1 0.319911 0.110687 0.532655
O O2 0.266792 0.196442 0.463689
O O3 0.262243 0.208838 0.600075
O O4 0.137897 0.137830 0.549228
O O5 0.415974 0.044690 0.604568
O O6 0.491557 0.071016 0.479518
O O7 0.482670 0.154521 0.568929
O O8 0.500000 0.250000 0.355517
O O9 0.500000 0.183721 0.250000
O O10 0.334104 0.206152 0.331638
O O11 0.473983 0.140300 0.376348
O O12 0.850717 0.808552 0.633893
O O13 0.910536 0.538188 0.732843
O O14 0.983867 0.629595 0.810819
O O15 0.750000 0.000000 0.334046
O O16 0.595331 0.058726 0.356772
O O17 0.500000 0.750000 0.348804
#
# Coordination Sequence:
#
# PCOD9509900 Si02
#       8
#    16  16  16  16   8  16  16  16
#     4  11  21  36  67 101 129 169 208 267 343 409
#     4  11  22  41  65 100 132 161 219 284 338 402
#     4  11  25  42  58  93 137 179 219 270 323 402
#     4  11  22  38  65 100 135 168 213 265 341 413
#     4  10  27  48  62  92 133 168 236 282 324 398
#     4  11  25  45  69  91 126 180 230 281 336 396
#     4  12  23  41  70  94 131 176 223 277 343 393
#     4  11  22  41  68  98 131 171 211 280 344 401
#
# _framework density 19.883051999999999
#
# number of rings (size 3 to 8) (size 9 to 14) (size 15 to 20)
#    0.000    0.933    6.667    0.600    0.933    1.600 
#    4.800    0.000    0.000    0.000    0.000    0.000 
#    0.000    0.000    0.000    0.000    0.000    0.000 
#
# Total GULP energy -334040.337112 kJ/mol
# GULP energy per Si atom -5567.338952 kJ/mol
# Density = 1.983780 g / cm^3
# Si number density = 19.883052 Si / 1000 Ang^3
#
#
#
# Elastic Constant Matrix: (Units=GPa)
#
#
# Indices 1 2 3 4 5 6 
#
# 1 92.4888 3.3461 14.4795 0.0000 0.0000 0.0000
# 2 3.3461 49.3567 16.2427 0.0000 0.0000 0.0000
# 3 14.4795 16.2427 44.5069 0.0000 0.0000 0.0000
# 4 0.0000 0.0000 0.0000 42.2918 0.0000 0.0000
# 5 0.0000 0.0000 0.0000 0.0000 11.9160 0.0000
# 6 0.0000 0.0000 0.0000 0.0000 0.0000 20.5989
#
#
#
# Elastic Compliance Matrix: (Units=1/GPa)
#
#
# Indices 1 2 3 4 5 6 
#
# 1 0.011404 0.000509 -0.003896 0.000000 0.000000 0.000000
# 2 0.000509 0.023049 -0.008577 0.000000 0.000000 0.000000
# 3 -0.003896 -0.008577 0.026866 0.000000 0.000000 0.000000
# 4 0.000000 0.000000 0.000000 0.023645 0.000000 0.000000
# 5 0.000000 0.000000 0.000000 0.000000 0.083921 0.000000
# 6 0.000000 0.000000 0.000000 0.000000 0.000000 0.048546
#
#
# Mechanical properties :
#
#
# Convention : Reuss Voigt Hill
#
# Bulk Modulus (GPa) = 26.74473 28.27657 27.51065
# Shear Modulus (GPa) = 19.69882 25.11361 22.40621
#
# Velocity S-wave (km/s) = 3.15101 3.55782 3.36058
# Velocity P-wave (km/s) = 5.16901 5.57940 5.37812
#
# Compressibility (1/GPa) = 0.03739055
#
# Stress axis : x y z
#
# Youngs Moduli (GPa) = 87.69165 43.38619 37.22166
#
# Poissons Ratio (x) = -0.02208 0.14500
# Poissons Ratio (y) = -0.04463 0.31926
# Poissons Ratio (z) = 0.34162 0.37213
#
# Static dielectric constant tensor:
#      x y z
#    x 1.692790 0.000000 0.000000 
#    y 0.000000 1.772460 0.000000 
#    z 0.000000 0.000000 1.737730 
# 
# From -- ./inp_files/37887.got.cif
#   From: 2010.05.17/outbox.cif.g08.bks.cpg/sg68_19_cif.got.tgz:37887.got - 2010.06.03 18:57:09.
