data_PCOD9509387
_publ_section_title
;
Structure prediction by ZEFSAII (Michael W. Deem and Ramdas Pophale) SiO2 
 PCOD9509387
Probable space group: C C C A
;
_chemical_formula_sum "Si O2"
_cell_formula_units_Z 96
_cell_length_a 15.976757
_cell_length_b 20.006660
_cell_length_c 12.046703
_cell_angle_alpha 90.000000
_cell_angle_beta 90.000000
_cell_angle_gamma 90.000000
_cell_volume 3850.626762
_symmetry_space_group_name_H-M "C C C A"
_symmetry_group_IT_number 68
_space_group.IT_coordinate_system_code '2'
_symmetry_cell_setting 'orthorhombic'
loop_
_space_group_symop_operation_xyz
x,y,z
-x,1/2-y,z
x,1/2-y,1/2-z
-x,y,1/2-z
-x,-y,-z
x,1/2+y,-z
-x,1/2+y,1/2+z
x,-y,1/2+z
1/2+x,1/2+y,z
1/2-x,-y,z
1/2+x,-y,1/2-z
1/2-x,1/2+y,1/2-z
1/2-x,1/2-y,-z
1/2+x,y,-z
1/2-x,y,1/2+z
1/2+x,1/2-y,1/2+z
loop_
_atom_site_type_symbol
_atom_site_label
_atom_site_fract_x
_atom_site_fract_y
_atom_site_fract_z
Si Si1 0.155757 0.000738 0.643513
Si Si2 0.085250 0.398341 0.204497
Si Si3 0.091829 0.750094 0.960265
Si Si4 0.439567 0.618493 0.941194
Si Si5 0.125762 0.105537 0.947725
Si Si6 0.237812 0.685868 0.684405
O O1 0.098322 0.969210 0.738093
O O2 0.148376 0.955037 0.531113
O O3 0.250000 0.000000 0.682592
O O4 0.129237 0.075984 0.620347
O O5 0.074413 0.399528 0.072110
O O6 0.165622 0.356568 0.245387
O O7 0.000000 0.369052 0.250000
O O8 0.073661 0.801842 0.061739
O O9 0.175757 0.779851 0.906228
O O10 0.000000 0.750000 0.901860
O O11 0.110698 0.674251 0.985698
O O12 0.531380 0.594749 0.903363
O O13 0.197421 0.131548 0.863939
O O14 0.273717 0.750000 0.750000
#
# Coordination Sequence:
#
# PCOD9509387 Si02
#       6
#    16  16  16  16  16  16
#     4  12  25  43  71 102 139 183 237 296 357 422
#     4  11  24  43  67 100 135 180 240 287 349 419
#     4   9  20  39  69  92 125 175 228 282 347 412
#     4  10  23  45  72  99 137 187 235 287 354 426
#     4  11  22  43  67  97 138 183 226 285 352 421
#     4  11  24  36  64 104 139 176 229 292 348 411
#
# _framework density 24.931007999999999
#
# number of rings (size 3 to 8) (size 9 to 14) (size 15 to 20)
#    0.000    1.333    1.667    4.000    4.667    3.333 
#    0.000    0.000    0.000    5.500    0.000    0.000 
#    0.000    0.000    0.000    0.000    0.000    0.000 
#
# Total GULP energy -268166.427231 kJ/mol
# GULP energy per Si atom -5586.800567 kJ/mol
# Density = 2.487426 g / cm^3
# Si number density = 24.931008 Si / 1000 Ang^3
#
#
#
# Elastic Constant Matrix: (Units=GPa)
#
#
# Indices 1 2 3 4 5 6 
#
# 1 137.4721 14.7156 44.9718 0.0000 0.0000 0.0000
# 2 14.7156 94.4033 17.3349 0.0000 0.0000 0.0000
# 3 44.9718 17.3349 42.5240 0.0000 0.0000 0.0000
# 4 0.0000 0.0000 0.0000 -31.3819 0.0000 0.0000
# 5 0.0000 0.0000 0.0000 0.0000 14.7064 0.0000
# 6 0.0000 0.0000 0.0000 0.0000 0.0000 17.7647
#
#
#
# Elastic Compliance Matrix: (Units=1/GPa)
#
#
# Indices 1 2 3 4 5 6 
#
# 1 0.011141 0.000461 -0.011970 0.000000 0.000000 0.000000
# 2 0.000461 0.011469 -0.005163 0.000000 0.000000 0.000000
# 3 -0.011970 -0.005163 0.038280 0.000000 0.000000 0.000000
# 4 0.000000 0.000000 0.000000 -0.031865 0.000000 0.000000
# 5 0.000000 0.000000 0.000000 0.000000 0.067998 0.000000
# 6 0.000000 0.000000 0.000000 0.000000 0.000000 0.056292
#
#
# Mechanical properties :
#
#
# Convention : Reuss Voigt Hill
#
# Bulk Modulus (GPa) = 36.30315 47.60490 41.95402
# Shear Modulus (GPa) = 25.53112 13.37628 19.45370
#
# Velocity S-wave (km/s) = 3.20358 2.31883 2.79642
# Velocity P-wave (km/s) = 5.31761 5.12888 5.22410
#
# Compressibility (1/GPa) = 0.02754582
#
# Stress axis : x y z
#
# Youngs Moduli (GPa) = 89.76165 87.19117 26.12328
#
# Poissons Ratio (x) = -0.04023 0.31270
# Poissons Ratio (y) = -0.04142 0.13488
# Poissons Ratio (z) = 1.07445 0.45020
#
# Static dielectric constant tensor:
#      x y z
#    x 1.976890 0.000000 0.000000 
#    y 0.000000 2.056800 0.000000 
#    z 0.000000 0.000000 2.039290 
# 
# From -- ./inp_files/22380.got.cif
#   From: 2010.05.17/outbox.cif.g08.bks.cpg/sg68_12_cif.got.tgz:22380.got - 2010.06.03 18:57:09.
