data_PCOD9509595
_publ_section_title
;
Structure prediction by ZEFSAII (Michael W. Deem and Ramdas Pophale) SiO2 
 PCOD9509595
Probable space group: C C C A
;
_chemical_formula_sum "Si O2"
_cell_formula_units_Z 64
_cell_length_a 29.877929
_cell_length_b 10.040788
_cell_length_c 9.209073
_cell_angle_alpha 90.000000
_cell_angle_beta 90.000000
_cell_angle_gamma 90.000000
_cell_volume 2762.703030
_symmetry_space_group_name_H-M "C C C A"
_symmetry_group_IT_number 68
_space_group.IT_coordinate_system_code '2'
_symmetry_cell_setting 'orthorhombic'
loop_
_space_group_symop_operation_xyz
x,y,z
-x,1/2-y,z
x,1/2-y,1/2-z
-x,y,1/2-z
-x,-y,-z
x,1/2+y,-z
-x,1/2+y,1/2+z
x,-y,1/2+z
1/2+x,1/2+y,z
1/2-x,-y,z
1/2+x,-y,1/2-z
1/2-x,1/2+y,1/2-z
1/2-x,1/2-y,-z
1/2+x,y,-z
1/2-x,y,1/2+z
1/2+x,1/2-y,1/2+z
loop_
_atom_site_type_symbol
_atom_site_label
_atom_site_fract_x
_atom_site_fract_y
_atom_site_fract_z
Si Si1 0.250000 0.500000 0.199674
Si Si2 0.397071 0.954366 0.429469
Si Si3 0.860516 0.750000 0.750000
Si Si4 0.950774 0.723001 0.419973
Si Si5 0.809188 0.895452 0.960318
O O1 0.212508 0.453141 0.312980
O O2 0.227568 0.606519 0.088632
O O3 0.389148 0.884054 0.272107
O O4 0.416028 0.830448 0.519307
O O5 0.432570 0.073725 0.436244
O O6 0.350142 0.017033 0.480403
O O7 0.830717 0.761998 0.895344
O O8 0.953487 0.750000 0.250000
O O9 0.000000 0.750000 0.485328
#
# Coordination Sequence:
#
# PCOD9509595 Si02
#       5
#     8  16   8  16  16
#     4  10  24  44  68 104 146 192 258 308 372 428
#     4  12  24  47  76 105 149 194 245 302 383 442
#     4  12  24  42  73 108 140 204 244 300 377 452
#     4  11  26  46  74 108 145 186 244 303 371 450
#     4  11  23  45  68 105 146 193 248 310 366 445
#
# _framework density 23.165716
#
# number of rings (size 3 to 8) (size 9 to 14) (size 15 to 20)
#    0.000    0.750    5.000    2.250    0.000    1.000 
#    0.000    0.000    0.000    0.000    0.000    0.000 
#    0.000    0.000    0.000    0.000    0.000    0.000 
#
# Total GULP energy -178733.917198 kJ/mol
# GULP energy per Si atom -5585.434912 kJ/mol
# Density = 2.311299 g / cm^3
# Si number density = 23.165716 Si / 1000 Ang^3
#
#
#
# Elastic Constant Matrix: (Units=GPa)
#
#
# Indices 1 2 3 4 5 6 
#
# 1 127.4560 34.2695 27.6481 0.0000 0.0000 0.0000
# 2 34.2695 115.2306 11.3446 0.0000 0.0000 0.0000
# 3 27.6481 11.3446 91.9578 0.0000 0.0000 0.0000
# 4 0.0000 0.0000 0.0000 25.5443 0.0000 0.0000
# 5 0.0000 0.0000 0.0000 0.0000 33.6678 0.0000
# 6 0.0000 0.0000 0.0000 0.0000 0.0000 90.2078
#
#
#
# Elastic Compliance Matrix: (Units=1/GPa)
#
#
# Indices 1 2 3 4 5 6 
#
# 1 0.009027 -0.002447 -0.002412 0.000000 0.000000 0.000000
# 2 -0.002447 0.009448 -0.000430 0.000000 0.000000 0.000000
# 3 -0.002412 -0.000430 0.011653 0.000000 0.000000 0.000000
# 4 0.000000 0.000000 0.000000 0.039148 0.000000 0.000000
# 5 0.000000 0.000000 0.000000 0.000000 0.029702 0.000000
# 6 0.000000 0.000000 0.000000 0.000000 0.000000 0.011086
#
#
# Mechanical properties :
#
#
# Convention : Reuss Voigt Hill
#
# Bulk Modulus (GPa) = 51.15125 53.46318 52.30722
# Shear Modulus (GPa) = 39.32099 47.30946 43.31523
#
# Velocity S-wave (km/s) = 4.12440 4.52399 4.32881
# Velocity P-wave (km/s) = 6.69398 7.10052 6.90024
#
# Compressibility (1/GPa) = 0.01954986
#
# Stress axis : x y z
#
# Youngs Moduli (GPa) = 110.77785 105.83861 85.81607
#
# Poissons Ratio (x) = 0.25900 0.20700
# Poissons Ratio (y) = 0.27109 0.03689
# Poissons Ratio (z) = 0.26722 0.04549
#
# Static dielectric constant tensor:
#      x y z
#    x 2.020690 0.000000 0.000000 
#    y 0.000000 1.900960 0.000000 
#    z 0.000000 0.000000 1.969580 
# 
# From -- ./inp_files/9355.got.cif
#   From: 2010.05.17/outbox.cif.g08.bks.cpg/sg68_5_cif.got.tgz:9355.got - 2010.06.03 18:57:09.
