data_PCOD9509340
_publ_section_title
;
Structure prediction by ZEFSAII (Michael W. Deem and Ramdas Pophale) SiO2 
 PCOD9509340
Probable space group: C C C A
;
_chemical_formula_sum "Si O2"
_cell_formula_units_Z 100
_cell_length_a 10.674147
_cell_length_b 13.797596
_cell_length_c 30.591565
_cell_angle_alpha 90.000000
_cell_angle_beta 90.000000
_cell_angle_gamma 90.000000
_cell_volume 4505.451293
_symmetry_space_group_name_H-M "C C C A"
_symmetry_group_IT_number 68
_space_group.IT_coordinate_system_code '2'
_symmetry_cell_setting 'orthorhombic'
loop_
_space_group_symop_operation_xyz
x,y,z
-x,1/2-y,z
x,1/2-y,1/2-z
-x,y,1/2-z
-x,-y,-z
x,1/2+y,-z
-x,1/2+y,1/2+z
x,-y,1/2+z
1/2+x,1/2+y,z
1/2-x,-y,z
1/2+x,-y,1/2-z
1/2-x,1/2+y,1/2-z
1/2-x,1/2-y,-z
1/2+x,y,-z
1/2-x,y,1/2+z
1/2+x,1/2-y,1/2+z
loop_
_atom_site_type_symbol
_atom_site_label
_atom_site_fract_x
_atom_site_fract_y
_atom_site_fract_z
Si Si1 0.250000 0.500000 0.113965
Si Si2 0.388787 0.367143 0.473013
Si Si3 0.895337 0.861017 0.673169
Si Si4 0.678664 0.157841 0.841198
Si Si5 0.750000 0.500000 0.088598
Si Si6 0.000000 0.250000 0.750000
Si Si7 0.222530 0.615038 0.250263
Si Si8 0.168546 0.151949 0.957343
O O1 0.150090 0.453113 0.146546
O O2 0.185258 0.581168 0.083607
O O3 0.356787 0.457490 0.442545
O O4 0.293205 0.365204 0.513763
O O5 0.351249 0.266497 0.448257
O O6 0.537098 0.369797 0.482514
O O7 0.842711 0.769161 0.645898
O O8 0.834405 0.846218 0.720314
O O9 0.042555 0.867097 0.677954
O O10 0.706621 0.087193 0.880701
O O11 0.774443 0.141984 0.801443
O O12 0.099411 0.169509 0.769090
O O13 0.250000 0.500000 0.247780
#
# Coordination Sequence:
#
# PCOD9509340 Si02
#       8
#     8  16  16  16   8   4  16  16
#     4  12  23  39  66 102 134 172 222 281 345 420
#     4  10  23  44  68  96 131 174 222 279 345 420
#     4  11  24  43  65  94 134 177 225 280 343 412
#     4  11  24  43  65  94 134 177 225 280 343 412
#     4  12  23  39  66 102 134 172 222 281 345 420
#     4  12  28  48  74 106 144 184 260 318 356 430
#     4  12  25  45  71 101 134 189 241 297 357 420
#     4  10  23  44  68  96 131 174 222 279 345 420
#
# _framework density 22.195335
#
# number of rings (size 3 to 8) (size 9 to 14) (size 15 to 20)
#    0.000    0.960    3.200    2.880    2.240    5.120 
#    2.880    3.200    0.000    0.000    0.000    0.000 
#    0.000    0.000    0.000    0.000    0.000    0.000 
#
# Total GULP energy -278903.240236 kJ/mol
# GULP energy per Si atom -5578.064805 kJ/mol
# Density = 2.214482 g / cm^3
# Si number density = 22.195335 Si / 1000 Ang^3
#
#
#
# Elastic Constant Matrix: (Units=GPa)
#
#
# Indices 1 2 3 4 5 6 
#
# 1 92.6461 8.1140 7.0165 0.0000 0.0000 0.0000
# 2 8.1140 97.2859 27.7555 0.0000 0.0000 0.0000
# 3 7.0165 27.7555 46.2477 0.0000 0.0000 0.0000
# 4 0.0000 0.0000 0.0000 39.8512 0.0000 0.0000
# 5 0.0000 0.0000 0.0000 0.0000 24.1360 0.0000
# 6 0.0000 0.0000 0.0000 0.0000 0.0000 27.6756
#
#
#
# Elastic Compliance Matrix: (Units=1/GPa)
#
#
# Indices 1 2 3 4 5 6 
#
# 1 0.010942 -0.000530 -0.001342 0.000000 0.000000 0.000000
# 2 -0.000530 0.012428 -0.007378 0.000000 0.000000 0.000000
# 3 -0.001342 -0.007378 0.026254 0.000000 0.000000 0.000000
# 4 0.000000 0.000000 0.000000 0.025093 0.000000 0.000000
# 5 0.000000 0.000000 0.000000 0.000000 0.041432 0.000000
# 6 0.000000 0.000000 0.000000 0.000000 0.000000 0.036133
#
#
# Mechanical properties :
#
#
# Convention : Reuss Voigt Hill
#
# Bulk Modulus (GPa) = 32.12955 35.77241 33.95098
# Shear Modulus (GPa) = 27.60026 31.21881 29.40954
#
# Velocity S-wave (km/s) = 3.53018 3.75447 3.64405
# Velocity P-wave (km/s) = 5.57884 5.91158 5.74762
#
# Compressibility (1/GPa) = 0.03112399
#
# Stress axis : x y z
#
# Youngs Moduli (GPa) = 91.39263 80.46213 38.08877
#
# Poissons Ratio (x) = 0.04262 0.05112
# Poissons Ratio (y) = 0.04841 0.28103
# Poissons Ratio (z) = 0.12266 0.59368
#
# Static dielectric constant tensor:
#      x y z
#    x 1.832500 0.000000 0.000000 
#    y 0.000000 1.899370 0.000000 
#    z 0.000000 0.000000 1.804820 
# 
# From -- ./inp_files/54789.got.cif
#   From: 2010.05.17/outbox.cif.g08.bks.cpg/sg68_28_cif.got.tgz:54789.got - 2010.06.03 18:57:09.
