data_PCOD9509202
_publ_section_title
;
Structure prediction by ZEFSAII (Michael W. Deem and Ramdas Pophale) SiO2 
 PCOD9509202
Probable space group: C C C A
;
_chemical_formula_sum "Si O2"
_cell_formula_units_Z 52
_cell_length_a 8.951298
_cell_length_b 28.771765
_cell_length_c 9.344380
_cell_angle_alpha 90.000000
_cell_angle_beta 90.000000
_cell_angle_gamma 90.000000
_cell_volume 2406.595006
_symmetry_space_group_name_H-M "C C C A"
_symmetry_group_IT_number 68
_space_group.IT_coordinate_system_code '2'
_symmetry_cell_setting 'orthorhombic'
loop_
_space_group_symop_operation_xyz
x,y,z
-x,1/2-y,z
x,1/2-y,1/2-z
-x,y,1/2-z
-x,-y,-z
x,1/2+y,-z
-x,1/2+y,1/2+z
x,-y,1/2+z
1/2+x,1/2+y,z
1/2-x,-y,z
1/2+x,-y,1/2-z
1/2-x,1/2+y,1/2-z
1/2-x,1/2-y,-z
1/2+x,y,-z
1/2-x,y,1/2+z
1/2+x,1/2-y,1/2+z
loop_
_atom_site_type_symbol
_atom_site_label
_atom_site_fract_x
_atom_site_fract_y
_atom_site_fract_z
Si Si1 0.000000 0.750000 0.750000
Si Si2 0.399813 0.029067 0.390317
Si Si3 0.599218 0.627756 0.030956
Si Si4 0.813713 0.164686 0.162951
O O1 0.108219 0.785109 0.834000
O O2 0.500000 0.038046 0.250000
O O3 0.364223 0.077127 0.470919
O O4 0.500000 0.000000 0.500000
O O5 0.250000 0.000000 0.355002
O O6 0.425233 0.633098 0.067543
O O7 0.679388 0.642712 0.178915
O O8 0.654014 0.663123 0.909339
#
# Coordination Sequence:
#
# PCOD9509202 Si02
#       4
#     4  16  16  16
#     4   8  20  44  64 104 128 172 220 284 328 404
#     4  12  28  44  69  99 137 181 233 285 337 407
#     4  10  24  42  63  97 131 175 215 272 337 396
#     4  10  23  41  70  93 136 169 220 273 335 403
#
# _framework density 21.607291
#
# number of rings (size 3 to 8) (size 9 to 14) (size 15 to 20)
#    0.000    1.846    0.000    2.769   17.231    4.923 
#    0.000    0.000    0.000   14.769    0.000    0.000 
#    0.000    0.000    0.000    0.000    0.000    0.000 
#
# Total GULP energy -145267.643265 kJ/mol
# GULP energy per Si atom -5587.217049 kJ/mol
# Density = 2.155811 g / cm^3
# Si number density = 21.607291 Si / 1000 Ang^3
#
#
#
# Elastic Constant Matrix: (Units=GPa)
#
#
# Indices 1 2 3 4 5 6 
#
# 1 58.3217 34.9381 53.4426 0.0000 0.0000 0.0000
# 2 34.9381 143.5461 49.3522 0.0000 0.0000 0.0000
# 3 53.4426 49.3522 116.1332 0.0000 0.0000 0.0000
# 4 0.0000 0.0000 0.0000 -8.6697 0.0000 0.0000
# 5 0.0000 0.0000 0.0000 0.0000 30.9562 0.0000
# 6 0.0000 0.0000 0.0000 0.0000 0.0000 27.1304
#
#
#
# Elastic Compliance Matrix: (Units=1/GPa)
#
#
# Indices 1 2 3 4 5 6 
#
# 1 0.030761 -0.003068 -0.012852 0.000000 0.000000 0.000000
# 2 -0.003068 0.008464 -0.002185 0.000000 0.000000 0.000000
# 3 -0.012852 -0.002185 0.015454 0.000000 0.000000 0.000000
# 4 0.000000 0.000000 0.000000 -0.115344 0.000000 0.000000
# 5 0.000000 0.000000 0.000000 0.000000 0.032304 0.000000
# 6 0.000000 0.000000 0.000000 0.000000 0.000000 0.036859
#
#
# Mechanical properties :
#
#
# Convention : Reuss Voigt Hill
#
# Bulk Modulus (GPa) = 54.14611 65.94076 60.04344
# Shear Modulus (GPa) = 98.30120 21.90125 60.10122
#
# Velocity S-wave (km/s) = 6.75228 3.18717 5.27974
# Velocity P-wave (km/s) = 9.26847 6.64290 8.06327
#
# Compressibility (1/GPa) = 0.01846855
#
# Stress axis : x y z
#
# Youngs Moduli (GPa) = 32.50864 118.14076 64.71024
#
# Poissons Ratio (x) = 0.36251 0.83164
# Poissons Ratio (y) = 0.09975 0.14139
# Poissons Ratio (z) = 0.41779 0.25814
#
# Static dielectric constant tensor:
#      x y z
#    x 1.764970 0.000000 0.000000 
#    y 0.000000 1.811520 0.000000 
#    z 0.000000 0.000000 1.783090 
# 
# From -- ./inp_files/3824.got.cif
#   From: 2010.05.17/outbox.cif.g08.bks.cpg/sg68_2_cif.got.tgz:3824.got - 2010.06.03 18:57:09.
