data_PCOD9509688
_publ_section_title
;
Structure prediction by ZEFSAII (Michael W. Deem and Ramdas Pophale) SiO2 
 PCOD9509688
Probable space group: C C C A
;
_chemical_formula_sum "Si O2"
_cell_formula_units_Z 64
_cell_length_a 7.538829
_cell_length_b 31.785574
_cell_length_c 9.599852
_cell_angle_alpha 90.000000
_cell_angle_beta 90.000000
_cell_angle_gamma 90.000000
_cell_volume 2300.374203
_symmetry_space_group_name_H-M "C C C A"
_symmetry_group_IT_number 68
_space_group.IT_coordinate_system_code '2'
_symmetry_cell_setting 'orthorhombic'
loop_
_space_group_symop_operation_xyz
x,y,z
-x,1/2-y,z
x,1/2-y,1/2-z
-x,y,1/2-z
-x,-y,-z
x,1/2+y,-z
-x,1/2+y,1/2+z
x,-y,1/2+z
1/2+x,1/2+y,z
1/2-x,-y,z
1/2+x,-y,1/2-z
1/2-x,1/2+y,1/2-z
1/2-x,1/2-y,-z
1/2+x,y,-z
1/2-x,y,1/2+z
1/2+x,1/2-y,1/2+z
loop_
_atom_site_type_symbol
_atom_site_label
_atom_site_fract_x
_atom_site_fract_y
_atom_site_fract_z
Si Si1 0.674588 0.101211 0.375720
Si Si2 0.815795 0.709651 0.334079
Si Si3 0.824865 0.046711 0.151274
Si Si4 0.981458 0.163965 0.441527
O O1 0.685617 0.076467 0.231886
O O2 0.653542 0.066977 0.499209
O O3 0.544438 0.138356 0.420698
O O4 0.857152 0.127859 0.380340
O O5 0.745443 0.750000 0.250000
O O6 0.649313 0.678005 0.350285
O O7 0.000000 0.703663 0.250000
O O8 0.883777 0.705193 0.495093
O O9 0.000000 0.045361 0.250000
O O10 0.750000 0.000000 0.137390
#
# Coordination Sequence:
#
# PCOD9509688 Si02
#       4
#    16  16  16  16
#     4  11  25  47  79 112 160 213 269 330 399 475
#     4  10  24  46  76 108 155 199 257 331 402 475
#     4  12  28  47  74 119 163 212 268 334 402 476
#     4  10  24  46  75 113 150 204 269 323 395 480
#
# _framework density 27.821560000000002
#
# number of rings (size 3 to 8) (size 9 to 14) (size 15 to 20)
#    0.000    1.250    2.500    0.750   10.500    6.000 
#    0.000    5.000    0.000    0.000    0.000    0.000 
#    0.000    0.000    0.000    0.000    0.000    0.000 
#
# Total GULP energy -178867.429849 kJ/mol
# GULP energy per Si atom -5589.607183 kJ/mol
# Density = 2.775824 g / cm^3
# Si number density = 27.821560 Si / 1000 Ang^3
#
#
#
# Elastic Constant Matrix: (Units=GPa)
#
#
# Indices 1 2 3 4 5 6 
#
# 1 109.8023 27.0890 7.2961 0.0000 0.0000 0.0000
# 2 27.0890 182.2126 76.3958 0.0000 0.0000 0.0000
# 3 7.2961 76.3958 98.2126 0.0000 0.0000 0.0000
# 4 0.0000 0.0000 0.0000 94.5709 0.0000 0.0000
# 5 0.0000 0.0000 0.0000 0.0000 44.4976 0.0000
# 6 0.0000 0.0000 0.0000 0.0000 0.0000 47.9392
#
#
#
# Elastic Compliance Matrix: (Units=1/GPa)
#
#
# Indices 1 2 3 4 5 6 
#
# 1 0.009476 -0.001653 0.000582 0.000000 0.000000 0.000000
# 2 -0.001653 0.008432 -0.006436 0.000000 0.000000 0.000000
# 3 0.000582 -0.006436 0.015145 0.000000 0.000000 0.000000
# 4 0.000000 0.000000 0.000000 0.010574 0.000000 0.000000
# 5 0.000000 0.000000 0.000000 0.000000 0.022473 0.000000
# 6 0.000000 0.000000 0.000000 0.000000 0.000000 0.020860
#
#
# Mechanical properties :
#
#
# Convention : Reuss Voigt Hill
#
# Bulk Modulus (GPa) = 55.43521 67.97662 61.70591
# Shear Modulus (GPa) = 46.30089 56.03131 51.16610
#
# Velocity S-wave (km/s) = 4.08390 4.49258 4.29310
# Velocity P-wave (km/s) = 6.49663 7.16918 6.84117
#
# Compressibility (1/GPa) = 0.01803908
#
# Stress axis : x y z
#
# Youngs Moduli (GPa) = 105.52583 118.59048 66.02641
#
# Poissons Ratio (x) = 0.19599 -0.03840
# Poissons Ratio (y) = 0.17440 0.42498
# Poissons Ratio (z) = -0.06137 0.76330
#
# Static dielectric constant tensor:
#      x y z
#    x 2.362290 0.000000 0.000000 
#    y 0.000000 2.171340 0.000000 
#    z 0.000000 0.000000 2.276130 
# 
# From -- ./inp_files/10738.got.cif
#   From: 2010.05.17/outbox.cif.g08.bks.cpg/sg68_6_cif.got.tgz:10738.got - 2010.06.03 18:57:09.
