data_PCOD9509916
_publ_section_title
;
Structure prediction by ZEFSAII (Michael W. Deem and Ramdas Pophale) SiO2 
 PCOD9509916
Probable space group: C C C A
;
_chemical_formula_sum "Si O2"
_cell_formula_units_Z 112
_cell_length_a 18.199485
_cell_length_b 22.350621
_cell_length_c 17.085517
_cell_angle_alpha 90.000000
_cell_angle_beta 90.000000
_cell_angle_gamma 90.000000
_cell_volume 6949.872190
_symmetry_space_group_name_H-M "C C C A"
_symmetry_group_IT_number 68
_space_group.IT_coordinate_system_code '2'
_symmetry_cell_setting 'orthorhombic'
loop_
_space_group_symop_operation_xyz
x,y,z
-x,1/2-y,z
x,1/2-y,1/2-z
-x,y,1/2-z
-x,-y,-z
x,1/2+y,-z
-x,1/2+y,1/2+z
x,-y,1/2+z
1/2+x,1/2+y,z
1/2-x,-y,z
1/2+x,-y,1/2-z
1/2-x,1/2+y,1/2-z
1/2-x,1/2-y,-z
1/2+x,y,-z
1/2-x,y,1/2+z
1/2+x,1/2-y,1/2+z
loop_
_atom_site_type_symbol
_atom_site_label
_atom_site_fract_x
_atom_site_fract_y
_atom_site_fract_z
Si Si1 0.882379 0.103138 0.607436
Si Si2 0.427273 0.968462 0.106354
Si Si3 0.413380 0.261430 0.157055
Si Si4 0.029036 0.579830 0.494369
Si Si5 0.919183 0.066740 0.769627
Si Si6 0.782131 0.067772 0.465971
Si Si7 0.353760 0.354660 0.410523
O O1 0.889584 0.171861 0.634100
O O2 0.878598 0.064961 0.687085
O O3 0.816797 0.087977 0.548530
O O4 0.958127 0.088780 0.561333
O O5 0.350973 0.934969 0.093798
O O6 0.430784 0.020473 0.038903
O O7 0.430247 0.003436 0.187437
O O8 0.497239 0.929187 0.080981
O O9 0.500000 0.250000 0.137505
O O10 0.406591 0.250000 0.250000
O O11 0.361595 0.214096 0.112549
O O12 0.086355 0.631783 0.478068
O O13 0.880565 0.108889 0.833204
O O14 0.000000 0.092344 0.750000
O O15 0.721703 0.115117 0.437398
O O16 0.750000 0.000000 0.469551
#
# Coordination Sequence:
#
# PCOD9509916 Si02
#       7
#    16  16  16  16  16  16  16
#     4  11  21  33  51  83 107 134 181 225 269 321
#     4   9  18  30  52  70 108 140 175 207 264 315
#     4  11  20  32  55  84 107 132 175 239 283 314
#     4   9  16  30  51  76 100 137 176 213 252 317
#     4  11  17  30  53  81 102 132 177 227 268 308
#     4  11  22  37  50  72 110 154 175 209 269 336
#     4  11  20  33  55  75 111 142 178 215 282 327
#
# _framework density 16.115404000000002
#
# number of rings (size 3 to 8) (size 9 to 14) (size 15 to 20)
#    0.000    1.571    8.571    0.000    0.000    0.571 
#    2.571    0.000    0.000    0.000    0.000    0.000 
#    0.000    0.000    0.000    3.857    0.000    0.000 
#
# Total GULP energy -312023.817648 kJ/mol
# GULP energy per Si atom -5571.853887 kJ/mol
# Density = 1.607872 g / cm^3
# Si number density = 16.115404 Si / 1000 Ang^3
#
#
#
# Elastic Constant Matrix: (Units=GPa)
#
#
# Indices 1 2 3 4 5 6 
#
# 1 88.4670 28.7245 38.9481 0.0000 0.0000 0.0000
# 2 28.7245 73.1572 36.0199 0.0000 0.0000 0.0000
# 3 38.9481 36.0199 75.5470 0.0000 0.0000 0.0000
# 4 0.0000 0.0000 0.0000 24.7427 0.0000 0.0000
# 5 0.0000 0.0000 0.0000 0.0000 25.3828 0.0000
# 6 0.0000 0.0000 0.0000 0.0000 0.0000 19.6833
#
#
#
# Elastic Compliance Matrix: (Units=1/GPa)
#
#
# Indices 1 2 3 4 5 6 
#
# 1 0.015027 -0.002726 -0.006448 0.000000 0.000000 0.000000
# 2 -0.002726 0.018357 -0.007347 0.000000 0.000000 0.000000
# 3 -0.006448 -0.007347 0.020064 0.000000 0.000000 0.000000
# 4 0.000000 0.000000 0.000000 0.040416 0.000000 0.000000
# 5 0.000000 0.000000 0.000000 0.000000 0.039397 0.000000
# 6 0.000000 0.000000 0.000000 0.000000 0.000000 0.050805
#
#
# Mechanical properties :
#
#
# Convention : Reuss Voigt Hill
#
# Bulk Modulus (GPa) = 49.00273 49.39514 49.19893
# Shear Modulus (GPa) = 22.33054 22.86034 22.59544
#
# Velocity S-wave (km/s) = 3.72649 3.77044 3.74853
# Velocity P-wave (km/s) = 6.99922 7.04786 7.02358
#
# Compressibility (1/GPa) = 0.02040703
#
# Stress axis : x y z
#
# Youngs Moduli (GPa) = 66.54546 54.47561 49.84082
#
# Poissons Ratio (x) = 0.14849 0.32136
# Poissons Ratio (y) = 0.18139 0.36618
# Poissons Ratio (z) = 0.42907 0.40024
#
# Static dielectric constant tensor:
#      x y z
#    x 1.561500 0.000000 0.000000 
#    y 0.000000 1.570050 0.000000 
#    z 0.000000 0.000000 1.555630 
# 
# From -- ./inp_files/32353.got.cif
#   From: 2010.05.17/outbox.cif.g08.bks.cpg/sg68_17_cif.got.tgz:32353.got - 2010.06.03 18:57:09.
