data_PCOD9509325
_publ_section_title
;
Structure prediction by ZEFSAII (Michael W. Deem and Ramdas Pophale) SiO2 
 PCOD9509325
Probable space group: C C C A
;
_chemical_formula_sum "Si O2"
_cell_formula_units_Z 88
_cell_length_a 13.905800
_cell_length_b 16.519884
_cell_length_c 19.350456
_cell_angle_alpha 90.000000
_cell_angle_beta 90.000000
_cell_angle_gamma 90.000000
_cell_volume 4445.229380
_symmetry_space_group_name_H-M "C C C A"
_symmetry_group_IT_number 68
_space_group.IT_coordinate_system_code '2'
_symmetry_cell_setting 'orthorhombic'
loop_
_space_group_symop_operation_xyz
x,y,z
-x,1/2-y,z
x,1/2-y,1/2-z
-x,y,1/2-z
-x,-y,-z
x,1/2+y,-z
-x,1/2+y,1/2+z
x,-y,1/2+z
1/2+x,1/2+y,z
1/2-x,-y,z
1/2+x,-y,1/2-z
1/2-x,1/2+y,1/2-z
1/2-x,1/2-y,-z
1/2+x,y,-z
1/2-x,y,1/2+z
1/2+x,1/2-y,1/2+z
loop_
_atom_site_type_symbol
_atom_site_label
_atom_site_fract_x
_atom_site_fract_y
_atom_site_fract_z
Si Si1 0.000000 0.250000 0.750000
Si Si2 0.589706 0.629200 0.858814
Si Si3 0.391460 0.877107 0.339756
Si Si4 0.000000 0.250000 0.250000
Si Si5 0.750000 0.000000 0.192109
Si Si6 0.250000 0.000000 0.544584
Si Si7 0.257687 0.832532 0.958205
Si Si8 0.965507 0.497757 0.080762
O O1 0.935279 0.308902 0.797993
O O2 0.671236 0.560672 0.842982
O O3 0.636961 0.672024 0.924137
O O4 0.495973 0.581052 0.882493
O O5 0.436572 0.806101 0.297613
O O6 0.328232 0.932531 0.286310
O O7 0.321425 0.840704 0.398047
O O8 0.473621 0.929226 0.379029
O O9 0.254406 0.917201 0.499697
O O10 0.350717 0.009311 0.584252
O O11 0.250000 0.750000 0.000000
O O12 0.000000 0.500000 0.000000
#
# Coordination Sequence:
#
# PCOD9509325 Si02
#       8
#     4  16  16   4   8   8  16  16
#     4  12  28  40  62 100 152 192 224 276 340 430
#     4  10  23  44  65  96 138 183 225 283 350 414
#     4  10  23  44  65  96 138 183 225 283 350 414
#     4  12  28  40  62 100 152 192 224 276 340 430
#     4   8  19  44  69  80 118 185 230 277 326 398
#     4  12  23  42  65 112 130 169 230 291 366 418
#     4  11  23  40  72 101 134 174 231 301 359 406
#     4  11  21  41  74  95 133 174 228 297 353 411
#
# _framework density 19.796503999999999
#
# number of rings (size 3 to 8) (size 9 to 14) (size 15 to 20)
#    0.000    1.455    3.636    2.182    5.091    5.818 
#    0.000    5.455    0.000    0.000    0.000    0.000 
#    0.000    0.000    0.000    0.000    0.000    0.000 
#
# Total GULP energy -244951.974359 kJ/mol
# GULP energy per Si atom -5567.090326 kJ/mol
# Density = 1.975145 g / cm^3
# Si number density = 19.796504 Si / 1000 Ang^3
#
#
#
# Elastic Constant Matrix: (Units=GPa)
#
#
# Indices 1 2 3 4 5 6 
#
# 1 140.8519 54.2712 36.6285 0.0000 0.0000 0.0000
# 2 54.2712 155.0189 66.2111 0.0000 0.0000 0.0000
# 3 36.6285 66.2111 48.8776 0.0000 0.0000 0.0000
# 4 0.0000 0.0000 0.0000 28.0586 0.0000 0.0000
# 5 0.0000 0.0000 0.0000 0.0000 300.3753 0.0000
# 6 0.0000 0.0000 0.0000 0.0000 0.0000 34.7979
#
#
#
# Elastic Compliance Matrix: (Units=1/GPa)
#
#
# Indices 1 2 3 4 5 6 
#
# 1 0.008844 -0.000630 -0.005774 0.000000 0.000000 0.000000
# 2 -0.000630 0.015352 -0.020325 0.000000 0.000000 0.000000
# 3 -0.005774 -0.020325 0.052319 0.000000 0.000000 0.000000
# 4 0.000000 0.000000 0.000000 0.035640 0.000000 0.000000
# 5 0.000000 0.000000 0.000000 0.000000 0.003329 0.000000
# 6 0.000000 0.000000 0.000000 0.000000 0.000000 0.028737
#
#
# Mechanical properties :
#
#
# Convention : Reuss Voigt Hill
#
# Bulk Modulus (GPa) = 43.36996 73.21889 58.29443
# Shear Modulus (GPa) = 24.34685 85.15555 54.75120
#
# Velocity S-wave (km/s) = 3.51073 6.56573 5.26470
# Velocity P-wave (km/s) = 6.19590 9.72340 8.15272
#
# Compressibility (1/GPa) = 0.02305743
#
# Stress axis : x y z
#
# Youngs Moduli (GPa) = 113.07136 65.13645 19.11350
#
# Poissons Ratio (x) = 0.04103 0.11037
# Poissons Ratio (y) = 0.07123 0.38848
# Poissons Ratio (z) = 0.65291 1.32388
#
# Static dielectric constant tensor:
#      x y z
#    x 1.716000 0.000000 0.000000 
#    y 0.000000 2.079860 0.000000 
#    z 0.000000 0.000000 1.689800 
# 
# From -- ./inp_files/38516.got.cif
#   From: 2010.05.17/outbox.cif.g08.bks.cpg/sg68_20_cif.got.tgz:38516.got - 2010.06.03 18:57:09.
