data_PCOD9509390
_publ_section_title
;
Structure prediction by ZEFSAII (Michael W. Deem and Ramdas Pophale) SiO2 
 PCOD9509390
Probable space group: C C C A
;
_chemical_formula_sum "Si O2"
_cell_formula_units_Z 36
_cell_length_a 9.641881
_cell_length_b 18.048959
_cell_length_c 9.991563
_cell_angle_alpha 90.000000
_cell_angle_beta 90.000000
_cell_angle_gamma 90.000000
_cell_volume 1738.790892
_symmetry_space_group_name_H-M "C C C A"
_symmetry_group_IT_number 68
_space_group.IT_coordinate_system_code '2'
_symmetry_cell_setting 'orthorhombic'
loop_
_space_group_symop_operation_xyz
x,y,z
-x,1/2-y,z
x,1/2-y,1/2-z
-x,y,1/2-z
-x,-y,-z
x,1/2+y,-z
-x,1/2+y,1/2+z
x,-y,1/2+z
1/2+x,1/2+y,z
1/2-x,-y,z
1/2+x,-y,1/2-z
1/2-x,1/2+y,1/2-z
1/2-x,1/2-y,-z
1/2+x,y,-z
1/2-x,y,1/2+z
1/2+x,1/2-y,1/2+z
loop_
_atom_site_type_symbol
_atom_site_label
_atom_site_fract_x
_atom_site_fract_y
_atom_site_fract_z
Si Si1 0.382566 0.301115 0.008470
Si Si2 0.000000 0.250000 0.250000
Si Si3 0.095637 0.535427 0.117582
O O1 0.500000 0.250000 0.074822
O O2 0.374480 0.379412 0.077432
O O3 0.250000 0.250000 0.000000
O O4 0.423691 0.305175 0.851771
O O5 0.250000 0.500000 0.131827
O O6 0.000000 0.531218 0.250000
O O7 0.000000 0.500000 0.000000
#
# Coordination Sequence:
#
# PCOD9509390 Si02
#       3
#    16   4  16
#     4  10  23  45  74 101 138 187 238 293 361 430
#     4   8  24  44  72  96 148 164 242 296 356 400
#     4  12  28  48  73 108 152 195 245 303 371 436
#
# _framework density 20.704042000000001
#
# number of rings (size 3 to 8) (size 9 to 14) (size 15 to 20)
#    1.333    0.000    0.000    4.000    3.111    8.000 
#    0.000    0.000    0.000    0.000    0.000    0.000 
#    0.000    0.000    0.000    0.000    0.000    0.000 
#
# Total GULP energy -100291.798926 kJ/mol
# GULP energy per Si atom -5571.766607 kJ/mol
# Density = 2.065692 g / cm^3
# Si number density = 20.704042 Si / 1000 Ang^3
#
#
#
# Elastic Constant Matrix: (Units=GPa)
#
#
# Indices 1 2 3 4 5 6 
#
# 1 212.4756 115.7872 80.5895 0.0000 0.0000 0.0000
# 2 115.7872 203.9200 71.8550 0.0000 0.0000 0.0000
# 3 80.5895 71.8550 175.6093 0.0000 0.0000 0.0000
# 4 0.0000 0.0000 0.0000 49.0036 0.0000 0.0000
# 5 0.0000 0.0000 0.0000 0.0000 14.5209 0.0000
# 6 0.0000 0.0000 0.0000 0.0000 0.0000 35.3678
#
#
#
# Elastic Compliance Matrix: (Units=1/GPa)
#
#
# Indices 1 2 3 4 5 6 
#
# 1 0.007342 -0.003484 -0.001944 0.000000 0.000000 0.000000
# 2 -0.003484 0.007383 -0.001422 0.000000 0.000000 0.000000
# 3 -0.001944 -0.001422 0.007168 0.000000 0.000000 0.000000
# 4 0.000000 0.000000 0.000000 0.020407 0.000000 0.000000
# 5 0.000000 0.000000 0.000000 0.000000 0.068866 0.000000
# 6 0.000000 0.000000 0.000000 0.000000 0.000000 0.028274
#
#
# Mechanical properties :
#
#
# Convention : Reuss Voigt Hill
#
# Bulk Modulus (GPa) = 122.04346 125.38536 123.71441
# Shear Modulus (GPa) = 32.07742 41.36334 36.72038
#
# Velocity S-wave (km/s) = 3.94042 4.47457 4.21596
# Velocity P-wave (km/s) = 8.93181 9.34815 9.14235
#
# Compressibility (1/GPa) = 0.00819380
#
# Stress axis : x y z
#
# Youngs Moduli (GPa) = 136.19639 135.44096 139.49993
#
# Poissons Ratio (x) = 0.47188 0.27117
# Poissons Ratio (y) = 0.47452 0.19839
# Poissons Ratio (z) = 0.26475 0.19262
#
# Static dielectric constant tensor:
#      x y z
#    x 1.718070 0.000000 0.000000 
#    y 0.000000 1.702960 0.000000 
#    z 0.000000 0.000000 1.705600 
# 
# From -- ./inp_files/3167.got.cif
#   From: 2010.05.17/outbox.cif.g08.bks.cpg/sg68_2_cif.got.tgz:3167.got - 2010.06.03 18:57:09.
