data_PCOD9509931
_publ_section_title
;
Structure prediction by ZEFSAII (Michael W. Deem and Ramdas Pophale) SiO2 
 PCOD9509931
Probable space group: C C C A
;
_chemical_formula_sum "Si O2"
_cell_formula_units_Z 88
_cell_length_a 14.803055
_cell_length_b 14.288959
_cell_length_c 20.831380
_cell_angle_alpha 90.000000
_cell_angle_beta 90.000000
_cell_angle_gamma 90.000000
_cell_volume 4406.258621
_symmetry_space_group_name_H-M "C C C A"
_symmetry_group_IT_number 68
_space_group.IT_coordinate_system_code '2'
_symmetry_cell_setting 'orthorhombic'
loop_
_space_group_symop_operation_xyz
x,y,z
-x,1/2-y,z
x,1/2-y,1/2-z
-x,y,1/2-z
-x,-y,-z
x,1/2+y,-z
-x,1/2+y,1/2+z
x,-y,1/2+z
1/2+x,1/2+y,z
1/2-x,-y,z
1/2+x,-y,1/2-z
1/2-x,1/2+y,1/2-z
1/2-x,1/2-y,-z
1/2+x,y,-z
1/2-x,y,1/2+z
1/2+x,1/2-y,1/2+z
loop_
_atom_site_type_symbol
_atom_site_label
_atom_site_fract_x
_atom_site_fract_y
_atom_site_fract_z
Si Si1 0.958749 0.611994 0.555812
Si Si2 0.266446 0.193261 0.564784
Si Si3 0.133363 0.569707 0.503078
Si Si4 0.959242 0.854753 0.685578
Si Si5 0.753727 0.685027 0.311742
Si Si6 0.250000 0.500000 0.122311
O O1 0.873536 0.677603 0.569793
O O2 0.910957 0.526146 0.520309
O O3 0.047265 0.638365 0.513970
O O4 0.004278 0.589923 0.624242
O O5 0.250000 0.250000 0.500000
O O6 0.204825 0.103502 0.549746
O O7 0.234266 0.248681 0.626716
O O8 0.183772 0.551477 0.570881
O O9 0.852645 0.841215 0.694047
O O10 0.000000 0.750000 0.678712
O O11 0.000000 0.897047 0.750000
O O12 0.778982 0.750000 0.250000
O O13 0.792631 0.582266 0.332851
#
# Coordination Sequence:
#
# PCOD9509931 Si02
#       6
#    16  16  16  16  16   8
#     4  11  21  37  60  90 130 163 209 263 327 368
#     4  12  21  38  65  92 129 164 214 268 314 387
#     4  11  23  38  61  97 127 168 211 264 325 384
#     4  11  19  35  60  87 119 154 208 269 313 371
#     4  12  24  41  63  93 127 173 212 266 330 389
#     4  12  22  44  60  88 138 166 214 276 334 384
#
# _framework density 19.971591
#
# number of rings (size 3 to 8) (size 9 to 14) (size 15 to 20)
#    0.000    0.545    9.091    0.000    0.000    0.000 
#    6.545    0.000    0.000    0.000    0.000   11.455 
#    0.000    0.000    0.000    0.000    0.000    0.000 
#
# Total GULP energy -245080.780961 kJ/mol
# GULP energy per Si atom -5570.017749 kJ/mol
# Density = 1.992614 g / cm^3
# Si number density = 19.971591 Si / 1000 Ang^3
#
#
#
# Elastic Constant Matrix: (Units=GPa)
#
#
# Indices 1 2 3 4 5 6 
#
# 1 77.3625 2.9593 5.6540 0.0000 0.0000 0.0000
# 2 2.9593 67.7229 26.6697 0.0000 0.0000 0.0000
# 3 5.6540 26.6697 129.4472 0.0000 0.0000 0.0000
# 4 0.0000 0.0000 0.0000 35.1717 0.0000 0.0000
# 5 0.0000 0.0000 0.0000 0.0000 21.6484 0.0000
# 6 0.0000 0.0000 0.0000 0.0000 0.0000 19.8567
#
#
#
# Elastic Compliance Matrix: (Units=1/GPa)
#
#
# Indices 1 2 3 4 5 6 
#
# 1 0.012976 -0.000374 -0.000490 0.000000 0.000000 0.000000
# 2 -0.000374 0.016081 -0.003297 0.000000 0.000000 0.000000
# 3 -0.000490 -0.003297 0.008426 0.000000 0.000000 0.000000
# 4 0.000000 0.000000 0.000000 0.028432 0.000000 0.000000
# 5 0.000000 0.000000 0.000000 0.000000 0.046193 0.000000
# 6 0.000000 0.000000 0.000000 0.000000 0.000000 0.050361
#
#
# Mechanical properties :
#
#
# Convention : Reuss Voigt Hill
#
# Bulk Modulus (GPa) = 34.29178 38.34431 36.31804
# Shear Modulus (GPa) = 27.69931 31.28534 29.49233
#
# Velocity S-wave (km/s) = 3.72820 3.96219 3.84697
# Velocity P-wave (km/s) = 5.97831 6.33822 6.16089
#
# Compressibility (1/GPa) = 0.02916151
#
# Stress axis : x y z
#
# Youngs Moduli (GPa) = 77.06378 62.18643 118.68366
#
# Poissons Ratio (x) = 0.02327 0.05812
# Poissons Ratio (y) = 0.02884 0.39127
# Poissons Ratio (z) = 0.03774 0.20501
#
# Static dielectric constant tensor:
#      x y z
#    x 1.774160 0.000000 0.000000 
#    y 0.000000 2.025260 0.000000 
#    z 0.000000 0.000000 1.719650 
# 
# From -- ./inp_files/38497.got.cif
#   From: 2010.05.17/outbox.cif.g08.bks.cpg/sg68_20_cif.got.tgz:38497.got - 2010.06.03 18:57:09.
