data_PCOD9509364
_publ_section_title
;
Structure prediction by ZEFSAII (Michael W. Deem and Ramdas Pophale) SiO2 
 PCOD9509364
Probable space group: C C C A
;
_chemical_formula_sum "Si O2"
_cell_formula_units_Z 64
_cell_length_a 5.107785
_cell_length_b 29.819066
_cell_length_c 19.698073
_cell_angle_alpha 90.000000
_cell_angle_beta 90.000000
_cell_angle_gamma 90.000000
_cell_volume 3000.201247
_symmetry_space_group_name_H-M "C C C A"
_symmetry_group_IT_number 68
_space_group.IT_coordinate_system_code '2'
_symmetry_cell_setting 'orthorhombic'
loop_
_space_group_symop_operation_xyz
x,y,z
-x,1/2-y,z
x,1/2-y,1/2-z
-x,y,1/2-z
-x,-y,-z
x,1/2+y,-z
-x,1/2+y,1/2+z
x,-y,1/2+z
1/2+x,1/2+y,z
1/2-x,-y,z
1/2+x,-y,1/2-z
1/2-x,1/2+y,1/2-z
1/2-x,1/2-y,-z
1/2+x,y,-z
1/2-x,y,1/2+z
1/2+x,1/2-y,1/2+z
loop_
_atom_site_type_symbol
_atom_site_label
_atom_site_fract_x
_atom_site_fract_y
_atom_site_fract_z
Si Si1 0.125050 0.347693 0.539228
Si Si2 0.500000 0.750000 0.338670
Si Si3 0.000000 0.470002 0.750000
Si Si4 0.886588 0.117503 0.821672
Si Si5 0.500000 0.250000 0.421720
Si Si6 0.500000 0.329778 0.750000
O O1 0.912345 0.362221 0.483098
O O2 0.026182 0.365874 0.611382
O O3 0.113676 0.293445 0.540985
O O4 0.251830 0.731794 0.379977
O O5 0.632479 0.709199 0.296872
O O6 0.750000 0.500000 0.767245
O O7 0.918501 0.435476 0.690004
O O8 0.598196 0.136533 0.809162
O O9 0.000000 0.137459 0.750000
#
# Coordination Sequence:
#
# PCOD9509364 Si02
#       6
#    16   8   8  16   8   8
#     4  12  26  42  64  95 141 185 229 274 329 386
#     4  11  24  33  65  86 141 165 239 280 323 363
#     4  10  23  44  73 107 126 159 211 286 355 416
#     4  10  24  41  72  96 131 171 225 275 334 408
#     4  12  22  44  55  90 132 197 230 270 312 375
#     4  11  21  38  59 100 128 176 221 286 327 373
#
# _framework density 21.331904000000002
#
# number of rings (size 3 to 8) (size 9 to 14) (size 15 to 20)
#    0.750    0.250    2.500    4.500    3.500    1.000 
#    0.000    0.000    0.000    4.500    0.000    0.000 
#    0.000    0.000    0.000    0.000    0.000    0.000 
#
# Total GULP energy -178182.400809 kJ/mol
# GULP energy per Si atom -5568.200025 kJ/mol
# Density = 2.128335 g / cm^3
# Si number density = 21.331904 Si / 1000 Ang^3
#
#
#
# Elastic Constant Matrix: (Units=GPa)
#
#
# Indices 1 2 3 4 5 6 
#
# 1 65.4625 29.8561 3.9141 0.0000 0.0000 0.0000
# 2 29.8561 129.1971 25.6730 0.0000 0.0000 0.0000
# 3 3.9141 25.6730 82.6369 0.0000 0.0000 0.0000
# 4 0.0000 0.0000 0.0000 15.8588 0.0000 0.0000
# 5 0.0000 0.0000 0.0000 0.0000 32.7828 0.0000
# 6 0.0000 0.0000 0.0000 0.0000 0.0000 30.2250
#
#
#
# Elastic Compliance Matrix: (Units=1/GPa)
#
#
# Indices 1 2 3 4 5 6 
#
# 1 0.017091 -0.004038 0.000445 0.000000 0.000000 0.000000
# 2 -0.004038 0.009203 -0.002668 0.000000 0.000000 0.000000
# 3 0.000445 -0.002668 0.012909 0.000000 0.000000 0.000000
# 4 0.000000 0.000000 0.000000 0.063056 0.000000 0.000000
# 5 0.000000 0.000000 0.000000 0.000000 0.030504 0.000000
# 6 0.000000 0.000000 0.000000 0.000000 0.000000 0.033085
#
#
# Mechanical properties :
#
#
# Convention : Reuss Voigt Hill
#
# Bulk Modulus (GPa) = 37.47940 44.02034 40.74987
# Shear Modulus (GPa) = 26.70021 30.29687 28.49854
#
# Velocity S-wave (km/s) = 3.54171 3.77272 3.65904
# Velocity P-wave (km/s) = 5.85942 6.29751 6.08241
#
# Compressibility (1/GPa) = 0.02668133
#
# Stress axis : x y z
#
# Youngs Moduli (GPa) = 58.51047 108.65544 77.46579
#
# Poissons Ratio (x) = 0.43875 -0.03447
# Poissons Ratio (y) = 0.23626 0.20668
# Poissons Ratio (z) = -0.02604 0.28989
#
# Static dielectric constant tensor:
#      x y z
#    x -0.800990 0.000000 0.000000 
#    y 0.000000 1.729680 0.000000 
#    z 0.000000 0.000000 1.829110 
# 
# From -- ./inp_files/27173.got.cif
#   From: 2010.05.17/outbox.cif.g08.bks.cpg/sg68_14_cif.got.tgz:27173.got - 2010.06.03 18:57:09.
