data_PCOD9509038
_publ_section_title
;
Structure prediction by ZEFSAII (Michael W. Deem and Ramdas Pophale) SiO2 
 PCOD9509038
Probable space group: C C C A
;
_chemical_formula_sum "Si O2"
_cell_formula_units_Z 68
_cell_length_a 14.429023
_cell_length_b 16.331992
_cell_length_c 13.292934
_cell_angle_alpha 90.000000
_cell_angle_beta 90.000000
_cell_angle_gamma 90.000000
_cell_volume 3132.542217
_symmetry_space_group_name_H-M "C C C A"
_symmetry_group_IT_number 68
_space_group.IT_coordinate_system_code '2'
_symmetry_cell_setting 'orthorhombic'
loop_
_space_group_symop_operation_xyz
x,y,z
-x,1/2-y,z
x,1/2-y,1/2-z
-x,y,1/2-z
-x,-y,-z
x,1/2+y,-z
-x,1/2+y,1/2+z
x,-y,1/2+z
1/2+x,1/2+y,z
1/2-x,-y,z
1/2+x,-y,1/2-z
1/2-x,1/2+y,1/2-z
1/2-x,1/2-y,-z
1/2+x,y,-z
1/2-x,y,1/2+z
1/2+x,1/2-y,1/2+z
loop_
_atom_site_type_symbol
_atom_site_label
_atom_site_fract_x
_atom_site_fract_y
_atom_site_fract_z
Si Si1 0.500000 0.364868 0.750000
Si Si2 0.750000 0.500000 0.459242
Si Si3 0.164534 0.666237 0.602900
Si Si4 0.130649 0.723170 0.073337
Si Si5 0.000000 0.250000 0.750000
Si Si6 0.570998 0.935177 0.449797
O O1 0.416005 0.321939 0.685883
O O2 0.545502 0.420061 0.664405
O O3 0.797193 0.426782 0.396224
O O4 0.670745 0.471271 0.532664
O O5 0.124329 0.693542 0.493109
O O6 0.261348 0.716265 0.606538
O O7 0.070157 0.708756 0.172390
O O8 0.088731 0.653848 0.000033
O O9 0.500000 0.000000 0.500000
#
# Coordination Sequence:
#
# PCOD9509038 Si02
#       6
#     8   8  16  16   4  16
#     4  12  24  42  76 101 133 184 246 286 363 439
#     4  10  22  46  66  92 150 174 228 298 360 406
#     4  10  23  46  69 102 138 187 231 299 351 436
#     4  10  25  45  69  98 147 178 236 293 366 425
#     4  12  24  42  72 102 128 184 218 292 344 430
#     4  11  24  45  65 100 139 183 231 301 352 433
#
# _framework density 21.707608
#
# number of rings (size 3 to 8) (size 9 to 14) (size 15 to 20)
#    0.000    1.412    2.353    1.412    0.000    9.412 
#    0.000    0.000    0.000    0.000    0.000    0.000 
#    0.000    0.000    0.000    0.000    0.000    0.000 
#
# Total GULP energy -189307.010283 kJ/mol
# GULP energy per Si atom -5567.853244 kJ/mol
# Density = 2.165820 g / cm^3
# Si number density = 21.707608 Si / 1000 Ang^3
#
#
#
# Elastic Constant Matrix: (Units=GPa)
#
#
# Indices 1 2 3 4 5 6 
#
# 1 162.0257 22.6774 55.0803 0.0000 0.0000 0.0000
# 2 22.6774 79.9164 28.3085 0.0000 0.0000 0.0000
# 3 55.0803 28.3085 141.3063 0.0000 0.0000 0.0000
# 4 0.0000 0.0000 0.0000 -46.2672 0.0000 0.0000
# 5 0.0000 0.0000 0.0000 0.0000 43.6274 0.0000
# 6 0.0000 0.0000 0.0000 0.0000 0.0000 14.9320
#
#
#
# Elastic Compliance Matrix: (Units=1/GPa)
#
#
# Indices 1 2 3 4 5 6 
#
# 1 0.007208 -0.001130 -0.002583 0.000000 0.000000 0.000000
# 2 -0.001130 0.013646 -0.002293 0.000000 0.000000 0.000000
# 3 -0.002583 -0.002293 0.008543 0.000000 0.000000 0.000000
# 4 0.000000 0.000000 0.000000 -0.021614 0.000000 0.000000
# 5 0.000000 0.000000 0.000000 0.000000 0.022921 0.000000
# 6 0.000000 0.000000 0.000000 0.000000 0.000000 0.066970
#
#
# Mechanical properties :
#
#
# Convention : Reuss Voigt Hill
#
# Bulk Modulus (GPa) = 57.52447 66.15341 61.83894
# Shear Modulus (GPa) = 43.29600 20.93724 32.11662
#
# Velocity S-wave (km/s) = 4.47084 3.10903 3.85061
# Velocity P-wave (km/s) = 7.29441 6.59007 6.95116
#
# Compressibility (1/GPa) = 0.01738391
#
# Stress axis : x y z
#
# Youngs Moduli (GPa) = 138.73001 73.28076 117.05251
#
# Poissons Ratio (x) = 0.08283 0.30238
# Poissons Ratio (y) = 0.15682 0.26842
# Poissons Ratio (z) = 0.35838 0.16805
#
# Static dielectric constant tensor:
#      x y z
#    x 1.811140 0.000000 0.000000 
#    y 0.000000 1.928660 0.000000 
#    z 0.000000 0.000000 1.727640 
# 
# From -- ./inp_files/13063.got.cif
#   From: 2010.05.17/outbox.cif.g08.bks.cpg/sg68_7_cif.got.tgz:13063.got - 2010.06.03 18:57:09.
