data_PCOD9509130
_publ_section_title
;
Structure prediction by ZEFSAII (Michael W. Deem and Ramdas Pophale) SiO2 
 PCOD9509130
Probable space group: C C C A
;
_chemical_formula_sum "Si O2"
_cell_formula_units_Z 72
_cell_length_a 23.530366
_cell_length_b 10.311618
_cell_length_c 13.938805
_cell_angle_alpha 90.000000
_cell_angle_beta 90.000000
_cell_angle_gamma 90.000000
_cell_volume 3382.057919
_symmetry_space_group_name_H-M "C C C A"
_symmetry_group_IT_number 68
_space_group.IT_coordinate_system_code '2'
_symmetry_cell_setting 'orthorhombic'
loop_
_space_group_symop_operation_xyz
x,y,z
-x,1/2-y,z
x,1/2-y,1/2-z
-x,y,1/2-z
-x,-y,-z
x,1/2+y,-z
-x,1/2+y,1/2+z
x,-y,1/2+z
1/2+x,1/2+y,z
1/2-x,-y,z
1/2+x,-y,1/2-z
1/2-x,1/2+y,1/2-z
1/2-x,1/2-y,-z
1/2+x,y,-z
1/2-x,y,1/2+z
1/2+x,1/2-y,1/2+z
loop_
_atom_site_type_symbol
_atom_site_label
_atom_site_fract_x
_atom_site_fract_y
_atom_site_fract_z
Si Si1 0.500000 0.934166 0.750000
Si Si2 0.466755 0.872348 0.962348
Si Si3 0.892407 0.899525 0.762336
Si Si4 0.305149 0.054160 0.900395
Si Si5 0.839334 0.657751 0.545258
O O1 0.552666 0.018557 0.787457
O O2 0.473453 0.869949 0.845996
O O3 0.500000 0.750000 0.003445
O O4 0.402478 0.848293 0.997686
O O5 0.500000 0.000000 0.000000
O O6 0.909998 0.750000 0.750000
O O7 0.860581 0.949314 0.667758
O O8 0.847629 0.896510 0.848130
O O9 0.311036 0.199833 0.944242
O O10 0.250000 0.000000 0.842913
O O11 0.306516 0.945475 0.982145
#
# Coordination Sequence:
#
# PCOD9509130 Si02
#       5
#     8  16  16  16  16
#     4  12  22  40  64 100 141 174 221 286 355 416
#     4  12  25  40  66 101 139 180 223 281 351 423
#     4  10  23  39  66  98 135 175 227 281 350 420
#     4  11  24  45  68  96 131 179 235 288 344 408
#     4  11  23  43  68  98 133 178 230 288 346 415
#
# _framework density 21.288813000000001
#
# number of rings (size 3 to 8) (size 9 to 14) (size 15 to 20)
#    0.000    0.889    4.444    2.667    3.111    0.889 
#    0.000    3.333    0.000    0.000    0.000    0.000 
#    0.000    0.000    0.000    0.000    0.000    0.000 
#
# Total GULP energy -200683.338159 kJ/mol
# GULP energy per Si atom -5574.537171 kJ/mol
# Density = 2.124036 g / cm^3
# Si number density = 21.288813 Si / 1000 Ang^3
#
#
#
# Elastic Constant Matrix: (Units=GPa)
#
#
# Indices 1 2 3 4 5 6 
#
# 1 97.4607 63.1414 -4.4667 0.0000 0.0000 0.0000
# 2 63.1414 115.2917 29.6838 0.0000 0.0000 0.0000
# 3 -4.4667 29.6838 82.2636 0.0000 0.0000 0.0000
# 4 0.0000 0.0000 0.0000 23.9303 0.0000 0.0000
# 5 0.0000 0.0000 0.0000 0.0000 23.9274 0.0000
# 6 0.0000 0.0000 0.0000 0.0000 0.0000 43.7452
#
#
#
# Elastic Compliance Matrix: (Units=1/GPa)
#
#
# Indices 1 2 3 4 5 6 
#
# 1 0.017505 -0.010839 0.004862 0.000000 0.000000 0.000000
# 2 -0.010839 0.016273 -0.006460 0.000000 0.000000 0.000000
# 3 0.004862 -0.006460 0.014751 0.000000 0.000000 0.000000
# 4 0.000000 0.000000 0.000000 0.041788 0.000000 0.000000
# 5 0.000000 0.000000 0.000000 0.000000 0.041793 0.000000
# 6 0.000000 0.000000 0.000000 0.000000 0.000000 0.022860
#
#
# Mechanical properties :
#
#
# Convention : Reuss Voigt Hill
#
# Bulk Modulus (GPa) = 42.27573 52.41479 47.34526
# Shear Modulus (GPa) = 26.63390 32.09775 29.36582
#
# Velocity S-wave (km/s) = 3.54089 3.88716 3.71806
# Velocity P-wave (km/s) = 6.05132 6.69485 6.38120
#
# Compressibility (1/GPa) = 0.02365424
#
# Stress axis : x y z
#
# Youngs Moduli (GPa) = 57.12502 61.45120 67.79118
#
# Poissons Ratio (x) = 0.66606 -0.32957
# Poissons Ratio (y) = 0.61917 0.43796
# Poissons Ratio (z) = -0.27772 0.39700
#
# Static dielectric constant tensor:
#      x y z
#    x 1.876570 0.000000 0.000000 
#    y 0.000000 1.781140 0.000000 
#    z 0.000000 0.000000 1.791920 
# 
# From -- ./inp_files/25848.got.cif
#   From: 2010.05.17/outbox.cif.g08.bks.cpg/sg68_13_cif.got.tgz:25848.got - 2010.06.03 18:57:09.
