data_PCOD9509641
_publ_section_title
;
Structure prediction by ZEFSAII (Michael W. Deem and Ramdas Pophale) SiO2 
 PCOD9509641
Probable space group: C C C A
;
_chemical_formula_sum "Si O2"
_cell_formula_units_Z 56
_cell_length_a 13.483328
_cell_length_b 5.645129
_cell_length_c 30.163805
_cell_angle_alpha 90.000000
_cell_angle_beta 90.000000
_cell_angle_gamma 90.000000
_cell_volume 2295.921815
_symmetry_space_group_name_H-M "C C C A"
_symmetry_group_IT_number 68
_space_group.IT_coordinate_system_code '2'
_symmetry_cell_setting 'orthorhombic'
loop_
_space_group_symop_operation_xyz
x,y,z
-x,1/2-y,z
x,1/2-y,1/2-z
-x,y,1/2-z
-x,-y,-z
x,1/2+y,-z
-x,1/2+y,1/2+z
x,-y,1/2+z
1/2+x,1/2+y,z
1/2-x,-y,z
1/2+x,-y,1/2-z
1/2-x,1/2+y,1/2-z
1/2-x,1/2-y,-z
1/2+x,y,-z
1/2-x,y,1/2+z
1/2+x,1/2-y,1/2+z
loop_
_atom_site_type_symbol
_atom_site_label
_atom_site_fract_x
_atom_site_fract_y
_atom_site_fract_z
Si Si1 0.889735 0.365344 0.880658
Si Si2 0.000000 0.750000 0.660087
Si Si3 0.644387 0.610868 0.706778
Si Si4 0.120229 0.251739 0.976981
O O1 0.837864 0.272795 0.836576
O O2 0.842188 0.294990 0.926978
O O3 0.000000 0.250000 0.880626
O O4 0.916938 0.637451 0.872152
O O5 0.940415 0.570649 0.691319
O O6 0.611603 0.750000 0.750000
O O7 0.750000 0.500000 0.718191
O O8 0.000000 0.250000 0.975390
O O9 0.145864 0.514104 0.995033
#
# Coordination Sequence:
#
# PCOD9509641 Si02
#       4
#    16   8  16  16
#     4   9  21  38  63  97 130 181 226 279 351 413
#     4  10  24  45  70  92 138 174 230 288 345 426
#     4  11  27  46  67 100 134 179 232 287 353 425
#     4   9  18  30  57  95 137 176 228 286 344 416
#
# _framework density 24.391075000000001
#
# number of rings (size 3 to 8) (size 9 to 14) (size 15 to 20)
#    0.000    2.286    0.000    0.000   18.000    6.286 
#    0.000    0.000    0.000    1.714    0.000    0.000 
#    0.000    0.000    0.000    0.000    0.000    0.000 
#
# Total GULP energy -156524.739165 kJ/mol
# GULP energy per Si atom -5590.169256 kJ/mol
# Density = 2.433556 g / cm^3
# Si number density = 24.391075 Si / 1000 Ang^3
#
#
#
# Elastic Constant Matrix: (Units=GPa)
#
#
# Indices 1 2 3 4 5 6 
#
# 1 76.5167 5.4277 11.8325 0.0000 0.0000 0.0000
# 2 5.4277 131.6093 90.5325 0.0000 0.0000 0.0000
# 3 11.8325 90.5325 202.3376 0.0000 0.0000 0.0000
# 4 0.0000 0.0000 0.0000 29.0804 0.0000 0.0000
# 5 0.0000 0.0000 0.0000 0.0000 -57.5948 0.0000
# 6 0.0000 0.0000 0.0000 0.0000 0.0000 3.3443
#
#
#
# Elastic Compliance Matrix: (Units=1/GPa)
#
#
# Indices 1 2 3 4 5 6 
#
# 1 0.013188 -0.000019 -0.000763 0.000000 0.000000 0.000000
# 2 -0.000019 0.010977 -0.004910 0.000000 0.000000 0.000000
# 3 -0.000763 -0.004910 0.007184 0.000000 0.000000 0.000000
# 4 0.000000 0.000000 0.000000 0.034387 0.000000 0.000000
# 5 0.000000 0.000000 0.000000 0.000000 -0.017363 0.000000
# 6 0.000000 0.000000 0.000000 0.000000 0.000000 0.299018
#
#
# Mechanical properties :
#
#
# Convention : Reuss Voigt Hill
#
# Bulk Modulus (GPa) = 50.08861 69.56100 59.82480
# Shear Modulus (GPa) = 13.68250 15.14404 14.41327
#
# Velocity S-wave (km/s) = 2.37104 2.49446 2.43353
# Velocity P-wave (km/s) = 5.29868 6.07267 5.69883
#
# Compressibility (1/GPa) = 0.01996462
#
# Stress axis : x y z
#
# Youngs Moduli (GPa) = 75.82453 91.10186 139.20162
#
# Poissons Ratio (x) = 0.00176 0.10615
# Poissons Ratio (y) = 0.00147 0.68351
# Poissons Ratio (z) = 0.05782 0.44733
#
# Static dielectric constant tensor:
#      x y z
#    x 1.970010 0.000000 0.000000 
#    y 0.000000 2.085760 0.000000 
#    z 0.000000 0.000000 1.911540 
# 
# From -- ./inp_files/48000.got.cif
#   From: 2010.05.17/outbox.cif.g08.bks.cpg/sg68_24_cif.got.tgz:48000.got - 2010.06.03 18:57:09.
