data_PCOD9509557
_publ_section_title
;
Structure prediction by ZEFSAII (Michael W. Deem and Ramdas Pophale) SiO2 
 PCOD9509557
Probable space group: C C C A
;
_chemical_formula_sum "Si O2"
_cell_formula_units_Z 88
_cell_length_a 11.214088
_cell_length_b 15.421110
_cell_length_c 25.785287
_cell_angle_alpha 90.000000
_cell_angle_beta 90.000000
_cell_angle_gamma 90.000000
_cell_volume 4459.144689
_symmetry_space_group_name_H-M "C C C A"
_symmetry_group_IT_number 68
_space_group.IT_coordinate_system_code '2'
_symmetry_cell_setting 'orthorhombic'
loop_
_space_group_symop_operation_xyz
x,y,z
-x,1/2-y,z
x,1/2-y,1/2-z
-x,y,1/2-z
-x,-y,-z
x,1/2+y,-z
-x,1/2+y,1/2+z
x,-y,1/2+z
1/2+x,1/2+y,z
1/2-x,-y,z
1/2+x,-y,1/2-z
1/2-x,1/2+y,1/2-z
1/2-x,1/2-y,-z
1/2+x,y,-z
1/2-x,y,1/2+z
1/2+x,1/2-y,1/2+z
loop_
_atom_site_type_symbol
_atom_site_label
_atom_site_fract_x
_atom_site_fract_y
_atom_site_fract_z
Si Si1 0.254450 0.140854 0.126371
Si Si2 0.163184 0.580060 0.616552
Si Si3 0.000000 0.106735 0.750000
Si Si4 0.918806 0.501440 0.151161
Si Si5 0.640649 0.756857 0.040710
Si Si6 0.724114 0.296692 0.299076
O O1 0.169989 0.078547 0.159966
O O2 0.173433 0.179775 0.080970
O O3 0.302244 0.221094 0.159461
O O4 0.360282 0.074086 0.113294
O O5 0.250000 0.500000 0.604405
O O6 0.155296 0.652957 0.572143
O O7 0.205594 0.630022 0.668988
O O8 0.036609 0.537434 0.627007
O O9 0.895948 0.162545 0.723779
O O10 0.944763 0.048475 0.795116
O O11 0.500000 0.750000 0.023856
O O12 0.750000 0.750000 0.000000
O O13 0.787276 0.250000 0.250000
#
# Coordination Sequence:
#
# PCOD9509557 Si02
#       6
#    16  16   8  16  16  16
#     4  10  24  43  65  93 138 181 215 282 348 397
#     4  11  24  44  68  99 137 181 228 284 347 408
#     4  12  23  36  62  97 142 186 234 277 314 400
#     4  11  23  40  66  94 140 180 228 276 330 395
#     4  11  25  51  75 103 135 174 230 290 362 432
#     4  11  23  37  59  94 138 185 230 271 328 396
#
# _framework density 19.734725000000001
#
# number of rings (size 3 to 8) (size 9 to 14) (size 15 to 20)
#    0.000    1.091    5.455    0.273    2.545    1.455 
#    3.273    2.727    0.000    0.000    0.000    0.000 
#    0.000    0.000    0.000    0.000    0.000    0.000 
#
# Total GULP energy -245501.631718 kJ/mol
# GULP energy per Si atom -5579.582539 kJ/mol
# Density = 1.968981 g / cm^3
# Si number density = 19.734725 Si / 1000 Ang^3
#
#
#
# Elastic Constant Matrix: (Units=GPa)
#
#
# Indices 1 2 3 4 5 6 
#
# 1 154.0328 80.6674 56.8633 0.0000 0.0000 0.0000
# 2 80.6674 135.6519 34.0360 0.0000 0.0000 0.0000
# 3 56.8633 34.0360 59.9868 0.0000 0.0000 0.0000
# 4 0.0000 0.0000 0.0000 5.0304 0.0000 0.0000
# 5 0.0000 0.0000 0.0000 0.0000 28.5077 0.0000
# 6 0.0000 0.0000 0.0000 0.0000 0.0000 33.3290
#
#
#
# Elastic Compliance Matrix: (Units=1/GPa)
#
#
# Indices 1 2 3 4 5 6 
#
# 1 0.012501 -0.005201 -0.008899 0.000000 0.000000 0.000000
# 2 -0.005201 0.010759 -0.001174 0.000000 0.000000 0.000000
# 3 -0.008899 -0.001174 0.025773 0.000000 0.000000 0.000000
# 4 0.000000 0.000000 0.000000 0.198791 0.000000 0.000000
# 5 0.000000 0.000000 0.000000 0.000000 0.035078 0.000000
# 6 0.000000 0.000000 0.000000 0.000000 0.000000 0.030004
#
#
# Mechanical properties :
#
#
# Convention : Reuss Voigt Hill
#
# Bulk Modulus (GPa) = 54.10224 76.97833 65.54029
# Shear Modulus (GPa) = 14.30135 25.24709 19.77422
#
# Velocity S-wave (km/s) = 2.69491 3.58064 3.16887
# Velocity P-wave (km/s) = 6.09571 7.49572 6.83167
#
# Compressibility (1/GPa) = 0.01848352
#
# Stress axis : x y z
#
# Youngs Moduli (GPa) = 79.99198 92.94152 38.80104
#
# Poissons Ratio (x) = 0.48341 0.34530
# Poissons Ratio (y) = 0.41605 0.04557
# Poissons Ratio (z) = 0.71186 0.10916
#
# Static dielectric constant tensor:
#      x y z
#    x 1.768690 0.000000 0.000000 
#    y 0.000000 1.709580 0.000000 
#    z 0.000000 0.000000 1.702440 
# 
# From -- ./inp_files/44246.got.cif
#   From: 2010.05.17/outbox.cif.g08.bks.cpg/sg68_23_cif.got.tgz:44246.got - 2010.06.03 18:57:09.
