data_PCOD9509476
_publ_section_title
;
Structure prediction by ZEFSAII (Michael W. Deem and Ramdas Pophale) SiO2 
 PCOD9509476
Probable space group: C C C A
;
_chemical_formula_sum "Si O2"
_cell_formula_units_Z 56
_cell_length_a 10.386807
_cell_length_b 25.981031
_cell_length_c 8.727107
_cell_angle_alpha 90.000000
_cell_angle_beta 90.000000
_cell_angle_gamma 90.000000
_cell_volume 2355.096699
_symmetry_space_group_name_H-M "C C C A"
_symmetry_group_IT_number 68
_space_group.IT_coordinate_system_code '2'
_symmetry_cell_setting 'orthorhombic'
loop_
_space_group_symop_operation_xyz
x,y,z
-x,1/2-y,z
x,1/2-y,1/2-z
-x,y,1/2-z
-x,-y,-z
x,1/2+y,-z
-x,1/2+y,1/2+z
x,-y,1/2+z
1/2+x,1/2+y,z
1/2-x,-y,z
1/2+x,-y,1/2-z
1/2-x,1/2+y,1/2-z
1/2-x,1/2-y,-z
1/2+x,y,-z
1/2-x,y,1/2+z
1/2+x,1/2-y,1/2+z
loop_
_atom_site_type_symbol
_atom_site_label
_atom_site_fract_x
_atom_site_fract_y
_atom_site_fract_z
Si Si1 0.750000 0.000000 0.838060
Si Si2 0.324204 0.200604 0.579065
Si Si3 0.906967 0.837627 0.579274
Si Si4 0.585885 0.045317 0.572213
O O1 0.642644 0.023700 0.728948
O O2 0.799097 0.044643 0.948323
O O3 0.250000 0.250000 0.500000
O O4 0.216409 0.160082 0.530028
O O5 0.531335 0.306957 0.514980
O O6 0.357474 0.189693 0.760668
O O7 0.956955 0.896235 0.592786
O O8 0.500000 0.000000 0.500000
#
# Coordination Sequence:
#
# PCOD9509476 Si02
#       4
#     8  16  16  16
#     4  10  24  40  68  98 158 198 258 298 384 440
#     4  11  25  48  77 109 147 197 259 334 387 464
#     4  11  26  45  77 109 153 197 258 315 404 460
#     4  11  24  42  68 104 153 201 253 313 373 473
#
# _framework density 23.778214999999999
#
# number of rings (size 3 to 8) (size 9 to 14) (size 15 to 20)
#    0.000    1.143    0.000    4.286   16.000    3.429 
#    5.143    2.857    0.000    0.000    0.000    0.000 
#    0.000    0.000    0.000    0.000    0.000    0.000 
#
# Total GULP energy -155887.657401 kJ/mol
# GULP energy per Si atom -5567.416336 kJ/mol
# Density = 2.372410 g / cm^3
# Si number density = 23.778215 Si / 1000 Ang^3
#
#
#
# Elastic Constant Matrix: (Units=GPa)
#
#
# Indices 1 2 3 4 5 6 
#
# 1 174.7597 58.8409 72.1755 0.0000 0.0000 0.0000
# 2 58.8409 213.5490 42.7710 0.0000 0.0000 0.0000
# 3 72.1755 42.7710 112.4458 0.0000 0.0000 0.0000
# 4 0.0000 0.0000 0.0000 -5.8421 0.0000 0.0000
# 5 0.0000 0.0000 0.0000 0.0000 64.0088 0.0000
# 6 0.0000 0.0000 0.0000 0.0000 0.0000 38.8945
#
#
#
# Elastic Compliance Matrix: (Units=1/GPa)
#
#
# Indices 1 2 3 4 5 6 
#
# 1 0.008101 -0.001289 -0.004710 0.000000 0.000000 0.000000
# 2 -0.001289 0.005274 -0.001179 0.000000 0.000000 0.000000
# 3 -0.004710 -0.001179 0.012365 0.000000 0.000000 0.000000
# 4 0.000000 0.000000 0.000000 -0.171172 0.000000 0.000000
# 5 0.000000 0.000000 0.000000 0.000000 0.015623 0.000000
# 6 0.000000 0.000000 0.000000 0.000000 0.000000 0.025711
#
#
# Mechanical properties :
#
#
# Convention : Reuss Voigt Hill
#
# Bulk Modulus (GPa) = 87.83425 94.25880 91.04653
# Shear Modulus (GPa) = -58.17359 41.21007 -8.48176
#
# Velocity S-wave (km/s) = -4.95158 4.16757 -1.89071
# Velocity P-wave (km/s) = 2.08044 7.93001 5.79712
#
# Compressibility (1/GPa) = 0.01138508
#
# Stress axis : x y z
#
# Youngs Moduli (GPa) = 123.43876 189.60946 80.87669
#
# Poissons Ratio (x) = 0.24439 0.38090
# Poissons Ratio (y) = 0.15910 0.09533
# Poissons Ratio (z) = 0.58135 0.22350
#
# Static dielectric constant tensor:
#      x y z
#    x 1.737000 0.000000 0.000000 
#    y 0.000000 2.016940 0.000000 
#    z 0.000000 0.000000 1.987420 
# 
# From -- ./inp_files/3907.got.cif
#   From: 2010.05.17/outbox.cif.g08.bks.cpg/sg68_2_cif.got.tgz:3907.got - 2010.06.03 18:57:09.
