data_PCOD9509831
_publ_section_title
;
Structure prediction by ZEFSAII (Michael W. Deem and Ramdas Pophale) SiO2 
 PCOD9509831
Probable space group: C C C A
;
_chemical_formula_sum "Si O2"
_cell_formula_units_Z 88
_cell_length_a 11.125185
_cell_length_b 11.451861
_cell_length_c 30.156376
_cell_angle_alpha 90.000000
_cell_angle_beta 90.000000
_cell_angle_gamma 90.000000
_cell_volume 3842.045106
_symmetry_space_group_name_H-M "C C C A"
_symmetry_group_IT_number 68
_space_group.IT_coordinate_system_code '2'
_symmetry_cell_setting 'orthorhombic'
loop_
_space_group_symop_operation_xyz
x,y,z
-x,1/2-y,z
x,1/2-y,1/2-z
-x,y,1/2-z
-x,-y,-z
x,1/2+y,-z
-x,1/2+y,1/2+z
x,-y,1/2+z
1/2+x,1/2+y,z
1/2-x,-y,z
1/2+x,-y,1/2-z
1/2-x,1/2+y,1/2-z
1/2-x,1/2-y,-z
1/2+x,y,-z
1/2-x,y,1/2+z
1/2+x,1/2-y,1/2+z
loop_
_atom_site_type_symbol
_atom_site_label
_atom_site_fract_x
_atom_site_fract_y
_atom_site_fract_z
Si Si1 0.000000 0.750000 0.684245
Si Si2 0.112457 0.681889 0.149666
Si Si3 0.077376 0.635274 0.965055
Si Si4 0.195581 0.123479 0.126222
Si Si5 0.379807 0.943003 0.940924
Si Si6 0.268652 0.626230 0.227323
O O1 0.922881 0.662231 0.653326
O O2 0.902904 0.831702 0.710926
O O3 0.209766 0.777198 0.136368
O O4 0.078526 0.617119 0.104323
O O5 0.178943 0.605791 0.186079
O O6 0.000000 0.750000 0.168936
O O7 0.173766 0.625212 0.926354
O O8 0.000000 0.750000 0.959065
O O9 0.982192 0.533472 0.954839
O O10 0.130955 0.633977 0.014509
O O11 0.250000 0.000000 0.139446
O O12 0.250000 0.000000 0.932304
O O13 0.227885 0.750000 0.250000
O O14 0.250000 0.500000 0.252134
#
# Coordination Sequence:
#
# PCOD9509831 Si02
#       6
#     8  16  16  16  16  16
#     4  10  25  48  74 112 148 192 240 308 365 454
#     4  11  25  44  69 105 139 187 240 305 365 450
#     4  11  23  39  61  96 143 190 242 299 352 420
#     4  11  23  40  70 103 144 191 244 290 359 428
#     4  11  24  39  62  94 139 192 242 297 358 424
#     4  11  27  51  80 111 149 194 243 316 392 461
#
# _framework density 22.904468000000001
#
# number of rings (size 3 to 8) (size 9 to 14) (size 15 to 20)
#    0.000    1.091    0.909    4.091    7.636    9.091 
#    3.273    0.000    0.000    0.000    0.000    0.000 
#    0.000    0.000    0.000    0.000    0.000    0.000 
#
# Total GULP energy -245843.441693 kJ/mol
# GULP energy per Si atom -5587.350948 kJ/mol
# Density = 2.285234 g / cm^3
# Si number density = 22.904468 Si / 1000 Ang^3
#
#
#
# Elastic Constant Matrix: (Units=GPa)
#
#
# Indices 1 2 3 4 5 6 
#
# 1 66.0460 -0.8226 13.8912 0.0000 0.0000 0.0000
# 2 -0.8226 111.0339 31.2729 0.0000 0.0000 0.0000
# 3 13.8912 31.2729 82.8594 0.0000 0.0000 0.0000
# 4 0.0000 0.0000 0.0000 38.5061 0.0000 0.0000
# 5 0.0000 0.0000 0.0000 0.0000 39.8000 0.0000
# 6 0.0000 0.0000 0.0000 0.0000 0.0000 33.1945
#
#
#
# Elastic Compliance Matrix: (Units=1/GPa)
#
#
# Indices 1 2 3 4 5 6 
#
# 1 0.015786 0.000965 -0.003011 0.000000 0.000000 0.000000
# 2 0.000965 0.010136 -0.003987 0.000000 0.000000 0.000000
# 3 -0.003011 -0.003987 0.014078 0.000000 0.000000 0.000000
# 4 0.000000 0.000000 0.000000 0.025970 0.000000 0.000000
# 5 0.000000 0.000000 0.000000 0.000000 0.025126 0.000000
# 6 0.000000 0.000000 0.000000 0.000000 0.000000 0.030125
#
#
# Mechanical properties :
#
#
# Convention : Reuss Voigt Hill
#
# Bulk Modulus (GPa) = 35.79803 38.73581 37.26692
# Shear Modulus (GPa) = 35.06309 36.67331 35.86820
#
# Velocity S-wave (km/s) = 3.91684 4.00577 3.96155
# Velocity P-wave (km/s) = 6.00989 6.19221 6.10173
#
# Compressibility (1/GPa) = 0.02793449
#
# Stress axis : x y z
#
# Youngs Moduli (GPa) = 63.34640 98.65347 71.03114
#
# Poissons Ratio (x) = -0.09519 0.21385
# Poissons Ratio (y) = -0.06112 0.28324
# Poissons Ratio (z) = 0.19072 0.39338
#
# Static dielectric constant tensor:
#      x y z
#    x -2.506030 0.000000 0.000000 
#    y 0.000000 2.160330 0.000000 
#    z 0.000000 0.000000 1.959900 
# 
# From -- ./inp_files/54624.got.cif
#   From: 2010.05.17/outbox.cif.g08.bks.cpg/sg68_28_cif.got.tgz:54624.got - 2010.06.03 18:57:09.
