data_PCOD9509728
_publ_section_title
;
Structure prediction by ZEFSAII (Michael W. Deem and Ramdas Pophale) SiO2 
 PCOD9509728
Probable space group: C C C A
;
_chemical_formula_sum "Si O2"
_cell_formula_units_Z 104
_cell_length_a 18.909504
_cell_length_b 25.229904
_cell_length_c 9.466892
_cell_angle_alpha 90.000000
_cell_angle_beta 90.000000
_cell_angle_gamma 90.000000
_cell_volume 4516.511892
_symmetry_space_group_name_H-M "C C C A"
_symmetry_group_IT_number 68
_space_group.IT_coordinate_system_code '2'
_symmetry_cell_setting 'orthorhombic'
loop_
_space_group_symop_operation_xyz
x,y,z
-x,1/2-y,z
x,1/2-y,1/2-z
-x,y,1/2-z
-x,-y,-z
x,1/2+y,-z
-x,1/2+y,1/2+z
x,-y,1/2+z
1/2+x,1/2+y,z
1/2-x,-y,z
1/2+x,-y,1/2-z
1/2-x,1/2+y,1/2-z
1/2-x,1/2-y,-z
1/2+x,y,-z
1/2-x,y,1/2+z
1/2+x,1/2-y,1/2+z
loop_
_atom_site_type_symbol
_atom_site_label
_atom_site_fract_x
_atom_site_fract_y
_atom_site_fract_z
Si Si1 0.132342 0.342738 0.268624
Si Si2 0.622494 0.966558 0.620725
Si Si3 0.602421 0.667771 0.557170
Si Si4 0.328830 0.225484 0.476879
Si Si5 0.000000 0.392028 0.750000
Si Si6 0.793614 0.126311 0.720737
Si Si7 0.076913 0.952129 0.683491
O O1 0.138924 0.293534 0.374142
O O2 0.212222 0.363276 0.249269
O O3 0.088808 0.390151 0.338394
O O4 0.102507 0.335043 0.111828
O O5 0.561230 0.929993 0.691106
O O6 0.689670 0.928515 0.641058
O O7 0.595004 0.978699 0.464734
O O8 0.629186 0.021087 0.704332
O O9 0.623155 0.728449 0.588007
O O10 0.532098 0.645150 0.628172
O O11 0.664480 0.632687 0.630865
O O12 0.250000 0.250000 0.500000
O O13 0.321422 0.174190 0.378438
O O14 0.000000 0.960479 0.750000
#
# Coordination Sequence:
#
# PCOD9509728 Si02
#       7
#    16  16  16  16   8  16  16
#     4  12  24  42  71 109 142 184 244 301 351 434
#     4  11  25  46  71  99 139 182 242 295 358 427
#     4  11  24  39  74  99 144 189 236 288 357 431
#     4  12  22  43  71 109 145 189 234 286 361 435
#     4  10  24  48  71 104 136 188 245 294 356 434
#     4  11  23  43  67 109 142 180 237 291 353 426
#     4  12  26  45  74  96 136 191 240 294 358 428
#
# _framework density 23.026620000000001
#
# number of rings (size 3 to 8) (size 9 to 14) (size 15 to 20)
#    0.000    0.615    5.385    2.308    4.308    0.615 
#    0.000    7.692    0.000    0.923    0.000    0.000 
#    0.000    0.000    0.000    0.000    0.000    0.000 
#
# Total GULP energy -291031.760739 kJ/mol
# GULP energy per Si atom -5596.764630 kJ/mol
# Density = 2.297421 g / cm^3
# Si number density = 23.026620 Si / 1000 Ang^3
#
#
#
# Elastic Constant Matrix: (Units=GPa)
#
#
# Indices 1 2 3 4 5 6 
#
# 1 36.3281 10.2457 1.3321 0.0000 0.0000 0.0000
# 2 10.2457 69.4852 11.9375 0.0000 0.0000 0.0000
# 3 1.3321 11.9375 133.5726 0.0000 0.0000 0.0000
# 4 0.0000 0.0000 0.0000 25.2010 0.0000 0.0000
# 5 0.0000 0.0000 0.0000 0.0000 25.8059 0.0000
# 6 0.0000 0.0000 0.0000 0.0000 0.0000 -0.4570
#
#
#
# Elastic Compliance Matrix: (Units=1/GPa)
#
#
# Indices 1 2 3 4 5 6 
#
# 1 0.028722 -0.004251 0.000093 0.000000 0.000000 0.000000
# 2 -0.004251 0.015245 -0.001320 0.000000 0.000000 0.000000
# 3 0.000093 -0.001320 0.007604 0.000000 0.000000 0.000000
# 4 0.000000 0.000000 0.000000 0.039681 0.000000 0.000000
# 5 0.000000 0.000000 0.000000 0.000000 0.038751 0.000000
# 6 0.000000 0.000000 0.000000 0.000000 0.000000 -2.188142
#
#
# Mechanical properties :
#
#
# Convention : Reuss Voigt Hill
#
# Bulk Modulus (GPa) = 24.62107 31.82406 28.22256
# Shear Modulus (GPa) = -2.45864 24.50136 11.02136
#
# Velocity S-wave (km/s) = -1.03444 3.26551 2.19015
# Velocity P-wave (km/s) = 3.04777 5.29798 4.32189
#
# Compressibility (1/GPa) = 0.04061563
#
# Stress axis : x y z
#
# Youngs Moduli (GPa) = 34.81593 65.59438 131.51645
#
# Poissons Ratio (x) = 0.27886 -0.01230
# Poissons Ratio (y) = 0.14801 0.17361
# Poissons Ratio (z) = -0.00326 0.08659
#
# Static dielectric constant tensor:
#      x y z
#    x 1.888410 0.000000 0.000000 
#    y 0.000000 1.846500 0.000000 
#    z 0.000000 0.000000 1.877090 
# 
# From -- ./inp_files/7387.got.cif
#   From: 2010.05.17/outbox.cif.g08.bks.cpg/sg68_4_cif.got.tgz:7387.got - 2010.06.03 18:57:09.
