data_PCOD9509999
_publ_section_title
;
Structure prediction by ZEFSAII (Michael W. Deem and Ramdas Pophale) SiO2 
 PCOD9509999
Probable space group: C C C A
;
_chemical_formula_sum "Si O2"
_cell_formula_units_Z 64
_cell_length_a 8.378780
_cell_length_b 19.737736
_cell_length_c 16.228532
_cell_angle_alpha 90.000000
_cell_angle_beta 90.000000
_cell_angle_gamma 90.000000
_cell_volume 2683.844561
_symmetry_space_group_name_H-M "C C C A"
_symmetry_group_IT_number 68
_space_group.IT_coordinate_system_code '2'
_symmetry_cell_setting 'orthorhombic'
loop_
_space_group_symop_operation_xyz
x,y,z
-x,1/2-y,z
x,1/2-y,1/2-z
-x,y,1/2-z
-x,-y,-z
x,1/2+y,-z
-x,1/2+y,1/2+z
x,-y,1/2+z
1/2+x,1/2+y,z
1/2-x,-y,z
1/2+x,-y,1/2-z
1/2-x,1/2+y,1/2-z
1/2-x,1/2-y,-z
1/2+x,y,-z
1/2-x,y,1/2+z
1/2+x,1/2-y,1/2+z
loop_
_atom_site_type_symbol
_atom_site_label
_atom_site_fract_x
_atom_site_fract_y
_atom_site_fract_z
Si Si1 0.389847 0.640620 0.178958
Si Si2 0.643122 0.899855 0.806081
Si Si3 0.443128 0.989449 0.407722
Si Si4 0.178580 0.240544 0.650290
O O1 0.500000 0.672565 0.250000
O O2 0.277211 0.591679 0.236326
O O3 0.473307 0.587344 0.120131
O O4 0.297992 0.698672 0.127838
O O5 0.500000 0.869772 0.750000
O O6 0.556298 0.961480 0.851958
O O7 0.707399 0.839145 0.863746
O O8 0.500000 0.000000 0.500000
O O9 0.250000 0.000000 0.404367
O O10 0.182409 0.250000 0.750000
O O11 0.000000 0.250000 0.618029
#
# Coordination Sequence:
#
# PCOD9509999 Si02
#       4
#    16  16  16  16
#     4  11  24  39  71 106 138 178 245 301 359 431
#     4  11  20  41  71  97 132 186 236 294 360 426
#     4  12  27  44  65 100 149 196 238 296 363 434
#     4   9  15  34  63  98 126 167 225 292 350 408
#
# _framework density 23.846388000000001
#
# number of rings (size 3 to 8) (size 9 to 14) (size 15 to 20)
#    0.000    1.250    7.500    0.750    3.500    4.500 
#    0.000    1.250    0.000    0.000    0.000    1.750 
#    0.000    0.000    0.000    0.000    0.000    0.000 
#
# Total GULP energy -178341.541172 kJ/mol
# GULP energy per Si atom -5573.173162 kJ/mol
# Density = 2.379211 g / cm^3
# Si number density = 23.846388 Si / 1000 Ang^3
#
#
#
# Elastic Constant Matrix: (Units=GPa)
#
#
# Indices 1 2 3 4 5 6 
#
# 1 115.5688 67.4556 32.4827 0.0000 0.0000 0.0000
# 2 67.4556 203.3117 46.1758 0.0000 0.0000 0.0000
# 3 32.4827 46.1758 51.3209 0.0000 0.0000 0.0000
# 4 0.0000 0.0000 0.0000 4.6486 0.0000 0.0000
# 5 0.0000 0.0000 0.0000 0.0000 18.2948 0.0000
# 6 0.0000 0.0000 0.0000 0.0000 0.0000 50.7840
#
#
#
# Elastic Compliance Matrix: (Units=1/GPa)
#
#
# Indices 1 2 3 4 5 6 
#
# 1 0.011631 -0.002749 -0.004889 0.000000 0.000000 0.000000
# 2 -0.002749 0.006831 -0.004407 0.000000 0.000000 0.000000
# 3 -0.004889 -0.004407 0.026544 0.000000 0.000000 0.000000
# 4 0.000000 0.000000 0.000000 0.215117 0.000000 0.000000
# 5 0.000000 0.000000 0.000000 0.000000 0.054660 0.000000
# 6 0.000000 0.000000 0.000000 0.000000 0.000000 0.019691
#
#
# Mechanical properties :
#
#
# Convention : Reuss Voigt Hill
#
# Bulk Modulus (GPa) = 47.80395 73.60328 60.70361
# Shear Modulus (GPa) = 13.67851 29.68466 21.68158
#
# Velocity S-wave (km/s) = 2.39761 3.53204 3.01860
# Velocity P-wave (km/s) = 5.26829 6.89684 6.13682
#
# Compressibility (1/GPa) = 0.02091877
#
# Stress axis : x y z
#
# Youngs Moduli (GPa) = 85.97480 146.38268 37.67279
#
# Poissons Ratio (x) = 0.40238 0.18417
# Poissons Ratio (y) = 0.23633 0.16601
# Poissons Ratio (z) = 0.42030 0.64507
#
# Static dielectric constant tensor:
#      x y z
#    x 2.116940 0.000000 0.000000 
#    y 0.000000 2.068670 0.000000 
#    z 0.000000 0.000000 1.864050 
# 
# From -- ./inp_files/27868.got.cif
#   From: 2010.05.17/outbox.cif.g08.bks.cpg/sg68_14_cif.got.tgz:27868.got - 2010.06.03 18:57:09.
