data_PCOD9509600
_publ_section_title
;
Structure prediction by ZEFSAII (Michael W. Deem and Ramdas Pophale) SiO2 
 PCOD9509600
Probable space group: C C C A
;
_chemical_formula_sum "Si O2"
_cell_formula_units_Z 88
_cell_length_a 22.371008
_cell_length_b 14.809067
_cell_length_c 11.118621
_cell_angle_alpha 90.000000
_cell_angle_beta 90.000000
_cell_angle_gamma 90.000000
_cell_volume 3683.529716
_symmetry_space_group_name_H-M "C C C A"
_symmetry_group_IT_number 68
_space_group.IT_coordinate_system_code '2'
_symmetry_cell_setting 'orthorhombic'
loop_
_space_group_symop_operation_xyz
x,y,z
-x,1/2-y,z
x,1/2-y,1/2-z
-x,y,1/2-z
-x,-y,-z
x,1/2+y,-z
-x,1/2+y,1/2+z
x,-y,1/2+z
1/2+x,1/2+y,z
1/2-x,-y,z
1/2+x,-y,1/2-z
1/2-x,1/2+y,1/2-z
1/2-x,1/2-y,-z
1/2+x,y,-z
1/2-x,y,1/2+z
1/2+x,1/2-y,1/2+z
loop_
_atom_site_type_symbol
_atom_site_label
_atom_site_fract_x
_atom_site_fract_y
_atom_site_fract_z
Si Si1 0.105318 0.147341 0.548301
Si Si2 0.358260 0.698955 0.378600
Si Si3 0.231719 0.665094 0.330319
Si Si4 0.128549 0.957451 0.462676
Si Si5 0.750000 0.500000 0.333616
Si Si6 0.490760 0.057835 0.377249
O O1 0.108089 0.238708 0.474043
O O2 0.168763 0.135146 0.616294
O O3 0.043227 0.132571 0.617502
O O4 0.109720 0.061655 0.460236
O O5 0.364878 0.750000 0.250000
O O6 0.287449 0.698828 0.409666
O O7 0.376035 0.595259 0.409553
O O8 0.215664 0.750000 0.250000
O O9 0.262054 0.584990 0.252743
O O10 0.077974 0.910203 0.381884
O O11 0.195523 0.963020 0.413488
O O12 0.500000 0.007866 0.250000
O O13 0.500000 0.000000 0.500000
#
# Coordination Sequence:
#
# PCOD9509600 Si02
#       6
#    16  16  16  16   8  16
#     4  11  23  42  66  95 135 183 230 290 354 421
#     4  11  24  42  66 100 141 186 234 296 362 427
#     4  11  22  38  64 101 137 176 230 295 358 427
#     4  11  23  42  66  99 134 178 237 290 350 429
#     4  12  22  38  70 100 134 182 228 298 368 426
#     4  10  24  44  70 101 140 187 238 294 355 427
#
# _framework density 23.890129000000002
#
# number of rings (size 3 to 8) (size 9 to 14) (size 15 to 20)
#    0.000    1.091    0.000    7.091    0.000    8.000 
#    0.000    1.818    0.000    0.000    0.000    0.000 
#    0.000    0.000    0.000    0.000    0.000    0.000 
#
# Total GULP energy -245233.981865 kJ/mol
# GULP energy per Si atom -5573.499588 kJ/mol
# Density = 2.383575 g / cm^3
# Si number density = 23.890129 Si / 1000 Ang^3
#
#
#
# Elastic Constant Matrix: (Units=GPa)
#
#
# Indices 1 2 3 4 5 6 
#
# 1 146.5003 6.2000 40.7393 0.0000 0.0000 0.0000
# 2 6.2000 95.6849 34.6910 0.0000 0.0000 0.0000
# 3 40.7393 34.6910 94.8715 0.0000 0.0000 0.0000
# 4 0.0000 0.0000 0.0000 38.4891 0.0000 0.0000
# 5 0.0000 0.0000 0.0000 0.0000 33.9407 0.0000
# 6 0.0000 0.0000 0.0000 0.0000 0.0000 25.8870
#
#
#
# Elastic Compliance Matrix: (Units=1/GPa)
#
#
# Indices 1 2 3 4 5 6 
#
# 1 0.007807 0.000818 -0.003651 0.000000 0.000000 0.000000
# 2 0.000818 0.012134 -0.004788 0.000000 0.000000 0.000000
# 3 -0.003651 -0.004788 0.013859 0.000000 0.000000 0.000000
# 4 0.000000 0.000000 0.000000 0.025981 0.000000 0.000000
# 5 0.000000 0.000000 0.000000 0.000000 0.029463 0.000000
# 6 0.000000 0.000000 0.000000 0.000000 0.000000 0.038629
#
#
# Mechanical properties :
#
#
# Convention : Reuss Voigt Hill
#
# Bulk Modulus (GPa) = 53.88857 55.59082 54.73970
# Shear Modulus (GPa) = 33.48897 36.69179 35.09038
#
# Velocity S-wave (km/s) = 3.74811 3.92325 3.83668
# Velocity P-wave (km/s) = 6.42938 6.62136 6.52608
#
# Compressibility (1/GPa) = 0.01855681
#
# Stress axis : x y z
#
# Youngs Moduli (GPa) = 128.09491 82.41339 72.15305
#
# Poissons Ratio (x) = -0.06741 0.26346
# Poissons Ratio (y) = -0.10478 0.34548
# Poissons Ratio (z) = 0.46773 0.39461
#
# Static dielectric constant tensor:
#      x y z
#    x 2.054190 0.000000 0.000000 
#    y 0.000000 1.931550 0.000000 
#    z 0.000000 0.000000 2.010600 
# 
# From -- ./inp_files/16333.got.cif
#   From: 2010.05.17/outbox.cif.g08.bks.cpg/sg68_9_cif.got.tgz:16333.got - 2010.06.03 18:57:09.
