data_PCOD9509942
_publ_section_title
;
Structure prediction by ZEFSAII (Michael W. Deem and Ramdas Pophale) SiO2 
 PCOD9509942
Probable space group: C C C A
;
_chemical_formula_sum "Si O2"
_cell_formula_units_Z 96
_cell_length_a 13.491398
_cell_length_b 15.032836
_cell_length_c 21.559028
_cell_angle_alpha 90.000000
_cell_angle_beta 90.000000
_cell_angle_gamma 90.000000
_cell_volume 4372.472134
_symmetry_space_group_name_H-M "C C C A"
_symmetry_group_IT_number 68
_space_group.IT_coordinate_system_code '2'
_symmetry_cell_setting 'orthorhombic'
loop_
_space_group_symop_operation_xyz
x,y,z
-x,1/2-y,z
x,1/2-y,1/2-z
-x,y,1/2-z
-x,-y,-z
x,1/2+y,-z
-x,1/2+y,1/2+z
x,-y,1/2+z
1/2+x,1/2+y,z
1/2-x,-y,z
1/2+x,-y,1/2-z
1/2-x,1/2+y,1/2-z
1/2-x,1/2-y,-z
1/2+x,y,-z
1/2-x,y,1/2+z
1/2+x,1/2-y,1/2+z
loop_
_atom_site_type_symbol
_atom_site_label
_atom_site_fract_x
_atom_site_fract_y
_atom_site_fract_z
Si Si1 0.653541 0.381784 0.601767
Si Si2 0.757663 0.599625 0.972112
Si Si3 0.184739 0.301604 0.811969
Si Si4 0.547936 0.529201 0.686947
Si Si5 0.422395 0.159713 0.391862
Si Si6 0.980410 0.891631 0.511892
O O1 0.727890 0.403197 0.544627
O O2 0.718409 0.320426 0.646633
O O3 0.608903 0.461397 0.643682
O O4 0.557364 0.354308 0.561908
O O5 0.750000 0.500000 0.947878
O O6 0.677793 0.651586 0.932513
O O7 0.870245 0.626806 0.966251
O O8 0.212807 0.250000 0.750000
O O9 0.126694 0.392870 0.797547
O O10 0.104223 0.241148 0.847689
O O11 0.500000 0.491123 0.750000
O O12 0.457328 0.575916 0.649689
O O13 0.504376 0.155037 0.445958
O O14 0.000000 0.000000 0.500000
#
# Coordination Sequence:
#
# PCOD9509942 Si02
#       6
#    16  16  16  16  16  16
#     4  11  24  44  71 101 134 180 234 286 357 414
#     4  11  19  39  68 102 137 173 225 294 342 417
#     4  12  26  45  64  99 145 179 228 296 347 416
#     4  12  23  43  71 102 128 184 243 287 339 420
#     4  11  23  40  67 100 136 175 221 289 351 399
#     4  11  20  39  70 101 135 173 228 291 340 418
#
# _framework density 21.955542999999999
#
# number of rings (size 3 to 8) (size 9 to 14) (size 15 to 20)
#    0.000    0.667    6.667    3.000    0.000    2.667 
#    6.000    2.500    0.000    0.000    0.000    0.000 
#    0.000    0.000    0.000    0.000    0.000    0.000 
#
# Total GULP energy -268142.667131 kJ/mol
# GULP energy per Si atom -5586.305565 kJ/mol
# Density = 2.190557 g / cm^3
# Si number density = 21.955543 Si / 1000 Ang^3
#
#
#
# Elastic Constant Matrix: (Units=GPa)
#
#
# Indices 1 2 3 4 5 6 
#
# 1 148.6952 9.1470 46.5286 0.0000 0.0000 0.0000
# 2 9.1470 58.8903 33.3923 0.0000 0.0000 0.0000
# 3 46.5286 33.3923 109.9463 0.0000 0.0000 0.0000
# 4 0.0000 0.0000 0.0000 25.5835 0.0000 0.0000
# 5 0.0000 0.0000 0.0000 0.0000 26.5621 0.0000
# 6 0.0000 0.0000 0.0000 0.0000 0.0000 32.4287
#
#
#
# Elastic Compliance Matrix: (Units=1/GPa)
#
#
# Indices 1 2 3 4 5 6 
#
# 1 0.007782 0.000796 -0.003535 0.000000 0.000000 0.000000
# 2 0.000796 0.020595 -0.006592 0.000000 0.000000 0.000000
# 3 -0.003535 -0.006592 0.012593 0.000000 0.000000 0.000000
# 4 0.000000 0.000000 0.000000 0.039088 0.000000 0.000000
# 5 0.000000 0.000000 0.000000 0.000000 0.037648 0.000000
# 6 0.000000 0.000000 0.000000 0.000000 0.000000 0.030837
#
#
# Mechanical properties :
#
#
# Convention : Reuss Voigt Hill
#
# Bulk Modulus (GPa) = 44.82618 55.07418 49.95018
# Shear Modulus (GPa) = 28.63016 32.14580 30.38798
#
# Velocity S-wave (km/s) = 3.61502 3.83055 3.72434
# Velocity P-wave (km/s) = 6.15513 6.68603 6.42606
#
# Compressibility (1/GPa) = 0.02230839
#
# Stress axis : x y z
#
# Youngs Moduli (GPa) = 128.49496 48.55597 79.40676
#
# Poissons Ratio (x) = -0.03864 0.28071
# Poissons Ratio (y) = -0.10225 0.52342
# Poissons Ratio (z) = 0.45425 0.32007
#
# Static dielectric constant tensor:
#      x y z
#    x 1.812770 0.000000 0.000000 
#    y 0.000000 1.881340 0.000000 
#    z 0.000000 0.000000 1.787820 
# 
# From -- ./inp_files/38561.got.cif
#   From: 2010.05.17/outbox.cif.g08.bks.cpg/sg68_20_cif.got.tgz:38561.got - 2010.06.03 18:57:09.
