data_PCOD9509559
_publ_section_title
;
Structure prediction by ZEFSAII (Michael W. Deem and Ramdas Pophale) SiO2 
 PCOD9509559
Probable space group: C C C A
;
_chemical_formula_sum "Si O2"
_cell_formula_units_Z 104
_cell_length_a 27.553978
_cell_length_b 7.803026
_cell_length_c 21.825158
_cell_angle_alpha 90.000000
_cell_angle_beta 90.000000
_cell_angle_gamma 90.000000
_cell_volume 4692.505148
_symmetry_space_group_name_H-M "C C C A"
_symmetry_group_IT_number 68
_space_group.IT_coordinate_system_code '2'
_symmetry_cell_setting 'orthorhombic'
loop_
_space_group_symop_operation_xyz
x,y,z
-x,1/2-y,z
x,1/2-y,1/2-z
-x,y,1/2-z
-x,-y,-z
x,1/2+y,-z
-x,1/2+y,1/2+z
x,-y,1/2+z
1/2+x,1/2+y,z
1/2-x,-y,z
1/2+x,-y,1/2-z
1/2-x,1/2+y,1/2-z
1/2-x,1/2-y,-z
1/2+x,y,-z
1/2-x,y,1/2+z
1/2+x,1/2-y,1/2+z
loop_
_atom_site_type_symbol
_atom_site_label
_atom_site_fract_x
_atom_site_fract_y
_atom_site_fract_z
Si Si1 0.710925 0.750000 0.250000
Si Si2 0.333520 0.320120 0.417052
Si Si3 0.765096 0.185593 0.118604
Si Si4 0.855858 0.572306 0.948266
Si Si5 0.446722 0.328024 0.614408
Si Si6 0.548661 0.942010 0.723504
Si Si7 0.375370 0.563262 0.315208
O O1 0.739756 0.821765 0.192275
O O2 0.675583 0.874301 0.287925
O O3 0.275889 0.315582 0.403383
O O4 0.340990 0.413297 0.481498
O O5 0.363277 0.414243 0.363586
O O6 0.350196 0.121790 0.423908
O O7 0.819919 0.195547 0.092330
O O8 0.750000 0.000000 0.093106
O O9 0.911443 0.632464 0.942066
O O10 0.500000 0.250000 0.602887
O O11 0.451763 0.505188 0.652903
O O12 0.413197 0.197561 0.654331
O O13 0.547109 0.750000 0.750000
O O14 0.500000 0.029066 0.750000
O O15 0.596941 0.009748 0.753928
#
# Coordination Sequence:
#
# PCOD9509559 Si02
#       7
#     8  16  16  16  16  16  16
#     4  12  24  40  67 102 146 178 235 286 360 420
#     4  11  26  45  74 101 142 189 241 293 357 422
#     4  10  24  43  67 103 140 189 232 296 357 425
#     4  11  23  49  69 103 141 187 245 293 347 427
#     4  12  23  43  71 101 141 188 235 293 362 421
#     4  11  22  38  65  99 138 180 233 293 356 430
#     4  12  23  41  67 102 138 187 231 295 356 423
#
# _framework density 22.163003
#
# number of rings (size 3 to 8) (size 9 to 14) (size 15 to 20)
#    0.000    0.769    4.615    2.308    2.154    1.231 
#    0.000    3.077    0.000    0.000    0.000    0.000 
#    0.000    0.000    0.000    0.000    0.000    0.000 
#
# Total GULP energy -290169.621012 kJ/mol
# GULP energy per Si atom -5580.185019 kJ/mol
# Density = 2.211256 g / cm^3
# Si number density = 22.163003 Si / 1000 Ang^3
#
#
#
# Elastic Constant Matrix: (Units=GPa)
#
#
# Indices 1 2 3 4 5 6 
#
# 1 115.7323 43.0921 44.9142 0.0000 0.0000 0.0000
# 2 43.0921 74.7542 24.8501 0.0000 0.0000 0.0000
# 3 44.9142 24.8501 116.4742 0.0000 0.0000 0.0000
# 4 0.0000 0.0000 0.0000 27.5464 0.0000 0.0000
# 5 0.0000 0.0000 0.0000 0.0000 17.1105 0.0000
# 6 0.0000 0.0000 0.0000 0.0000 0.0000 24.9706
#
#
#
# Elastic Compliance Matrix: (Units=1/GPa)
#
#
# Indices 1 2 3 4 5 6 
#
# 1 0.012159 -0.005866 -0.003437 0.000000 0.000000 0.000000
# 2 -0.005866 0.017229 -0.001414 0.000000 0.000000 0.000000
# 3 -0.003437 -0.001414 0.010213 0.000000 0.000000 0.000000
# 4 0.000000 0.000000 0.000000 0.036302 0.000000 0.000000
# 5 0.000000 0.000000 0.000000 0.000000 0.058444 0.000000
# 6 0.000000 0.000000 0.000000 0.000000 0.000000 0.040047
#
#
# Mechanical properties :
#
#
# Convention : Reuss Voigt Hill
#
# Bulk Modulus (GPa) = 55.04768 59.18593 57.11681
# Shear Modulus (GPa) = 24.76685 26.86578 25.81631
#
# Velocity S-wave (km/s) = 3.34651 3.48543 3.41668
# Velocity P-wave (km/s) = 6.31060 6.55442 6.43367
#
# Compressibility (1/GPa) = 0.01816607
#
# Stress axis : x y z
#
# Youngs Moduli (GPa) = 82.24491 58.04235 97.91863
#
# Poissons Ratio (x) = 0.34050 0.33655
# Poissons Ratio (y) = 0.48248 0.13842
# Poissons Ratio (z) = 0.28268 0.08205
#
# Static dielectric constant tensor:
#      x y z
#    x 1.928770 0.000000 0.000000 
#    y 0.000000 1.817990 0.000000 
#    z 0.000000 0.000000 1.794140 
# 
# From -- ./inp_files/41349.got.cif
#   From: 2010.05.17/outbox.cif.g08.bks.cpg/sg68_21_cif.got.tgz:41349.got - 2010.06.03 18:57:09.
