data_PCOD9509582
_publ_section_title
;
Structure prediction by ZEFSAII (Michael W. Deem and Ramdas Pophale) SiO2 
 PCOD9509582
Probable space group: C C C A
;
_chemical_formula_sum "Si O2"
_cell_formula_units_Z 88
_cell_length_a 8.948977
_cell_length_b 24.858748
_cell_length_c 17.692199
_cell_angle_alpha 90.000000
_cell_angle_beta 90.000000
_cell_angle_gamma 90.000000
_cell_volume 3935.813031
_symmetry_space_group_name_H-M "C C C A"
_symmetry_group_IT_number 68
_space_group.IT_coordinate_system_code '2'
_symmetry_cell_setting 'orthorhombic'
loop_
_space_group_symop_operation_xyz
x,y,z
-x,1/2-y,z
x,1/2-y,1/2-z
-x,y,1/2-z
-x,-y,-z
x,1/2+y,-z
-x,1/2+y,1/2+z
x,-y,1/2+z
1/2+x,1/2+y,z
1/2-x,-y,z
1/2+x,-y,1/2-z
1/2-x,1/2+y,1/2-z
1/2-x,1/2-y,-z
1/2+x,y,-z
1/2-x,y,1/2+z
1/2+x,1/2-y,1/2+z
loop_
_atom_site_type_symbol
_atom_site_label
_atom_site_fract_x
_atom_site_fract_y
_atom_site_fract_z
Si Si1 0.000000 0.573027 0.750000
Si Si2 0.997372 0.924709 0.340150
Si Si3 0.193017 0.337447 0.011692
Si Si4 0.750000 0.500000 0.588626
Si Si5 0.065671 0.901193 0.581400
Si Si6 0.540092 0.803870 0.603026
Si Si7 0.250000 0.500000 0.174121
O O1 0.950975 0.602137 0.672505
O O2 0.862486 0.536083 0.776719
O O3 0.000000 0.926509 0.250000
O O4 0.005161 0.862669 0.363288
O O5 0.141776 0.958374 0.368498
O O6 0.851697 0.956213 0.367772
O O7 0.288881 0.307975 0.075878
O O8 0.093707 0.385802 0.045876
O O9 0.314273 0.360128 0.952870
O O10 0.074713 0.301171 0.967708
O O11 0.875782 0.540091 0.555837
O O12 0.500000 0.750000 0.648718
#
# Coordination Sequence:
#
# PCOD9509582 Si02
#       7
#     8  16  16   8  16  16   8
#     4  12  22  38  66  96 134 182 222 268 332 430
#     4  12  23  40  67  98 137 175 219 280 343 413
#     4  10  24  44  65  93 132 178 225 287 347 407
#     4  12  23  40  63 100 141 182 217 282 343 430
#     4  11  22  42  63  99 135 179 222 277 349 412
#     4  11  24  44  67  93 126 179 233 280 333 409
#     4  12  23  36  65 100 135 178 225 268 361 414
#
# _framework density 22.358785000000001
#
# number of rings (size 3 to 8) (size 9 to 14) (size 15 to 20)
#    0.000    0.727    4.545    3.818    0.000    1.091 
#    0.000    0.000    0.000    0.000    0.000    3.818 
#    0.000    0.000    0.000    0.000    0.000    0.000 
#
# Total GULP energy -245769.493264 kJ/mol
# GULP energy per Si atom -5585.670301 kJ/mol
# Density = 2.230790 g / cm^3
# Si number density = 22.358785 Si / 1000 Ang^3
#
#
#
# Elastic Constant Matrix: (Units=GPa)
#
#
# Indices 1 2 3 4 5 6 
#
# 1 157.1956 56.8733 31.6154 0.0000 0.0000 0.0000
# 2 56.8733 151.4416 27.5867 0.0000 0.0000 0.0000
# 3 31.6154 27.5867 78.6434 0.0000 0.0000 0.0000
# 4 0.0000 0.0000 0.0000 -36.5363 0.0000 0.0000
# 5 0.0000 0.0000 0.0000 0.0000 32.1069 0.0000
# 6 0.0000 0.0000 0.0000 0.0000 0.0000 32.8977
#
#
#
# Elastic Compliance Matrix: (Units=1/GPa)
#
#
# Indices 1 2 3 4 5 6 
#
# 1 0.007710 -0.002490 -0.002226 0.000000 0.000000 0.000000
# 2 -0.002490 0.007858 -0.001755 0.000000 0.000000 0.000000
# 3 -0.002226 -0.001755 0.014226 0.000000 0.000000 0.000000
# 4 0.000000 0.000000 0.000000 -0.027370 0.000000 0.000000
# 5 0.000000 0.000000 0.000000 0.000000 0.031146 0.000000
# 6 0.000000 0.000000 0.000000 0.000000 0.000000 0.030397
#
#
# Mechanical properties :
#
#
# Convention : Reuss Voigt Hill
#
# Bulk Modulus (GPa) = 59.34227 68.82572 64.08399
# Shear Modulus (GPa) = 60.58557 23.77401 42.17979
#
# Velocity S-wave (km/s) = 5.21112 3.26436 4.34809
# Velocity P-wave (km/s) = 7.92504 6.71247 7.34383
#
# Compressibility (1/GPa) = 0.01685140
#
# Stress axis : x y z
#
# Youngs Moduli (GPa) = 129.70016 127.25730 70.29224
#
# Poissons Ratio (x) = 0.31687 0.15648
# Poissons Ratio (y) = 0.32295 0.12340
# Poissons Ratio (z) = 0.28872 0.22340
#
# Static dielectric constant tensor:
#      x y z
#    x 1.859750 0.000000 0.000000 
#    y 0.000000 1.881550 0.000000 
#    z 0.000000 0.000000 1.886390 
# 
# From -- ./inp_files/36337.got.cif
#   From: 2010.05.17/outbox.cif.g08.bks.cpg/sg68_19_cif.got.tgz:36337.got - 2010.06.03 18:57:09.
