data_PCOD9509010
_publ_section_title
;
Structure prediction by ZEFSAII (Michael W. Deem and Ramdas Pophale) SiO2 
 PCOD9509010
Probable space group: C C C A
;
_chemical_formula_sum "Si O2"
_cell_formula_units_Z 96
_cell_length_a 16.063913
_cell_length_b 18.497389
_cell_length_c 14.817240
_cell_angle_alpha 90.000000
_cell_angle_beta 90.000000
_cell_angle_gamma 90.000000
_cell_volume 4402.801326
_symmetry_space_group_name_H-M "C C C A"
_symmetry_group_IT_number 68
_space_group.IT_coordinate_system_code '2'
_symmetry_cell_setting 'orthorhombic'
loop_
_space_group_symop_operation_xyz
x,y,z
-x,1/2-y,z
x,1/2-y,1/2-z
-x,y,1/2-z
-x,-y,-z
x,1/2+y,-z
-x,1/2+y,1/2+z
x,-y,1/2+z
1/2+x,1/2+y,z
1/2-x,-y,z
1/2+x,-y,1/2-z
1/2-x,1/2+y,1/2-z
1/2-x,1/2-y,-z
1/2+x,y,-z
1/2-x,y,1/2+z
1/2+x,1/2-y,1/2+z
loop_
_atom_site_type_symbol
_atom_site_label
_atom_site_fract_x
_atom_site_fract_y
_atom_site_fract_z
Si Si1 0.564230 0.106898 0.327656
Si Si2 0.498572 0.965933 0.400041
Si Si3 0.029500 0.829975 0.499714
Si Si4 0.246151 0.167324 0.715149
Si Si5 0.282315 0.168801 0.510125
Si Si6 0.809521 0.568285 0.872344
O O1 0.500000 0.128249 0.250000
O O2 0.531865 0.143144 0.420357
O O3 0.654321 0.134078 0.299476
O O4 0.554694 0.020233 0.341982
O O5 0.525252 0.883761 0.415420
O O6 0.402681 0.961714 0.372506
O O7 0.500000 0.000000 0.500000
O O8 0.125380 0.834717 0.467425
O O9 0.000000 0.750000 0.523887
O O10 0.240751 0.250000 0.750000
O O11 0.287643 0.158429 0.617283
O O12 0.294447 0.122420 0.790319
O O13 0.250000 0.250000 0.500000
O O14 0.219753 0.112729 0.461805
O O15 0.750000 0.500000 0.864184
#
# Coordination Sequence:
#
# PCOD9509010 Si02
#       6
#    16  16  16  16  16  16
#     4  11  24  42  69 103 139 181 240 302 364 431
#     4  10  22  45  67  97 140 184 236 290 363 444
#     4  11  24  40  69 102 134 188 239 295 361 437
#     4  12  27  45  74 110 150 195 253 316 382 449
#     4  12  24  45  70 101 148 195 248 300 377 453
#     4  12  25  45  75 110 150 191 245 312 377 454
#
# _framework density 21.804300000000001
#
# number of rings (size 3 to 8) (size 9 to 14) (size 15 to 20)
#    0.000    0.667    1.667    8.000    2.333    3.333 
#    0.000    0.000    0.000    0.000    0.000    0.000 
#    0.000    0.000    0.000    0.000    0.000    0.000 
#
# Total GULP energy -268582.744207 kJ/mol
# GULP energy per Si atom -5595.473838 kJ/mol
# Density = 2.175467 g / cm^3
# Si number density = 21.804300 Si / 1000 Ang^3
#
#
#
# Elastic Constant Matrix: (Units=GPa)
#
#
# Indices 1 2 3 4 5 6 
#
# 1 88.2956 24.3838 21.7674 0.0000 0.0000 0.0000
# 2 24.3838 156.0440 42.0434 0.0000 0.0000 0.0000
# 3 21.7674 42.0434 112.6105 0.0000 0.0000 0.0000
# 4 0.0000 0.0000 0.0000 26.3612 0.0000 0.0000
# 5 0.0000 0.0000 0.0000 0.0000 21.3394 0.0000
# 6 0.0000 0.0000 0.0000 0.0000 0.0000 32.3130
#
#
#
# Elastic Compliance Matrix: (Units=1/GPa)
#
#
# Indices 1 2 3 4 5 6 
#
# 1 0.012165 -0.001409 -0.001825 0.000000 0.000000 0.000000
# 2 -0.001409 0.007288 -0.002449 0.000000 0.000000 0.000000
# 3 -0.001825 -0.002449 0.010147 0.000000 0.000000 0.000000
# 4 0.000000 0.000000 0.000000 0.037935 0.000000 0.000000
# 5 0.000000 0.000000 0.000000 0.000000 0.046862 0.000000
# 6 0.000000 0.000000 0.000000 0.000000 0.000000 0.030947
#
#
# Mechanical properties :
#
#
# Convention : Reuss Voigt Hill
#
# Bulk Modulus (GPa) = 54.84257 59.25993 57.05125
# Shear Modulus (GPa) = 30.71473 33.91975 32.31724
#
# Velocity S-wave (km/s) = 3.75728 3.94845 3.85405
# Velocity P-wave (km/s) = 6.63548 6.92994 6.78431
#
# Compressibility (1/GPa) = 0.01823401
#
# Stress axis : x y z
#
# Youngs Moduli (GPa) = 82.20490 137.20408 98.54880
#
# Poissons Ratio (x) = 0.19333 0.17988
# Poissons Ratio (y) = 0.11583 0.24132
# Poissons Ratio (z) = 0.15005 0.33598
#
# Static dielectric constant tensor:
#      x y z
#    x 1.770690 0.000000 0.000000 
#    y 0.000000 1.895160 0.000000 
#    z 0.000000 0.000000 1.856450 
# 
# From -- ./inp_files/22334.got.cif
#   From: 2010.05.17/outbox.cif.g08.bks.cpg/sg68_12_cif.got.tgz:22334.got - 2010.06.03 18:57:09.
