data_PCOD9509554
_publ_section_title
;
Structure prediction by ZEFSAII (Michael W. Deem and Ramdas Pophale) SiO2 
 PCOD9509554
Probable space group: C C C A
;
_chemical_formula_sum "Si O2"
_cell_formula_units_Z 112
_cell_length_a 14.263497
_cell_length_b 29.790277
_cell_length_c 12.075887
_cell_angle_alpha 90.000000
_cell_angle_beta 90.000000
_cell_angle_gamma 90.000000
_cell_volume 5131.207732
_symmetry_space_group_name_H-M "C C C A"
_symmetry_group_IT_number 68
_space_group.IT_coordinate_system_code '2'
_symmetry_cell_setting 'orthorhombic'
loop_
_space_group_symop_operation_xyz
x,y,z
-x,1/2-y,z
x,1/2-y,1/2-z
-x,y,1/2-z
-x,-y,-z
x,1/2+y,-z
-x,1/2+y,1/2+z
x,-y,1/2+z
1/2+x,1/2+y,z
1/2-x,-y,z
1/2+x,-y,1/2-z
1/2-x,1/2+y,1/2-z
1/2-x,1/2-y,-z
1/2+x,y,-z
1/2-x,y,1/2+z
1/2+x,1/2-y,1/2+z
loop_
_atom_site_type_symbol
_atom_site_label
_atom_site_fract_x
_atom_site_fract_y
_atom_site_fract_z
Si Si1 0.755041 0.725163 0.853741
Si Si2 0.461405 0.461950 0.083641
Si Si3 0.129963 0.086187 0.504443
Si Si4 0.943464 0.670247 0.863505
Si Si5 0.344767 0.473713 0.712102
Si Si6 0.664836 0.091694 0.914922
Si Si7 0.374790 0.805739 0.035248
O O1 0.710810 0.750000 0.750000
O O2 0.809317 0.767324 0.911169
O O3 0.844715 0.693354 0.832022
O O4 0.672576 0.697594 0.914149
O O5 0.418788 0.487071 0.188071
O O6 0.500000 0.500000 0.000000
O O7 0.550702 0.430006 0.089361
O O8 0.381469 0.434198 0.018559
O O9 0.157961 0.051377 0.406453
O O10 0.223871 0.093244 0.572363
O O11 0.086252 0.127751 0.436995
O O12 0.014835 0.700223 0.938382
O O13 0.000000 0.661046 0.750000
O O14 0.250000 0.500000 0.740944
O O15 0.365207 0.437014 0.806902
O O16 0.637683 0.143746 0.919509
#
# Coordination Sequence:
#
# PCOD9509554 Si02
#       7
#    16  16  16  16  16  16  16
#     4  11  24  43  70 105 146 186 243 295 366 448
#     4  10  24  43  63  95 134 177 241 292 356 424
#     4  11  24  43  68 101 140 181 238 303 359 433
#     4  12  22  41  74 112 141 186 248 305 367 445
#     4  11  25  41  65  92 134 185 237 287 361 425
#     4  12  24  45  65  96 142 185 231 301 363 430
#     4  11  24  41  68 107 142 185 236 303 368 429
#
# _framework density 21.827220000000001
#
# number of rings (size 3 to 8) (size 9 to 14) (size 15 to 20)
#    0.000    0.857    5.714    1.286    4.000    1.714 
#    0.000    0.000    0.000    6.857    0.000    0.000 
#    0.000    0.000    0.000    0.000    0.000    0.000 
#
# Total GULP energy -312387.209418 kJ/mol
# GULP energy per Si atom -5578.343025 kJ/mol
# Density = 2.177754 g / cm^3
# Si number density = 21.827220 Si / 1000 Ang^3
#
#
#
# Elastic Constant Matrix: (Units=GPa)
#
#
# Indices 1 2 3 4 5 6 
#
# 1 122.0195 30.4054 36.8927 0.0000 0.0000 0.0000
# 2 30.4054 124.6159 32.4165 0.0000 0.0000 0.0000
# 3 36.8927 32.4165 68.8534 0.0000 0.0000 0.0000
# 4 0.0000 0.0000 0.0000 -47.2360 0.0000 0.0000
# 5 0.0000 0.0000 0.0000 0.0000 40.3448 0.0000
# 6 0.0000 0.0000 0.0000 0.0000 0.0000 81.4960
#
#
#
# Elastic Compliance Matrix: (Units=1/GPa)
#
#
# Indices 1 2 3 4 5 6 
#
# 1 0.009931 -0.001184 -0.004764 0.000000 0.000000 0.000000
# 2 -0.001184 0.009286 -0.003737 0.000000 0.000000 0.000000
# 3 -0.004764 -0.003737 0.018836 0.000000 0.000000 0.000000
# 4 0.000000 0.000000 0.000000 -0.021170 0.000000 0.000000
# 5 0.000000 0.000000 0.000000 0.000000 0.024786 0.000000
# 6 0.000000 0.000000 0.000000 0.000000 0.000000 0.012271
#
#
# Mechanical properties :
#
#
# Convention : Reuss Voigt Hill
#
# Bulk Modulus (GPa) = 53.52692 57.21313 55.37003
# Shear Modulus (GPa) = 62.86461 29.30590 46.08525
#
# Velocity S-wave (km/s) = 5.37248 3.66817 4.59995
# Velocity P-wave (km/s) = 7.94109 6.64901 7.32360
#
# Compressibility (1/GPa) = 0.01868219
#
# Stress axis : x y z
#
# Youngs Moduli (GPa) = 100.69777 107.69203 53.09078
#
# Poissons Ratio (x) = 0.12749 0.25291
# Poissons Ratio (y) = 0.11921 0.19842
# Poissons Ratio (z) = 0.47969 0.40249
#
# Static dielectric constant tensor:
#      x y z
#    x 1.830120 0.000000 0.000000 
#    y 0.000000 1.772290 0.000000 
#    z 0.000000 0.000000 1.887640 
# 
# From -- ./inp_files/13584.got.cif
#   From: 2010.05.17/outbox.cif.g08.bks.cpg/sg68_7_cif.got.tgz:13584.got - 2010.06.03 18:57:09.
