data_PCOD9509767
_publ_section_title
;
Structure prediction by ZEFSAII (Michael W. Deem and Ramdas Pophale) SiO2 
 PCOD9509767
Probable space group: C C C A
;
_chemical_formula_sum "Si O2"
_cell_formula_units_Z 48
_cell_length_a 10.200014
_cell_length_b 15.626354
_cell_length_c 10.914441
_cell_angle_alpha 90.000000
_cell_angle_beta 90.000000
_cell_angle_gamma 90.000000
_cell_volume 1739.642159
_symmetry_space_group_name_H-M "C C C A"
_symmetry_group_IT_number 68
_space_group.IT_coordinate_system_code '2'
_symmetry_cell_setting 'orthorhombic'
loop_
_space_group_symop_operation_xyz
x,y,z
-x,1/2-y,z
x,1/2-y,1/2-z
-x,y,1/2-z
-x,-y,-z
x,1/2+y,-z
-x,1/2+y,1/2+z
x,-y,1/2+z
1/2+x,1/2+y,z
1/2-x,-y,z
1/2+x,-y,1/2-z
1/2-x,1/2+y,1/2-z
1/2-x,1/2-y,-z
1/2+x,y,-z
1/2-x,y,1/2+z
1/2+x,1/2-y,1/2+z
loop_
_atom_site_type_symbol
_atom_site_label
_atom_site_fract_x
_atom_site_fract_y
_atom_site_fract_z
Si Si1 0.331508 0.653885 0.076032
Si Si2 0.296919 0.250000 0.250000
Si Si3 0.000000 0.047380 0.250000
Si Si4 0.059269 0.110633 0.900398
O O1 0.290665 0.747421 0.127549
O O2 0.384709 0.607202 0.200192
O O3 0.201474 0.602694 0.033797
O O4 0.450220 0.656073 0.982042
O O5 0.383520 0.332040 0.213410
O O6 0.004142 0.978832 0.139417
#
# Coordination Sequence:
#
# PCOD9509767 Si02
#       4
#    16   8   8  16
#     4  10  24  50  83 115 163 214 276 342 416 492
#     4   8  24  52  76 118 164 212 280 336 426 492
#     4  12  24  42  82 116 164 210 274 334 406 500
#     4  10  24  50  83 115 163 214 276 342 416 492
#
# _framework density 27.591881000000001
#
# number of rings (size 3 to 8) (size 9 to 14) (size 15 to 20)
#    2.000    0.000    0.000    2.000    0.000    6.667 
#    0.000   15.000    0.000    0.000    0.000    2.333 
#    0.000    0.000    0.000    0.000    0.000    0.000 
#
# Total GULP energy -133753.132310 kJ/mol
# GULP energy per Si atom -5573.047180 kJ/mol
# Density = 2.752908 g / cm^3
# Si number density = 27.591881 Si / 1000 Ang^3
#
#
#
# Elastic Constant Matrix: (Units=GPa)
#
#
# Indices 1 2 3 4 5 6 
#
# 1 236.7148 45.3657 89.4347 0.0000 0.0000 0.0000
# 2 45.3657 109.5784 44.3336 0.0000 0.0000 0.0000
# 3 89.4347 44.3336 142.6197 0.0000 0.0000 0.0000
# 4 0.0000 0.0000 0.0000 62.0687 0.0000 0.0000
# 5 0.0000 0.0000 0.0000 0.0000 56.3228 0.0000
# 6 0.0000 0.0000 0.0000 0.0000 0.0000 17.4587
#
#
#
# Elastic Compliance Matrix: (Units=1/GPa)
#
#
# Indices 1 2 3 4 5 6 
#
# 1 0.005637 -0.001033 -0.003213 0.000000 0.000000 0.000000
# 2 -0.001033 0.010628 -0.002656 0.000000 0.000000 0.000000
# 3 -0.003213 -0.002656 0.009852 0.000000 0.000000 0.000000
# 4 0.000000 0.000000 0.000000 0.016111 0.000000 0.000000
# 5 0.000000 0.000000 0.000000 0.000000 0.017755 0.000000
# 6 0.000000 0.000000 0.000000 0.000000 0.000000 0.057278
#
#
# Mechanical properties :
#
#
# Convention : Reuss Voigt Hill
#
# Bulk Modulus (GPa) = 81.22213 94.13121 87.67667
# Shear Modulus (GPa) = 36.99040 47.82197 42.40618
#
# Velocity S-wave (km/s) = 3.66543 4.16768 3.92459
# Velocity P-wave (km/s) = 6.88583 7.57291 7.23753
#
# Compressibility (1/GPa) = 0.01231192
#
# Stress axis : x y z
#
# Youngs Moduli (GPa) = 177.41107 94.08920 101.49967
#
# Poissons Ratio (x) = 0.09724 0.32616
# Poissons Ratio (y) = 0.18335 0.26955
# Poissons Ratio (z) = 0.57009 0.24987
#
# Static dielectric constant tensor:
#      x y z
#    x 2.328470 0.000000 0.000000 
#    y 0.000000 2.136020 0.000000 
#    z 0.000000 0.000000 2.401030 
# 
# From -- ./inp_files/18847.got.cif
#   From: 2010.05.17/outbox.cif.g08.bks.cpg/sg68_10_cif.got.tgz:18847.got - 2010.06.03 18:57:09.
