data_PCOD9509874
_publ_section_title
;
Structure prediction by ZEFSAII (Michael W. Deem and Ramdas Pophale) SiO2 
 PCOD9509874
Probable space group: C C C A
;
_chemical_formula_sum "Si O2"
_cell_formula_units_Z 100
_cell_length_a 7.808107
_cell_length_b 21.218007
_cell_length_c 26.265226
_cell_angle_alpha 90.000000
_cell_angle_beta 90.000000
_cell_angle_gamma 90.000000
_cell_volume 4351.424840
_symmetry_space_group_name_H-M "C C C A"
_symmetry_group_IT_number 68
_space_group.IT_coordinate_system_code '2'
_symmetry_cell_setting 'orthorhombic'
loop_
_space_group_symop_operation_xyz
x,y,z
-x,1/2-y,z
x,1/2-y,1/2-z
-x,y,1/2-z
-x,-y,-z
x,1/2+y,-z
-x,1/2+y,1/2+z
x,-y,1/2+z
1/2+x,1/2+y,z
1/2-x,-y,z
1/2+x,-y,1/2-z
1/2-x,1/2+y,1/2-z
1/2-x,1/2-y,-z
1/2+x,y,-z
1/2-x,y,1/2+z
1/2+x,1/2-y,1/2+z
loop_
_atom_site_type_symbol
_atom_site_label
_atom_site_fract_x
_atom_site_fract_y
_atom_site_fract_z
Si Si1 0.500000 0.750000 0.750000
Si Si2 0.373484 0.197858 0.022990
Si Si3 0.563279 0.102734 0.396858
Si Si4 0.253875 0.346683 0.799061
Si Si5 0.000000 0.750000 0.648944
Si Si6 0.833292 0.647639 0.914168
Si Si7 0.554525 0.523266 0.362736
Si Si8 0.500000 0.436575 0.750000
O O1 0.620542 0.795584 0.780873
O O2 0.500000 0.250000 0.047591
O O3 0.328994 0.144650 0.063529
O O4 0.250000 0.250000 0.000000
O O5 0.406785 0.157817 0.971200
O O6 0.651477 0.116779 0.342871
O O7 0.367138 0.127262 0.408424
O O8 0.549143 0.027109 0.396428
O O9 0.411745 0.304699 0.818894
O O10 0.331049 0.392694 0.756029
O O11 0.137261 0.713900 0.614110
O O12 0.941226 0.592662 0.886595
O O13 0.750000 0.500000 0.363071
O O14 0.502395 0.526424 0.303312
#
# Coordination Sequence:
#
# PCOD9509874 Si02
#       8
#     4  16  16  16   8  16  16   8
#     4  12  28  40  66 104 146 188 232 310 388 444
#     4  12  24  42  75 108 144 192 245 299 374 449
#     4  11  27  46  70 106 147 192 243 302 370 440
#     4  12  27  43  70 104 143 187 241 310 369 447
#     4  12  22  43  69 104 142 181 240 315 370 430
#     4  11  23  46  72 105 145 191 241 304 369 444
#     4  10  26  47  73 101 146 193 246 308 359 439
#     4  12  26  48  74 104 142 194 256 300 376 448
#
# _framework density 22.980976999999999
#
# number of rings (size 3 to 8) (size 9 to 14) (size 15 to 20)
#    0.000    0.640    4.000    2.880    7.840    0.640 
#    0.000    0.000    0.000    0.000    0.000    0.000 
#    0.000    0.000    0.000    0.000    0.000    0.000 
#
# Total GULP energy -279042.668415 kJ/mol
# GULP energy per Si atom -5580.853368 kJ/mol
# Density = 2.292867 g / cm^3
# Si number density = 22.980977 Si / 1000 Ang^3
#
#
#
# Elastic Constant Matrix: (Units=GPa)
#
#
# Indices 1 2 3 4 5 6 
#
# 1 60.1972 25.0492 5.4223 0.0000 0.0000 0.0000
# 2 25.0492 137.7072 50.9621 0.0000 0.0000 0.0000
# 3 5.4223 50.9621 92.2646 0.0000 0.0000 0.0000
# 4 0.0000 0.0000 0.0000 46.9428 0.0000 0.0000
# 5 0.0000 0.0000 0.0000 0.0000 25.1524 0.0000
# 6 0.0000 0.0000 0.0000 0.0000 0.0000 33.9224
#
#
#
# Elastic Compliance Matrix: (Units=1/GPa)
#
#
# Indices 1 2 3 4 5 6 
#
# 1 0.018038 -0.003631 0.000946 0.000000 0.000000 0.000000
# 2 -0.003631 0.009858 -0.005232 0.000000 0.000000 0.000000
# 3 0.000946 -0.005232 0.013673 0.000000 0.000000 0.000000
# 4 0.000000 0.000000 0.000000 0.021303 0.000000 0.000000
# 5 0.000000 0.000000 0.000000 0.000000 0.039758 0.000000
# 6 0.000000 0.000000 0.000000 0.000000 0.000000 0.029479
#
#
# Mechanical properties :
#
#
# Convention : Reuss Voigt Hill
#
# Bulk Modulus (GPa) = 38.85891 50.33736 44.59813
# Shear Modulus (GPa) = 31.94458 35.11921 33.53190
#
# Velocity S-wave (km/s) = 3.73237 3.91344 3.82398
# Velocity P-wave (km/s) = 5.95987 6.50934 6.24066
#
# Compressibility (1/GPa) = 0.02573413
#
# Stress axis : x y z
#
# Youngs Moduli (GPa) = 55.43905 101.43553 73.13867
#
# Poissons Ratio (x) = 0.36831 -0.06915
# Poissons Ratio (y) = 0.20130 0.38266
# Poissons Ratio (z) = -0.05242 0.53070
#
# Static dielectric constant tensor:
#      x y z
#    x 1.797190 0.000000 0.000000 
#    y 0.000000 1.752420 0.000000 
#    z 0.000000 0.000000 2.015400 
# 
# From -- ./inp_files/49482.got.cif
#   From: 2010.05.17/outbox.cif.g08.bks.cpg/sg68_25_cif.got.tgz:49482.got - 2010.06.03 18:57:09.
