data_PCOD9509801
_publ_section_title
;
Structure prediction by ZEFSAII (Michael W. Deem and Ramdas Pophale) SiO2 
 PCOD9509801
Probable space group: C C C A
;
_chemical_formula_sum "Si O2"
_cell_formula_units_Z 72
_cell_length_a 18.230228
_cell_length_b 8.928060
_cell_length_c 18.757629
_cell_angle_alpha 90.000000
_cell_angle_beta 90.000000
_cell_angle_gamma 90.000000
_cell_volume 3053.002377
_symmetry_space_group_name_H-M "C C C A"
_symmetry_group_IT_number 68
_space_group.IT_coordinate_system_code '2'
_symmetry_cell_setting 'orthorhombic'
loop_
_space_group_symop_operation_xyz
x,y,z
-x,1/2-y,z
x,1/2-y,1/2-z
-x,y,1/2-z
-x,-y,-z
x,1/2+y,-z
-x,1/2+y,1/2+z
x,-y,1/2+z
1/2+x,1/2+y,z
1/2-x,-y,z
1/2+x,-y,1/2-z
1/2-x,1/2+y,1/2-z
1/2-x,1/2-y,-z
1/2+x,y,-z
1/2-x,y,1/2+z
1/2+x,1/2-y,1/2+z
loop_
_atom_site_type_symbol
_atom_site_label
_atom_site_fract_x
_atom_site_fract_y
_atom_site_fract_z
Si Si1 0.925151 0.460995 0.715084
Si Si2 0.500000 0.750000 0.338837
Si Si3 0.285076 0.652295 0.690184
Si Si4 0.368337 0.295246 0.420723
Si Si5 0.428075 0.467304 0.547000
O O1 0.943314 0.636160 0.700530
O O2 0.858363 0.407478 0.766312
O O3 0.913617 0.388165 0.637903
O O4 0.000000 0.406835 0.750000
O O5 0.548625 0.639920 0.388420
O O6 0.244037 0.750000 0.750000
O O7 0.250000 0.500000 0.665438
O O8 0.294741 0.761077 0.622889
O O9 0.371435 0.382179 0.494717
O O10 0.400420 0.129231 0.430040
O O11 0.500000 0.500000 0.500000
#
# Coordination Sequence:
#
# PCOD9509801 Si02
#       5
#    16   8  16  16  16
#     4  11  24  39  64  99 131 166 218 278 337 398
#     4  12  23  34  58  98 131 170 204 274 332 392
#     4  10  25  45  68  91 132 179 226 272 341 402
#     4  11  23  40  61  92 127 176 211 270 333 390
#     4  12  21  35  61  91 134 164 214 263 331 393
#
# _framework density 23.583342999999999
#
# number of rings (size 3 to 8) (size 9 to 14) (size 15 to 20)
#    0.000    0.889    4.444    1.667    3.111    8.444 
#    0.000    1.111    0.000    2.667    0.000    0.000 
#    0.000    0.000    0.000    0.000    0.000    0.000 
#
# Total GULP energy -201119.579404 kJ/mol
# GULP energy per Si atom -5586.654983 kJ/mol
# Density = 2.352967 g / cm^3
# Si number density = 23.583343 Si / 1000 Ang^3
#
#
#
# Elastic Constant Matrix: (Units=GPa)
#
#
# Indices 1 2 3 4 5 6 
#
# 1 9.1605 0.9285 7.8652 0.0000 0.0000 0.0000
# 2 0.9285 179.0865 44.0662 0.0000 0.0000 0.0000
# 3 7.8652 44.0662 79.2214 0.0000 0.0000 0.0000
# 4 0.0000 0.0000 0.0000 65.9930 0.0000 0.0000
# 5 0.0000 0.0000 0.0000 0.0000 -1.7105 0.0000
# 6 0.0000 0.0000 0.0000 0.0000 0.0000 36.0797
#
#
#
# Elastic Compliance Matrix: (Units=1/GPa)
#
#
# Indices 1 2 3 4 5 6 
#
# 1 0.120441 0.002685 -0.013451 0.000000 0.000000 0.000000
# 2 0.002685 0.006529 -0.003898 0.000000 0.000000 0.000000
# 3 -0.013451 -0.003898 0.016127 0.000000 0.000000 0.000000
# 4 0.000000 0.000000 0.000000 0.015153 0.000000 0.000000
# 5 0.000000 0.000000 0.000000 0.000000 -0.584623 0.000000
# 6 0.000000 0.000000 0.000000 0.000000 0.000000 0.027716
#
#
# Mechanical properties :
#
#
# Convention : Reuss Voigt Hill
#
# Bulk Modulus (GPa) = 8.78977 41.46537 25.12757
# Shear Modulus (GPa) = -15.08732 34.37969 9.64619
#
# Velocity S-wave (km/s) = -2.53206 3.82225 2.02463
# Velocity P-wave (km/s) = 2.19391 6.09099 4.01789
#
# Compressibility (1/GPa) = 0.11376868
#
# Stress axis : x y z
#
# Youngs Moduli (GPa) = 8.30280 153.15756 62.00867
#
# Poissons Ratio (x) = -0.41129 0.83410
# Poissons Ratio (y) = -0.02230 0.24174
# Poissons Ratio (z) = 0.11168 0.59707
#
# Static dielectric constant tensor:
#      x y z
#    x 2.075820 0.000000 0.000000 
#    y 0.000000 1.912470 0.000000 
#    z 0.000000 0.000000 1.912770 
# 
# From -- ./inp_files/40102.got.cif
#   From: 2010.05.17/outbox.cif.g08.bks.cpg/sg68_21_cif.got.tgz:40102.got - 2010.06.03 18:57:09.
