data_PCOD9509645
_publ_section_title
;
Structure prediction by ZEFSAII (Michael W. Deem and Ramdas Pophale) SiO2 
 PCOD9509645
Probable space group: C C C A
;
_chemical_formula_sum "Si O2"
_cell_formula_units_Z 80
_cell_length_a 10.861542
_cell_length_b 15.950478
_cell_length_c 20.405531
_cell_angle_alpha 90.000000
_cell_angle_beta 90.000000
_cell_angle_gamma 90.000000
_cell_volume 3535.192677
_symmetry_space_group_name_H-M "C C C A"
_symmetry_group_IT_number 68
_space_group.IT_coordinate_system_code '2'
_symmetry_cell_setting 'orthorhombic'
loop_
_space_group_symop_operation_xyz
x,y,z
-x,1/2-y,z
x,1/2-y,1/2-z
-x,y,1/2-z
-x,-y,-z
x,1/2+y,-z
-x,1/2+y,1/2+z
x,-y,1/2+z
1/2+x,1/2+y,z
1/2-x,-y,z
1/2+x,-y,1/2-z
1/2-x,1/2+y,1/2-z
1/2-x,1/2-y,-z
1/2+x,y,-z
1/2-x,y,1/2+z
1/2+x,1/2-y,1/2+z
loop_
_atom_site_type_symbol
_atom_site_label
_atom_site_fract_x
_atom_site_fract_y
_atom_site_fract_z
Si Si1 0.151313 0.369493 0.116328
Si Si2 0.750000 0.500000 0.102420
Si Si3 0.382747 0.702012 0.681710
Si Si4 0.641594 0.599299 0.982637
Si Si5 0.500000 0.750000 0.025441
Si Si6 0.489390 0.968327 0.860952
O O1 0.244695 0.306950 0.153499
O O2 0.240116 0.410853 0.062820
O O3 0.057281 0.318444 0.072854
O O4 0.078005 0.443331 0.153231
O O5 0.636396 0.467282 0.145323
O O6 0.683172 0.566020 0.053357
O O7 0.500000 0.750000 0.648091
O O8 0.371745 0.750000 0.750000
O O9 0.427553 0.605612 0.680537
O O10 0.537233 0.554135 0.938375
O O11 0.601432 0.696752 0.986352
#
# Coordination Sequence:
#
# PCOD9509645 Si02
#       6
#    16   8  16  16   8  16
#     4  11  23  41  64  95 137 181 223 275 338 409
#     4  12  20  36  64  98 152 184 216 260 330 426
#     4  10  24  45  72  91 117 164 232 296 348 401
#     4  11  21  36  58  98 144 191 223 257 320 411
#     4  12  24  34  59 102 143 182 220 264 324 408
#     4  11  23  40  67  99 136 186 225 273 340 416
#
# _framework density 22.6296
#
# number of rings (size 3 to 8) (size 9 to 14) (size 15 to 20)
#    0.000    1.000    4.000    4.200    8.400    0.000 
#    0.000    0.500   35.200    1.200    0.000    0.000 
#    0.000    0.000    0.000    0.000    0.000    0.000 
#
# Total GULP energy -223146.143999 kJ/mol
# GULP energy per Si atom -5578.653600 kJ/mol
# Density = 2.257809 g / cm^3
# Si number density = 22.629600 Si / 1000 Ang^3
#
#
#
# Elastic Constant Matrix: (Units=GPa)
#
#
# Indices 1 2 3 4 5 6 
#
# 1 119.1094 33.2620 11.3865 0.0000 0.0000 0.0000
# 2 33.2620 105.1687 18.6609 0.0000 0.0000 0.0000
# 3 11.3865 18.6609 53.9714 0.0000 0.0000 0.0000
# 4 0.0000 0.0000 0.0000 17.6843 0.0000 0.0000
# 5 0.0000 0.0000 0.0000 0.0000 2.1918 0.0000
# 6 0.0000 0.0000 0.0000 0.0000 0.0000 45.3203
#
#
#
# Elastic Compliance Matrix: (Units=1/GPa)
#
#
# Indices 1 2 3 4 5 6 
#
# 1 0.009260 -0.002751 -0.001002 0.000000 0.000000 0.000000
# 2 -0.002751 0.010947 -0.003205 0.000000 0.000000 0.000000
# 3 -0.001002 -0.003205 0.019848 0.000000 0.000000 0.000000
# 4 0.000000 0.000000 0.000000 0.056547 0.000000 0.000000
# 5 0.000000 0.000000 0.000000 0.000000 0.456255 0.000000
# 6 0.000000 0.000000 0.000000 0.000000 0.000000 0.022065
#
#
# Mechanical properties :
#
#
# Convention : Reuss Voigt Hill
#
# Bulk Modulus (GPa) = 38.25714 44.98534 41.62124
# Shear Modulus (GPa) = 8.36750 27.36862 17.86806
#
# Velocity S-wave (km/s) = 1.92500 3.48144 2.81301
# Velocity P-wave (km/s) = 4.67796 6.00689 5.38359
#
# Compressibility (1/GPa) = 0.02613891
#
# Stress axis : x y z
#
# Youngs Moduli (GPa) = 107.99577 91.34806 50.38327
#
# Poissons Ratio (x) = 0.25127 0.05051
# Poissons Ratio (y) = 0.29706 0.16146
# Poissons Ratio (z) = 0.10826 0.29274
#
# Static dielectric constant tensor:
#      x y z
#    x 1.837080 0.000000 0.000000 
#    y 0.000000 1.759230 0.000000 
#    z 0.000000 0.000000 1.897850 
# 
# From -- ./inp_files/44175.got.cif
#   From: 2010.05.17/outbox.cif.g08.bks.cpg/sg68_23_cif.got.tgz:44175.got - 2010.06.03 18:57:09.
