data_PCOD9509519
_publ_section_title
;
Structure prediction by ZEFSAII (Michael W. Deem and Ramdas Pophale) SiO2 
 PCOD9509519
Probable space group: C C C A
;
_chemical_formula_sum "Si O2"
_cell_formula_units_Z 72
_cell_length_a 17.539428
_cell_length_b 9.437121
_cell_length_c 19.307278
_cell_angle_alpha 90.000000
_cell_angle_beta 90.000000
_cell_angle_gamma 90.000000
_cell_volume 3195.773560
_symmetry_space_group_name_H-M "C C C A"
_symmetry_group_IT_number 68
_space_group.IT_coordinate_system_code '2'
_symmetry_cell_setting 'orthorhombic'
loop_
_space_group_symop_operation_xyz
x,y,z
-x,1/2-y,z
x,1/2-y,1/2-z
-x,y,1/2-z
-x,-y,-z
x,1/2+y,-z
-x,1/2+y,1/2+z
x,-y,1/2+z
1/2+x,1/2+y,z
1/2-x,-y,z
1/2+x,-y,1/2-z
1/2-x,1/2+y,1/2-z
1/2-x,1/2-y,-z
1/2+x,y,-z
1/2-x,y,1/2+z
1/2+x,1/2-y,1/2+z
loop_
_atom_site_type_symbol
_atom_site_label
_atom_site_fract_x
_atom_site_fract_y
_atom_site_fract_z
Si Si1 0.911788 0.283475 0.875603
Si Si2 0.344579 0.250000 0.750000
Si Si3 0.828629 0.557635 0.871374
Si Si4 0.838404 0.512476 0.653199
Si Si5 0.163281 0.713731 0.976339
O O1 0.881703 0.431529 0.844661
O O2 0.000000 0.250000 0.868215
O O3 0.869956 0.144953 0.847131
O O4 0.887333 0.302053 0.955904
O O5 0.303016 0.161669 0.809627
O O6 0.381476 0.124362 0.703645
O O7 0.750000 0.500000 0.901760
O O8 0.865975 0.654801 0.929836
O O9 0.750000 0.500000 0.674946
O O10 0.838563 0.580094 0.575805
O O11 0.250000 0.750000 0.000000
#
# Coordination Sequence:
#
# PCOD9509519 Si02
#       5
#    16   8  16  16  16
#     4  12  26  41  66 104 137 169 218 277 336 393
#     4  10  24  42  65  94 123 180 238 278 312 386
#     4  11  22  41  68  96 133 176 222 275 330 390
#     4  11  22  41  68  96 133 176 222 275 330 390
#     4  11  21  39  67  99 132 175 214 261 333 405
#
# _framework density 22.529757
#
# number of rings (size 3 to 8) (size 9 to 14) (size 15 to 20)
#    0.000    0.889    4.444    3.333    0.000    4.444 
#    0.000    6.667    0.000    0.000    0.000    0.000 
#    0.000    0.000    0.000    0.000    0.000    0.000 
#
# Total GULP energy -201031.205682 kJ/mol
# GULP energy per Si atom -5584.200158 kJ/mol
# Density = 2.247848 g / cm^3
# Si number density = 22.529757 Si / 1000 Ang^3
#
#
#
# Elastic Constant Matrix: (Units=GPa)
#
#
# Indices 1 2 3 4 5 6 
#
# 1 93.1701 40.9563 -9.5782 0.0000 0.0000 0.0000
# 2 40.9563 166.6743 34.2834 0.0000 0.0000 0.0000
# 3 -9.5782 34.2834 78.1798 0.0000 0.0000 0.0000
# 4 0.0000 0.0000 0.0000 50.1018 0.0000 0.0000
# 5 0.0000 0.0000 0.0000 0.0000 -0.6200 0.0000
# 6 0.0000 0.0000 0.0000 0.0000 0.0000 19.6684
#
#
#
# Elastic Compliance Matrix: (Units=1/GPa)
#
#
# Indices 1 2 3 4 5 6 
#
# 1 0.012731 -0.003791 0.003222 0.000000 0.000000 0.000000
# 2 -0.003791 0.007723 -0.003851 0.000000 0.000000 0.000000
# 3 0.003222 -0.003851 0.014875 0.000000 0.000000 0.000000
# 4 0.000000 0.000000 0.000000 0.019959 0.000000 0.000000
# 5 0.000000 0.000000 0.000000 0.000000 -1.612972 0.000000
# 6 0.000000 0.000000 0.000000 0.000000 0.000000 0.050843
#
#
# Mechanical properties :
#
#
# Convention : Reuss Voigt Hill
#
# Bulk Modulus (GPa) = 37.75229 52.14969 44.95099
# Shear Modulus (GPa) = -3.35757 31.98755 14.31499
#
# Velocity S-wave (km/s) = -1.22210 3.77210 2.52341
# Velocity P-wave (km/s) = 3.84729 6.49376 5.33716
#
# Compressibility (1/GPa) = 0.02648846
#
# Stress axis : x y z
#
# Youngs Moduli (GPa) = 78.54963 129.47525 67.22824
#
# Poissons Ratio (x) = 0.49085 -0.21662
# Poissons Ratio (y) = 0.29779 0.25892
# Poissons Ratio (z) = -0.25310 0.49866
#
# Static dielectric constant tensor:
#      x y z
#    x 1.792830 0.000000 0.000000 
#    y 0.000000 1.982960 0.000000 
#    z 0.000000 0.000000 1.863550 
# 
# From -- ./inp_files/40079.got.cif
#   From: 2010.05.17/outbox.cif.g08.bks.cpg/sg68_21_cif.got.tgz:40079.got - 2010.06.03 18:57:09.
