data_PCOD9509469
_publ_section_title
;
Structure prediction by ZEFSAII (Michael W. Deem and Ramdas Pophale) SiO2 
 PCOD9509469
Probable space group: C C C A
;
_chemical_formula_sum "Si O2"
_cell_formula_units_Z 68
_cell_length_a 16.967216
_cell_length_b 11.652922
_cell_length_c 17.255381
_cell_angle_alpha 90.000000
_cell_angle_beta 90.000000
_cell_angle_gamma 90.000000
_cell_volume 3411.693288
_symmetry_space_group_name_H-M "C C C A"
_symmetry_group_IT_number 68
_space_group.IT_coordinate_system_code '2'
_symmetry_cell_setting 'orthorhombic'
loop_
_space_group_symop_operation_xyz
x,y,z
-x,1/2-y,z
x,1/2-y,1/2-z
-x,y,1/2-z
-x,-y,-z
x,1/2+y,-z
-x,1/2+y,1/2+z
x,-y,1/2+z
1/2+x,1/2+y,z
1/2-x,-y,z
1/2+x,-y,1/2-z
1/2-x,1/2+y,1/2-z
1/2-x,1/2-y,-z
1/2+x,y,-z
1/2-x,y,1/2+z
1/2+x,1/2-y,1/2+z
loop_
_atom_site_type_symbol
_atom_site_label
_atom_site_fract_x
_atom_site_fract_y
_atom_site_fract_z
Si Si1 0.250000 0.000000 0.424939
Si Si2 0.114494 0.150657 0.128702
Si Si3 0.500000 0.750000 0.001951
Si Si4 0.219296 0.730953 0.160346
Si Si5 0.500000 0.750000 0.250000
Si Si6 0.628013 0.091952 0.445218
O O1 0.217897 0.899211 0.369870
O O2 0.318626 0.945835 0.480372
O O3 0.072080 0.204810 0.053971
O O4 0.192823 0.218972 0.150063
O O5 0.053745 0.169795 0.197527
O O6 0.129755 0.019196 0.109335
O O7 0.460171 0.639678 0.961116
O O8 0.195879 0.750000 0.250000
O O9 0.168401 0.804763 0.100717
#
# Coordination Sequence:
#
# PCOD9509469 Si02
#       6
#     8  16   8  16   4  16
#     4  12  24  42  76  96 132 186 230 280 340 416
#     4  11  22  42  69  95 135 178 228 282 337 412
#     4  11  24  43  65 108 127 178 232 286 337 416
#     4  12  26  43  69 105 138 178 231 285 351 411
#     4  10  24  40  64  98 138 186 222 264 356 412
#     4  12  24  46  71 100 139 176 237 285 342 412
#
# _framework density 19.931450999999999
#
# number of rings (size 3 to 8) (size 9 to 14) (size 15 to 20)
#    0.000    0.471    5.882    2.824    3.294    0.000 
#    4.235    0.000    0.000    0.000    0.000    0.000 
#    0.000    0.000    0.000    0.000    0.000    0.000 
#
# Total GULP energy -189982.213827 kJ/mol
# GULP energy per Si atom -5587.712171 kJ/mol
# Density = 1.988609 g / cm^3
# Si number density = 19.931451 Si / 1000 Ang^3
#
#
#
# Elastic Constant Matrix: (Units=GPa)
#
#
# Indices 1 2 3 4 5 6 
#
# 1 35.5599 -12.1552 15.6368 0.0000 0.0000 0.0000
# 2 -12.1552 140.2198 51.7503 0.0000 0.0000 0.0000
# 3 15.6368 51.7503 114.1641 0.0000 0.0000 0.0000
# 4 0.0000 0.0000 0.0000 32.7940 0.0000 0.0000
# 5 0.0000 0.0000 0.0000 0.0000 8.7777 0.0000
# 6 0.0000 0.0000 0.0000 0.0000 0.0000 28.1897
#
#
#
# Elastic Compliance Matrix: (Units=1/GPa)
#
#
# Indices 1 2 3 4 5 6 
#
# 1 0.033062 0.005449 -0.006998 0.000000 0.000000 0.000000
# 2 0.005449 0.009462 -0.005036 0.000000 0.000000 0.000000
# 3 -0.006998 -0.005036 0.012001 0.000000 0.000000 0.000000
# 4 0.000000 0.000000 0.000000 0.030493 0.000000 0.000000
# 5 0.000000 0.000000 0.000000 0.000000 0.113925 0.000000
# 6 0.000000 0.000000 0.000000 0.000000 0.000000 0.035474
#
#
# Mechanical properties :
#
#
# Convention : Reuss Voigt Hill
#
# Bulk Modulus (GPa) = 24.18130 44.48972 34.33551
# Shear Modulus (GPa) = 19.12986 29.59974 24.36480
#
# Velocity S-wave (km/s) = 3.10140 3.85785 3.50012
# Velocity P-wave (km/s) = 4.99835 6.49722 5.79643
#
# Compressibility (1/GPa) = 0.04135427
#
# Stress axis : x y z
#
# Youngs Moduli (GPa) = 30.24665 105.68058 83.32986
#
# Poissons Ratio (x) = -0.57583 0.58317
# Poissons Ratio (y) = -0.16481 0.41962
# Poissons Ratio (z) = 0.21168 0.53217
#
# Static dielectric constant tensor:
#      x y z
#    x 1.597590 0.000000 0.000000 
#    y 0.000000 1.690970 0.000000 
#    z 0.000000 0.000000 1.709230 
# 
# From -- ./inp_files/32608.got.cif
#   From: 2010.05.17/outbox.cif.g08.bks.cpg/sg68_17_cif.got.tgz:32608.got - 2010.06.03 18:57:09.
