data_PCOD9509510
_publ_section_title
;
Structure prediction by ZEFSAII (Michael W. Deem and Ramdas Pophale) SiO2 
 PCOD9509510
Probable space group: C C C A
;
_chemical_formula_sum "Si O2"
_cell_formula_units_Z 56
_cell_length_a 26.002916
_cell_length_b 11.250003
_cell_length_c 8.359704
_cell_angle_alpha 90.000000
_cell_angle_beta 90.000000
_cell_angle_gamma 90.000000
_cell_volume 2445.488312
_symmetry_space_group_name_H-M "C C C A"
_symmetry_group_IT_number 68
_space_group.IT_coordinate_system_code '2'
_symmetry_cell_setting 'orthorhombic'
loop_
_space_group_symop_operation_xyz
x,y,z
-x,1/2-y,z
x,1/2-y,1/2-z
-x,y,1/2-z
-x,-y,-z
x,1/2+y,-z
-x,1/2+y,1/2+z
x,-y,1/2+z
1/2+x,1/2+y,z
1/2-x,-y,z
1/2+x,-y,1/2-z
1/2-x,1/2+y,1/2-z
1/2-x,1/2-y,-z
1/2+x,y,-z
1/2-x,y,1/2+z
1/2+x,1/2-y,1/2+z
loop_
_atom_site_type_symbol
_atom_site_label
_atom_site_fract_x
_atom_site_fract_y
_atom_site_fract_z
Si Si1 0.720634 0.750000 0.750000
Si Si2 0.292363 0.907474 0.475612
Si Si3 0.603878 0.878687 0.168767
Si Si4 0.538427 0.434490 0.120175
O O1 0.689721 0.671870 0.624588
O O2 0.758168 0.830810 0.645172
O O3 0.342984 0.944143 0.380414
O O4 0.250000 0.000000 0.538185
O O5 0.613640 0.750000 0.250000
O O6 0.572758 0.966401 0.286926
O O7 0.572920 0.858984 0.002460
O O8 0.500000 0.378015 0.250000
O O9 0.500000 0.500000 0.000000
#
# Coordination Sequence:
#
# PCOD9509510 Si02
#       4
#     8  16  16  16
#     4  10  24  42  62  98 144 170 234 268 344 406
#     4  11  24  42  68 100 140 181 221 284 338 410
#     4  11  24  45  74 102 139 186 234 283 348 422
#     4   9  22  45  70 104 137 175 232 293 354 408
#
# _framework density 22.899312999999999
#
# number of rings (size 3 to 8) (size 9 to 14) (size 15 to 20)
#    0.000    1.714    1.429    0.857    8.000    5.143 
#    5.143    4.286    0.000    0.000    0.000    0.000 
#    0.000    0.000    0.000    0.000    0.000    0.000 
#
# Total GULP energy -156287.679926 kJ/mol
# GULP energy per Si atom -5581.702855 kJ/mol
# Density = 2.284719 g / cm^3
# Si number density = 22.899313 Si / 1000 Ang^3
#
#
#
# Elastic Constant Matrix: (Units=GPa)
#
#
# Indices 1 2 3 4 5 6 
#
# 1 130.3656 25.1420 45.9419 0.0000 0.0000 0.0000
# 2 25.1420 54.7785 34.1664 0.0000 0.0000 0.0000
# 3 45.9419 34.1664 135.2097 0.0000 0.0000 0.0000
# 4 0.0000 0.0000 0.0000 40.2497 0.0000 0.0000
# 5 0.0000 0.0000 0.0000 0.0000 32.6777 0.0000
# 6 0.0000 0.0000 0.0000 0.0000 0.0000 13.0124
#
#
#
# Elastic Compliance Matrix: (Units=1/GPa)
#
#
# Indices 1 2 3 4 5 6 
#
# 1 0.009026 -0.002647 -0.002398 0.000000 0.000000 0.000000
# 2 -0.002647 0.022447 -0.004773 0.000000 0.000000 0.000000
# 3 -0.002398 -0.004773 0.009417 0.000000 0.000000 0.000000
# 4 0.000000 0.000000 0.000000 0.024845 0.000000 0.000000
# 5 0.000000 0.000000 0.000000 0.000000 0.030602 0.000000
# 6 0.000000 0.000000 0.000000 0.000000 0.000000 0.076850
#
#
# Mechanical properties :
#
#
# Convention : Reuss Voigt Hill
#
# Bulk Modulus (GPa) = 47.04926 58.98382 53.01654
# Shear Modulus (GPa) = 25.01152 31.52819 28.26986
#
# Velocity S-wave (km/s) = 3.30849 3.71458 3.51740
# Velocity P-wave (km/s) = 5.93174 6.64915 6.30067
#
# Compressibility (1/GPa) = 0.02125432
#
# Stress axis : x y z
#
# Youngs Moduli (GPa) = 110.78660 44.54904 106.19326
#
# Poissons Ratio (x) = 0.11793 0.25466
# Poissons Ratio (y) = 0.29327 0.50684
# Poissons Ratio (z) = 0.26568 0.21262
#
# Static dielectric constant tensor:
#      x y z
#    x 1.846670 0.000000 0.000000 
#    y 0.000000 1.888360 0.000000 
#    z 0.000000 0.000000 1.859760 
# 
# From -- ./inp_files/3891.got.cif
#   From: 2010.05.17/outbox.cif.g08.bks.cpg/sg68_2_cif.got.tgz:3891.got - 2010.06.03 18:57:09.
