data_PCOD9509403
_publ_section_title
;
Structure prediction by ZEFSAII (Michael W. Deem and Ramdas Pophale) SiO2 
 PCOD9509403
Probable space group: C C C A
;
_chemical_formula_sum "Si O2"
_cell_formula_units_Z 116
_cell_length_a 23.198448
_cell_length_b 11.299869
_cell_length_c 19.487391
_cell_angle_alpha 90.000000
_cell_angle_beta 90.000000
_cell_angle_gamma 90.000000
_cell_volume 5108.413440
_symmetry_space_group_name_H-M "C C C A"
_symmetry_group_IT_number 68
_space_group.IT_coordinate_system_code '2'
_symmetry_cell_setting 'orthorhombic'
loop_
_space_group_symop_operation_xyz
x,y,z
-x,1/2-y,z
x,1/2-y,1/2-z
-x,y,1/2-z
-x,-y,-z
x,1/2+y,-z
-x,1/2+y,1/2+z
x,-y,1/2+z
1/2+x,1/2+y,z
1/2-x,-y,z
1/2+x,-y,1/2-z
1/2-x,1/2+y,1/2-z
1/2-x,1/2-y,-z
1/2+x,y,-z
1/2-x,y,1/2+z
1/2+x,1/2-y,1/2+z
loop_
_atom_site_type_symbol
_atom_site_label
_atom_site_fract_x
_atom_site_fract_y
_atom_site_fract_z
Si Si1 0.148359 0.850098 0.080577
Si Si2 0.053436 0.338738 0.593289
Si Si3 0.314904 0.127733 0.781979
Si Si4 0.579592 0.915933 0.440231
Si Si5 0.000000 0.750000 0.750000
Si Si6 0.462034 0.410917 0.635837
Si Si7 0.149107 0.808614 0.929464
Si Si8 0.315686 0.377721 0.271360
O O1 0.113189 0.731406 0.098375
O O2 0.186830 0.880182 0.145936
O O3 0.100843 0.952414 0.072384
O O4 0.174383 0.837642 0.004252
O O5 0.055667 0.392341 0.516392
O O6 0.047103 0.449472 0.643403
O O7 0.000000 0.250000 0.600112
O O8 0.338787 0.250000 0.750000
O O9 0.317333 0.142692 0.864061
O O10 0.248489 0.124491 0.758930
O O11 0.341456 0.002582 0.756227
O O12 0.526282 0.889501 0.391348
O O13 0.633944 0.830096 0.427107
O O14 0.040034 0.665046 0.704290
O O15 0.414541 0.365760 0.581570
O O16 0.342733 0.250000 0.250000
#
# Coordination Sequence:
#
# PCOD9509403 Si02
#       8
#    16  16  16  16   4  16  16  16
#     4  11  23  40  66 102 130 183 231 285 334 425
#     4  11  22  38  64  95 137 182 221 274 347 393
#     4  10  23  46  70  94 127 180 221 294 367 430
#     4  11  20  39  65  96 136 177 220 282 335 393
#     4  12  28  40  62  92 140 196 230 278 324 400
#     4  12  23  41  58  96 138 181 226 276 323 403
#     4  11  23  38  69  99 131 174 239 279 340 409
#     4  10  24  46  68  94 134 175 227 287 375 422
#
# _framework density 22.707637999999999
#
# number of rings (size 3 to 8) (size 9 to 14) (size 15 to 20)
#    0.000    1.103    4.138    2.897    2.897    1.103 
#    0.000    5.862    0.000    0.000    0.000    0.000 
#    0.000    0.000    0.000    0.000    0.000    0.000 
#
# Total GULP energy -324136.710202 kJ/mol
# GULP energy per Si atom -5588.563969 kJ/mol
# Density = 2.265595 g / cm^3
# Si number density = 22.707638 Si / 1000 Ang^3
#
#
#
# Elastic Constant Matrix: (Units=GPa)
#
#
# Indices 1 2 3 4 5 6 
#
# 1 41.4588 9.5899 43.3416 0.0000 0.0000 0.0000
# 2 9.5899 178.1787 61.5312 0.0000 0.0000 0.0000
# 3 43.3416 61.5312 188.6967 0.0000 0.0000 0.0000
# 4 0.0000 0.0000 0.0000 38.1422 0.0000 0.0000
# 5 0.0000 0.0000 0.0000 0.0000 56.4214 0.0000
# 6 0.0000 0.0000 0.0000 0.0000 0.0000 8.4361
#
#
#
# Elastic Compliance Matrix: (Units=1/GPa)
#
#
# Indices 1 2 3 4 5 6 
#
# 1 0.031874 0.000916 -0.007620 0.000000 0.000000 0.000000
# 2 0.000916 0.006351 -0.002281 0.000000 0.000000 0.000000
# 3 -0.007620 -0.002281 0.007794 0.000000 0.000000 0.000000
# 4 0.000000 0.000000 0.000000 0.026218 0.000000 0.000000
# 5 0.000000 0.000000 0.000000 0.000000 0.017724 0.000000
# 6 0.000000 0.000000 0.000000 0.000000 0.000000 0.118538
#
#
# Mechanical properties :
#
#
# Convention : Reuss Voigt Hill
#
# Bulk Modulus (GPa) = 35.65281 70.80663 53.22972
# Shear Modulus (GPa) = 21.20275 40.19138 30.69707
#
# Velocity S-wave (km/s) = 3.05901 4.21164 3.68072
# Velocity P-wave (km/s) = 5.31146 7.40946 6.44638
#
# Compressibility (1/GPa) = 0.02804828
#
# Stress axis : x y z
#
# Youngs Moduli (GPa) = 31.37318 157.45906 128.31051
#
# Poissons Ratio (x) = -0.14421 0.97771
# Poissons Ratio (y) = -0.02873 0.29271
# Poissons Ratio (z) = 0.23906 0.35921
#
# Static dielectric constant tensor:
#      x y z
#    x 1.895950 0.000000 0.000000 
#    y 0.000000 1.912620 0.000000 
#    z 0.000000 0.000000 1.847080 
# 
# From -- ./inp_files/34170.got.cif
#   From: 2010.05.17/outbox.cif.g08.bks.cpg/sg68_18_cif.got.tgz:34170.got - 2010.06.03 18:57:09.
