data_PCOD9509550
_publ_section_title
;
Structure prediction by ZEFSAII (Michael W. Deem and Ramdas Pophale) SiO2 
 PCOD9509550
Probable space group: C C C A
;
_chemical_formula_sum "Si O2"
_cell_formula_units_Z 72
_cell_length_a 8.347444
_cell_length_b 24.780927
_cell_length_c 14.748680
_cell_angle_alpha 90.000000
_cell_angle_beta 90.000000
_cell_angle_gamma 90.000000
_cell_volume 3050.873604
_symmetry_space_group_name_H-M "C C C A"
_symmetry_group_IT_number 68
_space_group.IT_coordinate_system_code '2'
_symmetry_cell_setting 'orthorhombic'
loop_
_space_group_symop_operation_xyz
x,y,z
-x,1/2-y,z
x,1/2-y,1/2-z
-x,y,1/2-z
-x,-y,-z
x,1/2+y,-z
-x,1/2+y,1/2+z
x,-y,1/2+z
1/2+x,1/2+y,z
1/2-x,-y,z
1/2+x,-y,1/2-z
1/2-x,1/2+y,1/2-z
1/2-x,1/2-y,-z
1/2+x,y,-z
1/2-x,y,1/2+z
1/2+x,1/2-y,1/2+z
loop_
_atom_site_type_symbol
_atom_site_label
_atom_site_fract_x
_atom_site_fract_y
_atom_site_fract_z
Si Si1 0.859540 0.294646 0.903587
Si Si2 0.000000 0.574216 0.750000
Si Si3 0.821326 0.639323 0.231374
Si Si4 0.135612 0.149141 0.520649
Si Si5 0.096990 0.534330 0.571582
O O1 0.827531 0.309770 0.799444
O O2 0.000000 0.250000 0.903587
O O3 0.947171 0.343026 0.958755
O O4 0.693285 0.300264 0.958203
O O5 0.835133 0.606986 0.761196
O O6 0.015512 0.541918 0.842045
O O7 0.798772 0.650809 0.124308
O O8 0.000000 0.614217 0.250000
O O9 0.148715 0.091685 0.471510
O O10 0.250000 0.500000 0.600472
O O11 0.000000 0.500000 0.500000
#
# Coordination Sequence:
#
# PCOD9509550 Si02
#       5
#    16   8  16  16  16
#     4  11  23  44  74 108 146 196 251 315 391 462
#     4  12  24  48  74 107 152 200 253 320 392 450
#     4  10  24  42  76 102 152 202 245 312 392 455
#     4  11  23  45  70 103 151 194 245 318 385 450
#     4  12  27  46  73 111 154 203 264 317 390 476
#
# _framework density 23.599796000000001
#
# number of rings (size 3 to 8) (size 9 to 14) (size 15 to 20)
#    0.000    0.889    2.222    4.667    3.111    6.667 
#    0.000    0.000    0.000    0.000    0.000    0.000 
#    0.000    0.000    0.000    0.000    0.000    0.000 
#
# Total GULP energy -200837.096144 kJ/mol
# GULP energy per Si atom -5578.808226 kJ/mol
# Density = 2.354608 g / cm^3
# Si number density = 23.599796 Si / 1000 Ang^3
#
#
#
# Elastic Constant Matrix: (Units=GPa)
#
#
# Indices 1 2 3 4 5 6 
#
# 1 80.1911 28.6713 31.6791 0.0000 0.0000 0.0000
# 2 28.6713 104.3993 55.8584 0.0000 0.0000 0.0000
# 3 31.6791 55.8584 205.1030 0.0000 0.0000 0.0000
# 4 0.0000 0.0000 0.0000 27.3726 0.0000 0.0000
# 5 0.0000 0.0000 0.0000 0.0000 41.7858 0.0000
# 6 0.0000 0.0000 0.0000 0.0000 0.0000 46.0582
#
#
#
# Elastic Compliance Matrix: (Units=1/GPa)
#
#
# Indices 1 2 3 4 5 6 
#
# 1 0.014126 -0.003175 -0.001317 0.000000 0.000000 0.000000
# 2 -0.003175 0.011926 -0.002758 0.000000 0.000000 0.000000
# 3 -0.001317 -0.002758 0.005830 0.000000 0.000000 0.000000
# 4 0.000000 0.000000 0.000000 0.036533 0.000000 0.000000
# 5 0.000000 0.000000 0.000000 0.000000 0.023932 0.000000
# 6 0.000000 0.000000 0.000000 0.000000 0.000000 0.021712
#
#
# Mechanical properties :
#
#
# Convention : Reuss Voigt Hill
#
# Bulk Modulus (GPa) = 57.52810 69.12343 63.32576
# Shear Modulus (GPa) = 37.21605 41.27563 39.24584
#
# Velocity S-wave (km/s) = 3.97541 4.18662 4.08238
# Velocity P-wave (km/s) = 6.74546 7.26112 7.00804
#
# Compressibility (1/GPa) = 0.01738281
#
# Stress axis : x y z
#
# Youngs Moduli (GPa) = 70.79356 83.85118 171.52480
#
# Poissons Ratio (x) = 0.26619 0.22593
# Poissons Ratio (y) = 0.22474 0.47300
# Poissons Ratio (z) = 0.09325 0.23123
#
# Static dielectric constant tensor:
#      x y z
#    x 2.243710 0.000000 0.000000 
#    y 0.000000 1.989530 0.000000 
#    z 0.000000 0.000000 1.892540 
# 
# From -- ./inp_files/19480.got.cif
#   From: 2010.05.17/outbox.cif.g08.bks.cpg/sg68_10_cif.got.tgz:19480.got - 2010.06.03 18:57:09.
