data_PCOD9509402
_publ_section_title
;
Structure prediction by ZEFSAII (Michael W. Deem and Ramdas Pophale) SiO2 
 PCOD9509402
Probable space group: C C C A
;
_chemical_formula_sum "Si O2"
_cell_formula_units_Z 84
_cell_length_a 23.934940
_cell_length_b 20.101742
_cell_length_c 8.654787
_cell_angle_alpha 90.000000
_cell_angle_beta 90.000000
_cell_angle_gamma 90.000000
_cell_volume 4164.112190
_symmetry_space_group_name_H-M "C C C A"
_symmetry_group_IT_number 68
_space_group.IT_coordinate_system_code '2'
_symmetry_cell_setting 'orthorhombic'
loop_
_space_group_symop_operation_xyz
x,y,z
-x,1/2-y,z
x,1/2-y,1/2-z
-x,y,1/2-z
-x,-y,-z
x,1/2+y,-z
-x,1/2+y,1/2+z
x,-y,1/2+z
1/2+x,1/2+y,z
1/2-x,-y,z
1/2+x,-y,1/2-z
1/2-x,1/2+y,1/2-z
1/2-x,1/2-y,-z
1/2+x,y,-z
1/2-x,y,1/2+z
1/2+x,1/2-y,1/2+z
loop_
_atom_site_type_symbol
_atom_site_label
_atom_site_fract_x
_atom_site_fract_y
_atom_site_fract_z
Si Si1 0.909665 0.586092 0.554214
Si Si2 0.734300 0.750000 0.750000
Si Si3 0.419226 0.820023 0.508773
Si Si4 0.000000 0.250000 0.750000
Si Si5 0.000000 0.153580 0.250000
Si Si6 0.567204 0.551401 0.706662
Si Si7 0.828225 0.706190 0.519797
O O1 0.906546 0.518132 0.650484
O O2 0.909040 0.572755 0.372047
O O3 0.865495 0.645120 0.576904
O O4 0.969035 0.613414 0.614503
O O5 0.775529 0.714062 0.631261
O O6 0.695773 0.800367 0.653391
O O7 0.459182 0.790075 0.640001
O O8 0.451454 0.812137 0.347005
O O9 0.416487 0.895780 0.571421
O O10 0.364285 0.774649 0.490683
O O11 0.500000 0.545946 0.750000
#
# Coordination Sequence:
#
# PCOD9509402 Si02
#       7
#    16   8  16   4   8  16  16
#     4  12  24  39  63  93 136 178 222 246 328 390
#     4  10  23  46  70  88 124 152 227 298 358 362
#     4  12  23  38  64  95 137 176 221 256 329 384
#     4  12  22  36  56  94 144 182 210 262 292 410
#     4  12  22  36  56  93 138 171 210 262 288 408
#     4  12  22  41  59  94 145 192 200 250 306 406
#     4  11  24  43  68  96 116 170 218 290 331 394
#
# _framework density 20.172367999999999
#
# number of rings (size 3 to 8) (size 9 to 14) (size 15 to 20)
#    0.000    0.381    3.810    6.857    0.000    2.667 
#    0.000    0.000    0.000   19.429    0.000    0.000 
#    0.000    0.000    0.000    0.000    0.000    0.000 
#
# Total GULP energy -234416.431521 kJ/mol
# GULP energy per Si atom -5581.343608 kJ/mol
# Density = 2.012645 g / cm^3
# Si number density = 20.172368 Si / 1000 Ang^3
#
#
#
# Elastic Constant Matrix: (Units=GPa)
#
#
# Indices 1 2 3 4 5 6 
#
# 1 79.3203 48.8247 29.6581 0.0000 0.0000 0.0000
# 2 48.8247 108.2804 35.3813 0.0000 0.0000 0.0000
# 3 29.6581 35.3813 117.3160 0.0000 0.0000 0.0000
# 4 0.0000 0.0000 0.0000 40.0251 0.0000 0.0000
# 5 0.0000 0.0000 0.0000 0.0000 36.8531 0.0000
# 6 0.0000 0.0000 0.0000 0.0000 0.0000 10.3657
#
#
#
# Elastic Compliance Matrix: (Units=1/GPa)
#
#
# Indices 1 2 3 4 5 6 
#
# 1 0.018009 -0.007358 -0.002334 0.000000 0.000000 0.000000
# 2 -0.007358 0.013251 -0.002136 0.000000 0.000000 0.000000
# 3 -0.002334 -0.002136 0.009758 0.000000 0.000000 0.000000
# 4 0.000000 0.000000 0.000000 0.024984 0.000000 0.000000
# 5 0.000000 0.000000 0.000000 0.000000 0.027135 0.000000
# 6 0.000000 0.000000 0.000000 0.000000 0.000000 0.096472
#
#
# Mechanical properties :
#
#
# Convention : Reuss Voigt Hill
#
# Bulk Modulus (GPa) = 57.59540 59.18277 58.38908
# Shear Modulus (GPa) = 22.82565 30.18562 26.50563
#
# Velocity S-wave (km/s) = 3.36747 3.87251 3.62879
# Velocity P-wave (km/s) = 6.61313 7.02832 6.82388
#
# Compressibility (1/GPa) = 0.01736250
#
# Stress axis : x y z
#
# Youngs Moduli (GPa) = 55.52884 75.46588 102.47754
#
# Poissons Ratio (x) = 0.55526 0.23915
# Poissons Ratio (y) = 0.40857 0.21892
# Poissons Ratio (z) = 0.12959 0.16122
#
# Static dielectric constant tensor:
#      x y z
#    x 1.695380 0.000000 0.000000 
#    y 0.000000 1.328920 0.000000 
#    z 0.000000 0.000000 1.729240 
# 
# From -- ./inp_files/7097.got.cif
#   From: 2010.05.17/outbox.cif.g08.bks.cpg/sg68_4_cif.got.tgz:7097.got - 2010.06.03 18:57:09.
