data_PCOD9509836
_publ_section_title
;
Structure prediction by ZEFSAII (Michael W. Deem and Ramdas Pophale) SiO2 
 PCOD9509836
Probable space group: C C C A
;
_chemical_formula_sum "Si O2"
_cell_formula_units_Z 88
_cell_length_a 10.811908
_cell_length_b 15.463890
_cell_length_c 23.091645
_cell_angle_alpha 90.000000
_cell_angle_beta 90.000000
_cell_angle_gamma 90.000000
_cell_volume 3860.788096
_symmetry_space_group_name_H-M "C C C A"
_symmetry_group_IT_number 68
_space_group.IT_coordinate_system_code '2'
_symmetry_cell_setting 'orthorhombic'
loop_
_space_group_symop_operation_xyz
x,y,z
-x,1/2-y,z
x,1/2-y,1/2-z
-x,y,1/2-z
-x,-y,-z
x,1/2+y,-z
-x,1/2+y,1/2+z
x,-y,1/2+z
1/2+x,1/2+y,z
1/2-x,-y,z
1/2+x,-y,1/2-z
1/2-x,1/2+y,1/2-z
1/2-x,1/2-y,-z
1/2+x,y,-z
1/2-x,y,1/2+z
1/2+x,1/2-y,1/2+z
loop_
_atom_site_type_symbol
_atom_site_label
_atom_site_fract_x
_atom_site_fract_y
_atom_site_fract_z
Si Si1 0.859470 0.936352 0.727315
Si Si2 0.250000 0.500000 0.493242
Si Si3 0.334282 0.390839 0.600228
Si Si4 0.000000 0.750000 0.465370
Si Si5 0.263800 0.250000 0.250000
Si Si6 0.600761 0.641513 0.065397
Si Si7 0.680587 0.726595 0.626039
O O1 0.855389 0.947708 0.657465
O O2 0.819007 0.835858 0.737898
O O3 0.000000 0.951372 0.750000
O O4 0.750000 0.000000 0.750832
O O5 0.313027 0.434980 0.538564
O O6 0.353565 0.547754 0.455389
O O7 0.466841 0.347593 0.592470
O O8 0.222911 0.324391 0.610805
O O9 0.093337 0.800739 0.507114
O O10 0.079328 0.694534 0.419681
O O11 0.344866 0.272361 0.306315
O O12 0.698631 0.671746 0.112338
#
# Coordination Sequence:
#
# PCOD9509836 Si02
#       7
#    16   8  16   8   8  16  16
#     4  11  24  48  74 104 139 188 245 303 356 426
#     4  12  24  40  60 104 142 172 216 282 362 410
#     4  11  22  43  68  93 136 182 222 283 355 418
#     4  12  22  39  70  95 138 176 222 290 350 412
#     4  10  25  49  74 102 139 196 241 288 355 432
#     4  12  23  41  68 100 131 177 231 281 342 424
#     4  11  23  44  69  99 132 180 237 281 343 419
#
# _framework density 22.793272999999999
#
# number of rings (size 3 to 8) (size 9 to 14) (size 15 to 20)
#    0.000    0.727    4.545    3.545    0.000    3.273 
#   16.364    0.000    0.000    0.000    0.000    0.000 
#    0.000    0.000    0.000    0.000    0.000    0.000 
#
# Total GULP energy -245604.116713 kJ/mol
# GULP energy per Si atom -5581.911743 kJ/mol
# Density = 2.274139 g / cm^3
# Si number density = 22.793273 Si / 1000 Ang^3
#
#
#
# Elastic Constant Matrix: (Units=GPa)
#
#
# Indices 1 2 3 4 5 6 
#
# 1 80.4820 19.7039 14.8080 0.0000 0.0000 0.0000
# 2 19.7039 67.5665 12.0686 0.0000 0.0000 0.0000
# 3 14.8080 12.0686 127.8656 0.0000 0.0000 0.0000
# 4 0.0000 0.0000 0.0000 10.2304 0.0000 0.0000
# 5 0.0000 0.0000 0.0000 0.0000 -8.3911 0.0000
# 6 0.0000 0.0000 0.0000 0.0000 0.0000 32.6718
#
#
#
# Elastic Compliance Matrix: (Units=1/GPa)
#
#
# Indices 1 2 3 4 5 6 
#
# 1 0.013564 -0.003738 -0.001218 0.000000 0.000000 0.000000
# 2 -0.003738 0.016084 -0.001085 0.000000 0.000000 0.000000
# 3 -0.001218 -0.001085 0.008064 0.000000 0.000000 0.000000
# 4 0.000000 0.000000 0.000000 0.097748 0.000000 0.000000
# 5 0.000000 0.000000 0.000000 0.000000 -0.119173 0.000000
# 6 0.000000 0.000000 0.000000 0.000000 0.000000 0.030607
#
#
# Mechanical properties :
#
#
# Convention : Reuss Voigt Hill
#
# Bulk Modulus (GPa) = 39.01670 41.00834 40.01252
# Shear Modulus (GPa) = 74.05087 22.19113 48.12100
#
# Velocity S-wave (km/s) = 5.70601 3.12361 4.59976
# Velocity P-wave (km/s) = 7.78243 5.57133 6.76779
#
# Compressibility (1/GPa) = 0.02563005
#
# Stress axis : x y z
#
# Youngs Moduli (GPa) = 73.72217 62.17289 124.00491
#
# Poissons Ratio (x) = 0.23241 0.15105
# Poissons Ratio (y) = 0.27558 0.13457
# Poissons Ratio (z) = 0.08980 0.06747
#
# Static dielectric constant tensor:
#      x y z
#    x 1.792670 0.000000 0.000000 
#    y 0.000000 1.941180 0.000000 
#    z 0.000000 0.000000 1.856580 
# 
# From -- ./inp_files/44280.got.cif
#   From: 2010.05.17/outbox.cif.g08.bks.cpg/sg68_23_cif.got.tgz:44280.got - 2010.06.03 18:57:09.
