data_PCOD9509814
_publ_section_title
;
Structure prediction by ZEFSAII (Michael W. Deem and Ramdas Pophale) SiO2 
 PCOD9509814
Probable space group: C C C A
;
_chemical_formula_sum "Si O2"
_cell_formula_units_Z 104
_cell_length_a 19.669899
_cell_length_b 9.226052
_cell_length_c 27.094389
_cell_angle_alpha 90.000000
_cell_angle_beta 90.000000
_cell_angle_gamma 90.000000
_cell_volume 4916.968089
_symmetry_space_group_name_H-M "C C C A"
_symmetry_group_IT_number 68
_space_group.IT_coordinate_system_code '2'
_symmetry_cell_setting 'orthorhombic'
loop_
_space_group_symop_operation_xyz
x,y,z
-x,1/2-y,z
x,1/2-y,1/2-z
-x,y,1/2-z
-x,-y,-z
x,1/2+y,-z
-x,1/2+y,1/2+z
x,-y,1/2+z
1/2+x,1/2+y,z
1/2-x,-y,z
1/2+x,-y,1/2-z
1/2-x,1/2+y,1/2-z
1/2-x,1/2-y,-z
1/2+x,y,-z
1/2-x,y,1/2+z
1/2+x,1/2-y,1/2+z
loop_
_atom_site_type_symbol
_atom_site_label
_atom_site_fract_x
_atom_site_fract_y
_atom_site_fract_z
Si Si1 0.582643 0.749698 0.467220
Si Si2 0.500000 0.250000 0.122016
Si Si3 0.707561 0.635924 0.640723
Si Si4 0.700840 0.863217 0.100535
Si Si5 0.609265 0.330929 0.297821
Si Si6 0.185750 0.896701 0.782096
Si Si7 0.905447 0.572717 0.063326
O O1 0.500000 0.750000 0.460619
O O2 0.631109 0.659277 0.429455
O O3 0.603539 0.691653 0.520900
O O4 0.599602 0.917594 0.461039
O O5 0.558597 0.187049 0.156890
O O6 0.476787 0.117882 0.087545
O O7 0.750000 0.500000 0.660902
O O8 0.752284 0.720546 0.599993
O O9 0.677549 0.747257 0.681700
O O10 0.644813 0.576922 0.609494
O O11 0.686138 0.868964 0.159129
O O12 0.750000 0.000000 0.087558
O O13 0.583185 0.250000 0.250000
O O14 0.623091 0.492294 0.278642
O O15 0.182765 0.750000 0.750000
O O16 0.250000 0.000000 0.770164
#
# Coordination Sequence:
#
# PCOD9509814 Si02
#       7
#    16   8  16  16  16  16  16
#     4  12  27  44  71 101 138 179 238 285 352 419
#     4  10  25  46  70  94 140 182 237 278 356 418
#     4  11  23  44  66 101 140 175 230 276 348 405
#     4  11  25  44  68 101 142 185 222 296 347 408
#     4  11  24  41  70  99 136 184 226 284 343 422
#     4  11  24  40  68 103 136 179 231 286 344 409
#     4  11  26  44  72  98 130 184 228 291 341 424
#
# _framework density 21.151246
#
# number of rings (size 3 to 8) (size 9 to 14) (size 15 to 20)
#    0.000    0.923    5.385    1.154    6.462    1.231 
#    0.000    0.000    0.000    0.000    0.000    0.000 
#    0.000    0.000    0.000    0.000    0.000    0.000 
#
# Total GULP energy -290126.259263 kJ/mol
# GULP energy per Si atom -5579.351140 kJ/mol
# Density = 2.110311 g / cm^3
# Si number density = 21.151246 Si / 1000 Ang^3
#
#
#
# Elastic Constant Matrix: (Units=GPa)
#
#
# Indices 1 2 3 4 5 6 
#
# 1 54.9340 25.8296 20.8706 0.0000 0.0000 0.0000
# 2 25.8296 140.0539 39.3610 0.0000 0.0000 0.0000
# 3 20.8706 39.3610 107.1165 0.0000 0.0000 0.0000
# 4 0.0000 0.0000 0.0000 33.1611 0.0000 0.0000
# 5 0.0000 0.0000 0.0000 0.0000 60.3817 0.0000
# 6 0.0000 0.0000 0.0000 0.0000 0.0000 22.5935
#
#
#
# Elastic Compliance Matrix: (Units=1/GPa)
#
#
# Indices 1 2 3 4 5 6 
#
# 1 0.020729 -0.002997 -0.002937 0.000000 0.000000 0.000000
# 2 -0.002997 0.008396 -0.002501 0.000000 0.000000 0.000000
# 3 -0.002937 -0.002501 0.010827 0.000000 0.000000 0.000000
# 4 0.000000 0.000000 0.000000 0.030156 0.000000 0.000000
# 5 0.000000 0.000000 0.000000 0.000000 0.016561 0.000000
# 6 0.000000 0.000000 0.000000 0.000000 0.000000 0.044261
#
#
# Mechanical properties :
#
#
# Convention : Reuss Voigt Hill
#
# Bulk Modulus (GPa) = 43.32766 52.69188 48.00977
# Shear Modulus (GPa) = 32.15542 37.63013 34.89277
#
# Velocity S-wave (km/s) = 3.90328 4.22251 4.06603
# Velocity P-wave (km/s) = 6.39088 6.98132 6.69261
#
# Compressibility (1/GPa) = 0.02307995
#
# Stress axis : x y z
#
# Youngs Moduli (GPa) = 48.24155 119.10669 92.36157
#
# Poissons Ratio (x) = 0.35702 0.27130
# Poissons Ratio (y) = 0.14460 0.23101
# Poissons Ratio (z) = 0.14171 0.29790
#
# Static dielectric constant tensor:
#      x y z
#    x 1.944320 0.000000 0.000000 
#    y 0.000000 1.312230 0.000000 
#    z 0.000000 0.000000 1.755600 
# 
# From -- ./inp_files/51864.got.cif
#   From: 2010.05.17/outbox.cif.g08.bks.cpg/sg68_26_cif.got.tgz:51864.got - 2010.06.03 18:57:09.
