data_PCOD9509716
_publ_section_title
;
Structure prediction by ZEFSAII (Michael W. Deem and Ramdas Pophale) SiO2 
 PCOD9509716
Probable space group: C C C A
;
_chemical_formula_sum "Si O2"
_cell_formula_units_Z 96
_cell_length_a 12.774720
_cell_length_b 21.073016
_cell_length_c 14.285150
_cell_angle_alpha 90.000000
_cell_angle_beta 90.000000
_cell_angle_gamma 90.000000
_cell_volume 3845.589221
_symmetry_space_group_name_H-M "C C C A"
_symmetry_group_IT_number 68
_space_group.IT_coordinate_system_code '2'
_symmetry_cell_setting 'orthorhombic'
loop_
_space_group_symop_operation_xyz
x,y,z
-x,1/2-y,z
x,1/2-y,1/2-z
-x,y,1/2-z
-x,-y,-z
x,1/2+y,-z
-x,1/2+y,1/2+z
x,-y,1/2+z
1/2+x,1/2+y,z
1/2-x,-y,z
1/2+x,-y,1/2-z
1/2-x,1/2+y,1/2-z
1/2-x,1/2-y,-z
1/2+x,y,-z
1/2-x,y,1/2+z
1/2+x,1/2-y,1/2+z
loop_
_atom_site_type_symbol
_atom_site_label
_atom_site_fract_x
_atom_site_fract_y
_atom_site_fract_z
Si Si1 0.191233 0.227650 0.352957
Si Si2 0.261208 0.595030 0.615378
Si Si3 0.472645 0.816297 0.513623
Si Si4 0.353882 0.538608 0.280584
Si Si5 0.307409 0.142918 0.574404
Si Si6 0.500592 0.074127 0.150101
O O1 0.153065 0.250000 0.250000
O O2 0.266485 0.167238 0.346338
O O3 0.103063 0.201534 0.425818
O O4 0.244651 0.290143 0.398063
O O5 0.167392 0.561935 0.672941
O O6 0.250140 0.601230 0.504009
O O7 0.376028 0.564766 0.629785
O O8 0.500000 0.750000 0.564870
O O9 0.583400 0.836785 0.470729
O O10 0.448375 0.877339 0.577924
O O11 0.250000 0.500000 0.300961
O O12 0.341895 0.603104 0.336946
O O13 0.442251 0.493082 0.327692
O O14 0.500000 0.108174 0.250000
#
# Coordination Sequence:
#
# PCOD9509716 Si02
#       6
#    16  16  16  16  16  16
#     4  11  22  46  80 118 155 196 266 334 413 476
#     4  11  25  47  74 111 151 207 255 327 401 474
#     4   9  23  45  72 114 149 201 259 332 403 468
#     4  12  26  47  71 107 149 207 264 319 387 470
#     4  10  24  47  74 112 152 200 258 333 399 482
#     4  11  25  49  69 103 159 202 268 314 389 486
#
# _framework density 24.963666
#
# number of rings (size 3 to 8) (size 9 to 14) (size 15 to 20)
#    0.000    1.333    3.333    0.500    2.333    8.000 
#    9.000    0.000    0.000    1.000    0.000    0.000 
#    0.000    0.000    0.000    0.000    0.000    0.000 
#
# Total GULP energy -267706.316561 kJ/mol
# GULP energy per Si atom -5577.214928 kJ/mol
# Density = 2.490685 g / cm^3
# Si number density = 24.963666 Si / 1000 Ang^3
#
#
#
# Elastic Constant Matrix: (Units=GPa)
#
#
# Indices 1 2 3 4 5 6 
#
# 1 80.3777 63.1831 49.7454 0.0000 0.0000 0.0000
# 2 63.1831 178.6617 71.4507 0.0000 0.0000 0.0000
# 3 49.7454 71.4507 149.7008 0.0000 0.0000 0.0000
# 4 0.0000 0.0000 0.0000 41.6235 0.0000 0.0000
# 5 0.0000 0.0000 0.0000 0.0000 26.8274 0.0000
# 6 0.0000 0.0000 0.0000 0.0000 0.0000 36.8032
#
#
#
# Elastic Compliance Matrix: (Units=1/GPa)
#
#
# Indices 1 2 3 4 5 6 
#
# 1 0.018837 -0.005139 -0.003807 0.000000 0.000000 0.000000
# 2 -0.005139 0.008320 -0.002263 0.000000 0.000000 0.000000
# 3 -0.003807 -0.002263 0.009025 0.000000 0.000000 0.000000
# 4 0.000000 0.000000 0.000000 0.024025 0.000000 0.000000
# 5 0.000000 0.000000 0.000000 0.000000 0.037275 0.000000
# 6 0.000000 0.000000 0.000000 0.000000 0.000000 0.027172
#
#
# Mechanical properties :
#
#
# Convention : Reuss Voigt Hill
#
# Bulk Modulus (GPa) = 72.65438 86.38873 79.52156
# Shear Modulus (GPa) = 32.96854 36.00821 34.48838
#
# Velocity S-wave (km/s) = 3.63803 3.80205 3.72094
# Velocity P-wave (km/s) = 6.84210 7.34541 7.09821
#
# Compressibility (1/GPa) = 0.01376380
#
# Stress axis : x y z
#
# Youngs Moduli (GPa) = 53.08684 120.19586 110.80222
#
# Poissons Ratio (x) = 0.61773 0.42178
# Poissons Ratio (y) = 0.27283 0.25076
# Poissons Ratio (z) = 0.20208 0.27202
#
# Static dielectric constant tensor:
#      x y z
#    x 2.127280 0.000000 0.000000 
#    y 0.000000 1.782850 0.000000 
#    z 0.000000 0.000000 2.059900 
# 
# From -- ./inp_files/22332.got.cif
#   From: 2010.05.17/outbox.cif.g08.bks.cpg/sg68_12_cif.got.tgz:22332.got - 2010.06.03 18:57:09.
