data_PCOD9509177
_publ_section_title
;
Structure prediction by ZEFSAII (Michael W. Deem and Ramdas Pophale) SiO2 
 PCOD9509177
Probable space group: C C C A
;
_chemical_formula_sum "Si O2"
_cell_formula_units_Z 96
_cell_length_a 8.444881
_cell_length_b 24.685134
_cell_length_c 23.128696
_cell_angle_alpha 90.000000
_cell_angle_beta 90.000000
_cell_angle_gamma 90.000000
_cell_volume 4821.477796
_symmetry_space_group_name_H-M "C C C A"
_symmetry_group_IT_number 68
_space_group.IT_coordinate_system_code '2'
_symmetry_cell_setting 'orthorhombic'
loop_
_space_group_symop_operation_xyz
x,y,z
-x,1/2-y,z
x,1/2-y,1/2-z
-x,y,1/2-z
-x,-y,-z
x,1/2+y,-z
-x,1/2+y,1/2+z
x,-y,1/2+z
1/2+x,1/2+y,z
1/2-x,-y,z
1/2+x,-y,1/2-z
1/2-x,1/2+y,1/2-z
1/2-x,1/2-y,-z
1/2+x,y,-z
1/2-x,y,1/2+z
1/2+x,1/2-y,1/2+z
loop_
_atom_site_type_symbol
_atom_site_label
_atom_site_fract_x
_atom_site_fract_y
_atom_site_fract_z
Si Si1 0.187596 0.832433 0.742214
Si Si2 0.686600 0.245272 0.160066
Si Si3 0.201745 0.796970 0.955618
Si Si4 0.189020 0.061351 0.574902
Si Si5 0.059772 0.623697 0.998086
Si Si6 0.160000 0.443003 0.788154
O O1 0.282778 0.801714 0.792924
O O2 0.249967 0.801179 0.685914
O O3 0.232811 0.894722 0.736929
O O4 0.000000 0.824392 0.750000
O O5 0.500000 0.250000 0.146271
O O6 0.791562 0.229990 0.105930
O O7 0.326346 0.846502 0.956619
O O8 0.250000 0.750000 0.000000
O O9 0.043237 0.827003 0.973496
O O10 0.335659 0.098384 0.553286
O O11 0.140363 0.067318 0.642398
O O12 0.047695 0.079996 0.531904
O O13 0.250000 0.000000 0.566579
O O14 0.250000 0.500000 0.782738
O O15 0.000000 0.443893 0.750000
#
# Coordination Sequence:
#
# PCOD9509177 Si02
#       6
#    16  16  16  16  16  16
#     4  11  25  41  65  92 129 172 225 277 335 412
#     4  11  23  40  63  94 129 177 219 274 341 404
#     4  11  24  38  63  96 137 172 222 274 341 404
#     4  10  23  44  71  97 134 173 226 285 341 402
#     4  10  23  41  65 101 130 180 219 278 342 407
#     4  11  25  46  71  99 135 177 227 286 347 407
#
# _framework density 19.910907000000002
#
# number of rings (size 3 to 8) (size 9 to 14) (size 15 to 20)
#    0.000    1.333    0.000    5.500   11.667    1.333 
#    0.000    0.833    0.000    0.000    0.000    0.000 
#    0.000    0.000    0.000    0.000    0.000    0.000 
#
# Total GULP energy -268160.988330 kJ/mol
# GULP energy per Si atom -5586.687257 kJ/mol
# Density = 1.986559 g / cm^3
# Si number density = 19.910907 Si / 1000 Ang^3
#
#
#
# Elastic Constant Matrix: (Units=GPa)
#
#
# Indices 1 2 3 4 5 6 
#
# 1 79.7175 9.6775 11.1476 0.0000 0.0000 0.0000
# 2 9.6775 105.9337 24.3737 0.0000 0.0000 0.0000
# 3 11.1476 24.3737 82.5661 0.0000 0.0000 0.0000
# 4 0.0000 0.0000 0.0000 7.4643 0.0000 0.0000
# 5 0.0000 0.0000 0.0000 0.0000 16.8438 0.0000
# 6 0.0000 0.0000 0.0000 0.0000 0.0000 35.5554
#
#
#
# Elastic Compliance Matrix: (Units=1/GPa)
#
#
# Indices 1 2 3 4 5 6 
#
# 1 0.012854 -0.000831 -0.001490 0.000000 0.000000 0.000000
# 2 -0.000831 0.010182 -0.002893 0.000000 0.000000 0.000000
# 3 -0.001490 -0.002893 0.013167 0.000000 0.000000 0.000000
# 4 0.000000 0.000000 0.000000 0.133970 0.000000 0.000000
# 5 0.000000 0.000000 0.000000 0.000000 0.059369 0.000000
# 6 0.000000 0.000000 0.000000 0.000000 0.000000 0.028125
#
#
# Mechanical properties :
#
#
# Convention : Reuss Voigt Hill
#
# Bulk Modulus (GPa) = 38.80115 39.84609 39.32362
# Shear Modulus (GPa) = 18.07098 26.84061 22.45579
#
# Velocity S-wave (km/s) = 3.01589 3.67554 3.36194
# Velocity P-wave (km/s) = 5.62647 6.16996 5.90447
#
# Compressibility (1/GPa) = 0.02577243
#
# Stress axis : x y z
#
# Youngs Moduli (GPa) = 77.79934 98.21702 75.94853
#
# Poissons Ratio (x) = 0.08166 0.11316
# Poissons Ratio (y) = 0.06468 0.21975
# Poissons Ratio (z) = 0.11592 0.28418
#
# Static dielectric constant tensor:
#      x y z
#    x 1.728900 0.000000 0.000000 
#    y 0.000000 1.654970 0.000000 
#    z 0.000000 0.000000 1.953320 
# 
# From -- ./inp_files/36474.got.cif
#   From: 2010.05.17/outbox.cif.g08.bks.cpg/sg68_19_cif.got.tgz:36474.got - 2010.06.03 18:57:09.
