data_PCOD9509823
_publ_section_title
;
Structure prediction by ZEFSAII (Michael W. Deem and Ramdas Pophale) SiO2 
 PCOD9509823
Probable space group: C C C A
;
_chemical_formula_sum "Si O2"
_cell_formula_units_Z 60
_cell_length_a 10.221590
_cell_length_b 11.825301
_cell_length_c 24.641034
_cell_angle_alpha 90.000000
_cell_angle_beta 90.000000
_cell_angle_gamma 90.000000
_cell_volume 2978.445028
_symmetry_space_group_name_H-M "C C C A"
_symmetry_group_IT_number 68
_space_group.IT_coordinate_system_code '2'
_symmetry_cell_setting 'orthorhombic'
loop_
_space_group_symop_operation_xyz
x,y,z
-x,1/2-y,z
x,1/2-y,1/2-z
-x,y,1/2-z
-x,-y,-z
x,1/2+y,-z
-x,1/2+y,1/2+z
x,-y,1/2+z
1/2+x,1/2+y,z
1/2-x,-y,z
1/2+x,-y,1/2-z
1/2-x,1/2+y,1/2-z
1/2-x,1/2-y,-z
1/2+x,y,-z
1/2-x,y,1/2+z
1/2+x,1/2-y,1/2+z
loop_
_atom_site_type_symbol
_atom_site_label
_atom_site_fract_x
_atom_site_fract_y
_atom_site_fract_z
Si Si1 0.997626 0.877085 0.884320
Si Si2 0.500000 0.750000 0.750000
Si Si3 0.750000 0.000000 0.921552
Si Si4 0.881675 0.675061 0.002405
Si Si5 0.604807 0.029087 0.207292
O O1 0.000000 0.750000 0.860533
O O2 0.073263 0.970252 0.849440
O O3 0.067007 0.863981 0.943266
O O4 0.847125 0.917726 0.889275
O O5 0.418223 0.835997 0.787758
O O6 0.846526 0.071056 0.959716
O O7 0.000000 0.750000 0.025502
O O8 0.750000 0.750000 0.000000
O O9 0.500000 0.981011 0.250000
O O10 0.750000 0.000000 0.224370
#
# Coordination Sequence:
#
# PCOD9509823 Si02
#       5
#    16   4   8  16  16
#     4  11  25  42  69 109 137 191 244 285 363 427
#     4   8  24  52  68 108 140 172 238 294 372 420
#     4  12  24  44  70  98 154 186 240 292 352 414
#     4  11  23  44  66  99 144 187 239 291 339 420
#     4  10  25  47  76 102 144 182 231 305 365 428
#
# _framework density 20.144739999999999
#
# number of rings (size 3 to 8) (size 9 to 14) (size 15 to 20)
#    0.800    0.533    5.333    0.800    3.733    4.800 
#    2.400    0.000    0.000    0.000    0.000    0.000 
#    0.000    0.000    0.000    0.000    0.000    0.000 
#
# Total GULP energy -167355.712300 kJ/mol
# GULP energy per Si atom -5578.523743 kJ/mol
# Density = 2.009889 g / cm^3
# Si number density = 20.144740 Si / 1000 Ang^3
#
#
#
# Elastic Constant Matrix: (Units=GPa)
#
#
# Indices 1 2 3 4 5 6 
#
# 1 167.3558 61.5649 30.5293 0.0000 0.0000 0.0000
# 2 61.5649 155.6834 36.3073 0.0000 0.0000 0.0000
# 3 30.5293 36.3073 38.1256 0.0000 0.0000 0.0000
# 4 0.0000 0.0000 0.0000 11.5112 0.0000 0.0000
# 5 0.0000 0.0000 0.0000 0.0000 -18.8016 0.0000
# 6 0.0000 0.0000 0.0000 0.0000 0.0000 56.1637
#
#
#
# Elastic Compliance Matrix: (Units=1/GPa)
#
#
# Indices 1 2 3 4 5 6 
#
# 1 0.007452 -0.001999 -0.004063 0.000000 0.000000 0.000000
# 2 -0.001999 0.008793 -0.006773 0.000000 0.000000 0.000000
# 3 -0.004063 -0.006773 0.035933 0.000000 0.000000 0.000000
# 4 0.000000 0.000000 0.000000 0.086872 0.000000 0.000000
# 5 0.000000 0.000000 0.000000 0.000000 -0.053187 0.000000
# 6 0.000000 0.000000 0.000000 0.000000 0.000000 0.017805
#
#
# Mechanical properties :
#
#
# Convention : Reuss Voigt Hill
#
# Bulk Modulus (GPa) = 37.72596 68.66309 53.19453
# Shear Modulus (GPa) = 36.18568 25.29219 30.73894
#
# Velocity S-wave (km/s) = 4.24286 3.54718 3.91052
# Velocity P-wave (km/s) = 6.53992 7.13691 6.84493
#
# Compressibility (1/GPa) = 0.02650694
#
# Stress axis : x y z
#
# Youngs Moduli (GPa) = 134.19214 113.72049 27.82957
#
# Poissons Ratio (x) = 0.22736 0.11308
# Poissons Ratio (y) = 0.26829 0.18849
# Poissons Ratio (z) = 0.54527 0.77025
#
# Static dielectric constant tensor:
#      x y z
#    x 1.695870 0.000000 0.000000 
#    y 0.000000 1.785090 0.000000 
#    z 0.000000 0.000000 1.720900 
# 
# From -- ./inp_files/48761.got.cif
#   From: 2010.05.17/outbox.cif.g08.bks.cpg/sg68_25_cif.got.tgz:48761.got - 2010.06.03 18:57:09.
