data_PCOD9509464
_publ_section_title
;
Structure prediction by ZEFSAII (Michael W. Deem and Ramdas Pophale) SiO2 
 PCOD9509464
Probable space group: C C C A
;
_chemical_formula_sum "Si O2"
_cell_formula_units_Z 56
_cell_length_a 27.145634
_cell_length_b 9.403906
_cell_length_c 9.333531
_cell_angle_alpha 90.000000
_cell_angle_beta 90.000000
_cell_angle_gamma 90.000000
_cell_volume 2382.617037
_symmetry_space_group_name_H-M "C C C A"
_symmetry_group_IT_number 68
_space_group.IT_coordinate_system_code '2'
_symmetry_cell_setting 'orthorhombic'
loop_
_space_group_symop_operation_xyz
x,y,z
-x,1/2-y,z
x,1/2-y,1/2-z
-x,y,1/2-z
-x,-y,-z
x,1/2+y,-z
-x,1/2+y,1/2+z
x,-y,1/2+z
1/2+x,1/2+y,z
1/2-x,-y,z
1/2+x,-y,1/2-z
1/2-x,1/2+y,1/2-z
1/2-x,1/2-y,-z
1/2+x,y,-z
1/2-x,y,1/2+z
1/2+x,1/2-y,1/2+z
loop_
_atom_site_type_symbol
_atom_site_label
_atom_site_fract_x
_atom_site_fract_y
_atom_site_fract_z
Si Si1 0.068859 0.811006 0.015716
Si Si2 0.700712 0.092320 0.814927
Si Si3 0.000000 0.250000 0.750000
Si Si4 0.500000 0.750000 0.250000
Si Si5 0.862608 0.049807 0.575369
O O1 0.114701 0.911682 0.997905
O O2 0.038499 0.815083 0.866774
O O3 0.092508 0.661245 0.065372
O O4 0.031655 0.847502 0.143302
O O5 0.706703 0.250000 0.750000
O O6 0.659858 0.004521 0.723926
O O7 0.681302 0.107346 0.976546
O O8 0.750000 0.000000 0.810702
#
# Coordination Sequence:
#
# PCOD9509464 Si02
#       5
#    16  16   4   4  16
#     4  11  24  42  69 100 142 188 229 292 342 411
#     4  12  28  47  73 107 142 180 234 293 350 424
#     4  10  24  40  64 104 134 184 240 280 344 408
#     4  10  24  44  68 104 146 180 240 292 340 400
#     4  12  25  47  72 102 144 188 232 285 357 412
#
# _framework density 23.503568000000001
#
# number of rings (size 3 to 8) (size 9 to 14) (size 15 to 20)
#    0.000    0.571    2.857    4.286    4.000    9.143 
#    0.000    0.000    0.000    0.000    0.000    0.000 
#    0.000    0.000    0.000    0.000    0.000    0.000 
#
# Total GULP energy -156531.242169 kJ/mol
# GULP energy per Si atom -5590.401506 kJ/mol
# Density = 2.345007 g / cm^3
# Si number density = 23.503568 Si / 1000 Ang^3
#
#
#
# Elastic Constant Matrix: (Units=GPa)
#
#
# Indices 1 2 3 4 5 6 
#
# 1 93.4716 15.9351 49.7514 0.0000 0.0000 0.0000
# 2 15.9351 68.5047 16.6505 0.0000 0.0000 0.0000
# 3 49.7514 16.6505 142.7951 0.0000 0.0000 0.0000
# 4 0.0000 0.0000 0.0000 7.8749 0.0000 0.0000
# 5 0.0000 0.0000 0.0000 0.0000 67.9682 0.0000
# 6 0.0000 0.0000 0.0000 0.0000 0.0000 98.8522
#
#
#
# Elastic Compliance Matrix: (Units=1/GPa)
#
#
# Indices 1 2 3 4 5 6 
#
# 1 0.013406 -0.002041 -0.004433 0.000000 0.000000 0.000000
# 2 -0.002041 0.015334 -0.001077 0.000000 0.000000 0.000000
# 3 -0.004433 -0.001077 0.008673 0.000000 0.000000 0.000000
# 4 0.000000 0.000000 0.000000 0.126986 0.000000 0.000000
# 5 0.000000 0.000000 0.000000 0.000000 0.014713 0.000000
# 6 0.000000 0.000000 0.000000 0.000000 0.000000 0.010116
#
#
# Mechanical properties :
#
#
# Convention : Reuss Voigt Hill
#
# Bulk Modulus (GPa) = 44.81972 52.16061 48.49017
# Shear Modulus (GPa) = 23.61096 49.76802 36.68949
#
# Velocity S-wave (km/s) = 3.17293 4.60659 3.95526
# Velocity P-wave (km/s) = 5.70386 7.10880 6.44473
#
# Compressibility (1/GPa) = 0.02231161
#
# Stress axis : x y z
#
# Youngs Moduli (GPa) = 74.59488 65.21439 115.30001
#
# Poissons Ratio (x) = 0.13310 0.51109
# Poissons Ratio (y) = 0.15224 0.12417
# Poissons Ratio (z) = 0.33066 0.07023
#
# Static dielectric constant tensor:
#      x y z
#    x 1.896050 0.000000 0.000000 
#    y 0.000000 2.058550 0.000000 
#    z 0.000000 0.000000 1.857720 
# 
# From -- ./inp_files/8505.got.cif
#   From: 2010.05.17/outbox.cif.g08.bks.cpg/sg68_5_cif.got.tgz:8505.got - 2010.06.03 18:57:09.
