data_PCOD9509435
_publ_section_title
;
Structure prediction by ZEFSAII (Michael W. Deem and Ramdas Pophale) SiO2 
 PCOD9509435
Probable space group: C C C A
;
_chemical_formula_sum "Si O2"
_cell_formula_units_Z 60
_cell_length_a 22.357533
_cell_length_b 5.093348
_cell_length_c 22.849945
_cell_angle_alpha 90.000000
_cell_angle_beta 90.000000
_cell_angle_gamma 90.000000
_cell_volume 2602.030540
_symmetry_space_group_name_H-M "C C C A"
_symmetry_group_IT_number 68
_space_group.IT_coordinate_system_code '2'
_symmetry_cell_setting 'orthorhombic'
loop_
_space_group_symop_operation_xyz
x,y,z
-x,1/2-y,z
x,1/2-y,1/2-z
-x,y,1/2-z
-x,-y,-z
x,1/2+y,-z
-x,1/2+y,1/2+z
x,-y,1/2+z
1/2+x,1/2+y,z
1/2-x,-y,z
1/2+x,-y,1/2-z
1/2-x,1/2+y,1/2-z
1/2-x,1/2-y,-z
1/2+x,y,-z
1/2-x,y,1/2+z
1/2+x,1/2-y,1/2+z
loop_
_atom_site_type_symbol
_atom_site_label
_atom_site_fract_x
_atom_site_fract_y
_atom_site_fract_z
Si Si1 0.000000 0.750000 0.250000
Si Si2 0.397345 0.266040 0.165900
Si Si3 0.624489 0.868153 0.536098
Si Si4 0.250000 0.000000 0.914724
Si Si5 0.820794 0.728143 0.686200
O O1 0.047984 0.854591 0.202689
O O2 0.407096 0.293904 0.096767
O O3 0.374690 0.554246 0.186358
O O4 0.344341 0.062983 0.176831
O O5 0.610024 0.657158 0.486635
O O6 0.696177 0.870751 0.548961
O O7 0.281797 0.198860 0.869863
O O8 0.791423 0.750000 0.750000
#
# Coordination Sequence:
#
# PCOD9509435 Si02
#       5
#     4  16  16   8  16
#     4  12  24  50  76  98 128 170 232 284 368 392
#     4  11  25  42  70  99 128 173 224 284 333 393
#     4  11  23  43  63  94 137 177 222 267 316 398
#     4  10  24  36  68  94 134 188 218 254 330 398
#     4  11  22  42  59 102 142 170 217 272 333 399
#
# _framework density 23.058917000000001
#
# number of rings (size 3 to 8) (size 9 to 14) (size 15 to 20)
#    0.000    1.067    2.667    4.000    0.000   14.933 
#    0.000    1.333    0.000    0.000    0.000    0.000 
#    0.000    0.000    0.000    0.000    0.000    0.000 
#
# Total GULP energy -167590.572575 kJ/mol
# GULP energy per Si atom -5586.352419 kJ/mol
# Density = 2.300643 g / cm^3
# Si number density = 23.058917 Si / 1000 Ang^3
#
#
#
# Elastic Constant Matrix: (Units=GPa)
#
#
# Indices 1 2 3 4 5 6 
#
# 1 46.5661 9.3064 6.8750 0.0000 0.0000 0.0000
# 2 9.3064 83.1545 20.7563 0.0000 0.0000 0.0000
# 3 6.8750 20.7563 107.9644 0.0000 0.0000 0.0000
# 4 0.0000 0.0000 0.0000 17.4085 0.0000 0.0000
# 5 0.0000 0.0000 0.0000 0.0000 83.9003 0.0000
# 6 0.0000 0.0000 0.0000 0.0000 0.0000 -8.8054
#
#
#
# Elastic Compliance Matrix: (Units=1/GPa)
#
#
# Indices 1 2 3 4 5 6 
#
# 1 0.022064 -0.002225 -0.000977 0.000000 0.000000 0.000000
# 2 -0.002225 0.012856 -0.002330 0.000000 0.000000 0.000000
# 3 -0.000977 -0.002330 0.009772 0.000000 0.000000 0.000000
# 4 0.000000 0.000000 0.000000 0.057443 0.000000 0.000000
# 5 0.000000 0.000000 0.000000 0.000000 0.011919 0.000000
# 6 0.000000 0.000000 0.000000 0.000000 0.000000 -0.113567
#
#
# Mechanical properties :
#
#
# Convention : Reuss Voigt Hill
#
# Bulk Modulus (GPa) = 29.73734 34.61782 32.17758
# Shear Modulus (GPa) = 219.66508 31.88384 125.77446
#
# Velocity S-wave (km/s) = 9.77084 3.72252 7.39346
# Velocity P-wave (km/s) = 11.84131 5.78978 9.32036
#
# Compressibility (1/GPa) = 0.03362776
#
# Stress axis : x y z
#
# Youngs Moduli (GPa) = 45.32291 77.78190 102.32819
#
# Poissons Ratio (x) = 0.17310 0.09999
# Poissons Ratio (y) = 0.10086 0.23842
# Poissons Ratio (z) = 0.04429 0.18123
#
# Static dielectric constant tensor:
#      x y z
#    x 1.911420 0.000000 0.000000 
#    y 0.000000 1.843330 0.000000 
#    z 0.000000 0.000000 1.866710 
# 
# From -- ./inp_files/34950.got.cif
#   From: 2010.05.17/outbox.cif.g08.bks.cpg/sg68_18_cif.got.tgz:34950.got - 2010.06.03 18:57:09.
