data_PCOD9509663
_publ_section_title
;
Structure prediction by ZEFSAII (Michael W. Deem and Ramdas Pophale) SiO2 
 PCOD9509663
Probable space group: C C C A
;
_chemical_formula_sum "Si O2"
_cell_formula_units_Z 60
_cell_length_a 9.501174
_cell_length_b 26.921887
_cell_length_c 10.191337
_cell_angle_alpha 90.000000
_cell_angle_beta 90.000000
_cell_angle_gamma 90.000000
_cell_volume 2606.837330
_symmetry_space_group_name_H-M "C C C A"
_symmetry_group_IT_number 68
_space_group.IT_coordinate_system_code '2'
_symmetry_cell_setting 'orthorhombic'
loop_
_space_group_symop_operation_xyz
x,y,z
-x,1/2-y,z
x,1/2-y,1/2-z
-x,y,1/2-z
-x,-y,-z
x,1/2+y,-z
-x,1/2+y,1/2+z
x,-y,1/2+z
1/2+x,1/2+y,z
1/2-x,-y,z
1/2+x,-y,1/2-z
1/2-x,1/2+y,1/2-z
1/2-x,1/2-y,-z
1/2+x,y,-z
1/2-x,y,1/2+z
1/2+x,1/2-y,1/2+z
loop_
_atom_site_type_symbol
_atom_site_label
_atom_site_fract_x
_atom_site_fract_y
_atom_site_fract_z
Si Si1 0.500000 0.425097 0.250000
Si Si2 0.500000 0.750000 0.750000
Si Si3 0.250000 0.500000 0.239633
Si Si4 0.000000 0.934743 0.750000
Si Si5 0.339389 0.799243 0.528558
Si Si6 0.080521 0.634146 0.985577
O O1 0.365035 0.459401 0.294919
O O2 0.542724 0.392344 0.376686
O O3 0.399928 0.786380 0.670236
O O4 0.371612 0.535086 0.180824
O O5 0.934121 0.903277 0.866159
O O6 0.250000 0.750000 0.500000
O O7 0.236619 0.845013 0.511436
O O8 0.480314 0.817922 0.456238
#
# Coordination Sequence:
#
# PCOD9509663 Si02
#       6
#     8   4   8   8  16  16
#     4  11  25  46  73 104 146 194 239 316 360 448
#     4  12  26  48  72 102 152 196 246 308 364 422
#     4  10  24  46  70 102 144 186 244 296 388 426
#     4  11  26  42  68 104 138 188 241 311 360 453
#     4  12  26  46  71 103 145 199 238 306 363 433
#     4  12  26  45  72 107 146 190 253 296 370 432
#
# _framework density 23.016396
#
# number of rings (size 3 to 8) (size 9 to 14) (size 15 to 20)
#    0.000    0.533    2.667    4.000    3.733    6.400 
#    0.000    0.000    0.000    0.000    0.000    0.000 
#    0.000    0.000    0.000    0.000    0.000    0.000 
#
# Total GULP energy -167053.814717 kJ/mol
# GULP energy per Si atom -5568.460491 kJ/mol
# Density = 2.296401 g / cm^3
# Si number density = 23.016396 Si / 1000 Ang^3
#
#
#
# Elastic Constant Matrix: (Units=GPa)
#
#
# Indices 1 2 3 4 5 6 
#
# 1 139.2087 23.8626 16.2726 0.0000 0.0000 0.0000
# 2 23.8626 83.3011 35.6518 0.0000 0.0000 0.0000
# 3 16.2726 35.6518 93.2298 0.0000 0.0000 0.0000
# 4 0.0000 0.0000 0.0000 -49.0445 0.0000 0.0000
# 5 0.0000 0.0000 0.0000 0.0000 36.1993 0.0000
# 6 0.0000 0.0000 0.0000 0.0000 0.0000 45.2500
#
#
#
# Elastic Compliance Matrix: (Units=1/GPa)
#
#
# Indices 1 2 3 4 5 6 
#
# 1 0.007581 -0.001920 -0.000589 0.000000 0.000000 0.000000
# 2 -0.001920 0.014840 -0.005340 0.000000 0.000000 0.000000
# 3 -0.000589 -0.005340 0.012871 0.000000 0.000000 0.000000
# 4 0.000000 0.000000 0.000000 -0.020390 0.000000 0.000000
# 5 0.000000 0.000000 0.000000 0.000000 0.027625 0.000000
# 6 0.000000 0.000000 0.000000 0.000000 0.000000 0.022099
#
#
# Mechanical properties :
#
#
# Convention : Reuss Voigt Hill
#
# Bulk Modulus (GPa) = 51.03339 51.92373 51.47856
# Shear Modulus (GPa) = 57.56655 22.47779 40.02217
#
# Velocity S-wave (km/s) = 5.00654 3.12845 4.17448
# Velocity P-wave (km/s) = 7.45931 5.97143 6.75645
#
# Compressibility (1/GPa) = 0.01959501
#
# Stress axis : x y z
#
# Youngs Moduli (GPa) = 131.90206 67.38579 77.69389
#
# Poissons Ratio (x) = 0.12935 0.04578
# Poissons Ratio (y) = 0.25320 0.41487
# Poissons Ratio (z) = 0.07772 0.35983
#
# Static dielectric constant tensor:
#      x y z
#    x 1.777850 0.000000 0.000000 
#    y 0.000000 1.961190 0.000000 
#    z 0.000000 0.000000 1.588640 
# 
# From -- ./inp_files/10648.got.cif
#   From: 2010.05.17/outbox.cif.g08.bks.cpg/sg68_6_cif.got.tgz:10648.got - 2010.06.03 18:57:09.
