data_PCOD9509913
_publ_section_title
;
Structure prediction by ZEFSAII (Michael W. Deem and Ramdas Pophale) SiO2 
 PCOD9509913
Probable space group: C C C A
;
_chemical_formula_sum "Si O2"
_cell_formula_units_Z 64
_cell_length_a 17.325863
_cell_length_b 19.227959
_cell_length_c 7.890327
_cell_angle_alpha 90.000000
_cell_angle_beta 90.000000
_cell_angle_gamma 90.000000
_cell_volume 2628.591296
_symmetry_space_group_name_H-M "C C C A"
_symmetry_group_IT_number 68
_space_group.IT_coordinate_system_code '2'
_symmetry_cell_setting 'orthorhombic'
loop_
_space_group_symop_operation_xyz
x,y,z
-x,1/2-y,z
x,1/2-y,1/2-z
-x,y,1/2-z
-x,-y,-z
x,1/2+y,-z
-x,1/2+y,1/2+z
x,-y,1/2+z
1/2+x,1/2+y,z
1/2-x,-y,z
1/2+x,-y,1/2-z
1/2-x,1/2+y,1/2-z
1/2-x,1/2-y,-z
1/2+x,y,-z
1/2-x,y,1/2+z
1/2+x,1/2-y,1/2+z
loop_
_atom_site_type_symbol
_atom_site_label
_atom_site_fract_x
_atom_site_fract_y
_atom_site_fract_z
Si Si1 0.288593 0.750000 0.750000
Si Si2 0.671278 0.463026 0.321376
Si Si3 0.000000 0.161676 0.250000
Si Si4 0.565479 0.059735 0.489282
Si Si5 0.660263 0.830874 0.434637
O O1 0.336138 0.722887 0.591157
O O2 0.233114 0.812280 0.684617
O O3 0.750000 0.500000 0.257691
O O4 0.629879 0.532055 0.385964
O O5 0.672111 0.406567 0.475229
O O6 0.610755 0.431691 0.185409
O O7 0.028441 0.124882 0.422551
O O8 0.083089 0.183987 0.172044
O O9 0.500000 0.000000 0.500000
#
# Coordination Sequence:
#
# PCOD9509913 Si02
#       5
#     8  16   8  16  16
#     4  10  28  55  78 111 146 200 268 316 362 436
#     4  12  26  42  76 116 148 195 248 309 392 455
#     4  12  26  47  76 106 162 201 240 312 386 454
#     4  12  23  43  66 117 158 189 233 301 388 469
#     4  11  27  51  80 106 152 199 255 321 370 446
#
# _framework density 24.347639999999998
#
# number of rings (size 3 to 8) (size 9 to 14) (size 15 to 20)
#    0.000    0.500    5.000    0.750   10.500    2.500 
#    0.000    2.500    0.000    0.000    0.000    0.000 
#    0.000    0.000    0.000    0.000    0.000    0.000 
#
# Total GULP energy -178505.170682 kJ/mol
# GULP energy per Si atom -5578.286584 kJ/mol
# Density = 2.429222 g / cm^3
# Si number density = 24.347640 Si / 1000 Ang^3
#
#
#
# Elastic Constant Matrix: (Units=GPa)
#
#
# Indices 1 2 3 4 5 6 
#
# 1 107.4443 51.5590 51.6237 0.0000 0.0000 0.0000
# 2 51.5590 56.5301 17.7237 0.0000 0.0000 0.0000
# 3 51.6237 17.7237 110.3098 0.0000 0.0000 0.0000
# 4 0.0000 0.0000 0.0000 -497.2870 0.0000 0.0000
# 5 0.0000 0.0000 0.0000 0.0000 99.4380 0.0000
# 6 0.0000 0.0000 0.0000 0.0000 0.0000 -209.0539
#
#
#
# Elastic Compliance Matrix: (Units=1/GPa)
#
#
# Indices 1 2 3 4 5 6 
#
# 1 0.020654 -0.016646 -0.006991 0.000000 0.000000 0.000000
# 2 -0.016646 0.032044 0.002642 0.000000 0.000000 0.000000
# 3 -0.006991 0.002642 0.011913 0.000000 0.000000 0.000000
# 4 0.000000 0.000000 0.000000 -0.002011 0.000000 0.000000
# 5 0.000000 0.000000 0.000000 0.000000 0.010057 0.000000
# 6 0.000000 0.000000 0.000000 0.000000 0.000000 -0.004783
#
#
# Mechanical properties :
#
#
# Convention : Reuss Voigt Hill
#
# Bulk Modulus (GPa) = 44.21024 57.34409 50.77716
# Shear Modulus (GPa) = 42.58817 -111.15539 -34.28361
#
# Velocity S-wave (km/s) = 4.18685 -6.76406 -3.75652
# Velocity P-wave (km/s) = 6.44750 6.11556 1.44398
#
# Compressibility (1/GPa) = 0.02261920
#
# Stress axis : x y z
#
# Youngs Moduli (GPa) = 48.41666 31.20754 83.94323
#
# Poissons Ratio (x) = 0.51948 0.58687
# Poissons Ratio (y) = 0.80594 -0.22174
# Poissons Ratio (z) = 0.33850 -0.08244
#
# Static dielectric constant tensor:
#      x y z
#    x 2.241710 0.000000 0.000000 
#    y 0.000000 2.413960 0.000000 
#    z 0.000000 0.000000 1.767950 
# 
# From -- ./inp_files/5047.got.cif
#   From: 2010.05.17/outbox.cif.g08.bks.cpg/sg68_3_cif.got.tgz:5047.got - 2010.06.03 18:57:09.
