data_PCOD9509338
_publ_section_title
;
Structure prediction by ZEFSAII (Michael W. Deem and Ramdas Pophale) SiO2 
 PCOD9509338
Probable space group: C C C A
;
_chemical_formula_sum "Si O2"
_cell_formula_units_Z 80
_cell_length_a 26.136761
_cell_length_b 8.840586
_cell_length_c 17.145272
_cell_angle_alpha 90.000000
_cell_angle_beta 90.000000
_cell_angle_gamma 90.000000
_cell_volume 3961.659988
_symmetry_space_group_name_H-M "C C C A"
_symmetry_group_IT_number 68
_space_group.IT_coordinate_system_code '2'
_symmetry_cell_setting 'orthorhombic'
loop_
_space_group_symop_operation_xyz
x,y,z
-x,1/2-y,z
x,1/2-y,1/2-z
-x,y,1/2-z
-x,-y,-z
x,1/2+y,-z
-x,1/2+y,1/2+z
x,-y,1/2+z
1/2+x,1/2+y,z
1/2-x,-y,z
1/2+x,-y,1/2-z
1/2-x,1/2+y,1/2-z
1/2-x,1/2-y,-z
1/2+x,y,-z
1/2-x,y,1/2+z
1/2+x,1/2-y,1/2+z
loop_
_atom_site_type_symbol
_atom_site_label
_atom_site_fract_x
_atom_site_fract_y
_atom_site_fract_z
Si Si1 0.376173 0.778223 0.966517
Si Si2 0.418000 0.614845 0.694917
Si Si3 0.855723 0.106760 0.296944
Si Si4 0.941986 0.798675 0.616125
Si Si5 0.191951 0.489282 0.949991
O O1 0.403695 0.801572 0.884937
O O2 0.325845 0.681387 0.950435
O O3 0.413124 0.706134 0.032386
O O4 0.351567 0.931519 0.998134
O O5 0.439900 0.750000 0.750000
O O6 0.371669 0.536326 0.744079
O O7 0.444075 0.459718 0.661917
O O8 0.834139 0.250000 0.250000
O O9 0.908003 0.177749 0.334637
O O10 0.817295 0.059857 0.364874
O O11 0.000000 0.750000 0.605567
O O12 0.250000 0.500000 0.976436
#
# Coordination Sequence:
#
# PCOD9509338 Si02
#       5
#    16  16  16  16  16
#     4  11  22  42  66  94 131 169 215 272 318 380
#     4  11  21  40  68  92 131 169 211 268 322 376
#     4   9  21  41  62  87 132 170 206 271 327 371
#     4  10  23  44  68  90 128 175 212 260 330 388
#     4  11  22  41  65  94 125 173 223 266 320 383
#
# _framework density 20.193555
#
# number of rings (size 3 to 8) (size 9 to 14) (size 15 to 20)
#    0.000    1.600    4.000    0.600    0.000    4.400 
#    3.600    4.000    0.000    0.000    0.000    0.000 
#    0.000    0.000    0.000    0.000    0.000    0.000 
#
# Total GULP energy -222764.873087 kJ/mol
# GULP energy per Si atom -5569.121827 kJ/mol
# Density = 2.014759 g / cm^3
# Si number density = 20.193555 Si / 1000 Ang^3
#
#
#
# Elastic Constant Matrix: (Units=GPa)
#
#
# Indices 1 2 3 4 5 6 
#
# 1 72.0694 16.5861 22.1634 0.0000 0.0000 0.0000
# 2 16.5861 77.5535 27.2201 0.0000 0.0000 0.0000
# 3 22.1634 27.2201 126.7007 0.0000 0.0000 0.0000
# 4 0.0000 0.0000 0.0000 -7.5701 0.0000 0.0000
# 5 0.0000 0.0000 0.0000 0.0000 -6.8651 0.0000
# 6 0.0000 0.0000 0.0000 0.0000 0.0000 20.9095
#
#
#
# Elastic Compliance Matrix: (Units=1/GPa)
#
#
# Indices 1 2 3 4 5 6 
#
# 1 0.015096 -0.002489 -0.002106 0.000000 0.000000 0.000000
# 2 -0.002489 0.014356 -0.002649 0.000000 0.000000 0.000000
# 3 -0.002106 -0.002649 0.008830 0.000000 0.000000 0.000000
# 4 0.000000 0.000000 0.000000 -0.132098 0.000000 0.000000
# 5 0.000000 0.000000 0.000000 0.000000 -0.145665 0.000000
# 6 0.000000 0.000000 0.000000 0.000000 0.000000 0.047825
#
#
# Mechanical properties :
#
#
# Convention : Reuss Voigt Hill
#
# Bulk Modulus (GPa) = 42.02693 45.36255 43.69474
# Shear Modulus (GPa) = -29.54459 15.31847 -7.11306
#
# Velocity S-wave (km/s) = -3.82916 2.75722 -1.87885
# Velocity P-wave (km/s) = 1.14336 5.71393 4.12046
#
# Compressibility (1/GPa) = 0.02379427
#
# Stress axis : x y z
#
# Youngs Moduli (GPa) = 66.24250 69.65522 113.24942
#
# Poissons Ratio (x) = 0.17340 0.23849
# Poissons Ratio (y) = 0.16490 0.29998
# Poissons Ratio (z) = 0.13950 0.18451
#
# Static dielectric constant tensor:
#      x y z
#    x 1.649930 0.000000 0.000000 
#    y 0.000000 1.677340 0.000000 
#    z 0.000000 0.000000 1.768000 
# 
# From -- ./inp_files/28331.got.cif
#   From: 2010.05.17/outbox.cif.g08.bks.cpg/sg68_15_cif.got.tgz:28331.got - 2010.06.03 18:57:09.
