data_PCOD9509678
_publ_section_title
;
Structure prediction by ZEFSAII (Michael W. Deem and Ramdas Pophale) SiO2 
 PCOD9509678
Probable space group: C C C A
;
_chemical_formula_sum "Si O2"
_cell_formula_units_Z 88
_cell_length_a 19.339184
_cell_length_b 33.467692
_cell_length_c 5.790959
_cell_angle_alpha 90.000000
_cell_angle_beta 90.000000
_cell_angle_gamma 90.000000
_cell_volume 3748.127874
_symmetry_space_group_name_H-M "C C C A"
_symmetry_group_IT_number 68
_space_group.IT_coordinate_system_code '2'
_symmetry_cell_setting 'orthorhombic'
loop_
_space_group_symop_operation_xyz
x,y,z
-x,1/2-y,z
x,1/2-y,1/2-z
-x,y,1/2-z
-x,-y,-z
x,1/2+y,-z
-x,1/2+y,1/2+z
x,-y,1/2+z
1/2+x,1/2+y,z
1/2-x,-y,z
1/2+x,-y,1/2-z
1/2-x,1/2+y,1/2-z
1/2-x,1/2-y,-z
1/2+x,y,-z
1/2-x,y,1/2+z
1/2+x,1/2-y,1/2+z
loop_
_atom_site_type_symbol
_atom_site_label
_atom_site_fract_x
_atom_site_fract_y
_atom_site_fract_z
Si Si1 0.711387 0.433334 0.137293
Si Si2 0.500000 0.368357 0.250000
Si Si3 0.575232 0.090374 0.869055
Si Si4 0.828941 0.735192 0.999640
Si Si5 0.597256 0.503668 0.137269
Si Si6 0.131959 0.354299 0.004320
O O1 0.747795 0.435561 0.390379
O O2 0.658108 0.470945 0.133010
O O3 0.673503 0.389930 0.122106
O O4 0.551591 0.397483 0.381492
O O5 0.445899 0.345252 0.408177
O O6 0.500000 0.084187 0.750000
O O7 0.616081 0.126418 0.753236
O O8 0.617637 0.050174 0.853071
O O9 0.859501 0.750000 0.750000
O O10 0.829309 0.687254 0.996383
O O11 0.858946 0.750000 0.250000
O O12 0.750000 0.750000 0.000000
O O13 0.562203 0.498397 0.386175
#
# Coordination Sequence:
#
# PCOD9509678 Si02
#       6
#    16   8  16  16  16  16
#     4  12  29  46  72 105 151 210 256 318 387 459
#     4  10  24  48  81 110 146 204 260 324 379 470
#     4  10  24  46  72 106 144 204 261 322 378 448
#     4  10  25  46  78 118 151 188 247 311 379 473
#     4  12  25  46  64 101 146 194 265 315 373 439
#     4  11  25  49  80 109 156 198 258 315 399 458
#
# _framework density 23.478389
#
# number of rings (size 3 to 8) (size 9 to 14) (size 15 to 20)
#    0.000    1.091    1.818    2.182   12.727    2.909 
#    1.636    0.455    0.000    0.000    0.000    0.000 
#    0.000    0.000    0.000    0.000    0.000    0.000 
#
# Total GULP energy -245436.816171 kJ/mol
# GULP energy per Si atom -5578.109458 kJ/mol
# Density = 2.342495 g / cm^3
# Si number density = 23.478389 Si / 1000 Ang^3
#
#
#
# Elastic Constant Matrix: (Units=GPa)
#
#
# Indices 1 2 3 4 5 6 
#
# 1 91.9331 68.8728 65.9289 0.0000 0.0000 0.0000
# 2 68.8728 211.6118 49.2752 0.0000 0.0000 0.0000
# 3 65.9289 49.2752 219.9408 0.0000 0.0000 0.0000
# 4 0.0000 0.0000 0.0000 3.5362 0.0000 0.0000
# 5 0.0000 0.0000 0.0000 0.0000 54.2255 0.0000
# 6 0.0000 0.0000 0.0000 0.0000 0.0000 120.4222
#
#
#
# Elastic Compliance Matrix: (Units=1/GPa)
#
#
# Indices 1 2 3 4 5 6 
#
# 1 0.017368 -0.004685 -0.004157 0.000000 0.000000 0.000000
# 2 -0.004685 0.006249 0.000004 0.000000 0.000000 0.000000
# 3 -0.004157 0.000004 0.005792 0.000000 0.000000 0.000000
# 4 0.000000 0.000000 0.000000 0.282790 0.000000 0.000000
# 5 0.000000 0.000000 0.000000 0.000000 0.018442 0.000000
# 6 0.000000 0.000000 0.000000 0.000000 0.000000 0.008304
#
#
# Mechanical properties :
#
#
# Convention : Reuss Voigt Hill
#
# Bulk Modulus (GPa) = 85.21753 99.07104 92.14429
# Shear Modulus (GPa) = 13.86844 58.26404 36.06624
#
# Velocity S-wave (km/s) = 2.43305 4.98697 3.92362
# Velocity P-wave (km/s) = 6.65341 8.68609 7.73680
#
# Compressibility (1/GPa) = 0.01173467
#
# Stress axis : x y z
#
# Youngs Moduli (GPa) = 57.57700 160.01482 172.66057
#
# Poissons Ratio (x) = 0.74964 0.71768
# Poissons Ratio (y) = 0.26974 -0.00073
# Poissons Ratio (z) = 0.23933 -0.00067
#
# Static dielectric constant tensor:
#      x y z
#    x 1.930970 0.000000 0.000000 
#    y 0.000000 1.814650 0.000000 
#    z 0.000000 0.000000 2.035550 
# 
# From -- ./inp_files/2083.got.cif
#   From: 2010.05.17/outbox.cif.g08.bks.cpg/sg68_2_cif.got.tgz:2083.got - 2010.06.03 18:57:09.
