data_PCOD9509185
_publ_section_title
;
Structure prediction by ZEFSAII (Michael W. Deem and Ramdas Pophale) SiO2 
 PCOD9509185
Probable space group: C C C A
;
_chemical_formula_sum "Si O2"
_cell_formula_units_Z 64
_cell_length_a 23.783005
_cell_length_b 8.294539
_cell_length_c 12.466963
_cell_angle_alpha 90.000000
_cell_angle_beta 90.000000
_cell_angle_gamma 90.000000
_cell_volume 2459.346103
_symmetry_space_group_name_H-M "C C C A"
_symmetry_group_IT_number 68
_space_group.IT_coordinate_system_code '2'
_symmetry_cell_setting 'orthorhombic'
loop_
_space_group_symop_operation_xyz
x,y,z
-x,1/2-y,z
x,1/2-y,1/2-z
-x,y,1/2-z
-x,-y,-z
x,1/2+y,-z
-x,1/2+y,1/2+z
x,-y,1/2+z
1/2+x,1/2+y,z
1/2-x,-y,z
1/2+x,-y,1/2-z
1/2-x,1/2+y,1/2-z
1/2-x,1/2-y,-z
1/2+x,y,-z
1/2-x,y,1/2+z
1/2+x,1/2-y,1/2+z
loop_
_atom_site_type_symbol
_atom_site_label
_atom_site_fract_x
_atom_site_fract_y
_atom_site_fract_z
Si Si1 0.807769 0.080293 0.115035
Si Si2 0.877582 0.267869 0.878315
Si Si3 0.660623 0.435099 0.638569
Si Si4 0.040749 0.869072 0.554243
O O1 0.811851 0.071909 0.244733
O O2 0.817279 0.267576 0.089311
O O3 0.750000 0.000000 0.078248
O O4 0.855292 0.946706 0.091792
O O5 0.889229 0.250000 0.750000
O O6 0.833156 0.121073 0.898455
O O7 0.930592 0.265887 0.957059
O O8 0.592523 0.421398 0.629796
O O9 0.000000 0.750000 0.617276
O O10 0.000000 0.000000 0.500000
#
# Coordination Sequence:
#
# PCOD9509185 Si02
#       4
#    16  16  16  16
#     4  10  23  43  70  98 133 178 227 289 357 410
#     4  10  23  43  67  98 137 180 238 281 342 431
#     4  10  23  41  66 100 134 176 231 287 339 427
#     4  12  23  43  67  96 140 184 224 288 348 401
#
# _framework density 26.023178000000001
#
# number of rings (size 3 to 8) (size 9 to 14) (size 15 to 20)
#    0.000    1.500    2.500    1.500   10.500    0.500 
#    0.000   12.500    0.000    0.000    0.000    0.000 
#    0.000    0.000    0.000    0.000    0.000    0.000 
#
# Total GULP energy -178545.034418 kJ/mol
# GULP energy per Si atom -5579.532326 kJ/mol
# Density = 2.596395 g / cm^3
# Si number density = 26.023178 Si / 1000 Ang^3
#
#
#
# Elastic Constant Matrix: (Units=GPa)
#
#
# Indices 1 2 3 4 5 6 
#
# 1 107.4097 25.7141 7.1490 0.0000 0.0000 0.0000
# 2 25.7141 176.3858 44.5555 0.0000 0.0000 0.0000
# 3 7.1490 44.5555 91.5267 0.0000 0.0000 0.0000
# 4 0.0000 0.0000 0.0000 57.2409 0.0000 0.0000
# 5 0.0000 0.0000 0.0000 0.0000 19.9380 0.0000
# 6 0.0000 0.0000 0.0000 0.0000 0.0000 59.2479
#
#
#
# Elastic Compliance Matrix: (Units=1/GPa)
#
#
# Indices 1 2 3 4 5 6 
#
# 1 0.009647 -0.001387 -0.000079 0.000000 0.000000 0.000000
# 2 -0.001387 0.006664 -0.003136 0.000000 0.000000 0.000000
# 3 -0.000079 -0.003136 0.012458 0.000000 0.000000 0.000000
# 4 0.000000 0.000000 0.000000 0.017470 0.000000 0.000000
# 5 0.000000 0.000000 0.000000 0.000000 0.050156 0.000000
# 6 0.000000 0.000000 0.000000 0.000000 0.000000 0.016878
#
#
# Mechanical properties :
#
#
# Convention : Reuss Voigt Hill
#
# Bulk Modulus (GPa) = 51.10422 58.90660 55.00541
# Shear Modulus (GPa) = 38.76061 47.14561 42.95311
#
# Velocity S-wave (km/s) = 3.86355 4.26100 4.06713
# Velocity P-wave (km/s) = 6.29152 6.84788 6.57559
#
# Compressibility (1/GPa) = 0.01956786
#
# Stress axis : x y z
#
# Youngs Moduli (GPa) = 103.65567 150.06961 80.26779
#
# Poissons Ratio (x) = 0.20808 0.00631
# Poissons Ratio (y) = 0.14373 0.25168
# Poissons Ratio (z) = 0.00814 0.47055
#
# Static dielectric constant tensor:
#      x y z
#    x 2.150400 0.000000 0.000000 
#    y 0.000000 2.140080 0.000000 
#    z 0.000000 0.000000 2.195980 
# 
# From -- ./inp_files/27891.got.cif
#   From: 2010.05.17/outbox.cif.g08.bks.cpg/sg68_14_cif.got.tgz:27891.got - 2010.06.03 18:57:09.
