data_PCOD9509971
_publ_section_title
;
Structure prediction by ZEFSAII (Michael W. Deem and Ramdas Pophale) SiO2 
 PCOD9509971
Probable space group: C C C A
;
_chemical_formula_sum "Si O2"
_cell_formula_units_Z 64
_cell_length_a 11.158861
_cell_length_b 17.355850
_cell_length_c 12.656375
_cell_angle_alpha 90.000000
_cell_angle_beta 90.000000
_cell_angle_gamma 90.000000
_cell_volume 2451.179355
_symmetry_space_group_name_H-M "C C C A"
_symmetry_group_IT_number 68
_space_group.IT_coordinate_system_code '2'
_symmetry_cell_setting 'orthorhombic'
loop_
_space_group_symop_operation_xyz
x,y,z
-x,1/2-y,z
x,1/2-y,1/2-z
-x,y,1/2-z
-x,-y,-z
x,1/2+y,-z
-x,1/2+y,1/2+z
x,-y,1/2+z
1/2+x,1/2+y,z
1/2-x,-y,z
1/2+x,-y,1/2-z
1/2-x,1/2+y,1/2-z
1/2-x,1/2-y,-z
1/2+x,y,-z
1/2-x,y,1/2+z
1/2+x,1/2-y,1/2+z
loop_
_atom_site_type_symbol
_atom_site_label
_atom_site_fract_x
_atom_site_fract_y
_atom_site_fract_z
Si Si1 0.180942 0.308730 0.343768
Si Si2 0.607071 0.473435 0.940607
Si Si3 0.400984 0.802733 0.530759
Si Si4 0.606577 0.023259 0.811737
O O1 0.175654 0.250000 0.250000
O O2 0.315476 0.329591 0.375170
O O3 0.138136 0.263659 0.447803
O O4 0.111246 0.383970 0.314182
O O5 0.750000 0.500000 0.935568
O O6 0.592844 0.380784 0.961486
O O7 0.569377 0.494565 0.815580
O O8 0.576344 0.506105 0.060561
O O9 0.500000 0.750000 0.587760
O O10 0.750000 0.000000 0.808841
#
# Coordination Sequence:
#
# PCOD9509971 Si02
#       4
#    16  16  16  16
#     4  11  20  35  61  95 117 156 212 247 313 365
#     4   9  18  35  61  88 115 157 201 245 304 364
#     4  11  21  35  62  90 124 155 200 267 303 358
#     4   8  17  33  63  82 110 156 206 245 292 358
#
# _framework density 26.109881000000001
#
# number of rings (size 3 to 8) (size 9 to 14) (size 15 to 20)
#    1.500    0.500    5.000    0.000    0.000    0.500 
#    0.000    6.250    0.000    6.000    0.000    0.000 
#    0.000    0.000    0.000    0.000    0.000    0.000 
#
# Total GULP energy -178208.080435 kJ/mol
# GULP energy per Si atom -5569.002514 kJ/mol
# Density = 2.605045 g / cm^3
# Si number density = 26.109881 Si / 1000 Ang^3
#
#
#
# Elastic Constant Matrix: (Units=GPa)
#
#
# Indices 1 2 3 4 5 6 
#
# 1 126.2094 42.3353 153.6704 0.0000 0.0000 0.0000
# 2 42.3353 108.6374 42.6693 0.0000 0.0000 0.0000
# 3 153.6704 42.6693 228.0025 0.0000 0.0000 0.0000
# 4 0.0000 0.0000 0.0000 231.4171 0.0000 0.0000
# 5 0.0000 0.0000 0.0000 0.0000 115.7217 0.0000
# 6 0.0000 0.0000 0.0000 0.0000 0.0000 36.3776
#
#
#
# Elastic Compliance Matrix: (Units=1/GPa)
#
#
# Indices 1 2 3 4 5 6 
#
# 1 0.048062 -0.006483 -0.031180 0.000000 0.000000 0.000000
# 2 -0.006483 0.010810 0.002347 0.000000 0.000000 0.000000
# 3 -0.031180 0.002347 0.024962 0.000000 0.000000 0.000000
# 4 0.000000 0.000000 0.000000 0.004321 0.000000 0.000000
# 5 0.000000 0.000000 0.000000 0.000000 0.008641 0.000000
# 6 0.000000 0.000000 0.000000 0.000000 0.000000 0.027489
#
#
# Mechanical properties :
#
#
# Convention : Reuss Voigt Hill
#
# Bulk Modulus (GPa) = 75.75461 104.46659 90.11060
# Shear Modulus (GPa) = 25.08547 91.64823 58.36685
#
# Velocity S-wave (km/s) = 3.10298 5.93104 4.73316
# Velocity P-wave (km/s) = 6.47416 9.32739 8.02854
#
# Compressibility (1/GPa) = 0.01320052
#
# Stress axis : x y z
#
# Youngs Moduli (GPa) = 20.80640 92.50950 40.06156
#
# Poissons Ratio (x) = 0.59974 1.24912
# Poissons Ratio (y) = 0.13489 -0.09401
# Poissons Ratio (z) = 0.64874 -0.21707
#
# Static dielectric constant tensor:
#      x y z
#    x 3.525020 0.000000 0.000000 
#    y 0.000000 1.842250 0.000000 
#    z 0.000000 0.000000 1.985450 
# 
# From -- ./inp_files/29274.got.cif
#   From: 2010.05.17/outbox.cif.g08.bks.cpg/sg68_15_cif.got.tgz:29274.got - 2010.06.03 18:57:09.
