data_PCOD9509575
_publ_section_title
;
Structure prediction by ZEFSAII (Michael W. Deem and Ramdas Pophale) SiO2 
 PCOD9509575
Probable space group: C C C A
;
_chemical_formula_sum "Si O2"
_cell_formula_units_Z 92
_cell_length_a 22.563805
_cell_length_b 19.692930
_cell_length_c 8.536807
_cell_angle_alpha 90.000000
_cell_angle_beta 90.000000
_cell_angle_gamma 90.000000
_cell_volume 3793.308271
_symmetry_space_group_name_H-M "C C C A"
_symmetry_group_IT_number 68
_space_group.IT_coordinate_system_code '2'
_symmetry_cell_setting 'orthorhombic'
loop_
_space_group_symop_operation_xyz
x,y,z
-x,1/2-y,z
x,1/2-y,1/2-z
-x,y,1/2-z
-x,-y,-z
x,1/2+y,-z
-x,1/2+y,1/2+z
x,-y,1/2+z
1/2+x,1/2+y,z
1/2-x,-y,z
1/2+x,-y,1/2-z
1/2-x,1/2+y,1/2-z
1/2-x,1/2-y,-z
1/2+x,y,-z
1/2-x,y,1/2+z
1/2+x,1/2-y,1/2+z
loop_
_atom_site_type_symbol
_atom_site_label
_atom_site_fract_x
_atom_site_fract_y
_atom_site_fract_z
Si Si1 0.315229 0.030255 0.931266
Si Si2 0.817952 0.325468 0.557230
Si Si3 0.000000 0.037438 0.750000
Si Si4 0.522231 0.653234 0.997603
Si Si5 0.782728 0.750000 0.750000
Si Si6 0.891794 0.442362 0.145816
Si Si7 0.000000 0.750000 0.750000
Si Si8 0.916429 0.750000 0.250000
O O1 0.338985 0.059396 0.768790
O O2 0.250000 0.000000 0.918053
O O3 0.316217 0.093794 0.048102
O O4 0.362106 0.975383 0.993201
O O5 0.816933 0.290955 0.385036
O O6 0.760563 0.299963 0.652868
O O7 0.874676 0.299339 0.649986
O O8 0.001278 0.086489 0.903260
O O9 0.056218 0.989012 0.719731
O O10 0.546963 0.702942 0.866004
O O11 0.578166 0.628124 0.099730
O O12 0.479572 0.693825 0.117470
#
# Coordination Sequence:
#
# PCOD9509575 Si02
#       8
#    16  16   8  16   8  16   4   8
#     4  12  29  47  74 113 156 205 255 315 383 461
#     4  10  24  43  72  99 151 192 263 298 382 443
#     4  12  25  55  78 113 155 204 250 328 402 466
#     4  12  27  48  78 111 156 189 263 312 400 469
#     4   9  22  43  68 101 132 210 245 323 351 444
#     4  12  28  48  80 112 151 203 254 325 390 458
#     4  12  30  44  80 118 142 200 244 336 380 476
#     4  11  26  47  72 110 152 207 245 319 391 456
#
# _framework density 24.253238
#
# number of rings (size 3 to 8) (size 9 to 14) (size 15 to 20)
#    0.000    0.696    1.739    3.652   12.174    1.391 
#    0.000    0.000    0.000    0.000    0.000    0.000 
#    0.000    0.000    0.000    0.000    0.000    0.000 
#
# Total GULP energy -257443.663930 kJ/mol
# GULP energy per Si atom -5596.601390 kJ/mol
# Density = 2.419804 g / cm^3
# Si number density = 24.253238 Si / 1000 Ang^3
#
#
#
# Elastic Constant Matrix: (Units=GPa)
#
#
# Indices 1 2 3 4 5 6 
#
# 1 108.5238 49.8783 48.4257 0.0000 0.0000 0.0000
# 2 49.8783 108.9006 40.5179 0.0000 0.0000 0.0000
# 3 48.4257 40.5179 142.9320 0.0000 0.0000 0.0000
# 4 0.0000 0.0000 0.0000 41.5089 0.0000 0.0000
# 5 0.0000 0.0000 0.0000 0.0000 17.3738 0.0000
# 6 0.0000 0.0000 0.0000 0.0000 0.0000 14.9072
#
#
#
# Elastic Compliance Matrix: (Units=1/GPa)
#
#
# Indices 1 2 3 4 5 6 
#
# 1 0.012706 -0.004715 -0.002968 0.000000 0.000000 0.000000
# 2 -0.004715 0.012015 -0.001808 0.000000 0.000000 0.000000
# 3 -0.002968 -0.001808 0.008515 0.000000 0.000000 0.000000
# 4 0.000000 0.000000 0.000000 0.024091 0.000000 0.000000
# 5 0.000000 0.000000 0.000000 0.000000 0.057558 0.000000
# 6 0.000000 0.000000 0.000000 0.000000 0.000000 0.067082
#
#
# Mechanical properties :
#
#
# Convention : Reuss Voigt Hill
#
# Bulk Modulus (GPa) = 70.16513 70.88892 70.52703
# Shear Modulus (GPa) = 24.30707 29.52696 26.91701
#
# Velocity S-wave (km/s) = 3.16922 3.49297 3.33503
# Velocity P-wave (km/s) = 6.51037 6.74981 6.63117
#
# Compressibility (1/GPa) = 0.01425209
#
# Stress axis : x y z
#
# Youngs Moduli (GPa) = 78.70149 83.22762 117.44477
#
# Poissons Ratio (x) = 0.39244 0.34860
# Poissons Ratio (y) = 0.37110 0.21240
# Poissons Ratio (z) = 0.23360 0.15052
#
# Static dielectric constant tensor:
#      x y z
#    x 1.885580 0.000000 0.000000 
#    y 0.000000 1.908560 0.000000 
#    z 0.000000 0.000000 2.051210 
# 
# From -- ./inp_files/8060.got.cif
#   From: 2010.05.17/outbox.cif.g08.bks.cpg/sg68_5_cif.got.tgz:8060.got - 2010.06.03 18:57:09.
