data_PCOD9509650
_publ_section_title
;
Structure prediction by ZEFSAII (Michael W. Deem and Ramdas Pophale) SiO2 
 PCOD9509650
Probable space group: C C C A
;
_chemical_formula_sum "Si O2"
_cell_formula_units_Z 56
_cell_length_a 14.982423
_cell_length_b 14.970613
_cell_length_c 10.687057
_cell_angle_alpha 90.000000
_cell_angle_beta 90.000000
_cell_angle_gamma 90.000000
_cell_volume 2397.064741
_symmetry_space_group_name_H-M "C C C A"
_symmetry_group_IT_number 68
_space_group.IT_coordinate_system_code '2'
_symmetry_cell_setting 'orthorhombic'
loop_
_space_group_symop_operation_xyz
x,y,z
-x,1/2-y,z
x,1/2-y,1/2-z
-x,y,1/2-z
-x,-y,-z
x,1/2+y,-z
-x,1/2+y,1/2+z
x,-y,1/2+z
1/2+x,1/2+y,z
1/2-x,-y,z
1/2+x,-y,1/2-z
1/2-x,1/2+y,1/2-z
1/2-x,1/2-y,-z
1/2+x,y,-z
1/2-x,y,1/2+z
1/2+x,1/2-y,1/2+z
loop_
_atom_site_type_symbol
_atom_site_label
_atom_site_fract_x
_atom_site_fract_y
_atom_site_fract_z
Si Si1 0.655312 0.353602 0.921462
Si Si2 0.597676 0.965893 0.469528
Si Si3 0.159119 0.202466 0.870493
Si Si4 0.000000 0.610787 0.750000
O O1 0.741829 0.334486 0.836331
O O2 0.560985 0.339921 0.851574
O O3 0.658186 0.450930 0.987591
O O4 0.662920 0.281699 0.030212
O O5 0.615903 0.880360 0.556007
O O6 0.580299 0.941577 0.323857
O O7 0.500000 0.000000 0.500000
O O8 0.116628 0.250000 0.750000
#
# Coordination Sequence:
#
# PCOD9509650 Si02
#       4
#    16  16  16   8
#     4  10  25  46  74 104 144 198 248 308 382 440
#     4  10  24  46  71 109 142 195 245 307 382 438
#     4  11  26  46  71 110 149 193 254 312 374 457
#     4  10  24  45  76 101 148 196 250 305 378 459
#
# _framework density 23.361906000000001
#
# number of rings (size 3 to 8) (size 9 to 14) (size 15 to 20)
#    0.000    1.714    0.000    0.857   16.000    5.714 
#    0.000    5.714    0.000    0.000    0.000    0.000 
#    0.000    0.000    0.000    0.000    0.000    0.000 
#
# Total GULP energy -156098.818428 kJ/mol
# GULP energy per Si atom -5574.957801 kJ/mol
# Density = 2.330873 g / cm^3
# Si number density = 23.361906 Si / 1000 Ang^3
#
#
#
# Elastic Constant Matrix: (Units=GPa)
#
#
# Indices 1 2 3 4 5 6 
#
# 1 82.7158 36.7854 29.5577 0.0000 0.0000 0.0000
# 2 36.7854 181.3833 63.3729 0.0000 0.0000 0.0000
# 3 29.5577 63.3729 93.4080 0.0000 0.0000 0.0000
# 4 0.0000 0.0000 0.0000 32.8848 0.0000 0.0000
# 5 0.0000 0.0000 0.0000 0.0000 36.9611 0.0000
# 6 0.0000 0.0000 0.0000 0.0000 0.0000 22.3434
#
#
#
# Elastic Compliance Matrix: (Units=1/GPa)
#
#
# Indices 1 2 3 4 5 6 
#
# 1 0.014017 -0.001695 -0.003286 0.000000 0.000000 0.000000
# 2 -0.001695 0.007431 -0.004505 0.000000 0.000000 0.000000
# 3 -0.003286 -0.004505 0.014802 0.000000 0.000000 0.000000
# 4 0.000000 0.000000 0.000000 0.030409 0.000000 0.000000
# 5 0.000000 0.000000 0.000000 0.000000 0.027055 0.000000
# 6 0.000000 0.000000 0.000000 0.000000 0.000000 0.044756
#
#
# Mechanical properties :
#
#
# Convention : Reuss Voigt Hill
#
# Bulk Modulus (GPa) = 57.87445 68.54881 63.21163
# Shear Modulus (GPa) = 30.63680 33.62393 32.13036
#
# Velocity S-wave (km/s) = 3.62525 3.79788 3.71257
# Velocity P-wave (km/s) = 6.50769 6.97407 6.74491
#
# Compressibility (1/GPa) = 0.01727878
#
# Stress axis : x y z
#
# Youngs Moduli (GPa) = 71.33968 134.57171 67.55808
#
# Poissons Ratio (x) = 0.22807 0.22198
# Poissons Ratio (y) = 0.12091 0.30437
# Poissons Ratio (z) = 0.23441 0.60628
#
# Static dielectric constant tensor:
#      x y z
#    x 1.885310 0.000000 0.000000 
#    y 0.000000 1.974820 0.000000 
#    z 0.000000 0.000000 1.907310 
# 
# From -- ./inp_files/12666.got.cif
#   From: 2010.05.17/outbox.cif.g08.bks.cpg/sg68_7_cif.got.tgz:12666.got - 2010.06.03 18:57:09.
