data_PCOD9509144
_publ_section_title
;
Structure prediction by ZEFSAII (Michael W. Deem and Ramdas Pophale) SiO2 
 PCOD9509144
Probable space group: C C C A
;
_chemical_formula_sum "Si O2"
_cell_formula_units_Z 48
_cell_length_a 5.361531
_cell_length_b 14.293050
_cell_length_c 31.466321
_cell_angle_alpha 90.000000
_cell_angle_beta 90.000000
_cell_angle_gamma 90.000000
_cell_volume 2411.346955
_symmetry_space_group_name_H-M "C C C A"
_symmetry_group_IT_number 68
_space_group.IT_coordinate_system_code '2'
_symmetry_cell_setting 'orthorhombic'
loop_
_space_group_symop_operation_xyz
x,y,z
-x,1/2-y,z
x,1/2-y,1/2-z
-x,y,1/2-z
-x,-y,-z
x,1/2+y,-z
-x,1/2+y,1/2+z
x,-y,1/2+z
1/2+x,1/2+y,z
1/2-x,-y,z
1/2+x,-y,1/2-z
1/2-x,1/2+y,1/2-z
1/2-x,1/2-y,-z
1/2+x,y,-z
1/2-x,y,1/2+z
1/2+x,1/2-y,1/2+z
loop_
_atom_site_type_symbol
_atom_site_label
_atom_site_fract_x
_atom_site_fract_y
_atom_site_fract_z
Si Si1 0.500000 0.250000 0.649244
Si Si2 0.250000 0.000000 0.528625
Si Si3 0.750647 0.703243 0.565769
Si Si4 0.501816 0.443163 0.801169
O O1 0.279069 0.228746 0.615657
O O2 0.521645 0.157935 0.677431
O O3 0.251162 0.093601 0.556760
O O4 0.500000 0.000000 0.500000
O O5 0.500000 0.750000 0.549539
O O6 0.000000 0.750000 0.546707
O O7 0.500000 0.432869 0.750000
O O8 0.750000 0.500000 0.813196
O O9 0.250000 0.500000 0.813041
#
# Coordination Sequence:
#
# PCOD9509144 Si02
#       4
#     8   8  16  16
#     4  10  25  38  68  88 130 160 206 256 306 366
#     4  12  26  44  68  90 124 166 204 256 312 378
#     4  10  25  42  63  95 122 160 204 255 308 366
#     4  10  23  40  62  91 125 166 208 251 303 362
#
# _framework density 19.905888000000001
#
# number of rings (size 3 to 8) (size 9 to 14) (size 15 to 20)
#    1.000    0.667    0.000    2.500    7.000    4.000 
#    0.000    5.000    0.000    0.000    0.000    0.000 
#    0.000    0.000    0.000    0.000    0.000    0.000 
#
# Total GULP energy -133928.401914 kJ/mol
# GULP energy per Si atom -5580.350080 kJ/mol
# Density = 1.986058 g / cm^3
# Si number density = 19.905888 Si / 1000 Ang^3
#
#
#
# Elastic Constant Matrix: (Units=GPa)
#
#
# Indices 1 2 3 4 5 6 
#
# 1 193.1818 105.0178 47.1233 0.0000 0.0000 0.0000
# 2 105.0178 241.5054 74.2935 0.0000 0.0000 0.0000
# 3 47.1233 74.2935 58.5493 0.0000 0.0000 0.0000
# 4 0.0000 0.0000 0.0000 -36.8201 0.0000 0.0000
# 5 0.0000 0.0000 0.0000 0.0000 35.1696 0.0000
# 6 0.0000 0.0000 0.0000 0.0000 0.0000 27.5999
#
#
#
# Elastic Compliance Matrix: (Units=1/GPa)
#
#
# Indices 1 2 3 4 5 6 
#
# 1 0.007074 -0.002173 -0.002936 0.000000 0.000000 0.000000
# 2 -0.002173 0.007459 -0.007716 0.000000 0.000000 0.000000
# 3 -0.002936 -0.007716 0.029234 0.000000 0.000000 0.000000
# 4 0.000000 0.000000 0.000000 -0.027159 0.000000 0.000000
# 5 0.000000 0.000000 0.000000 0.000000 0.028434 0.000000
# 6 0.000000 0.000000 0.000000 0.000000 0.000000 0.036232
#
#
# Mechanical properties :
#
#
# Convention : Reuss Voigt Hill
#
# Bulk Modulus (GPa) = 55.19852 105.12286 80.16069
# Shear Modulus (GPa) = 44.26196 22.97668 33.61932
#
# Velocity S-wave (km/s) = 4.72058 3.40113 4.11410
# Velocity P-wave (km/s) = 7.58299 8.26730 7.93253
#
# Compressibility (1/GPa) = 0.01811643
#
# Stress axis : x y z
#
# Youngs Moduli (GPa) = 141.36459 134.06153 34.20643
#
# Poissons Ratio (x) = 0.29128 0.10044
# Poissons Ratio (y) = 0.30715 0.26395
# Poissons Ratio (z) = 0.41510 1.03447
#
# Static dielectric constant tensor:
#      x y z
#    x 1.705100 0.000000 0.000000 
#    y 0.000000 1.648120 0.000000 
#    z 0.000000 0.000000 1.723020 
# 
# From -- ./inp_files/52714.got.cif
#   From: 2010.05.17/outbox.cif.g08.bks.cpg/sg68_27_cif.got.tgz:52714.got - 2010.06.03 18:57:09.
