data_PCOD9509532
_publ_section_title
;
Structure prediction by ZEFSAII (Michael W. Deem and Ramdas Pophale) SiO2 
 PCOD9509532
Probable space group: C C C A
;
_chemical_formula_sum "Si O2"
_cell_formula_units_Z 88
_cell_length_a 29.917655
_cell_length_b 10.432275
_cell_length_c 12.179943
_cell_angle_alpha 90.000000
_cell_angle_beta 90.000000
_cell_angle_gamma 90.000000
_cell_volume 3801.472318
_symmetry_space_group_name_H-M "C C C A"
_symmetry_group_IT_number 68
_space_group.IT_coordinate_system_code '2'
_symmetry_cell_setting 'orthorhombic'
loop_
_space_group_symop_operation_xyz
x,y,z
-x,1/2-y,z
x,1/2-y,1/2-z
-x,y,1/2-z
-x,-y,-z
x,1/2+y,-z
-x,1/2+y,1/2+z
x,-y,1/2+z
1/2+x,1/2+y,z
1/2-x,-y,z
1/2+x,-y,1/2-z
1/2-x,1/2+y,1/2-z
1/2-x,1/2-y,-z
1/2+x,y,-z
1/2-x,y,1/2+z
1/2+x,1/2-y,1/2+z
loop_
_atom_site_type_symbol
_atom_site_label
_atom_site_fract_x
_atom_site_fract_y
_atom_site_fract_z
Si Si1 0.802527 0.250000 0.250000
Si Si2 0.046560 0.212117 0.457831
Si Si3 0.924594 0.618724 0.182153
Si Si4 0.750000 0.000000 0.775213
Si Si5 0.360384 0.833312 0.040505
Si Si6 0.664283 0.904522 0.897576
Si Si7 0.500000 0.924703 0.250000
O O1 0.773742 0.377311 0.282278
O O2 0.833767 0.291959 0.149358
O O3 0.070131 0.129114 0.550554
O O4 0.086145 0.314673 0.438674
O O5 0.000000 0.250000 0.516229
O O6 0.026559 0.149698 0.347449
O O7 0.932391 0.750000 0.250000
O O8 0.873125 0.579957 0.198216
O O9 0.960979 0.515873 0.210583
O O10 0.787330 0.068583 0.850151
O O11 0.347178 0.979927 0.018418
O O12 0.343290 0.735789 0.947435
#
# Coordination Sequence:
#
# PCOD9509532 Si02
#       7
#     8  16  16   8  16  16   8
#     4  10  24  42  67  98 136 173 236 292 362 432
#     4  11  24  40  65  99 134 191 236 287 364 422
#     4  11  25  44  66 100 143 188 240 301 362 438
#     4  10  24  42  68 102 134 182 242 290 370 438
#     4  10  24  44  65 101 141 179 236 298 356 433
#     4  10  24  44  68 100 136 186 238 297 369 434
#     4  12  24  38  70  96 142 188 244 302 348 436
#
# _framework density 23.148927
#
# number of rings (size 3 to 8) (size 9 to 14) (size 15 to 20)
#    0.000    1.455    0.000    3.273    8.909   12.364 
#    0.000    0.000    0.000    0.000    0.000    0.000 
#    0.000    0.000    0.000    0.000    0.000    0.000 
#
# Total GULP energy -245389.295786 kJ/mol
# GULP energy per Si atom -5577.029450 kJ/mol
# Density = 2.309624 g / cm^3
# Si number density = 23.148927 Si / 1000 Ang^3
#
#
#
# Elastic Constant Matrix: (Units=GPa)
#
#
# Indices 1 2 3 4 5 6 
#
# 1 128.9779 9.2839 12.2591 0.0000 0.0000 0.0000
# 2 9.2839 89.3457 12.2012 0.0000 0.0000 0.0000
# 3 12.2591 12.2012 49.5089 0.0000 0.0000 0.0000
# 4 0.0000 0.0000 0.0000 17.3482 0.0000 0.0000
# 5 0.0000 0.0000 0.0000 0.0000 -23.3872 0.0000
# 6 0.0000 0.0000 0.0000 0.0000 0.0000 50.3811
#
#
#
# Elastic Compliance Matrix: (Units=1/GPa)
#
#
# Indices 1 2 3 4 5 6 
#
# 1 0.007969 -0.000578 -0.001831 0.000000 0.000000 0.000000
# 2 -0.000578 0.011624 -0.002722 0.000000 0.000000 0.000000
# 3 -0.001831 -0.002722 0.021322 0.000000 0.000000 0.000000
# 4 0.000000 0.000000 0.000000 0.057643 0.000000 0.000000
# 5 0.000000 0.000000 0.000000 0.000000 -0.042758 0.000000
# 6 0.000000 0.000000 0.000000 0.000000 0.000000 0.019849
#
#
# Mechanical properties :
#
#
# Convention : Reuss Voigt Hill
#
# Bulk Modulus (GPa) = 32.62135 37.25786 34.93960
# Shear Modulus (GPa) = 52.01425 24.47433 38.24429
#
# Velocity S-wave (km/s) = 4.74533 3.25507 4.06901
# Velocity P-wave (km/s) = 6.64430 5.50065 6.09934
#
# Compressibility (1/GPa) = 0.03065478
#
# Stress axis : x y z
#
# Youngs Moduli (GPa) = 125.48808 86.02736 46.89898
#
# Poissons Ratio (x) = 0.04973 0.08586
# Poissons Ratio (y) = 0.07254 0.12764
# Poissons Ratio (z) = 0.22974 0.23413
#
# Static dielectric constant tensor:
#      x y z
#    x 1.993600 0.000000 0.000000 
#    y 0.000000 2.023560 0.000000 
#    z 0.000000 0.000000 1.862940 
# 
# From -- ./inp_files/17659.got.cif
#   From: 2010.05.17/outbox.cif.g08.bks.cpg/sg68_9_cif.got.tgz:17659.got - 2010.06.03 18:57:09.
