data_PCOD9509985
_publ_section_title
;
Structure prediction by ZEFSAII (Michael W. Deem and Ramdas Pophale) SiO2 
 PCOD9509985
Probable space group: C C C A
;
_chemical_formula_sum "Si O2"
_cell_formula_units_Z 72
_cell_length_a 10.948306
_cell_length_b 17.167669
_cell_length_c 19.932733
_cell_angle_alpha 90.000000
_cell_angle_beta 90.000000
_cell_angle_gamma 90.000000
_cell_volume 3746.494574
_symmetry_space_group_name_H-M "C C C A"
_symmetry_group_IT_number 68
_space_group.IT_coordinate_system_code '2'
_symmetry_cell_setting 'orthorhombic'
loop_
_space_group_symop_operation_xyz
x,y,z
-x,1/2-y,z
x,1/2-y,1/2-z
-x,y,1/2-z
-x,-y,-z
x,1/2+y,-z
-x,1/2+y,1/2+z
x,-y,1/2+z
1/2+x,1/2+y,z
1/2-x,-y,z
1/2+x,-y,1/2-z
1/2-x,1/2+y,1/2-z
1/2-x,1/2-y,-z
1/2+x,y,-z
1/2-x,y,1/2+z
1/2+x,1/2-y,1/2+z
loop_
_atom_site_type_symbol
_atom_site_label
_atom_site_fract_x
_atom_site_fract_y
_atom_site_fract_z
Si Si1 0.334901 0.287611 0.177584
Si Si2 0.000000 0.015713 0.750000
Si Si3 0.624109 0.451475 0.003026
Si Si4 0.339393 0.574896 0.145227
Si Si5 0.091676 0.867826 0.143634
O O1 0.361108 0.250000 0.250000
O O2 0.227128 0.349691 0.175487
O O3 0.454520 0.332207 0.150098
O O4 0.317353 0.205911 0.140054
O O5 0.907340 0.072832 0.792157
O O6 0.942686 0.959807 0.693675
O O7 0.750000 0.500000 0.005479
O O8 0.611564 0.408803 0.073521
O O9 0.500000 0.500000 0.000000
O O10 0.626485 0.406290 0.931783
O O11 0.250000 0.500000 0.141281
#
# Coordination Sequence:
#
# PCOD9509985 Si02
#       5
#    16   8  16  16  16
#     4  11  21  39  66  92 131 171 220 283 337 407
#     4  12  20  39  69  96 122 174 228 276 333 414
#     4  11  23  42  67  99 137 177 226 287 341 408
#     4  11  22  40  64  93 132 168 224 281 338 399
#     4  11  20  38  66  96 120 171 228 265 335 410
#
# _framework density 19.217965
#
# number of rings (size 3 to 8) (size 9 to 14) (size 15 to 20)
#    0.000    0.889    6.667    2.000    0.000    3.556 
#    0.000    0.556    0.000    0.000    0.000    0.000 
#    0.000    0.000    0.000    0.000    0.000    0.000 
#
# Total GULP energy -200463.109142 kJ/mol
# GULP energy per Si atom -5568.419698 kJ/mol
# Density = 1.917422 g / cm^3
# Si number density = 19.217965 Si / 1000 Ang^3
#
#
#
# Elastic Constant Matrix: (Units=GPa)
#
#
# Indices 1 2 3 4 5 6 
#
# 1 64.3046 39.5457 28.7168 0.0000 0.0000 0.0000
# 2 39.5457 120.7184 56.5181 0.0000 0.0000 0.0000
# 3 28.7168 56.5181 157.1375 0.0000 0.0000 0.0000
# 4 0.0000 0.0000 0.0000 84.6484 0.0000 0.0000
# 5 0.0000 0.0000 0.0000 0.0000 27.5440 0.0000
# 6 0.0000 0.0000 0.0000 0.0000 0.0000 27.1934
#
#
#
# Elastic Compliance Matrix: (Units=1/GPa)
#
#
# Indices 1 2 3 4 5 6 
#
# 1 0.019781 -0.005757 -0.001544 0.000000 0.000000 0.000000
# 2 -0.005757 0.011637 -0.003133 0.000000 0.000000 0.000000
# 3 -0.001544 -0.003133 0.007773 0.000000 0.000000 0.000000
# 4 0.000000 0.000000 0.000000 0.011814 0.000000 0.000000
# 5 0.000000 0.000000 0.000000 0.000000 0.036306 0.000000
# 6 0.000000 0.000000 0.000000 0.000000 0.000000 0.036774
#
#
# Mechanical properties :
#
#
# Convention : Reuss Voigt Hill
#
# Bulk Modulus (GPa) = 54.58074 65.74684 60.16379
# Shear Modulus (GPa) = 33.09948 42.36916 37.73432
#
# Velocity S-wave (km/s) = 4.15459 4.70048 4.43594
# Velocity P-wave (km/s) = 7.17472 7.98403 7.59017
#
# Compressibility (1/GPa) = 0.01832148
#
# Stress axis : x y z
#
# Youngs Moduli (GPa) = 50.55340 85.93582 128.64983
#
# Poissons Ratio (x) = 0.49473 0.19868
# Poissons Ratio (y) = 0.29103 0.40310
# Poissons Ratio (z) = 0.07807 0.26926
#
# Static dielectric constant tensor:
#      x y z
#    x 1.657780 0.000000 0.000000 
#    y 0.000000 1.770090 0.000000 
#    z 0.000000 0.000000 1.820700 
# 
# From -- ./inp_files/37348.got.cif
#   From: 2010.05.17/outbox.cif.g08.bks.cpg/sg68_19_cif.got.tgz:37348.got - 2010.06.03 18:57:09.
