data_PCOD9509574
_publ_section_title
;
Structure prediction by ZEFSAII (Michael W. Deem and Ramdas Pophale) SiO2 
 PCOD9509574
Probable space group: C C C A
;
_chemical_formula_sum "Si O2"
_cell_formula_units_Z 88
_cell_length_a 10.407845
_cell_length_b 15.119533
_cell_length_c 26.004226
_cell_angle_alpha 90.000000
_cell_angle_beta 90.000000
_cell_angle_gamma 90.000000
_cell_volume 4092.070665
_symmetry_space_group_name_H-M "C C C A"
_symmetry_group_IT_number 68
_space_group.IT_coordinate_system_code '2'
_symmetry_cell_setting 'orthorhombic'
loop_
_space_group_symop_operation_xyz
x,y,z
-x,1/2-y,z
x,1/2-y,1/2-z
-x,y,1/2-z
-x,-y,-z
x,1/2+y,-z
-x,1/2+y,1/2+z
x,-y,1/2+z
1/2+x,1/2+y,z
1/2-x,-y,z
1/2+x,-y,1/2-z
1/2-x,1/2+y,1/2-z
1/2-x,1/2-y,-z
1/2+x,y,-z
1/2-x,y,1/2+z
1/2+x,1/2-y,1/2+z
loop_
_atom_site_type_symbol
_atom_site_label
_atom_site_fract_x
_atom_site_fract_y
_atom_site_fract_z
Si Si1 0.750000 0.000000 0.477765
Si Si2 0.750000 0.000000 0.793665
Si Si3 0.000000 0.910832 0.250000
Si Si4 0.659808 0.388941 0.610601
Si Si5 0.587851 0.918291 0.057460
Si Si6 0.000000 0.250000 0.671436
Si Si7 0.500000 0.250000 0.491195
Si Si8 0.779128 0.285050 0.908776
O O1 0.751249 0.080043 0.437443
O O2 0.631693 0.008498 0.516671
O O3 0.628202 0.969318 0.759436
O O4 0.791496 0.922809 0.834357
O O5 0.997394 0.840677 0.296678
O O6 0.524952 0.436545 0.597655
O O7 0.664064 0.284285 0.602646
O O8 0.713444 0.880229 0.086239
O O9 0.535660 0.835919 0.023998
O O10 0.124709 0.262827 0.636923
O O11 0.627848 0.271136 0.457862
#
# Coordination Sequence:
#
# PCOD9509574 Si02
#       8
#     8   8   8  16  16   8   8  16
#     4  11  24  36  53  92 140 180 219 252 304 367
#     4  11  26  44  71  94 126 160 203 274 342 393
#     4  11  24  48  72  97 124 158 210 269 346 422
#     4  11  22  40  60  93 131 168 210 267 317 370
#     4  12  22  36  59  90 132 175 221 256 299 363
#     4  10  24  43  72  92 120 164 210 261 340 408
#     4  11  20  33  58  85 122 179 214 243 290 359
#     4  11  21  38  64  90 124 168 217 260 306 382
#
# _framework density 21.505004
#
# number of rings (size 3 to 8) (size 9 to 14) (size 15 to 20)
#    0.000    0.909    5.455    2.182    0.000    2.909 
#    0.000    0.000    0.000    0.000    0.000    0.000 
#    0.000    0.000    0.000    0.000    0.000    0.000 
#
# Total GULP energy -245460.046421 kJ/mol
# GULP energy per Si atom -5578.637419 kJ/mol
# Density = 2.145606 g / cm^3
# Si number density = 21.505004 Si / 1000 Ang^3
#
#
#
# Elastic Constant Matrix: (Units=GPa)
#
#
# Indices 1 2 3 4 5 6 
#
# 1 138.2415 11.9724 51.8257 0.0000 0.0000 0.0000
# 2 11.9724 55.2549 20.9740 0.0000 0.0000 0.0000
# 3 51.8257 20.9740 80.2375 0.0000 0.0000 0.0000
# 4 0.0000 0.0000 0.0000 5.8286 0.0000 0.0000
# 5 0.0000 0.0000 0.0000 0.0000 13.1088 0.0000
# 6 0.0000 0.0000 0.0000 0.0000 0.0000 37.9228
#
#
#
# Elastic Compliance Matrix: (Units=1/GPa)
#
#
# Indices 1 2 3 4 5 6 
#
# 1 0.009550 0.000302 -0.006247 0.000000 0.000000 0.000000
# 2 0.000302 0.020101 -0.005450 0.000000 0.000000 0.000000
# 3 -0.006247 -0.005450 0.017923 0.000000 0.000000 0.000000
# 4 0.000000 0.000000 0.000000 0.171568 0.000000 0.000000
# 5 0.000000 0.000000 0.000000 0.000000 0.076285 0.000000
# 6 0.000000 0.000000 0.000000 0.000000 0.000000 0.026369
#
#
# Mechanical properties :
#
#
# Convention : Reuss Voigt Hill
#
# Bulk Modulus (GPa) = 40.34833 49.25310 44.80072
# Shear Modulus (GPa) = 14.17051 23.96949 19.07000
#
# Velocity S-wave (km/s) = 2.56977 3.34219 2.98110
# Velocity P-wave (km/s) = 5.25433 6.15194 5.72077
#
# Compressibility (1/GPa) = 0.02478417
#
# Stress axis : x y z
#
# Youngs Moduli (GPa) = 104.71724 49.74866 55.79577
#
# Poissons Ratio (x) = -0.01503 0.34856
# Poissons Ratio (y) = -0.03164 0.30406
# Poissons Ratio (z) = 0.65417 0.27111
#
# Static dielectric constant tensor:
#      x y z
#    x 1.832120 0.000000 0.000000 
#    y 0.000000 1.808710 0.000000 
#    z 0.000000 0.000000 1.778280 
# 
# From -- ./inp_files/54065.got.cif
#   From: 2010.05.17/outbox.cif.g08.bks.cpg/sg68_28_cif.got.tgz:54065.got - 2010.06.03 18:57:09.
