data_PCOD9509241
_publ_section_title
;
Structure prediction by ZEFSAII (Michael W. Deem and Ramdas Pophale) SiO2 
 PCOD9509241
Probable space group: C C C A
;
_chemical_formula_sum "Si O2"
_cell_formula_units_Z 52
_cell_length_a 5.077385
_cell_length_b 25.531092
_cell_length_c 17.756787
_cell_angle_alpha 90.000000
_cell_angle_beta 90.000000
_cell_angle_gamma 90.000000
_cell_volume 2301.833315
_symmetry_space_group_name_H-M "C C C A"
_symmetry_group_IT_number 68
_space_group.IT_coordinate_system_code '2'
_symmetry_cell_setting 'orthorhombic'
loop_
_space_group_symop_operation_xyz
x,y,z
-x,1/2-y,z
x,1/2-y,1/2-z
-x,y,1/2-z
-x,-y,-z
x,1/2+y,-z
-x,1/2+y,1/2+z
x,-y,1/2+z
1/2+x,1/2+y,z
1/2-x,-y,z
1/2+x,-y,1/2-z
1/2-x,1/2+y,1/2-z
1/2-x,1/2-y,-z
1/2+x,y,-z
1/2-x,y,1/2+z
1/2+x,1/2-y,1/2+z
loop_
_atom_site_type_symbol
_atom_site_label
_atom_site_fract_x
_atom_site_fract_y
_atom_site_fract_z
Si Si1 0.609956 0.447235 0.834412
Si Si2 0.342733 0.621011 0.448633
Si Si3 0.839177 0.335999 0.326113
Si Si4 0.500000 0.250000 0.250000
O O1 0.500000 0.455464 0.750000
O O2 0.750000 0.500000 0.858028
O O3 0.391785 0.429443 0.895227
O O4 0.788931 0.394032 0.834288
O O5 0.055913 0.622265 0.483867
O O6 0.449521 0.667347 0.393674
O O7 0.658108 0.287650 0.306858
O O8 0.000000 0.341962 0.250000
#
# Coordination Sequence:
#
# PCOD9509241 Si02
#       4
#    16  16  16   4
#     4   9  21  38  65 100 134 179 227 281 327 408
#     4  10  23  42  67  99 144 178 221 281 345 416
#     4   9  23  41  64  99 126 178 230 277 336 401
#     4  12  22  40  76  86 132 172 244 286 326 404
#
# _framework density 22.590686999999999
#
# number of rings (size 3 to 8) (size 9 to 14) (size 15 to 20)
#    1.846    0.615    0.000    0.462    6.462    3.692 
#    0.000    1.538    0.000    0.000    0.000    0.000 
#    0.000    0.000    0.000    0.000    0.000    0.000 
#
# Total GULP energy -144774.262819 kJ/mol
# GULP energy per Si atom -5568.240878 kJ/mol
# Density = 2.253927 g / cm^3
# Si number density = 22.590687 Si / 1000 Ang^3
#
#
#
# Elastic Constant Matrix: (Units=GPa)
#
#
# Indices 1 2 3 4 5 6 
#
# 1 56.3912 31.1819 23.6381 0.0000 0.0000 0.0000
# 2 31.1819 122.6391 -2.4421 0.0000 0.0000 0.0000
# 3 23.6381 -2.4421 128.1752 0.0000 0.0000 0.0000
# 4 0.0000 0.0000 0.0000 26.0890 0.0000 0.0000
# 5 0.0000 0.0000 0.0000 0.0000 48.7388 0.0000
# 6 0.0000 0.0000 0.0000 0.0000 0.0000 -87.8565
#
#
#
# Elastic Compliance Matrix: (Units=1/GPa)
#
#
# Indices 1 2 3 4 5 6 
#
# 1 0.022795 -0.005882 -0.004316 0.000000 0.000000 0.000000
# 2 -0.005882 0.009675 0.001269 0.000000 0.000000 0.000000
# 3 -0.004316 0.001269 0.008622 0.000000 0.000000 0.000000
# 4 0.000000 0.000000 0.000000 0.038330 0.000000 0.000000
# 5 0.000000 0.000000 0.000000 0.000000 0.020518 0.000000
# 6 0.000000 0.000000 0.000000 0.000000 0.000000 -0.011382
#
#
# Mechanical properties :
#
#
# Convention : Reuss Voigt Hill
#
# Bulk Modulus (GPa) = 43.03969 45.77348 44.40659
# Shear Modulus (GPa) = 43.79863 14.38277 29.09070
#
# Velocity S-wave (km/s) = 4.40795 2.52597 3.59239
# Velocity P-wave (km/s) = 6.70820 5.36781 6.07509
#
# Compressibility (1/GPa) = 0.02323437
#
# Stress axis : x y z
#
# Youngs Moduli (GPa) = 43.86981 103.36205 115.98325
#
# Poissons Ratio (x) = 0.60794 0.50057
# Poissons Ratio (y) = 0.25803 -0.14719
# Poissons Ratio (z) = 0.18934 -0.13117
#
# Static dielectric constant tensor:
#      x y z
#    x 1.902290 0.000000 0.000000 
#    y 0.000000 1.913420 0.000000 
#    z 0.000000 0.000000 1.836350 
# 
# From -- ./inp_files/26940.got.cif
#   From: 2010.05.17/outbox.cif.g08.bks.cpg/sg68_14_cif.got.tgz:26940.got - 2010.06.03 18:57:09.
