data_PCOD9509951
_publ_section_title
;
Structure prediction by ZEFSAII (Michael W. Deem and Ramdas Pophale) SiO2 
 PCOD9509951
Probable space group: C C C A
;
_chemical_formula_sum "Si O2"
_cell_formula_units_Z 56
_cell_length_a 14.419536
_cell_length_b 11.029913
_cell_length_c 16.250565
_cell_angle_alpha 90.000000
_cell_angle_beta 90.000000
_cell_angle_gamma 90.000000
_cell_volume 2584.591059
_symmetry_space_group_name_H-M "C C C A"
_symmetry_group_IT_number 68
_space_group.IT_coordinate_system_code '2'
_symmetry_cell_setting 'orthorhombic'
loop_
_space_group_symop_operation_xyz
x,y,z
-x,1/2-y,z
x,1/2-y,1/2-z
-x,y,1/2-z
-x,-y,-z
x,1/2+y,-z
-x,1/2+y,1/2+z
x,-y,1/2+z
1/2+x,1/2+y,z
1/2-x,-y,z
1/2+x,-y,1/2-z
1/2-x,1/2+y,1/2-z
1/2-x,1/2-y,-z
1/2+x,y,-z
1/2-x,y,1/2+z
1/2+x,1/2-y,1/2+z
loop_
_atom_site_type_symbol
_atom_site_label
_atom_site_fract_x
_atom_site_fract_y
_atom_site_fract_z
Si Si1 0.267112 0.244525 0.903016
Si Si2 0.585363 0.088312 0.695888
Si Si3 0.578085 0.672949 0.836946
Si Si4 0.750000 0.500000 0.186066
O O1 0.360452 0.182593 0.864260
O O2 0.181159 0.167321 0.870064
O O3 0.247721 0.379033 0.868306
O O4 0.250000 0.250000 0.000000
O O5 0.500000 0.134796 0.750000
O O6 0.543798 0.964974 0.657701
O O7 0.662631 0.029717 0.756203
O O8 0.500000 0.750000 0.884132
O O9 0.587118 0.750000 0.750000
#
# Coordination Sequence:
#
# PCOD9509951 Si02
#       4
#    16  16  16   8
#     4  12  27  44  67 109 156 191 243 328 394 445
#     4  12  23  45  78 105 140 202 268 310 365 472
#     4  11  19  43  74 103 136 196 257 301 371 464
#     4  12  24  44  70 100 144 196 258 302 378 464
#
# _framework density 21.666871
#
# number of rings (size 3 to 8) (size 9 to 14) (size 15 to 20)
#    0.000    0.286    8.571    0.857    4.000    2.286 
#    5.143    2.857    0.000    0.000    0.000    0.000 
#    0.000    0.000    0.000    0.000    0.000    0.000 
#
# Total GULP energy -155899.930812 kJ/mol
# GULP energy per Si atom -5567.854672 kJ/mol
# Density = 2.161756 g / cm^3
# Si number density = 21.666871 Si / 1000 Ang^3
#
#
#
# Elastic Constant Matrix: (Units=GPa)
#
#
# Indices 1 2 3 4 5 6 
#
# 1 142.3915 35.5018 49.7508 0.0000 0.0000 0.0000
# 2 35.5018 184.6036 49.5867 0.0000 0.0000 0.0000
# 3 49.7508 49.5867 115.2183 0.0000 0.0000 0.0000
# 4 0.0000 0.0000 0.0000 22.7692 0.0000 0.0000
# 5 0.0000 0.0000 0.0000 0.0000 5.6922 0.0000
# 6 0.0000 0.0000 0.0000 0.0000 0.0000 32.5870
#
#
#
# Elastic Compliance Matrix: (Units=1/GPa)
#
#
# Indices 1 2 3 4 5 6 
#
# 1 0.008355 -0.000721 -0.003297 0.000000 0.000000 0.000000
# 2 -0.000721 0.006187 -0.002351 0.000000 0.000000 0.000000
# 3 -0.003297 -0.002351 0.011115 0.000000 0.000000 0.000000
# 4 0.000000 0.000000 0.000000 0.043919 0.000000 0.000000
# 5 0.000000 0.000000 0.000000 0.000000 0.175678 0.000000
# 6 0.000000 0.000000 0.000000 0.000000 0.000000 0.030687
#
#
# Mechanical properties :
#
#
# Convention : Reuss Voigt Hill
#
# Bulk Modulus (GPa) = 77.41485 79.09910 78.25697
# Shear Modulus (GPa) = 17.06567 32.70131 24.88349
#
# Velocity S-wave (km/s) = 2.80953 3.88916 3.39257
# Velocity P-wave (km/s) = 6.80675 7.53350 7.17932
#
# Compressibility (1/GPa) = 0.01291742
#
# Stress axis : x y z
#
# Youngs Moduli (GPa) = 119.69328 161.62084 89.96921
#
# Poissons Ratio (x) = 0.11654 0.29665
# Poissons Ratio (y) = 0.08631 0.21156
# Poissons Ratio (z) = 0.39465 0.38005
#
# Static dielectric constant tensor:
#      x y z
#    x 1.519060 0.000000 0.000000 
#    y 0.000000 2.304390 0.000000 
#    z 0.000000 0.000000 1.946020 
# 
# From -- ./inp_files/21578.got.cif
#   From: 2010.05.17/outbox.cif.g08.bks.cpg/sg68_11_cif.got.tgz:21578.got - 2010.06.03 18:57:09.
