data_PCOD9509287
_publ_section_title
;
Structure prediction by ZEFSAII (Michael W. Deem and Ramdas Pophale) SiO2 
 PCOD9509287
Probable space group: C C C A
;
_chemical_formula_sum "Si O2"
_cell_formula_units_Z 88
_cell_length_a 22.204513
_cell_length_b 31.725520
_cell_length_c 5.616307
_cell_angle_alpha 90.000000
_cell_angle_beta 90.000000
_cell_angle_gamma 90.000000
_cell_volume 3956.405901
_symmetry_space_group_name_H-M "C C C A"
_symmetry_group_IT_number 68
_space_group.IT_coordinate_system_code '2'
_symmetry_cell_setting 'orthorhombic'
loop_
_space_group_symop_operation_xyz
x,y,z
-x,1/2-y,z
x,1/2-y,1/2-z
-x,y,1/2-z
-x,-y,-z
x,1/2+y,-z
-x,1/2+y,1/2+z
x,-y,1/2+z
1/2+x,1/2+y,z
1/2-x,-y,z
1/2+x,-y,1/2-z
1/2-x,1/2+y,1/2-z
1/2-x,1/2-y,-z
1/2+x,y,-z
1/2-x,y,1/2+z
1/2+x,1/2-y,1/2+z
loop_
_atom_site_type_symbol
_atom_site_label
_atom_site_fract_x
_atom_site_fract_y
_atom_site_fract_z
Si Si1 0.379089 0.250000 0.250000
Si Si2 0.778094 0.346130 0.237772
Si Si3 0.064991 0.839043 0.356492
Si Si4 0.179999 0.483787 0.935760
Si Si5 0.000000 0.119028 0.250000
Si Si6 0.879653 0.395626 0.479306
Si Si7 0.191934 0.750000 0.750000
O O1 0.416550 0.207821 0.293403
O O2 0.343552 0.254337 0.499630
O O3 0.740410 0.359810 0.472187
O O4 0.843045 0.364578 0.303651
O O5 0.775475 0.295095 0.230188
O O6 0.000000 0.848316 0.250000
O O7 0.046665 0.849222 0.622709
O O8 0.110605 0.870430 0.225964
O O9 0.154625 0.493817 0.673305
O O10 0.250000 0.500000 0.923421
O O11 0.164177 0.435292 0.984060
O O12 0.051842 0.092723 0.391731
#
# Coordination Sequence:
#
# PCOD9509287 Si02
#       7
#     8  16  16  16   8  16   8
#     4  12  23  41  70 101 146 193 258 312 366 426
#     4  12  27  42  71 102 144 200 249 310 371 446
#     4  10  23  43  67 104 139 199 245 314 359 441
#     4  10  25  46  74 110 147 180 233 310 373 452
#     4  10  24  46  77 104 152 198 252 310 378 451
#     4  11  25  46  76 106 149 192 253 301 389 450
#     4  12  24  45  61  97 148 196 250 309 364 440
#
# _framework density 22.242411000000001
#
# number of rings (size 3 to 8) (size 9 to 14) (size 15 to 20)
#    0.000    1.091    1.818    3.000   12.727    0.000 
#    0.000    0.909    0.000    0.000    0.000    0.000 
#    0.000    0.000    0.000    0.000    0.000    0.000 
#
# Total GULP energy -244997.082470 kJ/mol
# GULP energy per Si atom -5568.115511 kJ/mol
# Density = 2.219179 g / cm^3
# Si number density = 22.242411 Si / 1000 Ang^3
#
#
#
# Elastic Constant Matrix: (Units=GPa)
#
#
# Indices 1 2 3 4 5 6 
#
# 1 124.4939 38.9989 50.9049 0.0000 0.0000 0.0000
# 2 38.9989 83.8925 -17.4595 0.0000 0.0000 0.0000
# 3 50.9049 -17.4595 74.2505 0.0000 0.0000 0.0000
# 4 0.0000 0.0000 0.0000 7.1219 0.0000 0.0000
# 5 0.0000 0.0000 0.0000 0.0000 84.1423 0.0000
# 6 0.0000 0.0000 0.0000 0.0000 0.0000 47.2350
#
#
#
# Elastic Compliance Matrix: (Units=1/GPa)
#
#
# Indices 1 2 3 4 5 6 
#
# 1 0.017533 -0.011200 -0.014654 0.000000 0.000000 0.000000
# 2 -0.011200 0.019688 0.012308 0.000000 0.000000 0.000000
# 3 -0.014654 0.012308 0.026409 0.000000 0.000000 0.000000
# 4 0.000000 0.000000 0.000000 0.140412 0.000000 0.000000
# 5 0.000000 0.000000 0.000000 0.000000 0.011885 0.000000
# 6 0.000000 0.000000 0.000000 0.000000 0.000000 0.021171
#
#
# Mechanical properties :
#
#
# Convention : Reuss Voigt Hill
#
# Bulk Modulus (GPa) = 27.36887 47.50285 37.43586
# Shear Modulus (GPa) = 18.09175 41.71268 29.90222
#
# Velocity S-wave (km/s) = 2.85509 4.33525 3.67055
# Velocity P-wave (km/s) = 4.81667 6.81633 5.90181
#
# Compressibility (1/GPa) = 0.03653787
#
# Stress axis : x y z
#
# Youngs Moduli (GPa) = 57.03494 50.79170 37.86629
#
# Poissons Ratio (x) = 0.56888 0.55490
# Poissons Ratio (y) = 0.63881 -0.46607
# Poissons Ratio (z) = 0.83579 -0.62516
#
# Static dielectric constant tensor:
#      x y z
#    x 1.878530 0.000000 0.000000 
#    y 0.000000 1.767850 0.000000 
#    z 0.000000 0.000000 2.042600 
# 
# From -- ./inp_files/2101.got.cif
#   From: 2010.05.17/outbox.cif.g08.bks.cpg/sg68_2_cif.got.tgz:2101.got - 2010.06.03 18:57:09.
