data_PCOD9509160
_publ_section_title
;
Structure prediction by ZEFSAII (Michael W. Deem and Ramdas Pophale) SiO2 
 PCOD9509160
Probable space group: C C C A
;
_chemical_formula_sum "Si O2"
_cell_formula_units_Z 56
_cell_length_a 5.012680
_cell_length_b 15.026685
_cell_length_c 30.627278
_cell_angle_alpha 90.000000
_cell_angle_beta 90.000000
_cell_angle_gamma 90.000000
_cell_volume 2306.967966
_symmetry_space_group_name_H-M "C C C A"
_symmetry_group_IT_number 68
_space_group.IT_coordinate_system_code '2'
_symmetry_cell_setting 'orthorhombic'
loop_
_space_group_symop_operation_xyz
x,y,z
-x,1/2-y,z
x,1/2-y,1/2-z
-x,y,1/2-z
-x,-y,-z
x,1/2+y,-z
-x,1/2+y,1/2+z
x,-y,1/2+z
1/2+x,1/2+y,z
1/2-x,-y,z
1/2+x,-y,1/2-z
1/2-x,1/2+y,1/2-z
1/2-x,1/2-y,-z
1/2+x,y,-z
1/2-x,y,1/2+z
1/2+x,1/2-y,1/2+z
loop_
_atom_site_type_symbol
_atom_site_label
_atom_site_fract_x
_atom_site_fract_y
_atom_site_fract_z
Si Si1 0.701341 0.849493 0.018737
Si Si2 0.057785 0.583542 0.609253
Si Si3 0.000000 0.437601 0.750000
Si Si4 0.535088 0.854356 0.841156
O O1 0.589439 0.853435 0.067177
O O2 0.750000 0.750000 0.000000
O O3 0.488745 0.893308 0.986415
O O4 0.250000 0.500000 0.594819
O O5 0.236536 0.612746 0.649783
O O6 0.753298 0.596516 0.627188
O O7 0.250000 0.500000 0.737971
O O8 0.093078 0.378992 0.791275
O O9 0.500000 0.750000 0.849927
#
# Coordination Sequence:
#
# PCOD9509160 Si02
#       4
#    16  16   8  16
#     4  10  23  40  67  97 139 184 249 297 380 434
#     4  12  26  45  71 107 146 192 246 309 372 442
#     4  12  25  48  77 106 150 188 236 302 367 442
#     4  12  27  45  75 107 147 193 245 296 370 450
#
# _framework density 24.274287000000001
#
# number of rings (size 3 to 8) (size 9 to 14) (size 15 to 20)
#    0.000    0.571    0.000    8.143   12.000    1.143 
#    0.000    4.286    0.000    0.000    0.000    0.000 
#    0.000    0.000    0.000    0.000    0.000    0.000 
#
# Total GULP energy -155962.533896 kJ/mol
# GULP energy per Si atom -5570.090496 kJ/mol
# Density = 2.421904 g / cm^3
# Si number density = 24.274287 Si / 1000 Ang^3
#
#
#
# Elastic Constant Matrix: (Units=GPa)
#
#
# Indices 1 2 3 4 5 6 
#
# 1 172.1500 2.2245 13.0528 0.0000 0.0000 0.0000
# 2 2.2245 106.9240 10.0684 0.0000 0.0000 0.0000
# 3 13.0528 10.0684 130.4610 0.0000 0.0000 0.0000
# 4 0.0000 0.0000 0.0000 40.6184 0.0000 0.0000
# 5 0.0000 0.0000 0.0000 0.0000 14.4861 0.0000
# 6 0.0000 0.0000 0.0000 0.0000 0.0000 21.3020
#
#
#
# Elastic Compliance Matrix: (Units=1/GPa)
#
#
# Indices 1 2 3 4 5 6 
#
# 1 0.005854 -0.000067 -0.000580 0.000000 0.000000 0.000000
# 2 -0.000067 0.009422 -0.000720 0.000000 0.000000 0.000000
# 3 -0.000580 -0.000720 0.007779 0.000000 0.000000 0.000000
# 4 0.000000 0.000000 0.000000 0.024619 0.000000 0.000000
# 5 0.000000 0.000000 0.000000 0.000000 0.069032 0.000000
# 6 0.000000 0.000000 0.000000 0.000000 0.000000 0.046944
#
#
# Mechanical properties :
#
#
# Convention : Reuss Voigt Hill
#
# Bulk Modulus (GPa) = 49.21698 51.13626 50.17662
# Shear Modulus (GPa) = 28.87531 40.89391 34.88461
#
# Velocity S-wave (km/s) = 3.45272 4.10891 3.79502
# Velocity P-wave (km/s) = 6.01784 6.60474 6.31811
#
# Compressibility (1/GPa) = 0.02031819
#
# Stress axis : x y z
#
# Youngs Moduli (GPa) = 170.83013 106.13825 128.55445
#
# Poissons Ratio (x) = 0.00712 0.07463
# Poissons Ratio (y) = 0.01147 0.09261
# Poissons Ratio (z) = 0.09917 0.07646
#
# Static dielectric constant tensor:
#      x y z
#    x 2.413310 0.000000 0.000000 
#    y 0.000000 2.598520 0.000000 
#    z 0.000000 0.000000 1.914310 
# 
# From -- ./inp_files/51161.got.cif
#   From: 2010.05.17/outbox.cif.g08.bks.cpg/sg68_26_cif.got.tgz:51161.got - 2010.06.03 18:57:09.
