data_PCOD9509764
_publ_section_title
;
Structure prediction by ZEFSAII (Michael W. Deem and Ramdas Pophale) SiO2 
 PCOD9509764
Probable space group: C C C A
;
_chemical_formula_sum "Si O2"
_cell_formula_units_Z 64
_cell_length_a 12.632866
_cell_length_b 7.247289
_cell_length_c 28.434940
_cell_angle_alpha 90.000000
_cell_angle_beta 90.000000
_cell_angle_gamma 90.000000
_cell_volume 2603.333373
_symmetry_space_group_name_H-M "C C C A"
_symmetry_group_IT_number 68
_space_group.IT_coordinate_system_code '2'
_symmetry_cell_setting 'orthorhombic'
loop_
_space_group_symop_operation_xyz
x,y,z
-x,1/2-y,z
x,1/2-y,1/2-z
-x,y,1/2-z
-x,-y,-z
x,1/2+y,-z
-x,1/2+y,1/2+z
x,-y,1/2+z
1/2+x,1/2+y,z
1/2-x,-y,z
1/2+x,-y,1/2-z
1/2-x,1/2+y,1/2-z
1/2-x,1/2-y,-z
1/2+x,y,-z
1/2-x,y,1/2+z
1/2+x,1/2-y,1/2+z
loop_
_atom_site_type_symbol
_atom_site_label
_atom_site_fract_x
_atom_site_fract_y
_atom_site_fract_z
Si Si1 0.358424 0.571175 0.546105
Si Si2 0.000000 0.250000 0.032619
Si Si3 0.623018 0.406796 0.771748
Si Si4 0.750000 0.500000 0.698780
Si Si5 0.380846 0.196707 0.355118
O O1 0.250000 0.500000 0.525577
O O2 0.412996 0.677894 0.503945
O O3 0.443368 0.413024 0.560442
O O4 0.328321 0.672595 0.594182
O O5 0.500000 0.454236 0.750000
O O6 0.750000 0.500000 0.757034
O O7 0.650143 0.312793 0.713667
O O8 0.618791 0.520311 0.820868
O O9 0.673398 0.636984 0.672792
O O10 0.500000 0.250000 0.365673
#
# Coordination Sequence:
#
# PCOD9509764 Si02
#       5
#    16   8  16   8  16
#     4  11  25  46  77 107 147 187 245 308 376 453
#     4  10  24  50  76 108 142 194 240 306 392 450
#     4  11  24  42  69  98 142 195 248 305 365 428
#     4  12  26  42  72  98 146 202 238 302 374 426
#     4  12  26  47  68 108 150 192 252 313 360 454
#
# _framework density 24.583864999999999
#
# number of rings (size 3 to 8) (size 9 to 14) (size 15 to 20)
#    0.000    0.750    3.750    3.000    5.250    4.000 
#    2.250    0.000    0.000    0.000    0.000    0.000 
#    0.000    0.000    0.000    0.000    0.000    0.000 
#
# Total GULP energy -178138.899291 kJ/mol
# GULP energy per Si atom -5566.840603 kJ/mol
# Density = 2.452791 g / cm^3
# Si number density = 24.583865 Si / 1000 Ang^3
#
#
#
# Elastic Constant Matrix: (Units=GPa)
#
#
# Indices 1 2 3 4 5 6 
#
# 1 131.5404 16.2342 27.6734 0.0000 0.0000 0.0000
# 2 16.2342 117.7731 29.6837 0.0000 0.0000 0.0000
# 3 27.6734 29.6837 64.5513 0.0000 0.0000 0.0000
# 4 0.0000 0.0000 0.0000 40.1963 0.0000 0.0000
# 5 0.0000 0.0000 0.0000 0.0000 88.1929 0.0000
# 6 0.0000 0.0000 0.0000 0.0000 0.0000 54.9086
#
#
#
# Elastic Compliance Matrix: (Units=1/GPa)
#
#
# Indices 1 2 3 4 5 6 
#
# 1 0.008364 -0.000282 -0.003456 0.000000 0.000000 0.000000
# 2 -0.000282 0.009614 -0.004300 0.000000 0.000000 0.000000
# 3 -0.003456 -0.004300 0.018951 0.000000 0.000000 0.000000
# 4 0.000000 0.000000 0.000000 0.024878 0.000000 0.000000
# 5 0.000000 0.000000 0.000000 0.000000 0.011339 0.000000
# 6 0.000000 0.000000 0.000000 0.000000 0.000000 0.018212
#
#
# Mechanical properties :
#
#
# Convention : Reuss Voigt Hill
#
# Bulk Modulus (GPa) = 47.95620 51.22750 49.59185
# Shear Modulus (GPa) = 43.71260 52.67777 48.19518
#
# Velocity S-wave (km/s) = 4.22133 4.63404 4.43249
# Velocity P-wave (km/s) = 6.58096 7.03672 6.81265
#
# Compressibility (1/GPa) = 0.02085236
#
# Stress axis : x y z
#
# Youngs Moduli (GPa) = 119.55843 104.02030 52.76903
#
# Poissons Ratio (x) = 0.02932 0.18238
# Poissons Ratio (y) = 0.03370 0.22690
# Poissons Ratio (z) = 0.41321 0.44728
#
# Static dielectric constant tensor:
#      x y z
#    x 1.897910 0.000000 0.000000 
#    y 0.000000 -1.418770 0.000000 
#    z 0.000000 0.000000 1.861820 
# 
# From -- ./inp_files/54430.got.cif
#   From: 2010.05.17/outbox.cif.g08.bks.cpg/sg68_28_cif.got.tgz:54430.got - 2010.06.03 18:57:09.
