data_PCOD9509540
_publ_section_title
;
Structure prediction by ZEFSAII (Michael W. Deem and Ramdas Pophale) SiO2 
 PCOD9509540
Probable space group: C C C A
;
_chemical_formula_sum "Si O2"
_cell_formula_units_Z 56
_cell_length_a 12.980476
_cell_length_b 9.138192
_cell_length_c 21.095306
_cell_angle_alpha 90.000000
_cell_angle_beta 90.000000
_cell_angle_gamma 90.000000
_cell_volume 2502.284736
_symmetry_space_group_name_H-M "C C C A"
_symmetry_group_IT_number 68
_space_group.IT_coordinate_system_code '2'
_symmetry_cell_setting 'orthorhombic'
loop_
_space_group_symop_operation_xyz
x,y,z
-x,1/2-y,z
x,1/2-y,1/2-z
-x,y,1/2-z
-x,-y,-z
x,1/2+y,-z
-x,1/2+y,1/2+z
x,-y,1/2+z
1/2+x,1/2+y,z
1/2-x,-y,z
1/2+x,-y,1/2-z
1/2-x,1/2+y,1/2-z
1/2-x,1/2-y,-z
1/2+x,y,-z
1/2-x,y,1/2+z
1/2+x,1/2-y,1/2+z
loop_
_atom_site_type_symbol
_atom_site_label
_atom_site_fract_x
_atom_site_fract_y
_atom_site_fract_z
Si Si1 0.900085 0.134949 0.705235
Si Si2 0.884828 0.200506 0.176947
Si Si3 0.310453 0.745301 0.911394
Si Si4 0.250000 0.500000 0.995675
O O1 0.838132 0.250000 0.750000
O O2 0.896523 0.224015 0.640220
O O3 0.000000 0.108306 0.750000
O O4 0.868048 0.974159 0.683635
O O5 0.878968 0.250000 0.250000
O O6 0.797764 0.257853 0.128429
O O7 0.000000 0.250000 0.155348
O O8 0.322319 0.596528 0.950251
O O9 0.304484 0.880356 0.960132
#
# Coordination Sequence:
#
# PCOD9509540 Si02
#       4
#    16  16  16   8
#     4  11  23  40  66  99 134 169 224 292 343 406
#     4  11  22  40  65 100 137 173 222 293 351 402
#     4  11  23  43  68  96 135 182 238 272 347 407
#     4  10  24  42  70  92 134 192 230 276 328 424
#
# _framework density 22.379546999999999
#
# number of rings (size 3 to 8) (size 9 to 14) (size 15 to 20)
#    0.000    1.143    5.714    0.857    4.000    0.000 
#    0.000    1.429   25.143    0.000    0.000    0.000 
#    0.000    0.000    0.000    0.000    0.000    0.000 
#
# Total GULP energy -155937.349940 kJ/mol
# GULP energy per Si atom -5569.191069 kJ/mol
# Density = 2.232861 g / cm^3
# Si number density = 22.379547 Si / 1000 Ang^3
#
#
#
# Elastic Constant Matrix: (Units=GPa)
#
#
# Indices 1 2 3 4 5 6 
#
# 1 140.9420 15.3999 36.0436 0.0000 0.0000 0.0000
# 2 15.3999 112.8223 54.3474 0.0000 0.0000 0.0000
# 3 36.0436 54.3474 149.7272 0.0000 0.0000 0.0000
# 4 0.0000 0.0000 0.0000 50.1584 0.0000 0.0000
# 5 0.0000 0.0000 0.0000 0.0000 53.3977 0.0000
# 6 0.0000 0.0000 0.0000 0.0000 0.0000 -5.3069
#
#
#
# Elastic Compliance Matrix: (Units=1/GPa)
#
#
# Indices 1 2 3 4 5 6 
#
# 1 0.007564 -0.000188 -0.001753 0.000000 0.000000 0.000000
# 2 -0.000188 0.010746 -0.003855 0.000000 0.000000 0.000000
# 3 -0.001753 -0.003855 0.008500 0.000000 0.000000 0.000000
# 4 0.000000 0.000000 0.000000 0.019937 0.000000 0.000000
# 5 0.000000 0.000000 0.000000 0.000000 0.018727 0.000000
# 6 0.000000 0.000000 0.000000 0.000000 0.000000 -0.188435
#
#
# Mechanical properties :
#
#
# Convention : Reuss Voigt Hill
#
# Bulk Modulus (GPa) = 65.71127 68.34147 67.02637
# Shear Modulus (GPa) = -47.03875 39.49656 -3.77110
#
# Velocity S-wave (km/s) = -4.58958 4.20557 -1.29951
# Velocity P-wave (km/s) = 1.15769 7.36113 5.26908
#
# Compressibility (1/GPa) = 0.01521809
#
# Stress axis : x y z
#
# Youngs Moduli (GPa) = 132.20768 93.05485 117.64580
#
# Poissons Ratio (x) = 0.01752 0.20617
# Poissons Ratio (y) = 0.02489 0.45357
# Poissons Ratio (z) = 0.23169 0.35876
#
# Static dielectric constant tensor:
#      x y z
#    x 1.930820 0.000000 0.000000 
#    y 0.000000 1.705030 0.000000 
#    z 0.000000 0.000000 1.799600 
# 
# From -- ./inp_files/38149.got.cif
#   From: 2010.05.17/outbox.cif.g08.bks.cpg/sg68_20_cif.got.tgz:38149.got - 2010.06.03 18:57:09.
