data_PCOD9509208
_publ_section_title
;
Structure prediction by ZEFSAII (Michael W. Deem and Ramdas Pophale) SiO2 
 PCOD9509208
Probable space group: C C C A
;
_chemical_formula_sum "Si O2"
_cell_formula_units_Z 40
_cell_length_a 13.941110
_cell_length_b 22.779548
_cell_length_c 5.156506
_cell_angle_alpha 90.000000
_cell_angle_beta 90.000000
_cell_angle_gamma 90.000000
_cell_volume 1637.562874
_symmetry_space_group_name_H-M "C C C A"
_symmetry_group_IT_number 68
_space_group.IT_coordinate_system_code '2'
_symmetry_cell_setting 'orthorhombic'
loop_
_space_group_symop_operation_xyz
x,y,z
-x,1/2-y,z
x,1/2-y,1/2-z
-x,y,1/2-z
-x,-y,-z
x,1/2+y,-z
-x,1/2+y,1/2+z
x,-y,1/2+z
1/2+x,1/2+y,z
1/2-x,-y,z
1/2+x,-y,1/2-z
1/2-x,1/2+y,1/2-z
1/2-x,1/2-y,-z
1/2+x,y,-z
1/2-x,y,1/2+z
1/2+x,1/2-y,1/2+z
loop_
_atom_site_type_symbol
_atom_site_label
_atom_site_fract_x
_atom_site_fract_y
_atom_site_fract_z
Si Si1 0.061191 0.357363 0.485921
Si Si2 0.180341 0.250000 0.250000
Si Si3 0.642707 0.974735 0.645496
O O1 0.111398 0.303351 0.336865
O O2 0.137288 0.406774 0.572520
O O3 0.000000 0.384117 0.250000
O O4 0.000000 0.342513 0.750000
O O5 0.250000 0.250000 0.500000
O O6 0.597372 0.985757 0.922531
O O7 0.750000 0.000000 0.682301
#
# Coordination Sequence:
#
# PCOD9509208 Si02
#       3
#    16   8  16
#     4  12  27  48  77 113 155 199 259 334 398 462
#     4  12  29  48  81 108 150 210 270 318 399 476
#     4  10  23  41  72 106 155 197 250 306 389 472
#
# _framework density 24.426542999999999
#
# number of rings (size 3 to 8) (size 9 to 14) (size 15 to 20)
#    0.000    0.800    0.000    5.400   11.200    6.400 
#    0.000    0.000    0.000    0.000    0.000    0.000 
#    0.000    0.000    0.000    0.000    0.000    0.000 
#
# Total GULP energy -111635.337758 kJ/mol
# GULP energy per Si atom -5581.766888 kJ/mol
# Density = 2.437095 g / cm^3
# Si number density = 24.426543 Si / 1000 Ang^3
#
#
#
# Elastic Constant Matrix: (Units=GPa)
#
#
# Indices 1 2 3 4 5 6 
#
# 1 126.4081 69.4778 62.5626 0.0000 0.0000 0.0000
# 2 69.4778 181.0559 52.1239 0.0000 0.0000 0.0000
# 3 62.5626 52.1239 233.4166 0.0000 0.0000 0.0000
# 4 0.0000 0.0000 0.0000 44.6197 0.0000 0.0000
# 5 0.0000 0.0000 0.0000 0.0000 31.5081 0.0000
# 6 0.0000 0.0000 0.0000 0.0000 0.0000 46.9534
#
#
#
# Elastic Compliance Matrix: (Units=1/GPa)
#
#
# Indices 1 2 3 4 5 6 
#
# 1 0.010935 -0.003583 -0.002131 0.000000 0.000000 0.000000
# 2 -0.003583 0.007076 -0.000620 0.000000 0.000000 0.000000
# 3 -0.002131 -0.000620 0.004994 0.000000 0.000000 0.000000
# 4 0.000000 0.000000 0.000000 0.022412 0.000000 0.000000
# 5 0.000000 0.000000 0.000000 0.000000 0.031738 0.000000
# 6 0.000000 0.000000 0.000000 0.000000 0.000000 0.021298
#
#
# Mechanical properties :
#
#
# Convention : Reuss Voigt Hill
#
# Bulk Modulus (GPa) = 96.72998 101.02324 98.87661
# Shear Modulus (GPa) = 43.64352 48.39732 46.02042
#
# Velocity S-wave (km/s) = 4.23155 4.45606 4.34525
# Velocity P-wave (km/s) = 7.97252 8.24154 8.10815
#
# Compressibility (1/GPa) = 0.01033806
#
# Stress axis : x y z
#
# Youngs Moduli (GPa) = 91.45330 141.31466 200.25061
#
# Poissons Ratio (x) = 0.50627 0.42669
# Poissons Ratio (y) = 0.32764 0.12415
# Poissons Ratio (z) = 0.19487 0.08761
#
# Static dielectric constant tensor:
#      x y z
#    x 1.999140 0.000000 0.000000 
#    y 0.000000 1.949540 0.000000 
#    z 0.000000 0.000000 2.021460 
# 
# From -- ./inp_files/469.got.cif
#   From: 2010.05.17/outbox.cif.g08.bks.cpg/sg68_1_cif.got.tgz:469.got - 2010.06.03 18:57:09.
