data_PCOD9509846
_publ_section_title
;
Structure prediction by ZEFSAII (Michael W. Deem and Ramdas Pophale) SiO2 
 PCOD9509846
Probable space group: C C C A
;
_chemical_formula_sum "Si O2"
_cell_formula_units_Z 64
_cell_length_a 19.529716
_cell_length_b 13.532368
_cell_length_c 8.911817
_cell_angle_alpha 90.000000
_cell_angle_beta 90.000000
_cell_angle_gamma 90.000000
_cell_volume 2355.244440
_symmetry_space_group_name_H-M "C C C A"
_symmetry_group_IT_number 68
_space_group.IT_coordinate_system_code '2'
_symmetry_cell_setting 'orthorhombic'
loop_
_space_group_symop_operation_xyz
x,y,z
-x,1/2-y,z
x,1/2-y,1/2-z
-x,y,1/2-z
-x,-y,-z
x,1/2+y,-z
-x,1/2+y,1/2+z
x,-y,1/2+z
1/2+x,1/2+y,z
1/2-x,-y,z
1/2+x,-y,1/2-z
1/2-x,1/2+y,1/2-z
1/2-x,1/2-y,-z
1/2+x,y,-z
1/2-x,y,1/2+z
1/2+x,1/2-y,1/2+z
loop_
_atom_site_type_symbol
_atom_site_label
_atom_site_fract_x
_atom_site_fract_y
_atom_site_fract_z
Si Si1 0.500000 0.250000 0.750000
Si Si2 0.062280 0.422725 0.453815
Si Si3 0.500000 0.750000 0.750000
Si Si4 0.387095 0.106189 0.211745
Si Si5 0.218504 0.750000 0.750000
Si Si6 0.749425 0.617058 0.032009
O O1 0.461444 0.173227 0.638732
O O2 0.102650 0.496035 0.344144
O O3 0.102812 0.397811 0.608353
O O4 0.000000 0.500000 0.500000
O O5 0.551262 0.821528 0.838389
O O6 0.318222 0.141535 0.129805
O O7 0.246262 0.673709 0.623130
O O8 0.190867 0.667933 0.866633
O O9 0.750000 0.500000 0.011313
#
# Coordination Sequence:
#
# PCOD9509846 Si02
#       6
#     4  16   4  16   8  16
#     4  12  24  48  80 108 174 222 268 356 430 510
#     4  12  24  48  70 118 161 214 281 336 426 520
#     4  12  22  48  76 110 166 216 268 352 406 502
#     4  12  27  45  78 115 165 216 280 347 424 515
#     4  10  25  52  77 120 156 214 290 332 434 508
#     4  11  26  51  83 118 168 218 279 361 424 509
#
# _framework density 27.173399
#
# number of rings (size 3 to 8) (size 9 to 14) (size 15 to 20)
#    0.000    0.500    5.000    2.250    7.000    0.000 
#    0.000    2.500    0.000    0.000    0.000    0.000 
#    0.000    0.000    0.000    0.000    0.000    0.000 
#
# Total GULP energy -178743.562516 kJ/mol
# GULP energy per Si atom -5585.736329 kJ/mol
# Density = 2.711155 g / cm^3
# Si number density = 27.173399 Si / 1000 Ang^3
#
#
#
# Elastic Constant Matrix: (Units=GPa)
#
#
# Indices 1 2 3 4 5 6 
#
# 1 133.7178 62.7958 63.2832 0.0000 0.0000 0.0000
# 2 62.7958 288.3852 120.6683 0.0000 0.0000 0.0000
# 3 63.2832 120.6683 267.4034 0.0000 0.0000 0.0000
# 4 0.0000 0.0000 0.0000 61.7781 0.0000 0.0000
# 5 0.0000 0.0000 0.0000 0.0000 22.8406 0.0000
# 6 0.0000 0.0000 0.0000 0.0000 0.0000 51.2480
#
#
#
# Elastic Compliance Matrix: (Units=1/GPa)
#
#
# Indices 1 2 3 4 5 6 
#
# 1 0.008793 -0.001287 -0.001500 0.000000 0.000000 0.000000
# 2 -0.001287 0.004463 -0.001709 0.000000 0.000000 0.000000
# 3 -0.001500 -0.001709 0.004866 0.000000 0.000000 0.000000
# 4 0.000000 0.000000 0.000000 0.016187 0.000000 0.000000
# 5 0.000000 0.000000 0.000000 0.000000 0.043782 0.000000
# 6 0.000000 0.000000 0.000000 0.000000 0.000000 0.019513
#
#
# Mechanical properties :
#
#
# Convention : Reuss Voigt Hill
#
# Bulk Modulus (GPa) = 109.54208 131.44455 120.49332
# Shear Modulus (GPa) = 45.60395 56.69060 51.14728
#
# Velocity S-wave (km/s) = 4.10110 4.57251 4.34320
# Velocity P-wave (km/s) = 7.92623 8.73811 8.34205
#
# Compressibility (1/GPa) = 0.00912891
#
# Stress axis : x y z
#
# Youngs Moduli (GPa) = 113.73008 224.05983 205.50350
#
# Poissons Ratio (x) = 0.28835 0.30828
# Poissons Ratio (y) = 0.14636 0.35130
# Poissons Ratio (z) = 0.17061 0.38302
#
# Static dielectric constant tensor:
#      x y z
#    x 2.407260 0.000000 0.000000 
#    y 0.000000 2.127150 0.000000 
#    z 0.000000 0.000000 2.089170 
# 
# From -- ./inp_files/7786.got.cif
#   From: 2010.05.17/outbox.cif.g08.bks.cpg/sg68_4_cif.got.tgz:7786.got - 2010.06.03 18:57:09.
