data_PCOD9509729
_publ_section_title
;
Structure prediction by ZEFSAII (Michael W. Deem and Ramdas Pophale) SiO2 
 PCOD9509729
Probable space group: C C C A
;
_chemical_formula_sum "Si O2"
_cell_formula_units_Z 52
_cell_length_a 11.947829
_cell_length_b 22.170995
_cell_length_c 8.749399
_cell_angle_alpha 90.000000
_cell_angle_beta 90.000000
_cell_angle_gamma 90.000000
_cell_volume 2317.674297
_symmetry_space_group_name_H-M "C C C A"
_symmetry_group_IT_number 68
_space_group.IT_coordinate_system_code '2'
_symmetry_cell_setting 'orthorhombic'
loop_
_space_group_symop_operation_xyz
x,y,z
-x,1/2-y,z
x,1/2-y,1/2-z
-x,y,1/2-z
-x,-y,-z
x,1/2+y,-z
-x,1/2+y,1/2+z
x,-y,1/2+z
1/2+x,1/2+y,z
1/2-x,-y,z
1/2+x,-y,1/2-z
1/2-x,1/2+y,1/2-z
1/2-x,1/2-y,-z
1/2+x,y,-z
1/2-x,y,1/2+z
1/2+x,1/2-y,1/2+z
loop_
_atom_site_type_symbol
_atom_site_label
_atom_site_fract_x
_atom_site_fract_y
_atom_site_fract_z
Si Si1 0.000000 0.250000 0.750000
Si Si2 0.668279 0.586073 0.074417
Si Si3 0.163838 0.305079 0.995776
Si Si4 0.000000 0.839466 0.750000
Si Si5 0.250000 0.500000 0.664125
O O1 0.922323 0.209198 0.859052
O O2 0.765964 0.633760 0.032308
O O3 0.557406 0.622148 0.115060
O O4 0.696940 0.550026 0.227955
O O5 0.663476 0.535625 0.943540
O O6 0.250000 0.250000 0.000000
O O7 0.097461 0.306554 0.156153
#
# Coordination Sequence:
#
# PCOD9509729 Si02
#       5
#     4  16  16   8   8
#     4  12  28  42  74 106 138 190 232 296 382 436
#     4  11  24  48  71 110 146 195 243 309 356 441
#     4  12  27  49  74 109 149 184 244 308 364 443
#     4  12  26  47  79 106 143 202 241 294 390 438
#     4  10  24  48  72 102 158 190 244 312 356 420
#
# _framework density 22.436283
#
# number of rings (size 3 to 8) (size 9 to 14) (size 15 to 20)
#    0.000    0.615    3.077    3.692    4.308    5.538 
#    0.000    0.000    0.000    0.000    0.000    0.000 
#    0.000    0.000    0.000    0.000    0.000    0.000 
#
# Total GULP energy -145555.426540 kJ/mol
# GULP energy per Si atom -5598.285636 kJ/mol
# Density = 2.238522 g / cm^3
# Si number density = 22.436283 Si / 1000 Ang^3
#
#
#
# Elastic Constant Matrix: (Units=GPa)
#
#
# Indices 1 2 3 4 5 6 
#
# 1 101.8890 61.7649 41.1538 0.0000 0.0000 0.0000
# 2 61.7649 137.3529 69.8979 0.0000 0.0000 0.0000
# 3 41.1538 69.8979 124.1126 0.0000 0.0000 0.0000
# 4 0.0000 0.0000 0.0000 36.1496 0.0000 0.0000
# 5 0.0000 0.0000 0.0000 0.0000 31.7509 0.0000
# 6 0.0000 0.0000 0.0000 0.0000 0.0000 6.3548
#
#
#
# Elastic Compliance Matrix: (Units=1/GPa)
#
#
# Indices 1 2 3 4 5 6 
#
# 1 0.013690 -0.005391 -0.001503 0.000000 0.000000 0.000000
# 2 -0.005391 0.012328 -0.005156 0.000000 0.000000 0.000000
# 3 -0.001503 -0.005156 0.011459 0.000000 0.000000 0.000000
# 4 0.000000 0.000000 0.000000 0.027663 0.000000 0.000000
# 5 0.000000 0.000000 0.000000 0.000000 0.031495 0.000000
# 6 0.000000 0.000000 0.000000 0.000000 0.000000 0.157362
#
#
# Mechanical properties :
#
#
# Convention : Reuss Voigt Hill
#
# Bulk Modulus (GPa) = 74.75089 78.77642 76.76365
# Shear Modulus (GPa) = 17.69563 27.55356 22.62460
#
# Velocity S-wave (km/s) = 2.81144 3.50820 3.17897
# Velocity P-wave (km/s) = 6.62784 7.18313 6.91106
#
# Compressibility (1/GPa) = 0.01337777
#
# Stress axis : x y z
#
# Youngs Moduli (GPa) = 73.04708 81.11360 87.26669
#
# Poissons Ratio (x) = 0.43729 0.13118
# Poissons Ratio (y) = 0.39380 0.44991
# Poissons Ratio (z) = 0.10980 0.41818
#
# Static dielectric constant tensor:
#      x y z
#    x 1.899220 0.000000 0.000000 
#    y 0.000000 1.871990 0.000000 
#    z 0.000000 0.000000 1.842180 
# 
# From -- ./inp_files/3847.got.cif
#   From: 2010.05.17/outbox.cif.g08.bks.cpg/sg68_2_cif.got.tgz:3847.got - 2010.06.03 18:57:09.
