data_PCOD9509199
_publ_section_title
;
Structure prediction by ZEFSAII (Michael W. Deem and Ramdas Pophale) SiO2 
 PCOD9509199
Probable space group: C C C A
;
_chemical_formula_sum "Si O2"
_cell_formula_units_Z 112
_cell_length_a 12.085778
_cell_length_b 14.794622
_cell_length_c 28.419361
_cell_angle_alpha 90.000000
_cell_angle_beta 90.000000
_cell_angle_gamma 90.000000
_cell_volume 5081.510119
_symmetry_space_group_name_H-M "C C C A"
_symmetry_group_IT_number 68
_space_group.IT_coordinate_system_code '2'
_symmetry_cell_setting 'orthorhombic'
loop_
_space_group_symop_operation_xyz
x,y,z
-x,1/2-y,z
x,1/2-y,1/2-z
-x,y,1/2-z
-x,-y,-z
x,1/2+y,-z
-x,1/2+y,1/2+z
x,-y,1/2+z
1/2+x,1/2+y,z
1/2-x,-y,z
1/2+x,-y,1/2-z
1/2-x,1/2+y,1/2-z
1/2-x,1/2-y,-z
1/2+x,y,-z
1/2-x,y,1/2+z
1/2+x,1/2-y,1/2+z
loop_
_atom_site_type_symbol
_atom_site_label
_atom_site_fract_x
_atom_site_fract_y
_atom_site_fract_z
Si Si1 0.846528 0.563745 0.958759
Si Si2 0.369361 0.975185 0.653520
Si Si3 0.707647 0.128758 0.225718
Si Si4 0.631807 0.760777 0.417844
Si Si5 0.603255 0.956379 0.447839
Si Si6 0.928791 0.546517 0.789439
Si Si7 0.207314 0.707975 0.328150
O O1 0.750000 0.500000 0.937835
O O2 0.829715 0.669035 0.944881
O O3 0.970594 0.541948 0.942998
O O4 0.858037 0.527745 0.012781
O O5 0.479696 0.020073 0.673260
O O6 0.376100 0.867584 0.653734
O O7 0.250000 0.000000 0.676906
O O8 0.357494 0.012062 0.601992
O O9 0.624390 0.045517 0.232099
O O10 0.743794 0.167869 0.276581
O O11 0.653074 0.200355 0.190555
O O12 0.819531 0.100855 0.198238
O O13 0.500000 0.750000 0.406775
O O14 0.639044 0.850527 0.451221
O O15 0.701770 0.777116 0.369443
O O16 0.000000 0.596717 0.750000
#
# Coordination Sequence:
#
# PCOD9509199 Si02
#       7
#    16  16  16  16  16  16  16
#     4  10  23  44  70  99 138 176 226 289 354 418
#     4  12  23  41  69  96 130 178 236 280 344 414
#     4  10  25  43  63  98 138 179 230 285 344 404
#     4  10  23  41  70 101 136 178 232 290 342 415
#     4  10  23  44  70 100 134 181 225 289 353 419
#     4  11  23  41  68  93 135 181 226 283 345 409
#     4  11  23  42  65  98 134 178 233 283 339 409
#
# _framework density 22.040692
#
# number of rings (size 3 to 8) (size 9 to 14) (size 15 to 20)
#    0.000    1.429    2.857    1.286    4.000    2.286 
#    0.000    2.857    6.286    0.000    0.000    0.000 
#    0.000    0.000    0.000    0.000    0.000    0.000 
#
# Total GULP energy -311872.597018 kJ/mol
# GULP energy per Si atom -5569.153518 kJ/mol
# Density = 2.199053 g / cm^3
# Si number density = 22.040692 Si / 1000 Ang^3
#
#
#
# Elastic Constant Matrix: (Units=GPa)
#
#
# Indices 1 2 3 4 5 6 
#
# 1 98.3926 16.4679 38.3856 0.0000 0.0000 0.0000
# 2 16.4679 105.7786 44.8765 0.0000 0.0000 0.0000
# 3 38.3856 44.8765 61.5900 0.0000 0.0000 0.0000
# 4 0.0000 0.0000 0.0000 36.0751 0.0000 0.0000
# 5 0.0000 0.0000 0.0000 0.0000 140.8787 0.0000
# 6 0.0000 0.0000 0.0000 0.0000 0.0000 26.3663
#
#
#
# Elastic Compliance Matrix: (Units=1/GPa)
#
#
# Indices 1 2 3 4 5 6 
#
# 1 0.013763 0.002166 -0.010156 0.000000 0.000000 0.000000
# 2 0.002166 0.014024 -0.011569 0.000000 0.000000 0.000000
# 3 -0.010156 -0.011569 0.030995 0.000000 0.000000 0.000000
# 4 0.000000 0.000000 0.000000 0.027720 0.000000 0.000000
# 5 0.000000 0.000000 0.000000 0.000000 0.007098 0.000000
# 6 0.000000 0.000000 0.000000 0.000000 0.000000 0.037927
#
#
# Mechanical properties :
#
#
# Convention : Reuss Voigt Hill
#
# Bulk Modulus (GPa) = 50.85011 51.69124 51.27068
# Shear Modulus (GPa) = 28.21668 51.73277 39.97472
#
# Velocity S-wave (km/s) = 3.58188 4.84999 4.26335
# Velocity P-wave (km/s) = 6.34252 7.40721 6.89545
#
# Compressibility (1/GPa) = 0.01966564
#
# Stress axis : x y z
#
# Youngs Moduli (GPa) = 72.65907 71.30398 32.26309
#
# Poissons Ratio (x) = -0.15444 0.32766
# Poissons Ratio (y) = -0.15738 0.37324
# Poissons Ratio (z) = 0.73791 0.82489
#
# Static dielectric constant tensor:
#      x y z
#    x 1.823770 0.000000 0.000000 
#    y 0.000000 1.913140 0.000000 
#    z 0.000000 0.000000 1.867420 
# 
# From -- ./inp_files/54807.got.cif
#   From: 2010.05.17/outbox.cif.g08.bks.cpg/sg68_28_cif.got.tgz:54807.got - 2010.06.03 18:57:09.
