data_PCOD9509756
_publ_section_title
;
Structure prediction by ZEFSAII (Michael W. Deem and Ramdas Pophale) SiO2 
 PCOD9509756
Probable space group: C C C A
;
_chemical_formula_sum "Si O2"
_cell_formula_units_Z 88
_cell_length_a 11.764408
_cell_length_b 14.405802
_cell_length_c 24.401214
_cell_angle_alpha 90.000000
_cell_angle_beta 90.000000
_cell_angle_gamma 90.000000
_cell_volume 4135.413612
_symmetry_space_group_name_H-M "C C C A"
_symmetry_group_IT_number 68
_space_group.IT_coordinate_system_code '2'
_symmetry_cell_setting 'orthorhombic'
loop_
_space_group_symop_operation_xyz
x,y,z
-x,1/2-y,z
x,1/2-y,1/2-z
-x,y,1/2-z
-x,-y,-z
x,1/2+y,-z
-x,1/2+y,1/2+z
x,-y,1/2+z
1/2+x,1/2+y,z
1/2-x,-y,z
1/2+x,-y,1/2-z
1/2-x,1/2+y,1/2-z
1/2-x,1/2-y,-z
1/2+x,y,-z
1/2-x,y,1/2+z
1/2+x,1/2-y,1/2+z
loop_
_atom_site_type_symbol
_atom_site_label
_atom_site_fract_x
_atom_site_fract_y
_atom_site_fract_z
Si Si1 0.295800 0.104093 0.959985
Si Si2 0.629115 0.778165 0.935546
Si Si3 0.808618 0.406231 0.666193
Si Si4 0.500000 0.019735 0.250000
Si Si5 0.147734 0.071743 0.345582
Si Si6 0.123372 0.761256 0.687059
O O1 0.204709 0.183014 0.939069
O O2 0.384238 0.084562 0.909660
O O3 0.250000 0.000000 0.972217
O O4 0.341413 0.153480 0.014111
O O5 0.500000 0.750000 0.941144
O O6 0.641061 0.839622 0.880505
O O7 0.750000 0.500000 0.644260
O O8 0.694578 0.352758 0.682945
O O9 0.899047 0.425877 0.715976
O O10 0.441898 0.960006 0.299262
O O11 0.194455 0.172069 0.329786
O O12 0.250000 0.000000 0.344630
O O13 0.104549 0.750000 0.750000
O O14 0.000000 0.750000 0.658581
#
# Coordination Sequence:
#
# PCOD9509756 Si02
#       6
#    16  16  16   8  16  16
#     4  10  24  49  75 104 146 189 242 302 369 459
#     4  11  26  48  74 113 143 187 248 310 381 438
#     4  12  26  46  68 106 149 191 250 310 372 449
#     4  12  26  44  72 104 148 200 252 302 376 446
#     4  11  23  44  68  99 140 190 237 297 365 444
#     4  11  22  40  65  95 135 187 240 296 358 440
#
# _framework density 21.279613000000001
#
# number of rings (size 3 to 8) (size 9 to 14) (size 15 to 20)
#    0.000    0.909    1.818    5.455    5.091    2.909 
#    6.545    0.909    0.000    0.000    0.000    0.000 
#    0.000    0.000    0.000    0.000    0.000    0.000 
#
# Total GULP energy -244982.083928 kJ/mol
# GULP energy per Si atom -5567.774635 kJ/mol
# Density = 2.123118 g / cm^3
# Si number density = 21.279613 Si / 1000 Ang^3
#
#
#
# Elastic Constant Matrix: (Units=GPa)
#
#
# Indices 1 2 3 4 5 6 
#
# 1 94.5575 56.9418 64.0421 0.0000 0.0000 0.0000
# 2 56.9418 169.4674 57.1218 0.0000 0.0000 0.0000
# 3 64.0421 57.1218 135.1153 0.0000 0.0000 0.0000
# 4 0.0000 0.0000 0.0000 27.5148 0.0000 0.0000
# 5 0.0000 0.0000 0.0000 0.0000 19.6897 0.0000
# 6 0.0000 0.0000 0.0000 0.0000 0.0000 39.3067
#
#
#
# Elastic Compliance Matrix: (Units=1/GPa)
#
#
# Indices 1 2 3 4 5 6 
#
# 1 0.017222 -0.003540 -0.006667 0.000000 0.000000 0.000000
# 2 -0.003540 0.007609 -0.001539 0.000000 0.000000 0.000000
# 3 -0.006667 -0.001539 0.011212 0.000000 0.000000 0.000000
# 4 0.000000 0.000000 0.000000 0.036344 0.000000 0.000000
# 5 0.000000 0.000000 0.000000 0.000000 0.050788 0.000000
# 6 0.000000 0.000000 0.000000 0.000000 0.000000 0.025441
#
#
# Mechanical properties :
#
#
# Convention : Reuss Voigt Hill
#
# Bulk Modulus (GPa) = 79.66738 83.92795 81.79767
# Shear Modulus (GPa) = 28.36225 32.03787 30.20006
#
# Velocity S-wave (km/s) = 3.65476 3.88437 3.77132
# Velocity P-wave (km/s) = 7.43837 7.72295 7.58200
#
# Compressibility (1/GPa) = 0.01255219
#
# Stress axis : x y z
#
# Youngs Moduli (GPa) = 58.06416 131.42418 89.19349
#
# Poissons Ratio (x) = 0.46520 0.59462
# Poissons Ratio (y) = 0.20553 0.13727
# Poissons Ratio (z) = 0.38709 0.20227
#
# Static dielectric constant tensor:
#      x y z
#    x 1.694830 0.000000 0.000000 
#    y 0.000000 1.733880 0.000000 
#    z 0.000000 0.000000 1.803620 
# 
# From -- ./inp_files/44239.got.cif
#   From: 2010.05.17/outbox.cif.g08.bks.cpg/sg68_23_cif.got.tgz:44239.got - 2010.06.03 18:57:09.
