data_PCOD9509869
_publ_section_title
;
Structure prediction by ZEFSAII (Michael W. Deem and Ramdas Pophale) SiO2 
 PCOD9509869
Probable space group: C C C A
;
_chemical_formula_sum "Si O2"
_cell_formula_units_Z 60
_cell_length_a 12.669438
_cell_length_b 25.047815
_cell_length_c 9.388177
_cell_angle_alpha 90.000000
_cell_angle_beta 90.000000
_cell_angle_gamma 90.000000
_cell_volume 2979.260417
_symmetry_space_group_name_H-M "C C C A"
_symmetry_group_IT_number 68
_space_group.IT_coordinate_system_code '2'
_symmetry_cell_setting 'orthorhombic'
loop_
_space_group_symop_operation_xyz
x,y,z
-x,1/2-y,z
x,1/2-y,1/2-z
-x,y,1/2-z
-x,-y,-z
x,1/2+y,-z
-x,1/2+y,1/2+z
x,-y,1/2+z
1/2+x,1/2+y,z
1/2-x,-y,z
1/2+x,-y,1/2-z
1/2-x,1/2+y,1/2-z
1/2-x,1/2-y,-z
1/2+x,y,-z
1/2-x,y,1/2+z
1/2+x,1/2-y,1/2+z
loop_
_atom_site_type_symbol
_atom_site_label
_atom_site_fract_x
_atom_site_fract_y
_atom_site_fract_z
Si Si1 0.887298 0.147740 0.700468
Si Si2 0.566597 0.967907 0.115744
Si Si3 0.000000 0.750000 0.250000
Si Si4 0.266557 0.896235 0.538919
Si Si5 0.250000 0.000000 0.216658
O O1 0.925023 0.208299 0.668167
O O2 0.822873 0.125599 0.566202
O O3 0.811944 0.142967 0.839331
O O4 0.000000 0.121192 0.750000
O O5 0.500000 0.948612 0.250000
O O6 0.727444 0.948579 0.376777
O O7 0.500000 0.000000 0.000000
O O8 0.650213 0.009319 0.183867
O O9 0.365562 0.919928 0.450126
#
# Coordination Sequence:
#
# PCOD9509869 Si02
#       5
#    16  16   4  16   8
#     4  10  26  46  72 101 134 179 241 296 361 413
#     4  12  27  38  61  92 143 189 226 268 324 404
#     4   8  24  52  76  94 134 176 236 326 368 398
#     4  12  25  41  71 100 143 186 229 271 349 431
#     4  12  26  42  62 102 146 188 222 262 344 414
#
# _framework density 20.139227999999999
#
# number of rings (size 3 to 8) (size 9 to 14) (size 15 to 20)
#    0.800    0.000    5.333    0.800    7.467    1.067 
#    0.000    0.000    0.000    1.600    0.000    0.000 
#    0.000    0.000    0.000    0.000    0.000    0.000 
#
# Total GULP energy -167446.273129 kJ/mol
# GULP energy per Si atom -5581.542438 kJ/mol
# Density = 2.009339 g / cm^3
# Si number density = 20.139228 Si / 1000 Ang^3
#
#
#
# Elastic Constant Matrix: (Units=GPa)
#
#
# Indices 1 2 3 4 5 6 
#
# 1 139.3543 54.8849 87.5757 0.0000 0.0000 0.0000
# 2 54.8849 107.1417 56.4911 0.0000 0.0000 0.0000
# 3 87.5757 56.4911 150.3901 0.0000 0.0000 0.0000
# 4 0.0000 0.0000 0.0000 18.8775 0.0000 0.0000
# 5 0.0000 0.0000 0.0000 0.0000 50.5373 0.0000
# 6 0.0000 0.0000 0.0000 0.0000 0.0000 43.9071
#
#
#
# Elastic Compliance Matrix: (Units=1/GPa)
#
#
# Indices 1 2 3 4 5 6 
#
# 1 0.012088 -0.003093 -0.005877 0.000000 0.000000 0.000000
# 2 -0.003093 0.012430 -0.002868 0.000000 0.000000 0.000000
# 3 -0.005877 -0.002868 0.011149 0.000000 0.000000 0.000000
# 4 0.000000 0.000000 0.000000 0.052973 0.000000 0.000000
# 5 0.000000 0.000000 0.000000 0.000000 0.019787 0.000000
# 6 0.000000 0.000000 0.000000 0.000000 0.000000 0.022775
#
#
# Mechanical properties :
#
#
# Convention : Reuss Voigt Hill
#
# Bulk Modulus (GPa) = 83.40005 88.30993 85.85499
# Shear Modulus (GPa) = 31.47122 35.86002 33.66562
#
# Velocity S-wave (km/s) = 3.95737 4.22430 4.09301
# Velocity P-wave (km/s) = 7.89827 8.23030 8.06599
#
# Compressibility (1/GPa) = 0.01199040
#
# Stress axis : x y z
#
# Youngs Moduli (GPa) = 82.72961 80.44971 89.69530
#
# Poissons Ratio (x) = 0.24886 0.52713
# Poissons Ratio (y) = 0.25592 0.25723
# Poissons Ratio (z) = 0.48619 0.23071
#
# Static dielectric constant tensor:
#      x y z
#    x 1.872870 0.000000 0.000000 
#    y 0.000000 1.734370 0.000000 
#    z 0.000000 0.000000 1.741170 
# 
# From -- ./inp_files/3947.got.cif
#   From: 2010.05.17/outbox.cif.g08.bks.cpg/sg68_2_cif.got.tgz:3947.got - 2010.06.03 18:57:09.
