data_PCOD9509440
_publ_section_title
;
Structure prediction by ZEFSAII (Michael W. Deem and Ramdas Pophale) SiO2 
 PCOD9509440
Probable space group: C C C A
;
_chemical_formula_sum "Si O2"
_cell_formula_units_Z 64
_cell_length_a 9.096398
_cell_length_b 24.478904
_cell_length_c 12.415217
_cell_angle_alpha 90.000000
_cell_angle_beta 90.000000
_cell_angle_gamma 90.000000
_cell_volume 2764.494549
_symmetry_space_group_name_H-M "C C C A"
_symmetry_group_IT_number 68
_space_group.IT_coordinate_system_code '2'
_symmetry_cell_setting 'orthorhombic'
loop_
_space_group_symop_operation_xyz
x,y,z
-x,1/2-y,z
x,1/2-y,1/2-z
-x,y,1/2-z
-x,-y,-z
x,1/2+y,-z
-x,1/2+y,1/2+z
x,-y,1/2+z
1/2+x,1/2+y,z
1/2-x,-y,z
1/2+x,-y,1/2-z
1/2-x,1/2+y,1/2-z
1/2-x,1/2-y,-z
1/2+x,y,-z
1/2-x,y,1/2+z
1/2+x,1/2-y,1/2+z
loop_
_atom_site_type_symbol
_atom_site_label
_atom_site_fract_x
_atom_site_fract_y
_atom_site_fract_z
Si Si1 0.743225 0.880663 0.477856
Si Si2 0.541262 0.413129 0.872053
Si Si3 0.896558 0.472830 0.663594
Si Si4 0.113244 0.709380 0.333997
O O1 0.571704 0.885792 0.455933
O O2 0.824879 0.932427 0.421396
O O3 0.798878 0.827880 0.414079
O O4 0.799193 0.889969 0.598662
O O5 0.500000 0.398329 0.750000
O O6 0.499360 0.477567 0.879146
O O7 0.750000 0.500000 0.715468
O O8 0.000000 0.444606 0.750000
O O9 0.198271 0.750000 0.250000
O O10 0.000000 0.750000 0.395624
O O11 0.000000 0.680141 0.250000
#
# Coordination Sequence:
#
# PCOD9509440 Si02
#       4
#    16  16  16  16
#     4  11  19  38  63  81 123 175 189 258 320 343
#     4  10  24  38  55  96 129 153 213 249 291 390
#     4   9  19  33  55  89 125 160 208 248 299 370
#     4   6  16  33  58  89 111 141 212 256 288 362
#
# _framework density 23.150704999999999
#
# number of rings (size 3 to 8) (size 9 to 14) (size 15 to 20)
#    1.500    1.500    0.000    1.500    0.000    8.000 
#    0.000    7.500    0.000    0.000    0.000    0.000 
#    0.000    0.000    0.000    0.000    0.000    0.000 
#
# Total GULP energy -178145.722690 kJ/mol
# GULP energy per Si atom -5567.053834 kJ/mol
# Density = 2.309801 g / cm^3
# Si number density = 23.150705 Si / 1000 Ang^3
#
#
#
# Elastic Constant Matrix: (Units=GPa)
#
#
# Indices 1 2 3 4 5 6 
#
# 1 59.9616 12.9617 18.0031 0.0000 0.0000 0.0000
# 2 12.9617 73.2797 -4.2383 0.0000 0.0000 0.0000
# 3 18.0031 -4.2383 61.6586 0.0000 0.0000 0.0000
# 4 0.0000 0.0000 0.0000 17.8988 0.0000 0.0000
# 5 0.0000 0.0000 0.0000 0.0000 30.8581 0.0000
# 6 0.0000 0.0000 0.0000 0.0000 0.0000 17.7542
#
#
#
# Elastic Compliance Matrix: (Units=1/GPa)
#
#
# Indices 1 2 3 4 5 6 
#
# 1 0.019252 -0.003745 -0.005879 0.000000 0.000000 0.000000
# 2 -0.003745 0.014429 0.002085 0.000000 0.000000 0.000000
# 3 -0.005879 0.002085 0.018078 0.000000 0.000000 0.000000
# 4 0.000000 0.000000 0.000000 0.055870 0.000000 0.000000
# 5 0.000000 0.000000 0.000000 0.000000 0.032406 0.000000
# 6 0.000000 0.000000 0.000000 0.000000 0.000000 0.056325
#
#
# Mechanical properties :
#
#
# Convention : Reuss Voigt Hill
#
# Bulk Modulus (GPa) = 27.26098 27.59478 27.42788
# Shear Modulus (GPa) = 22.35486 24.51377 23.43431
#
# Velocity S-wave (km/s) = 3.11082 3.25757 3.18504
# Velocity P-wave (km/s) = 4.97031 5.10828 5.03976
#
# Compressibility (1/GPa) = 0.03668246
#
# Stress axis : x y z
#
# Youngs Moduli (GPa) = 51.94277 69.30282 55.31549
#
# Poissons Ratio (x) = 0.25956 0.32518
# Poissons Ratio (y) = 0.19454 -0.11536
# Poissons Ratio (z) = 0.30535 -0.14452
#
# Static dielectric constant tensor:
#      x y z
#    x 1.911030 0.000000 0.000000 
#    y 0.000000 1.901000 0.000000 
#    z 0.000000 0.000000 1.953090 
# 
# From -- ./inp_files/19217.got.cif
#   From: 2010.05.17/outbox.cif.g08.bks.cpg/sg68_10_cif.got.tgz:19217.got - 2010.06.03 18:57:09.
