data_PCOD9509511
_publ_section_title
;
Structure prediction by ZEFSAII (Michael W. Deem and Ramdas Pophale) SiO2 
 PCOD9509511
Probable space group: C C C A
;
_chemical_formula_sum "Si O2"
_cell_formula_units_Z 88
_cell_length_a 19.733639
_cell_length_b 8.241824
_cell_length_c 23.192916
_cell_angle_alpha 90.000000
_cell_angle_beta 90.000000
_cell_angle_gamma 90.000000
_cell_volume 3772.123215
_symmetry_space_group_name_H-M "C C C A"
_symmetry_group_IT_number 68
_space_group.IT_coordinate_system_code '2'
_symmetry_cell_setting 'orthorhombic'
loop_
_space_group_symop_operation_xyz
x,y,z
-x,1/2-y,z
x,1/2-y,1/2-z
-x,y,1/2-z
-x,-y,-z
x,1/2+y,-z
-x,1/2+y,1/2+z
x,-y,1/2+z
1/2+x,1/2+y,z
1/2-x,-y,z
1/2+x,-y,1/2-z
1/2-x,1/2+y,1/2-z
1/2-x,1/2-y,-z
1/2+x,y,-z
1/2-x,y,1/2+z
1/2+x,1/2-y,1/2+z
loop_
_atom_site_type_symbol
_atom_site_label
_atom_site_fract_x
_atom_site_fract_y
_atom_site_fract_z
Si Si1 0.012426 0.935771 0.578809
Si Si2 0.689131 0.750060 0.813090
Si Si3 0.361265 0.903112 0.523818
Si Si4 0.041222 0.411770 0.808109
Si Si5 0.250000 0.000000 0.604288
Si Si6 0.138561 0.557815 0.086470
O O1 0.000000 0.750000 0.561862
O O2 0.062793 0.030638 0.535811
O O3 0.043869 0.952148 0.642964
O O4 0.940659 0.020277 0.589180
O O5 0.720865 0.750000 0.750000
O O6 0.618376 0.848809 0.802652
O O7 0.737741 0.848139 0.855044
O O8 0.669151 0.589872 0.850261
O O9 0.314122 0.015222 0.563109
O O10 0.354692 0.725166 0.550550
O O11 0.336711 0.920135 0.458009
O O12 0.000000 0.250000 0.827670
O O13 0.000000 0.459777 0.750000
#
# Coordination Sequence:
#
# PCOD9509511 Si02
#       6
#    16  16  16  16   8  16
#     4  12  22  37  61 100 136 162 213 275 334 389
#     4  11  21  41  69  92 126 175 225 265 324 403
#     4  11  23  41  63  92 131 173 216 268 326 398
#     4  11  18  37  68  96 123 164 220 266 339 391
#     4  10  24  42  64  90 132 176 220 264 324 382
#     4  11  22  40  66  95 131 169 219 270 341 385
#
# _framework density 23.329035000000001
#
# number of rings (size 3 to 8) (size 9 to 14) (size 15 to 20)
#    0.000    0.909    7.273    2.182    0.000    3.273 
#    0.000    6.364    0.000    0.000    0.000    0.000 
#    0.000    0.000    0.000    0.000    0.000    0.000 
#
# Total GULP energy -245755.615648 kJ/mol
# GULP energy per Si atom -5585.354901 kJ/mol
# Density = 2.327594 g / cm^3
# Si number density = 23.329035 Si / 1000 Ang^3
#
#
#
# Elastic Constant Matrix: (Units=GPa)
#
#
# Indices 1 2 3 4 5 6 
#
# 1 53.7737 2.1218 0.7238 0.0000 0.0000 0.0000
# 2 2.1218 59.8234 16.1309 0.0000 0.0000 0.0000
# 3 0.7238 16.1309 139.7024 0.0000 0.0000 0.0000
# 4 0.0000 0.0000 0.0000 30.9945 0.0000 0.0000
# 5 0.0000 0.0000 0.0000 0.0000 55.5661 0.0000
# 6 0.0000 0.0000 0.0000 0.0000 0.0000 24.8737
#
#
#
# Elastic Compliance Matrix: (Units=1/GPa)
#
#
# Indices 1 2 3 4 5 6 
#
# 1 0.018623 -0.000655 -0.000021 0.000000 0.000000 0.000000
# 2 -0.000655 0.017276 -0.001991 0.000000 0.000000 0.000000
# 3 -0.000021 -0.001991 0.007388 0.000000 0.000000 0.000000
# 4 0.000000 0.000000 0.000000 0.032264 0.000000 0.000000
# 5 0.000000 0.000000 0.000000 0.000000 0.017997 0.000000
# 6 0.000000 0.000000 0.000000 0.000000 0.000000 0.040203
#
#
# Mechanical properties :
#
#
# Convention : Reuss Voigt Hill
#
# Bulk Modulus (GPa) = 26.34875 32.36138 29.35507
# Shear Modulus (GPa) = 32.95214 37.90841 35.43027
#
# Velocity S-wave (km/s) = 3.76239 4.03543 3.90130
# Velocity P-wave (km/s) = 5.49482 5.96781 5.73620
#
# Compressibility (1/GPa) = 0.03795246
#
# Stress axis : x y z
#
# Youngs Moduli (GPa) = 53.69828 57.88357 135.35245
#
# Poissons Ratio (x) = 0.03791 0.00282
# Poissons Ratio (y) = 0.03517 0.26954
# Poissons Ratio (z) = 0.00112 0.11527
#
# Static dielectric constant tensor:
#      x y z
#    x 1.913740 0.000000 0.000000 
#    y 0.000000 1.918660 0.000000 
#    z 0.000000 0.000000 1.952030 
# 
# From -- ./inp_files/46513.got.cif
#   From: 2010.05.17/outbox.cif.g08.bks.cpg/sg68_24_cif.got.tgz:46513.got - 2010.06.03 18:57:09.
