data_PCOD9509468
_publ_section_title
;
Structure prediction by ZEFSAII (Michael W. Deem and Ramdas Pophale) SiO2 
 PCOD9509468
Probable space group: C C C A
;
_chemical_formula_sum "Si O2"
_cell_formula_units_Z 64
_cell_length_a 10.811207
_cell_length_b 31.759645
_cell_length_c 8.938464
_cell_angle_alpha 90.000000
_cell_angle_beta 90.000000
_cell_angle_gamma 90.000000
_cell_volume 3069.111860
_symmetry_space_group_name_H-M "C C C A"
_symmetry_group_IT_number 68
_space_group.IT_coordinate_system_code '2'
_symmetry_cell_setting 'orthorhombic'
loop_
_space_group_symop_operation_xyz
x,y,z
-x,1/2-y,z
x,1/2-y,1/2-z
-x,y,1/2-z
-x,-y,-z
x,1/2+y,-z
-x,1/2+y,1/2+z
x,-y,1/2+z
1/2+x,1/2+y,z
1/2-x,-y,z
1/2+x,-y,1/2-z
1/2-x,1/2+y,1/2-z
1/2-x,1/2-y,-z
1/2+x,y,-z
1/2-x,y,1/2+z
1/2+x,1/2-y,1/2+z
loop_
_atom_site_type_symbol
_atom_site_label
_atom_site_fract_x
_atom_site_fract_y
_atom_site_fract_z
Si Si1 0.863926 0.031525 0.692035
Si Si2 0.362562 0.861684 0.303919
Si Si3 0.131220 0.767669 0.916742
Si Si4 0.741603 0.913791 0.450549
O O1 0.810311 0.055916 0.835932
O O2 0.867241 0.062221 0.544598
O O3 0.000000 0.016111 0.750000
O O4 0.750000 0.000000 0.654394
O O5 0.500000 0.864394 0.250000
O O6 0.352835 0.817467 0.390190
O O7 0.289950 0.872808 0.150998
O O8 0.329766 0.898151 0.418609
O O9 0.133233 0.750000 0.750000
O O10 0.000000 0.750000 0.982028
O O11 0.250000 0.750000 0.000000
#
# Coordination Sequence:
#
# PCOD9509468 Si02
#       4
#    16  16  16  16
#     4  11  24  43  66  98 133 172 219 269 326 391
#     4  11  21  40  65  90 130 171 216 272 320 388
#     4  11  23  42  65  97 130 171 218 268 328 387
#     4  10  24  40  64  97 130 172 220 268 330 385
#
# _framework density 20.852938999999999
#
# number of rings (size 3 to 8) (size 9 to 14) (size 15 to 20)
#    0.000    1.250    2.500    3.750    0.000    8.500 
#    0.000    0.000    0.000    0.000    0.000    0.000 
#    0.000    0.000    0.000    0.000    0.000    0.000 
#
# Total GULP energy -178189.311896 kJ/mol
# GULP energy per Si atom -5568.415997 kJ/mol
# Density = 2.080548 g / cm^3
# Si number density = 20.852939 Si / 1000 Ang^3
#
#
#
# Elastic Constant Matrix: (Units=GPa)
#
#
# Indices 1 2 3 4 5 6 
#
# 1 140.3434 39.8790 43.2400 0.0000 0.0000 0.0000
# 2 39.8790 76.0874 24.6191 0.0000 0.0000 0.0000
# 3 43.2400 24.6191 101.6918 0.0000 0.0000 0.0000
# 4 0.0000 0.0000 0.0000 44.2934 0.0000 0.0000
# 5 0.0000 0.0000 0.0000 0.0000 20.0800 0.0000
# 6 0.0000 0.0000 0.0000 0.0000 0.0000 28.1475
#
#
#
# Elastic Compliance Matrix: (Units=1/GPa)
#
#
# Indices 1 2 3 4 5 6 
#
# 1 0.009122 -0.003826 -0.002953 0.000000 0.000000 0.000000
# 2 -0.003826 0.015864 -0.002214 0.000000 0.000000 0.000000
# 3 -0.002953 -0.002214 0.011625 0.000000 0.000000 0.000000
# 4 0.000000 0.000000 0.000000 0.022577 0.000000 0.000000
# 5 0.000000 0.000000 0.000000 0.000000 0.049801 0.000000
# 6 0.000000 0.000000 0.000000 0.000000 0.000000 0.035527
#
#
# Mechanical properties :
#
#
# Convention : Reuss Voigt Hill
#
# Bulk Modulus (GPa) = 53.68567 59.28875 56.48721
# Shear Modulus (GPa) = 29.63671 32.52983 31.08327
#
# Velocity S-wave (km/s) = 3.77400 3.95392 3.86501
# Velocity P-wave (km/s) = 6.69265 7.02412 6.86039
#
# Compressibility (1/GPa) = 0.01862694
#
# Stress axis : x y z
#
# Youngs Moduli (GPa) = 109.62285 63.03463 86.02086
#
# Poissons Ratio (x) = 0.24116 0.25399
# Poissons Ratio (y) = 0.41939 0.19044
# Poissons Ratio (z) = 0.32367 0.13955
#
# Static dielectric constant tensor:
#      x y z
#    x 1.942910 0.000000 0.000000 
#    y 0.000000 2.784750 0.000000 
#    z 0.000000 0.000000 1.709040 
# 
# From -- ./inp_files/4051.got.cif
#   From: 2010.05.17/outbox.cif.g08.bks.cpg/sg68_3_cif.got.tgz:4051.got - 2010.06.03 18:57:09.
