data_PCOD9509457
_publ_section_title
;
Structure prediction by ZEFSAII (Michael W. Deem and Ramdas Pophale) SiO2 
 PCOD9509457
Probable space group: C C C A
;
_chemical_formula_sum "Si O2"
_cell_formula_units_Z 96
_cell_length_a 16.301606
_cell_length_b 13.987163
_cell_length_c 19.967378
_cell_angle_alpha 90.000000
_cell_angle_beta 90.000000
_cell_angle_gamma 90.000000
_cell_volume 4552.826158
_symmetry_space_group_name_H-M "C C C A"
_symmetry_group_IT_number 68
_space_group.IT_coordinate_system_code '2'
_symmetry_cell_setting 'orthorhombic'
loop_
_space_group_symop_operation_xyz
x,y,z
-x,1/2-y,z
x,1/2-y,1/2-z
-x,y,1/2-z
-x,-y,-z
x,1/2+y,-z
-x,1/2+y,1/2+z
x,-y,1/2+z
1/2+x,1/2+y,z
1/2-x,-y,z
1/2+x,-y,1/2-z
1/2-x,1/2+y,1/2-z
1/2-x,1/2-y,-z
1/2+x,y,-z
1/2-x,y,1/2+z
1/2+x,1/2-y,1/2+z
loop_
_atom_site_type_symbol
_atom_site_label
_atom_site_fract_x
_atom_site_fract_y
_atom_site_fract_z
Si Si1 0.500000 0.096611 0.250000
Si Si2 0.274657 0.398881 0.066602
Si Si3 0.931497 0.627733 0.512706
Si Si4 0.604613 0.502262 0.135322
Si Si5 0.833709 0.168173 0.700432
Si Si6 0.384239 0.848996 0.523023
Si Si7 0.250000 0.500000 0.278280
O O1 0.457910 0.033159 0.192274
O O2 0.431600 0.157559 0.290186
O O3 0.250000 0.500000 0.098057
O O4 0.301843 0.325819 0.124761
O O5 0.356368 0.424158 0.024689
O O6 0.198121 0.365397 0.021211
O O7 0.927052 0.586341 0.587480
O O8 0.906719 0.737296 0.493202
O O9 0.024859 0.608014 0.491910
O O10 0.630537 0.405416 0.093615
O O11 0.682841 0.544806 0.173090
O O12 0.805365 0.250000 0.750000
O O13 0.797245 0.073592 0.732627
#
# Coordination Sequence:
#
# PCOD9509457 Si02
#       7
#     8  16  16  16  16  16   8
#     4  10  25  42  70  99 136 190 235 292 354 441
#     4  12  24  42  71  98 136 186 235 298 362 420
#     4  11  25  42  68 100 134 180 227 298 358 421
#     4  11  22  42  67  94 140 175 230 285 359 421
#     4  11  25  43  66  98 137 178 239 292 351 431
#     4  11  25  42  68 100 136 175 235 294 355 429
#     4  10  24  40  58  94 128 176 216 284 346 424
#
# _framework density 21.085804
#
# number of rings (size 3 to 8) (size 9 to 14) (size 15 to 20)
#    0.000    1.000    2.500    3.250    9.333    0.000 
#    0.000    0.000    0.000    0.000    0.000    0.000 
#    0.000    0.000    0.000    0.000    0.000    0.000 
#
# Total GULP energy -267351.382364 kJ/mol
# GULP energy per Si atom -5569.820466 kJ/mol
# Density = 2.103781 g / cm^3
# Si number density = 21.085804 Si / 1000 Ang^3
#
#
#
# Elastic Constant Matrix: (Units=GPa)
#
#
# Indices 1 2 3 4 5 6 
#
# 1 146.3813 14.2339 58.7700 0.0000 0.0000 0.0000
# 2 14.2339 54.7842 12.0048 0.0000 0.0000 0.0000
# 3 58.7700 12.0048 120.7671 0.0000 0.0000 0.0000
# 4 0.0000 0.0000 0.0000 13.4444 0.0000 0.0000
# 5 0.0000 0.0000 0.0000 0.0000 133.3036 0.0000
# 6 0.0000 0.0000 0.0000 0.0000 0.0000 17.2193
#
#
#
# Elastic Compliance Matrix: (Units=1/GPa)
#
#
# Indices 1 2 3 4 5 6 
#
# 1 0.008586 -0.001345 -0.004045 0.000000 0.000000 0.000000
# 2 -0.001345 0.018870 -0.001222 0.000000 0.000000 0.000000
# 3 -0.004045 -0.001222 0.010370 0.000000 0.000000 0.000000
# 4 0.000000 0.000000 0.000000 0.074380 0.000000 0.000000
# 5 0.000000 0.000000 0.000000 0.000000 0.007502 0.000000
# 6 0.000000 0.000000 0.000000 0.000000 0.000000 0.058074
#
#
# Mechanical properties :
#
#
# Convention : Reuss Voigt Hill
#
# Bulk Modulus (GPa) = 40.64176 54.66111 47.65144
# Shear Modulus (GPa) = 25.09963 48.58839 36.84401
#
# Velocity S-wave (km/s) = 3.45390 4.80554 4.18465
# Velocity P-wave (km/s) = 5.93483 7.53461 6.78206
#
# Compressibility (1/GPa) = 0.02460523
#
# Stress axis : x y z
#
# Youngs Moduli (GPa) = 116.46743 52.99297 96.43087
#
# Poissons Ratio (x) = 0.07125 0.39003
# Poissons Ratio (y) = 0.15659 0.11779
# Poissons Ratio (z) = 0.47107 0.06473
#
# Static dielectric constant tensor:
#      x y z
#    x 1.803940 0.000000 0.000000 
#    y 0.000000 1.836880 0.000000 
#    z 0.000000 0.000000 1.777810 
# 
# From -- ./inp_files/38624.got.cif
#   From: 2010.05.17/outbox.cif.g08.bks.cpg/sg68_20_cif.got.tgz:38624.got - 2010.06.03 18:57:09.
