data_PCOD9509516
_publ_section_title
;
Structure prediction by ZEFSAII (Michael W. Deem and Ramdas Pophale) SiO2 
 PCOD9509516
Probable space group: C C C A
;
_chemical_formula_sum "Si O2"
_cell_formula_units_Z 72
_cell_length_a 25.265143
_cell_length_b 14.847961
_cell_length_c 8.542813
_cell_angle_alpha 90.000000
_cell_angle_beta 90.000000
_cell_angle_gamma 90.000000
_cell_volume 3204.715484
_symmetry_space_group_name_H-M "C C C A"
_symmetry_group_IT_number 68
_space_group.IT_coordinate_system_code '2'
_symmetry_cell_setting 'orthorhombic'
loop_
_space_group_symop_operation_xyz
x,y,z
-x,1/2-y,z
x,1/2-y,1/2-z
-x,y,1/2-z
-x,-y,-z
x,1/2+y,-z
-x,1/2+y,1/2+z
x,-y,1/2+z
1/2+x,1/2+y,z
1/2-x,-y,z
1/2+x,-y,1/2-z
1/2-x,1/2+y,1/2-z
1/2-x,1/2-y,-z
1/2+x,y,-z
1/2-x,y,1/2+z
1/2+x,1/2-y,1/2+z
loop_
_atom_site_type_symbol
_atom_site_label
_atom_site_fract_x
_atom_site_fract_y
_atom_site_fract_z
Si Si1 0.868486 0.562601 0.544677
Si Si2 0.562979 0.266970 0.430572
Si Si3 0.250000 0.000000 0.577178
Si Si4 0.287370 0.188505 0.106183
Si Si5 0.882499 0.883414 0.597548
O O1 0.902688 0.642996 0.468812
O O2 0.806539 0.536064 0.500459
O O3 0.869433 0.585615 0.728217
O O4 0.898650 0.470864 0.501790
O O5 0.500000 0.250000 0.425679
O O6 0.579245 0.250000 0.250000
O O7 0.577356 0.196695 0.568622
O O8 0.264873 0.907591 0.665248
O O9 0.303425 0.250000 0.250000
O O10 0.250000 0.250000 0.000000
O O11 0.331992 0.158701 0.987155
#
# Coordination Sequence:
#
# PCOD9509516 Si02
#       5
#    16  16   8  16  16
#     4  11  24  43  69 103 142 186 241 298 369 450
#     4  11  25  47  74 103 139 186 244 314 384 450
#     4  10  24  42  64  98 140 188 238 300 370 446
#     4  11  23  39  63  94 134 184 242 303 371 448
#     4  11  24  41  66  99 138 183 235 300 362 442
#
# _framework density 22.466892999999999
#
# number of rings (size 3 to 8) (size 9 to 14) (size 15 to 20)
#    0.000    1.111    0.000    5.333    0.000   16.000 
#    0.000    0.000    0.000    1.333    0.000    0.000 
#    0.000    0.000    0.000    0.000    0.000    0.000 
#
# Total GULP energy -200407.449056 kJ/mol
# GULP energy per Si atom -5566.873585 kJ/mol
# Density = 2.241576 g / cm^3
# Si number density = 22.466893 Si / 1000 Ang^3
#
#
#
# Elastic Constant Matrix: (Units=GPa)
#
#
# Indices 1 2 3 4 5 6 
#
# 1 107.9823 72.6100 38.2361 0.0000 0.0000 0.0000
# 2 72.6100 197.7845 60.5007 0.0000 0.0000 0.0000
# 3 38.2361 60.5007 137.9689 0.0000 0.0000 0.0000
# 4 0.0000 0.0000 0.0000 31.8767 0.0000 0.0000
# 5 0.0000 0.0000 0.0000 0.0000 1.2992 0.0000
# 6 0.0000 0.0000 0.0000 0.0000 0.0000 14.7644
#
#
#
# Elastic Compliance Matrix: (Units=1/GPa)
#
#
# Indices 1 2 3 4 5 6 
#
# 1 0.012630 -0.004118 -0.001694 0.000000 0.000000 0.000000
# 2 -0.004118 0.007182 -0.002008 0.000000 0.000000 0.000000
# 3 -0.001694 -0.002008 0.008598 0.000000 0.000000 0.000000
# 4 0.000000 0.000000 0.000000 0.031371 0.000000 0.000000
# 5 0.000000 0.000000 0.000000 0.000000 0.769710 0.000000
# 6 0.000000 0.000000 0.000000 0.000000 0.000000 0.067730
#
#
# Mechanical properties :
#
#
# Convention : Reuss Voigt Hill
#
# Bulk Modulus (GPa) = 78.31604 87.38102 82.84853
# Shear Modulus (GPa) = 5.45185 27.74732 16.59958
#
# Velocity S-wave (km/s) = 1.55945 3.51811 2.72112
# Velocity P-wave (km/s) = 6.17872 7.44852 6.84314
#
# Compressibility (1/GPa) = 0.01276878
#
# Stress axis : x y z
#
# Youngs Moduli (GPa) = 79.17629 139.23274 116.30440
#
# Poissons Ratio (x) = 0.57342 0.19705
# Poissons Ratio (y) = 0.32608 0.23355
# Poissons Ratio (z) = 0.13415 0.27959
#
# Static dielectric constant tensor:
#      x y z
#    x 1.738890 0.000000 0.000000 
#    y 0.000000 1.852990 0.000000 
#    z 0.000000 0.000000 1.830780 
# 
# From -- ./inp_files/9442.got.cif
#   From: 2010.05.17/outbox.cif.g08.bks.cpg/sg68_5_cif.got.tgz:9442.got - 2010.06.03 18:57:09.
