data_PCOD9509735
_publ_section_title
;
Structure prediction by ZEFSAII (Michael W. Deem and Ramdas Pophale) SiO2 
 PCOD9509735
Probable space group: C C C A
;
_chemical_formula_sum "Si O2"
_cell_formula_units_Z 72
_cell_length_a 8.479182
_cell_length_b 13.296306
_cell_length_c 30.094286
_cell_angle_alpha 90.000000
_cell_angle_beta 90.000000
_cell_angle_gamma 90.000000
_cell_volume 3392.883928
_symmetry_space_group_name_H-M "C C C A"
_symmetry_group_IT_number 68
_space_group.IT_coordinate_system_code '2'
_symmetry_cell_setting 'orthorhombic'
loop_
_space_group_symop_operation_xyz
x,y,z
-x,1/2-y,z
x,1/2-y,1/2-z
-x,y,1/2-z
-x,-y,-z
x,1/2+y,-z
-x,1/2+y,1/2+z
x,-y,1/2+z
1/2+x,1/2+y,z
1/2-x,-y,z
1/2+x,-y,1/2-z
1/2-x,1/2+y,1/2-z
1/2-x,1/2-y,-z
1/2+x,y,-z
1/2-x,y,1/2+z
1/2+x,1/2-y,1/2+z
loop_
_atom_site_type_symbol
_atom_site_label
_atom_site_fract_x
_atom_site_fract_y
_atom_site_fract_z
Si Si1 0.689402 0.248054 0.802904
Si Si2 0.250000 0.000000 0.995912
Si Si3 0.895601 0.931523 0.207181
Si Si4 0.616195 0.932519 0.356009
Si Si5 0.495221 0.367526 0.948650
O O1 0.500000 0.250000 0.811440
O O2 0.704291 0.250000 0.750000
O O3 0.808612 0.337088 0.816586
O O4 0.721399 0.142717 0.825928
O O5 0.148279 0.926695 0.964993
O O6 0.356510 0.927065 0.026080
O O7 0.000000 0.901510 0.250000
O O8 0.750000 0.000000 0.224140
O O9 0.997767 0.002738 0.174652
O O10 0.525525 0.878084 0.395686
O O11 0.750000 0.000000 0.378231
O O12 0.500000 0.250000 0.960396
#
# Coordination Sequence:
#
# PCOD9509735 Si02
#       5
#    16   8  16  16  16
#     4  11  23  42  65  93 132 183 235 287 347 408
#     4  10  24  48  74 106 136 184 232 280 364 432
#     4  12  25  43  69  99 136 190 240 293 350 415
#     4  12  26  43  66 104 143 182 236 291 346 420
#     4  11  24  45  74 105 141 181 227 289 353 423
#
# _framework density 21.220886
#
# number of rings (size 3 to 8) (size 9 to 14) (size 15 to 20)
#    0.000    0.667    3.333    4.667    1.556    3.111 
#    0.000    0.000    0.000    0.000    0.000    0.000 
#    0.000    0.000    0.000    0.000    0.000    0.000 
#
# Total GULP energy -201038.396552 kJ/mol
# GULP energy per Si atom -5584.399904 kJ/mol
# Density = 2.117259 g / cm^3
# Si number density = 21.220886 Si / 1000 Ang^3
#
#
#
# Elastic Constant Matrix: (Units=GPa)
#
#
# Indices 1 2 3 4 5 6 
#
# 1 112.1476 78.8601 37.1977 0.0000 0.0000 0.0000
# 2 78.8601 180.4896 60.0150 0.0000 0.0000 0.0000
# 3 37.1977 60.0150 111.1006 0.0000 0.0000 0.0000
# 4 0.0000 0.0000 0.0000 33.6505 0.0000 0.0000
# 5 0.0000 0.0000 0.0000 0.0000 -15.0767 0.0000
# 6 0.0000 0.0000 0.0000 0.0000 0.0000 38.2651
#
#
#
# Elastic Compliance Matrix: (Units=1/GPa)
#
#
# Indices 1 2 3 4 5 6 
#
# 1 0.013094 -0.005197 -0.001577 0.000000 0.000000 0.000000
# 2 -0.005197 0.008816 -0.003022 0.000000 0.000000 0.000000
# 3 -0.001577 -0.003022 0.011161 0.000000 0.000000 0.000000
# 4 0.000000 0.000000 0.000000 0.029717 0.000000 0.000000
# 5 0.000000 0.000000 0.000000 0.000000 -0.066327 0.000000
# 6 0.000000 0.000000 0.000000 0.000000 0.000000 0.026133
#
#
# Mechanical properties :
#
#
# Convention : Reuss Voigt Hill
#
# Bulk Modulus (GPa) = 74.18599 83.98704 79.08651
# Shear Modulus (GPa) = 107.11185 26.54543 66.82864
#
# Velocity S-wave (km/s) = 7.11226 3.54066 5.61785
# Velocity P-wave (km/s) = 10.12327 7.50856 8.91232
#
# Compressibility (1/GPa) = 0.01347963
#
# Stress axis : x y z
#
# Youngs Moduli (GPa) = 76.37007 113.42923 89.59431
#
# Poissons Ratio (x) = 0.58947 0.14127
# Poissons Ratio (y) = 0.39688 0.27079
# Poissons Ratio (z) = 0.12042 0.34282
#
# Static dielectric constant tensor:
#      x y z
#    x 1.815000 0.000000 0.000000 
#    y 0.000000 1.881850 0.000000 
#    z 0.000000 0.000000 1.709630 
# 
# From -- ./inp_files/48934.got.cif
#   From: 2010.05.17/outbox.cif.g08.bks.cpg/sg68_25_cif.got.tgz:48934.got - 2010.06.03 18:57:09.
