data_PCOD9509406
_publ_section_title
;
Structure prediction by ZEFSAII (Michael W. Deem and Ramdas Pophale) SiO2 
 PCOD9509406
Probable space group: C C C A
;
_chemical_formula_sum "Si O2"
_cell_formula_units_Z 100
_cell_length_a 14.758850
_cell_length_b 22.414510
_cell_length_c 14.851194
_cell_angle_alpha 90.000000
_cell_angle_beta 90.000000
_cell_angle_gamma 90.000000
_cell_volume 4912.958995
_symmetry_space_group_name_H-M "C C C A"
_symmetry_group_IT_number 68
_space_group.IT_coordinate_system_code '2'
_symmetry_cell_setting 'orthorhombic'
loop_
_space_group_symop_operation_xyz
x,y,z
-x,1/2-y,z
x,1/2-y,1/2-z
-x,y,1/2-z
-x,-y,-z
x,1/2+y,-z
-x,1/2+y,1/2+z
x,-y,1/2+z
1/2+x,1/2+y,z
1/2-x,-y,z
1/2+x,-y,1/2-z
1/2-x,1/2+y,1/2-z
1/2-x,1/2-y,-z
1/2+x,y,-z
1/2-x,y,1/2+z
1/2+x,1/2-y,1/2+z
loop_
_atom_site_type_symbol
_atom_site_label
_atom_site_fract_x
_atom_site_fract_y
_atom_site_fract_z
Si Si1 0.500000 0.750000 0.250000
Si Si2 0.155424 0.477195 0.987682
Si Si3 0.476241 0.586940 0.499281
Si Si4 0.081623 0.852792 0.317120
Si Si5 0.807662 0.625198 0.148707
Si Si6 0.122050 0.312640 0.393065
Si Si7 0.108547 0.256420 0.937771
O O1 0.565738 0.787444 0.312103
O O2 0.250000 0.500000 0.031744
O O3 0.094021 0.535212 0.971782
O O4 0.185315 0.437593 0.902414
O O5 0.077476 0.433291 0.027863
O O6 0.458665 0.603080 0.605546
O O7 0.445025 0.645030 0.448052
O O8 0.154064 0.881104 0.249197
O O9 0.127970 0.795867 0.365160
O O10 0.000000 0.833782 0.250000
O O11 0.706838 0.650202 0.141617
O O12 0.863441 0.678555 0.097445
O O13 0.149318 0.261548 0.465403
O O14 0.000000 0.250000 0.946299
#
# Coordination Sequence:
#
# PCOD9509406 Si02
#       7
#     4  16  16  16  16  16  16
#     4  12  28  44  64  96 136 180 220 264 350 420
#     4  11  22  43  73  93 129 179 230 272 326 405
#     4  10  23  46  71  94 136 182 221 276 344 398
#     4  11  21  38  67 105 132 165 219 282 338 398
#     4  12  23  40  70  99 133 171 229 287 325 399
#     4  11  25  46  63  95 137 180 222 275 341 411
#     4  11  21  39  67  96 134 176 215 269 351 404
#
# _framework density 20.354333
#
# number of rings (size 3 to 8) (size 9 to 14) (size 15 to 20)
#    0.000    0.960    5.600    1.920    2.240    0.000 
#    2.880    4.000    0.000    0.000    0.000    0.000 
#    0.000    0.000    0.000    0.000    0.000    0.000 
#
# Total GULP energy -278904.861388 kJ/mol
# GULP energy per Si atom -5578.097228 kJ/mol
# Density = 2.030801 g / cm^3
# Si number density = 20.354333 Si / 1000 Ang^3
#
#
#
# Elastic Constant Matrix: (Units=GPa)
#
#
# Indices 1 2 3 4 5 6 
#
# 1 135.8564 27.6122 42.9067 0.0000 0.0000 0.0000
# 2 27.6122 99.2570 39.7341 0.0000 0.0000 0.0000
# 3 42.9067 39.7341 101.8156 0.0000 0.0000 0.0000
# 4 0.0000 0.0000 0.0000 13.8933 0.0000 0.0000
# 5 0.0000 0.0000 0.0000 0.0000 12.8753 0.0000
# 6 0.0000 0.0000 0.0000 0.0000 0.0000 55.3561
#
#
#
# Elastic Compliance Matrix: (Units=1/GPa)
#
#
# Indices 1 2 3 4 5 6 
#
# 1 0.008594 -0.001115 -0.003186 0.000000 0.000000 0.000000
# 2 -0.001115 0.012085 -0.004246 0.000000 0.000000 0.000000
# 3 -0.003186 -0.004246 0.012822 0.000000 0.000000 0.000000
# 4 0.000000 0.000000 0.000000 0.071977 0.000000 0.000000
# 5 0.000000 0.000000 0.000000 0.000000 0.077668 0.000000
# 6 0.000000 0.000000 0.000000 0.000000 0.000000 0.018065
#
#
# Mechanical properties :
#
#
# Convention : Reuss Voigt Hill
#
# Bulk Modulus (GPa) = 60.95809 61.93723 61.44766
# Shear Modulus (GPa) = 22.34397 31.53667 26.94032
#
# Velocity S-wave (km/s) = 3.31683 3.94049 3.64203
# Velocity P-wave (km/s) = 6.68445 7.15534 6.92390
#
# Compressibility (1/GPa) = 0.01640471
#
# Stress axis : x y z
#
# Youngs Moduli (GPa) = 116.36459 82.74779 77.99357
#
# Poissons Ratio (x) = 0.09228 0.24851
# Poissons Ratio (y) = 0.12976 0.33118
# Poissons Ratio (z) = 0.37078 0.35137
#
# Static dielectric constant tensor:
#      x y z
#    x 1.768100 0.000000 0.000000 
#    y 0.000000 1.745150 0.000000 
#    z 0.000000 0.000000 2.294620 
# 
# From -- ./inp_files/22547.got.cif
#   From: 2010.05.17/outbox.cif.g08.bks.cpg/sg68_12_cif.got.tgz:22547.got - 2010.06.03 18:57:09.
