data_PCOD9509085
_publ_section_title
;
Structure prediction by ZEFSAII (Michael W. Deem and Ramdas Pophale) SiO2 
 PCOD9509085
Probable space group: C C C A
;
_chemical_formula_sum "Si O2"
_cell_formula_units_Z 88
_cell_length_a 23.740258
_cell_length_b 17.569689
_cell_length_c 10.078848
_cell_angle_alpha 90.000000
_cell_angle_beta 90.000000
_cell_angle_gamma 90.000000
_cell_volume 4203.977705
_symmetry_space_group_name_H-M "C C C A"
_symmetry_group_IT_number 68
_space_group.IT_coordinate_system_code '2'
_symmetry_cell_setting 'orthorhombic'
loop_
_space_group_symop_operation_xyz
x,y,z
-x,1/2-y,z
x,1/2-y,1/2-z
-x,y,1/2-z
-x,-y,-z
x,1/2+y,-z
-x,1/2+y,1/2+z
x,-y,1/2+z
1/2+x,1/2+y,z
1/2-x,-y,z
1/2+x,-y,1/2-z
1/2-x,1/2+y,1/2-z
1/2-x,1/2-y,-z
1/2+x,y,-z
1/2-x,y,1/2+z
1/2+x,1/2-y,1/2+z
loop_
_atom_site_type_symbol
_atom_site_label
_atom_site_fract_x
_atom_site_fract_y
_atom_site_fract_z
Si Si1 0.000000 0.049191 0.250000
Si Si2 0.596540 0.318843 0.354707
Si Si3 0.507719 0.662997 0.472813
Si Si4 0.382055 0.483946 0.233498
Si Si5 0.867742 0.586497 0.001890
Si Si6 0.696884 0.731967 0.590308
O O1 0.947740 0.999726 0.208957
O O2 0.982173 0.104512 0.367962
O O3 0.590111 0.250000 0.250000
O O4 0.534234 0.336925 0.403703
O O5 0.625258 0.396376 0.307014
O O6 0.642680 0.282902 0.453309
O O7 0.500000 0.750000 0.423317
O O8 0.571336 0.631672 0.497476
O O9 0.371690 0.481826 0.390779
O O10 0.354213 0.547609 0.139866
O O11 0.822251 0.646378 0.054887
O O12 0.705905 0.750000 0.750000
O O13 0.750000 0.750000 0.500000
#
# Coordination Sequence:
#
# PCOD9509085 Si02
#       6
#     8  16  16  16  16  16
#     4  10  23  34  53  98 152 178 206 274 341 398
#     4  11  21  39  70  95 131 175 227 270 322 409
#     4  11  20  36  61 100 137 178 224 264 336 411
#     4  11  21  40  64  97 140 176 218 266 338 397
#     4  11  23  42  69 101 139 178 218 278 339 405
#     4  11  24  50  73  98 126 172 234 286 335 397
#
# _framework density 20.932556999999999
#
# number of rings (size 3 to 8) (size 9 to 14) (size 15 to 20)
#    0.000    1.091    5.455    2.455    0.000    5.455 
#    9.818    0.909    0.000    0.000    0.000    0.000 
#    0.000    0.000    0.000    0.000    0.000    0.000 
#
# Total GULP energy -245137.869319 kJ/mol
# GULP energy per Si atom -5571.315212 kJ/mol
# Density = 2.088491 g / cm^3
# Si number density = 20.932557 Si / 1000 Ang^3
#
#
#
# Elastic Constant Matrix: (Units=GPa)
#
#
# Indices 1 2 3 4 5 6 
#
# 1 67.2982 38.9282 43.5631 0.0000 0.0000 0.0000
# 2 38.9282 115.5297 53.4154 0.0000 0.0000 0.0000
# 3 43.5631 53.4154 79.9805 0.0000 0.0000 0.0000
# 4 0.0000 0.0000 0.0000 31.7207 0.0000 0.0000
# 5 0.0000 0.0000 0.0000 0.0000 29.5284 0.0000
# 6 0.0000 0.0000 0.0000 0.0000 0.0000 11.3449
#
#
#
# Elastic Compliance Matrix: (Units=1/GPa)
#
#
# Indices 1 2 3 4 5 6 
#
# 1 0.023607 -0.002907 -0.010917 0.000000 0.000000 0.000000
# 2 -0.002907 0.012881 -0.007019 0.000000 0.000000 0.000000
# 3 -0.010917 -0.007019 0.023137 0.000000 0.000000 0.000000
# 4 0.000000 0.000000 0.000000 0.031525 0.000000 0.000000
# 5 0.000000 0.000000 0.000000 0.000000 0.033866 0.000000
# 6 0.000000 0.000000 0.000000 0.000000 0.000000 0.088145
#
#
# Mechanical properties :
#
#
# Convention : Reuss Voigt Hill
#
# Bulk Modulus (GPa) = 55.74430 59.40244 57.57337
# Shear Modulus (GPa) = 19.16984 22.97891 21.07438
#
# Velocity S-wave (km/s) = 3.02949 3.31684 3.17641
# Velocity P-wave (km/s) = 6.23901 6.56568 6.40443
#
# Compressibility (1/GPa) = 0.01793905
#
# Stress axis : x y z
#
# Youngs Moduli (GPa) = 42.35948 77.63622 43.22147
#
# Poissons Ratio (x) = 0.22571 0.47184
# Poissons Ratio (y) = 0.12315 0.30337
# Poissons Ratio (z) = 0.46243 0.54492
#
# Static dielectric constant tensor:
#      x y z
#    x 1.813940 0.000000 0.000000 
#    y 0.000000 1.775060 0.000000 
#    z 0.000000 0.000000 1.847890 
# 
# From -- ./inp_files/17094.got.cif
#   From: 2010.05.17/outbox.cif.g08.bks.cpg/sg68_9_cif.got.tgz:17094.got - 2010.06.03 18:57:09.
