data_PCOD9509536
_publ_section_title
;
Structure prediction by ZEFSAII (Michael W. Deem and Ramdas Pophale) SiO2 
 PCOD9509536
Probable space group: C C C A
;
_chemical_formula_sum "Si O2"
_cell_formula_units_Z 104
_cell_length_a 9.120996
_cell_length_b 21.056032
_cell_length_c 24.345750
_cell_angle_alpha 90.000000
_cell_angle_beta 90.000000
_cell_angle_gamma 90.000000
_cell_volume 4675.649581
_symmetry_space_group_name_H-M "C C C A"
_symmetry_group_IT_number 68
_space_group.IT_coordinate_system_code '2'
_symmetry_cell_setting 'orthorhombic'
loop_
_space_group_symop_operation_xyz
x,y,z
-x,1/2-y,z
x,1/2-y,1/2-z
-x,y,1/2-z
-x,-y,-z
x,1/2+y,-z
-x,1/2+y,1/2+z
x,-y,1/2+z
1/2+x,1/2+y,z
1/2-x,-y,z
1/2+x,-y,1/2-z
1/2-x,1/2+y,1/2-z
1/2-x,1/2-y,-z
1/2+x,y,-z
1/2-x,y,1/2+z
1/2+x,1/2-y,1/2+z
loop_
_atom_site_type_symbol
_atom_site_label
_atom_site_fract_x
_atom_site_fract_y
_atom_site_fract_z
Si Si1 0.884338 0.701361 0.505150
Si Si2 0.824152 0.751590 0.312275
Si Si3 0.204496 0.887651 0.675421
Si Si4 0.500000 0.047603 0.750000
Si Si5 0.997688 0.404279 0.080437
Si Si6 0.687945 0.643626 0.897234
Si Si7 0.979805 0.968847 0.360905
O O1 0.750000 0.750000 0.500000
O O2 0.911007 0.679080 0.442760
O O3 0.000000 0.750000 0.530687
O O4 0.894495 0.635641 0.539085
O O5 0.768081 0.750000 0.250000
O O6 0.780249 0.820792 0.331353
O O7 0.771889 0.694922 0.350926
O O8 0.000000 0.750000 0.311312
O O9 0.144323 0.911038 0.734398
O O10 0.320691 0.937688 0.650506
O O11 0.057677 0.882497 0.639956
O O12 0.521767 0.004189 0.696062
O O13 0.165824 0.383410 0.073465
O O14 0.981741 0.480430 0.088652
O O15 0.596032 0.586054 0.872442
#
# Coordination Sequence:
#
# PCOD9509536 Si02
#       7
#    16  16  16   8  16  16  16
#     4  12  26  48  75 103 141 194 240 307 371 443
#     4  11  25  43  69 105 142 190 239 296 355 437
#     4  11  25  46  71 104 144 194 241 302 361 440
#     4  10  24  42  69 103 142 194 240 288 368 430
#     4  11  26  46  69 110 139 182 249 301 364 438
#     4  12  26  46  75 105 146 189 244 301 373 444
#     4  11  26  46  75 101 147 196 236 301 367 452
#
# _framework density 22.242898
#
# number of rings (size 3 to 8) (size 9 to 14) (size 15 to 20)
#    0.000    0.769    3.077    3.692    8.615    3.077 
#    0.000    1.538    0.000    0.000    0.000    0.000 
#    0.000    0.000    0.000    0.000    0.000    0.000 
#
# Total GULP energy -290136.328786 kJ/mol
# GULP energy per Si atom -5579.544784 kJ/mol
# Density = 2.219227 g / cm^3
# Si number density = 22.242898 Si / 1000 Ang^3
#
#
#
# Elastic Constant Matrix: (Units=GPa)
#
#
# Indices 1 2 3 4 5 6 
#
# 1 64.0743 42.6841 -7.2352 0.0000 0.0000 0.0000
# 2 42.6841 193.8226 50.8113 0.0000 0.0000 0.0000
# 3 -7.2352 50.8113 84.6770 0.0000 0.0000 0.0000
# 4 0.0000 0.0000 0.0000 36.5574 0.0000 0.0000
# 5 0.0000 0.0000 0.0000 0.0000 14.9667 0.0000
# 6 0.0000 0.0000 0.0000 0.0000 0.0000 34.7859
#
#
#
# Elastic Compliance Matrix: (Units=1/GPa)
#
#
# Indices 1 2 3 4 5 6 
#
# 1 0.020033 -0.005768 0.005173 0.000000 0.000000 0.000000
# 2 -0.005768 0.007783 -0.005163 0.000000 0.000000 0.000000
# 3 0.005173 -0.005163 0.015350 0.000000 0.000000 0.000000
# 4 0.000000 0.000000 0.000000 0.027354 0.000000 0.000000
# 5 0.000000 0.000000 0.000000 0.000000 0.066815 0.000000
# 6 0.000000 0.000000 0.000000 0.000000 0.000000 0.028747
#
#
# Mechanical properties :
#
#
# Convention : Reuss Voigt Hill
#
# Bulk Modulus (GPa) = 31.59580 57.23270 44.41425
# Shear Modulus (GPa) = 26.57464 34.34957 30.46210
#
# Velocity S-wave (km/s) = 3.46026 3.93401 3.70472
# Velocity P-wave (km/s) = 5.49548 6.81336 6.18960
#
# Compressibility (1/GPa) = 0.03164977
#
# Stress axis : x y z
#
# Youngs Moduli (GPa) = 49.91678 128.48332 65.14753
#
# Poissons Ratio (x) = 0.74107 -0.33699
# Poissons Ratio (y) = 0.28791 0.33637
# Poissons Ratio (z) = -0.25821 0.66338
#
# Static dielectric constant tensor:
#      x y z
#    x 1.450310 0.000000 0.000000 
#    y 0.000000 4.633340 0.000000 
#    z 0.000000 0.000000 1.855440 
# 
# From -- ./inp_files/49409.got.cif
#   From: 2010.05.17/outbox.cif.g08.bks.cpg/sg68_25_cif.got.tgz:49409.got - 2010.06.03 18:57:09.
