data_PCOD9509509
_publ_section_title
;
Structure prediction by ZEFSAII (Michael W. Deem and Ramdas Pophale) SiO2 
 PCOD9509509
Probable space group: C C C A
;
_chemical_formula_sum "Si O2"
_cell_formula_units_Z 84
_cell_length_a 14.724340
_cell_length_b 19.376981
_cell_length_c 11.324069
_cell_angle_alpha 90.000000
_cell_angle_beta 90.000000
_cell_angle_gamma 90.000000
_cell_volume 3230.907002
_symmetry_space_group_name_H-M "C C C A"
_symmetry_group_IT_number 68
_space_group.IT_coordinate_system_code '2'
_symmetry_cell_setting 'orthorhombic'
loop_
_space_group_symop_operation_xyz
x,y,z
-x,1/2-y,z
x,1/2-y,1/2-z
-x,y,1/2-z
-x,-y,-z
x,1/2+y,-z
-x,1/2+y,1/2+z
x,-y,1/2+z
1/2+x,1/2+y,z
1/2-x,-y,z
1/2+x,-y,1/2-z
1/2-x,1/2+y,1/2-z
1/2-x,1/2-y,-z
1/2+x,y,-z
1/2-x,y,1/2+z
1/2+x,1/2-y,1/2+z
loop_
_atom_site_type_symbol
_atom_site_label
_atom_site_fract_x
_atom_site_fract_y
_atom_site_fract_z
Si Si1 0.441222 0.341283 0.452612
Si Si2 0.000000 0.750000 0.250000
Si Si3 0.402973 0.978904 0.679178
Si Si4 0.103346 0.839778 0.798997
Si Si5 0.134814 0.369631 0.437844
Si Si6 0.754153 0.570128 0.374096
O O1 0.438448 0.296360 0.335306
O O2 0.410787 0.418126 0.418195
O O3 0.399208 0.307920 0.570958
O O4 0.545685 0.347797 0.492070
O O5 0.500000 0.981641 0.750000
O O6 0.324281 0.948937 0.768252
O O7 0.385932 0.052370 0.613099
O O8 0.155194 0.822669 0.677468
O O9 0.154526 0.910591 0.830854
O O10 0.000000 0.842637 0.750000
O O11 0.211046 0.372625 0.536751
O O12 0.750000 0.500000 0.446540
#
# Coordination Sequence:
#
# PCOD9509509 Si02
#       6
#    16   4  16  16  16  16
#     4  11  23  44  70  96 136 185 235 312 343 423
#     4  12  24  48  78 108 120 184 274 284 364 424
#     4  12  22  38  63 102 144 186 226 289 364 432
#     4  10  24  42  62  97 144 189 226 284 363 420
#     4  11  23  40  62 102 148 183 231 277 373 429
#     4  12  24  34  58 101 144 194 230 275 342 452
#
# _framework density 25.998889999999999
#
# number of rings (size 3 to 8) (size 9 to 14) (size 15 to 20)
#    0.000    0.762    4.762    3.429    5.333    0.000 
#    0.000    4.286    0.000    4.571    0.000    0.000 
#    0.000    0.000    0.000    0.000    0.000    0.000 
#
# Total GULP energy -234357.235512 kJ/mol
# GULP energy per Si atom -5579.934179 kJ/mol
# Density = 2.593971 g / cm^3
# Si number density = 25.998890 Si / 1000 Ang^3
#
#
#
# Elastic Constant Matrix: (Units=GPa)
#
#
# Indices 1 2 3 4 5 6 
#
# 1 62.6122 11.4585 37.3572 0.0000 0.0000 0.0000
# 2 11.4585 79.8803 47.2142 0.0000 0.0000 0.0000
# 3 37.3572 47.2142 178.2416 0.0000 0.0000 0.0000
# 4 0.0000 0.0000 0.0000 40.6792 0.0000 0.0000
# 5 0.0000 0.0000 0.0000 0.0000 28.6971 0.0000
# 6 0.0000 0.0000 0.0000 0.0000 0.0000 -3.1457
#
#
#
# Elastic Compliance Matrix: (Units=1/GPa)
#
#
# Indices 1 2 3 4 5 6 
#
# 1 0.018266 -0.000424 -0.003716 0.000000 0.000000 0.000000
# 2 -0.000424 0.014852 -0.003845 0.000000 0.000000 0.000000
# 3 -0.003716 -0.003845 0.007408 0.000000 0.000000 0.000000
# 4 0.000000 0.000000 0.000000 0.024583 0.000000 0.000000
# 5 0.000000 0.000000 0.000000 0.000000 0.034847 0.000000
# 6 0.000000 0.000000 0.000000 0.000000 0.000000 -0.317893
#
#
# Mechanical properties :
#
#
# Convention : Reuss Voigt Hill
#
# Bulk Modulus (GPa) = 40.72364 56.97709 48.85037
# Shear Modulus (GPa) = -25.80223 28.22639 1.21208
#
# Velocity S-wave (km/s) = -3.15371 3.29854 0.68353
# Velocity P-wave (km/s) = 1.56090 6.03903 4.41057
#
# Compressibility (1/GPa) = 0.02455576
#
# Stress axis : x y z
#
# Youngs Moduli (GPa) = 54.74635 67.32914 134.99252
#
# Poissons Ratio (x) = 0.02853 0.50164
# Poissons Ratio (y) = 0.02320 0.51910
# Poissons Ratio (z) = 0.20344 0.25891
#
# Static dielectric constant tensor:
#      x y z
#    x 2.092720 0.000000 0.000000 
#    y 0.000000 2.125710 0.000000 
#    z 0.000000 0.000000 2.081940 
# 
# From -- ./inp_files/13319.got.cif
#   From: 2010.05.17/outbox.cif.g08.bks.cpg/sg68_7_cif.got.tgz:13319.got - 2010.06.03 18:57:09.
