data_PCOD9509813
_publ_section_title
;
Structure prediction by ZEFSAII (Michael W. Deem and Ramdas Pophale) SiO2 
 PCOD9509813
Probable space group: C C C A
;
_chemical_formula_sum "Si O2"
_cell_formula_units_Z 64
_cell_length_a 19.807537
_cell_length_b 16.025057
_cell_length_c 8.534084
_cell_angle_alpha 90.000000
_cell_angle_beta 90.000000
_cell_angle_gamma 90.000000
_cell_volume 2708.862568
_symmetry_space_group_name_H-M "C C C A"
_symmetry_group_IT_number 68
_space_group.IT_coordinate_system_code '2'
_symmetry_cell_setting 'orthorhombic'
loop_
_space_group_symop_operation_xyz
x,y,z
-x,1/2-y,z
x,1/2-y,1/2-z
-x,y,1/2-z
-x,-y,-z
x,1/2+y,-z
-x,1/2+y,1/2+z
x,-y,1/2+z
1/2+x,1/2+y,z
1/2-x,-y,z
1/2+x,-y,1/2-z
1/2-x,1/2+y,1/2-z
1/2-x,1/2-y,-z
1/2+x,y,-z
1/2-x,y,1/2+z
1/2+x,1/2-y,1/2+z
loop_
_atom_site_type_symbol
_atom_site_label
_atom_site_fract_x
_atom_site_fract_y
_atom_site_fract_z
Si Si1 0.955349 0.343407 0.090949
Si Si2 0.196638 0.070304 0.340542
Si Si3 0.000000 0.133188 0.750000
Si Si4 0.893995 0.481088 0.606818
Si Si5 0.833749 0.250000 0.250000
O O1 0.942770 0.442081 0.076965
O O2 0.886111 0.291609 0.123805
O O3 0.000000 0.333710 0.250000
O O4 0.987247 0.326850 0.920906
O O5 0.132934 0.068156 0.457719
O O6 0.209475 0.169304 0.310553
O O7 0.250000 0.000000 0.395861
O O8 0.169366 0.026745 0.184674
O O9 0.067931 0.080381 0.722050
#
# Coordination Sequence:
#
# PCOD9509813 Si02
#       5
#    16  16   8  16   8
#     4  11  22  40  68 107 154 190 238 302 368 442
#     4  11  24  46  72  99 141 199 248 304 367 431
#     4  12  20  38  75 107 144 196 242 296 367 447
#     4  11  21  40  69 106 139 186 254 293 359 438
#     4  10  25  46  68 102 148 191 244 312 376 430
#
# _framework density 23.626151
#
# number of rings (size 3 to 8) (size 9 to 14) (size 15 to 20)
#    0.000    1.000    3.750    4.875    0.000    0.000 
#    0.000   21.250    0.000    0.000    0.000    0.000 
#    0.000    0.000    0.000    0.000    0.000    0.000 
#
# Total GULP energy -178253.304965 kJ/mol
# GULP energy per Si atom -5570.415780 kJ/mol
# Density = 2.357238 g / cm^3
# Si number density = 23.626151 Si / 1000 Ang^3
#
#
#
# Elastic Constant Matrix: (Units=GPa)
#
#
# Indices 1 2 3 4 5 6 
#
# 1 58.1186 54.5046 29.2900 0.0000 0.0000 0.0000
# 2 54.5046 182.4074 49.1175 0.0000 0.0000 0.0000
# 3 29.2900 49.1175 160.4927 0.0000 0.0000 0.0000
# 4 0.0000 0.0000 0.0000 -252.7143 0.0000 0.0000
# 5 0.0000 0.0000 0.0000 0.0000 25.6098 0.0000
# 6 0.0000 0.0000 0.0000 0.0000 0.0000 29.7921
#
#
#
# Elastic Compliance Matrix: (Units=1/GPa)
#
#
# Indices 1 2 3 4 5 6 
#
# 1 0.024763 -0.006738 -0.002457 0.000000 0.000000 0.000000
# 2 -0.006738 0.007808 -0.001160 0.000000 0.000000 0.000000
# 3 -0.002457 -0.001160 0.007034 0.000000 0.000000 0.000000
# 4 0.000000 0.000000 0.000000 -0.003957 0.000000 0.000000
# 5 0.000000 0.000000 0.000000 0.000000 0.039048 0.000000
# 6 0.000000 0.000000 0.000000 0.000000 0.000000 0.033566
#
#
# Mechanical properties :
#
#
# Convention : Reuss Voigt Hill
#
# Bulk Modulus (GPa) = 52.92243 74.09365 63.50804
# Shear Modulus (GPa) = 36.96297 -21.58872 7.68712
#
# Velocity S-wave (km/s) = 3.95966 -3.02613 1.80574
# Velocity P-wave (km/s) = 6.58436 4.38395 5.59342
#
# Compressibility (1/GPa) = 0.01889558
#
# Stress axis : x y z
#
# Youngs Moduli (GPa) = 40.38214 128.07606 142.16168
#
# Poissons Ratio (x) = 0.86295 0.34933
# Poissons Ratio (y) = 0.27209 0.16489
# Poissons Ratio (z) = 0.09923 0.14855
#
# Static dielectric constant tensor:
#      x y z
#    x 1.978320 0.000000 0.000000 
#    y 0.000000 1.972690 0.000000 
#    z 0.000000 0.000000 1.884090 
# 
# From -- ./inp_files/6795.got.cif
#   From: 2010.05.17/outbox.cif.g08.bks.cpg/sg68_4_cif.got.tgz:6795.got - 2010.06.03 18:57:09.
