data_PCOD9509577
_publ_section_title
;
Structure prediction by ZEFSAII (Michael W. Deem and Ramdas Pophale) SiO2 
 PCOD9509577
Probable space group: C C C A
;
_chemical_formula_sum "Si O2"
_cell_formula_units_Z 56
_cell_length_a 8.037281
_cell_length_b 16.000292
_cell_length_c 17.780825
_cell_angle_alpha 90.000000
_cell_angle_beta 90.000000
_cell_angle_gamma 90.000000
_cell_volume 2286.593521
_symmetry_space_group_name_H-M "C C C A"
_symmetry_group_IT_number 68
_space_group.IT_coordinate_system_code '2'
_symmetry_cell_setting 'orthorhombic'
loop_
_space_group_symop_operation_xyz
x,y,z
-x,1/2-y,z
x,1/2-y,1/2-z
-x,y,1/2-z
-x,-y,-z
x,1/2+y,-z
-x,1/2+y,1/2+z
x,-y,1/2+z
1/2+x,1/2+y,z
1/2-x,-y,z
1/2+x,-y,1/2-z
1/2-x,1/2+y,1/2-z
1/2-x,1/2-y,-z
1/2+x,y,-z
1/2-x,y,1/2+z
1/2+x,1/2-y,1/2+z
loop_
_atom_site_type_symbol
_atom_site_label
_atom_site_fract_x
_atom_site_fract_y
_atom_site_fract_z
Si Si1 0.000000 0.750000 0.554812
Si Si2 0.996891 0.155279 0.908042
Si Si3 0.191475 0.409446 0.323004
Si Si4 0.320991 0.640278 0.160972
O O1 0.023000 0.825925 0.496358
O O2 0.854507 0.776923 0.610728
O O3 0.823184 0.113815 0.887078
O O4 0.000000 0.250000 0.874078
O O5 0.151630 0.105193 0.873781
O O6 0.250000 0.500000 0.294940
O O7 0.204870 0.350296 0.249822
O O8 0.998124 0.406950 0.346238
#
# Coordination Sequence:
#
# PCOD9509577 Si02
#       4
#     8  16  16  16
#     4  10  24  47  73 114 140 182 242 310 378 433
#     4  10  24  43  75 103 145 183 242 307 370 433
#     4  11  27  44  67 108 145 195 249 293 368 443
#     4  11  24  42  76  97 148 185 235 307 358 435
#
# _framework density 24.490580000000001
#
# number of rings (size 3 to 8) (size 9 to 14) (size 15 to 20)
#    0.857    0.571    0.000    3.429   12.000    9.143 
#    0.000    2.857    0.000    0.000    0.000    0.000 
#    0.000    0.000    0.000    0.000    0.000    0.000 
#
# Total GULP energy -156293.676439 kJ/mol
# GULP energy per Si atom -5581.917016 kJ/mol
# Density = 2.443484 g / cm^3
# Si number density = 24.490580 Si / 1000 Ang^3
#
#
#
# Elastic Constant Matrix: (Units=GPa)
#
#
# Indices 1 2 3 4 5 6 
#
# 1 201.0335 38.3431 64.4550 0.0000 0.0000 0.0000
# 2 38.3431 52.7703 40.2657 0.0000 0.0000 0.0000
# 3 64.4550 40.2657 153.6491 0.0000 0.0000 0.0000
# 4 0.0000 0.0000 0.0000 3.3558 0.0000 0.0000
# 5 0.0000 0.0000 0.0000 0.0000 25.7806 0.0000
# 6 0.0000 0.0000 0.0000 0.0000 0.0000 30.5220
#
#
#
# Elastic Compliance Matrix: (Units=1/GPa)
#
#
# Indices 1 2 3 4 5 6 
#
# 1 0.006131 -0.003115 -0.001756 0.000000 0.000000 0.000000
# 2 -0.003115 0.025270 -0.005315 0.000000 0.000000 0.000000
# 3 -0.001756 -0.005315 0.008638 0.000000 0.000000 0.000000
# 4 0.000000 0.000000 0.000000 0.297988 0.000000 0.000000
# 5 0.000000 0.000000 0.000000 0.000000 0.038789 0.000000
# 6 0.000000 0.000000 0.000000 0.000000 0.000000 0.032763
#
#
# Mechanical properties :
#
#
# Convention : Reuss Voigt Hill
#
# Bulk Modulus (GPa) = 50.84943 77.06447 63.95695
# Shear Modulus (GPa) = 11.45458 29.55762 20.50610
#
# Velocity S-wave (km/s) = 2.16502 3.47781 2.89676
# Velocity P-wave (km/s) = 5.20170 6.90378 6.11228
#
# Compressibility (1/GPa) = 0.01966590
#
# Stress axis : x y z
#
# Youngs Moduli (GPa) = 163.09494 39.57335 115.77090
#
# Poissons Ratio (x) = 0.12329 0.20325
# Poissons Ratio (y) = 0.50812 0.61535
# Poissons Ratio (z) = 0.28634 0.21034
#
# Static dielectric constant tensor:
#      x y z
#    x 1.988550 0.000000 0.000000 
#    y 0.000000 1.972760 0.000000 
#    z 0.000000 0.000000 1.908510 
# 
# From -- ./inp_files/27610.got.cif
#   From: 2010.05.17/outbox.cif.g08.bks.cpg/sg68_14_cif.got.tgz:27610.got - 2010.06.03 18:57:09.
