data_PCOD9509573
_publ_section_title
;
Structure prediction by ZEFSAII (Michael W. Deem and Ramdas Pophale) SiO2 
 PCOD9509573
Probable space group: C C C A
;
_chemical_formula_sum "Si O2"
_cell_formula_units_Z 92
_cell_length_a 23.997130
_cell_length_b 8.724467
_cell_length_c 22.380940
_cell_angle_alpha 90.000000
_cell_angle_beta 90.000000
_cell_angle_gamma 90.000000
_cell_volume 4685.722138
_symmetry_space_group_name_H-M "C C C A"
_symmetry_group_IT_number 68
_space_group.IT_coordinate_system_code '2'
_symmetry_cell_setting 'orthorhombic'
loop_
_space_group_symop_operation_xyz
x,y,z
-x,1/2-y,z
x,1/2-y,1/2-z
-x,y,1/2-z
-x,-y,-z
x,1/2+y,-z
-x,1/2+y,1/2+z
x,-y,1/2+z
1/2+x,1/2+y,z
1/2-x,-y,z
1/2+x,-y,1/2-z
1/2-x,1/2+y,1/2-z
1/2-x,1/2-y,-z
1/2+x,y,-z
1/2-x,y,1/2+z
1/2+x,1/2-y,1/2+z
loop_
_atom_site_type_symbol
_atom_site_label
_atom_site_fract_x
_atom_site_fract_y
_atom_site_fract_z
Si Si1 0.807839 0.581068 0.669757
Si Si2 0.438714 0.790487 0.961240
Si Si3 0.093342 0.048482 0.076465
Si Si4 0.000000 0.750000 0.250000
Si Si5 0.568180 0.034145 0.160779
Si Si6 0.500000 0.250000 0.642798
Si Si7 0.811123 0.055814 0.192759
O O1 0.750000 0.500000 0.651486
O O2 0.854964 0.553578 0.621043
O O3 0.819499 0.520281 0.736725
O O4 0.807611 0.763633 0.679687
O O5 0.500000 0.750000 0.986125
O O6 0.417247 0.629160 0.936960
O O7 0.445459 0.907049 0.906004
O O8 0.401487 0.863908 0.013182
O O9 0.041687 0.135910 0.107737
O O10 0.960080 0.850479 0.207464
O O11 0.541467 0.868179 0.175153
O O12 0.634851 0.018760 0.162927
O O13 0.750000 0.000000 0.174724
#
# Coordination Sequence:
#
# PCOD9509573 Si02
#       7
#    16  16  16   4  16   8  16
#     4  10  24  45  66  99 128 173 225 277 338 403
#     4  12  24  42  63  97 135 181 221 277 340 410
#     4  12  24  42  68  95 131 179 225 279 337 410
#     4  12  28  40  64 108 146 178 216 284 344 402
#     4  12  26  42  67 103 141 176 226 276 342 407
#     4  12  22  42  68  98 137 171 224 278 336 408
#     4  10  24  43  71  95 132 178 220 277 340 408
#
# _framework density 19.634114
#
# number of rings (size 3 to 8) (size 9 to 14) (size 15 to 20)
#    0.000    0.696    5.217    1.565    7.304    1.739 
#    0.000    1.739    0.000    0.000    0.000    0.000 
#    0.000    0.000    0.000    0.000    0.000    0.000 
#
# Total GULP energy -256849.065664 kJ/mol
# GULP energy per Si atom -5583.675341 kJ/mol
# Density = 1.958943 g / cm^3
# Si number density = 19.634114 Si / 1000 Ang^3
#
#
#
# Elastic Constant Matrix: (Units=GPa)
#
#
# Indices 1 2 3 4 5 6 
#
# 1 143.0128 53.0932 57.0888 0.0000 0.0000 0.0000
# 2 53.0932 92.5878 21.3816 0.0000 0.0000 0.0000
# 3 57.0888 21.3816 50.9818 0.0000 0.0000 0.0000
# 4 0.0000 0.0000 0.0000 -19.1053 0.0000 0.0000
# 5 0.0000 0.0000 0.0000 0.0000 16.5644 0.0000
# 6 0.0000 0.0000 0.0000 0.0000 0.0000 32.1954
#
#
#
# Elastic Compliance Matrix: (Units=1/GPa)
#
#
# Indices 1 2 3 4 5 6 
#
# 1 0.014509 -0.005058 -0.014126 0.000000 0.000000 0.000000
# 2 -0.005058 0.013722 -0.000091 0.000000 0.000000 0.000000
# 3 -0.014126 -0.000091 0.035471 0.000000 0.000000 0.000000
# 4 0.000000 0.000000 0.000000 -0.052342 0.000000 0.000000
# 5 0.000000 0.000000 0.000000 0.000000 0.060371 0.000000
# 6 0.000000 0.000000 0.000000 0.000000 0.000000 0.031060
#
#
# Mechanical properties :
#
#
# Convention : Reuss Voigt Hill
#
# Bulk Modulus (GPa) = 39.75786 61.07883 50.41834
# Shear Modulus (GPa) = 33.39473 16.26549 24.83011
#
# Velocity S-wave (km/s) = 4.12861 2.88137 3.56004
# Velocity P-wave (km/s) = 6.55901 6.49967 6.52941
#
# Compressibility (1/GPa) = 0.02515226
#
# Stress axis : x y z
#
# Youngs Moduli (GPa) = 68.92354 72.87587 28.19223
#
# Poissons Ratio (x) = 0.36859 0.39823
# Poissons Ratio (y) = 0.34860 0.00257
# Poissons Ratio (z) = 0.97358 0.00665
#
# Static dielectric constant tensor:
#      x y z
#    x 1.949730 0.000000 0.000000 
#    y 0.000000 -0.693440 0.000000 
#    z 0.000000 0.000000 1.707930 
# 
# From -- ./inp_files/46970.got.cif
#   From: 2010.05.17/outbox.cif.g08.bks.cpg/sg68_24_cif.got.tgz:46970.got - 2010.06.03 18:57:09.
