data_PCOD9509858
_publ_section_title
;
Structure prediction by ZEFSAII (Michael W. Deem and Ramdas Pophale) SiO2 
 PCOD9509858
Probable space group: C C C A
;
_chemical_formula_sum "Si O2"
_cell_formula_units_Z 88
_cell_length_a 22.647245
_cell_length_b 9.550333
_cell_length_c 20.389159
_cell_angle_alpha 90.000000
_cell_angle_beta 90.000000
_cell_angle_gamma 90.000000
_cell_volume 4409.945332
_symmetry_space_group_name_H-M "C C C A"
_symmetry_group_IT_number 68
_space_group.IT_coordinate_system_code '2'
_symmetry_cell_setting 'orthorhombic'
loop_
_space_group_symop_operation_xyz
x,y,z
-x,1/2-y,z
x,1/2-y,1/2-z
-x,y,1/2-z
-x,-y,-z
x,1/2+y,-z
-x,1/2+y,1/2+z
x,-y,1/2+z
1/2+x,1/2+y,z
1/2-x,-y,z
1/2+x,-y,1/2-z
1/2-x,1/2+y,1/2-z
1/2-x,1/2-y,-z
1/2+x,y,-z
1/2-x,y,1/2+z
1/2+x,1/2-y,1/2+z
loop_
_atom_site_type_symbol
_atom_site_label
_atom_site_fract_x
_atom_site_fract_y
_atom_site_fract_z
Si Si1 0.688317 0.082746 0.260722
Si Si2 0.233224 0.700424 0.927536
Si Si3 0.500000 0.750000 0.017020
Si Si4 0.653632 0.061775 0.397840
Si Si5 0.920715 0.508654 0.977602
Si Si6 0.182261 0.965651 0.880926
O O1 0.697296 0.250000 0.250000
O O2 0.643444 0.048170 0.320245
O O3 0.750000 0.000000 0.276707
O O4 0.668677 0.019624 0.191210
O O5 0.298545 0.688327 0.896631
O O6 0.195678 0.559143 0.926792
O O7 0.188580 0.799423 0.887891
O O8 0.250000 0.750000 0.000000
O O9 0.455490 0.642296 0.052437
O O10 0.459712 0.867771 0.980755
O O11 0.600004 0.060177 0.449291
O O12 0.863615 0.482036 0.934116
O O13 0.250000 0.000000 0.898028
#
# Coordination Sequence:
#
# PCOD9509858 Si02
#       6
#    16  16   8  16  16  16
#     4  11  24  39  56  94 142 178 203 243 323 407
#     4  11  20  34  54  99 130 168 203 251 317 377
#     4  10  26  44  64  90 120 170 218 284 320 360
#     4  11  22  35  63  88 135 168 212 256 308 394
#     4  11  23  43  67  92 126 163 221 271 322 381
#     4  11  23  35  66  95 136 165 203 258 330 389
#
# _framework density 19.954896999999999
#
# number of rings (size 3 to 8) (size 9 to 14) (size 15 to 20)
#    0.000    1.091    3.636    4.364    5.091    0.000 
#    0.000    0.000    0.000    6.545    0.000    0.000 
#    0.000    0.000    0.000    0.000    0.000    0.000 
#
# Total GULP energy -245020.734500 kJ/mol
# GULP energy per Si atom -5568.653057 kJ/mol
# Density = 1.990948 g / cm^3
# Si number density = 19.954897 Si / 1000 Ang^3
#
#
#
# Elastic Constant Matrix: (Units=GPa)
#
#
# Indices 1 2 3 4 5 6 
#
# 1 71.0910 14.6460 37.4853 0.0000 0.0000 0.0000
# 2 14.6460 89.3632 31.3529 0.0000 0.0000 0.0000
# 3 37.4853 31.3529 146.4146 0.0000 0.0000 0.0000
# 4 0.0000 0.0000 0.0000 17.8685 0.0000 0.0000
# 5 0.0000 0.0000 0.0000 0.0000 3.7588 0.0000
# 6 0.0000 0.0000 0.0000 0.0000 0.0000 32.7382
#
#
#
# Elastic Compliance Matrix: (Units=1/GPa)
#
#
# Indices 1 2 3 4 5 6 
#
# 1 0.016403 -0.001314 -0.003918 0.000000 0.000000 0.000000
# 2 -0.001314 0.012205 -0.002277 0.000000 0.000000 0.000000
# 3 -0.003918 -0.002277 0.008321 0.000000 0.000000 0.000000
# 4 0.000000 0.000000 0.000000 0.055964 0.000000 0.000000
# 5 0.000000 0.000000 0.000000 0.000000 0.266039 0.000000
# 6 0.000000 0.000000 0.000000 0.000000 0.000000 0.030545
#
#
# Mechanical properties :
#
#
# Convention : Reuss Voigt Hill
#
# Bulk Modulus (GPa) = 45.64063 52.64857 49.14460
# Shear Modulus (GPa) = 12.14186 25.76542 18.95364
#
# Velocity S-wave (km/s) = 2.46939 3.59720 3.08526
# Velocity P-wave (km/s) = 5.57243 6.61016 6.11336
#
# Compressibility (1/GPa) = 0.02191030
#
# Stress axis : x y z
#
# Youngs Moduli (GPa) = 60.96387 81.93696 120.18230
#
# Poissons Ratio (x) = 0.10764 0.47091
# Poissons Ratio (y) = 0.08009 0.27367
# Poissons Ratio (z) = 0.23887 0.18658
#
# Static dielectric constant tensor:
#      x y z
#    x 1.757130 0.000000 0.000000 
#    y 0.000000 2.830430 0.000000 
#    z 0.000000 0.000000 1.774660 
# 
# From -- ./inp_files/40746.got.cif
#   From: 2010.05.17/outbox.cif.g08.bks.cpg/sg68_21_cif.got.tgz:40746.got - 2010.06.03 18:57:09.
