data_PCOD9509163
_publ_section_title
;
Structure prediction by ZEFSAII (Michael W. Deem and Ramdas Pophale) SiO2 
 PCOD9509163
Probable space group: C C C A
;
_chemical_formula_sum "Si O2"
_cell_formula_units_Z 92
_cell_length_a 25.615301
_cell_length_b 17.982562
_cell_length_c 9.519517
_cell_angle_alpha 90.000000
_cell_angle_beta 90.000000
_cell_angle_gamma 90.000000
_cell_volume 4384.963106
_symmetry_space_group_name_H-M "C C C A"
_symmetry_group_IT_number 68
_space_group.IT_coordinate_system_code '2'
_symmetry_cell_setting 'orthorhombic'
loop_
_space_group_symop_operation_xyz
x,y,z
-x,1/2-y,z
x,1/2-y,1/2-z
-x,y,1/2-z
-x,-y,-z
x,1/2+y,-z
-x,1/2+y,1/2+z
x,-y,1/2+z
1/2+x,1/2+y,z
1/2-x,-y,z
1/2+x,-y,1/2-z
1/2-x,1/2+y,1/2-z
1/2-x,1/2-y,-z
1/2+x,y,-z
1/2-x,y,1/2+z
1/2+x,1/2-y,1/2+z
loop_
_atom_site_type_symbol
_atom_site_label
_atom_site_fract_x
_atom_site_fract_y
_atom_site_fract_z
Si Si1 0.500000 0.483296 0.250000
Si Si2 0.921346 0.637679 0.129223
Si Si3 0.762068 0.163261 0.534040
Si Si4 0.500000 0.750000 0.750000
Si Si5 0.691904 0.397391 0.187288
Si Si6 0.593738 0.554580 0.373597
Si Si7 0.345012 0.050789 0.594805
O O1 0.544320 0.432541 0.179130
O O2 0.533676 0.530318 0.358356
O O3 0.960235 0.703918 0.155824
O O4 0.866460 0.634665 0.211073
O O5 0.905565 0.627013 0.969344
O O6 0.750000 0.250000 0.500000
O O7 0.712354 0.123994 0.466047
O O8 0.771418 0.140690 0.696095
O O9 0.811034 0.120445 0.458481
O O10 0.688701 0.486628 0.175201
O O11 0.626139 0.491995 0.464310
O O12 0.614864 0.570240 0.218284
#
# Coordination Sequence:
#
# PCOD9509163 Si02
#       7
#     8  16  16   4  16  16  16
#     4  11  18  39  68 107 138 167 228 294 344 401
#     4  10  23  40  69  99 136 185 233 283 354 424
#     4  12  27  44  67 102 139 185 228 297 364 417
#     4  10  24  44  68  94 140 198 228 284 364 440
#     4  11  25  46  68 101 138 184 242 287 348 435
#     4  11  21  40  71 110 134 179 234 298 344 415
#     4  11  23  44  72  98 142 185 236 292 352 422
#
# _framework density 20.980792000000001
#
# number of rings (size 3 to 8) (size 9 to 14) (size 15 to 20)
#    0.000    1.043    5.217    1.565    7.304    1.391 
#    0.000    0.000    0.000    4.696    0.000    0.000 
#    0.000    0.000    0.000    0.000    0.000    0.000 
#
# Total GULP energy -256460.814000 kJ/mol
# GULP energy per Si atom -5575.235087 kJ/mol
# Density = 2.093304 g / cm^3
# Si number density = 20.980792 Si / 1000 Ang^3
#
#
#
# Elastic Constant Matrix: (Units=GPa)
#
#
# Indices 1 2 3 4 5 6 
#
# 1 132.5690 32.1847 47.8016 0.0000 0.0000 0.0000
# 2 32.1847 88.4039 28.7641 0.0000 0.0000 0.0000
# 3 47.8016 28.7641 98.3912 0.0000 0.0000 0.0000
# 4 0.0000 0.0000 0.0000 14.4446 0.0000 0.0000
# 5 0.0000 0.0000 0.0000 0.0000 46.3700 0.0000
# 6 0.0000 0.0000 0.0000 0.0000 0.0000 28.2251
#
#
#
# Elastic Compliance Matrix: (Units=1/GPa)
#
#
# Indices 1 2 3 4 5 6 
#
# 1 0.009506 -0.002164 -0.003986 0.000000 0.000000 0.000000
# 2 -0.002164 0.012993 -0.002747 0.000000 0.000000 0.000000
# 3 -0.003986 -0.002747 0.012903 0.000000 0.000000 0.000000
# 4 0.000000 0.000000 0.000000 0.069230 0.000000 0.000000
# 5 0.000000 0.000000 0.000000 0.000000 0.021566 0.000000
# 6 0.000000 0.000000 0.000000 0.000000 0.000000 0.035429
#
#
# Mechanical properties :
#
#
# Convention : Reuss Voigt Hill
#
# Bulk Modulus (GPa) = 56.79034 59.65164 58.22099
# Shear Modulus (GPa) = 26.98471 31.84886 29.41679
#
# Velocity S-wave (km/s) = 3.59020 3.90038 3.74850
# Velocity P-wave (km/s) = 6.65677 6.98407 6.82238
#
# Compressibility (1/GPa) = 0.01760863
#
# Stress axis : x y z
#
# Youngs Moduli (GPa) = 105.20013 76.96215 77.50150
#
# Poissons Ratio (x) = 0.16654 0.30889
# Poissons Ratio (y) = 0.22764 0.21292
# Poissons Ratio (z) = 0.41928 0.21144
#
# Static dielectric constant tensor:
#      x y z
#    x 1.921010 0.000000 0.000000 
#    y 0.000000 1.817240 0.000000 
#    z 0.000000 0.000000 1.796880 
# 
# From -- ./inp_files/8959.got.cif
#   From: 2010.05.17/outbox.cif.g08.bks.cpg/sg68_5_cif.got.tgz:8959.got - 2010.06.03 18:57:09.
