data_PCOD9509033
_publ_section_title
;
Structure prediction by ZEFSAII (Michael W. Deem and Ramdas Pophale) SiO2 
 PCOD9509033
Probable space group: C C C A
;
_chemical_formula_sum "Si O2"
_cell_formula_units_Z 48
_cell_length_a 8.905278
_cell_length_b 12.754454
_cell_length_c 16.855809
_cell_angle_alpha 90.000000
_cell_angle_beta 90.000000
_cell_angle_gamma 90.000000
_cell_volume 1914.515800
_symmetry_space_group_name_H-M "C C C A"
_symmetry_group_IT_number 68
_space_group.IT_coordinate_system_code '2'
_symmetry_cell_setting 'orthorhombic'
loop_
_space_group_symop_operation_xyz
x,y,z
-x,1/2-y,z
x,1/2-y,1/2-z
-x,y,1/2-z
-x,-y,-z
x,1/2+y,-z
-x,1/2+y,1/2+z
x,-y,1/2+z
1/2+x,1/2+y,z
1/2-x,-y,z
1/2+x,-y,1/2-z
1/2-x,1/2+y,1/2-z
1/2-x,1/2-y,-z
1/2+x,y,-z
1/2-x,y,1/2+z
1/2+x,1/2-y,1/2+z
loop_
_atom_site_type_symbol
_atom_site_label
_atom_site_fract_x
_atom_site_fract_y
_atom_site_fract_z
Si Si1 0.679737 0.248860 0.413367
Si Si2 0.890447 0.056402 0.683496
Si Si3 0.061500 0.360842 0.341309
O O1 0.500000 0.250000 0.419368
O O2 0.750000 0.250000 0.500000
O O3 0.695983 0.358308 0.367623
O O4 0.763852 0.157987 0.362824
O O5 0.000000 0.102777 0.750000
O O6 0.750000 0.000000 0.725735
O O7 0.989020 0.971847 0.633280
O O8 0.000000 0.250000 0.375942
O O9 0.000000 0.359151 0.250000
#
# Coordination Sequence:
#
# PCOD9509033 Si02
#       3
#    16  16  16
#     4  12  29  49  74 115 161 217 271 329 423 496
#     4  11  26  46  80 117 155 209 275 344 418 481
#     4  10  22  45  75 109 156 205 264 345 401 475
#
# _framework density 25.071612999999999
#
# number of rings (size 3 to 8) (size 9 to 14) (size 15 to 20)
#    0.000    1.000    3.333    1.000    9.333    2.000 
#    0.000    0.000    0.000    0.000    0.000    0.000 
#    0.000    0.000    0.000    0.000    0.000    0.000 
#
# Total GULP energy -133853.477669 kJ/mol
# GULP energy per Si atom -5577.228236 kJ/mol
# Density = 2.501455 g / cm^3
# Si number density = 25.071613 Si / 1000 Ang^3
#
#
#
# Elastic Constant Matrix: (Units=GPa)
#
#
# Indices 1 2 3 4 5 6 
#
# 1 197.1877 44.1888 72.3546 0.0000 0.0000 0.0000
# 2 44.1888 114.5328 46.5900 0.0000 0.0000 0.0000
# 3 72.3546 46.5900 131.0445 0.0000 0.0000 0.0000
# 4 0.0000 0.0000 0.0000 -22.8614 0.0000 0.0000
# 5 0.0000 0.0000 0.0000 0.0000 36.0164 0.0000
# 6 0.0000 0.0000 0.0000 0.0000 0.0000 79.3329
#
#
#
# Elastic Compliance Matrix: (Units=1/GPa)
#
#
# Indices 1 2 3 4 5 6 
#
# 1 0.006504 -0.001226 -0.003155 0.000000 0.000000 0.000000
# 2 -0.001226 0.010438 -0.003034 0.000000 0.000000 0.000000
# 3 -0.003155 -0.003034 0.010452 0.000000 0.000000 0.000000
# 4 0.000000 0.000000 0.000000 -0.043742 0.000000 0.000000
# 5 0.000000 0.000000 0.000000 0.000000 0.027765 0.000000
# 6 0.000000 0.000000 0.000000 0.000000 0.000000 0.012605
#
#
# Mechanical properties :
#
#
# Convention : Reuss Voigt Hill
#
# Bulk Modulus (GPa) = 79.59618 85.44798 82.52208
# Shear Modulus (GPa) = 116.16906 37.13968 76.65437
#
# Velocity S-wave (km/s) = 6.81436 3.85300 5.53539
# Velocity P-wave (km/s) = 9.68145 7.34504 8.59302
#
# Compressibility (1/GPa) = 0.01256342
#
# Stress axis : x y z
#
# Youngs Moduli (GPa) = 153.75786 95.80042 95.67670
#
# Poissons Ratio (x) = 0.11743 0.30187
# Poissons Ratio (y) = 0.18848 0.29031
# Poissons Ratio (z) = 0.48513 0.29069
#
# Static dielectric constant tensor:
#      x y z
#    x 2.132060 0.000000 0.000000 
#    y 0.000000 2.299950 0.000000 
#    z 0.000000 0.000000 1.976530 
# 
# From -- ./inp_files/35446.got.cif
#   From: 2010.05.17/outbox.cif.g08.bks.cpg/sg68_18_cif.got.tgz:35446.got - 2010.06.03 18:57:09.
