data_PCOD9509818
_publ_section_title
;
Structure prediction by ZEFSAII (Michael W. Deem and Ramdas Pophale) SiO2 
 PCOD9509818
Probable space group: C C C A
;
_chemical_formula_sum "Si O2"
_cell_formula_units_Z 40
_cell_length_a 18.438776
_cell_length_b 15.233799
_cell_length_c 5.142386
_cell_angle_alpha 90.000000
_cell_angle_beta 90.000000
_cell_angle_gamma 90.000000
_cell_volume 1444.458212
_symmetry_space_group_name_H-M "C C C A"
_symmetry_group_IT_number 68
_space_group.IT_coordinate_system_code '2'
_symmetry_cell_setting 'orthorhombic'
loop_
_space_group_symop_operation_xyz
x,y,z
-x,1/2-y,z
x,1/2-y,1/2-z
-x,y,1/2-z
-x,-y,-z
x,1/2+y,-z
-x,1/2+y,1/2+z
x,-y,1/2+z
1/2+x,1/2+y,z
1/2-x,-y,z
1/2+x,-y,1/2-z
1/2-x,1/2+y,1/2-z
1/2-x,1/2-y,-z
1/2+x,y,-z
1/2-x,y,1/2+z
1/2+x,1/2-y,1/2+z
loop_
_atom_site_type_symbol
_atom_site_label
_atom_site_fract_x
_atom_site_fract_y
_atom_site_fract_z
Si Si1 0.581350 0.842369 0.138101
Si Si2 0.500000 0.565056 0.750000
Si Si3 0.781183 0.097407 0.378639
O O1 0.610851 0.750000 0.250000
O O2 0.500000 0.843213 0.250000
O O3 0.637946 0.908665 0.267871
O O4 0.565754 0.869207 0.837655
O O5 0.500000 0.500000 0.500000
O O6 0.767681 0.141264 0.655397
O O7 0.750000 0.000000 0.426421
#
# Coordination Sequence:
#
# PCOD9509818 Si02
#       3
#    16   8  16
#     4  11  28  52  82 124 174 225 290 363 444 521
#     4  12  28  49  83 122 164 226 292 358 425 518
#     4  10  25  46  75 111 163 222 282 351 424 519
#
# _framework density 27.692042000000001
#
# number of rings (size 3 to 8) (size 9 to 14) (size 15 to 20)
#    0.000    1.200    2.000    0.000   16.800    4.800 
#    0.000    0.000    0.000    0.000    0.000    0.000 
#    0.000    0.000    0.000    0.000    0.000    0.000 
#
# Total GULP energy -111553.635039 kJ/mol
# GULP energy per Si atom -5577.681752 kJ/mol
# Density = 2.762901 g / cm^3
# Si number density = 27.692042 Si / 1000 Ang^3
#
#
#
# Elastic Constant Matrix: (Units=GPa)
#
#
# Indices 1 2 3 4 5 6 
#
# 1 146.3142 15.1067 6.0008 0.0000 0.0000 0.0000
# 2 15.1067 140.8674 43.0241 0.0000 0.0000 0.0000
# 3 6.0008 43.0241 186.5358 0.0000 0.0000 0.0000
# 4 0.0000 0.0000 0.0000 27.3969 0.0000 0.0000
# 5 0.0000 0.0000 0.0000 0.0000 52.5680 0.0000
# 6 0.0000 0.0000 0.0000 0.0000 0.0000 29.4120
#
#
#
# Elastic Compliance Matrix: (Units=1/GPa)
#
#
# Indices 1 2 3 4 5 6 
#
# 1 0.006912 -0.000724 -0.000055 0.000000 0.000000 0.000000
# 2 -0.000724 0.007713 -0.001756 0.000000 0.000000 0.000000
# 3 -0.000055 -0.001756 0.005768 0.000000 0.000000 0.000000
# 4 0.000000 0.000000 0.000000 0.036500 0.000000 0.000000
# 5 0.000000 0.000000 0.000000 0.000000 0.019023 0.000000
# 6 0.000000 0.000000 0.000000 0.000000 0.000000 0.034000
#
#
# Mechanical properties :
#
#
# Convention : Reuss Voigt Hill
#
# Bulk Modulus (GPa) = 65.26756 66.88676 66.07716
# Shear Modulus (GPa) = 41.63446 49.18110 45.40778
#
# Velocity S-wave (km/s) = 3.88168 4.21883 4.05376
# Velocity P-wave (km/s) = 6.61137 6.92370 6.76934
#
# Compressibility (1/GPa) = 0.01532155
#
# Stress axis : x y z
#
# Youngs Moduli (GPa) = 144.68306 129.65524 173.38199
#
# Poissons Ratio (x) = 0.09391 0.00958
# Poissons Ratio (y) = 0.10480 0.30439
# Poissons Ratio (z) = 0.00800 0.22763
#
# Static dielectric constant tensor:
#      x y z
#    x 2.192750 0.000000 0.000000 
#    y 0.000000 2.516920 0.000000 
#    z 0.000000 0.000000 2.421590 
# 
# From -- ./inp_files/792.got.cif
#   From: 2010.05.17/outbox.cif.g08.bks.cpg/sg68_1_cif.got.tgz:792.got - 2010.06.03 18:57:09.
