data_PCOD9509899
_publ_section_title
;
Structure prediction by ZEFSAII (Michael W. Deem and Ramdas Pophale) SiO2 
 PCOD9509899
Probable space group: C C C A
;
_chemical_formula_sum "Si O2"
_cell_formula_units_Z 44
_cell_length_a 7.351822
_cell_length_b 7.526674
_cell_length_c 32.340015
_cell_angle_alpha 90.000000
_cell_angle_beta 90.000000
_cell_angle_gamma 90.000000
_cell_volume 1789.527211
_symmetry_space_group_name_H-M "C C C A"
_symmetry_group_IT_number 68
_space_group.IT_coordinate_system_code '2'
_symmetry_cell_setting 'orthorhombic'
loop_
_space_group_symop_operation_xyz
x,y,z
-x,1/2-y,z
x,1/2-y,1/2-z
-x,y,1/2-z
-x,-y,-z
x,1/2+y,-z
-x,1/2+y,1/2+z
x,-y,1/2+z
1/2+x,1/2+y,z
1/2-x,-y,z
1/2+x,-y,1/2-z
1/2-x,1/2+y,1/2-z
1/2-x,1/2-y,-z
1/2+x,y,-z
1/2-x,y,1/2+z
1/2+x,1/2-y,1/2+z
loop_
_atom_site_type_symbol
_atom_site_label
_atom_site_fract_x
_atom_site_fract_y
_atom_site_fract_z
Si Si1 0.212907 0.299309 0.309799
Si Si2 0.543167 0.544137 0.952397
Si Si3 0.750000 0.500000 0.611276
Si Si4 0.500000 0.750000 0.750000
O O1 0.250000 0.500000 0.292681
O O2 0.270533 0.332767 0.357434
O O3 0.352660 0.179173 0.284103
O O4 0.000000 0.250000 0.306456
O O5 0.500000 0.750000 0.947399
O O6 0.250000 0.500000 0.055450
O O7 0.414057 0.454053 0.919052
O O8 0.500000 0.500000 0.000000
#
# Coordination Sequence:
#
# PCOD9509899 Si02
#       4
#    16  16   8   4
#     4  10  27  45  73 106 152 191 255 309 388 464
#     4  12  27  44  74 106 150 197 257 311 383 453
#     4  10  28  44  76 106 154 192 254 310 388 452
#     4  12  26  44  78 102 148 192 250 314 392 454
#
# _framework density 24.587498
#
# number of rings (size 3 to 8) (size 9 to 14) (size 15 to 20)
#    1.091    0.000    1.818    1.636   12.727    0.000 
#    0.000    0.000    0.000    0.000    0.000    0.000 
#    0.000    0.000    0.000    0.000    0.000    0.000 
#
# Total GULP energy -122748.089089 kJ/mol
# GULP energy per Si atom -5579.458595 kJ/mol
# Density = 2.453154 g / cm^3
# Si number density = 24.587498 Si / 1000 Ang^3
#
#
#
# Elastic Constant Matrix: (Units=GPa)
#
#
# Indices 1 2 3 4 5 6 
#
# 1 275.0933 32.6840 111.2250 0.0000 0.0000 0.0000
# 2 32.6840 80.3745 14.2173 0.0000 0.0000 0.0000
# 3 111.2250 14.2173 236.8088 0.0000 0.0000 0.0000
# 4 0.0000 0.0000 0.0000 29.7009 0.0000 0.0000
# 5 0.0000 0.0000 0.0000 0.0000 49.7108 0.0000
# 6 0.0000 0.0000 0.0000 0.0000 0.0000 40.8116
#
#
#
# Elastic Compliance Matrix: (Units=1/GPa)
#
#
# Indices 1 2 3 4 5 6 
#
# 1 0.004665 -0.001526 -0.002100 0.000000 0.000000 0.000000
# 2 -0.001526 0.013074 -0.000068 0.000000 0.000000 0.000000
# 3 -0.002100 -0.000068 0.005213 0.000000 0.000000 0.000000
# 4 0.000000 0.000000 0.000000 0.033669 0.000000 0.000000
# 5 0.000000 0.000000 0.000000 0.000000 0.020116 0.000000
# 6 0.000000 0.000000 0.000000 0.000000 0.000000 0.024503
#
#
# Mechanical properties :
#
#
# Convention : Reuss Voigt Hill
#
# Bulk Modulus (GPa) = 64.24547 100.94770 82.59658
# Shear Modulus (GPa) = 43.93032 52.98803 48.45918
#
# Velocity S-wave (km/s) = 4.23152 4.64732 4.44428
# Velocity P-wave (km/s) = 7.07533 8.36316 7.74606
#
# Compressibility (1/GPa) = 0.01556530
#
# Stress axis : x y z
#
# Youngs Moduli (GPa) = 214.34785 76.48604 191.82554
#
# Poissons Ratio (x) = 0.11670 0.40276
# Poissons Ratio (y) = 0.32704 0.01311
# Poissons Ratio (z) = 0.45005 0.00523
#
# Static dielectric constant tensor:
#      x y z
#    x 1.924940 0.000000 0.000000 
#    y 0.000000 2.361000 0.000000 
#    z 0.000000 0.000000 2.059700 
# 
# From -- ./inp_files/53617.got.cif
#   From: 2010.05.17/outbox.cif.g08.bks.cpg/sg68_27_cif.got.tgz:53617.got - 2010.06.03 18:57:09.
