data_PCOD9509754
_publ_section_title
;
Structure prediction by ZEFSAII (Michael W. Deem and Ramdas Pophale) SiO2 
 PCOD9509754
Probable space group: C C C A
;
_chemical_formula_sum "Si O2"
_cell_formula_units_Z 88
_cell_length_a 24.208208
_cell_length_b 13.250939
_cell_length_c 13.341724
_cell_angle_alpha 90.000000
_cell_angle_beta 90.000000
_cell_angle_gamma 90.000000
_cell_volume 4279.778071
_symmetry_space_group_name_H-M "C C C A"
_symmetry_group_IT_number 68
_space_group.IT_coordinate_system_code '2'
_symmetry_cell_setting 'orthorhombic'
loop_
_space_group_symop_operation_xyz
x,y,z
-x,1/2-y,z
x,1/2-y,1/2-z
-x,y,1/2-z
-x,-y,-z
x,1/2+y,-z
-x,1/2+y,1/2+z
x,-y,1/2+z
1/2+x,1/2+y,z
1/2-x,-y,z
1/2+x,-y,1/2-z
1/2-x,1/2+y,1/2-z
1/2-x,1/2-y,-z
1/2+x,y,-z
1/2-x,y,1/2+z
1/2+x,1/2-y,1/2+z
loop_
_atom_site_type_symbol
_atom_site_label
_atom_site_fract_x
_atom_site_fract_y
_atom_site_fract_z
Si Si1 0.083946 0.524082 0.474752
Si Si2 0.860695 0.806768 0.348740
Si Si3 0.998572 0.371903 0.371260
Si Si4 0.768755 0.345757 0.185353
Si Si5 0.250000 0.000000 0.324640
Si Si6 0.321233 0.623460 0.527695
O O1 0.100781 0.606312 0.391597
O O2 0.048588 0.434290 0.423145
O O3 0.139211 0.471556 0.513845
O O4 0.052806 0.578999 0.567298
O O5 0.882153 0.750000 0.250000
O O6 0.798228 0.845044 0.324405
O O7 0.853116 0.719810 0.431185
O O8 0.000000 0.250000 0.387426
O O9 0.000000 0.388003 0.250000
O O10 0.785211 0.250000 0.250000
O O11 0.789685 0.441530 0.248273
O O12 0.792626 0.348169 0.075455
O O13 0.276135 0.086354 0.392461
#
# Coordination Sequence:
#
# PCOD9509754 Si02
#       6
#    16  16  16  16   8  16
#     4  11  25  43  71 100 130 171 224 279 347 412
#     4  11  23  43  65 101 141 177 233 279 330 409
#     4  10  24  49  72  96 131 166 214 284 356 419
#     4  11  24  42  61  95 141 187 224 274 330 395
#     4  12  22  40  62  90 136 182 226 270 332 390
#     4  12  25  39  66  96 135 179 228 278 332 407
#
# _framework density 20.561813999999998
#
# number of rings (size 3 to 8) (size 9 to 14) (size 15 to 20)
#    0.000    0.909    3.636    4.364    5.091    0.000 
#    3.273    0.000    0.000    0.000    0.000    0.000 
#    0.000    0.000    0.000    0.000    0.000    0.000 
#
# Total GULP energy -245787.081936 kJ/mol
# GULP energy per Si atom -5586.070044 kJ/mol
# Density = 2.051501 g / cm^3
# Si number density = 20.561814 Si / 1000 Ang^3
#
#
#
# Elastic Constant Matrix: (Units=GPa)
#
#
# Indices 1 2 3 4 5 6 
#
# 1 23.0275 17.0771 25.4652 0.0000 0.0000 0.0000
# 2 17.0771 142.6448 71.5245 0.0000 0.0000 0.0000
# 3 25.4652 71.5245 162.5755 0.0000 0.0000 0.0000
# 4 0.0000 0.0000 0.0000 22.4123 0.0000 0.0000
# 5 0.0000 0.0000 0.0000 0.0000 24.1855 0.0000
# 6 0.0000 0.0000 0.0000 0.0000 0.0000 36.5191
#
#
#
# Elastic Compliance Matrix: (Units=1/GPa)
#
#
# Indices 1 2 3 4 5 6 
#
# 1 0.053395 -0.002821 -0.007122 0.000000 0.000000 0.000000
# 2 -0.002821 0.009144 -0.003581 0.000000 0.000000 0.000000
# 3 -0.007122 -0.003581 0.008842 0.000000 0.000000 0.000000
# 4 0.000000 0.000000 0.000000 0.044618 0.000000 0.000000
# 5 0.000000 0.000000 0.000000 0.000000 0.041347 0.000000
# 6 0.000000 0.000000 0.000000 0.000000 0.000000 0.027383
#
#
# Mechanical properties :
#
#
# Convention : Reuss Voigt Hill
#
# Bulk Modulus (GPa) = 22.55717 61.82017 42.18867
# Shear Modulus (GPa) = 22.06975 30.90213 26.48594
#
# Velocity S-wave (km/s) = 3.27974 3.88092 3.59292
# Velocity P-wave (km/s) = 5.03353 7.08610 6.14611
#
# Compressibility (1/GPa) = 0.04433181
#
# Stress axis : x y z
#
# Youngs Moduli (GPa) = 18.72844 109.36564 113.09663
#
# Poissons Ratio (x) = 0.30852 0.80552
# Poissons Ratio (y) = 0.05283 0.40498
# Poissons Ratio (z) = 0.13339 0.39162
#
# Static dielectric constant tensor:
#      x y z
#    x 1.748510 0.000000 0.000000 
#    y 0.000000 1.778720 0.000000 
#    z 0.000000 0.000000 1.729530 
# 
# From -- ./inp_files/16350.got.cif
#   From: 2010.05.17/outbox.cif.g08.bks.cpg/sg68_9_cif.got.tgz:16350.got - 2010.06.03 18:57:09.
