data_PCOD9509838
_publ_section_title
;
Structure prediction by ZEFSAII (Michael W. Deem and Ramdas Pophale) SiO2 
 PCOD9509838
Probable space group: C C C A
;
_chemical_formula_sum "Si O2"
_cell_formula_units_Z 88
_cell_length_a 27.058179
_cell_length_b 14.126182
_cell_length_c 10.909208
_cell_angle_alpha 90.000000
_cell_angle_beta 90.000000
_cell_angle_gamma 90.000000
_cell_volume 4169.813059
_symmetry_space_group_name_H-M "C C C A"
_symmetry_group_IT_number 68
_space_group.IT_coordinate_system_code '2'
_symmetry_cell_setting 'orthorhombic'
loop_
_space_group_symop_operation_xyz
x,y,z
-x,1/2-y,z
x,1/2-y,1/2-z
-x,y,1/2-z
-x,-y,-z
x,1/2+y,-z
-x,1/2+y,1/2+z
x,-y,1/2+z
1/2+x,1/2+y,z
1/2-x,-y,z
1/2+x,-y,1/2-z
1/2-x,1/2+y,1/2-z
1/2-x,1/2-y,-z
1/2+x,y,-z
1/2-x,y,1/2+z
1/2+x,1/2-y,1/2+z
loop_
_atom_site_type_symbol
_atom_site_label
_atom_site_fract_x
_atom_site_fract_y
_atom_site_fract_z
Si Si1 0.419803 0.101963 0.597156
Si Si2 0.000000 0.004474 0.250000
Si Si3 0.078603 0.846263 0.323041
Si Si4 0.361524 0.250000 0.750000
Si Si5 0.656466 0.942747 0.844807
Si Si6 0.750000 0.500000 0.298789
Si Si7 0.713522 0.828370 0.050056
O O1 0.418903 0.160054 0.470105
O O2 0.396042 0.166085 0.702542
O O3 0.473152 0.066625 0.645220
O O4 0.383712 0.010491 0.589985
O O5 0.958968 0.933225 0.197672
O O6 0.064334 0.750000 0.250000
O O7 0.129019 0.882259 0.259983
O O8 0.325647 0.215824 0.857106
O O9 0.700808 0.000802 0.782908
O O10 0.682326 0.875550 0.942118
O O11 0.746209 0.592104 0.382813
O O12 0.750000 0.750000 0.000000
#
# Coordination Sequence:
#
# PCOD9509838 Si02
#       7
#    16   8  16   8  16   8  16
#     4  11  25  48  74 102 145 183 239 297 359 433
#     4  10  25  49  74 108 138 184 230 293 373 434
#     4  11  24  46  74 106 139 179 237 296 359 429
#     4  12  26  47  66 108 140 186 244 289 350 426
#     4  11  25  43  69 102 139 193 233 294 361 417
#     4  12  24  44  68 102 144 190 244 294 358 422
#     4  12  27  43  70 102 148 189 244 294 352 424
#
# _framework density 21.104063
#
# number of rings (size 3 to 8) (size 9 to 14) (size 15 to 20)
#    0.000    0.727    1.818    4.636   10.182    0.364 
#    6.545    0.000    0.000    0.000    0.000    0.000 
#    0.000    0.000    0.000    0.000    0.000    0.000 
#
# Total GULP energy -246215.872986 kJ/mol
# GULP energy per Si atom -5595.815295 kJ/mol
# Density = 2.105603 g / cm^3
# Si number density = 21.104063 Si / 1000 Ang^3
#
#
#
# Elastic Constant Matrix: (Units=GPa)
#
#
# Indices 1 2 3 4 5 6 
#
# 1 86.7182 38.2387 55.4717 0.0000 0.0000 0.0000
# 2 38.2387 106.3674 51.5464 0.0000 0.0000 0.0000
# 3 55.4717 51.5464 127.7975 0.0000 0.0000 0.0000
# 4 0.0000 0.0000 0.0000 -339.3339 0.0000 0.0000
# 5 0.0000 0.0000 0.0000 0.0000 -19.7215 0.0000
# 6 0.0000 0.0000 0.0000 0.0000 0.0000 12.8814
#
#
#
# Elastic Compliance Matrix: (Units=1/GPa)
#
#
# Indices 1 2 3 4 5 6 
#
# 1 0.016751 -0.003105 -0.006018 0.000000 0.000000 0.000000
# 2 -0.003105 0.012261 -0.003598 0.000000 0.000000 0.000000
# 3 -0.006018 -0.003598 0.011888 0.000000 0.000000 0.000000
# 4 0.000000 0.000000 0.000000 -0.002947 0.000000 0.000000
# 5 0.000000 0.000000 0.000000 0.000000 -0.050706 0.000000
# 6 0.000000 0.000000 0.000000 0.000000 0.000000 0.077631
#
#
# Mechanical properties :
#
#
# Convention : Reuss Voigt Hill
#
# Bulk Modulus (GPa) = 64.69262 67.93298 66.31280
# Shear Modulus (GPa) = 52.37078 -57.52636 -2.57779
#
# Velocity S-wave (km/s) = 4.98692 -5.22662 -1.10640
# Velocity P-wave (km/s) = 7.99248 2.04060 5.46424
#
# Compressibility (1/GPa) = 0.01545771
#
# Stress axis : x y z
#
# Youngs Moduli (GPa) = 59.69921 81.55853 84.11687
#
# Poissons Ratio (x) = 0.25326 0.50624
# Poissons Ratio (y) = 0.18538 0.30262
# Poissons Ratio (z) = 0.35929 0.29341
#
# Static dielectric constant tensor:
#      x y z
#    x 1.745080 0.000000 0.000000 
#    y 0.000000 1.852560 0.000000 
#    z 0.000000 0.000000 1.603860 
# 
# From -- ./inp_files/16374.got.cif
#   From: 2010.05.17/outbox.cif.g08.bks.cpg/sg68_9_cif.got.tgz:16374.got - 2010.06.03 18:57:09.
