data_PCOD9509484
_publ_section_title
;
Structure prediction by ZEFSAII (Michael W. Deem and Ramdas Pophale) SiO2 
 PCOD9509484
Probable space group: C C C A
;
_chemical_formula_sum "Si O2"
_cell_formula_units_Z 48
_cell_length_a 21.437531
_cell_length_b 5.188273
_cell_length_c 16.720289
_cell_angle_alpha 90.000000
_cell_angle_beta 90.000000
_cell_angle_gamma 90.000000
_cell_volume 1859.693466
_symmetry_space_group_name_H-M "C C C A"
_symmetry_group_IT_number 68
_space_group.IT_coordinate_system_code '2'
_symmetry_cell_setting 'orthorhombic'
loop_
_space_group_symop_operation_xyz
x,y,z
-x,1/2-y,z
x,1/2-y,1/2-z
-x,y,1/2-z
-x,-y,-z
x,1/2+y,-z
-x,1/2+y,1/2+z
x,-y,1/2+z
1/2+x,1/2+y,z
1/2-x,-y,z
1/2+x,-y,1/2-z
1/2-x,1/2+y,1/2-z
1/2-x,1/2-y,-z
1/2+x,y,-z
1/2-x,y,1/2+z
1/2+x,1/2-y,1/2+z
loop_
_atom_site_type_symbol
_atom_site_label
_atom_site_fract_x
_atom_site_fract_y
_atom_site_fract_z
Si Si1 0.182279 0.702773 0.555206
Si Si2 0.566879 0.857835 0.340217
Si Si3 0.367778 0.750000 0.750000
Si Si4 0.750000 0.000000 0.316102
O O1 0.184739 0.433970 0.509445
O O2 0.117481 0.738121 0.601418
O O3 0.233695 0.771520 0.622396
O O4 0.500000 0.750000 0.367569
O O5 0.572257 0.750000 0.250000
O O6 0.585544 0.160218 0.322259
O O7 0.312725 0.962644 0.734967
#
# Coordination Sequence:
#
# PCOD9509484 Si02
#       4
#    16  16   8   8
#     4  11  26  46  71 111 156 202 253 317 393 467
#     4  10  25  47  74 107 145 204 261 315 380 447
#     4  10  24  43  72 114 149 192 258 320 374 460
#     4  10  24  40  76 108 160 200 254 312 398 454
#
# _framework density 25.810704000000001
#
# number of rings (size 3 to 8) (size 9 to 14) (size 15 to 20)
#    0.000    1.667    0.000    1.000   18.667    4.000 
#    0.000    0.000    0.000    0.000    0.000    0.000 
#    0.000    0.000    0.000    0.000    0.000    0.000 
#
# Total GULP energy -133732.990147 kJ/mol
# GULP energy per Si atom -5572.207923 kJ/mol
# Density = 2.575196 g / cm^3
# Si number density = 25.810704 Si / 1000 Ang^3
#
#
#
# Elastic Constant Matrix: (Units=GPa)
#
#
# Indices 1 2 3 4 5 6 
#
# 1 208.3961 36.2792 41.1325 0.0000 0.0000 0.0000
# 2 36.2792 164.8584 64.1846 0.0000 0.0000 0.0000
# 3 41.1325 64.1846 82.5380 0.0000 0.0000 0.0000
# 4 0.0000 0.0000 0.0000 44.8994 0.0000 0.0000
# 5 0.0000 0.0000 0.0000 0.0000 59.9121 0.0000
# 6 0.0000 0.0000 0.0000 0.0000 0.0000 26.5800
#
#
#
# Elastic Compliance Matrix: (Units=1/GPa)
#
#
# Indices 1 2 3 4 5 6 
#
# 1 0.005327 -0.000199 -0.002500 0.000000 0.000000 0.000000
# 2 -0.000199 0.008707 -0.006672 0.000000 0.000000 0.000000
# 3 -0.002500 -0.006672 0.018550 0.000000 0.000000 0.000000
# 4 0.000000 0.000000 0.000000 0.022272 0.000000 0.000000
# 5 0.000000 0.000000 0.000000 0.000000 0.016691 0.000000
# 6 0.000000 0.000000 0.000000 0.000000 0.000000 0.037622
#
#
# Mechanical properties :
#
#
# Convention : Reuss Voigt Hill
#
# Bulk Modulus (GPa) = 72.24260 82.10945 77.17603
# Shear Modulus (GPa) = 37.72897 47.22469 42.47683
#
# Velocity S-wave (km/s) = 3.82744 4.28209 4.06113
# Velocity P-wave (km/s) = 6.89801 7.50530 7.20806
#
# Compressibility (1/GPa) = 0.01384225
#
# Stress axis : x y z
#
# Youngs Moduli (GPa) = 187.73759 114.84792 53.90928
#
# Poissons Ratio (x) = 0.02285 0.13476
# Poissons Ratio (y) = 0.03735 0.35968
# Poissons Ratio (z) = 0.46930 0.76625
#
# Static dielectric constant tensor:
#      x y z
#    x 2.072430 0.000000 0.000000 
#    y 0.000000 2.417240 0.000000 
#    z 0.000000 0.000000 2.042330 
# 
# From -- ./inp_files/33326.got.cif
#   From: 2010.05.17/outbox.cif.g08.bks.cpg/sg68_17_cif.got.tgz:33326.got - 2010.06.03 18:57:09.
