data_PCOD9509027
_publ_section_title
;
Structure prediction by ZEFSAII (Michael W. Deem and Ramdas Pophale) SiO2 
 PCOD9509027
Probable space group: C C C A
;
_chemical_formula_sum "Si O2"
_cell_formula_units_Z 56
_cell_length_a 13.026848
_cell_length_b 7.189506
_cell_length_c 23.126957
_cell_angle_alpha 90.000000
_cell_angle_beta 90.000000
_cell_angle_gamma 90.000000
_cell_volume 2165.992204
_symmetry_space_group_name_H-M "C C C A"
_symmetry_group_IT_number 68
_space_group.IT_coordinate_system_code '2'
_symmetry_cell_setting 'orthorhombic'
loop_
_space_group_symop_operation_xyz
x,y,z
-x,1/2-y,z
x,1/2-y,1/2-z
-x,y,1/2-z
-x,-y,-z
x,1/2+y,-z
-x,1/2+y,1/2+z
x,-y,1/2+z
1/2+x,1/2+y,z
1/2-x,-y,z
1/2+x,-y,1/2-z
1/2-x,1/2+y,1/2-z
1/2-x,1/2-y,-z
1/2+x,y,-z
1/2-x,y,1/2+z
1/2+x,1/2-y,1/2+z
loop_
_atom_site_type_symbol
_atom_site_label
_atom_site_fract_x
_atom_site_fract_y
_atom_site_fract_z
Si Si1 0.970433 0.065062 0.064729
Si Si2 0.270310 0.680870 0.063792
Si Si3 0.250000 0.000000 0.152764
Si Si4 0.033497 0.535034 0.810359
O O1 0.836084 0.984102 0.067116
O O2 0.999722 0.969198 0.125654
O O3 0.088249 0.230883 0.067775
O O4 0.000000 0.000000 0.000000
O O5 0.235068 0.820425 0.112646
O O6 0.250000 0.750000 0.000000
O O7 0.153977 0.031252 0.191947
O O8 0.000000 0.750000 0.810686
O O9 0.000000 0.448915 0.750000
#
# Coordination Sequence:
#
# PCOD9509027 Si02
#       4
#    16  16   8  16
#     4  11  21  41  66 101 145 186 235 308 374 437
#     4  12  23  39  68 110 152 193 252 308 378 464
#     4  12  22  46  76 104 146 208 248 318 400 456
#     4  10  22  45  74 102 147 199 254 316 393 456
#
# _framework density 25.854201
#
# number of rings (size 3 to 8) (size 9 to 14) (size 15 to 20)
#    0.000    0.857    7.143    3.429    0.000    0.000 
#    2.571    0.000    0.000    7.714    0.000    0.000 
#    0.000    0.000    0.000    0.000    0.000    0.000 
#
# Total GULP energy -155954.033405 kJ/mol
# GULP energy per Si atom -5569.786907 kJ/mol
# Density = 2.579536 g / cm^3
# Si number density = 25.854201 Si / 1000 Ang^3
#
#
#
# Elastic Constant Matrix: (Units=GPa)
#
#
# Indices 1 2 3 4 5 6 
#
# 1 216.8017 33.1171 84.1402 0.0000 0.0000 0.0000
# 2 33.1171 167.6159 53.4931 0.0000 0.0000 0.0000
# 3 84.1402 53.4931 212.6203 0.0000 0.0000 0.0000
# 4 0.0000 0.0000 0.0000 -103.1026 0.0000 0.0000
# 5 0.0000 0.0000 0.0000 0.0000 90.2036 0.0000
# 6 0.0000 0.0000 0.0000 0.0000 0.0000 45.9424
#
#
#
# Elastic Compliance Matrix: (Units=1/GPa)
#
#
# Indices 1 2 3 4 5 6 
#
# 1 0.005477 -0.000425 -0.002061 0.000000 0.000000 0.000000
# 2 -0.000425 0.006520 -0.001472 0.000000 0.000000 0.000000
# 3 -0.002061 -0.001472 0.005889 0.000000 0.000000 0.000000
# 4 0.000000 0.000000 0.000000 -0.009699 0.000000 0.000000
# 5 0.000000 0.000000 0.000000 0.000000 0.011086 0.000000
# 6 0.000000 0.000000 0.000000 0.000000 0.000000 0.021766
#
#
# Mechanical properties :
#
#
# Convention : Reuss Voigt Hill
#
# Bulk Modulus (GPa) = 100.29073 104.28208 102.28640
# Shear Modulus (GPa) = 95.64269 35.02785 65.33527
#
# Velocity S-wave (km/s) = 6.08879 3.68478 5.03245
# Velocity P-wave (km/s) = 9.39714 7.65021 8.56832
#
# Compressibility (1/GPa) = 0.00997101
#
# Stress axis : x y z
#
# Youngs Moduli (GPa) = 182.57881 153.37960 169.80524
#
# Poissons Ratio (x) = 0.06511 0.34991
# Poissons Ratio (y) = 0.07751 0.25001
# Poissons Ratio (z) = 0.37623 0.22582
#
# Static dielectric constant tensor:
#      x y z
#    x -2.115740 0.000000 0.000000 
#    y 0.000000 0.701460 0.000000 
#    z 0.000000 0.000000 1.842280 
# 
# From -- ./inp_files/43826.got.cif
#   From: 2010.05.17/outbox.cif.g08.bks.cpg/sg68_22_cif.got.tgz:43826.got - 2010.06.03 18:57:09.
