data_PCOD9509981
_publ_section_title
;
Structure prediction by ZEFSAII (Michael W. Deem and Ramdas Pophale) SiO2 
 PCOD9509981
Probable space group: C C C A
;
_chemical_formula_sum "Si O2"
_cell_formula_units_Z 88
_cell_length_a 10.833857
_cell_length_b 15.833171
_cell_length_c 22.945692
_cell_angle_alpha 90.000000
_cell_angle_beta 90.000000
_cell_angle_gamma 90.000000
_cell_volume 3935.973455
_symmetry_space_group_name_H-M "C C C A"
_symmetry_group_IT_number 68
_space_group.IT_coordinate_system_code '2'
_symmetry_cell_setting 'orthorhombic'
loop_
_space_group_symop_operation_xyz
x,y,z
-x,1/2-y,z
x,1/2-y,1/2-z
-x,y,1/2-z
-x,-y,-z
x,1/2+y,-z
-x,1/2+y,1/2+z
x,-y,1/2+z
1/2+x,1/2+y,z
1/2-x,-y,z
1/2+x,-y,1/2-z
1/2-x,1/2+y,1/2-z
1/2-x,1/2-y,-z
1/2+x,y,-z
1/2-x,y,1/2+z
1/2+x,1/2-y,1/2+z
loop_
_atom_site_type_symbol
_atom_site_label
_atom_site_fract_x
_atom_site_fract_y
_atom_site_fract_z
Si Si1 0.133708 0.831562 0.720343
Si Si2 0.354086 0.390730 0.434219
Si Si3 0.428436 0.527717 0.627123
Si Si4 0.418499 0.365502 0.903377
Si Si5 0.500000 0.250000 0.007891
Si Si6 0.250000 0.500000 0.233130
Si Si7 0.250000 0.000000 0.468253
O O1 0.194894 0.750000 0.750000
O O2 0.106376 0.809740 0.653470
O O3 0.206326 0.919002 0.730008
O O4 0.000000 0.843827 0.750000
O O5 0.450846 0.417613 0.385005
O O6 0.216351 0.403677 0.412258
O O7 0.395570 0.297500 0.454655
O O8 0.347775 0.449589 0.492035
O O9 0.476900 0.432902 0.613384
O O10 0.360789 0.527431 0.688990
O O11 0.331028 0.554862 0.576898
O O12 0.446133 0.318760 0.963269
#
# Coordination Sequence:
#
# PCOD9509981 Si02
#       7
#    16  16  16  16   8   8   8
#     4  11  25  45  71 101 135 179 240 296 347 415
#     4  12  24  41  66  97 138 179 224 277 345 414
#     4  11  23  41  67  99 134 175 233 278 344 417
#     4  12  24  42  70  98 133 180 231 285 342 426
#     4  12  26  42  63 104 141 178 228 284 352 414
#     4  11  26  43  74 106 138 185 232 301 360 406
#     4  11  20  37  64  88 132 175 216 267 322 410
#
# _framework density 22.357875
#
# number of rings (size 3 to 8) (size 9 to 14) (size 15 to 20)
#    0.000    0.545    5.455    3.273    2.545    1.455 
#    0.000    0.000    0.000    1.636    0.000    0.000 
#    0.000    0.000    0.000    0.000    0.000    0.000 
#
# Total GULP energy -245742.378285 kJ/mol
# GULP energy per Si atom -5585.054052 kJ/mol
# Density = 2.230699 g / cm^3
# Si number density = 22.357875 Si / 1000 Ang^3
#
#
#
# Elastic Constant Matrix: (Units=GPa)
#
#
# Indices 1 2 3 4 5 6 
#
# 1 90.4584 14.3325 1.9612 0.0000 0.0000 0.0000
# 2 14.3325 97.1135 13.0565 0.0000 0.0000 0.0000
# 3 1.9612 13.0565 64.1982 0.0000 0.0000 0.0000
# 4 0.0000 0.0000 0.0000 31.1959 0.0000 0.0000
# 5 0.0000 0.0000 0.0000 0.0000 21.6261 0.0000
# 6 0.0000 0.0000 0.0000 0.0000 0.0000 44.0564
#
#
#
# Elastic Compliance Matrix: (Units=1/GPa)
#
#
# Indices 1 2 3 4 5 6 
#
# 1 0.011320 -0.001670 -0.000006 0.000000 0.000000 0.000000
# 2 -0.001670 0.010833 -0.002152 0.000000 0.000000 0.000000
# 3 -0.000006 -0.002152 0.016015 0.000000 0.000000 0.000000
# 4 0.000000 0.000000 0.000000 0.032055 0.000000 0.000000
# 5 0.000000 0.000000 0.000000 0.000000 0.046240 0.000000
# 6 0.000000 0.000000 0.000000 0.000000 0.000000 0.022698
#
#
# Mechanical properties :
#
#
# Convention : Reuss Voigt Hill
#
# Bulk Modulus (GPa) = 32.77519 34.49670 33.63594
# Shear Modulus (GPa) = 31.84960 34.20368 33.02664
#
# Velocity S-wave (km/s) = 3.77840 3.91554 3.84758
# Velocity P-wave (km/s) = 5.80743 5.99206 5.90047
#
# Compressibility (1/GPa) = 0.03051088
#
# Stress axis : x y z
#
# Youngs Moduli (GPa) = 88.34308 92.31040 62.44283
#
# Poissons Ratio (x) = 0.15414 0.00039
# Poissons Ratio (y) = 0.14751 0.13439
# Poissons Ratio (z) = 0.00055 0.19867
#
# Static dielectric constant tensor:
#      x y z
#    x 1.870230 0.000000 0.000000 
#    y 0.000000 1.968040 0.000000 
#    z 0.000000 0.000000 1.856850 
# 
# From -- ./inp_files/44295.got.cif
#   From: 2010.05.17/outbox.cif.g08.bks.cpg/sg68_23_cif.got.tgz:44295.got - 2010.06.03 18:57:09.
