data_PCOD9509444
_publ_section_title
;
Structure prediction by ZEFSAII (Michael W. Deem and Ramdas Pophale) SiO2 
 PCOD9509444
Probable space group: C C C A
;
_chemical_formula_sum "Si O2"
_cell_formula_units_Z 88
_cell_length_a 25.486236
_cell_length_b 19.823163
_cell_length_c 8.837344
_cell_angle_alpha 90.000000
_cell_angle_beta 90.000000
_cell_angle_gamma 90.000000
_cell_volume 4464.783586
_symmetry_space_group_name_H-M "C C C A"
_symmetry_group_IT_number 68
_space_group.IT_coordinate_system_code '2'
_symmetry_cell_setting 'orthorhombic'
loop_
_space_group_symop_operation_xyz
x,y,z
-x,1/2-y,z
x,1/2-y,1/2-z
-x,y,1/2-z
-x,-y,-z
x,1/2+y,-z
-x,1/2+y,1/2+z
x,-y,1/2+z
1/2+x,1/2+y,z
1/2-x,-y,z
1/2+x,-y,1/2-z
1/2-x,1/2+y,1/2-z
1/2-x,1/2-y,-z
1/2+x,y,-z
1/2-x,y,1/2+z
1/2+x,1/2-y,1/2+z
loop_
_atom_site_type_symbol
_atom_site_label
_atom_site_fract_x
_atom_site_fract_y
_atom_site_fract_z
Si Si1 0.771360 0.847619 0.495228
Si Si2 0.438279 0.683628 0.440953
Si Si3 0.745116 0.250000 0.250000
Si Si4 0.844291 0.588338 0.534549
Si Si5 0.143270 0.444528 0.109160
Si Si6 0.056363 0.663933 0.575678
O O1 0.778043 0.793288 0.629985
O O2 0.785177 0.806057 0.345112
O O3 0.711630 0.874499 0.486471
O O4 0.807824 0.910018 0.526334
O O5 0.390879 0.639758 0.500093
O O6 0.428108 0.761624 0.483078
O O7 0.496543 0.657569 0.482147
O O8 0.440555 0.675377 0.257826
O O9 0.853828 0.522503 0.433464
O O10 0.849750 0.566727 0.711070
O O11 0.092935 0.401097 0.051769
#
# Coordination Sequence:
#
# PCOD9509444 Si02
#       6
#    16  16   8  16  16  16
#     4  11  23  40  60  88 118 150 190 240 288 344
#     4   8  16  33  58  84 109 143 191 244 290 335
#     4  10  24  38  62  90 110 152 192 242 288 336
#     4  11  24  38  57  84 120 157 193 235 284 345
#     4  11  24  38  57  84 120 157 193 235 284 345
#     4   8  16  33  58  84 109 143 191 244 290 335
#
# _framework density 19.709802
#
# number of rings (size 3 to 8) (size 9 to 14) (size 15 to 20)
#    0.000    2.182    1.818    1.636    7.636    2.182 
#    0.000    0.000    0.000    0.000    0.000    3.818 
#    0.000    0.000    0.000    0.000    0.000    0.000 
#
# Total GULP energy -245308.614058 kJ/mol
# GULP energy per Si atom -5575.195774 kJ/mol
# Density = 1.966494 g / cm^3
# Si number density = 19.709802 Si / 1000 Ang^3
#
#
#
# Elastic Constant Matrix: (Units=GPa)
#
#
# Indices 1 2 3 4 5 6 
#
# 1 114.1927 75.4490 11.7015 0.0000 0.0000 0.0000
# 2 75.4490 122.1338 19.3628 0.0000 0.0000 0.0000
# 3 11.7015 19.3628 40.1119 0.0000 0.0000 0.0000
# 4 0.0000 0.0000 0.0000 33.3940 0.0000 0.0000
# 5 0.0000 0.0000 0.0000 0.0000 11.9084 0.0000
# 6 0.0000 0.0000 0.0000 0.0000 0.0000 585.7023
#
#
#
# Elastic Compliance Matrix: (Units=1/GPa)
#
#
# Indices 1 2 3 4 5 6 
#
# 1 0.014797 -0.009157 0.000104 0.000000 0.000000 0.000000
# 2 -0.009157 0.014533 -0.004344 0.000000 0.000000 0.000000
# 3 0.000104 -0.004344 0.026997 0.000000 0.000000 0.000000
# 4 0.000000 0.000000 0.000000 0.029945 0.000000 0.000000
# 5 0.000000 0.000000 0.000000 0.000000 0.083974 0.000000
# 6 0.000000 0.000000 0.000000 0.000000 0.000000 0.001707
#
#
# Mechanical properties :
#
#
# Convention : Reuss Voigt Hill
#
# Bulk Modulus (GPa) = 33.86155 54.38499 44.12327
# Shear Modulus (GPa) = 23.97005 137.52928 80.74966
#
# Velocity S-wave (km/s) = 3.49112 8.36233 6.40767
# Velocity P-wave (km/s) = 5.78514 10.99504 8.78518
#
# Compressibility (1/GPa) = 0.02953202
#
# Stress axis : x y z
#
# Youngs Moduli (GPa) = 67.58169 68.80661 37.04111
#
# Poissons Ratio (x) = 0.63009 -0.00385
# Poissons Ratio (y) = 0.61887 0.16092
# Poissons Ratio (z) = -0.00702 0.29891
#
# Static dielectric constant tensor:
#      x y z
#    x 1.700120 0.000000 0.000000 
#    y 0.000000 1.672910 0.000000 
#    z 0.000000 0.000000 1.730450 
# 
# From -- ./inp_files/7999.got.cif
#   From: 2010.05.17/outbox.cif.g08.bks.cpg/sg68_4_cif.got.tgz:7999.got - 2010.06.03 18:57:09.
