data_PCOD9509984
_publ_section_title
;
Structure prediction by ZEFSAII (Michael W. Deem and Ramdas Pophale) SiO2 
 PCOD9509984
Probable space group: C C C A
;
_chemical_formula_sum "Si O2"
_cell_formula_units_Z 96
_cell_length_a 22.650090
_cell_length_b 15.417889
_cell_length_c 14.400887
_cell_angle_alpha 90.000000
_cell_angle_beta 90.000000
_cell_angle_gamma 90.000000
_cell_volume 5029.028413
_symmetry_space_group_name_H-M "C C C A"
_symmetry_group_IT_number 68
_space_group.IT_coordinate_system_code '2'
_symmetry_cell_setting 'orthorhombic'
loop_
_space_group_symop_operation_xyz
x,y,z
-x,1/2-y,z
x,1/2-y,1/2-z
-x,y,1/2-z
-x,-y,-z
x,1/2+y,-z
-x,1/2+y,1/2+z
x,-y,1/2+z
1/2+x,1/2+y,z
1/2-x,-y,z
1/2+x,-y,1/2-z
1/2-x,1/2+y,1/2-z
1/2-x,1/2-y,-z
1/2+x,y,-z
1/2-x,y,1/2+z
1/2+x,1/2-y,1/2+z
loop_
_atom_site_type_symbol
_atom_site_label
_atom_site_fract_x
_atom_site_fract_y
_atom_site_fract_z
Si Si1 0.429694 0.487324 0.777109
Si Si2 0.988958 0.340575 0.514511
Si Si3 0.103250 0.320530 0.829310
Si Si4 0.819205 0.733962 0.999961
Si Si5 0.390971 0.411227 0.976121
Si Si6 0.119349 0.575710 0.587388
O O1 0.500000 0.489466 0.750000
O O2 0.402564 0.583367 0.788710
O O3 0.415436 0.439619 0.874906
O O4 0.394114 0.443174 0.693634
O O5 0.954477 0.314173 0.606529
O O6 0.943646 0.399704 0.458876
O O7 0.000000 0.250000 0.461354
O O8 0.049832 0.387851 0.533378
O O9 0.104032 0.250000 0.750000
O O10 0.156582 0.301064 0.900686
O O11 0.852333 0.824094 0.975771
O O12 0.838873 0.657845 0.929830
O O13 0.750000 0.750000 0.000000
O O14 0.360286 0.491176 0.029209
#
# Coordination Sequence:
#
# PCOD9509984 Si02
#       6
#    16  16  16  16  16  16
#     4  12  24  35  69 108 138 174 209 269 350 430
#     4  11  20  38  64  96 137 174 206 269 336 415
#     4  11  24  40  65 103 134 171 229 274 337 401
#     4  11  26  49  70  87 129 187 235 287 333 387
#     4  12  22  43  66  97 141 175 221 275 338 418
#     4  11  23  42  65 100 134 173 223 272 348 401
#
# _framework density 19.089175000000001
#
# number of rings (size 3 to 8) (size 9 to 14) (size 15 to 20)
#    0.000    0.667    8.333    2.500    2.333    1.333 
#    3.000    1.667    0.000    0.000    0.000    0.000 
#    0.000    0.000    0.000    0.000    0.000    0.000 
#
# Total GULP energy -268077.708606 kJ/mol
# GULP energy per Si atom -5584.952263 kJ/mol
# Density = 1.904573 g / cm^3
# Si number density = 19.089175 Si / 1000 Ang^3
#
#
#
# Elastic Constant Matrix: (Units=GPa)
#
#
# Indices 1 2 3 4 5 6 
#
# 1 124.2960 65.9622 44.3878 0.0000 0.0000 0.0000
# 2 65.9622 139.8543 37.7747 0.0000 0.0000 0.0000
# 3 44.3878 37.7747 117.4195 0.0000 0.0000 0.0000
# 4 0.0000 0.0000 0.0000 39.6260 0.0000 0.0000
# 5 0.0000 0.0000 0.0000 0.0000 5.5038 0.0000
# 6 0.0000 0.0000 0.0000 0.0000 0.0000 5.6972
#
#
#
# Elastic Compliance Matrix: (Units=1/GPa)
#
#
# Indices 1 2 3 4 5 6 
#
# 1 0.011547 -0.004673 -0.002862 0.000000 0.000000 0.000000
# 2 -0.004673 0.009722 -0.001361 0.000000 0.000000 0.000000
# 3 -0.002862 -0.001361 0.010036 0.000000 0.000000 0.000000
# 4 0.000000 0.000000 0.000000 0.025236 0.000000 0.000000
# 5 0.000000 0.000000 0.000000 0.000000 0.181692 0.000000
# 6 0.000000 0.000000 0.000000 0.000000 0.000000 0.175525
#
#
# Mechanical properties :
#
#
# Convention : Reuss Voigt Hill
#
# Bulk Modulus (GPa) = 74.00093 75.31325 74.65709
# Shear Modulus (GPa) = 11.46644 25.72841 18.59743
#
# Velocity S-wave (km/s) = 2.45353 3.67522 3.12467
# Velocity P-wave (km/s) = 6.84664 7.58609 7.22583
#
# Compressibility (1/GPa) = 0.01351334
#
# Stress axis : x y z
#
# Youngs Moduli (GPa) = 86.59975 102.85853 99.63980
#
# Poissons Ratio (x) = 0.48069 0.28515
# Poissons Ratio (y) = 0.40471 0.13561
# Poissons Ratio (z) = 0.24783 0.13999
#
# Static dielectric constant tensor:
#      x y z
#    x 1.726180 0.000000 0.000000 
#    y 0.000000 1.785240 0.000000 
#    z 0.000000 0.000000 1.726220 
# 
# From -- ./inp_files/22376.got.cif
#   From: 2010.05.17/outbox.cif.g08.bks.cpg/sg68_12_cif.got.tgz:22376.got - 2010.06.03 18:57:09.
