data_PCOD9509041
_publ_section_title
;
Structure prediction by ZEFSAII (Michael W. Deem and Ramdas Pophale) SiO2 
 PCOD9509041
Probable space group: C C C A
;
_chemical_formula_sum "Si O2"
_cell_formula_units_Z 112
_cell_length_a 28.629948
_cell_length_b 17.819175
_cell_length_c 11.194009
_cell_angle_alpha 90.000000
_cell_angle_beta 90.000000
_cell_angle_gamma 90.000000
_cell_volume 5710.758620
_symmetry_space_group_name_H-M "C C C A"
_symmetry_group_IT_number 68
_space_group.IT_coordinate_system_code '2'
_symmetry_cell_setting 'orthorhombic'
loop_
_space_group_symop_operation_xyz
x,y,z
-x,1/2-y,z
x,1/2-y,1/2-z
-x,y,1/2-z
-x,-y,-z
x,1/2+y,-z
-x,1/2+y,1/2+z
x,-y,1/2+z
1/2+x,1/2+y,z
1/2-x,-y,z
1/2+x,-y,1/2-z
1/2-x,1/2+y,1/2-z
1/2-x,1/2-y,-z
1/2+x,y,-z
1/2-x,y,1/2+z
1/2+x,1/2-y,1/2+z
loop_
_atom_site_type_symbol
_atom_site_label
_atom_site_fract_x
_atom_site_fract_y
_atom_site_fract_z
Si Si1 0.114975 0.594066 0.860735
Si Si2 0.380795 0.418869 0.317907
Si Si3 0.805105 0.202159 0.872011
Si Si4 0.457832 0.826887 0.575579
Si Si5 0.305937 0.211224 0.620670
Si Si6 0.546391 0.833038 0.199103
Si Si7 0.434628 0.656470 0.597702
O O1 0.123793 0.506693 0.840548
O O2 0.162711 0.637581 0.884286
O O3 0.091272 0.621806 0.738134
O O4 0.080574 0.623518 0.968199
O O5 0.334259 0.373443 0.351811
O O6 0.422041 0.392452 0.403768
O O7 0.401842 0.387988 0.191333
O O8 0.814111 0.250000 0.750000
O O9 0.749146 0.192998 0.880318
O O10 0.817861 0.241052 0.999947
O O11 0.463808 0.819270 0.436552
O O12 0.432763 0.747860 0.611997
O O13 0.509436 0.849152 0.621222
O O14 0.315609 0.250000 0.750000
O O15 0.552088 0.750000 0.250000
O O16 0.500000 0.871489 0.250000
#
# Coordination Sequence:
#
# PCOD9509041 Si02
#       7
#    16  16  16  16  16  16  16
#     4  12  25  38  60  96 130 164 202 262 328 385
#     4  12  27  37  62  93 134 167 199 260 329 388
#     4  10  22  46  68  94 122 164 214 267 319 378
#     4  11  22  42  66  87 119 173 226 260 301 366
#     4  10  23  42  73  94 118 162 220 267 313 385
#     4  11  20  39  62  90 119 165 218 263 303 358
#     4  11  23  44  63  89 123 171 223 261 302 373
#
# _framework density 19.612106000000001
#
# number of rings (size 3 to 8) (size 9 to 14) (size 15 to 20)
#    0.000    1.000    2.857    4.714    4.000    3.429 
#    0.000    0.000    0.000    6.857    0.000    0.000 
#    0.000    0.000    0.000    0.000    0.000    0.000 
#
# Total GULP energy -312181.850970 kJ/mol
# GULP energy per Si atom -5574.675910 kJ/mol
# Density = 1.956747 g / cm^3
# Si number density = 19.612106 Si / 1000 Ang^3
#
#
#
# Elastic Constant Matrix: (Units=GPa)
#
#
# Indices 1 2 3 4 5 6 
#
# 1 84.2240 81.5467 35.3768 0.0000 0.0000 0.0000
# 2 81.5467 155.6916 47.5786 0.0000 0.0000 0.0000
# 3 35.3768 47.5786 128.9944 0.0000 0.0000 0.0000
# 4 0.0000 0.0000 0.0000 17.6418 0.0000 0.0000
# 5 0.0000 0.0000 0.0000 0.0000 23.1739 0.0000
# 6 0.0000 0.0000 0.0000 0.0000 0.0000 -6.2693
#
#
#
# Elastic Compliance Matrix: (Units=1/GPa)
#
#
# Indices 1 2 3 4 5 6 
#
# 1 0.024657 -0.012226 -0.002253 0.000000 0.000000 0.000000
# 2 -0.012226 0.013301 -0.001553 0.000000 0.000000 0.000000
# 3 -0.002253 -0.001553 0.008943 0.000000 0.000000 0.000000
# 4 0.000000 0.000000 0.000000 0.056684 0.000000 0.000000
# 5 0.000000 0.000000 0.000000 0.000000 0.043152 0.000000
# 6 0.000000 0.000000 0.000000 0.000000 0.000000 -0.159507
#
#
# Mechanical properties :
#
#
# Convention : Reuss Voigt Hill
#
# Bulk Modulus (GPa) = 67.39754 77.54602 72.47178
# Shear Modulus (GPa) = 206.28562 20.53648 113.41105
#
# Velocity S-wave (km/s) = 10.26699 3.23945 7.61266
# Velocity P-wave (km/s) = 13.22831 7.32242 10.69125
#
# Compressibility (1/GPa) = 0.01483734
#
# Stress axis : x y z
#
# Youngs Moduli (GPa) = 40.55686 75.18101 111.82077
#
# Poissons Ratio (x) = 0.91917 0.25189
# Poissons Ratio (y) = 0.49585 0.17366
# Poissons Ratio (z) = 0.09136 0.11676
#
# Static dielectric constant tensor:
#      x y z
#    x 1.715360 0.000000 0.000000 
#    y 0.000000 1.661060 0.000000 
#    z 0.000000 0.000000 1.826120 
# 
# From -- ./inp_files/17802.got.cif
#   From: 2010.05.17/outbox.cif.g08.bks.cpg/sg68_9_cif.got.tgz:17802.got - 2010.06.03 18:57:09.
