data_PCOD9509423
_publ_section_title
;
Structure prediction by ZEFSAII (Michael W. Deem and Ramdas Pophale) SiO2 
 PCOD9509423
Probable space group: C C C A
;
_chemical_formula_sum "Si O2"
_cell_formula_units_Z 56
_cell_length_a 10.514596
_cell_length_b 12.584522
_cell_length_c 15.359677
_cell_angle_alpha 90.000000
_cell_angle_beta 90.000000
_cell_angle_gamma 90.000000
_cell_volume 2032.410350
_symmetry_space_group_name_H-M "C C C A"
_symmetry_group_IT_number 68
_space_group.IT_coordinate_system_code '2'
_symmetry_cell_setting 'orthorhombic'
loop_
_space_group_symop_operation_xyz
x,y,z
-x,1/2-y,z
x,1/2-y,1/2-z
-x,y,1/2-z
-x,-y,-z
x,1/2+y,-z
-x,1/2+y,1/2+z
x,-y,1/2+z
1/2+x,1/2+y,z
1/2-x,-y,z
1/2+x,-y,1/2-z
1/2-x,1/2+y,1/2-z
1/2-x,1/2-y,-z
1/2+x,y,-z
1/2-x,y,1/2+z
1/2+x,1/2-y,1/2+z
loop_
_atom_site_type_symbol
_atom_site_label
_atom_site_fract_x
_atom_site_fract_y
_atom_site_fract_z
Si Si1 0.168304 0.250000 0.750000
Si Si2 0.495506 0.125711 0.956543
Si Si3 0.108649 0.525562 0.186761
Si Si4 0.270383 0.656730 0.929740
O O1 0.102750 0.154127 0.805674
O O2 0.238298 0.308603 0.829611
O O3 0.500000 0.250000 0.926754
O O4 0.412140 0.047283 0.897624
O O5 0.643091 0.090063 0.950732
O O6 0.416755 0.126903 0.047403
O O7 0.250000 0.500000 0.217312
O O8 0.000000 0.484946 0.250000
O O9 0.250000 0.750000 0.000000
#
# Coordination Sequence:
#
# PCOD9509423 Si02
#       4
#     8  16  16  16
#     4  12  27  52  81 120 169 224 283 352 433 514
#     4  10  23  47  77 114 160 215 276 347 417 497
#     4  12  27  48  78 114 159 217 281 351 423 504
#     4  10  23  48  80 115 165 219 278 348 418 504
#
# _framework density 27.553491000000001
#
# number of rings (size 3 to 8) (size 9 to 14) (size 15 to 20)
#    0.000    1.143    0.000    5.571    0.000    9.714 
#    0.000   34.286    0.000    0.000    0.000    0.000 
#    0.000    0.000    0.000    0.000    0.000    0.000 
#
# Total GULP energy -156320.679966 kJ/mol
# GULP energy per Si atom -5582.881427 kJ/mol
# Density = 2.749078 g / cm^3
# Si number density = 27.553491 Si / 1000 Ang^3
#
#
#
# Elastic Constant Matrix: (Units=GPa)
#
#
# Indices 1 2 3 4 5 6 
#
# 1 233.6193 28.5598 71.4990 0.0000 0.0000 0.0000
# 2 28.5598 194.1457 69.0374 0.0000 0.0000 0.0000
# 3 71.4990 69.0374 173.5402 0.0000 0.0000 0.0000
# 4 0.0000 0.0000 0.0000 44.4165 0.0000 0.0000
# 5 0.0000 0.0000 0.0000 0.0000 28.6837 0.0000
# 6 0.0000 0.0000 0.0000 0.0000 0.0000 27.4373
#
#
#
# Elastic Compliance Matrix: (Units=1/GPa)
#
#
# Indices 1 2 3 4 5 6 
#
# 1 0.004898 -0.000003 -0.002017 0.000000 0.000000 0.000000
# 2 -0.000003 0.005999 -0.002385 0.000000 0.000000 0.000000
# 3 -0.002017 -0.002385 0.007542 0.000000 0.000000 0.000000
# 4 0.000000 0.000000 0.000000 0.022514 0.000000 0.000000
# 5 0.000000 0.000000 0.000000 0.000000 0.034863 0.000000
# 6 0.000000 0.000000 0.000000 0.000000 0.000000 0.036447
#
#
# Mechanical properties :
#
#
# Convention : Reuss Voigt Hill
#
# Bulk Modulus (GPa) = 103.85347 104.38863 104.12105
# Shear Modulus (GPa) = 40.23046 48.92144 44.57595
#
# Velocity S-wave (km/s) = 3.82525 4.21825 4.02655
# Velocity P-wave (km/s) = 7.56859 7.85448 7.71286
#
# Compressibility (1/GPa) = 0.00962895
#
# Stress axis : x y z
#
# Youngs Moduli (GPa) = 204.16144 166.68135 132.58847
#
# Poissons Ratio (x) = 0.00057 0.26739
# Poissons Ratio (y) = 0.00070 0.31626
# Poissons Ratio (z) = 0.41173 0.39758
#
# Static dielectric constant tensor:
#      x y z
#    x 2.338790 0.000000 0.000000 
#    y 0.000000 2.173880 0.000000 
#    z 0.000000 0.000000 2.148670 
# 
# From -- ./inp_files/20103.got.cif
#   From: 2010.05.17/outbox.cif.g08.bks.cpg/sg68_11_cif.got.tgz:20103.got - 2010.06.03 18:57:09.
