data_PCOD9509566
_publ_section_title
;
Structure prediction by ZEFSAII (Michael W. Deem and Ramdas Pophale) SiO2 
 PCOD9509566
Probable space group: C C C A
;
_chemical_formula_sum "Si O2"
_cell_formula_units_Z 52
_cell_length_a 13.729973
_cell_length_b 14.729850
_cell_length_c 12.282317
_cell_angle_alpha 90.000000
_cell_angle_beta 90.000000
_cell_angle_gamma 90.000000
_cell_volume 2483.981229
_symmetry_space_group_name_H-M "C C C A"
_symmetry_group_IT_number 68
_space_group.IT_coordinate_system_code '2'
_symmetry_cell_setting 'orthorhombic'
loop_
_space_group_symop_operation_xyz
x,y,z
-x,1/2-y,z
x,1/2-y,1/2-z
-x,y,1/2-z
-x,-y,-z
x,1/2+y,-z
-x,1/2+y,1/2+z
x,-y,1/2+z
1/2+x,1/2+y,z
1/2-x,-y,z
1/2+x,-y,1/2-z
1/2-x,1/2+y,1/2-z
1/2-x,1/2-y,-z
1/2+x,y,-z
1/2-x,y,1/2+z
1/2+x,1/2-y,1/2+z
loop_
_atom_site_type_symbol
_atom_site_label
_atom_site_fract_x
_atom_site_fract_y
_atom_site_fract_z
Si Si1 0.847010 0.621623 0.127140
Si Si2 0.049194 0.650355 0.594613
Si Si3 0.135994 0.414416 0.323046
Si Si4 0.500000 0.250000 0.250000
O O1 0.851442 0.522748 0.184069
O O2 0.731723 0.640061 0.139207
O O3 0.925895 0.687293 0.182009
O O4 0.877328 0.625740 0.001149
O O5 0.100387 0.628827 0.709707
O O6 0.000000 0.750000 0.590863
O O7 0.951359 0.591160 0.590350
#
# Coordination Sequence:
#
# PCOD9509566 Si02
#       4
#    16  16  16   4
#     4  11  25  42  66 102 133 183 223 285 339 401
#     4  11  23  44  68  97 134 180 221 280 345 403
#     4  10  24  43  69  93 138 181 232 269 340 420
#     4  12  24  40  64 104 142 164 236 296 328 388
#
# _framework density 20.934137
#
# number of rings (size 3 to 8) (size 9 to 14) (size 15 to 20)
#    0.000    1.231    1.538    4.615    4.308    8.615 
#    0.000    0.000    0.000    0.000    0.000    0.000 
#    0.000    0.000    0.000    0.000    0.000    0.000 
#
# Total GULP energy -144965.432013 kJ/mol
# GULP energy per Si atom -5575.593539 kJ/mol
# Density = 2.088649 g / cm^3
# Si number density = 20.934137 Si / 1000 Ang^3
#
#
#
# Elastic Constant Matrix: (Units=GPa)
#
#
# Indices 1 2 3 4 5 6 
#
# 1 205.3791 30.6273 85.2049 0.0000 0.0000 0.0000
# 2 30.6273 73.9737 31.9448 0.0000 0.0000 0.0000
# 3 85.2049 31.9448 113.9347 0.0000 0.0000 0.0000
# 4 0.0000 0.0000 0.0000 21.2586 0.0000 0.0000
# 5 0.0000 0.0000 0.0000 0.0000 38.3005 0.0000
# 6 0.0000 0.0000 0.0000 0.0000 0.0000 35.2497
#
#
#
# Elastic Compliance Matrix: (Units=1/GPa)
#
#
# Indices 1 2 3 4 5 6 
#
# 1 0.007094 -0.000735 -0.005099 0.000000 0.000000 0.000000
# 2 -0.000735 0.015457 -0.003784 0.000000 0.000000 0.000000
# 3 -0.005099 -0.003784 0.013651 0.000000 0.000000 0.000000
# 4 0.000000 0.000000 0.000000 0.047040 0.000000 0.000000
# 5 0.000000 0.000000 0.000000 0.000000 0.026109 0.000000
# 6 0.000000 0.000000 0.000000 0.000000 0.000000 0.028369
#
#
# Mechanical properties :
#
#
# Convention : Reuss Voigt Hill
#
# Bulk Modulus (GPa) = 58.94280 76.53796 67.74038
# Shear Modulus (GPa) = 30.74801 35.32911 33.03856
#
# Velocity S-wave (km/s) = 3.83665 4.11254 3.97698
# Velocity P-wave (km/s) = 6.91693 7.69359 7.31557
#
# Compressibility (1/GPa) = 0.01696560
#
# Stress axis : x y z
#
# Youngs Moduli (GPa) = 140.96119 64.69662 73.25332
#
# Poissons Ratio (x) = 0.04756 0.37353
# Poissons Ratio (y) = 0.10363 0.27719
# Poissons Ratio (z) = 0.71878 0.24481
#
# Static dielectric constant tensor:
#      x y z
#    x 1.853130 0.000000 0.000000 
#    y 0.000000 1.889460 0.000000 
#    z 0.000000 0.000000 1.749270 
# 
# From -- ./inp_files/12503.got.cif
#   From: 2010.05.17/outbox.cif.g08.bks.cpg/sg68_7_cif.got.tgz:12503.got - 2010.06.03 18:57:09.
