data_PCOD9509810
_publ_section_title
;
Structure prediction by ZEFSAII (Michael W. Deem and Ramdas Pophale) SiO2 
 PCOD9509810
Probable space group: C C C A
;
_chemical_formula_sum "Si O2"
_cell_formula_units_Z 64
_cell_length_a 7.251175
_cell_length_b 20.885044
_cell_length_c 21.097791
_cell_angle_alpha 90.000000
_cell_angle_beta 90.000000
_cell_angle_gamma 90.000000
_cell_volume 3195.072865
_symmetry_space_group_name_H-M "C C C A"
_symmetry_group_IT_number 68
_space_group.IT_coordinate_system_code '2'
_symmetry_cell_setting 'orthorhombic'
loop_
_space_group_symop_operation_xyz
x,y,z
-x,1/2-y,z
x,1/2-y,1/2-z
-x,y,1/2-z
-x,-y,-z
x,1/2+y,-z
-x,1/2+y,1/2+z
x,-y,1/2+z
1/2+x,1/2+y,z
1/2-x,-y,z
1/2+x,-y,1/2-z
1/2-x,1/2+y,1/2-z
1/2-x,1/2-y,-z
1/2+x,y,-z
1/2-x,y,1/2+z
1/2+x,1/2-y,1/2+z
loop_
_atom_site_type_symbol
_atom_site_label
_atom_site_fract_x
_atom_site_fract_y
_atom_site_fract_z
Si Si1 0.155883 0.874806 0.085923
Si Si2 0.279228 0.318097 0.036955
Si Si3 0.994475 0.678583 0.846686
Si Si4 0.500000 0.579765 0.250000
Si Si5 0.750000 0.500000 0.654581
O O1 0.969276 0.834348 0.073464
O O2 0.296867 0.841416 0.135130
O O3 0.143979 0.947285 0.111726
O O4 0.253738 0.871309 0.017336
O O5 0.118943 0.321208 0.088356
O O6 0.250000 0.250000 0.000000
O O7 0.000000 0.750000 0.821607
O O8 0.901397 0.629396 0.797844
O O9 0.385629 0.536564 0.297758
#
# Coordination Sequence:
#
# PCOD9509810 Si02
#       5
#    16  16  16   8   8
#     4  11  23  40  62  97 131 166 212 263 334 395
#     4  12  22  38  67  99 133 162 203 275 346 396
#     4  11  22  40  66  95 128 167 211 274 330 393
#     4  10  25  46  62  88 123 180 224 266 318 376
#     4  10  26  46  62  88 128 176 232 268 308 406
#
# _framework density 20.030843000000001
#
# number of rings (size 3 to 8) (size 9 to 14) (size 15 to 20)
#    0.000    1.000    5.000    1.125    3.500    1.000 
#    0.000    0.000    0.000    3.000    0.000    0.000 
#    0.000    0.000    0.000    0.000    0.000    0.000 
#
# Total GULP energy -178379.168317 kJ/mol
# GULP energy per Si atom -5574.349010 kJ/mol
# Density = 1.998525 g / cm^3
# Si number density = 20.030843 Si / 1000 Ang^3
#
#
#
# Elastic Constant Matrix: (Units=GPa)
#
#
# Indices 1 2 3 4 5 6 
#
# 1 99.6010 49.1777 23.1237 0.0000 0.0000 0.0000
# 2 49.1777 156.9565 76.8267 0.0000 0.0000 0.0000
# 3 23.1237 76.8267 126.0090 0.0000 0.0000 0.0000
# 4 0.0000 0.0000 0.0000 55.7267 0.0000 0.0000
# 5 0.0000 0.0000 0.0000 0.0000 31.7266 0.0000
# 6 0.0000 0.0000 0.0000 0.0000 0.0000 21.9050
#
#
#
# Elastic Compliance Matrix: (Units=1/GPa)
#
#
# Indices 1 2 3 4 5 6 
#
# 1 0.011879 -0.003784 0.000127 0.000000 0.000000 0.000000
# 2 -0.003784 0.010287 -0.005577 0.000000 0.000000 0.000000
# 3 0.000127 -0.005577 0.011313 0.000000 0.000000 0.000000
# 4 0.000000 0.000000 0.000000 0.017945 0.000000 0.000000
# 5 0.000000 0.000000 0.000000 0.000000 0.031519 0.000000
# 6 0.000000 0.000000 0.000000 0.000000 0.000000 0.045652
#
#
# Mechanical properties :
#
#
# Convention : Reuss Voigt Hill
#
# Bulk Modulus (GPa) = 66.62090 75.64695 71.13392
# Shear Modulus (GPa) = 32.88034 37.43423 35.15729
#
# Velocity S-wave (km/s) = 4.05592 4.32769 4.19401
# Velocity P-wave (km/s) = 7.43407 7.92585 7.68389
#
# Compressibility (1/GPa) = 0.01501031
#
# Stress axis : x y z
#
# Youngs Moduli (GPa) = 84.18250 97.21120 88.39340
#
# Poissons Ratio (x) = 0.36787 -0.01126
# Poissons Ratio (y) = 0.31857 0.49300
# Poissons Ratio (z) = -0.01072 0.54218
#
# Static dielectric constant tensor:
#      x y z
#    x 1.747540 0.000000 0.000000 
#    y 0.000000 1.766180 0.000000 
#    z 0.000000 0.000000 1.708310 
# 
# From -- ./inp_files/37291.got.cif
#   From: 2010.05.17/outbox.cif.g08.bks.cpg/sg68_19_cif.got.tgz:37291.got - 2010.06.03 18:57:09.
