data_PCOD9509075
_publ_section_title
;
Structure prediction by ZEFSAII (Michael W. Deem and Ramdas Pophale) SiO2 
 PCOD9509075
Probable space group: C C C A
;
_chemical_formula_sum "Si O2"
_cell_formula_units_Z 88
_cell_length_a 11.169998
_cell_length_b 28.015152
_cell_length_c 12.901026
_cell_angle_alpha 90.000000
_cell_angle_beta 90.000000
_cell_angle_gamma 90.000000
_cell_volume 4037.107640
_symmetry_space_group_name_H-M "C C C A"
_symmetry_group_IT_number 68
_space_group.IT_coordinate_system_code '2'
_symmetry_cell_setting 'orthorhombic'
loop_
_space_group_symop_operation_xyz
x,y,z
-x,1/2-y,z
x,1/2-y,1/2-z
-x,y,1/2-z
-x,-y,-z
x,1/2+y,-z
-x,1/2+y,1/2+z
x,-y,1/2+z
1/2+x,1/2+y,z
1/2-x,-y,z
1/2+x,-y,1/2-z
1/2-x,1/2+y,1/2-z
1/2-x,1/2-y,-z
1/2+x,y,-z
1/2-x,y,1/2+z
1/2+x,1/2-y,1/2+z
loop_
_atom_site_type_symbol
_atom_site_label
_atom_site_fract_x
_atom_site_fract_y
_atom_site_fract_z
Si Si1 0.038736 0.551007 0.539268
Si Si2 0.623399 0.223728 0.472109
Si Si3 0.913644 0.587010 0.344808
Si Si4 0.689894 0.750000 0.750000
Si Si5 0.250000 0.000000 0.376317
Si Si6 0.697936 0.340513 0.854814
Si Si7 0.500000 0.903934 0.250000
O O1 0.178311 0.540666 0.559979
O O2 0.000000 0.500000 0.500000
O O3 0.994405 0.584117 0.447667
O O4 0.978104 0.564680 0.647962
O O5 0.500000 0.250000 0.506690
O O6 0.750000 0.250000 0.500000
O O7 0.620768 0.225503 0.346752
O O8 0.638217 0.174383 0.535453
O O9 0.847040 0.535233 0.322162
O O10 0.817308 0.628362 0.363555
O O11 0.000000 0.597903 0.250000
O O12 0.770388 0.708339 0.797622
O O13 0.608808 0.371004 0.784676
#
# Coordination Sequence:
#
# PCOD9509075 Si02
#       7
#    16  16  16   8   8  16   8
#     4  10  25  44  73 101 153 192 255 316 389 466
#     4  10  24  46  74 107 147 197 255 309 383 457
#     4  11  26  45  74 112 148 201 253 321 389 471
#     4  10  25  47  74 108 149 206 243 320 383 450
#     4  10  22  48  66 112 142 204 250 310 404 460
#     4  11  27  43  75 113 154 193 261 313 389 462
#     4  12  26  45  74 112 148 202 258 317 392 466
#
# _framework density 21.797782999999999
#
# number of rings (size 3 to 8) (size 9 to 14) (size 15 to 20)
#    0.000    1.455    1.818    0.273   12.727    9.455 
#    0.000    0.000    0.000    0.000    0.000    0.000 
#    0.000    0.000    0.000    0.000    0.000    0.000 
#
# Total GULP energy -245313.409292 kJ/mol
# GULP energy per Si atom -5575.304757 kJ/mol
# Density = 2.174817 g / cm^3
# Si number density = 21.797783 Si / 1000 Ang^3
#
#
#
# Elastic Constant Matrix: (Units=GPa)
#
#
# Indices 1 2 3 4 5 6 
#
# 1 123.2787 51.4768 61.9668 0.0000 0.0000 0.0000
# 2 51.4768 125.2865 72.3272 0.0000 0.0000 0.0000
# 3 61.9668 72.3272 189.2683 0.0000 0.0000 0.0000
# 4 0.0000 0.0000 0.0000 96.5880 0.0000 0.0000
# 5 0.0000 0.0000 0.0000 0.0000 18.1117 0.0000
# 6 0.0000 0.0000 0.0000 0.0000 0.0000 64.8699
#
#
#
# Elastic Compliance Matrix: (Units=1/GPa)
#
#
# Indices 1 2 3 4 5 6 
#
# 1 0.010518 -0.002994 -0.002299 0.000000 0.000000 0.000000
# 2 -0.002994 0.011093 -0.003259 0.000000 0.000000 0.000000
# 3 -0.002299 -0.003259 0.007282 0.000000 0.000000 0.000000
# 4 0.000000 0.000000 0.000000 0.010353 0.000000 0.000000
# 5 0.000000 0.000000 0.000000 0.000000 0.055213 0.000000
# 6 0.000000 0.000000 0.000000 0.000000 0.000000 0.015415
#
#
# Mechanical properties :
#
#
# Convention : Reuss Voigt Hill
#
# Bulk Modulus (GPa) = 84.83222 89.93056 87.38139
# Shear Modulus (GPa) = 38.19473 52.71810 45.45641
#
# Velocity S-wave (km/s) = 4.19051 4.92317 4.57154
# Velocity P-wave (km/s) = 7.90039 8.58272 8.24861
#
# Compressibility (1/GPa) = 0.01178797
#
# Stress axis : x y z
#
# Youngs Moduli (GPa) = 95.07788 90.14505 137.33063
#
# Poissons Ratio (x) = 0.26990 0.31577
# Poissons Ratio (y) = 0.28466 0.44755
# Poissons Ratio (z) = 0.21862 0.29378
#
# Static dielectric constant tensor:
#      x y z
#    x 1.814820 0.000000 0.000000 
#    y 0.000000 1.829390 0.000000 
#    z 0.000000 0.000000 1.843450 
# 
# From -- ./inp_files/12112.got.cif
#   From: 2010.05.17/outbox.cif.g08.bks.cpg/sg68_7_cif.got.tgz:12112.got - 2010.06.03 18:57:09.
