data_PCOD9509947
_publ_section_title
;
Structure prediction by ZEFSAII (Michael W. Deem and Ramdas Pophale) SiO2 
 PCOD9509947
Probable space group: C C C A
;
_chemical_formula_sum "Si O2"
_cell_formula_units_Z 80
_cell_length_a 11.936758
_cell_length_b 14.301852
_cell_length_c 23.619965
_cell_angle_alpha 90.000000
_cell_angle_beta 90.000000
_cell_angle_gamma 90.000000
_cell_volume 4032.347192
_symmetry_space_group_name_H-M "C C C A"
_symmetry_group_IT_number 68
_space_group.IT_coordinate_system_code '2'
_symmetry_cell_setting 'orthorhombic'
loop_
_space_group_symop_operation_xyz
x,y,z
-x,1/2-y,z
x,1/2-y,1/2-z
-x,y,1/2-z
-x,-y,-z
x,1/2+y,-z
-x,1/2+y,1/2+z
x,-y,1/2+z
1/2+x,1/2+y,z
1/2-x,-y,z
1/2+x,-y,1/2-z
1/2-x,1/2+y,1/2-z
1/2-x,1/2-y,-z
1/2+x,y,-z
1/2-x,y,1/2+z
1/2+x,1/2-y,1/2+z
loop_
_atom_site_type_symbol
_atom_site_label
_atom_site_fract_x
_atom_site_fract_y
_atom_site_fract_z
Si Si1 0.000000 0.750000 0.072018
Si Si2 0.620652 0.615722 0.655077
Si Si3 0.858781 0.153856 0.285840
Si Si4 0.000000 0.250000 0.377438
Si Si5 0.500000 0.011715 0.250000
Si Si6 0.250000 0.500000 0.428254
Si Si7 0.848787 0.312820 0.022574
O O1 0.914890 0.699317 0.114103
O O2 0.939310 0.819729 0.028004
O O3 0.735592 0.639785 0.688004
O O4 0.524392 0.580119 0.697302
O O5 0.650895 0.532307 0.612870
O O6 0.857653 0.250000 0.250000
O O7 0.955271 0.170399 0.333807
O O8 0.895429 0.061077 0.251602
O O9 0.898977 0.242415 0.423011
O O10 0.202320 0.412595 0.462029
O O11 0.750000 0.250000 0.000000
#
# Coordination Sequence:
#
# PCOD9509947 Si02
#       7
#     8  16  16   8   8   8  16
#     4  11  26  47  67  95 135 180 229 276 352 402
#     4  12  26  45  67  99 138 175 223 286 339 404
#     4  12  23  42  66  99 130 176 223 270 335 419
#     4  11  19  40  71  87 132 179 215 270 340 396
#     4  12  23  43  66  98 128 176 222 269 339 410
#     4  12  22  44  72  92 142 172 214 290 334 394
#     4  11  23  44  67 101 132 175 228 281 340 411
#
# _framework density 19.839561
#
# number of rings (size 3 to 8) (size 9 to 14) (size 15 to 20)
#    0.000    0.400    8.000    0.000    2.800    0.800 
#    3.600    0.000    0.000    0.000    0.000    0.000 
#    0.000    0.000    0.000    0.000    0.000    0.000 
#
# Total GULP energy -222843.962338 kJ/mol
# GULP energy per Si atom -5571.099058 kJ/mol
# Density = 1.979441 g / cm^3
# Si number density = 19.839561 Si / 1000 Ang^3
#
#
#
# Elastic Constant Matrix: (Units=GPa)
#
#
# Indices 1 2 3 4 5 6 
#
# 1 83.4781 30.8891 58.5650 0.0000 0.0000 0.0000
# 2 30.8891 78.5014 59.3650 0.0000 0.0000 0.0000
# 3 58.5650 59.3650 124.6014 0.0000 0.0000 0.0000
# 4 0.0000 0.0000 0.0000 36.4499 0.0000 0.0000
# 5 0.0000 0.0000 0.0000 0.0000 -0.2846 0.0000
# 6 0.0000 0.0000 0.0000 0.0000 0.0000 37.6917
#
#
#
# Elastic Compliance Matrix: (Units=1/GPa)
#
#
# Indices 1 2 3 4 5 6 
#
# 1 0.017930 -0.001066 -0.007919 0.000000 0.000000 0.000000
# 2 -0.001066 0.019977 -0.009017 0.000000 0.000000 0.000000
# 3 -0.007919 -0.009017 0.016044 0.000000 0.000000 0.000000
# 4 0.000000 0.000000 0.000000 0.027435 0.000000 0.000000
# 5 0.000000 0.000000 0.000000 0.000000 -3.513445 0.000000
# 6 0.000000 0.000000 0.000000 0.000000 0.000000 0.026531
#
#
# Mechanical properties :
#
#
# Convention : Reuss Voigt Hill
#
# Bulk Modulus (GPa) = 55.72313 64.91322 60.31817
# Shear Modulus (GPa) = -1.48653 23.95551 11.23449
#
# Velocity S-wave (km/s) = -0.86655 3.47862 2.38222
# Velocity P-wave (km/s) = 5.21024 6.99461 6.16730
#
# Compressibility (1/GPa) = 0.01794587
#
# Stress axis : x y z
#
# Youngs Moduli (GPa) = 55.77386 50.05813 62.33002
#
# Poissons Ratio (x) = 0.05337 0.49361
# Poissons Ratio (y) = 0.05947 0.56200
# Poissons Ratio (z) = 0.44169 0.45135
#
# Static dielectric constant tensor:
#      x y z
#    x 1.725250 0.000000 0.000000 
#    y 0.000000 1.781210 0.000000 
#    z 0.000000 0.000000 1.745240 
# 
# From -- ./inp_files/44206.got.cif
#   From: 2010.05.17/outbox.cif.g08.bks.cpg/sg68_23_cif.got.tgz:44206.got - 2010.06.03 18:57:09.
