data_PCOD9509789
_publ_section_title
;
Structure prediction by ZEFSAII (Michael W. Deem and Ramdas Pophale) SiO2 
 PCOD9509789
Probable space group: C C C A
;
_chemical_formula_sum "Si O2"
_cell_formula_units_Z 56
_cell_length_a 22.454984
_cell_length_b 20.169278
_cell_length_c 5.057001
_cell_angle_alpha 90.000000
_cell_angle_beta 90.000000
_cell_angle_gamma 90.000000
_cell_volume 2290.319873
_symmetry_space_group_name_H-M "C C C A"
_symmetry_group_IT_number 68
_space_group.IT_coordinate_system_code '2'
_symmetry_cell_setting 'orthorhombic'
loop_
_space_group_symop_operation_xyz
x,y,z
-x,1/2-y,z
x,1/2-y,1/2-z
-x,y,1/2-z
-x,-y,-z
x,1/2+y,-z
-x,1/2+y,1/2+z
x,-y,1/2+z
1/2+x,1/2+y,z
1/2-x,-y,z
1/2+x,-y,1/2-z
1/2-x,1/2+y,1/2-z
1/2-x,1/2-y,-z
1/2+x,y,-z
1/2-x,y,1/2+z
1/2+x,1/2-y,1/2+z
loop_
_atom_site_type_symbol
_atom_site_label
_atom_site_fract_x
_atom_site_fract_y
_atom_site_fract_z
Si Si1 0.042183 0.826543 0.997005
Si Si2 0.212007 0.112825 0.151650
Si Si3 0.095647 0.538193 0.712273
Si Si4 0.143197 0.750000 0.750000
O O1 0.067175 0.899060 0.930541
O O2 0.098451 0.777228 0.976411
O O3 0.000000 0.814102 0.750000
O O4 0.000000 0.823849 0.250000
O O5 0.267711 0.106492 0.349445
O O6 0.164763 0.058483 0.251597
O O7 0.182562 0.186099 0.177074
O O8 0.079432 0.478463 0.514265
#
# Coordination Sequence:
#
# PCOD9509789 Si02
#       4
#    16  16  16   8
#     4  11  25  43  66  95 129 172 219 273 334 396
#     4  11  24  42  67  96 130 173 217 270 333 398
#     4  11  24  42  65  96 132 170 219 272 325 397
#     4  10  25  44  66  96 132 168 221 276 332 402
#
# _framework density 24.450733
#
# number of rings (size 3 to 8) (size 9 to 14) (size 15 to 20)
#    0.000    1.143    0.000    4.714    0.000   18.286 
#    0.000    0.000    0.000    0.000    0.000    0.000 
#    0.000    0.000    0.000    0.000    0.000    0.000 
#
# Total GULP energy -156643.259844 kJ/mol
# GULP energy per Si atom -5594.402137 kJ/mol
# Density = 2.439508 g / cm^3
# Si number density = 24.450733 Si / 1000 Ang^3
#
#
#
# Elastic Constant Matrix: (Units=GPa)
#
#
# Indices 1 2 3 4 5 6 
#
# 1 59.3352 14.6294 18.3752 0.0000 0.0000 0.0000
# 2 14.6294 74.9452 34.2018 0.0000 0.0000 0.0000
# 3 18.3752 34.2018 138.2805 0.0000 0.0000 0.0000
# 4 0.0000 0.0000 0.0000 33.8836 0.0000 0.0000
# 5 0.0000 0.0000 0.0000 0.0000 48.6354 0.0000
# 6 0.0000 0.0000 0.0000 0.0000 0.0000 16.9692
#
#
#
# Elastic Compliance Matrix: (Units=1/GPa)
#
#
# Indices 1 2 3 4 5 6 
#
# 1 0.018062 -0.002740 -0.001723 0.000000 0.000000 0.000000
# 2 -0.002740 0.015456 -0.003459 0.000000 0.000000 0.000000
# 3 -0.001723 -0.003459 0.008316 0.000000 0.000000 0.000000
# 4 0.000000 0.000000 0.000000 0.029513 0.000000 0.000000
# 5 0.000000 0.000000 0.000000 0.000000 0.020561 0.000000
# 6 0.000000 0.000000 0.000000 0.000000 0.000000 0.058930
#
#
# Mechanical properties :
#
#
# Convention : Reuss Voigt Hill
#
# Bulk Modulus (GPa) = 38.47259 45.21933 41.84596
# Shear Modulus (GPa) = 28.51515 33.58794 31.05154
#
# Velocity S-wave (km/s) = 3.41871 3.71036 3.56752
# Velocity P-wave (km/s) = 5.59932 6.07371 5.84133
#
# Compressibility (1/GPa) = 0.02599253
#
# Stress axis : x y z
#
# Youngs Moduli (GPa) = 55.36386 64.69835 120.24897
#
# Poissons Ratio (x) = 0.17725 0.20714
# Poissons Ratio (y) = 0.15168 0.41592
# Poissons Ratio (z) = 0.09537 0.22378
#
# Static dielectric constant tensor:
#      x y z
#    x 1.926390 0.000000 0.000000 
#    y 0.000000 2.351600 0.000000 
#    z 0.000000 0.000000 1.822570 
# 
# From -- ./inp_files/1770.got.cif
#   From: 2010.05.17/outbox.cif.g08.bks.cpg/sg68_1_cif.got.tgz:1770.got - 2010.06.03 18:57:09.
