data_PCOD9509494
_publ_section_title
;
Structure prediction by ZEFSAII (Michael W. Deem and Ramdas Pophale) SiO2 
 PCOD9509494
Probable space group: C C C A
;
_chemical_formula_sum "Si O2"
_cell_formula_units_Z 64
_cell_length_a 14.251058
_cell_length_b 5.592273
_cell_length_c 35.752161
_cell_angle_alpha 90.000000
_cell_angle_beta 90.000000
_cell_angle_gamma 90.000000
_cell_volume 2849.297318
_symmetry_space_group_name_H-M "C C C A"
_symmetry_group_IT_number 68
_space_group.IT_coordinate_system_code '2'
_symmetry_cell_setting 'orthorhombic'
loop_
_space_group_symop_operation_xyz
x,y,z
-x,1/2-y,z
x,1/2-y,1/2-z
-x,y,1/2-z
-x,-y,-z
x,1/2+y,-z
-x,1/2+y,1/2+z
x,-y,1/2+z
1/2+x,1/2+y,z
1/2-x,-y,z
1/2+x,-y,1/2-z
1/2-x,1/2+y,1/2-z
1/2-x,1/2-y,-z
1/2+x,y,-z
1/2-x,y,1/2+z
1/2+x,1/2-y,1/2+z
loop_
_atom_site_type_symbol
_atom_site_label
_atom_site_fract_x
_atom_site_fract_y
_atom_site_fract_z
Si Si1 0.353768 0.611080 0.828693
Si Si2 0.000000 0.250000 0.138394
Si Si3 0.101285 0.878008 0.402067
Si Si4 0.190554 0.250000 0.750000
Si Si5 0.644507 0.282990 0.485669
O O1 0.250000 0.500000 0.826232
O O2 0.441682 0.435356 0.836424
O O3 0.349379 0.772635 0.865643
O O4 0.366507 0.737894 0.788767
O O5 0.077768 0.354803 0.110195
O O6 0.147615 0.837929 0.441679
O O7 0.000000 0.750000 0.404923
O O8 0.250000 0.500000 0.747491
O O9 0.602305 0.519498 0.505773
O O10 0.750000 0.250000 0.500000
#
# Coordination Sequence:
#
# PCOD9509494 Si02
#       5
#    16   8  16   8  16
#     4  10  24  43  78 101 146 191 241 300 364 434
#     4  10  24  46  69 110 138 192 244 296 368 441
#     4  10  24  43  67 100 141 184 240 298 367 430
#     4  10  24  46  73 113 144 190 244 292 366 433
#     4  10  24  41  64  96 131 174 236 290 352 426
#
# _framework density 22.461677999999999
#
# number of rings (size 3 to 8) (size 9 to 14) (size 15 to 20)
#    0.000    2.000    0.000    0.000   17.500    3.000 
#    0.000    6.875    0.000    0.000    0.000    0.000 
#    0.000    0.000    0.000    0.000    0.000    0.000 
#
# Total GULP energy -178499.786555 kJ/mol
# GULP energy per Si atom -5578.118330 kJ/mol
# Density = 2.241055 g / cm^3
# Si number density = 22.461678 Si / 1000 Ang^3
#
#
#
# Elastic Constant Matrix: (Units=GPa)
#
#
# Indices 1 2 3 4 5 6 
#
# 1 80.3141 15.2578 50.5355 0.0000 0.0000 0.0000
# 2 15.2578 140.8870 71.4471 0.0000 0.0000 0.0000
# 3 50.5355 71.4471 269.6916 0.0000 0.0000 0.0000
# 4 0.0000 0.0000 0.0000 59.0770 0.0000 0.0000
# 5 0.0000 0.0000 0.0000 0.0000 65.6668 0.0000
# 6 0.0000 0.0000 0.0000 0.0000 0.0000 9.8058
#
#
#
# Elastic Compliance Matrix: (Units=1/GPa)
#
#
# Indices 1 2 3 4 5 6 
#
# 1 0.014121 -0.000217 -0.002589 0.000000 0.000000 0.000000
# 2 -0.000217 0.008203 -0.002133 0.000000 0.000000 0.000000
# 3 -0.002589 -0.002133 0.004758 0.000000 0.000000 0.000000
# 4 0.000000 0.000000 0.000000 0.016927 0.000000 0.000000
# 5 0.000000 0.000000 0.000000 0.000000 0.015228 0.000000
# 6 0.000000 0.000000 0.000000 0.000000 0.000000 0.101980
#
#
# Mechanical properties :
#
#
# Convention : Reuss Voigt Hill
#
# Bulk Modulus (GPa) = 58.11784 85.04149 71.57967
# Shear Modulus (GPa) = 28.27602 50.48677 39.38139
#
# Velocity S-wave (km/s) = 3.55189 4.74612 4.19175
# Velocity P-wave (km/s) = 6.53847 8.24482 7.44072
#
# Compressibility (1/GPa) = 0.01720642
#
# Stress axis : x y z
#
# Youngs Moduli (GPa) = 70.81595 121.90982 210.17385
#
# Poissons Ratio (x) = 0.02639 0.54408
# Poissons Ratio (y) = 0.01533 0.44820
# Poissons Ratio (z) = 0.18332 0.25998
#
# Static dielectric constant tensor:
#      x y z
#    x 1.605790 0.000000 0.000000 
#    y 0.000000 1.955510 0.000000 
#    z 0.000000 0.000000 1.798810 
# 
# From -- ./inp_files/55488.got.cif
#   From: 2010.05.17/outbox.cif.g08.bks.cpg/sg68_28_cif.got.tgz:55488.got - 2010.06.03 18:57:09.
