data_PCOD9509083
_publ_section_title
;
Structure prediction by ZEFSAII (Michael W. Deem and Ramdas Pophale) SiO2 
 PCOD9509083
Probable space group: C C C A
;
_chemical_formula_sum "Si O2"
_cell_formula_units_Z 96
_cell_length_a 21.219883
_cell_length_b 20.957117
_cell_length_c 9.064319
_cell_angle_alpha 90.000000
_cell_angle_beta 90.000000
_cell_angle_gamma 90.000000
_cell_volume 4030.971283
_symmetry_space_group_name_H-M "C C C A"
_symmetry_group_IT_number 68
_space_group.IT_coordinate_system_code '2'
_symmetry_cell_setting 'orthorhombic'
loop_
_space_group_symop_operation_xyz
x,y,z
-x,1/2-y,z
x,1/2-y,1/2-z
-x,y,1/2-z
-x,-y,-z
x,1/2+y,-z
-x,1/2+y,1/2+z
x,-y,1/2+z
1/2+x,1/2+y,z
1/2-x,-y,z
1/2+x,-y,1/2-z
1/2-x,1/2+y,1/2-z
1/2-x,1/2-y,-z
1/2+x,y,-z
1/2-x,y,1/2+z
1/2+x,1/2-y,1/2+z
loop_
_atom_site_type_symbol
_atom_site_label
_atom_site_fract_x
_atom_site_fract_y
_atom_site_fract_z
Si Si1 0.336847 0.825089 0.498248
Si Si2 0.692063 0.449975 0.496669
Si Si3 0.069970 0.726618 0.081162
Si Si4 0.915634 0.952945 0.428695
Si Si5 0.456550 0.907973 0.871957
Si Si6 0.752810 0.634524 0.246644
O O1 0.381894 0.765892 0.483812
O O2 0.375821 0.891305 0.520457
O O3 0.290673 0.831036 0.362632
O O4 0.295304 0.821176 0.645648
O O5 0.750000 0.500000 0.495508
O O6 0.580136 0.349143 0.440173
O O7 0.708999 0.406064 0.635900
O O8 0.702603 0.412061 0.344266
O O9 0.081232 0.750000 0.250000
O O10 0.000000 0.750000 0.041343
O O11 0.000000 0.868850 0.250000
O O12 0.924130 0.953698 0.249777
O O13 0.988727 0.938311 0.472975
O O14 0.875177 0.014437 0.479140
#
# Coordination Sequence:
#
# PCOD9509083 Si02
#       6
#    16  16  16  16  16  16
#     4  11  20  33  55  80 117 146 191 231 282 344
#     4  11  19  32  54  79 111 159 186 220 271 342
#     4  11  14  30  58  80 101 137 188 250 288 309
#     4   9  16  27  54  79 109 141 190 235 277 332
#     4   8  16  29  49  84  99 136 186 249 284 316
#     4  10  23  34  49  84 120 157 186 216 275 342
#
# _framework density 23.815601000000001
#
# number of rings (size 3 to 8) (size 9 to 14) (size 15 to 20)
#    1.000    0.833    8.333    0.500    0.000    0.000 
#    0.000    0.833    0.000   24.000    0.000    4.667 
#    0.000    0.000    0.000    0.000    0.000    0.000 
#
# Total GULP energy -268059.881790 kJ/mol
# GULP energy per Si atom -5584.580871 kJ/mol
# Density = 2.376140 g / cm^3
# Si number density = 23.815601 Si / 1000 Ang^3
#
#
#
# Elastic Constant Matrix: (Units=GPa)
#
#
# Indices 1 2 3 4 5 6 
#
# 1 97.2889 17.2661 38.9449 0.0000 0.0000 0.0000
# 2 17.2661 74.9802 23.6355 0.0000 0.0000 0.0000
# 3 38.9449 23.6355 84.8668 0.0000 0.0000 0.0000
# 4 0.0000 0.0000 0.0000 -1.2693 0.0000 0.0000
# 5 0.0000 0.0000 0.0000 0.0000 -25.7039 0.0000
# 6 0.0000 0.0000 0.0000 0.0000 0.0000 46.6206
#
#
#
# Elastic Compliance Matrix: (Units=1/GPa)
#
#
# Indices 1 2 3 4 5 6 
#
# 1 0.012688 -0.001191 -0.005491 0.000000 0.000000 0.000000
# 2 -0.001191 0.014732 -0.003556 0.000000 0.000000 0.000000
# 3 -0.005491 -0.003556 0.015293 0.000000 0.000000 0.000000
# 4 0.000000 0.000000 0.000000 -0.787806 0.000000 0.000000
# 5 0.000000 0.000000 0.000000 0.000000 -0.038905 0.000000
# 6 0.000000 0.000000 0.000000 0.000000 0.000000 0.021450
#
#
# Mechanical properties :
#
#
# Convention : Reuss Voigt Hill
#
# Bulk Modulus (GPa) = 44.96960 46.31433 45.64197
# Shear Modulus (GPa) = -6.80588 15.74876 4.47144
#
# Velocity S-wave (km/s) = -1.69232 2.57432 1.37172
# Velocity P-wave (km/s) = 3.88649 5.32217 4.65995
#
# Compressibility (1/GPa) = 0.02223724
#
# Stress axis : x y z
#
# Youngs Moduli (GPa) = 78.81470 67.87874 65.38798
#
# Poissons Ratio (x) = 0.08084 0.35903
# Poissons Ratio (y) = 0.09386 0.23255
# Poissons Ratio (z) = 0.43275 0.24141
#
# Static dielectric constant tensor:
#      x y z
#    x 2.098590 0.000000 0.000000 
#    y 0.000000 1.955030 0.000000 
#    z 0.000000 0.000000 1.869430 
# 
# From -- ./inp_files/7283.got.cif
#   From: 2010.05.17/outbox.cif.g08.bks.cpg/sg68_4_cif.got.tgz:7283.got - 2010.06.03 18:57:09.
