data_PCOD9509019
_publ_section_title
;
Structure prediction by ZEFSAII (Michael W. Deem and Ramdas Pophale) SiO2 
 PCOD9509019
Probable space group: C C C A
;
_chemical_formula_sum "Si O2"
_cell_formula_units_Z 112
_cell_length_a 9.457964
_cell_length_b 35.247934
_cell_length_c 13.150764
_cell_angle_alpha 90.000000
_cell_angle_beta 90.000000
_cell_angle_gamma 90.000000
_cell_volume 4384.118732
_symmetry_space_group_name_H-M "C C C A"
_symmetry_group_IT_number 68
_space_group.IT_coordinate_system_code '2'
_symmetry_cell_setting 'orthorhombic'
loop_
_space_group_symop_operation_xyz
x,y,z
-x,1/2-y,z
x,1/2-y,1/2-z
-x,y,1/2-z
-x,-y,-z
x,1/2+y,-z
-x,1/2+y,1/2+z
x,-y,1/2+z
1/2+x,1/2+y,z
1/2-x,-y,z
1/2+x,-y,1/2-z
1/2-x,1/2+y,1/2-z
1/2-x,1/2-y,-z
1/2+x,y,-z
1/2-x,y,1/2+z
1/2+x,1/2-y,1/2+z
loop_
_atom_site_type_symbol
_atom_site_label
_atom_site_fract_x
_atom_site_fract_y
_atom_site_fract_z
Si Si1 0.015489 0.666669 0.132084
Si Si2 0.393270 0.342998 0.829931
Si Si3 0.126534 0.029696 0.983874
Si Si4 0.248698 0.895755 0.838984
Si Si5 0.332619 0.961441 0.214785
Si Si6 0.966098 0.604952 0.008039
Si Si7 0.876322 0.776199 0.963601
O O1 0.143256 0.636135 0.125355
O O2 0.051632 0.701244 0.058598
O O3 0.000000 0.676870 0.250000
O O4 0.902818 0.636079 0.087503
O O5 0.500000 0.322650 0.750000
O O6 0.331450 0.372111 0.749052
O O7 0.455731 0.368358 0.922644
O O8 0.319635 0.307653 0.885215
O O9 0.169360 0.045321 0.094834
O O10 0.049408 0.068947 0.943347
O O11 0.250000 0.000000 0.946928
O O12 0.000000 0.000000 0.000000
O O13 0.269539 0.933285 0.775006
O O14 0.159270 0.909898 0.936043
O O15 0.500000 0.960297 0.250000
O O16 0.250000 0.000000 0.227786
O O17 0.000000 0.750000 0.919271
O O18 0.750000 0.750000 0.000000
#
# Coordination Sequence:
#
# PCOD9509019 Si02
#       7
#    16  16  16  16  16  16  16
#     4  11  29  46  75 110 148 199 247 312 380 450
#     4   9  20  43  77 103 134 188 250 294 362 449
#     4  11  25  41  65 103 146 194 243 310 379 440
#     4  11  22  45  78 101 144 198 251 318 368 446
#     4  11  23  43  71 106 147 193 252 315 379 443
#     4  10  22  45  71 101 142 193 255 306 374 448
#     4  11  28  51  77 114 157 191 239 306 376 456
#
# _framework density 25.546752000000001
#
# number of rings (size 3 to 8) (size 9 to 14) (size 15 to 20)
#    0.000    1.429    2.857    0.429   10.000    6.286 
#    0.000    0.000    0.000    0.000    0.000    0.000 
#    0.000    0.000    0.000    0.000    0.000    0.000 
#
# Total GULP energy -312333.198489 kJ/mol
# GULP energy per Si atom -5577.378544 kJ/mol
# Density = 2.548861 g / cm^3
# Si number density = 25.546752 Si / 1000 Ang^3
#
#
#
# Elastic Constant Matrix: (Units=GPa)
#
#
# Indices 1 2 3 4 5 6 
#
# 1 60.5811 17.5519 -4.6315 0.0000 0.0000 0.0000
# 2 17.5519 149.5723 36.3916 0.0000 0.0000 0.0000
# 3 -4.6315 36.3916 126.9563 0.0000 0.0000 0.0000
# 4 0.0000 0.0000 0.0000 43.3100 0.0000 0.0000
# 5 0.0000 0.0000 0.0000 0.0000 23.2760 0.0000
# 6 0.0000 0.0000 0.0000 0.0000 0.0000 47.1879
#
#
#
# Elastic Compliance Matrix: (Units=1/GPa)
#
#
# Indices 1 2 3 4 5 6 
#
# 1 0.017286 -0.002345 0.001303 0.000000 0.000000 0.000000
# 2 -0.002345 0.007505 -0.002237 0.000000 0.000000 0.000000
# 3 0.001303 -0.002237 0.008565 0.000000 0.000000 0.000000
# 4 0.000000 0.000000 0.000000 0.023089 0.000000 0.000000
# 5 0.000000 0.000000 0.000000 0.000000 0.042963 0.000000
# 6 0.000000 0.000000 0.000000 0.000000 0.000000 0.021192
#
#
# Mechanical properties :
#
#
# Convention : Reuss Voigt Hill
#
# Bulk Modulus (GPa) = 37.31660 48.41485 42.86572
# Shear Modulus (GPa) = 36.73984 41.94129 39.34057
#
# Velocity S-wave (km/s) = 3.79640 4.05624 3.92847
# Velocity P-wave (km/s) = 5.81857 6.39766 6.11497
#
# Compressibility (1/GPa) = 0.02679773
#
# Stress axis : x y z
#
# Youngs Moduli (GPa) = 57.85046 133.24069 116.74800
#
# Poissons Ratio (x) = 0.31251 -0.15211
# Poissons Ratio (y) = 0.13569 0.26115
# Poissons Ratio (z) = -0.07538 0.29805
#
# Static dielectric constant tensor:
#      x y z
#    x 2.555270 0.000000 0.000000 
#    y 0.000000 1.981930 0.000000 
#    z 0.000000 0.000000 1.949730 
# 
# From -- ./inp_files/21248.got.cif
#   From: 2010.05.17/outbox.cif.g08.bks.cpg/sg68_11_cif.got.tgz:21248.got - 2010.06.03 18:57:09.
