data_PCOD9509405
_publ_section_title
;
Structure prediction by ZEFSAII (Michael W. Deem and Ramdas Pophale) SiO2 
 PCOD9509405
Probable space group: C C C A
;
_chemical_formula_sum "Si O2"
_cell_formula_units_Z 88
_cell_length_a 11.169668
_cell_length_b 15.456607
_cell_length_c 22.014585
_cell_angle_alpha 90.000000
_cell_angle_beta 90.000000
_cell_angle_gamma 90.000000
_cell_volume 3800.711739
_symmetry_space_group_name_H-M "C C C A"
_symmetry_group_IT_number 68
_space_group.IT_coordinate_system_code '2'
_symmetry_cell_setting 'orthorhombic'
loop_
_space_group_symop_operation_xyz
x,y,z
-x,1/2-y,z
x,1/2-y,1/2-z
-x,y,1/2-z
-x,-y,-z
x,1/2+y,-z
-x,1/2+y,1/2+z
x,-y,1/2+z
1/2+x,1/2+y,z
1/2-x,-y,z
1/2+x,-y,1/2-z
1/2-x,1/2+y,1/2-z
1/2-x,1/2-y,-z
1/2+x,y,-z
1/2-x,y,1/2+z
1/2+x,1/2-y,1/2+z
loop_
_atom_site_type_symbol
_atom_site_label
_atom_site_fract_x
_atom_site_fract_y
_atom_site_fract_z
Si Si1 0.878232 0.641999 0.466475
Si Si2 0.025189 0.152451 0.177685
Si Si3 0.643654 0.343220 0.046206
Si Si4 0.615798 0.506581 0.857926
Si Si5 0.500000 0.610714 0.750000
Si Si6 0.291522 0.401987 0.325687
O O1 0.766176 0.632952 0.511764
O O2 0.858693 0.739644 0.440223
O O3 0.873446 0.565916 0.417172
O O4 0.017354 0.640030 0.488311
O O5 0.164982 0.142602 0.167331
O O6 0.000000 0.250000 0.161483
O O7 0.000000 0.138209 0.250000
O O8 0.946185 0.086519 0.138271
O O9 0.644936 0.396134 0.108843
O O10 0.750000 0.500000 0.833841
O O11 0.539254 0.553752 0.806720
O O12 0.623605 0.647389 0.722966
O O13 0.250000 0.500000 0.309546
#
# Coordination Sequence:
#
# PCOD9509405 Si02
#       6
#    16  16  16  16   8  16
#     4  10  23  47  72 101 144 189 245 314 371 443
#     4  11  24  44  68 104 151 195 245 298 376 456
#     4  10  23  46  71 104 143 189 249 308 374 440
#     4  12  24  42  70 106 144 190 245 297 373 445
#     4  12  22  44  72 104 148 192 240 304 361 451
#     4  12  23  44  74 104 149 193 243 303 376 445
#
# _framework density 23.153558
#
# number of rings (size 3 to 8) (size 9 to 14) (size 15 to 20)
#    0.000    0.909    4.545    1.636    2.545    2.182 
#    3.273    3.636    0.000    0.000    0.000    0.000 
#    0.000    0.000    0.000    0.000    0.000    0.000 
#
# Total GULP energy -245731.807168 kJ/mol
# GULP energy per Si atom -5584.813799 kJ/mol
# Density = 2.310086 g / cm^3
# Si number density = 23.153558 Si / 1000 Ang^3
#
#
#
# Elastic Constant Matrix: (Units=GPa)
#
#
# Indices 1 2 3 4 5 6 
#
# 1 203.8281 62.6131 52.0423 0.0000 0.0000 0.0000
# 2 62.6131 106.8827 56.5104 0.0000 0.0000 0.0000
# 3 52.0423 56.5104 94.7311 0.0000 0.0000 0.0000
# 4 0.0000 0.0000 0.0000 20.0696 0.0000 0.0000
# 5 0.0000 0.0000 0.0000 0.0000 39.3763 0.0000
# 6 0.0000 0.0000 0.0000 0.0000 0.0000 559.6533
#
#
#
# Elastic Compliance Matrix: (Units=1/GPa)
#
#
# Indices 1 2 3 4 5 6 
#
# 1 0.006187 -0.002669 -0.001807 0.000000 0.000000 0.000000
# 2 -0.002669 0.014818 -0.007373 0.000000 0.000000 0.000000
# 3 -0.001807 -0.007373 0.015947 0.000000 0.000000 0.000000
# 4 0.000000 0.000000 0.000000 0.049827 0.000000 0.000000
# 5 0.000000 0.000000 0.000000 0.000000 0.025396 0.000000
# 6 0.000000 0.000000 0.000000 0.000000 0.000000 0.001787
#
#
# Mechanical properties :
#
#
# Convention : Reuss Voigt Hill
#
# Bulk Modulus (GPa) = 75.44812 83.08593 79.26703
# Shear Modulus (GPa) = 35.19186 139.43824 87.31505
#
# Velocity S-wave (km/s) = 3.90286 7.76878 6.14761
# Velocity P-wave (km/s) = 7.27781 10.79049 9.20329
#
# Compressibility (1/GPa) = 0.01325414
#
# Stress axis : x y z
#
# Youngs Moduli (GPa) = 161.61856 67.48545 62.70757
#
# Poissons Ratio (x) = 0.18014 0.11330
# Poissons Ratio (y) = 0.43142 0.46234
# Poissons Ratio (z) = 0.29201 0.49757
#
# Static dielectric constant tensor:
#      x y z
#    x 2.019250 0.000000 0.000000 
#    y 0.000000 1.834370 0.000000 
#    z 0.000000 0.000000 1.859390 
# 
# From -- ./inp_files/44235.got.cif
#   From: 2010.05.17/outbox.cif.g08.bks.cpg/sg68_23_cif.got.tgz:44235.got - 2010.06.03 18:57:09.
