data_PCOD9509933
_publ_section_title
;
Structure prediction by ZEFSAII (Michael W. Deem and Ramdas Pophale) SiO2 
 PCOD9509933
Probable space group: C C C A
;
_chemical_formula_sum "Si O2"
_cell_formula_units_Z 104
_cell_length_a 19.728830
_cell_length_b 19.941721
_cell_length_c 14.010228
_cell_angle_alpha 90.000000
_cell_angle_beta 90.000000
_cell_angle_gamma 90.000000
_cell_volume 5511.999499
_symmetry_space_group_name_H-M "C C C A"
_symmetry_group_IT_number 68
_space_group.IT_coordinate_system_code '2'
_symmetry_cell_setting 'orthorhombic'
loop_
_space_group_symop_operation_xyz
x,y,z
-x,1/2-y,z
x,1/2-y,1/2-z
-x,y,1/2-z
-x,-y,-z
x,1/2+y,-z
-x,1/2+y,1/2+z
x,-y,1/2+z
1/2+x,1/2+y,z
1/2-x,-y,z
1/2+x,-y,1/2-z
1/2-x,1/2+y,1/2-z
1/2-x,1/2-y,-z
1/2+x,y,-z
1/2-x,y,1/2+z
1/2+x,1/2-y,1/2+z
loop_
_atom_site_type_symbol
_atom_site_label
_atom_site_fract_x
_atom_site_fract_y
_atom_site_fract_z
Si Si1 0.326628 0.495112 0.094687
Si Si2 0.999538 0.669855 0.861229
Si Si3 0.848349 0.349459 0.395078
Si Si4 0.227426 0.344824 0.910680
Si Si5 0.125346 0.916365 0.578491
Si Si6 0.279208 0.250000 0.750000
Si Si7 0.675390 0.531785 0.697140
O O1 0.250000 0.500000 0.054263
O O2 0.337387 0.571996 0.122844
O O3 0.331687 0.452645 0.191436
O O4 0.373808 0.461414 0.016762
O O5 0.063608 0.634450 0.909777
O O6 0.000000 0.750000 0.861691
O O7 0.000000 0.648137 0.750000
O O8 0.928323 0.654322 0.910648
O O9 0.804027 0.326881 0.486630
O O10 0.825587 0.304811 0.304663
O O11 0.303438 0.375466 0.921550
O O12 0.235538 0.286928 0.831646
O O13 0.178524 0.402765 0.868123
O O14 0.126423 0.972887 0.661313
O O15 0.750000 0.500000 0.688621
#
# Coordination Sequence:
#
# PCOD9509933 Si02
#       7
#    16  16  16  16  16   8  16
#     4  11  19  36  63  93 127 161 201 265 323 374
#     4  11  24  42  62  90 130 168 208 261 317 375
#     4  12  23  41  63  95 126 164 216 264 317 383
#     4  11  22  39  61  96 127 164 213 261 320 380
#     4  11  20  38  64  91 125 166 207 261 322 372
#     4  12  24  38  63  94 131 168 212 270 320 386
#     4   9  18  34  58  90 126 159 203 256 317 375
#
# _framework density 18.867927000000002
#
# number of rings (size 3 to 8) (size 9 to 14) (size 15 to 20)
#    0.000    1.077    3.077    7.385    0.000    0.615 
#    0.000    0.000    0.000    0.000    0.000    0.000 
#    0.000    0.000    0.000    0.000    0.000    0.000 
#
# Total GULP energy -290274.117952 kJ/mol
# GULP energy per Si atom -5582.194576 kJ/mol
# Density = 1.882498 g / cm^3
# Si number density = 18.867927 Si / 1000 Ang^3
#
#
#
# Elastic Constant Matrix: (Units=GPa)
#
#
# Indices 1 2 3 4 5 6 
#
# 1 100.9629 40.7398 33.3725 0.0000 0.0000 0.0000
# 2 40.7398 87.9959 36.4241 0.0000 0.0000 0.0000
# 3 33.3725 36.4241 117.6469 0.0000 0.0000 0.0000
# 4 0.0000 0.0000 0.0000 17.8353 0.0000 0.0000
# 5 0.0000 0.0000 0.0000 0.0000 27.0727 0.0000
# 6 0.0000 0.0000 0.0000 0.0000 0.0000 29.8818
#
#
#
# Elastic Compliance Matrix: (Units=1/GPa)
#
#
# Indices 1 2 3 4 5 6 
#
# 1 0.012587 -0.004989 -0.002026 0.000000 0.000000 0.000000
# 2 -0.004989 0.015012 -0.003233 0.000000 0.000000 0.000000
# 3 -0.002026 -0.003233 0.010076 0.000000 0.000000 0.000000
# 4 0.000000 0.000000 0.000000 0.056069 0.000000 0.000000
# 5 0.000000 0.000000 0.000000 0.000000 0.036938 0.000000
# 6 0.000000 0.000000 0.000000 0.000000 0.000000 0.033465
#
#
# Mechanical properties :
#
#
# Convention : Reuss Voigt Hill
#
# Bulk Modulus (GPa) = 58.20797 58.63093 58.41945
# Shear Modulus (GPa) = 26.26491 28.02926 27.14708
#
# Velocity S-wave (km/s) = 3.73505 3.85847 3.79726
# Velocity P-wave (km/s) = 7.03690 7.14088 7.08908
#
# Compressibility (1/GPa) = 0.01717978
#
# Stress axis : x y z
#
# Youngs Moduli (GPa) = 79.44425 66.61331 99.25025
#
# Poissons Ratio (x) = 0.33234 0.20108
# Poissons Ratio (y) = 0.39635 0.32083
# Poissons Ratio (z) = 0.16095 0.21533
#
# Static dielectric constant tensor:
#      x y z
#    x 1.488280 0.000000 0.000000 
#    y 0.000000 0.477390 0.000000 
#    z 0.000000 0.000000 1.697660 
# 
# From -- ./inp_files/24644.got.cif
#   From: 2010.05.17/outbox.cif.g08.bks.cpg/sg68_13_cif.got.tgz:24644.got - 2010.06.03 18:57:09.
