data_PCOD9509032
_publ_section_title
;
Structure prediction by ZEFSAII (Michael W. Deem and Ramdas Pophale) SiO2 
 PCOD9509032
Probable space group: C C C A
;
_chemical_formula_sum "Si O2"
_cell_formula_units_Z 88
_cell_length_a 18.872760
_cell_length_b 13.893308
_cell_length_c 12.270618
_cell_angle_alpha 90.000000
_cell_angle_beta 90.000000
_cell_angle_gamma 90.000000
_cell_volume 3217.418221
_symmetry_space_group_name_H-M "C C C A"
_symmetry_group_IT_number 68
_space_group.IT_coordinate_system_code '2'
_symmetry_cell_setting 'orthorhombic'
loop_
_space_group_symop_operation_xyz
x,y,z
-x,1/2-y,z
x,1/2-y,1/2-z
-x,y,1/2-z
-x,-y,-z
x,1/2+y,-z
-x,1/2+y,1/2+z
x,-y,1/2+z
1/2+x,1/2+y,z
1/2-x,-y,z
1/2+x,-y,1/2-z
1/2-x,1/2+y,1/2-z
1/2-x,1/2-y,-z
1/2+x,y,-z
1/2-x,y,1/2+z
1/2+x,1/2-y,1/2+z
loop_
_atom_site_type_symbol
_atom_site_label
_atom_site_fract_x
_atom_site_fract_y
_atom_site_fract_z
Si Si1 0.000000 0.919498 0.750000
Si Si2 0.739723 0.342324 0.325749
Si Si3 0.896145 0.349803 0.965117
Si Si4 0.045578 0.861673 0.978381
Si Si5 0.650552 0.962321 0.317531
Si Si6 0.808166 0.420498 0.506499
O O1 0.982070 0.855646 0.644691
O O2 0.928591 0.976935 0.775585
O O3 0.738417 0.250000 0.250000
O O4 0.659279 0.363440 0.366675
O O5 0.798065 0.413665 0.269858
O O6 0.779941 0.329190 0.442697
O O7 0.918352 0.236870 0.979888
O O8 0.860078 0.390430 0.077410
O O9 0.976401 0.391390 0.953428
O O10 0.110457 0.935394 0.975255
O O11 0.684344 0.061406 0.364413
O O12 0.750000 0.500000 0.473180
#
# Coordination Sequence:
#
# PCOD9509032 Si02
#       6
#     8  16  16  16  16  16
#     4  10  22  45  74 114 144 221 258 320 410 489
#     4  12  27  51  80 113 156 217 274 328 408 487
#     4  10  24  48  77 113 155 206 267 335 392 475
#     4  10  23  47  78 109 161 204 270 328 397 483
#     4  11  25  46  75 112 160 204 267 329 404 486
#     4  12  26  49  75 120 163 203 264 338 401 481
#
# _framework density 27.351122
#
# number of rings (size 3 to 8) (size 9 to 14) (size 15 to 20)
#    0.000    1.091    3.636    1.091    2.545   10.182 
#    0.000    1.818    0.000    0.000    0.000    0.000 
#    0.000    0.000    0.000    0.000    0.000    0.000 
#
# Total GULP energy -245869.486890 kJ/mol
# GULP energy per Si atom -5587.942884 kJ/mol
# Density = 2.728887 g / cm^3
# Si number density = 27.351122 Si / 1000 Ang^3
#
#
#
# Elastic Constant Matrix: (Units=GPa)
#
#
# Indices 1 2 3 4 5 6 
#
# 1 290.4193 74.0515 109.8786 0.0000 0.0000 0.0000
# 2 74.0515 87.3639 56.0781 0.0000 0.0000 0.0000
# 3 109.8786 56.0781 150.7885 0.0000 0.0000 0.0000
# 4 0.0000 0.0000 0.0000 52.6589 0.0000 0.0000
# 5 0.0000 0.0000 0.0000 0.0000 70.7279 0.0000
# 6 0.0000 0.0000 0.0000 0.0000 0.0000 48.1898
#
#
#
# Elastic Compliance Matrix: (Units=1/GPa)
#
#
# Indices 1 2 3 4 5 6 
#
# 1 0.005160 -0.002575 -0.002803 0.000000 0.000000 0.000000
# 2 -0.002575 0.016321 -0.004193 0.000000 0.000000 0.000000
# 3 -0.002803 -0.004193 0.010234 0.000000 0.000000 0.000000
# 4 0.000000 0.000000 0.000000 0.018990 0.000000 0.000000
# 5 0.000000 0.000000 0.000000 0.000000 0.014139 0.000000
# 6 0.000000 0.000000 0.000000 0.000000 0.000000 0.020751
#
#
# Mechanical properties :
#
#
# Convention : Reuss Voigt Hill
#
# Bulk Modulus (GPa) = 79.53745 112.06534 95.80140
# Shear Modulus (GPa) = 45.90234 53.55287 49.72760
#
# Velocity S-wave (km/s) = 4.10110 4.42970 4.26857
# Velocity P-wave (km/s) = 7.18113 8.19908 7.70693
#
# Compressibility (1/GPa) = 0.01257269
#
# Stress axis : x y z
#
# Youngs Moduli (GPa) = 193.79080 61.27235 97.71822
#
# Poissons Ratio (x) = 0.15777 0.27386
# Poissons Ratio (y) = 0.49900 0.40976
# Poissons Ratio (z) = 0.54312 0.25693
#
# Static dielectric constant tensor:
#      x y z
#    x 2.112040 0.000000 0.000000 
#    y 0.000000 2.240630 0.000000 
#    z 0.000000 0.000000 2.184970 
# 
# From -- ./inp_files/22281.got.cif
#   From: 2010.05.17/outbox.cif.g08.bks.cpg/sg68_12_cif.got.tgz:22281.got - 2010.06.03 18:57:09.
