data_PCOD9509988
_publ_section_title
;
Structure prediction by ZEFSAII (Michael W. Deem and Ramdas Pophale) SiO2 
 PCOD9509988
Probable space group: C C C A
;
_chemical_formula_sum "Si O2"
_cell_formula_units_Z 88
_cell_length_a 17.924642
_cell_length_b 15.182693
_cell_length_c 16.857686
_cell_angle_alpha 90.000000
_cell_angle_beta 90.000000
_cell_angle_gamma 90.000000
_cell_volume 4587.723773
_symmetry_space_group_name_H-M "C C C A"
_symmetry_group_IT_number 68
_space_group.IT_coordinate_system_code '2'
_symmetry_cell_setting 'orthorhombic'
loop_
_space_group_symop_operation_xyz
x,y,z
-x,1/2-y,z
x,1/2-y,1/2-z
-x,y,1/2-z
-x,-y,-z
x,1/2+y,-z
-x,1/2+y,1/2+z
x,-y,1/2+z
1/2+x,1/2+y,z
1/2-x,-y,z
1/2+x,-y,1/2-z
1/2-x,1/2+y,1/2-z
1/2-x,1/2-y,-z
1/2+x,y,-z
1/2-x,y,1/2+z
1/2+x,1/2-y,1/2+z
loop_
_atom_site_type_symbol
_atom_site_label
_atom_site_fract_x
_atom_site_fract_y
_atom_site_fract_z
Si Si1 0.750000 0.000000 0.804050
Si Si2 0.773641 0.328661 0.305515
Si Si3 0.614067 0.257647 0.344612
Si Si4 0.033529 0.069551 0.839450
Si Si5 0.165474 0.538886 0.592097
Si Si6 0.615178 0.440052 0.087270
O O1 0.742853 0.087345 0.750628
O O2 0.822691 0.013398 0.858343
O O3 0.800803 0.250000 0.250000
O O4 0.697734 0.296343 0.347257
O O5 0.828888 0.363632 0.371879
O O6 0.600082 0.250000 0.250000
O O7 0.555748 0.332614 0.369552
O O8 0.614167 0.163664 0.387419
O O9 0.000000 0.072744 0.750000
O O10 0.967775 0.028640 0.891643
O O11 0.109699 0.015485 0.851131
O O12 0.250000 0.500000 0.591318
O O13 0.135366 0.542563 0.503297
#
# Coordination Sequence:
#
# PCOD9509988 Si02
#       6
#     8  16  16  16  16  16
#     4  12  20  40  66  98 130 172 222 264 322 404
#     4  11  21  40  67  96 126 176 227 264 317 395
#     4  11  20  39  68  99 124 165 222 283 322 376
#     4  12  23  43  73  96 130 171 229 278 321 392
#     4  12  25  44  64  98 140 174 210 268 342 402
#     4  12  25  39  66 101 135 167 215 281 337 382
#
# _framework density 19.181626000000001
#
# number of rings (size 3 to 8) (size 9 to 14) (size 15 to 20)
#    0.000    0.364    9.091    2.182    0.000    0.727 
#    3.273    0.000    4.000    1.091    0.000    0.000 
#    0.000    0.000    0.000    0.000    0.000    0.000 
#
# Total GULP energy -245725.061401 kJ/mol
# GULP energy per Si atom -5584.660486 kJ/mol
# Density = 1.913797 g / cm^3
# Si number density = 19.181626 Si / 1000 Ang^3
#
#
#
# Elastic Constant Matrix: (Units=GPa)
#
#
# Indices 1 2 3 4 5 6 
#
# 1 122.5060 25.2141 22.6436 0.0000 0.0000 0.0000
# 2 25.2141 71.8166 10.1698 0.0000 0.0000 0.0000
# 3 22.6436 10.1698 72.2850 0.0000 0.0000 0.0000
# 4 0.0000 0.0000 0.0000 24.6022 0.0000 0.0000
# 5 0.0000 0.0000 0.0000 0.0000 18.9471 0.0000
# 6 0.0000 0.0000 0.0000 0.0000 0.0000 34.0359
#
#
#
# Elastic Compliance Matrix: (Units=1/GPa)
#
#
# Indices 1 2 3 4 5 6 
#
# 1 0.009215 -0.002884 -0.002481 0.000000 0.000000 0.000000
# 2 -0.002884 0.015110 -0.001222 0.000000 0.000000 0.000000
# 3 -0.002481 -0.001222 0.014783 0.000000 0.000000 0.000000
# 4 0.000000 0.000000 0.000000 0.040647 0.000000 0.000000
# 5 0.000000 0.000000 0.000000 0.000000 0.052778 0.000000
# 6 0.000000 0.000000 0.000000 0.000000 0.000000 0.029381
#
#
# Mechanical properties :
#
#
# Convention : Reuss Voigt Hill
#
# Bulk Modulus (GPa) = 38.55990 42.51809 40.53899
# Shear Modulus (GPa) = 27.21335 29.42239 28.31787
#
# Velocity S-wave (km/s) = 3.77068 3.92073 3.84644
# Velocity P-wave (km/s) = 6.25328 6.53532 6.39585
#
# Compressibility (1/GPa) = 0.02593368
#
# Stress axis : x y z
#
# Youngs Moduli (GPa) = 108.51867 66.18138 67.64402
#
# Poissons Ratio (x) = 0.19087 0.16782
# Poissons Ratio (y) = 0.31297 0.08269
# Poissons Ratio (z) = 0.26922 0.08090
#
# Static dielectric constant tensor:
#      x y z
#    x 1.703130 0.000000 0.000000 
#    y 0.000000 1.686770 0.000000 
#    z 0.000000 0.000000 1.671060 
# 
# From -- ./inp_files/30917.got.cif
#   From: 2010.05.17/outbox.cif.g08.bks.cpg/sg68_16_cif.got.tgz:30917.got - 2010.06.03 18:57:09.
