data_PCOD9509126
_publ_section_title
;
Structure prediction by ZEFSAII (Michael W. Deem and Ramdas Pophale) SiO2 
 PCOD9509126
Probable space group: C C C A
;
_chemical_formula_sum "Si O2"
_cell_formula_units_Z 88
_cell_length_a 21.762480
_cell_length_b 13.339016
_cell_length_c 14.463495
_cell_angle_alpha 90.000000
_cell_angle_beta 90.000000
_cell_angle_gamma 90.000000
_cell_volume 4198.608960
_symmetry_space_group_name_H-M "C C C A"
_symmetry_group_IT_number 68
_space_group.IT_coordinate_system_code '2'
_symmetry_cell_setting 'orthorhombic'
loop_
_space_group_symop_operation_xyz
x,y,z
-x,1/2-y,z
x,1/2-y,1/2-z
-x,y,1/2-z
-x,-y,-z
x,1/2+y,-z
-x,1/2+y,1/2+z
x,-y,1/2+z
1/2+x,1/2+y,z
1/2-x,-y,z
1/2+x,-y,1/2-z
1/2-x,1/2+y,1/2-z
1/2-x,1/2-y,-z
1/2+x,y,-z
1/2-x,y,1/2+z
1/2+x,1/2-y,1/2+z
loop_
_atom_site_type_symbol
_atom_site_label
_atom_site_fract_x
_atom_site_fract_y
_atom_site_fract_z
Si Si1 0.872554 0.997547 0.332440
Si Si2 0.250000 0.000000 0.298610
Si Si3 0.875375 0.681131 0.535952
Si Si4 0.000000 0.418781 0.250000
Si Si5 0.851247 0.279048 0.651210
Si Si6 0.767504 0.787754 0.603582
Si Si7 0.000000 0.750000 0.604228
O O1 0.876065 0.886737 0.375336
O O2 0.813060 0.998098 0.263398
O O3 0.862080 0.075585 0.415837
O O4 0.937986 0.023676 0.283092
O O5 0.244417 0.099591 0.362861
O O6 0.860327 0.696872 0.428278
O O7 0.838609 0.759255 0.601954
O O8 0.945826 0.707296 0.543991
O O9 0.980102 0.342704 0.331336
O O10 0.877686 0.250000 0.750000
O O11 0.777166 0.285015 0.660880
O O12 0.750000 0.750000 0.500000
#
# Coordination Sequence:
#
# PCOD9509126 Si02
#       7
#    16   8  16   8  16  16   8
#     4  11  23  41  69  97 131 178 224 275 337 404
#     4  12  22  40  74  96 128 182 224 270 342 404
#     4  10  23  41  67  97 131 176 222 277 342 390
#     4   9  20  40  65  98 134 172 229 274 337 398
#     4  11  23  45  63  97 140 168 222 276 331 405
#     4  10  23  39  64  98 134 168 219 279 333 392
#     4   9  18  42  65  96 134 170 225 284 318 409
#
# _framework density 20.959322
#
# number of rings (size 3 to 8) (size 9 to 14) (size 15 to 20)
#    0.000    1.636    1.818    2.182    0.000    7.273 
#    6.545    1.818    0.000    0.000    0.000    0.000 
#    0.000    0.000    0.000    0.000    0.000    0.000 
#
# Total GULP energy -245073.546560 kJ/mol
# GULP energy per Si atom -5569.853331 kJ/mol
# Density = 2.091162 g / cm^3
# Si number density = 20.959322 Si / 1000 Ang^3
#
#
#
# Elastic Constant Matrix: (Units=GPa)
#
#
# Indices 1 2 3 4 5 6 
#
# 1 65.3943 32.2429 33.2881 0.0000 0.0000 0.0000
# 2 32.2429 144.2115 58.6161 0.0000 0.0000 0.0000
# 3 33.2881 58.6161 118.8571 0.0000 0.0000 0.0000
# 4 0.0000 0.0000 0.0000 26.4824 0.0000 0.0000
# 5 0.0000 0.0000 0.0000 0.0000 17.4814 0.0000
# 6 0.0000 0.0000 0.0000 0.0000 0.0000 22.0299
#
#
#
# Elastic Compliance Matrix: (Units=1/GPa)
#
#
# Indices 1 2 3 4 5 6 
#
# 1 0.018553 -0.002547 -0.003940 0.000000 0.000000 0.000000
# 2 -0.002547 0.009022 -0.003736 0.000000 0.000000 0.000000
# 3 -0.003940 -0.003736 0.011360 0.000000 0.000000 0.000000
# 4 0.000000 0.000000 0.000000 0.037761 0.000000 0.000000
# 5 0.000000 0.000000 0.000000 0.000000 0.057204 0.000000
# 6 0.000000 0.000000 0.000000 0.000000 0.000000 0.045393
#
#
# Mechanical properties :
#
#
# Convention : Reuss Voigt Hill
#
# Bulk Modulus (GPa) = 54.08663 64.08411 59.08537
# Shear Modulus (GPa) = 24.28344 26.81979 25.55161
#
# Velocity S-wave (km/s) = 3.40751 3.58105 3.49536
# Velocity P-wave (km/s) = 6.42986 6.90944 6.67396
#
# Compressibility (1/GPa) = 0.01848886
#
# Stress axis : x y z
#
# Youngs Moduli (GPa) = 53.89902 110.83715 88.03128
#
# Poissons Ratio (x) = 0.28225 0.34687
# Poissons Ratio (y) = 0.13726 0.32891
# Poissons Ratio (z) = 0.21238 0.41411
#
# Static dielectric constant tensor:
#      x y z
#    x 1.873250 0.000000 0.000000 
#    y 0.000000 1.756740 0.000000 
#    z 0.000000 0.000000 1.863390 
# 
# From -- ./inp_files/25313.got.cif
#   From: 2010.05.17/outbox.cif.g08.bks.cpg/sg68_13_cif.got.tgz:25313.got - 2010.06.03 18:57:09.
