data_PCOD9509796
_publ_section_title
;
Structure prediction by ZEFSAII (Michael W. Deem and Ramdas Pophale) SiO2 
 PCOD9509796
Probable space group: C C C A
;
_chemical_formula_sum "Si O2"
_cell_formula_units_Z 64
_cell_length_a 9.652545
_cell_length_b 30.664758
_cell_length_c 8.927671
_cell_angle_alpha 90.000000
_cell_angle_beta 90.000000
_cell_angle_gamma 90.000000
_cell_volume 2642.527734
_symmetry_space_group_name_H-M "C C C A"
_symmetry_group_IT_number 68
_space_group.IT_coordinate_system_code '2'
_symmetry_cell_setting 'orthorhombic'
loop_
_space_group_symop_operation_xyz
x,y,z
-x,1/2-y,z
x,1/2-y,1/2-z
-x,y,1/2-z
-x,-y,-z
x,1/2+y,-z
-x,1/2+y,1/2+z
x,-y,1/2+z
1/2+x,1/2+y,z
1/2-x,-y,z
1/2+x,-y,1/2-z
1/2-x,1/2+y,1/2-z
1/2-x,1/2-y,-z
1/2+x,y,-z
1/2-x,y,1/2+z
1/2+x,1/2-y,1/2+z
loop_
_atom_site_type_symbol
_atom_site_label
_atom_site_fract_x
_atom_site_fract_y
_atom_site_fract_z
Si Si1 0.372299 0.031335 0.042757
Si Si2 0.348412 0.847529 0.067990
Si Si3 0.769138 0.589504 0.298915
Si Si4 0.562886 0.298702 0.089079
O O1 0.371049 0.067008 0.176564
O O2 0.250000 0.000000 0.094092
O O3 0.500000 0.000000 0.000000
O O4 0.180757 0.945186 0.892804
O O5 0.330733 0.879910 0.203875
O O6 0.225048 0.811115 0.080952
O O7 0.334691 0.879059 0.923464
O O8 0.493136 0.824267 0.046709
O O9 0.500000 0.250000 0.076702
O O10 0.500000 0.313525 0.250000
#
# Coordination Sequence:
#
# PCOD9509796 Si02
#       4
#    16  16  16  16
#     4  11  26  45  69 101 142 180 237 292 361 418
#     4  11  23  46  72 105 144 189 240 288 358 422
#     4  10  25  44  73 104 138 189 235 293 353 428
#     4  11  24  44  71 107 149 188 233 295 357 421
#
# _framework density 24.219235000000001
#
# number of rings (size 3 to 8) (size 9 to 14) (size 15 to 20)
#    0.000    1.250    2.500    1.500    0.000   17.000 
#    0.000    5.000    0.000    0.000    0.000    0.000 
#    0.000    0.000    0.000    0.000    0.000    0.000 
#
# Total GULP energy -178911.895975 kJ/mol
# GULP energy per Si atom -5590.996749 kJ/mol
# Density = 2.416411 g / cm^3
# Si number density = 24.219235 Si / 1000 Ang^3
#
#
#
# Elastic Constant Matrix: (Units=GPa)
#
#
# Indices 1 2 3 4 5 6 
#
# 1 82.2394 14.2620 14.4971 0.0000 0.0000 0.0000
# 2 14.2620 100.2952 44.6456 0.0000 0.0000 0.0000
# 3 14.4971 44.6456 121.7683 0.0000 0.0000 0.0000
# 4 0.0000 0.0000 0.0000 484.2449 0.0000 0.0000
# 5 0.0000 0.0000 0.0000 0.0000 -63.7016 0.0000
# 6 0.0000 0.0000 0.0000 0.0000 0.0000 19.8055
#
#
#
# Elastic Compliance Matrix: (Units=1/GPa)
#
#
# Indices 1 2 3 4 5 6 
#
# 1 0.012569 -0.001340 -0.001005 0.000000 0.000000 0.000000
# 2 -0.001340 0.012058 -0.004262 0.000000 0.000000 0.000000
# 3 -0.001005 -0.004262 0.009894 0.000000 0.000000 0.000000
# 4 0.000000 0.000000 0.000000 0.002065 0.000000 0.000000
# 5 0.000000 0.000000 0.000000 0.000000 -0.015698 0.000000
# 6 0.000000 0.000000 0.000000 0.000000 0.000000 0.050491
#
#
# Mechanical properties :
#
#
# Convention : Reuss Voigt Hill
#
# Bulk Modulus (GPa) = 46.92946 50.12360 48.52653
# Shear Modulus (GPa) = 54.52818 103.46296 78.99557
#
# Velocity S-wave (km/s) = 4.75008 6.54309 5.71731
# Velocity P-wave (km/s) = 7.03586 8.82176 7.97894
#
# Compressibility (1/GPa) = 0.02130858
#
# Stress axis : x y z
#
# Youngs Moduli (GPa) = 79.55967 82.93192 101.06682
#
# Poissons Ratio (x) = 0.11112 0.10159
# Poissons Ratio (y) = 0.10660 0.43070
# Poissons Ratio (z) = 0.07997 0.35341
#
# Static dielectric constant tensor:
#      x y z
#    x 1.917850 0.000000 0.000000 
#    y 0.000000 2.159840 0.000000 
#    z 0.000000 0.000000 0.490400 
# 
# From -- ./inp_files/4064.got.cif
#   From: 2010.05.17/outbox.cif.g08.bks.cpg/sg68_3_cif.got.tgz:4064.got - 2010.06.03 18:57:09.
