data_PCOD9509905
_publ_section_title
;
Structure prediction by ZEFSAII (Michael W. Deem and Ramdas Pophale) SiO2 
 PCOD9509905
Probable space group: C C C A
;
_chemical_formula_sum "Si O2"
_cell_formula_units_Z 100
_cell_length_a 26.390879
_cell_length_b 19.652877
_cell_length_c 9.286506
_cell_angle_alpha 90.000000
_cell_angle_beta 90.000000
_cell_angle_gamma 90.000000
_cell_volume 4816.508546
_symmetry_space_group_name_H-M "C C C A"
_symmetry_group_IT_number 68
_space_group.IT_coordinate_system_code '2'
_symmetry_cell_setting 'orthorhombic'
loop_
_space_group_symop_operation_xyz
x,y,z
-x,1/2-y,z
x,1/2-y,1/2-z
-x,y,1/2-z
-x,-y,-z
x,1/2+y,-z
-x,1/2+y,1/2+z
x,-y,1/2+z
1/2+x,1/2+y,z
1/2-x,-y,z
1/2+x,-y,1/2-z
1/2-x,1/2+y,1/2-z
1/2-x,1/2-y,-z
1/2+x,y,-z
1/2-x,y,1/2+z
1/2+x,1/2-y,1/2+z
loop_
_atom_site_type_symbol
_atom_site_label
_atom_site_fract_x
_atom_site_fract_y
_atom_site_fract_z
Si Si1 0.556241 0.028813 0.969992
Si Si2 0.000000 0.750000 0.250000
Si Si3 0.621503 0.250000 0.750000
Si Si4 0.190766 0.882996 0.794916
Si Si5 0.203056 0.879003 0.132265
Si Si6 0.125290 0.987253 0.263255
Si Si7 0.846020 0.250000 0.750000
Si Si8 0.424235 0.685732 0.528606
O O1 0.561116 0.110970 0.969572
O O2 0.603056 0.012415 0.077061
O O3 0.573805 0.990930 0.826732
O O4 0.500000 0.000000 0.000000
O O5 0.031790 0.794937 0.360422
O O6 0.658229 0.314292 0.777571
O O7 0.587155 0.267410 0.610533
O O8 0.242154 0.884781 0.704172
O O9 0.155993 0.943941 0.739888
O O10 0.203321 0.894768 0.962984
O O11 0.186070 0.801372 0.154326
O O12 0.162281 0.927022 0.213544
O O13 0.877135 0.202436 0.637020
#
# Coordination Sequence:
#
# PCOD9509905 Si02
#       8
#    16   4   8  16  16  16   8  16
#     4  12  27  46  76 107 139 191 248 300 364 434
#     4  10  28  46  74 104 140 190 250 302 370 434
#     4  12  25  47  73 106 150 188 238 300 369 426
#     4  12  28  44  72 109 145 194 243 299 362 438
#     4  12  27  44  73 106 146 192 248 291 370 433
#     4  12  26  48  71 103 151 187 241 307 365 423
#     4  11  23  45  74 100 144 192 229 304 358 432
#     4  11  25  47  74 104 144 190 242 304 365 427
#
# _framework density 20.761927
#
# number of rings (size 3 to 8) (size 9 to 14) (size 15 to 20)
#    0.000    0.320    6.400    1.440    6.720    4.160 
#    2.880    0.000    0.000    0.000    0.000    0.000 
#    0.000    0.000    0.000    0.000    0.000    0.000 
#
# Total GULP energy -279050.256935 kJ/mol
# GULP energy per Si atom -5581.005139 kJ/mol
# Density = 2.071467 g / cm^3
# Si number density = 20.761927 Si / 1000 Ang^3
#
#
#
# Elastic Constant Matrix: (Units=GPa)
#
#
# Indices 1 2 3 4 5 6 
#
# 1 116.1833 52.5281 24.3300 0.0000 0.0000 0.0000
# 2 52.5281 114.2801 0.6270 0.0000 0.0000 0.0000
# 3 24.3300 0.6270 79.2612 0.0000 0.0000 0.0000
# 4 0.0000 0.0000 0.0000 27.2470 0.0000 0.0000
# 5 0.0000 0.0000 0.0000 0.0000 45.9013 0.0000
# 6 0.0000 0.0000 0.0000 0.0000 0.0000 -272.0230
#
#
#
# Elastic Compliance Matrix: (Units=1/GPa)
#
#
# Indices 1 2 3 4 5 6 
#
# 1 0.011800 -0.005404 -0.003579 0.000000 0.000000 0.000000
# 2 -0.005404 0.011226 0.001570 0.000000 0.000000 0.000000
# 3 -0.003579 0.001570 0.013703 0.000000 0.000000 0.000000
# 4 0.000000 0.000000 0.000000 0.036701 0.000000 0.000000
# 5 0.000000 0.000000 0.000000 0.000000 0.021786 0.000000
# 6 0.000000 0.000000 0.000000 0.000000 0.000000 -0.003676
#
#
# Mechanical properties :
#
#
# Convention : Reuss Voigt Hill
#
# Bulk Modulus (GPa) = 45.65864 51.63278 48.64571
# Shear Modulus (GPa) = 43.98817 -24.29231 9.84793
#
# Velocity S-wave (km/s) = 4.60792 -3.42430 2.18027
# Velocity P-wave (km/s) = 7.09576 3.04771 5.46070
#
# Compressibility (1/GPa) = 0.02190166
#
# Stress axis : x y z
#
# Youngs Moduli (GPa) = 84.74634 89.08063 72.97772
#
# Poissons Ratio (x) = 0.48140 0.26121
# Poissons Ratio (y) = 0.45798 -0.11458
# Poissons Ratio (z) = 0.30334 -0.13986
#
# Static dielectric constant tensor:
#      x y z
#    x 1.680750 0.000000 0.000000 
#    y 0.000000 1.749950 0.000000 
#    z 0.000000 0.000000 1.588960 
# 
# From -- ./inp_files/9047.got.cif
#   From: 2010.05.17/outbox.cif.g08.bks.cpg/sg68_5_cif.got.tgz:9047.got - 2010.06.03 18:57:09.
