data_PCOD9509653
_publ_section_title
;
Structure prediction by ZEFSAII (Michael W. Deem and Ramdas Pophale) SiO2 
 PCOD9509653
Probable space group: C C C A
;
_chemical_formula_sum "Si O2"
_cell_formula_units_Z 60
_cell_length_a 11.484857
_cell_length_b 23.273654
_cell_length_c 8.724337
_cell_angle_alpha 90.000000
_cell_angle_beta 90.000000
_cell_angle_gamma 90.000000
_cell_volume 2331.968064
_symmetry_space_group_name_H-M "C C C A"
_symmetry_group_IT_number 68
_space_group.IT_coordinate_system_code '2'
_symmetry_cell_setting 'orthorhombic'
loop_
_space_group_symop_operation_xyz
x,y,z
-x,1/2-y,z
x,1/2-y,1/2-z
-x,y,1/2-z
-x,-y,-z
x,1/2+y,-z
-x,1/2+y,1/2+z
x,-y,1/2+z
1/2+x,1/2+y,z
1/2-x,-y,z
1/2+x,-y,1/2-z
1/2-x,1/2+y,1/2-z
1/2-x,1/2-y,-z
1/2+x,y,-z
1/2-x,y,1/2+z
1/2+x,1/2-y,1/2+z
loop_
_atom_site_type_symbol
_atom_site_label
_atom_site_fract_x
_atom_site_fract_y
_atom_site_fract_z
Si Si1 0.250000 0.000000 0.617523
Si Si2 0.514217 0.663487 0.002444
Si Si3 0.357082 0.924411 0.855672
Si Si4 0.500000 0.750000 0.750000
Si Si5 0.807088 0.316852 0.280391
O O1 0.348045 0.974378 0.730593
O O2 0.203496 0.950730 0.506419
O O3 0.523016 0.602008 0.920520
O O4 0.555478 0.707264 0.872298
O O5 0.604801 0.668330 0.141074
O O6 0.388110 0.680151 0.066878
O O7 0.281436 0.870059 0.794799
O O8 0.771837 0.250000 0.250000
#
# Coordination Sequence:
#
# PCOD9509653 Si02
#       5
#     8  16  16   4  16
#     4  10  24  46  66 102 138 180 260 288 320 436
#     4  11  24  42  66 103 141 183 224 291 352 428
#     4  11  24  45  72  97 138 193 231 296 355 402
#     4  12  24  38  68 104 144 168 236 288 346 454
#     4  11  23  46  69 103 148 181 228 293 366 436
#
# _framework density 25.729340000000001
#
# number of rings (size 3 to 8) (size 9 to 14) (size 15 to 20)
#    0.000    1.067    5.333    0.800    5.600    1.067 
#    0.000    8.000    2.933    0.000    0.000    0.000 
#    0.000    0.000    0.000    0.000    0.000    0.000 
#
# Total GULP energy -167750.437972 kJ/mol
# GULP energy per Si atom -5591.681266 kJ/mol
# Density = 2.567078 g / cm^3
# Si number density = 25.729340 Si / 1000 Ang^3
#
#
#
# Elastic Constant Matrix: (Units=GPa)
#
#
# Indices 1 2 3 4 5 6 
#
# 1 56.8779 32.4319 22.0414 0.0000 0.0000 0.0000
# 2 32.4319 120.7507 47.4634 0.0000 0.0000 0.0000
# 3 22.0414 47.4634 146.1715 0.0000 0.0000 0.0000
# 4 0.0000 0.0000 0.0000 60.9628 0.0000 0.0000
# 5 0.0000 0.0000 0.0000 0.0000 25.9160 0.0000
# 6 0.0000 0.0000 0.0000 0.0000 0.0000 45.8477
#
#
#
# Elastic Compliance Matrix: (Units=1/GPa)
#
#
# Indices 1 2 3 4 5 6 
#
# 1 0.021057 -0.005052 -0.001535 0.000000 0.000000 0.000000
# 2 -0.005052 0.010705 -0.002714 0.000000 0.000000 0.000000
# 3 -0.001535 -0.002714 0.007954 0.000000 0.000000 0.000000
# 4 0.000000 0.000000 0.000000 0.016403 0.000000 0.000000
# 5 0.000000 0.000000 0.000000 0.000000 0.038586 0.000000
# 6 0.000000 0.000000 0.000000 0.000000 0.000000 0.021811
#
#
# Mechanical properties :
#
#
# Convention : Reuss Voigt Hill
#
# Bulk Modulus (GPa) = 47.36224 58.63039 52.99632
# Shear Modulus (GPa) = 35.17205 41.33619 38.25412
#
# Velocity S-wave (km/s) = 3.70131 4.01256 3.86007
# Velocity P-wave (km/s) = 6.05922 6.65615 6.36469
#
# Compressibility (1/GPa) = 0.02111387
#
# Stress axis : x y z
#
# Youngs Moduli (GPa) = 47.48983 93.41042 125.72203
#
# Poissons Ratio (x) = 0.47195 0.19294
# Poissons Ratio (y) = 0.23994 0.34125
# Poissons Ratio (z) = 0.07288 0.25354
#
# Static dielectric constant tensor:
#      x y z
#    x 2.134960 0.000000 0.000000 
#    y 0.000000 2.000130 0.000000 
#    z 0.000000 0.000000 1.995240 
# 
# From -- ./inp_files/4904.got.cif
#   From: 2010.05.17/outbox.cif.g08.bks.cpg/sg68_3_cif.got.tgz:4904.got - 2010.06.03 18:57:09.
