data_PCOD9509425
_publ_section_title
;
Structure prediction by ZEFSAII (Michael W. Deem and Ramdas Pophale) SiO2 
 PCOD9509425
Probable space group: C C C A
;
_chemical_formula_sum "Si O2"
_cell_formula_units_Z 64
_cell_length_a 27.571506
_cell_length_b 10.221195
_cell_length_c 8.757826
_cell_angle_alpha 90.000000
_cell_angle_beta 90.000000
_cell_angle_gamma 90.000000
_cell_volume 2468.075693
_symmetry_space_group_name_H-M "C C C A"
_symmetry_group_IT_number 68
_space_group.IT_coordinate_system_code '2'
_symmetry_cell_setting 'orthorhombic'
loop_
_space_group_symop_operation_xyz
x,y,z
-x,1/2-y,z
x,1/2-y,1/2-z
-x,y,1/2-z
-x,-y,-z
x,1/2+y,-z
-x,1/2+y,1/2+z
x,-y,1/2+z
1/2+x,1/2+y,z
1/2-x,-y,z
1/2+x,-y,1/2-z
1/2-x,1/2+y,1/2-z
1/2-x,1/2-y,-z
1/2+x,y,-z
1/2-x,y,1/2+z
1/2+x,1/2-y,1/2+z
loop_
_atom_site_type_symbol
_atom_site_label
_atom_site_fract_x
_atom_site_fract_y
_atom_site_fract_z
Si Si1 0.105908 0.250000 0.750000
Si Si2 0.836049 0.376865 0.027041
Si Si3 0.466293 0.127183 0.026052
Si Si4 0.750000 0.000000 0.085623
Si Si5 0.408640 0.750000 0.250000
Si Si6 0.764103 0.250000 0.250000
O O1 0.137700 0.324341 0.623431
O O2 0.073626 0.359084 0.839834
O O3 0.876942 0.356968 0.156877
O O4 0.795472 0.284128 0.101747
O O5 0.802314 0.505269 0.000660
O O6 0.500000 0.250000 0.061582
O O7 0.439794 0.166912 0.869298
O O8 0.500000 0.000000 0.000000
O O9 0.761344 0.879817 0.197105
#
# Coordination Sequence:
#
# PCOD9509425 Si02
#       6
#     8  16  16   8   8   8
#     4  10  24  50  77 119 158 210 263 337 389 491
#     4  10  23  48  73 113 157 210 268 323 398 458
#     4  11  25  50  81 118 162 205 259 325 417 491
#     4  12  24  46  82 114 162 216 274 336 396 480
#     4   9  23  50  76 118 164 206 260 340 397 488
#     4  11  25  46  75 113 155 212 268 333 398 467
#
# _framework density 25.931135999999999
#
# number of rings (size 3 to 8) (size 9 to 14) (size 15 to 20)
#    0.000    1.500    0.000    3.000    0.000    6.000 
#   45.000    3.750    0.000    4.500    0.000    0.000 
#    0.000    0.000    0.000    0.000    0.000    0.000 
#
# Total GULP energy -178771.936477 kJ/mol
# GULP energy per Si atom -5586.623015 kJ/mol
# Density = 2.587212 g / cm^3
# Si number density = 25.931136 Si / 1000 Ang^3
#
#
#
# Elastic Constant Matrix: (Units=GPa)
#
#
# Indices 1 2 3 4 5 6 
#
# 1 159.8479 54.8603 92.5301 0.0000 0.0000 0.0000
# 2 54.8603 130.2974 45.7470 0.0000 0.0000 0.0000
# 3 92.5301 45.7470 194.2665 0.0000 0.0000 0.0000
# 4 0.0000 0.0000 0.0000 26.3505 0.0000 0.0000
# 5 0.0000 0.0000 0.0000 0.000011765.9371 0.0000
# 6 0.0000 0.0000 0.0000 0.0000 0.0000 38.0023
#
#
#
# Elastic Compliance Matrix: (Units=1/GPa)
#
#
# Indices 1 2 3 4 5 6 
#
# 1 0.009379 -0.002595 -0.003856 0.000000 0.000000 0.000000
# 2 -0.002595 0.009084 -0.000903 0.000000 0.000000 0.000000
# 3 -0.003856 -0.000903 0.007197 0.000000 0.000000 0.000000
# 4 0.000000 0.000000 0.000000 0.037950 0.000000 0.000000
# 5 0.000000 0.000000 0.000000 0.000000 0.000085 0.000000
# 6 0.000000 0.000000 0.000000 0.000000 0.000000 0.026314
#
#
# Mechanical properties :
#
#
# Convention : Reuss Voigt Hill
#
# Bulk Modulus (GPa) = 91.31132 96.74295 94.02714
# Shear Modulus (GPa) = 46.13898 2385.47626 1215.80762
#
# Velocity S-wave (km/s) = 4.22274 30.36321 21.67667
# Velocity P-wave (km/s) = 7.68536 35.58962 25.74574
#
# Compressibility (1/GPa) = 0.01095154
#
# Stress axis : x y z
#
# Youngs Moduli (GPa) = 106.62511 110.07807 138.94827
#
# Poissons Ratio (x) = 0.28565 0.53579
# Poissons Ratio (y) = 0.27669 0.12551
# Poissons Ratio (z) = 0.41115 0.09943
#
# Static dielectric constant tensor:
#      x y z
#    x 1.889560 0.000000 0.000000 
#    y 0.000000 2.028920 0.000000 
#    z 0.000000 0.000000 2.096410 
# 
# From -- ./inp_files/9398.got.cif
#   From: 2010.05.17/outbox.cif.g08.bks.cpg/sg68_5_cif.got.tgz:9398.got - 2010.06.03 18:57:09.
