data_PCOD9509670
_publ_section_title
;
Structure prediction by ZEFSAII (Michael W. Deem and Ramdas Pophale) SiO2 
 PCOD9509670
Probable space group: C C C A
;
_chemical_formula_sum "Si O2"
_cell_formula_units_Z 112
_cell_length_a 12.132778
_cell_length_b 14.503255
_cell_length_c 29.909926
_cell_angle_alpha 90.000000
_cell_angle_beta 90.000000
_cell_angle_gamma 90.000000
_cell_volume 5263.093345
_symmetry_space_group_name_H-M "C C C A"
_symmetry_group_IT_number 68
_space_group.IT_coordinate_system_code '2'
_symmetry_cell_setting 'orthorhombic'
loop_
_space_group_symop_operation_xyz
x,y,z
-x,1/2-y,z
x,1/2-y,1/2-z
-x,y,1/2-z
-x,-y,-z
x,1/2+y,-z
-x,1/2+y,1/2+z
x,-y,1/2+z
1/2+x,1/2+y,z
1/2-x,-y,z
1/2+x,-y,1/2-z
1/2-x,1/2+y,1/2-z
1/2-x,1/2-y,-z
1/2+x,y,-z
1/2-x,y,1/2+z
1/2+x,1/2-y,1/2+z
loop_
_atom_site_type_symbol
_atom_site_label
_atom_site_fract_x
_atom_site_fract_y
_atom_site_fract_z
Si Si1 0.784726 0.106121 0.467243
Si Si2 0.157940 0.228832 0.858782
Si Si3 0.497519 0.916715 0.198743
Si Si4 0.883308 0.725232 0.457158
Si Si5 0.745146 0.107339 0.712669
Si Si6 0.394667 0.313253 0.883231
Si Si7 0.590006 0.126962 0.287252
O O1 0.832430 0.143096 0.514052
O O2 0.687341 0.180542 0.458797
O O3 0.867862 0.122373 0.425778
O O4 0.750000 0.000000 0.468903
O O5 0.104475 0.199212 0.905252
O O6 0.170617 0.146710 0.823508
O O7 0.281655 0.259730 0.872499
O O8 0.100327 0.312508 0.831863
O O9 0.500000 0.883074 0.250000
O O10 0.624806 0.888953 0.189637
O O11 0.425190 0.867031 0.161921
O O12 0.449090 0.021670 0.201559
O O13 0.000000 0.750000 0.477696
O O14 0.791828 0.141436 0.761023
O O15 0.750000 0.000000 0.720840
O O16 0.500000 0.250000 0.894014
O O17 0.500000 0.154698 0.250000
#
# Coordination Sequence:
#
# PCOD9509670 Si02
#       7
#    16  16  16  16  16  16  16
#     4  10  24  47  75 106 136 178 228 291 359 422
#     4  11  26  41  67  97 134 180 231 283 346 413
#     4  11  23  40  65  96 136 184 233 284 337 396
#     4  10  24  46  71 104 142 173 227 295 350 435
#     4  12  23  43  58  93 135 185 231 285 332 411
#     4  11  23  43  69  99 135 178 226 285 343 419
#     4  11  25  42  65  93 140 186 231 287 340 407
#
# _framework density 21.280262
#
# number of rings (size 3 to 8) (size 9 to 14) (size 15 to 20)
#    0.000    1.143    4.286    1.714    6.000    2.000 
#    0.000    0.000    0.000    0.000    0.000    0.000 
#    0.000    0.000    0.000    0.000    0.000    0.000 
#
# Total GULP energy -312138.063242 kJ/mol
# GULP energy per Si atom -5573.893986 kJ/mol
# Density = 2.123183 g / cm^3
# Si number density = 21.280262 Si / 1000 Ang^3
#
#
#
# Elastic Constant Matrix: (Units=GPa)
#
#
# Indices 1 2 3 4 5 6 
#
# 1 85.1287 27.0994 21.2968 0.0000 0.0000 0.0000
# 2 27.0994 110.8478 59.1951 0.0000 0.0000 0.0000
# 3 21.2968 59.1951 135.9270 0.0000 0.0000 0.0000
# 4 0.0000 0.0000 0.0000 16.0033 0.0000 0.0000
# 5 0.0000 0.0000 0.0000 0.0000 27.5638 0.0000
# 6 0.0000 0.0000 0.0000 0.0000 0.0000 44.3173
#
#
#
# Elastic Compliance Matrix: (Units=1/GPa)
#
#
# Indices 1 2 3 4 5 6 
#
# 1 0.012811 -0.002684 -0.000838 0.000000 0.000000 0.000000
# 2 -0.002684 0.012318 -0.004944 0.000000 0.000000 0.000000
# 3 -0.000838 -0.004944 0.009641 0.000000 0.000000 0.000000
# 4 0.000000 0.000000 0.000000 0.062487 0.000000 0.000000
# 5 0.000000 0.000000 0.000000 0.000000 0.036280 0.000000
# 6 0.000000 0.000000 0.000000 0.000000 0.000000 0.022565
#
#
# Mechanical properties :
#
#
# Convention : Reuss Voigt Hill
#
# Bulk Modulus (GPa) = 56.06176 60.78736 58.42456
# Shear Modulus (GPa) = 27.93619 32.53102 30.23361
#
# Velocity S-wave (km/s) = 3.62715 3.91409 3.77335
# Velocity P-wave (km/s) = 6.62898 7.00386 6.81899
#
# Compressibility (1/GPa) = 0.01783747
#
# Stress axis : x y z
#
# Youngs Moduli (GPa) = 78.05700 81.18432 103.72218
#
# Poissons Ratio (x) = 0.21793 0.08694
# Poissons Ratio (y) = 0.20953 0.51277
# Poissons Ratio (z) = 0.06543 0.40135
#
# Static dielectric constant tensor:
#      x y z
#    x 1.905660 0.000000 0.000000 
#    y 0.000000 1.752470 0.000000 
#    z 0.000000 0.000000 1.735580 
# 
# From -- ./inp_files/54837.got.cif
#   From: 2010.05.17/outbox.cif.g08.bks.cpg/sg68_28_cif.got.tgz:54837.got - 2010.06.03 18:57:09.
