data_PCOD9509417
_publ_section_title
;
Structure prediction by ZEFSAII (Michael W. Deem and Ramdas Pophale) SiO2 
 PCOD9509417
Probable space group: C C C A
;
_chemical_formula_sum "Si O2"
_cell_formula_units_Z 56
_cell_length_a 7.268163
_cell_length_b 14.334442
_cell_length_c 20.214324
_cell_angle_alpha 90.000000
_cell_angle_beta 90.000000
_cell_angle_gamma 90.000000
_cell_volume 2106.030578
_symmetry_space_group_name_H-M "C C C A"
_symmetry_group_IT_number 68
_space_group.IT_coordinate_system_code '2'
_symmetry_cell_setting 'orthorhombic'
loop_
_space_group_symop_operation_xyz
x,y,z
-x,1/2-y,z
x,1/2-y,1/2-z
-x,y,1/2-z
-x,-y,-z
x,1/2+y,-z
-x,1/2+y,1/2+z
x,-y,1/2+z
1/2+x,1/2+y,z
1/2-x,-y,z
1/2+x,-y,1/2-z
1/2-x,1/2+y,1/2-z
1/2-x,1/2-y,-z
1/2+x,y,-z
1/2-x,y,1/2+z
1/2+x,1/2-y,1/2+z
loop_
_atom_site_type_symbol
_atom_site_label
_atom_site_fract_x
_atom_site_fract_y
_atom_site_fract_z
Si Si1 0.724367 0.863173 0.438049
Si Si2 0.782832 0.357151 0.765531
Si Si3 0.750000 0.500000 0.162704
Si Si4 0.291185 0.851440 0.415384
O O1 0.842540 0.930862 0.391246
O O2 0.511499 0.862290 0.417221
O O3 0.777835 0.755971 0.424827
O O4 0.729770 0.892451 0.514347
O O5 0.731754 0.250000 0.750000
O O6 0.676573 0.423981 0.714607
O O7 0.760479 0.381685 0.842104
O O8 0.000000 0.367589 0.750000
#
# Coordination Sequence:
#
# PCOD9509417 Si02
#       4
#    16  16   8  16
#     4  10  24  43  75 101 141 183 243 281 349 419
#     4  11  26  45  71 101 146 186 232 291 359 416
#     4  12  26  44  68 114 134 188 236 296 342 428
#     4  10  23  47  70 102 140 193 226 294 349 413
#
# _framework density 26.590306000000002
#
# number of rings (size 3 to 8) (size 9 to 14) (size 15 to 20)
#    0.000    1.429    2.857    0.000    8.000    4.571 
#    0.000    0.000    0.000    0.000    0.000    0.000 
#    0.000    0.000    0.000    0.000    0.000    0.000 
#
# Total GULP energy -156471.402003 kJ/mol
# GULP energy per Si atom -5588.264357 kJ/mol
# Density = 2.652979 g / cm^3
# Si number density = 26.590306 Si / 1000 Ang^3
#
#
#
# Elastic Constant Matrix: (Units=GPa)
#
#
# Indices 1 2 3 4 5 6 
#
# 1 98.6294 1.0604 50.8023 0.0000 0.0000 0.0000
# 2 1.0604 175.4815 74.7704 0.0000 0.0000 0.0000
# 3 50.8023 74.7704 345.9536 0.0000 0.0000 0.0000
# 4 0.0000 0.0000 0.0000 55.9862 0.0000 0.0000
# 5 0.0000 0.0000 0.0000 0.0000 28.3743 0.0000
# 6 0.0000 0.0000 0.0000 0.0000 0.0000 -6.0413
#
#
#
# Elastic Compliance Matrix: (Units=1/GPa)
#
#
# Indices 1 2 3 4 5 6 
#
# 1 0.011043 0.000688 -0.001770 0.000000 0.000000 0.000000
# 2 0.000688 0.006319 -0.001467 0.000000 0.000000 0.000000
# 3 -0.001770 -0.001467 0.003468 0.000000 0.000000 0.000000
# 4 0.000000 0.000000 0.000000 0.017862 0.000000 0.000000
# 5 0.000000 0.000000 0.000000 0.000000 0.035243 0.000000
# 6 0.000000 0.000000 0.000000 0.000000 0.000000 -0.165527
#
#
# Mechanical properties :
#
#
# Convention : Reuss Voigt Hill
#
# Bulk Modulus (GPa) = 63.56725 97.03674 80.30199
# Shear Modulus (GPa) = -61.53913 48.55927 -6.48993
#
# Velocity S-wave (km/s) = -4.81598 4.27804 -1.56397
# Velocity P-wave (km/s) = 2.63948 7.80863 5.19653
#
# Compressibility (1/GPa) = 0.01573137
#
# Stress axis : x y z
#
# Youngs Moduli (GPa) = 90.55170 158.24225 288.38930
#
# Poissons Ratio (x) = -0.10880 0.51053
# Poissons Ratio (y) = -0.06226 0.42300
# Poissons Ratio (z) = 0.16030 0.23211
#
# Static dielectric constant tensor:
#      x y z
#    x 2.135870 0.000000 0.000000 
#    y 0.000000 2.144210 0.000000 
#    z 0.000000 0.000000 2.012600 
# 
# From -- ./inp_files/35606.got.cif
#   From: 2010.05.17/outbox.cif.g08.bks.cpg/sg68_18_cif.got.tgz:35606.got - 2010.06.03 18:57:09.
