data_PCOD9509051
_publ_section_title
;
Structure prediction by ZEFSAII (Michael W. Deem and Ramdas Pophale) SiO2 
 PCOD9509051
Probable space group: C C C A
;
_chemical_formula_sum "Si O2"
_cell_formula_units_Z 68
_cell_length_a 27.451747
_cell_length_b 5.345209
_cell_length_c 19.762021
_cell_angle_alpha 90.000000
_cell_angle_beta 90.000000
_cell_angle_gamma 90.000000
_cell_volume 2899.786577
_symmetry_space_group_name_H-M "C C C A"
_symmetry_group_IT_number 68
_space_group.IT_coordinate_system_code '2'
_symmetry_cell_setting 'orthorhombic'
loop_
_space_group_symop_operation_xyz
x,y,z
-x,1/2-y,z
x,1/2-y,1/2-z
-x,y,1/2-z
-x,-y,-z
x,1/2+y,-z
-x,1/2+y,1/2+z
x,-y,1/2+z
1/2+x,1/2+y,z
1/2-x,-y,z
1/2+x,-y,1/2-z
1/2-x,1/2+y,1/2-z
1/2-x,1/2-y,-z
1/2+x,y,-z
1/2-x,y,1/2+z
1/2+x,1/2-y,1/2+z
loop_
_atom_site_type_symbol
_atom_site_label
_atom_site_fract_x
_atom_site_fract_y
_atom_site_fract_z
Si Si1 0.214392 0.250000 0.250000
Si Si2 0.422935 0.617639 0.854903
Si Si3 0.847658 0.750000 0.250000
Si Si4 0.500000 0.750000 0.750000
Si Si5 0.649532 0.093301 0.954610
Si Si6 0.750000 0.000000 0.873444
Si Si7 0.500000 0.250000 0.042441
O O1 0.180627 0.490847 0.252519
O O2 0.245916 0.227070 0.181122
O O3 0.381367 0.766093 0.815935
O O4 0.464617 0.579267 0.797234
O O5 0.392856 0.411748 0.897235
O O6 0.452543 0.764731 0.911149
O O7 0.701982 0.041116 0.918519
O O8 0.645593 0.854150 0.005077
O O9 0.500000 0.500000 0.000000
#
# Coordination Sequence:
#
# PCOD9509051 Si02
#       7
#     8  16   8   4  16   8   8
#     4  12  27  45  74 104 136 194 229 322 361 422
#     4  10  22  46  71 107 143 186 242 300 371 437
#     4  11  25  45  72 103 142 181 240 301 374 424
#     4   8  20  42  80 110 144 184 238 328 370 430
#     4  12  28  46  72 103 149 201 240 296 355 442
#     4  12  28  48  74 108 150 186 262 298 372 430
#     4  11  24  43  72 101 140 187 236 288 356 445
#
# _framework density 23.450002999999999
#
# number of rings (size 3 to 8) (size 9 to 14) (size 15 to 20)
#    0.000    0.941    2.353    2.824    3.294    3.765 
#    0.000    0.000    0.000   12.706    0.000    0.000 
#    0.000    0.000    0.000    0.000    0.000    0.000 
#
# Total GULP energy -189766.326105 kJ/mol
# GULP energy per Si atom -5581.362533 kJ/mol
# Density = 2.339663 g / cm^3
# Si number density = 23.450003 Si / 1000 Ang^3
#
#
#
# Elastic Constant Matrix: (Units=GPa)
#
#
# Indices 1 2 3 4 5 6 
#
# 1 118.2806 53.9598 49.9166 0.0000 0.0000 0.0000
# 2 53.9598 149.6997 63.2911 0.0000 0.0000 0.0000
# 3 49.9166 63.2911 138.1721 0.0000 0.0000 0.0000
# 4 0.0000 0.0000 0.0000 23.7947 0.0000 0.0000
# 5 0.0000 0.0000 0.0000 0.0000 22.7267 0.0000
# 6 0.0000 0.0000 0.0000 0.0000 0.0000 16.1648
#
#
#
# Elastic Compliance Matrix: (Units=1/GPa)
#
#
# Indices 1 2 3 4 5 6 
#
# 1 0.010842 -0.002793 -0.002637 0.000000 0.000000 0.000000
# 2 -0.002793 0.009004 -0.003115 0.000000 0.000000 0.000000
# 3 -0.002637 -0.003115 0.009617 0.000000 0.000000 0.000000
# 4 0.000000 0.000000 0.000000 0.042026 0.000000 0.000000
# 5 0.000000 0.000000 0.000000 0.000000 0.044001 0.000000
# 6 0.000000 0.000000 0.000000 0.000000 0.000000 0.061863
#
#
# Mechanical properties :
#
#
# Convention : Reuss Voigt Hill
#
# Bulk Modulus (GPa) = 80.83124 82.27637 81.55380
# Shear Modulus (GPa) = 25.18034 28.46957 26.82495
#
# Velocity S-wave (km/s) = 3.28043 3.48811 3.38586
# Velocity P-wave (km/s) = 6.99233 7.16830 7.08086
#
# Compressibility (1/GPa) = 0.01237145
#
# Stress axis : x y z
#
# Youngs Moduli (GPa) = 92.23727 111.06343 103.98075
#
# Poissons Ratio (x) = 0.31018 0.27424
# Poissons Ratio (y) = 0.25760 0.32394
# Poissons Ratio (z) = 0.24327 0.34600
#
# Static dielectric constant tensor:
#      x y z
#    x 1.967140 0.000000 0.000000 
#    y 0.000000 1.830580 0.000000 
#    z 0.000000 0.000000 1.932260 
# 
# From -- ./inp_files/35130.got.cif
#   From: 2010.05.17/outbox.cif.g08.bks.cpg/sg68_18_cif.got.tgz:35130.got - 2010.06.03 18:57:09.
