data_PCOD9509898
_publ_section_title
;
Structure prediction by ZEFSAII (Michael W. Deem and Ramdas Pophale) SiO2 
 PCOD9509898
Probable space group: C C C A
;
_chemical_formula_sum "Si O2"
_cell_formula_units_Z 56
_cell_length_a 10.238302
_cell_length_b 9.290379
_cell_length_c 24.006917
_cell_angle_alpha 90.000000
_cell_angle_beta 90.000000
_cell_angle_gamma 90.000000
_cell_volume 2283.482871
_symmetry_space_group_name_H-M "C C C A"
_symmetry_group_IT_number 68
_space_group.IT_coordinate_system_code '2'
_symmetry_cell_setting 'orthorhombic'
loop_
_space_group_symop_operation_xyz
x,y,z
-x,1/2-y,z
x,1/2-y,1/2-z
-x,y,1/2-z
-x,-y,-z
x,1/2+y,-z
-x,1/2+y,1/2+z
x,-y,1/2+z
1/2+x,1/2+y,z
1/2-x,-y,z
1/2+x,-y,1/2-z
1/2-x,1/2+y,1/2-z
1/2-x,1/2-y,-z
1/2+x,y,-z
1/2-x,y,1/2+z
1/2+x,1/2-y,1/2+z
loop_
_atom_site_type_symbol
_atom_site_label
_atom_site_fract_x
_atom_site_fract_y
_atom_site_fract_z
Si Si1 0.250000 0.500000 0.512272
Si Si2 0.883444 0.327624 0.150655
Si Si3 0.219990 0.750000 0.250000
Si Si4 0.143398 0.214703 0.571923
Si Si5 0.000000 0.483671 0.750000
O O1 0.188872 0.368903 0.547391
O O2 0.143974 0.588676 0.474872
O O3 0.816741 0.234872 0.198789
O O4 0.756905 0.345311 0.112304
O O5 0.000000 0.250000 0.117847
O O6 0.957563 0.441584 0.190958
O O7 0.125965 0.615634 0.243628
O O8 0.000000 0.250000 0.596242
#
# Coordination Sequence:
#
# PCOD9509898 Si02
#       5
#     8  16   8  16   8
#     4  10  26  54  78 116 156 194 262 332 380 462
#     4  12  26  47  72 112 154 202 250 313 381 449
#     4  11  25  44  72 100 146 202 256 308 370 454
#     4  11  27  49  83 114 154 204 258 320 391 463
#     4  11  25  46  70 102 149 197 258 314 368 451
#
# _framework density 24.523942000000002
#
# number of rings (size 3 to 8) (size 9 to 14) (size 15 to 20)
#    0.000    0.857    2.857    1.714    8.000    9.143 
#    0.000    0.000    0.000    0.000    0.000    0.000 
#    0.000    0.000    0.000    0.000    0.000    0.000 
#
# Total GULP energy -155950.562311 kJ/mol
# GULP energy per Si atom -5569.662940 kJ/mol
# Density = 2.446812 g / cm^3
# Si number density = 24.523942 Si / 1000 Ang^3
#
#
#
# Elastic Constant Matrix: (Units=GPa)
#
#
# Indices 1 2 3 4 5 6 
#
# 1 197.3596 68.2478 47.7216 0.0000 0.0000 0.0000
# 2 68.2478 152.2828 42.6699 0.0000 0.0000 0.0000
# 3 47.7216 42.6699 74.6857 0.0000 0.0000 0.0000
# 4 0.0000 0.0000 0.0000 33.5168 0.0000 0.0000
# 5 0.0000 0.0000 0.0000 0.0000 36.6340 0.0000
# 6 0.0000 0.0000 0.0000 0.0000 0.0000 26.5767
#
#
#
# Elastic Compliance Matrix: (Units=1/GPa)
#
#
# Indices 1 2 3 4 5 6 
#
# 1 0.006505 -0.002084 -0.002966 0.000000 0.000000 0.000000
# 2 -0.002084 0.008486 -0.003517 0.000000 0.000000 0.000000
# 3 -0.002966 -0.003517 0.017293 0.000000 0.000000 0.000000
# 4 0.000000 0.000000 0.000000 0.029836 0.000000 0.000000
# 5 0.000000 0.000000 0.000000 0.000000 0.027297 0.000000
# 6 0.000000 0.000000 0.000000 0.000000 0.000000 0.037627
#
#
# Mechanical properties :
#
#
# Convention : Reuss Voigt Hill
#
# Bulk Modulus (GPa) = 65.99963 82.40073 74.20018
# Shear Modulus (GPa) = 33.50592 37.05807 35.28199
#
# Velocity S-wave (km/s) = 3.70030 3.89150 3.79710
# Velocity P-wave (km/s) = 6.72510 7.33926 7.03888
#
# Compressibility (1/GPa) = 0.01515160
#
# Stress axis : x y z
#
# Youngs Moduli (GPa) = 153.73520 117.83873 57.82540
#
# Poissons Ratio (x) = 0.24560 0.17148
# Poissons Ratio (y) = 0.32042 0.20335
# Poissons Ratio (z) = 0.45590 0.41439
#
# Static dielectric constant tensor:
#      x y z
#    x 1.909430 0.000000 0.000000 
#    y 0.000000 2.007100 0.000000 
#    z 0.000000 0.000000 2.061180 
# 
# From -- ./inp_files/49932.got.cif
#   From: 2010.05.17/outbox.cif.g08.bks.cpg/sg68_25_cif.got.tgz:49932.got - 2010.06.03 18:57:09.
