data_PCOD9509149
_publ_section_title
;
Structure prediction by ZEFSAII (Michael W. Deem and Ramdas Pophale) SiO2 
 PCOD9509149
Probable space group: C C C A
;
_chemical_formula_sum "Si O2"
_cell_formula_units_Z 64
_cell_length_a 7.551454
_cell_length_b 12.494666
_cell_length_c 32.165880
_cell_angle_alpha 90.000000
_cell_angle_beta 90.000000
_cell_angle_gamma 90.000000
_cell_volume 3034.943916
_symmetry_space_group_name_H-M "C C C A"
_symmetry_group_IT_number 68
_space_group.IT_coordinate_system_code '2'
_symmetry_cell_setting 'orthorhombic'
loop_
_space_group_symop_operation_xyz
x,y,z
-x,1/2-y,z
x,1/2-y,1/2-z
-x,y,1/2-z
-x,-y,-z
x,1/2+y,-z
-x,1/2+y,1/2+z
x,-y,1/2+z
1/2+x,1/2+y,z
1/2-x,-y,z
1/2+x,-y,1/2-z
1/2-x,1/2+y,1/2-z
1/2-x,1/2-y,-z
1/2+x,y,-z
1/2-x,y,1/2+z
1/2+x,1/2-y,1/2+z
loop_
_atom_site_type_symbol
_atom_site_label
_atom_site_fract_x
_atom_site_fract_y
_atom_site_fract_z
Si Si1 0.071847 0.869168 0.450812
Si Si2 0.291917 0.729329 0.297642
Si Si3 0.876981 0.904971 0.142536
Si Si4 0.750000 0.000000 0.333259
Si Si5 0.750000 0.500000 0.019954
O O1 0.160117 0.875451 0.405501
O O2 0.000000 0.750000 0.456209
O O3 0.912821 0.955755 0.453683
O O4 0.195733 0.904242 0.488814
O O5 0.500000 0.750000 0.304344
O O6 0.242005 0.750000 0.250000
O O7 0.174113 0.803535 0.328451
O O8 0.282778 0.603708 0.305797
O O9 0.750000 0.000000 0.156847
O O10 0.073993 0.956966 0.143280
#
# Coordination Sequence:
#
# PCOD9509149 Si02
#       5
#    16  16  16   8   8
#     4  11  22  42  66  95 136 177 223 285 338 408
#     4  11  26  45  72 103 134 182 233 288 355 420
#     4  12  25  46  70 103 140 183 236 285 349 419
#     4  12  25  44  71  96 138 180 226 288 345 416
#     4  10  23  40  65 100 128 180 230 272 351 404
#
# _framework density 21.087703999999999
#
# number of rings (size 3 to 8) (size 9 to 14) (size 15 to 20)
#    0.000    0.750    3.750    3.750    1.750    2.000 
#    0.000    1.250    0.000    0.000    0.000    0.000 
#    0.000    0.000    0.000    0.000    0.000    0.000 
#
# Total GULP energy -178624.040978 kJ/mol
# GULP energy per Si atom -5582.001281 kJ/mol
# Density = 2.103971 g / cm^3
# Si number density = 21.087704 Si / 1000 Ang^3
#
#
#
# Elastic Constant Matrix: (Units=GPa)
#
#
# Indices 1 2 3 4 5 6 
#
# 1 77.0540 14.3193 25.5919 0.0000 0.0000 0.0000
# 2 14.3193 168.2056 58.6669 0.0000 0.0000 0.0000
# 3 25.5919 58.6669 134.1678 0.0000 0.0000 0.0000
# 4 0.0000 0.0000 0.0000 -70.6656 0.0000 0.0000
# 5 0.0000 0.0000 0.0000 0.0000 21.3969 0.0000
# 6 0.0000 0.0000 0.0000 0.0000 0.0000 36.6124
#
#
#
# Elastic Compliance Matrix: (Units=1/GPa)
#
#
# Indices 1 2 3 4 5 6 
#
# 1 0.013869 -0.000304 -0.002512 0.000000 0.000000 0.000000
# 2 -0.000304 0.007022 -0.003012 0.000000 0.000000 0.000000
# 3 -0.002512 -0.003012 0.009250 0.000000 0.000000 0.000000
# 4 0.000000 0.000000 0.000000 -0.014151 0.000000 0.000000
# 5 0.000000 0.000000 0.000000 0.000000 0.046736 0.000000
# 6 0.000000 0.000000 0.000000 0.000000 0.000000 0.027313
#
#
# Mechanical properties :
#
#
# Convention : Reuss Voigt Hill
#
# Bulk Modulus (GPa) = 54.10585 64.06485 59.08535
# Shear Modulus (GPa) = 46.35782 16.19201 31.27491
#
# Velocity S-wave (km/s) = 4.69373 2.77400 3.85527
# Velocity P-wave (km/s) = 7.42213 6.38015 6.92077
#
# Compressibility (1/GPa) = 0.01848229
#
# Stress axis : x y z
#
# Youngs Moduli (GPa) = 72.10378 142.41691 108.11137
#
# Poissons Ratio (x) = 0.04335 0.27161
# Poissons Ratio (y) = 0.02195 0.32566
# Poissons Ratio (z) = 0.18115 0.42900
#
# Static dielectric constant tensor:
#      x y z
#    x 1.845180 0.000000 0.000000 
#    y 0.000000 1.725880 0.000000 
#    z 0.000000 0.000000 1.737490 
# 
# From -- ./inp_files/53802.got.cif
#   From: 2010.05.17/outbox.cif.g08.bks.cpg/sg68_27_cif.got.tgz:53802.got - 2010.06.03 18:57:09.
