data_PCOD9509297
_publ_section_title
;
Structure prediction by ZEFSAII (Michael W. Deem and Ramdas Pophale) SiO2 
 PCOD9509297
Probable space group: C C C A
;
_chemical_formula_sum "Si O2"
_cell_formula_units_Z 64
_cell_length_a 15.564768
_cell_length_b 16.461952
_cell_length_c 9.247003
_cell_angle_alpha 90.000000
_cell_angle_beta 90.000000
_cell_angle_gamma 90.000000
_cell_volume 2369.326879
_symmetry_space_group_name_H-M "C C C A"
_symmetry_group_IT_number 68
_space_group.IT_coordinate_system_code '2'
_symmetry_cell_setting 'orthorhombic'
loop_
_space_group_symop_operation_xyz
x,y,z
-x,1/2-y,z
x,1/2-y,1/2-z
-x,y,1/2-z
-x,-y,-z
x,1/2+y,-z
-x,1/2+y,1/2+z
x,-y,1/2+z
1/2+x,1/2+y,z
1/2-x,-y,z
1/2+x,-y,1/2-z
1/2-x,1/2+y,1/2-z
1/2-x,1/2-y,-z
1/2+x,y,-z
1/2-x,y,1/2+z
1/2+x,1/2-y,1/2+z
loop_
_atom_site_type_symbol
_atom_site_label
_atom_site_fract_x
_atom_site_fract_y
_atom_site_fract_z
Si Si1 0.925038 0.163258 0.030892
Si Si2 0.845678 0.462485 0.674451
Si Si3 0.835113 0.304714 0.871440
Si Si4 0.385477 0.859115 0.158904
O O1 0.876429 0.177888 0.181675
O O2 0.023266 0.159272 0.081785
O O3 0.886850 0.081580 0.963304
O O4 0.903687 0.233223 0.914498
O O5 0.750000 0.500000 0.659494
O O6 0.851327 0.392528 0.796708
O O7 0.894976 0.545865 0.696190
O O8 0.787549 0.250000 0.750000
O O9 0.814775 0.335557 0.036033
#
# Coordination Sequence:
#
# PCOD9509297 Si02
#       4
#    16  16  16  16
#     4  10  23  43  69 104 143 192 251 318 383 450
#     4  11  25  45  68 102 148 198 248 304 381 465
#     4  10  23  43  69 102 141 190 245 306 375 448
#     4  11  22  41  72 108 142 187 253 322 382 452
#
# _framework density 27.011890000000001
#
# number of rings (size 3 to 8) (size 9 to 14) (size 15 to 20)
#    0.000    1.500    0.000    3.750    0.000   15.000 
#    0.000   13.750    0.000    0.000    0.000    0.000 
#    0.000    0.000    0.000    0.000    0.000    0.000 
#
# Total GULP energy -178345.472348 kJ/mol
# GULP energy per Si atom -5573.296011 kJ/mol
# Density = 2.695041 g / cm^3
# Si number density = 27.011890 Si / 1000 Ang^3
#
#
#
# Elastic Constant Matrix: (Units=GPa)
#
#
# Indices 1 2 3 4 5 6 
#
# 1 91.4760 26.5774 48.1385 0.0000 0.0000 0.0000
# 2 26.5774 140.8551 40.8225 0.0000 0.0000 0.0000
# 3 48.1385 40.8225 212.1076 0.0000 0.0000 0.0000
# 4 0.0000 0.0000 0.0000 69.2570 0.0000 0.0000
# 5 0.0000 0.0000 0.0000 0.0000 44.8862 0.0000
# 6 0.0000 0.0000 0.0000 0.0000 0.0000 -46.3454
#
#
#
# Elastic Compliance Matrix: (Units=1/GPa)
#
#
# Indices 1 2 3 4 5 6 
#
# 1 0.012772 -0.001663 -0.002579 0.000000 0.000000 0.000000
# 2 -0.001663 0.007735 -0.001111 0.000000 0.000000 0.000000
# 3 -0.002579 -0.001111 0.005514 0.000000 0.000000 0.000000
# 4 0.000000 0.000000 0.000000 0.014439 0.000000 0.000000
# 5 0.000000 0.000000 0.000000 0.000000 0.022279 0.000000
# 6 0.000000 0.000000 0.000000 0.000000 0.000000 -0.021577
#
#
# Mechanical properties :
#
#
# Convention : Reuss Voigt Hill
#
# Bulk Modulus (GPa) = 65.29259 75.05729 70.17494
# Shear Modulus (GPa) = 87.76289 35.48626 61.62458
#
# Velocity S-wave (km/s) = 5.70622 3.62847 4.78157
# Velocity P-wave (km/s) = 8.22429 6.73806 7.51799
#
# Compressibility (1/GPa) = 0.01531567
#
# Stress axis : x y z
#
# Youngs Moduli (GPa) = 78.29719 129.27737 181.36550
#
# Poissons Ratio (x) = 0.21493 0.46768
# Poissons Ratio (y) = 0.13017 0.20158
# Poissons Ratio (z) = 0.20190 0.14368
#
# Static dielectric constant tensor:
#      x y z
#    x 2.240610 0.000000 0.000000 
#    y 0.000000 2.116610 0.000000 
#    z 0.000000 0.000000 2.163920 
# 
# From -- ./inp_files/6778.got.cif
#   From: 2010.05.17/outbox.cif.g08.bks.cpg/sg68_4_cif.got.tgz:6778.got - 2010.06.03 18:57:09.
