data_PCOD9509060
_publ_section_title
;
Structure prediction by ZEFSAII (Michael W. Deem and Ramdas Pophale) SiO2 
 PCOD9509060
Probable space group: C C C A
;
_chemical_formula_sum "Si O2"
_cell_formula_units_Z 48
_cell_length_a 10.646944
_cell_length_b 19.048993
_cell_length_c 8.833348
_cell_angle_alpha 90.000000
_cell_angle_beta 90.000000
_cell_angle_gamma 90.000000
_cell_volume 1791.522770
_symmetry_space_group_name_H-M "C C C A"
_symmetry_group_IT_number 68
_space_group.IT_coordinate_system_code '2'
_symmetry_cell_setting 'orthorhombic'
loop_
_space_group_symop_operation_xyz
x,y,z
-x,1/2-y,z
x,1/2-y,1/2-z
-x,y,1/2-z
-x,-y,-z
x,1/2+y,-z
-x,1/2+y,1/2+z
x,-y,1/2+z
1/2+x,1/2+y,z
1/2-x,-y,z
1/2+x,-y,1/2-z
1/2-x,1/2+y,1/2-z
1/2-x,1/2-y,-z
1/2+x,y,-z
1/2-x,y,1/2+z
1/2+x,1/2-y,1/2+z
loop_
_atom_site_type_symbol
_atom_site_label
_atom_site_fract_x
_atom_site_fract_y
_atom_site_fract_z
Si Si1 0.358514 0.309178 0.378296
Si Si2 0.000000 0.424757 0.750000
Si Si3 0.250000 0.500000 0.161981
Si Si4 0.636797 0.358323 0.821312
O O1 0.377975 0.250000 0.250000
O O2 0.472265 0.367263 0.379800
O O3 0.353004 0.294887 0.557142
O O4 0.233655 0.345739 0.314730
O O5 0.122578 0.472291 0.740238
O O6 0.305716 0.572268 0.094908
O O7 0.500000 0.366584 0.750000
#
# Coordination Sequence:
#
# PCOD9509060 Si02
#       4
#    16   8   8  16
#     4  11  26  49  74 109 160 210 275 326 394 475
#     4  10  23  44  78 108 157 208 256 334 402 472
#     4  10  22  46  74 122 162 204 264 326 410 488
#     4  11  26  46  78 119 158 216 262 335 403 478
#
# _framework density 26.792847999999999
#
# number of rings (size 3 to 8) (size 9 to 14) (size 15 to 20)
#    0.000    1.333    1.667    1.500    9.333    7.333 
#    6.000    0.000    0.000    0.000    0.000    0.000 
#    0.000    0.000    0.000    0.000    0.000    0.000 
#
# Total GULP energy -133716.267699 kJ/mol
# GULP energy per Si atom -5571.511154 kJ/mol
# Density = 2.673187 g / cm^3
# Si number density = 26.792848 Si / 1000 Ang^3
#
#
#
# Elastic Constant Matrix: (Units=GPa)
#
#
# Indices 1 2 3 4 5 6 
#
# 1 208.4256 64.7750 51.0554 0.0000 0.0000 0.0000
# 2 64.7750 133.5497 41.4296 0.0000 0.0000 0.0000
# 3 51.0554 41.4296 151.5823 0.0000 0.0000 0.0000
# 4 0.0000 0.0000 0.0000 4.2800 0.0000 0.0000
# 5 0.0000 0.0000 0.0000 0.0000 31.1866 0.0000
# 6 0.0000 0.0000 0.0000 0.0000 0.0000 40.2701
#
#
#
# Elastic Compliance Matrix: (Units=1/GPa)
#
#
# Indices 1 2 3 4 5 6 
#
# 1 0.005879 -0.002444 -0.001312 0.000000 0.000000 0.000000
# 2 -0.002444 0.009198 -0.001691 0.000000 0.000000 0.000000
# 3 -0.001312 -0.001691 0.007501 0.000000 0.000000 0.000000
# 4 0.000000 0.000000 0.000000 0.233642 0.000000 0.000000
# 5 0.000000 0.000000 0.000000 0.000000 0.032065 0.000000
# 6 0.000000 0.000000 0.000000 0.000000 0.000000 0.024832
#
#
# Mechanical properties :
#
#
# Convention : Reuss Voigt Hill
#
# Bulk Modulus (GPa) = 85.58850 89.78639 87.68745
# Shear Modulus (GPa) = 15.24826 37.56719 26.40773
#
# Velocity S-wave (km/s) = 2.38821 3.74857 3.14287
# Velocity P-wave (km/s) = 6.29433 7.23324 6.78006
#
# Compressibility (1/GPa) = 0.01168381
#
# Stress axis : x y z
#
# Youngs Moduli (GPa) = 170.09837 108.72032 133.31459
#
# Poissons Ratio (x) = 0.26576 0.17491
# Poissons Ratio (y) = 0.41579 0.22538
# Poissons Ratio (z) = 0.22317 0.18380
#
# Static dielectric constant tensor:
#      x y z
#    x 2.165240 0.000000 0.000000 
#    y 0.000000 2.198830 0.000000 
#    z 0.000000 0.000000 2.169800 
# 
# From -- ./inp_files/11363.got.cif
#   From: 2010.05.17/outbox.cif.g08.bks.cpg/sg68_6_cif.got.tgz:11363.got - 2010.06.03 18:57:09.
