data_PCOD9509657
_publ_section_title
;
Structure prediction by ZEFSAII (Michael W. Deem and Ramdas Pophale) SiO2 
 PCOD9509657
Probable space group: C C C A
;
_chemical_formula_sum "Si O2"
_cell_formula_units_Z 60
_cell_length_a 24.360881
_cell_length_b 11.115568
_cell_length_c 9.542353
_cell_angle_alpha 90.000000
_cell_angle_beta 90.000000
_cell_angle_gamma 90.000000
_cell_volume 2583.926337
_symmetry_space_group_name_H-M "C C C A"
_symmetry_group_IT_number 68
_space_group.IT_coordinate_system_code '2'
_symmetry_cell_setting 'orthorhombic'
loop_
_space_group_symop_operation_xyz
x,y,z
-x,1/2-y,z
x,1/2-y,1/2-z
-x,y,1/2-z
-x,-y,-z
x,1/2+y,-z
-x,1/2+y,1/2+z
x,-y,1/2+z
1/2+x,1/2+y,z
1/2-x,-y,z
1/2+x,-y,1/2-z
1/2-x,1/2+y,1/2-z
1/2-x,1/2-y,-z
1/2+x,y,-z
1/2-x,y,1/2+z
1/2+x,1/2-y,1/2+z
loop_
_atom_site_type_symbol
_atom_site_label
_atom_site_fract_x
_atom_site_fract_y
_atom_site_fract_z
Si Si1 0.292493 0.152075 0.058042
Si Si2 0.565730 0.111356 0.730038
Si Si3 0.250000 0.500000 0.683044
Si Si4 0.000000 0.250000 0.750000
Si Si5 0.590186 0.397773 0.084792
O O1 0.292955 0.054792 0.929564
O O2 0.250000 0.250000 0.000000
O O3 0.271771 0.098901 0.206493
O O4 0.355602 0.184695 0.083210
O O5 0.582632 0.250000 0.750000
O O6 0.500000 0.104953 0.750000
O O7 0.575870 0.071512 0.572913
O O8 0.597804 0.021686 0.831714
O O9 0.039378 0.330009 0.845604
#
# Coordination Sequence:
#
# PCOD9509657 Si02
#       5
#    16  16   8   4  16
#     4  11  25  46  75 102 146 189 249 308 379 446
#     4  11  25  46  74 108 153 198 257 314 393 459
#     4  10  24  46  68 110 136 188 250 306 374 450
#     4  12  28  44  76 112 156 208 262 312 396 452
#     4  12  27  46  74 110 152 200 258 318 387 468
#
# _framework density 23.220476000000001
#
# number of rings (size 3 to 8) (size 9 to 14) (size 15 to 20)
#    0.000    0.800    1.333    4.800    7.467    6.400 
#    0.000    0.000    0.000    0.000    0.000    0.000 
#    0.000    0.000    0.000    0.000    0.000    0.000 
#
# Total GULP energy -167891.426980 kJ/mol
# GULP energy per Si atom -5596.380899 kJ/mol
# Density = 2.316762 g / cm^3
# Si number density = 23.220476 Si / 1000 Ang^3
#
#
#
# Elastic Constant Matrix: (Units=GPa)
#
#
# Indices 1 2 3 4 5 6 
#
# 1 135.8144 35.2151 36.2858 0.0000 0.0000 0.0000
# 2 35.2151 100.9045 49.3792 0.0000 0.0000 0.0000
# 3 36.2858 49.3792 210.2654 0.0000 0.0000 0.0000
# 4 0.0000 0.0000 0.0000 22.0898 0.0000 0.0000
# 5 0.0000 0.0000 0.0000 0.0000 1.9774 0.0000
# 6 0.0000 0.0000 0.0000 0.0000 0.0000 23.4046
#
#
#
# Elastic Compliance Matrix: (Units=1/GPa)
#
#
# Indices 1 2 3 4 5 6 
#
# 1 0.008225 -0.002459 -0.000842 0.000000 0.000000 0.000000
# 2 -0.002459 0.011932 -0.002378 0.000000 0.000000 0.000000
# 3 -0.000842 -0.002378 0.005460 0.000000 0.000000 0.000000
# 4 0.000000 0.000000 0.000000 0.045270 0.000000 0.000000
# 5 0.000000 0.000000 0.000000 0.000000 0.505703 0.000000
# 6 0.000000 0.000000 0.000000 0.000000 0.000000 0.042727
#
#
# Mechanical properties :
#
#
# Convention : Reuss Voigt Hill
#
# Bulk Modulus (GPa) = 70.12581 76.52716 73.32648
# Shear Modulus (GPa) = 7.86873 31.23465 19.55169
#
# Velocity S-wave (km/s) = 1.84284 3.67159 2.90488
# Velocity P-wave (km/s) = 5.89861 7.14159 6.54966
#
# Compressibility (1/GPa) = 0.01426009
#
# Stress axis : x y z
#
# Youngs Moduli (GPa) = 121.57395 83.80808 183.16216
#
# Poissons Ratio (x) = 0.20605 0.15424
# Poissons Ratio (y) = 0.29889 0.43554
# Poissons Ratio (z) = 0.10238 0.19928
#
# Static dielectric constant tensor:
#      x y z
#    x 1.899470 0.000000 0.000000 
#    y 0.000000 1.907350 0.000000 
#    z 0.000000 0.000000 1.819950 
# 
# From -- ./inp_files/3945.got.cif
#   From: 2010.05.17/outbox.cif.g08.bks.cpg/sg68_2_cif.got.tgz:3945.got - 2010.06.03 18:57:09.
