data_PCOD9509884
_publ_section_title
;
Structure prediction by ZEFSAII (Michael W. Deem and Ramdas Pophale) SiO2 
 PCOD9509884
Probable space group: C C C A
;
_chemical_formula_sum "Si O2"
_cell_formula_units_Z 64
_cell_length_a 25.600006
_cell_length_b 9.352017
_cell_length_c 12.734889
_cell_angle_alpha 90.000000
_cell_angle_beta 90.000000
_cell_angle_gamma 90.000000
_cell_volume 3048.881314
_symmetry_space_group_name_H-M "C C C A"
_symmetry_group_IT_number 68
_space_group.IT_coordinate_system_code '2'
_symmetry_cell_setting 'orthorhombic'
loop_
_space_group_symop_operation_xyz
x,y,z
-x,1/2-y,z
x,1/2-y,1/2-z
-x,y,1/2-z
-x,-y,-z
x,1/2+y,-z
-x,1/2+y,1/2+z
x,-y,1/2+z
1/2+x,1/2+y,z
1/2-x,-y,z
1/2+x,-y,1/2-z
1/2-x,1/2+y,1/2-z
1/2-x,1/2-y,-z
1/2+x,y,-z
1/2-x,y,1/2+z
1/2+x,1/2-y,1/2+z
loop_
_atom_site_type_symbol
_atom_site_label
_atom_site_fract_x
_atom_site_fract_y
_atom_site_fract_z
Si Si1 0.000000 0.750000 0.750000
Si Si2 0.000000 0.250000 0.750000
Si Si3 0.160203 0.963367 0.924373
Si Si4 0.790661 0.326746 0.077556
Si Si5 0.960614 0.001274 0.600873
Si Si6 0.250000 0.000000 0.761567
O O1 0.969863 0.859723 0.672473
O O2 0.970232 0.358886 0.827408
O O3 0.165014 0.793044 0.912040
O O4 0.100167 0.004895 0.927713
O O5 0.198710 0.023314 0.833195
O O6 0.186375 0.029305 0.028029
O O7 0.763545 0.370716 0.184487
O O8 0.750000 0.250000 0.000000
O O9 0.000000 0.000000 0.500000
#
# Coordination Sequence:
#
# PCOD9509884 Si02
#       6
#     4   4  16  16  16   8
#     4  10  26  50  72 106 140 186 258 302 368 446
#     4  10  26  50  72 110 140 190 262 294 384 434
#     4  12  28  43  75 104 143 195 238 295 369 434
#     4  12  24  46  65 108 146 184 235 287 359 436
#     4  11  27  49  75 106 147 193 246 316 365 439
#     4  12  24  44  70 102 148 180 238 294 350 438
#
# _framework density 20.991306999999999
#
# number of rings (size 3 to 8) (size 9 to 14) (size 15 to 20)
#    0.000    0.500    5.000    1.500   10.500    4.000 
#    0.000    0.000    0.000    0.000    0.000    0.000 
#    0.000    0.000    0.000    0.000    0.000    0.000 
#
# Total GULP energy -178660.377017 kJ/mol
# GULP energy per Si atom -5583.136782 kJ/mol
# Density = 2.094353 g / cm^3
# Si number density = 20.991307 Si / 1000 Ang^3
#
#
#
# Elastic Constant Matrix: (Units=GPa)
#
#
# Indices 1 2 3 4 5 6 
#
# 1 161.5808 31.0737 67.9544 0.0000 0.0000 0.0000
# 2 31.0737 136.6211 47.0479 0.0000 0.0000 0.0000
# 3 67.9544 47.0479 127.9168 0.0000 0.0000 0.0000
# 4 0.0000 0.0000 0.0000 59.2562 0.0000 0.0000
# 5 0.0000 0.0000 0.0000 0.0000 16.5982 0.0000
# 6 0.0000 0.0000 0.0000 0.0000 0.0000 13.7740
#
#
#
# Elastic Compliance Matrix: (Units=1/GPa)
#
#
# Indices 1 2 3 4 5 6 
#
# 1 0.007989 -0.000407 -0.004094 0.000000 0.000000 0.000000
# 2 -0.000407 0.008402 -0.002874 0.000000 0.000000 0.000000
# 3 -0.004094 -0.002874 0.011050 0.000000 0.000000 0.000000
# 4 0.000000 0.000000 0.000000 0.016876 0.000000 0.000000
# 5 0.000000 0.000000 0.000000 0.000000 0.060247 0.000000
# 6 0.000000 0.000000 0.000000 0.000000 0.000000 0.072601
#
#
# Mechanical properties :
#
#
# Convention : Reuss Voigt Hill
#
# Bulk Modulus (GPa) = 78.80356 79.80785 79.30571
# Shear Modulus (GPa) = 25.49130 36.59518 31.04324
#
# Velocity S-wave (km/s) = 3.48857 4.17987 3.84977
# Velocity P-wave (km/s) = 7.33821 7.83563 7.59100
#
# Compressibility (1/GPa) = 0.01268978
#
# Stress axis : x y z
#
# Youngs Moduli (GPa) = 125.17100 119.02222 90.50015
#
# Poissons Ratio (x) = 0.04845 0.37054
# Poissons Ratio (y) = 0.05096 0.26009
# Poissons Ratio (z) = 0.51250 0.34206
#
# Static dielectric constant tensor:
#      x y z
#    x 1.740020 0.000000 0.000000 
#    y 0.000000 1.764460 0.000000 
#    z 0.000000 0.000000 1.780770 
# 
# From -- ./inp_files/17495.got.cif
#   From: 2010.05.17/outbox.cif.g08.bks.cpg/sg68_9_cif.got.tgz:17495.got - 2010.06.03 18:57:09.
