data_PCOD9509436
_publ_section_title
;
Structure prediction by ZEFSAII (Michael W. Deem and Ramdas Pophale) SiO2 
 PCOD9509436
Probable space group: C C C A
;
_chemical_formula_sum "Si O2"
_cell_formula_units_Z 60
_cell_length_a 9.755114
_cell_length_b 18.134990
_cell_length_c 16.614319
_cell_angle_alpha 90.000000
_cell_angle_beta 90.000000
_cell_angle_gamma 90.000000
_cell_volume 2939.220813
_symmetry_space_group_name_H-M "C C C A"
_symmetry_group_IT_number 68
_space_group.IT_coordinate_system_code '2'
_symmetry_cell_setting 'orthorhombic'
loop_
_space_group_symop_operation_xyz
x,y,z
-x,1/2-y,z
x,1/2-y,1/2-z
-x,y,1/2-z
-x,-y,-z
x,1/2+y,-z
-x,1/2+y,1/2+z
x,-y,1/2+z
1/2+x,1/2+y,z
1/2-x,-y,z
1/2+x,-y,1/2-z
1/2-x,1/2+y,1/2-z
1/2-x,1/2-y,-z
1/2+x,y,-z
1/2-x,y,1/2+z
1/2+x,1/2-y,1/2+z
loop_
_atom_site_type_symbol
_atom_site_label
_atom_site_fract_x
_atom_site_fract_y
_atom_site_fract_z
Si Si1 0.669739 0.373157 0.653418
Si Si2 0.880427 0.803445 0.003705
Si Si3 0.003566 0.868161 0.163180
Si Si4 0.000000 0.250000 0.250000
Si Si5 0.500000 0.991376 0.250000
O O1 0.625301 0.369591 0.560137
O O2 0.834047 0.372727 0.647318
O O3 0.600302 0.302139 0.696884
O O4 0.611492 0.440673 0.705874
O O5 0.000000 0.750000 0.976158
O O6 0.918668 0.830672 0.092795
O O7 0.750000 0.750000 0.000000
O O8 0.000000 0.829676 0.250000
O O9 0.946698 0.950344 0.183107
#
# Coordination Sequence:
#
# PCOD9509436 Si02
#       5
#    16  16  16   4   8
#     4  11  22  43  68 100 139 176 243 295 356 431
#     4  12  25  43  68 108 141 183 240 296 367 423
#     4  10  25  44  70  98 141 190 236 295 356 434
#     4  10  24  36  70 100 136 180 228 300 358 424
#     4   9  24  45  69  98 131 192 238 290 361 428
#
# _framework density 20.413575000000002
#
# number of rings (size 3 to 8) (size 9 to 14) (size 15 to 20)
#    0.800    0.533    4.000    0.800    3.733    1.600 
#    0.000    0.000    0.000    0.000    0.000    0.000 
#    0.000    0.000    0.000    0.000    0.000    0.000 
#
# Total GULP energy -167169.428233 kJ/mol
# GULP energy per Si atom -5572.314274 kJ/mol
# Density = 2.036711 g / cm^3
# Si number density = 20.413575 Si / 1000 Ang^3
#
#
#
# Elastic Constant Matrix: (Units=GPa)
#
#
# Indices 1 2 3 4 5 6 
#
# 1 126.5685 45.3145 65.7960 0.0000 0.0000 0.0000
# 2 45.3145 118.2442 59.2228 0.0000 0.0000 0.0000
# 3 65.7960 59.2228 172.9425 0.0000 0.0000 0.0000
# 4 0.0000 0.0000 0.0000 60.2824 0.0000 0.0000
# 5 0.0000 0.0000 0.0000 0.0000 29.9501 0.0000
# 6 0.0000 0.0000 0.0000 0.0000 0.0000 27.6686
#
#
#
# Elastic Compliance Matrix: (Units=1/GPa)
#
#
# Indices 1 2 3 4 5 6 
#
# 1 0.010391 -0.002417 -0.003126 0.000000 0.000000 0.000000
# 2 -0.002417 0.010770 -0.002769 0.000000 0.000000 0.000000
# 3 -0.003126 -0.002769 0.007920 0.000000 0.000000 0.000000
# 4 0.000000 0.000000 0.000000 0.016589 0.000000 0.000000
# 5 0.000000 0.000000 0.000000 0.000000 0.033389 0.000000
# 6 0.000000 0.000000 0.000000 0.000000 0.000000 0.036142
#
#
# Mechanical properties :
#
#
# Convention : Reuss Voigt Hill
#
# Bulk Modulus (GPa) = 80.26674 84.26908 82.26791
# Shear Modulus (GPa) = 36.77157 40.07501 38.42329
#
# Velocity S-wave (km/s) = 4.24881 4.43556 4.34319
# Velocity P-wave (km/s) = 7.96715 8.22209 8.09562
#
# Compressibility (1/GPa) = 0.01245846
#
# Stress axis : x y z
#
# Youngs Moduli (GPa) = 96.23775 92.85161 126.26993
#
# Poissons Ratio (x) = 0.22438 0.39468
# Poissons Ratio (y) = 0.23257 0.34960
# Poissons Ratio (z) = 0.30081 0.25707
#
# Static dielectric constant tensor:
#      x y z
#    x 1.728080 0.000000 0.000000 
#    y 0.000000 1.756350 0.000000 
#    z 0.000000 0.000000 -0.064870 
# 
# From -- ./inp_files/27725.got.cif
#   From: 2010.05.17/outbox.cif.g08.bks.cpg/sg68_14_cif.got.tgz:27725.got - 2010.06.03 18:57:09.
