data_PCOD9509539
_publ_section_title
;
Structure prediction by ZEFSAII (Michael W. Deem and Ramdas Pophale) SiO2 
 PCOD9509539
Probable space group: C C C A
;
_chemical_formula_sum "Si O2"
_cell_formula_units_Z 56
_cell_length_a 25.193163
_cell_length_b 9.563642
_cell_length_c 9.553872
_cell_angle_alpha 90.000000
_cell_angle_beta 90.000000
_cell_angle_gamma 90.000000
_cell_volume 2301.894555
_symmetry_space_group_name_H-M "C C C A"
_symmetry_group_IT_number 68
_space_group.IT_coordinate_system_code '2'
_symmetry_cell_setting 'orthorhombic'
loop_
_space_group_symop_operation_xyz
x,y,z
-x,1/2-y,z
x,1/2-y,1/2-z
-x,y,1/2-z
-x,-y,-z
x,1/2+y,-z
-x,1/2+y,1/2+z
x,-y,1/2+z
1/2+x,1/2+y,z
1/2-x,-y,z
1/2+x,-y,1/2-z
1/2-x,1/2+y,1/2-z
1/2-x,1/2-y,-z
1/2+x,y,-z
1/2-x,y,1/2+z
1/2+x,1/2-y,1/2+z
loop_
_atom_site_type_symbol
_atom_site_label
_atom_site_fract_x
_atom_site_fract_y
_atom_site_fract_z
Si Si1 0.082090 0.687238 0.398289
Si Si2 0.553662 0.134471 0.844343
Si Si3 0.750000 0.000000 0.680350
Si Si4 0.202579 0.845226 0.056474
O O1 0.067676 0.750000 0.250000
O O2 0.051628 0.777271 0.513550
O O3 0.074000 0.519328 0.386181
O O4 0.144212 0.713169 0.429541
O O5 0.585894 0.250000 0.750000
O O6 0.500000 0.111283 0.750000
O O7 0.778262 0.100732 0.792682
O O8 0.703789 0.043333 0.571173
O O9 0.250000 0.750000 0.000000
#
# Coordination Sequence:
#
# PCOD9509539 Si02
#       4
#    16  16   8  16
#     4  12  28  49  83 118 158 216 275 341 426 502
#     4  11  29  53  81 114 157 210 276 356 418 493
#     4  10  24  42  70 102 162 198 262 318 398 472
#     4  11  25  44  72 113 159 215 261 330 400 499
#
# _framework density 24.327787000000001
#
# number of rings (size 3 to 8) (size 9 to 14) (size 15 to 20)
#    0.000    0.857    0.000    4.286   16.000   10.857 
#    0.000    1.429    0.000    0.000    0.000    0.000 
#    0.000    0.000    0.000    0.000    0.000    0.000 
#
# Total GULP energy -156199.566842 kJ/mol
# GULP energy per Si atom -5578.555959 kJ/mol
# Density = 2.427242 g / cm^3
# Si number density = 24.327787 Si / 1000 Ang^3
#
#
#
# Elastic Constant Matrix: (Units=GPa)
#
#
# Indices 1 2 3 4 5 6 
#
# 1 119.4058 46.4254 32.6357 0.0000 0.0000 0.0000
# 2 46.4254 194.1443 77.6068 0.0000 0.0000 0.0000
# 3 32.6357 77.6068 241.2507 0.0000 0.0000 0.0000
# 4 0.0000 0.0000 0.0000 45.9288 0.0000 0.0000
# 5 0.0000 0.0000 0.0000 0.0000 22.1075 0.0000
# 6 0.0000 0.0000 0.0000 0.0000 0.0000 -41.0008
#
#
#
# Elastic Compliance Matrix: (Units=1/GPa)
#
#
# Indices 1 2 3 4 5 6 
#
# 1 0.009314 -0.001978 -0.000624 0.000000 0.000000 0.000000
# 2 -0.001978 0.006331 -0.001769 0.000000 0.000000 0.000000
# 3 -0.000624 -0.001769 0.004798 0.000000 0.000000 0.000000
# 4 0.000000 0.000000 0.000000 0.021773 0.000000 0.000000
# 5 0.000000 0.000000 0.000000 0.000000 0.045234 0.000000
# 6 0.000000 0.000000 0.000000 0.000000 0.000000 -0.024390
#
#
# Mechanical properties :
#
#
# Convention : Reuss Voigt Hill
#
# Bulk Modulus (GPa) = 85.45295 96.45964 90.95630
# Shear Modulus (GPa) = 66.04786 31.94926 48.99856
#
# Velocity S-wave (km/s) = 5.21614 3.62786 4.49274
# Velocity P-wave (km/s) = 8.45455 7.56865 8.02384
#
# Compressibility (1/GPa) = 0.01170235
#
# Stress axis : x y z
#
# Youngs Moduli (GPa) = 107.36142 157.95452 208.39848
#
# Poissons Ratio (x) = 0.31243 0.12998
# Poissons Ratio (y) = 0.21236 0.36866
# Poissons Ratio (z) = 0.06696 0.27942
#
# Static dielectric constant tensor:
#      x y z
#    x 2.705570 0.000000 0.000000 
#    y 0.000000 2.270700 0.000000 
#    z 0.000000 0.000000 0.985120 
# 
# From -- ./inp_files/8529.got.cif
#   From: 2010.05.17/outbox.cif.g08.bks.cpg/sg68_5_cif.got.tgz:8529.got - 2010.06.03 18:57:09.
