data_PCOD9509944
_publ_section_title
;
Structure prediction by ZEFSAII (Michael W. Deem and Ramdas Pophale) SiO2 
 PCOD9509944
Probable space group: C C C A
;
_chemical_formula_sum "Si O2"
_cell_formula_units_Z 52
_cell_length_a 14.550420
_cell_length_b 7.314349
_cell_length_c 20.203995
_cell_angle_alpha 90.000000
_cell_angle_beta 90.000000
_cell_angle_gamma 90.000000
_cell_volume 2150.247545
_symmetry_space_group_name_H-M "C C C A"
_symmetry_group_IT_number 68
_space_group.IT_coordinate_system_code '2'
_symmetry_cell_setting 'orthorhombic'
loop_
_space_group_symop_operation_xyz
x,y,z
-x,1/2-y,z
x,1/2-y,1/2-z
-x,y,1/2-z
-x,-y,-z
x,1/2+y,-z
-x,1/2+y,1/2+z
x,-y,1/2+z
1/2+x,1/2+y,z
1/2-x,-y,z
1/2+x,-y,1/2-z
1/2-x,1/2+y,1/2-z
1/2-x,1/2-y,-z
1/2+x,y,-z
1/2-x,y,1/2+z
1/2+x,1/2-y,1/2+z
loop_
_atom_site_type_symbol
_atom_site_label
_atom_site_fract_x
_atom_site_fract_y
_atom_site_fract_z
Si Si1 0.611235 0.715769 0.562495
Si Si2 0.107490 0.797646 0.585346
Si Si3 0.000000 0.750000 0.250000
Si Si4 0.653319 0.014738 0.176160
O O1 0.500000 0.750000 0.564440
O O2 0.625180 0.512210 0.589078
O O3 0.642513 0.731257 0.486497
O O4 0.660338 0.861928 0.609256
O O5 0.136718 0.688009 0.649577
O O6 0.000000 0.750000 0.580799
O O7 0.068945 0.613339 0.211891
O O8 0.750000 0.000000 0.213686
#
# Coordination Sequence:
#
# PCOD9509944 Si02
#       4
#    16  16   4  16
#     4  11  19  40  72 111 155 187 235 306 386 459
#     4  11  19  39  74 111 151 195 229 303 396 447
#     4  12  28  64  70  98 166 200 264 336 332 434
#     4  12  27  49  76 108 145 200 253 304 378 445
#
# _framework density 24.183260000000001
#
# number of rings (size 3 to 8) (size 9 to 14) (size 15 to 20)
#    0.000    0.615    7.692    1.846    0.000    2.462 
#   11.077    1.538    0.000    0.000    0.000    0.000 
#    0.000    0.000    0.000    0.000    0.000    0.000 
#
# Total GULP energy -145470.446141 kJ/mol
# GULP energy per Si atom -5595.017159 kJ/mol
# Density = 2.412822 g / cm^3
# Si number density = 24.183260 Si / 1000 Ang^3
#
#
#
# Elastic Constant Matrix: (Units=GPa)
#
#
# Indices 1 2 3 4 5 6 
#
# 1 137.0523 8.3807 37.3719 0.0000 0.0000 0.0000
# 2 8.3807 157.4479 11.5856 0.0000 0.0000 0.0000
# 3 37.3719 11.5856 52.0098 0.0000 0.0000 0.0000
# 4 0.0000 0.0000 0.0000 5.0441 0.0000 0.0000
# 5 0.0000 0.0000 0.0000 0.0000 16.3150 0.0000
# 6 0.0000 0.0000 0.0000 0.0000 0.0000 -0.4012
#
#
#
# Elastic Compliance Matrix: (Units=1/GPa)
#
#
# Indices 1 2 3 4 5 6 
#
# 1 0.009075 -0.000003 -0.006520 0.000000 0.000000 0.000000
# 2 -0.000003 0.006457 -0.001436 0.000000 0.000000 0.000000
# 3 -0.006520 -0.001436 0.024232 0.000000 0.000000 0.000000
# 4 0.000000 0.000000 0.000000 0.198250 0.000000 0.000000
# 5 0.000000 0.000000 0.000000 0.000000 0.061293 0.000000
# 6 0.000000 0.000000 0.000000 0.000000 0.000000 -2.492551
#
#
# Mechanical properties :
#
#
# Convention : Reuss Voigt Hill
#
# Bulk Modulus (GPa) = 41.93694 51.24294 46.58994
# Shear Modulus (GPa) = -2.30481 23.46971 10.58245
#
# Velocity S-wave (km/s) = -0.97731 3.11866 2.09414
# Velocity P-wave (km/s) = 4.01316 5.84837 5.01542
#
# Compressibility (1/GPa) = 0.02384532
#
# Stress axis : x y z
#
# Youngs Moduli (GPa) = 110.19843 154.86711 41.26787
#
# Poissons Ratio (x) = 0.00051 0.26906
# Poissons Ratio (y) = 0.00036 0.05926
# Poissons Ratio (z) = 0.71848 0.22239
#
# Static dielectric constant tensor:
#      x y z
#    x 1.991630 0.000000 0.000000 
#    y 0.000000 1.802870 0.000000 
#    z 0.000000 0.000000 1.944020 
# 
# From -- ./inp_files/44876.got.cif
#   From: 2010.05.17/outbox.cif.g08.bks.cpg/sg68_23_cif.got.tgz:44876.got - 2010.06.03 18:57:09.
