data_PCOD9509200
_publ_section_title
;
Structure prediction by ZEFSAII (Michael W. Deem and Ramdas Pophale) SiO2 
 PCOD9509200
Probable space group: C C C A
;
_chemical_formula_sum "Si O2"
_cell_formula_units_Z 104
_cell_length_a 24.176219
_cell_length_b 21.534348
_cell_length_c 9.239963
_cell_angle_alpha 90.000000
_cell_angle_beta 90.000000
_cell_angle_gamma 90.000000
_cell_volume 4810.501344
_symmetry_space_group_name_H-M "C C C A"
_symmetry_group_IT_number 68
_space_group.IT_coordinate_system_code '2'
_symmetry_cell_setting 'orthorhombic'
loop_
_space_group_symop_operation_xyz
x,y,z
-x,1/2-y,z
x,1/2-y,1/2-z
-x,y,1/2-z
-x,-y,-z
x,1/2+y,-z
-x,1/2+y,1/2+z
x,-y,1/2+z
1/2+x,1/2+y,z
1/2-x,-y,z
1/2+x,-y,1/2-z
1/2-x,1/2+y,1/2-z
1/2-x,1/2-y,-z
1/2+x,y,-z
1/2-x,y,1/2+z
1/2+x,1/2-y,1/2+z
loop_
_atom_site_type_symbol
_atom_site_label
_atom_site_fract_x
_atom_site_fract_y
_atom_site_fract_z
Si Si1 0.877410 0.886429 0.147683
Si Si2 0.229529 0.927834 0.528709
Si Si3 0.374961 0.750000 0.250000
Si Si4 0.818789 0.877665 0.671510
Si Si5 0.013912 0.438775 0.580771
Si Si6 0.566109 0.262641 0.463611
Si Si7 0.906859 0.123437 0.965511
O O1 0.903518 0.816741 0.128058
O O2 0.882411 0.903763 0.316808
O O3 0.922723 0.924836 0.060206
O O4 0.819676 0.905921 0.079003
O O5 0.208400 0.911566 0.690738
O O6 0.279539 0.885716 0.468122
O O7 0.250000 0.000000 0.518599
O O8 0.334423 0.807027 0.289783
O O9 0.416787 0.723109 0.371219
O O10 0.876774 0.902822 0.607026
O O11 0.972140 0.387265 0.522937
O O12 0.000000 0.442748 0.750000
O O13 0.000000 0.500000 0.500000
O O14 0.500000 0.250000 0.437129
O O15 0.597869 0.197266 0.447224
#
# Coordination Sequence:
#
# PCOD9509200 Si02
#       7
#    16  16   8  16  16  16  16
#     4  11  23  44  69 106 140 184 236 288 355 430
#     4  12  27  48  71  97 135 190 247 304 356 427
#     4  10  23  44  66 108 146 180 235 302 360 426
#     4  11  25  47  70  99 137 185 242 300 364 425
#     4  10  23  42  64  97 140 184 228 286 351 428
#     4  11  20  40  71 109 148 186 227 284 359 440
#     4  10  23  41  70 104 143 181 232 290 360 433
#
# _framework density 21.619368000000001
#
# number of rings (size 3 to 8) (size 9 to 14) (size 15 to 20)
#    0.000    1.231    3.077    2.077    2.154    2.462 
#    2.769    0.769    0.000    0.000    0.000    0.000 
#    0.000    0.000    0.000    0.000    0.000    0.000 
#
# Total GULP energy -289756.735666 kJ/mol
# GULP energy per Si atom -5572.244917 kJ/mol
# Density = 2.157016 g / cm^3
# Si number density = 21.619368 Si / 1000 Ang^3
#
#
#
# Elastic Constant Matrix: (Units=GPa)
#
#
# Indices 1 2 3 4 5 6 
#
# 1 108.2082 27.2842 23.0394 0.0000 0.0000 0.0000
# 2 27.2842 79.8618 6.0111 0.0000 0.0000 0.0000
# 3 23.0394 6.0111 60.4552 0.0000 0.0000 0.0000
# 4 0.0000 0.0000 0.0000 24.0944 0.0000 0.0000
# 5 0.0000 0.0000 0.0000 0.0000 23.4256 0.0000
# 6 0.0000 0.0000 0.0000 0.0000 0.0000 26.2041
#
#
#
# Elastic Compliance Matrix: (Units=1/GPa)
#
#
# Indices 1 2 3 4 5 6 
#
# 1 0.010923 -0.003444 -0.003820 0.000000 0.000000 0.000000
# 2 -0.003444 0.013702 -0.000050 0.000000 0.000000 0.000000
# 3 -0.003820 -0.000050 0.018002 0.000000 0.000000 0.000000
# 4 0.000000 0.000000 0.000000 0.041503 0.000000 0.000000
# 5 0.000000 0.000000 0.000000 0.000000 0.042688 0.000000
# 6 0.000000 0.000000 0.000000 0.000000 0.000000 0.038162
#
#
# Mechanical properties :
#
#
# Convention : Reuss Voigt Hill
#
# Bulk Modulus (GPa) = 35.71619 40.13274 37.92446
# Shear Modulus (GPa) = 26.46300 27.55752 27.01026
#
# Velocity S-wave (km/s) = 3.50243 3.57412 3.53846
# Velocity P-wave (km/s) = 5.73692 5.96960 5.85442
#
# Compressibility (1/GPa) = 0.02799850
#
# Stress axis : x y z
#
# Youngs Moduli (GPa) = 91.54703 72.98155 55.54912
#
# Poissons Ratio (x) = 0.25137 0.21222
# Poissons Ratio (y) = 0.31532 0.00277
# Poissons Ratio (z) = 0.34975 0.00363
#
# Static dielectric constant tensor:
#      x y z
#    x 1.792770 0.000000 0.000000 
#    y 0.000000 1.829430 0.000000 
#    z 0.000000 0.000000 1.855620 
# 
# From -- ./inp_files/8994.got.cif
#   From: 2010.05.17/outbox.cif.g08.bks.cpg/sg68_5_cif.got.tgz:8994.got - 2010.06.03 18:57:09.
