data_PCOD9509664
_publ_section_title
;
Structure prediction by ZEFSAII (Michael W. Deem and Ramdas Pophale) SiO2 
 PCOD9509664
Probable space group: C C C A
;
_chemical_formula_sum "Si O2"
_cell_formula_units_Z 72
_cell_length_a 10.087738
_cell_length_b 27.851849
_cell_length_c 9.894528
_cell_angle_alpha 90.000000
_cell_angle_beta 90.000000
_cell_angle_gamma 90.000000
_cell_volume 2779.987915
_symmetry_space_group_name_H-M "C C C A"
_symmetry_group_IT_number 68
_space_group.IT_coordinate_system_code '2'
_symmetry_cell_setting 'orthorhombic'
loop_
_space_group_symop_operation_xyz
x,y,z
-x,1/2-y,z
x,1/2-y,1/2-z
-x,y,1/2-z
-x,-y,-z
x,1/2+y,-z
-x,1/2+y,1/2+z
x,-y,1/2+z
1/2+x,1/2+y,z
1/2-x,-y,z
1/2+x,-y,1/2-z
1/2-x,1/2+y,1/2-z
1/2-x,1/2-y,-z
1/2+x,y,-z
1/2-x,y,1/2+z
1/2+x,1/2-y,1/2+z
loop_
_atom_site_type_symbol
_atom_site_label
_atom_site_fract_x
_atom_site_fract_y
_atom_site_fract_z
Si Si1 0.773650 0.948650 0.859918
Si Si2 0.500000 0.165395 0.750000
Si Si3 0.252885 0.281272 0.135856
Si Si4 0.537717 0.921118 0.039927
Si Si5 0.876637 0.874558 0.179971
O O1 0.930337 0.952647 0.883750
O O2 0.730023 0.902160 0.772691
O O3 0.750000 0.000000 0.793800
O O4 0.681433 0.940583 0.994992
O O5 0.375756 0.200566 0.777367
O O6 0.479375 0.128982 0.877855
O O7 0.327275 0.250000 0.250000
O O8 0.311135 0.333014 0.093024
O O9 0.250000 0.250000 0.000000
O O10 0.459846 0.913588 0.900184
O O11 0.000000 0.847783 0.250000
#
# Coordination Sequence:
#
# PCOD9509664 Si02
#       5
#    16   8  16  16  16
#     4  11  24  45  75 113 150 203 261 314 386 477
#     4  12  25  48  76 108 154 202 256 334 413 482
#     4  12  27  46  75 108 148 202 266 331 408 489
#     4  11  24  46  76 106 155 201 250 325 391 467
#     4  10  24  46  70 102 150 192 247 316 390 463
#
# _framework density 25.899393
#
# number of rings (size 3 to 8) (size 9 to 14) (size 15 to 20)
#    0.000    0.889    2.222    3.667    6.222    1.333 
#    6.000    0.000    0.000    0.000    0.000    0.000 
#    0.000    0.000    0.000    0.000    0.000    0.000 
#
# Total GULP energy -200492.975613 kJ/mol
# GULP energy per Si atom -5569.249323 kJ/mol
# Density = 2.584044 g / cm^3
# Si number density = 25.899393 Si / 1000 Ang^3
#
#
#
# Elastic Constant Matrix: (Units=GPa)
#
#
# Indices 1 2 3 4 5 6 
#
# 1 112.6719 18.5094 35.7808 0.0000 0.0000 0.0000
# 2 18.5094 131.6734 34.4502 0.0000 0.0000 0.0000
# 3 35.7808 34.4502 116.7531 0.0000 0.0000 0.0000
# 4 0.0000 0.0000 0.0000 27.1907 0.0000 0.0000
# 5 0.0000 0.0000 0.0000 0.0000 33.9302 0.0000
# 6 0.0000 0.0000 0.0000 0.0000 0.0000 14.7236
#
#
#
# Elastic Compliance Matrix: (Units=1/GPa)
#
#
# Indices 1 2 3 4 5 6 
#
# 1 0.009883 -0.000647 -0.002838 0.000000 0.000000 0.000000
# 2 -0.000647 0.008272 -0.002243 0.000000 0.000000 0.000000
# 3 -0.002838 -0.002243 0.010097 0.000000 0.000000 0.000000
# 4 0.000000 0.000000 0.000000 0.036777 0.000000 0.000000
# 5 0.000000 0.000000 0.000000 0.000000 0.029472 0.000000
# 6 0.000000 0.000000 0.000000 0.000000 0.000000 0.067918
#
#
# Mechanical properties :
#
#
# Convention : Reuss Voigt Hill
#
# Bulk Modulus (GPa) = 59.53469 59.84214 59.68841
# Shear Modulus (GPa) = 27.85936 33.32609 30.59273
#
# Velocity S-wave (km/s) = 3.28331 3.59102 3.44061
# Velocity P-wave (km/s) = 6.11640 6.35214 6.23538
#
# Compressibility (1/GPa) = 0.01679693
#
# Stress axis : x y z
#
# Youngs Moduli (GPa) = 101.18593 120.88661 99.04373
#
# Poissons Ratio (x) = 0.07818 0.28108
# Poissons Ratio (y) = 0.06544 0.22212
# Poissons Ratio (z) = 0.28716 0.27111
#
# Static dielectric constant tensor:
#      x y z
#    x 3.182060 0.000000 0.000000 
#    y 0.000000 2.059250 0.000000 
#    z 0.000000 0.000000 2.497960 
# 
# From -- ./inp_files/11849.got.cif
#   From: 2010.05.17/outbox.cif.g08.bks.cpg/sg68_6_cif.got.tgz:11849.got - 2010.06.03 18:57:09.
