data_PCOD9509802
_publ_section_title
;
Structure prediction by ZEFSAII (Michael W. Deem and Ramdas Pophale) SiO2 
 PCOD9509802
Probable space group: C C C A
;
_chemical_formula_sum "Si O2"
_cell_formula_units_Z 68
_cell_length_a 16.580454
_cell_length_b 23.128641
_cell_length_c 7.589526
_cell_angle_alpha 90.000000
_cell_angle_beta 90.000000
_cell_angle_gamma 90.000000
_cell_volume 2910.456993
_symmetry_space_group_name_H-M "C C C A"
_symmetry_group_IT_number 68
_space_group.IT_coordinate_system_code '2'
_symmetry_cell_setting 'orthorhombic'
loop_
_space_group_symop_operation_xyz
x,y,z
-x,1/2-y,z
x,1/2-y,1/2-z
-x,y,1/2-z
-x,-y,-z
x,1/2+y,-z
-x,1/2+y,1/2+z
x,-y,1/2+z
1/2+x,1/2+y,z
1/2-x,-y,z
1/2+x,-y,1/2-z
1/2-x,1/2+y,1/2-z
1/2-x,1/2-y,-z
1/2+x,y,-z
1/2-x,y,1/2+z
1/2+x,1/2-y,1/2+z
loop_
_atom_site_type_symbol
_atom_site_label
_atom_site_fract_x
_atom_site_fract_y
_atom_site_fract_z
Si Si1 0.324684 0.621816 0.544294
Si Si2 0.884677 0.262435 0.054385
Si Si3 0.500000 0.750000 0.750000
Si Si4 0.508270 0.932655 0.539390
Si Si5 0.348019 0.631876 0.960383
O O1 0.324911 0.683554 0.443266
O O2 0.403304 0.587730 0.475665
O O3 0.232678 0.600764 0.529759
O O4 0.340963 0.627322 0.750882
O O5 0.916341 0.250000 0.250000
O O6 0.850987 0.200246 0.000105
O O7 0.944815 0.281701 0.894848
O O8 0.500000 0.925407 0.750000
O O9 0.431427 0.896147 0.470184
O O10 0.500000 0.000000 0.500000
#
# Coordination Sequence:
#
# PCOD9509802 Si02
#       5
#    16  16   4  16  16
#     4  11  23  43  69 100 140 181 224 287 345 412
#     4  12  24  40  68 104 141 186 224 278 346 412
#     4  12  22  40  60  98 144 174 230 276 328 404
#     4  10  25  45  68  92 133 177 230 293 344 402
#     4  11  23  43  69 100 140 181 224 287 345 412
#
# _framework density 23.364028000000001
#
# number of rings (size 3 to 8) (size 9 to 14) (size 15 to 20)
#    0.000    0.941    2.353    3.882    3.294    4.706 
#    0.000    4.706    0.000    0.000    0.000    0.000 
#    0.000    0.000    0.000    0.000    0.000    0.000 
#
# Total GULP energy -189761.786782 kJ/mol
# GULP energy per Si atom -5581.229023 kJ/mol
# Density = 2.331085 g / cm^3
# Si number density = 23.364028 Si / 1000 Ang^3
#
#
#
# Elastic Constant Matrix: (Units=GPa)
#
#
# Indices 1 2 3 4 5 6 
#
# 1 209.3735 74.5952 20.7760 0.0000 0.0000 0.0000
# 2 74.5952 115.0540 -10.3154 0.0000 0.0000 0.0000
# 3 20.7760 -10.3154 114.6989 0.0000 0.0000 0.0000
# 4 0.0000 0.0000 0.0000 26.6830 0.0000 0.0000
# 5 0.0000 0.0000 0.0000 0.0000 31.3561 0.0000
# 6 0.0000 0.0000 0.0000 0.0000 0.0000 -2.5704
#
#
#
# Elastic Compliance Matrix: (Units=1/GPa)
#
#
# Indices 1 2 3 4 5 6 
#
# 1 0.006478 -0.004340 -0.001564 0.000000 0.000000 0.000000
# 2 -0.004340 0.011670 0.001836 0.000000 0.000000 0.000000
# 3 -0.001564 0.001836 0.009167 0.000000 0.000000 0.000000
# 4 0.000000 0.000000 0.000000 0.037477 0.000000 0.000000
# 5 0.000000 0.000000 0.000000 0.000000 0.031892 0.000000
# 6 0.000000 0.000000 0.000000 0.000000 0.000000 -0.389051
#
#
# Mechanical properties :
#
#
# Convention : Reuss Voigt Hill
#
# Bulk Modulus (GPa) = 52.14173 67.69313 59.91743
# Shear Modulus (GPa) = -17.99598 34.69845 8.35124
#
# Velocity S-wave (km/s) = -2.77834 3.85791 1.89266
# Velocity P-wave (km/s) = 3.47467 6.99148 5.52060
#
# Compressibility (1/GPa) = 0.01917850
#
# Stress axis : x y z
#
# Youngs Moduli (GPa) = 154.38013 85.69047 109.08943
#
# Poissons Ratio (x) = 0.37189 0.17057
# Poissons Ratio (y) = 0.66999 -0.20025
# Poissons Ratio (z) = 0.24139 -0.15730
#
# Static dielectric constant tensor:
#      x y z
#    x 2.070710 0.000000 0.000000 
#    y 0.000000 1.775520 0.000000 
#    z 0.000000 0.000000 1.875980 
# 
# From -- ./inp_files/5964.got.cif
#   From: 2010.05.17/outbox.cif.g08.bks.cpg/sg68_3_cif.got.tgz:5964.got - 2010.06.03 18:57:09.
