data_PCOD9509490
_publ_section_title
;
Structure prediction by ZEFSAII (Michael W. Deem and Ramdas Pophale) SiO2 
 PCOD9509490
Probable space group: C C C A
;
_chemical_formula_sum "Si O2"
_cell_formula_units_Z 96
_cell_length_a 21.130412
_cell_length_b 14.346463
_cell_length_c 13.817851
_cell_angle_alpha 90.000000
_cell_angle_beta 90.000000
_cell_angle_gamma 90.000000
_cell_volume 4188.835572
_symmetry_space_group_name_H-M "C C C A"
_symmetry_group_IT_number 68
_space_group.IT_coordinate_system_code '2'
_symmetry_cell_setting 'orthorhombic'
loop_
_space_group_symop_operation_xyz
x,y,z
-x,1/2-y,z
x,1/2-y,1/2-z
-x,y,1/2-z
-x,-y,-z
x,1/2+y,-z
-x,1/2+y,1/2+z
x,-y,1/2+z
1/2+x,1/2+y,z
1/2-x,-y,z
1/2+x,-y,1/2-z
1/2-x,1/2+y,1/2-z
1/2-x,1/2-y,-z
1/2+x,y,-z
1/2-x,y,1/2+z
1/2+x,1/2-y,1/2+z
loop_
_atom_site_type_symbol
_atom_site_label
_atom_site_fract_x
_atom_site_fract_y
_atom_site_fract_z
Si Si1 0.175796 0.491095 0.772742
Si Si2 0.979851 0.394902 0.479210
Si Si3 0.091444 0.314346 0.841398
Si Si4 0.818158 0.709545 0.994213
Si Si5 0.387885 0.362151 0.898617
Si Si6 0.149080 0.517600 0.557075
O O1 0.250000 0.500000 0.804102
O O2 0.131991 0.405057 0.809096
O O3 0.136756 0.582531 0.805612
O O4 0.175227 0.483099 0.657445
O O5 0.963566 0.346545 0.582958
O O6 0.913704 0.417475 0.427404
O O7 0.000000 0.500000 0.500000
O O8 0.036946 0.350873 0.418267
O O9 0.074157 0.250000 0.750000
O O10 0.140289 0.262968 0.912360
O O11 0.750000 0.750000 0.000000
O O12 0.853751 0.763605 0.908326
O O13 0.808726 0.598441 0.989316
O O14 0.365456 0.433632 0.984378
#
# Coordination Sequence:
#
# PCOD9509490 Si02
#       6
#    16  16  16  16  16  16
#     4  12  25  41  67 100 141 189 243 288 369 439
#     4   9  19  46  67  95 140 180 227 282 372 426
#     4  11  23  43  69 107 135 179 242 312 352 422
#     4  11  24  42  66  94 139 183 229 294 363 423
#     4  11  23  45  71  93 138 191 219 301 366 432
#     4  10  24  41  64 101 132 182 234 288 354 424
#
# _framework density 22.918063
#
# number of rings (size 3 to 8) (size 9 to 14) (size 15 to 20)
#    0.000    1.333    5.000    2.000    4.667    4.000 
#    0.000    8.333    0.000    4.000    0.000    0.000 
#    0.000    0.000    0.000    0.000    0.000    0.000 
#
# Total GULP energy -267827.157633 kJ/mol
# GULP energy per Si atom -5579.732451 kJ/mol
# Density = 2.286590 g / cm^3
# Si number density = 22.918063 Si / 1000 Ang^3
#
#
#
# Elastic Constant Matrix: (Units=GPa)
#
#
# Indices 1 2 3 4 5 6 
#
# 1 35.3161 20.4805 3.5754 0.0000 0.0000 0.0000
# 2 20.4805 99.1479 -0.9654 0.0000 0.0000 0.0000
# 3 3.5754 -0.9654 65.2031 0.0000 0.0000 0.0000
# 4 0.0000 0.0000 0.0000 44.7371 0.0000 0.0000
# 5 0.0000 0.0000 0.0000 0.0000 -4.8485 0.0000
# 6 0.0000 0.0000 0.0000 0.0000 0.0000 29.7998
#
#
#
# Elastic Compliance Matrix: (Units=1/GPa)
#
#
# Indices 1 2 3 4 5 6 
#
# 1 0.032397 -0.006710 -0.001876 0.000000 0.000000 0.000000
# 2 -0.006710 0.011477 0.000538 0.000000 0.000000 0.000000
# 3 -0.001876 0.000538 0.015448 0.000000 0.000000 0.000000
# 4 0.000000 0.000000 0.000000 0.022353 0.000000 0.000000
# 5 0.000000 0.000000 0.000000 0.000000 -0.206249 0.000000
# 6 0.000000 0.000000 0.000000 0.000000 0.000000 0.033557
#
#
# Mechanical properties :
#
#
# Convention : Reuss Voigt Hill
#
# Bulk Modulus (GPa) = 23.13459 27.31645 25.22552
# Shear Modulus (GPa) = -82.62779 25.70946 -28.45917
#
# Velocity S-wave (km/s) = -6.01098 3.35296 -3.52771
# Velocity P-wave (km/s) = 6.16923 5.18988 2.35845
#
# Compressibility (1/GPa) = 0.04322531
#
# Stress axis : x y z
#
# Youngs Moduli (GPa) = 30.86698 87.12850 64.73533
#
# Poissons Ratio (x) = 0.58466 0.12143
# Poissons Ratio (y) = 0.20713 -0.03482
# Poissons Ratio (z) = 0.05790 -0.04687
#
# Static dielectric constant tensor:
#      x y z
#    x 1.970170 0.000000 0.000000 
#    y 0.000000 1.838310 0.000000 
#    z 0.000000 0.000000 1.868310 
# 
# From -- ./inp_files/24464.got.cif
#   From: 2010.05.17/outbox.cif.g08.bks.cpg/sg68_13_cif.got.tgz:24464.got - 2010.06.03 18:57:09.
