data_PCOD9509507
_publ_section_title
;
Structure prediction by ZEFSAII (Michael W. Deem and Ramdas Pophale) SiO2 
 PCOD9509507
Probable space group: C C C A
;
_chemical_formula_sum "Si O2"
_cell_formula_units_Z 96
_cell_length_a 22.721731
_cell_length_b 9.088780
_cell_length_c 22.971751
_cell_angle_alpha 90.000000
_cell_angle_beta 90.000000
_cell_angle_gamma 90.000000
_cell_volume 4743.960948
_symmetry_space_group_name_H-M "C C C A"
_symmetry_group_IT_number 68
_space_group.IT_coordinate_system_code '2'
_symmetry_cell_setting 'orthorhombic'
loop_
_space_group_symop_operation_xyz
x,y,z
-x,1/2-y,z
x,1/2-y,1/2-z
-x,y,1/2-z
-x,-y,-z
x,1/2+y,-z
-x,1/2+y,1/2+z
x,-y,1/2+z
1/2+x,1/2+y,z
1/2-x,-y,z
1/2+x,-y,1/2-z
1/2-x,1/2+y,1/2-z
1/2-x,1/2-y,-z
1/2+x,y,-z
1/2-x,y,1/2+z
1/2+x,1/2-y,1/2+z
loop_
_atom_site_type_symbol
_atom_site_label
_atom_site_fract_x
_atom_site_fract_y
_atom_site_fract_z
Si Si1 0.700508 0.236783 0.074164
Si Si2 0.639524 0.026088 0.288169
Si Si3 0.688832 0.727328 0.343716
Si Si4 0.112030 0.461047 0.648366
Si Si5 0.010793 0.576783 0.314117
Si Si6 0.750000 0.500000 0.515096
Si Si7 0.769828 0.750000 0.250000
O O1 0.762199 0.248995 0.108416
O O2 0.647658 0.165505 0.113123
O O3 0.700225 0.403107 0.049129
O O4 0.714309 0.117155 0.024114
O O5 0.622699 0.045564 0.219091
O O6 0.579894 0.057799 0.323863
O O7 0.691397 0.145338 0.290692
O O8 0.661751 0.872018 0.314114
O O9 0.640876 0.616190 0.367321
O O10 0.727378 0.656483 0.291446
O O11 0.041415 0.469413 0.642715
O O12 0.000000 0.750000 0.308999
O O13 0.000000 0.506079 0.250000
#
# Coordination Sequence:
#
# PCOD9509507 Si02
#       7
#    16  16  16  16  16   8   8
#     4  11  23  41  63  91 127 162 212 269 338 380
#     4  11  22  35  54  87 129 169 208 240 289 391
#     4  12  23  33  57  93 126 169 200 248 322 384
#     4  11  20  38  58  84 127 167 204 253 305 379
#     4   9  20  36  53  78 118 172 211 241 283 353
#     4  10  24  42  62  92 126 160 214 288 344 380
#     4  12  22  34  55  87 136 166 200 246 292 384
#
# _framework density 20.236253999999999
#
# number of rings (size 3 to 8) (size 9 to 14) (size 15 to 20)
#    0.000    1.167    5.000    2.500    2.333    0.667 
#    0.000    2.500    0.000    0.000    0.000   12.833 
#    0.000    0.000    0.000    0.000    0.000    0.000 
#
# Total GULP energy -267291.572780 kJ/mol
# GULP energy per Si atom -5568.574433 kJ/mol
# Density = 2.019019 g / cm^3
# Si number density = 20.236254 Si / 1000 Ang^3
#
#
#
# Elastic Constant Matrix: (Units=GPa)
#
#
# Indices 1 2 3 4 5 6 
#
# 1 154.6779 62.1197 34.1510 0.0000 0.0000 0.0000
# 2 62.1197 121.6135 37.2208 0.0000 0.0000 0.0000
# 3 34.1510 37.2208 58.0571 0.0000 0.0000 0.0000
# 4 0.0000 0.0000 0.0000 32.4476 0.0000 0.0000
# 5 0.0000 0.0000 0.0000 0.0000 13.7625 0.0000
# 6 0.0000 0.0000 0.0000 0.0000 0.0000 101.5425
#
#
#
# Elastic Compliance Matrix: (Units=1/GPa)
#
#
# Indices 1 2 3 4 5 6 
#
# 1 0.008472 -0.003486 -0.002748 0.000000 0.000000 0.000000
# 2 -0.003486 0.011665 -0.005428 0.000000 0.000000 0.000000
# 3 -0.002748 -0.005428 0.022321 0.000000 0.000000 0.000000
# 4 0.000000 0.000000 0.000000 0.030819 0.000000 0.000000
# 5 0.000000 0.000000 0.000000 0.000000 0.072661 0.000000
# 6 0.000000 0.000000 0.000000 0.000000 0.000000 0.009848
#
#
# Mechanical properties :
#
#
# Convention : Reuss Voigt Hill
#
# Bulk Modulus (GPa) = 52.26590 66.81460 59.54025
# Shear Modulus (GPa) = 26.95590 42.94096 34.94843
#
# Velocity S-wave (km/s) = 3.65370 4.61149 4.16025
# Velocity P-wave (km/s) = 6.60933 7.83859 7.25006
#
# Compressibility (1/GPa) = 0.01913293
#
# Stress axis : x y z
#
# Youngs Moduli (GPa) = 118.03625 85.72866 44.80127
#
# Poissons Ratio (x) = 0.29887 0.12313
# Poissons Ratio (y) = 0.41151 0.24316
# Poissons Ratio (z) = 0.32441 0.46530
#
# Static dielectric constant tensor:
#      x y z
#    x 1.768670 0.000000 0.000000 
#    y 0.000000 1.873050 0.000000 
#    z 0.000000 0.000000 1.838650 
# 
# From -- ./inp_files/46980.got.cif
#   From: 2010.05.17/outbox.cif.g08.bks.cpg/sg68_24_cif.got.tgz:46980.got - 2010.06.03 18:57:09.
