data_PCOD9509827
_publ_section_title
;
Structure prediction by ZEFSAII (Michael W. Deem and Ramdas Pophale) SiO2 
 PCOD9509827
Probable space group: C C C A
;
_chemical_formula_sum "Si O2"
_cell_formula_units_Z 60
_cell_length_a 12.132343
_cell_length_b 24.128678
_cell_length_c 9.350914
_cell_angle_alpha 90.000000
_cell_angle_beta 90.000000
_cell_angle_gamma 90.000000
_cell_volume 2737.362230
_symmetry_space_group_name_H-M "C C C A"
_symmetry_group_IT_number 68
_space_group.IT_coordinate_system_code '2'
_symmetry_cell_setting 'orthorhombic'
loop_
_space_group_symop_operation_xyz
x,y,z
-x,1/2-y,z
x,1/2-y,1/2-z
-x,y,1/2-z
-x,-y,-z
x,1/2+y,-z
-x,1/2+y,1/2+z
x,-y,1/2+z
1/2+x,1/2+y,z
1/2-x,-y,z
1/2+x,-y,1/2-z
1/2-x,1/2+y,1/2-z
1/2-x,1/2-y,-z
1/2+x,y,-z
1/2-x,y,1/2+z
1/2+x,1/2-y,1/2+z
loop_
_atom_site_type_symbol
_atom_site_label
_atom_site_fract_x
_atom_site_fract_y
_atom_site_fract_z
Si Si1 0.500000 0.529573 0.750000
Si Si2 0.621229 0.815128 0.768855
Si Si3 0.359011 0.038681 0.980599
Si Si4 0.167359 0.836774 0.908137
Si Si5 0.500000 0.750000 0.250000
O O1 0.566927 0.496368 0.870939
O O2 0.593453 0.552975 0.639913
O O3 0.609193 0.750000 0.750000
O O4 0.500000 0.840825 0.750000
O O5 0.711049 0.832186 0.654831
O O6 0.667993 0.823656 0.925321
O O7 0.356467 0.097957 0.900620
O O8 0.250000 0.000000 0.999354
O O9 0.081337 0.792630 0.836616
#
# Coordination Sequence:
#
# PCOD9509827 Si02
#       5
#     8  16  16  16   4
#     4  10  25  48  72 106 150 198 255 318 386 468
#     4  11  26  47  71 107 150 200 257 317 393 471
#     4  11  26  47  75 110 152 201 260 322 393 465
#     4  12  28  45  79 109 156 203 264 328 398 470
#     4  12  26  52  80 116 156 212 268 332 396 484
#
# _framework density 21.918911999999999
#
# number of rings (size 3 to 8) (size 9 to 14) (size 15 to 20)
#    0.000    0.800    1.333    4.000   13.067    2.133 
#    0.000    0.000    0.000    0.000    0.000    0.000 
#    0.000    0.000    0.000    0.000    0.000    0.000 
#
# Total GULP energy -167211.727066 kJ/mol
# GULP energy per Si atom -5573.724236 kJ/mol
# Density = 2.186902 g / cm^3
# Si number density = 21.918912 Si / 1000 Ang^3
#
#
#
# Elastic Constant Matrix: (Units=GPa)
#
#
# Indices 1 2 3 4 5 6 
#
# 1 161.4696 47.6261 93.5991 0.0000 0.0000 0.0000
# 2 47.6261 93.9430 19.0668 0.0000 0.0000 0.0000
# 3 93.5991 19.0668 148.0669 0.0000 0.0000 0.0000
# 4 0.0000 0.0000 0.0000 38.9694 0.0000 0.0000
# 5 0.0000 0.0000 0.0000 0.0000 49.1294 0.0000
# 6 0.0000 0.0000 0.0000 0.0000 0.0000 9.0214
#
#
#
# Elastic Compliance Matrix: (Units=1/GPa)
#
#
# Indices 1 2 3 4 5 6 
#
# 1 0.011303 -0.004395 -0.006579 0.000000 0.000000 0.000000
# 2 -0.004395 0.012639 0.001151 0.000000 0.000000 0.000000
# 3 -0.006579 0.001151 0.010765 0.000000 0.000000 0.000000
# 4 0.000000 0.000000 0.000000 0.025661 0.000000 0.000000
# 5 0.000000 0.000000 0.000000 0.000000 0.020354 0.000000
# 6 0.000000 0.000000 0.000000 0.000000 0.000000 0.110847
#
#
# Mechanical properties :
#
#
# Convention : Reuss Voigt Hill
#
# Bulk Modulus (GPa) = 66.40151 80.45148 73.42649
# Shear Modulus (GPa) = 23.12273 35.63656 29.37964
#
# Velocity S-wave (km/s) = 3.25148 4.03654 3.66509
# Velocity P-wave (km/s) = 6.66754 7.64910 7.17512
#
# Compressibility (1/GPa) = 0.01505990
#
# Stress axis : x y z
#
# Youngs Moduli (GPa) = 88.46987 79.11797 92.89730
#
# Poissons Ratio (x) = 0.34773 0.61120
# Poissons Ratio (y) = 0.38883 -0.10690
# Poissons Ratio (z) = 0.58207 -0.09104
#
# Static dielectric constant tensor:
#      x y z
#    x 1.911680 0.000000 0.000000 
#    y 0.000000 1.847610 0.000000 
#    z 0.000000 0.000000 1.724730 
# 
# From -- ./inp_files/3921.got.cif
#   From: 2010.05.17/outbox.cif.g08.bks.cpg/sg68_2_cif.got.tgz:3921.got - 2010.06.03 18:57:09.
