data_PCOD9509392
_publ_section_title
;
Structure prediction by ZEFSAII (Michael W. Deem and Ramdas Pophale) SiO2 
 PCOD9509392
Probable space group: C C C A
;
_chemical_formula_sum "Si O2"
_cell_formula_units_Z 64
_cell_length_a 12.144388
_cell_length_b 16.068444
_cell_length_c 13.713048
_cell_angle_alpha 90.000000
_cell_angle_beta 90.000000
_cell_angle_gamma 90.000000
_cell_volume 2675.983639
_symmetry_space_group_name_H-M "C C C A"
_symmetry_group_IT_number 68
_space_group.IT_coordinate_system_code '2'
_symmetry_cell_setting 'orthorhombic'
loop_
_space_group_symop_operation_xyz
x,y,z
-x,1/2-y,z
x,1/2-y,1/2-z
-x,y,1/2-z
-x,-y,-z
x,1/2+y,-z
-x,1/2+y,1/2+z
x,-y,1/2+z
1/2+x,1/2+y,z
1/2-x,-y,z
1/2+x,-y,1/2-z
1/2-x,1/2+y,1/2-z
1/2-x,1/2-y,-z
1/2+x,y,-z
1/2-x,y,1/2+z
1/2+x,1/2-y,1/2+z
loop_
_atom_site_type_symbol
_atom_site_label
_atom_site_fract_x
_atom_site_fract_y
_atom_site_fract_z
Si Si1 0.625874 0.011305 0.880268
Si Si2 0.611395 0.199961 0.904981
Si Si3 0.750000 0.000000 0.570253
Si Si4 0.805727 0.820896 0.127595
Si Si5 0.000000 0.617197 0.250000
O O1 0.596131 0.107001 0.865333
O O2 0.750000 0.000000 0.839805
O O3 0.645784 0.996826 0.995947
O O4 0.547532 0.943971 0.833039
O O5 0.500000 0.250000 0.891473
O O6 0.714776 0.249647 0.860288
O O7 0.641207 0.192933 0.020145
O O8 0.751809 0.086896 0.625330
O O9 0.902874 0.829547 0.204190
#
# Coordination Sequence:
#
# PCOD9509392 Si02
#       5
#    16  16   8  16   8
#     4   9  23  45  64 102 139 186 237 290 359 442
#     4  10  23  45  76  99 141 195 250 287 354 450
#     4   8  20  42  74  88 138 192 250 280 344 468
#     4  10  24  42  73 106 144 185 246 305 360 428
#     4  12  26  40  76 106 148 184 236 316 375 407
#
# _framework density 23.916440000000001
#
# number of rings (size 3 to 8) (size 9 to 14) (size 15 to 20)
#    0.750    1.500    0.000    0.000    8.750    2.000 
#    0.000    8.750    0.000    0.000    0.000    0.000 
#    0.000    0.000    0.000    0.000    0.000    0.000 
#
# Total GULP energy -179190.415272 kJ/mol
# GULP energy per Si atom -5599.700477 kJ/mol
# Density = 2.386201 g / cm^3
# Si number density = 23.916440 Si / 1000 Ang^3
#
#
#
# Elastic Constant Matrix: (Units=GPa)
#
#
# Indices 1 2 3 4 5 6 
#
# 1 136.6191 92.2961 38.2675 0.0000 0.0000 0.0000
# 2 92.2961 182.0716 60.4209 0.0000 0.0000 0.0000
# 3 38.2675 60.4209 81.5518 0.0000 0.0000 0.0000
# 4 0.0000 0.0000 0.0000 -24.6092 0.0000 0.0000
# 5 0.0000 0.0000 0.0000 0.0000 25.1620 0.0000
# 6 0.0000 0.0000 0.0000 0.0000 0.0000 40.7399
#
#
#
# Elastic Compliance Matrix: (Units=1/GPa)
#
#
# Indices 1 2 3 4 5 6 
#
# 1 0.011251 -0.005239 -0.001397 0.000000 0.000000 0.000000
# 2 -0.005239 0.009723 -0.004745 0.000000 0.000000 0.000000
# 3 -0.001397 -0.004745 0.016433 0.000000 0.000000 0.000000
# 4 0.000000 0.000000 0.000000 -0.040635 0.000000 0.000000
# 5 0.000000 0.000000 0.000000 0.000000 0.039742 0.000000
# 6 0.000000 0.000000 0.000000 0.000000 0.000000 0.024546
#
#
# Mechanical properties :
#
#
# Convention : Reuss Voigt Hill
#
# Bulk Modulus (GPa) = 68.29117 86.91239 77.60178
# Shear Modulus (GPa) = 56.36628 22.20907 39.28768
#
# Velocity S-wave (km/s) = 4.85996 3.05062 4.05743
# Velocity P-wave (km/s) = 7.75295 6.98765 7.38023
#
# Compressibility (1/GPa) = 0.01464318
#
# Stress axis : x y z
#
# Youngs Moduli (GPa) = 88.88335 102.84852 60.85138
#
# Poissons Ratio (x) = 0.53887 0.08503
# Poissons Ratio (y) = 0.46570 0.28875
# Poissons Ratio (z) = 0.12421 0.48803
#
# Static dielectric constant tensor:
#      x y z
#    x 1.893980 0.000000 0.000000 
#    y 0.000000 1.875930 0.000000 
#    z 0.000000 0.000000 1.964490 
# 
# From -- ./inp_files/20511.got.cif
#   From: 2010.05.17/outbox.cif.g08.bks.cpg/sg68_11_cif.got.tgz:20511.got - 2010.06.03 18:57:09.
