data_PCOD9509226
_publ_section_title
;
Structure prediction by ZEFSAII (Michael W. Deem and Ramdas Pophale) SiO2 
 PCOD9509226
Probable space group: C C C A
;
_chemical_formula_sum "Si O2"
_cell_formula_units_Z 80
_cell_length_a 13.871098
_cell_length_b 13.993253
_cell_length_c 22.823699
_cell_angle_alpha 90.000000
_cell_angle_beta 90.000000
_cell_angle_gamma 90.000000
_cell_volume 4430.120687
_symmetry_space_group_name_H-M "C C C A"
_symmetry_group_IT_number 68
_space_group.IT_coordinate_system_code '2'
_symmetry_cell_setting 'orthorhombic'
loop_
_space_group_symop_operation_xyz
x,y,z
-x,1/2-y,z
x,1/2-y,1/2-z
-x,y,1/2-z
-x,-y,-z
x,1/2+y,-z
-x,1/2+y,1/2+z
x,-y,1/2+z
1/2+x,1/2+y,z
1/2-x,-y,z
1/2+x,-y,1/2-z
1/2-x,1/2+y,1/2-z
1/2-x,1/2-y,-z
1/2+x,y,-z
1/2-x,y,1/2+z
1/2+x,1/2-y,1/2+z
loop_
_atom_site_type_symbol
_atom_site_label
_atom_site_fract_x
_atom_site_fract_y
_atom_site_fract_z
Si Si1 0.407324 0.818974 0.329502
Si Si2 0.164496 0.423049 0.813952
Si Si3 0.500000 0.026052 0.750000
Si Si4 0.757788 0.250000 0.750000
Si Si5 0.769532 0.887231 0.443981
Si Si6 0.610084 0.274866 0.958706
O O1 0.500000 0.750000 0.323269
O O2 0.428330 0.908415 0.288159
O O3 0.313191 0.768454 0.304271
O O4 0.394225 0.834723 0.398227
O O5 0.250000 0.500000 0.806213
O O6 0.063051 0.469742 0.797530
O O7 0.179902 0.340183 0.766999
O O8 0.179354 0.385963 0.880186
O O9 0.672040 0.822012 0.445071
O O10 0.837309 0.836391 0.491723
O O11 0.750000 0.000000 0.456462
O O12 0.500000 0.250000 0.974671
#
# Coordination Sequence:
#
# PCOD9509226 Si02
#       6
#    16  16   8   8  16  16
#     4  11  19  36  65  90 113 157 210 254 284 357
#     4  11  23  40  63  91 123 165 196 253 310 360
#     4  12  23  39  60  96 126 154 208 246 308 370
#     4  12  19  39  62  88 126 152 202 250 306 358
#     4  10  23  44  62  88 127 160 204 258 314 361
#     4  10  23  42  65  90 117 164 213 253 304 365
#
# _framework density 18.058198999999998
#
# number of rings (size 3 to 8) (size 9 to 14) (size 15 to 20)
#    0.000    1.200    6.000    0.000    8.400    1.200 
#    7.200    0.000    0.000    0.000    0.000    0.000 
#    0.000    0.000    0.000    0.000    0.000    0.000 
#
# Total GULP energy -223166.314028 kJ/mol
# GULP energy per Si atom -5579.157851 kJ/mol
# Density = 1.801710 g / cm^3
# Si number density = 18.058199 Si / 1000 Ang^3
#
#
#
# Elastic Constant Matrix: (Units=GPa)
#
#
# Indices 1 2 3 4 5 6 
#
# 1 73.0917 16.6675 33.1257 0.0000 0.0000 0.0000
# 2 16.6675 69.5096 41.1930 0.0000 0.0000 0.0000
# 3 33.1257 41.1930 98.8095 0.0000 0.0000 0.0000
# 4 0.0000 0.0000 0.0000 38.2989 0.0000 0.0000
# 5 0.0000 0.0000 0.0000 0.0000 31.2112 0.0000
# 6 0.0000 0.0000 0.0000 0.0000 0.0000 7.0069
#
#
#
# Elastic Compliance Matrix: (Units=1/GPa)
#
#
# Indices 1 2 3 4 5 6 
#
# 1 0.016173 -0.000883 -0.005054 0.000000 0.000000 0.000000
# 2 -0.000883 0.019155 -0.007690 0.000000 0.000000 0.000000
# 3 -0.005054 -0.007690 0.015021 0.000000 0.000000 0.000000
# 4 0.000000 0.000000 0.000000 0.026110 0.000000 0.000000
# 5 0.000000 0.000000 0.000000 0.000000 0.032040 0.000000
# 6 0.000000 0.000000 0.000000 0.000000 0.000000 0.142716
#
#
# Mechanical properties :
#
#
# Convention : Reuss Voigt Hill
#
# Bulk Modulus (GPa) = 43.29778 47.04254 45.17016
# Shear Modulus (GPa) = 17.47228 25.33172 21.40200
#
# Velocity S-wave (km/s) = 3.11393 3.74944 3.44636
# Velocity P-wave (km/s) = 6.07927 6.69712 6.39566
#
# Compressibility (1/GPa) = 0.02309587
#
# Stress axis : x y z
#
# Youngs Moduli (GPa) = 61.83033 52.20476 66.57536
#
# Poissons Ratio (x) = 0.04610 0.33647
# Poissons Ratio (y) = 0.05460 0.51194
# Poissons Ratio (z) = 0.31249 0.40144
#
# Static dielectric constant tensor:
#      x y z
#    x 1.260510 0.000000 0.000000 
#    y 0.000000 1.615850 0.000000 
#    z 0.000000 0.000000 1.608240 
# 
# From -- ./inp_files/44154.got.cif
#   From: 2010.05.17/outbox.cif.g08.bks.cpg/sg68_23_cif.got.tgz:44154.got - 2010.06.03 18:57:09.
