data_PCOD9509497
_publ_section_title
;
Structure prediction by ZEFSAII (Michael W. Deem and Ramdas Pophale) SiO2 
 PCOD9509497
Probable space group: C C C A
;
_chemical_formula_sum "Si O2"
_cell_formula_units_Z 96
_cell_length_a 14.955772
_cell_length_b 20.294046
_cell_length_c 13.691354
_cell_angle_alpha 90.000000
_cell_angle_beta 90.000000
_cell_angle_gamma 90.000000
_cell_volume 4155.505637
_symmetry_space_group_name_H-M "C C C A"
_symmetry_group_IT_number 68
_space_group.IT_coordinate_system_code '2'
_symmetry_cell_setting 'orthorhombic'
loop_
_space_group_symop_operation_xyz
x,y,z
-x,1/2-y,z
x,1/2-y,1/2-z
-x,y,1/2-z
-x,-y,-z
x,1/2+y,-z
-x,1/2+y,1/2+z
x,-y,1/2+z
1/2+x,1/2+y,z
1/2-x,-y,z
1/2+x,-y,1/2-z
1/2-x,1/2+y,1/2-z
1/2-x,1/2-y,-z
1/2+x,y,-z
1/2-x,y,1/2+z
1/2+x,1/2-y,1/2+z
loop_
_atom_site_type_symbol
_atom_site_label
_atom_site_fract_x
_atom_site_fract_y
_atom_site_fract_z
Si Si1 0.085352 0.281194 0.929698
Si Si2 0.809533 0.560697 0.039389
Si Si3 0.004538 0.602333 0.535641
Si Si4 0.000000 0.859076 0.750000
Si Si5 0.790862 0.144592 0.792327
Si Si6 0.148926 0.250000 0.250000
Si Si7 0.674009 0.353802 0.436780
O O1 0.124600 0.328844 0.849882
O O2 0.149175 0.221756 0.959140
O O3 0.000000 0.250000 0.879031
O O4 0.044205 0.324182 0.016459
O O5 0.750000 0.500000 0.003654
O O6 0.780656 0.575316 0.151781
O O7 0.914442 0.557723 0.009089
O O8 0.765646 0.624042 0.986445
O O9 0.986251 0.597843 0.651648
O O10 0.910365 0.603969 0.477658
O O11 0.918660 0.809548 0.724000
O O12 0.717773 0.202696 0.809620
O O13 0.809720 0.138939 0.678398
#
# Coordination Sequence:
#
# PCOD9509497 Si02
#       7
#    16  16  16   8  16   8  16
#     4   9  20  35  62 100 134 170 210 277 354 429
#     4  11  27  45  67  96 133 186 245 285 331 405
#     4  10  24  41  67 101 138 180 227 285 345 417
#     4  11  24  38  60  98 152 174 220 274 357 423
#     4  11  22  41  67  97 136 173 225 287 352 414
#     4  11  22  34  61 100 132 182 213 272 354 431
#     4  11  22  41  66  96 136 178 222 284 352 418
#
# _framework density 23.101882
#
# number of rings (size 3 to 8) (size 9 to 14) (size 15 to 20)
#    0.000    1.500    1.667    2.000    9.333   10.667 
#    0.000    0.000    0.000    4.000    0.000    0.000 
#    0.000    0.000    0.000    0.000    0.000    0.000 
#
# Total GULP energy -267410.538515 kJ/mol
# GULP energy per Si atom -5571.052886 kJ/mol
# Density = 2.304930 g / cm^3
# Si number density = 23.101882 Si / 1000 Ang^3
#
#
#
# Elastic Constant Matrix: (Units=GPa)
#
#
# Indices 1 2 3 4 5 6 
#
# 1 100.7181 -0.5578 28.9010 0.0000 0.0000 0.0000
# 2 -0.5578 42.0137 -2.5043 0.0000 0.0000 0.0000
# 3 28.9010 -2.5043 148.1069 0.0000 0.0000 0.0000
# 4 0.0000 0.0000 0.0000 7.7735 0.0000 0.0000
# 5 0.0000 0.0000 0.0000 0.0000 7.6837 0.0000
# 6 0.0000 0.0000 0.0000 0.0000 0.0000 25.7194
#
#
#
# Elastic Compliance Matrix: (Units=1/GPa)
#
#
# Indices 1 2 3 4 5 6 
#
# 1 0.010518 0.000017 -0.002052 0.000000 0.000000 0.000000
# 2 0.000017 0.023826 0.000399 0.000000 0.000000 0.000000
# 3 -0.002052 0.000399 0.007159 0.000000 0.000000 0.000000
# 4 0.000000 0.000000 0.000000 0.128642 0.000000 0.000000
# 5 0.000000 0.000000 0.000000 0.000000 0.130146 0.000000
# 6 0.000000 0.000000 0.000000 0.000000 0.000000 0.038881
#
#
# Mechanical properties :
#
#
# Convention : Reuss Voigt Hill
#
# Bulk Modulus (GPa) = 26.15615 38.05740 32.10678
# Shear Modulus (GPa) = 14.07712 25.90197 19.98955
#
# Velocity S-wave (km/s) = 2.47118 3.35207 2.94475
# Velocity P-wave (km/s) = 4.41463 5.61172 5.04878
#
# Compressibility (1/GPa) = 0.03823193
#
# Stress axis : x y z
#
# Youngs Moduli (GPa) = 95.07833 41.97134 139.68294
#
# Poissons Ratio (x) = -0.00073 0.28664
# Poissons Ratio (y) = -0.00165 -0.05580
# Poissons Ratio (z) = 0.19511 -0.01677
#
# Static dielectric constant tensor:
#      x y z
#    x 1.908630 0.000000 0.000000 
#    y 0.000000 2.025080 0.000000 
#    z 0.000000 0.000000 1.928960 
# 
# From -- ./inp_files/22551.got.cif
#   From: 2010.05.17/outbox.cif.g08.bks.cpg/sg68_12_cif.got.tgz:22551.got - 2010.06.03 18:57:09.
