data_PCOD9509806
_publ_section_title
;
Structure prediction by ZEFSAII (Michael W. Deem and Ramdas Pophale) SiO2 
 PCOD9509806
Probable space group: C C C A
;
_chemical_formula_sum "Si O2"
_cell_formula_units_Z 96
_cell_length_a 19.588879
_cell_length_b 14.377142
_cell_length_c 13.957037
_cell_angle_alpha 90.000000
_cell_angle_beta 90.000000
_cell_angle_gamma 90.000000
_cell_volume 3930.749570
_symmetry_space_group_name_H-M "C C C A"
_symmetry_group_IT_number 68
_space_group.IT_coordinate_system_code '2'
_symmetry_cell_setting 'orthorhombic'
loop_
_space_group_symop_operation_xyz
x,y,z
-x,1/2-y,z
x,1/2-y,1/2-z
-x,y,1/2-z
-x,-y,-z
x,1/2+y,-z
-x,1/2+y,1/2+z
x,-y,1/2+z
1/2+x,1/2+y,z
1/2-x,-y,z
1/2+x,-y,1/2-z
1/2-x,1/2+y,1/2-z
1/2-x,1/2-y,-z
1/2+x,y,-z
1/2-x,y,1/2+z
1/2+x,1/2-y,1/2+z
loop_
_atom_site_type_symbol
_atom_site_label
_atom_site_fract_x
_atom_site_fract_y
_atom_site_fract_z
Si Si1 0.386485 0.249675 0.139004
Si Si2 0.830792 0.928835 0.048592
Si Si3 0.263822 0.662529 0.373313
Si Si4 0.381316 0.250000 0.750000
Si Si5 0.050088 0.445928 0.433586
Si Si6 0.250000 0.500000 0.218243
Si Si7 0.000000 0.898147 0.750000
Si Si8 0.500000 0.750000 0.499254
O O1 0.406221 0.250000 0.250000
O O2 0.379762 0.353289 0.097166
O O3 0.309265 0.212098 0.130496
O O4 0.442498 0.205721 0.068895
O O5 0.809277 0.988850 0.139129
O O6 0.774541 0.877773 0.981150
O O7 0.875080 0.974953 0.965509
O O8 0.329339 0.723580 0.337708
O O9 0.259676 0.585906 0.288968
O O10 0.434303 0.333028 0.723602
O O11 0.033559 0.334236 0.439417
O O12 0.000000 0.500000 0.500000
O O13 0.032219 0.466724 0.326661
#
# Coordination Sequence:
#
# PCOD9509806 Si02
#       8
#    16  16  16   8  16   8   8   8
#     4  11  22  46  70 100 136 186 239 291 364 435
#     4  11  25  45  67 106 142 184 243 304 365 442
#     4  12  24  44  72 104 138 189 240 299 371 437
#     4  11  22  42  76  99 136 180 240 303 360 430
#     4  11  26  47  71 106 143 191 245 302 371 433
#     4  12  26  44  66 100 152 186 236 300 370 438
#     4  11  24  46  74 101 138 184 244 303 362 435
#     4  10  25  45  74 102 146 192 242 298 358 446
#
# _framework density 24.422822
#
# number of rings (size 3 to 8) (size 9 to 14) (size 15 to 20)
#    0.000    0.833    4.167    2.250    4.667    2.667 
#    6.000    0.000    0.000    0.000    0.000    0.000 
#    0.000    0.000    0.000    0.000    0.000    0.000 
#
# Total GULP energy -268119.168601 kJ/mol
# GULP energy per Si atom -5585.816013 kJ/mol
# Density = 2.436723 g / cm^3
# Si number density = 24.422822 Si / 1000 Ang^3
#
#
#
# Elastic Constant Matrix: (Units=GPa)
#
#
# Indices 1 2 3 4 5 6 
#
# 1 90.9224 4.8291 11.3461 0.0000 0.0000 0.0000
# 2 4.8291 21.6539 0.3494 0.0000 0.0000 0.0000
# 3 11.3461 0.3494 116.5692 0.0000 0.0000 0.0000
# 4 0.0000 0.0000 0.0000 26.5480 0.0000 0.0000
# 5 0.0000 0.0000 0.0000 0.0000 53.2761 0.0000
# 6 0.0000 0.0000 0.0000 0.0000 0.0000 14.1544
#
#
#
# Elastic Compliance Matrix: (Units=1/GPa)
#
#
# Indices 1 2 3 4 5 6 
#
# 1 0.011267 -0.002495 -0.001089 0.000000 0.000000 0.000000
# 2 -0.002495 0.046736 0.000103 0.000000 0.000000 0.000000
# 3 -0.001089 0.000103 0.008684 0.000000 0.000000 0.000000
# 4 0.000000 0.000000 0.000000 0.037668 0.000000 0.000000
# 5 0.000000 0.000000 0.000000 0.000000 0.018770 0.000000
# 6 0.000000 0.000000 0.000000 0.000000 0.000000 0.070649
#
#
# Mechanical properties :
#
#
# Convention : Reuss Voigt Hill
#
# Bulk Modulus (GPa) = 16.74369 29.13274 22.93822
# Shear Modulus (GPa) = 22.66085 32.97044 27.81564
#
# Velocity S-wave (km/s) = 3.04938 3.67820 3.37845
# Velocity P-wave (km/s) = 4.38964 5.47661 4.96297
#
# Compressibility (1/GPa) = 0.05972398
#
# Stress axis : x y z
#
# Youngs Moduli (GPa) = 88.75621 21.39689 115.15031
#
# Poissons Ratio (x) = 0.05339 0.12542
# Poissons Ratio (y) = 0.22145 -0.01183
# Poissons Ratio (z) = 0.09667 -0.00220
#
# Static dielectric constant tensor:
#      x y z
#    x 2.038100 0.000000 0.000000 
#    y 0.000000 2.008410 0.000000 
#    z 0.000000 0.000000 2.139470 
# 
# From -- ./inp_files/24518.got.cif
#   From: 2010.05.17/outbox.cif.g08.bks.cpg/sg68_13_cif.got.tgz:24518.got - 2010.06.03 18:57:09.
