data_PCOD9509343
_publ_section_title
;
Structure prediction by ZEFSAII (Michael W. Deem and Ramdas Pophale) SiO2 
 PCOD9509343
Probable space group: C C C A
;
_chemical_formula_sum "Si O2"
_cell_formula_units_Z 60
_cell_length_a 25.783752
_cell_length_b 9.112732
_cell_length_c 12.429211
_cell_angle_alpha 90.000000
_cell_angle_beta 90.000000
_cell_angle_gamma 90.000000
_cell_volume 2920.372661
_symmetry_space_group_name_H-M "C C C A"
_symmetry_group_IT_number 68
_space_group.IT_coordinate_system_code '2'
_symmetry_cell_setting 'orthorhombic'
loop_
_space_group_symop_operation_xyz
x,y,z
-x,1/2-y,z
x,1/2-y,1/2-z
-x,y,1/2-z
-x,-y,-z
x,1/2+y,-z
-x,1/2+y,1/2+z
x,-y,1/2+z
1/2+x,1/2+y,z
1/2-x,-y,z
1/2+x,-y,1/2-z
1/2-x,1/2+y,1/2-z
1/2-x,1/2-y,-z
1/2+x,y,-z
1/2-x,y,1/2+z
1/2+x,1/2-y,1/2+z
loop_
_atom_site_type_symbol
_atom_site_label
_atom_site_fract_x
_atom_site_fract_y
_atom_site_fract_z
Si Si1 0.287526 0.626076 0.547456
Si Si2 0.500000 0.750000 0.250000
Si Si3 0.379996 0.490568 0.409746
Si Si4 0.054876 0.780063 0.943427
Si Si5 0.149349 0.250000 0.750000
O O1 0.250000 0.500000 0.590317
O O2 0.250000 0.750000 0.500000
O O3 0.325658 0.554314 0.457199
O O4 0.319214 0.693236 0.646341
O O5 0.465741 0.654319 0.168895
O O6 0.404705 0.378763 0.495639
O O7 0.418086 0.629019 0.409806
O O8 0.377535 0.395646 0.300300
O O9 0.000000 0.750000 0.004371
#
# Coordination Sequence:
#
# PCOD9509343 Si02
#       5
#    16   4  16  16   8
#     4  12  26  48  68 101 142 184 239 293 347 424
#     4   8  24  36  70  96 136 188 218 274 368 378
#     4  12  24  48  70 104 142 182 241 292 345 429
#     4  10  23  44  69 101 141 181 235 285 351 417
#     4  12  28  42  76 102 140 192 230 288 374 390
#
# _framework density 20.545324000000001
#
# number of rings (size 3 to 8) (size 9 to 14) (size 15 to 20)
#    0.800    0.000    5.333    0.800    7.467    0.000 
#    0.000    0.000    0.000    0.000    0.000    0.000 
#    0.000    0.000    0.000    0.000    0.000    0.000 
#
# Total GULP energy -167134.408815 kJ/mol
# GULP energy per Si atom -5571.146960 kJ/mol
# Density = 2.049856 g / cm^3
# Si number density = 20.545324 Si / 1000 Ang^3
#
#
#
# Elastic Constant Matrix: (Units=GPa)
#
#
# Indices 1 2 3 4 5 6 
#
# 1 109.0499 59.4675 34.2797 0.0000 0.0000 0.0000
# 2 59.4675 131.2213 43.2785 0.0000 0.0000 0.0000
# 3 34.2797 43.2785 102.7722 0.0000 0.0000 0.0000
# 4 0.0000 0.0000 0.0000 31.4009 0.0000 0.0000
# 5 0.0000 0.0000 0.0000 0.0000 43.9647 0.0000
# 6 0.0000 0.0000 0.0000 0.0000 0.0000 -2.4817
#
#
#
# Elastic Compliance Matrix: (Units=1/GPa)
#
#
# Indices 1 2 3 4 5 6 
#
# 1 0.012552 -0.005002 -0.002080 0.000000 0.000000 0.000000
# 2 -0.005002 0.010843 -0.002898 0.000000 0.000000 0.000000
# 3 -0.002080 -0.002898 0.011644 0.000000 0.000000 0.000000
# 4 0.000000 0.000000 0.000000 0.031846 0.000000 0.000000
# 5 0.000000 0.000000 0.000000 0.000000 0.022746 0.000000
# 6 0.000000 0.000000 0.000000 0.000000 0.000000 -0.402945
#
#
# Mechanical properties :
#
#
# Convention : Reuss Voigt Hill
#
# Bulk Modulus (GPa) = 66.31629 68.56606 67.44117
# Shear Modulus (GPa) = -17.34143 28.31130 5.48493
#
# Velocity S-wave (km/s) = -2.90842 3.71616 1.63569
# Velocity P-wave (km/s) = 4.59016 7.20129 6.03855
#
# Compressibility (1/GPa) = 0.01507925
#
# Stress axis : x y z
#
# Youngs Moduli (GPa) = 79.66949 92.22223 85.87830
#
# Poissons Ratio (x) = 0.46132 0.17864
# Poissons Ratio (y) = 0.39853 0.24885
# Poissons Ratio (z) = 0.16573 0.26724
#
# Static dielectric constant tensor:
#      x y z
#    x 1.789040 0.000000 0.000000 
#    y 0.000000 1.806060 0.000000 
#    z 0.000000 0.000000 1.741500 
# 
# From -- ./inp_files/10713.got.cif
#   From: 2010.05.17/outbox.cif.g08.bks.cpg/sg68_6_cif.got.tgz:10713.got - 2010.06.03 18:57:09.
