data_PCOD9509048
_publ_section_title
;
Structure prediction by ZEFSAII (Michael W. Deem and Ramdas Pophale) SiO2 
 PCOD9509048
Probable space group: C C C A
;
_chemical_formula_sum "Si O2"
_cell_formula_units_Z 88
_cell_length_a 12.008773
_cell_length_b 14.579451
_cell_length_c 24.911851
_cell_angle_alpha 90.000000
_cell_angle_beta 90.000000
_cell_angle_gamma 90.000000
_cell_volume 4361.599695
_symmetry_space_group_name_H-M "C C C A"
_symmetry_group_IT_number 68
_space_group.IT_coordinate_system_code '2'
_symmetry_cell_setting 'orthorhombic'
loop_
_space_group_symop_operation_xyz
x,y,z
-x,1/2-y,z
x,1/2-y,1/2-z
-x,y,1/2-z
-x,-y,-z
x,1/2+y,-z
-x,1/2+y,1/2+z
x,-y,1/2+z
1/2+x,1/2+y,z
1/2-x,-y,z
1/2+x,-y,1/2-z
1/2-x,1/2+y,1/2-z
1/2-x,1/2-y,-z
1/2+x,y,-z
1/2-x,y,1/2+z
1/2+x,1/2-y,1/2+z
loop_
_atom_site_type_symbol
_atom_site_label
_atom_site_fract_x
_atom_site_fract_y
_atom_site_fract_z
Si Si1 0.181353 0.691879 0.163528
Si Si2 0.500000 0.133601 0.250000
Si Si3 0.250000 0.500000 0.115731
Si Si4 0.104634 0.704827 0.808766
Si Si5 0.500000 0.750000 0.577731
Si Si6 0.982745 0.455535 0.942658
Si Si7 0.117168 0.000616 0.665075
O O1 0.240797 0.593100 0.151728
O O2 0.276973 0.766624 0.168807
O O3 0.105071 0.728562 0.115569
O O4 0.096172 0.680372 0.213245
O O5 0.567367 0.075280 0.294327
O O6 0.139531 0.514155 0.079499
O O7 0.107979 0.750000 0.750000
O O8 0.085398 0.597504 0.810150
O O9 0.000000 0.750000 0.838696
O O10 0.505918 0.653086 0.548039
O O11 0.063817 0.484780 0.893614
O O12 0.000000 0.500000 0.000000
O O13 0.250000 0.000000 0.662068
#
# Coordination Sequence:
#
# PCOD9509048 Si02
#       7
#    16   8   8  16   8  16  16
#     4  11  24  41  68 101 138 184 234 281 352 421
#     4  12  24  41  71 100 144 196 228 279 356 435
#     4  10  22  46  70  94 138 182 236 296 350 428
#     4  11  24  38  59  95 141 178 222 277 343 415
#     4  10  22  47  68 104 132 173 244 294 334 442
#     4  11  25  48  73 100 138 184 240 299 365 419
#     4  12  25  43  67 104 139 180 233 293 342 421
#
# _framework density 20.176082999999998
#
# number of rings (size 3 to 8) (size 9 to 14) (size 15 to 20)
#    0.000    0.909    3.636    4.364    7.636    0.000 
#    4.909    1.818    0.000    0.000    0.000    0.000 
#    0.000    0.000    0.000    0.000    0.000    0.000 
#
# Total GULP energy -245577.859915 kJ/mol
# GULP energy per Si atom -5581.314998 kJ/mol
# Density = 2.013016 g / cm^3
# Si number density = 20.176083 Si / 1000 Ang^3
#
#
#
# Elastic Constant Matrix: (Units=GPa)
#
#
# Indices 1 2 3 4 5 6 
#
# 1 117.6010 32.4966 28.3713 0.0000 0.0000 0.0000
# 2 32.4966 144.9472 51.6445 0.0000 0.0000 0.0000
# 3 28.3713 51.6445 117.9071 0.0000 0.0000 0.0000
# 4 0.0000 0.0000 0.0000 26.2481 0.0000 0.0000
# 5 0.0000 0.0000 0.0000 0.0000 11.1226 0.0000
# 6 0.0000 0.0000 0.0000 0.0000 0.0000 40.5632
#
#
#
# Elastic Compliance Matrix: (Units=1/GPa)
#
#
# Indices 1 2 3 4 5 6 
#
# 1 0.009304 -0.001526 -0.001570 0.000000 0.000000 0.000000
# 2 -0.001526 0.008425 -0.003323 0.000000 0.000000 0.000000
# 3 -0.001570 -0.003323 0.010315 0.000000 0.000000 0.000000
# 4 0.000000 0.000000 0.000000 0.038098 0.000000 0.000000
# 5 0.000000 0.000000 0.000000 0.000000 0.089907 0.000000
# 6 0.000000 0.000000 0.000000 0.000000 0.000000 0.024653
#
#
# Mechanical properties :
#
#
# Convention : Reuss Voigt Hill
#
# Bulk Modulus (GPa) = 65.77003 67.27556 66.52279
# Shear Modulus (GPa) = 25.17502 33.44963 29.31232
#
# Velocity S-wave (km/s) = 3.53620 4.07613 3.81573
# Velocity P-wave (km/s) = 7.02437 7.45451 7.24263
#
# Compressibility (1/GPa) = 0.01520449
#
# Stress axis : x y z
#
# Youngs Moduli (GPa) = 107.48138 118.69023 96.94989
#
# Poissons Ratio (x) = 0.18118 0.15223
# Poissons Ratio (y) = 0.16407 0.32217
# Poissons Ratio (z) = 0.16876 0.39441
#
# Static dielectric constant tensor:
#      x y z
#    x 1.846760 0.000000 0.000000 
#    y 0.000000 1.776080 0.000000 
#    z 0.000000 0.000000 1.590810 
# 
# From -- ./inp_files/45349.got.cif
#   From: 2010.05.17/outbox.cif.g08.bks.cpg/sg68_23_cif.got.tgz:45349.got - 2010.06.03 18:57:09.
