data_PCOD9509309
_publ_section_title
;
Structure prediction by ZEFSAII (Michael W. Deem and Ramdas Pophale) SiO2 
 PCOD9509309
Probable space group: C C C A
;
_chemical_formula_sum "Si O2"
_cell_formula_units_Z 68
_cell_length_a 24.965295
_cell_length_b 6.660459
_cell_length_c 14.829750
_cell_angle_alpha 90.000000
_cell_angle_beta 90.000000
_cell_angle_gamma 90.000000
_cell_volume 2465.895631
_symmetry_space_group_name_H-M "C C C A"
_symmetry_group_IT_number 68
_space_group.IT_coordinate_system_code '2'
_symmetry_cell_setting 'orthorhombic'
loop_
_space_group_symop_operation_xyz
x,y,z
-x,1/2-y,z
x,1/2-y,1/2-z
-x,y,1/2-z
-x,-y,-z
x,1/2+y,-z
-x,1/2+y,1/2+z
x,-y,1/2+z
1/2+x,1/2+y,z
1/2-x,-y,z
1/2+x,-y,1/2-z
1/2-x,1/2+y,1/2-z
1/2-x,1/2-y,-z
1/2+x,y,-z
1/2-x,y,1/2+z
1/2+x,1/2-y,1/2+z
loop_
_atom_site_type_symbol
_atom_site_label
_atom_site_fract_x
_atom_site_fract_y
_atom_site_fract_z
Si Si1 0.584252 0.018729 0.761688
Si Si2 0.500000 0.750000 0.750000
Si Si3 0.309635 0.012382 0.343762
Si Si4 0.437776 0.493843 0.470141
Si Si5 0.648047 0.250816 0.504389
O O1 0.575791 0.250000 0.750000
O O2 0.643389 0.969217 0.729056
O O3 0.566310 0.973171 0.862126
O O4 0.541917 0.898115 0.701005
O O5 0.322928 0.808498 0.401048
O O6 0.250000 0.000000 0.307748
O O7 0.316529 0.196163 0.414866
O O8 0.500000 0.500000 0.500000
O O9 0.366965 0.498034 0.483311
O O10 0.423062 0.749558 0.491889
#
# Coordination Sequence:
#
# PCOD9509309 Si02
#       5
#    16   4  16  16  16
#     4  12  27  50  74 116 156 208 266 328 404 473
#     4  12  30  44  76 106 160 196 260 330 392 474
#     4  11  24  49  75 110 159 206 264 331 396 477
#     4  11  24  42  71 103 149 200 252 323 397 472
#     4  10  23  43  71 110 142 199 266 310 397 479
#
# _framework density 27.576187999999998
#
# number of rings (size 3 to 8) (size 9 to 14) (size 15 to 20)
#    0.000    0.941    2.353    3.176    9.882    1.882 
#    6.353    1.176    0.000    0.000    0.000    0.000 
#    0.000    0.000    0.000    0.000    0.000    0.000 
#
# Total GULP energy -189880.251456 kJ/mol
# GULP energy per Si atom -5584.713278 kJ/mol
# Density = 2.751342 g / cm^3
# Si number density = 27.576188 Si / 1000 Ang^3
#
#
#
# Elastic Constant Matrix: (Units=GPa)
#
#
# Indices 1 2 3 4 5 6 
#
# 1 282.4075 80.5250 73.3533 0.0000 0.0000 0.0000
# 2 80.5250 253.7580 32.2445 0.0000 0.0000 0.0000
# 3 73.3533 32.2445 148.0660 0.0000 0.0000 0.0000
# 4 0.0000 0.0000 0.0000 44.7253 0.0000 0.0000
# 5 0.0000 0.0000 0.0000 0.0000 28.1649 0.0000
# 6 0.0000 0.0000 0.0000 0.0000 0.0000 38.4867
#
#
#
# Elastic Compliance Matrix: (Units=1/GPa)
#
#
# Indices 1 2 3 4 5 6 
#
# 1 0.004363 -0.001142 -0.001913 0.000000 0.000000 0.000000
# 2 -0.001142 0.004352 -0.000382 0.000000 0.000000 0.000000
# 3 -0.001913 -0.000382 0.007785 0.000000 0.000000 0.000000
# 4 0.000000 0.000000 0.000000 0.022359 0.000000 0.000000
# 5 0.000000 0.000000 0.000000 0.000000 0.035505 0.000000
# 6 0.000000 0.000000 0.000000 0.000000 0.000000 0.025983
#
#
# Mechanical properties :
#
#
# Convention : Reuss Voigt Hill
#
# Bulk Modulus (GPa) = 103.88304 117.38634 110.63469
# Shear Modulus (GPa) = 45.27807 55.48262 50.38035
#
# Velocity S-wave (km/s) = 4.05647 4.49037 4.27892
# Velocity P-wave (km/s) = 7.72612 8.33936 8.03859
#
# Compressibility (1/GPa) = 0.00962621
#
# Stress axis : x y z
#
# Youngs Moduli (GPa) = 229.17996 229.80254 128.45692
#
# Poissons Ratio (x) = 0.26233 0.24575
# Poissons Ratio (y) = 0.26162 0.04909
# Poissons Ratio (z) = 0.43844 0.08781
#
# Static dielectric constant tensor:
#      x y z
#    x 2.128600 0.000000 0.000000 
#    y 0.000000 2.343600 0.000000 
#    z 0.000000 0.000000 2.166090 
# 
# From -- ./inp_files/32594.got.cif
#   From: 2010.05.17/outbox.cif.g08.bks.cpg/sg68_17_cif.got.tgz:32594.got - 2010.06.03 18:57:09.
