data_PCOD9509845
_publ_section_title
;
Structure prediction by ZEFSAII (Michael W. Deem and Ramdas Pophale) SiO2 
 PCOD9509845
Probable space group: C C C A
;
_chemical_formula_sum "Si O2"
_cell_formula_units_Z 60
_cell_length_a 8.990936
_cell_length_b 12.129831
_cell_length_c 23.082404
_cell_angle_alpha 90.000000
_cell_angle_beta 90.000000
_cell_angle_gamma 90.000000
_cell_volume 2517.333146
_symmetry_space_group_name_H-M "C C C A"
_symmetry_group_IT_number 68
_space_group.IT_coordinate_system_code '2'
_symmetry_cell_setting 'orthorhombic'
loop_
_space_group_symop_operation_xyz
x,y,z
-x,1/2-y,z
x,1/2-y,1/2-z
-x,y,1/2-z
-x,-y,-z
x,1/2+y,-z
-x,1/2+y,1/2+z
x,-y,1/2+z
1/2+x,1/2+y,z
1/2-x,-y,z
1/2+x,-y,1/2-z
1/2-x,1/2+y,1/2-z
1/2-x,1/2-y,-z
1/2+x,y,-z
1/2-x,y,1/2+z
1/2+x,1/2-y,1/2+z
loop_
_atom_site_type_symbol
_atom_site_label
_atom_site_fract_x
_atom_site_fract_y
_atom_site_fract_z
Si Si1 0.000000 0.250000 0.513053
Si Si2 0.500000 0.750000 0.250000
Si Si3 0.760502 0.131485 0.170191
Si Si4 0.000000 0.389125 0.750000
Si Si5 0.770167 0.313770 0.079553
Si Si6 0.750000 0.000000 0.828395
O O1 0.890095 0.182218 0.471335
O O2 0.893702 0.325117 0.552456
O O3 0.395111 0.674482 0.209991
O O4 0.610766 0.167882 0.203950
O O5 0.774386 0.193725 0.109474
O O6 0.750000 0.000000 0.164023
O O7 0.884457 0.458956 0.711333
O O8 0.797995 0.400629 0.130004
#
# Coordination Sequence:
#
# PCOD9509845 Si02
#       6
#     8   4  16   8  16   8
#     4  10  25  52  70 104 138 198 263 330 382 448
#     4  12  28  50  78 118 168 212 262 310 390 480
#     4  12  27  46  77 115 158 209 252 315 383 480
#     4  12  27  45  72 118 162 197 257 296 394 478
#     4  11  26  48  74 105 147 194 263 318 391 451
#     4  12  28  46  74 114 154 208 248 320 392 476
#
# _framework density 23.834748999999999
#
# number of rings (size 3 to 8) (size 9 to 14) (size 15 to 20)
#    0.000    0.533    1.333    4.800    7.467    4.800 
#    9.600    0.000    0.000    0.000    0.000    0.000 
#    0.000    0.000    0.000    0.000    0.000    0.000 
#
# Total GULP energy -168226.448587 kJ/mol
# GULP energy per Si atom -5607.548286 kJ/mol
# Density = 2.378050 g / cm^3
# Si number density = 23.834749 Si / 1000 Ang^3
#
#
#
# Elastic Constant Matrix: (Units=GPa)
#
#
# Indices 1 2 3 4 5 6 
#
# 1 153.4754 15.9832 38.3236 0.0000 0.0000 0.0000
# 2 15.9832 119.9707 28.3151 0.0000 0.0000 0.0000
# 3 38.3236 28.3151 111.3732 0.0000 0.0000 0.0000
# 4 0.0000 0.0000 0.0000 13.2985 0.0000 0.0000
# 5 0.0000 0.0000 0.0000 0.0000 31.2266 0.0000
# 6 0.0000 0.0000 0.0000 0.0000 0.0000 34.7794
#
#
#
# Elastic Compliance Matrix: (Units=1/GPa)
#
#
# Indices 1 2 3 4 5 6 
#
# 1 0.007146 -0.000395 -0.002358 0.000000 0.000000 0.000000
# 2 -0.000395 0.008889 -0.002124 0.000000 0.000000 0.000000
# 3 -0.002358 -0.002124 0.010330 0.000000 0.000000 0.000000
# 4 0.000000 0.000000 0.000000 0.075197 0.000000 0.000000
# 5 0.000000 0.000000 0.000000 0.000000 0.032024 0.000000
# 6 0.000000 0.000000 0.000000 0.000000 0.000000 0.028753
#
#
# Mechanical properties :
#
#
# Convention : Reuss Voigt Hill
#
# Bulk Modulus (GPa) = 60.20443 61.11811 60.66127
# Shear Modulus (GPa) = 28.14828 36.00739 32.07784
#
# Velocity S-wave (km/s) = 3.44026 3.89100 3.67255
# Velocity P-wave (km/s) = 6.41050 6.77382 6.59466
#
# Compressibility (1/GPa) = 0.01661007
#
# Stress axis : x y z
#
# Youngs Moduli (GPa) = 139.94297 112.49445 96.80255
#
# Poissons Ratio (x) = 0.04448 0.22829
# Poissons Ratio (y) = 0.05533 0.20560
# Poissons Ratio (z) = 0.33003 0.23893
#
# Static dielectric constant tensor:
#      x y z
#    x 1.908060 0.000000 0.000000 
#    y 0.000000 2.006440 0.000000 
#    z 0.000000 0.000000 1.859780 
# 
# From -- ./inp_files/48778.got.cif
#   From: 2010.05.17/outbox.cif.g08.bks.cpg/sg68_25_cif.got.tgz:48778.got - 2010.06.03 18:57:09.
