data_PCOD9509270
_publ_section_title
;
Structure prediction by ZEFSAII (Michael W. Deem and Ramdas Pophale) SiO2 
 PCOD9509270
Probable space group: C C C A
;
_chemical_formula_sum "Si O2"
_cell_formula_units_Z 72
_cell_length_a 8.139469
_cell_length_b 17.954260
_cell_length_c 22.543814
_cell_angle_alpha 90.000000
_cell_angle_beta 90.000000
_cell_angle_gamma 90.000000
_cell_volume 3294.511107
_symmetry_space_group_name_H-M "C C C A"
_symmetry_group_IT_number 68
_space_group.IT_coordinate_system_code '2'
_symmetry_cell_setting 'orthorhombic'
loop_
_space_group_symop_operation_xyz
x,y,z
-x,1/2-y,z
x,1/2-y,1/2-z
-x,y,1/2-z
-x,-y,-z
x,1/2+y,-z
-x,1/2+y,1/2+z
x,-y,1/2+z
1/2+x,1/2+y,z
1/2-x,-y,z
1/2+x,-y,1/2-z
1/2-x,1/2+y,1/2-z
1/2-x,1/2-y,-z
1/2+x,y,-z
1/2-x,y,1/2+z
1/2+x,1/2-y,1/2+z
loop_
_atom_site_type_symbol
_atom_site_label
_atom_site_fract_x
_atom_site_fract_y
_atom_site_fract_z
Si Si1 0.750000 0.000000 0.906316
Si Si2 0.022436 0.095175 0.967671
Si Si3 0.750000 0.500000 0.393913
Si Si4 0.477957 0.918063 0.181870
Si Si5 0.771702 0.693010 0.552984
Si Si6 0.500000 0.750000 0.350092
O O1 0.894699 0.026961 0.951718
O O2 0.684179 0.062005 0.858329
O O3 0.907915 0.158339 0.938686
O O4 0.182624 0.067599 0.933531
O O5 0.906678 0.868047 0.971570
O O6 0.611148 0.534818 0.353611
O O7 0.500000 0.942633 0.250000
O O8 0.511748 0.829514 0.181638
O O9 0.750000 0.750000 0.500000
O O10 0.843649 0.737274 0.607758
#
# Coordination Sequence:
#
# PCOD9509270 Si02
#       6
#     8  16   8  16  16   8
#     4  10  23  43  64  96 130 168 216 274 326 388
#     4  11  24  40  62  97 131 174 210 261 322 403
#     4  10  25  43  66  98 132 168 222 276 330 390
#     4  11  23  44  69  93 125 171 225 277 331 377
#     4  12  23  40  63  93 135 177 210 256 327 396
#     4  12  23  40  64  96 128 172 215 266 322 394
#
# _framework density 21.854531999999999
#
# number of rings (size 3 to 8) (size 9 to 14) (size 15 to 20)
#    0.000    0.889    4.444    2.333    0.000    2.667 
#    0.000    0.000    0.000    0.000    0.000    0.000 
#    0.000    0.000    0.000    0.000    0.000    0.000 
#
# Total GULP energy -200683.432009 kJ/mol
# GULP energy per Si atom -5574.539778 kJ/mol
# Density = 2.180479 g / cm^3
# Si number density = 21.854532 Si / 1000 Ang^3
#
#
#
# Elastic Constant Matrix: (Units=GPa)
#
#
# Indices 1 2 3 4 5 6 
#
# 1 72.5186 11.2597 38.6113 0.0000 0.0000 0.0000
# 2 11.2597 114.2225 24.3888 0.0000 0.0000 0.0000
# 3 38.6113 24.3888 125.5990 0.0000 0.0000 0.0000
# 4 0.0000 0.0000 0.0000 21.1000 0.0000 0.0000
# 5 0.0000 0.0000 0.0000 0.0000 15.6463 0.0000
# 6 0.0000 0.0000 0.0000 0.0000 0.0000 45.3793
#
#
#
# Elastic Compliance Matrix: (Units=1/GPa)
#
#
# Indices 1 2 3 4 5 6 
#
# 1 0.016524 -0.000568 -0.004969 0.000000 0.000000 0.000000
# 2 -0.000568 0.009153 -0.001603 0.000000 0.000000 0.000000
# 3 -0.004969 -0.001603 0.009801 0.000000 0.000000 0.000000
# 4 0.000000 0.000000 0.000000 0.047393 0.000000 0.000000
# 5 0.000000 0.000000 0.000000 0.000000 0.063913 0.000000
# 6 0.000000 0.000000 0.000000 0.000000 0.000000 0.022036
#
#
# Mechanical properties :
#
#
# Convention : Reuss Voigt Hill
#
# Bulk Modulus (GPa) = 47.17546 51.20664 49.19105
# Shear Modulus (GPa) = 26.29285 32.29715 29.29500
#
# Velocity S-wave (km/s) = 3.47231 3.84842 3.66519
# Velocity P-wave (km/s) = 6.14076 6.57485 6.36151
#
# Compressibility (1/GPa) = 0.02119746
#
# Stress axis : x y z
#
# Youngs Moduli (GPa) = 60.51956 109.25332 102.03297
#
# Poissons Ratio (x) = 0.06203 0.50704
# Poissons Ratio (y) = 0.03436 0.16354
# Poissons Ratio (z) = 0.30074 0.17511
#
# Static dielectric constant tensor:
#      x y z
#    x 1.950870 0.000000 0.000000 
#    y 0.000000 1.941000 0.000000 
#    z 0.000000 0.000000 1.795280 
# 
# From -- ./inp_files/53921.got.cif
#   From: 2010.05.17/outbox.cif.g08.bks.cpg/sg68_27_cif.got.tgz:53921.got - 2010.06.03 18:57:09.
