data_PCOD9509644
_publ_section_title
;
Structure prediction by ZEFSAII (Michael W. Deem and Ramdas Pophale) SiO2 
 PCOD9509644
Probable space group: C C C A
;
_chemical_formula_sum "Si O2"
_cell_formula_units_Z 52
_cell_length_a 11.647682
_cell_length_b 22.932383
_cell_length_c 8.641921
_cell_angle_alpha 90.000000
_cell_angle_beta 90.000000
_cell_angle_gamma 90.000000
_cell_volume 2308.335781
_symmetry_space_group_name_H-M "C C C A"
_symmetry_group_IT_number 68
_space_group.IT_coordinate_system_code '2'
_symmetry_cell_setting 'orthorhombic'
loop_
_space_group_symop_operation_xyz
x,y,z
-x,1/2-y,z
x,1/2-y,1/2-z
-x,y,1/2-z
-x,-y,-z
x,1/2+y,-z
-x,1/2+y,1/2+z
x,-y,1/2+z
1/2+x,1/2+y,z
1/2-x,-y,z
1/2+x,-y,1/2-z
1/2-x,1/2+y,1/2-z
1/2-x,1/2-y,-z
1/2+x,y,-z
1/2-x,y,1/2+z
1/2+x,1/2-y,1/2+z
loop_
_atom_site_type_symbol
_atom_site_label
_atom_site_fract_x
_atom_site_fract_y
_atom_site_fract_z
Si Si1 0.416788 0.446042 0.967676
Si Si2 0.234248 0.091618 0.297007
Si Si3 0.398405 0.850663 0.546895
Si Si4 0.500000 0.250000 0.250000
O O1 0.365070 0.442512 0.795206
O O2 0.487166 0.387097 0.006697
O O3 0.500000 0.500000 0.000000
O O4 0.307994 0.444650 0.081159
O O5 0.323835 0.113657 0.170660
O O6 0.176227 0.145461 0.390128
O O7 0.428236 0.791108 0.633375
#
# Coordination Sequence:
#
# PCOD9509644 Si02
#       4
#    16  16  16   4
#     4  11  24  45  72 106 150 185 245 298 364 445
#     4  10  24  45  71 108 141 195 239 290 380 436
#     4  11  24  45  70 103 143 187 243 299 366 426
#     4  12  24  48  74 100 154 188 250 322 348 452
#
# _framework density 22.527051
#
# number of rings (size 3 to 8) (size 9 to 14) (size 15 to 20)
#    0.000    1.231    3.077    0.923    0.000   13.538 
#    0.000    6.154    0.000    0.000    0.000    0.000 
#    0.000    0.000    0.000    0.000    0.000    0.000 
#
# Total GULP energy -145468.890113 kJ/mol
# GULP energy per Si atom -5594.957312 kJ/mol
# Density = 2.247578 g / cm^3
# Si number density = 22.527051 Si / 1000 Ang^3
#
#
#
# Elastic Constant Matrix: (Units=GPa)
#
#
# Indices 1 2 3 4 5 6 
#
# 1 128.6274 48.9420 61.3459 0.0000 0.0000 0.0000
# 2 48.9420 92.6241 36.1790 0.0000 0.0000 0.0000
# 3 61.3459 36.1790 142.7110 0.0000 0.0000 0.0000
# 4 0.0000 0.0000 0.0000 38.3319 0.0000 0.0000
# 5 0.0000 0.0000 0.0000 0.0000 44.4669 0.0000
# 6 0.0000 0.0000 0.0000 0.0000 0.0000 16.9675
#
#
#
# Elastic Compliance Matrix: (Units=1/GPa)
#
#
# Indices 1 2 3 4 5 6 
#
# 1 0.011249 -0.004501 -0.003694 0.000000 0.000000 0.000000
# 2 -0.004501 0.013784 -0.001560 0.000000 0.000000 0.000000
# 3 -0.003694 -0.001560 0.008991 0.000000 0.000000 0.000000
# 4 0.000000 0.000000 0.000000 0.026088 0.000000 0.000000
# 5 0.000000 0.000000 0.000000 0.000000 0.022489 0.000000
# 6 0.000000 0.000000 0.000000 0.000000 0.000000 0.058936
#
#
# Mechanical properties :
#
#
# Convention : Reuss Voigt Hill
#
# Bulk Modulus (GPa) = 68.90128 72.98846 70.94487
# Shear Modulus (GPa) = 30.14159 34.45296 32.29728
#
# Velocity S-wave (km/s) = 3.66186 3.91500 3.79055
# Velocity P-wave (km/s) = 6.96645 7.27372 7.12174
#
# Compressibility (1/GPa) = 0.01451352
#
# Stress axis : x y z
#
# Youngs Moduli (GPa) = 88.89754 72.54941 111.22660
#
# Poissons Ratio (x) = 0.32653 0.41092
# Poissons Ratio (y) = 0.40011 0.17347
# Poissons Ratio (z) = 0.32843 0.11315
#
# Static dielectric constant tensor:
#      x y z
#    x 1.855410 0.000000 0.000000 
#    y 0.000000 1.815120 0.000000 
#    z 0.000000 0.000000 1.857790 
# 
# From -- ./inp_files/3832.got.cif
#   From: 2010.05.17/outbox.cif.g08.bks.cpg/sg68_2_cif.got.tgz:3832.got - 2010.06.03 18:57:09.
