data_PCOD9509609
_publ_section_title
;
Structure prediction by ZEFSAII (Michael W. Deem and Ramdas Pophale) SiO2 
 PCOD9509609
Probable space group: C C C A
;
_chemical_formula_sum "Si O2"
_cell_formula_units_Z 64
_cell_length_a 30.761172
_cell_length_b 10.549896
_cell_length_c 9.250888
_cell_angle_alpha 90.000000
_cell_angle_beta 90.000000
_cell_angle_gamma 90.000000
_cell_volume 3002.164460
_symmetry_space_group_name_H-M "C C C A"
_symmetry_group_IT_number 68
_space_group.IT_coordinate_system_code '2'
_symmetry_cell_setting 'orthorhombic'
loop_
_space_group_symop_operation_xyz
x,y,z
-x,1/2-y,z
x,1/2-y,1/2-z
-x,y,1/2-z
-x,-y,-z
x,1/2+y,-z
-x,1/2+y,1/2+z
x,-y,1/2+z
1/2+x,1/2+y,z
1/2-x,-y,z
1/2+x,-y,1/2-z
1/2-x,1/2+y,1/2-z
1/2-x,1/2-y,-z
1/2+x,y,-z
1/2-x,y,1/2+z
1/2+x,1/2-y,1/2+z
loop_
_atom_site_type_symbol
_atom_site_label
_atom_site_fract_x
_atom_site_fract_y
_atom_site_fract_z
Si Si1 0.212328 0.345937 0.050150
Si Si2 0.000000 0.009902 0.750000
Si Si3 0.250000 0.000000 0.688790
Si Si4 0.888260 0.710993 0.916261
Si Si5 0.062751 0.945492 0.491847
O O1 0.213854 0.448425 0.920861
O O2 0.250000 0.250000 0.000000
O O3 0.228298 0.400793 0.202721
O O4 0.163226 0.303268 0.064625
O O5 0.969092 0.082669 0.640978
O O6 0.032943 0.940931 0.637262
O O7 0.896820 0.750000 0.750000
O O8 0.914578 0.583432 0.964462
O O9 0.902919 0.833661 0.004507
#
# Coordination Sequence:
#
# PCOD9509609 Si02
#       5
#    16   8   8  16  16
#     4  11  25  46  71 103 146 196 236 296 358 428
#     4  10  24  50  74 108 142 192 244 290 388 438
#     4  10  24  44  72 102 136 204 240 286 358 426
#     4  12  27  47  73 114 149 184 248 302 361 420
#     4  11  26  47  78 106 145 192 237 308 361 443
#
# _framework density 21.317951000000001
#
# number of rings (size 3 to 8) (size 9 to 14) (size 15 to 20)
#    0.000    1.000    2.500    2.250   10.500    7.000 
#    4.500    0.000    0.000    0.000    0.000    0.000 
#    0.000    0.000    0.000    0.000    0.000    0.000 
#
# Total GULP energy -178661.853128 kJ/mol
# GULP energy per Si atom -5583.182910 kJ/mol
# Density = 2.126943 g / cm^3
# Si number density = 21.317951 Si / 1000 Ang^3
#
#
#
# Elastic Constant Matrix: (Units=GPa)
#
#
# Indices 1 2 3 4 5 6 
#
# 1 139.0680 57.8096 54.1485 0.0000 0.0000 0.0000
# 2 57.8096 120.8021 45.5082 0.0000 0.0000 0.0000
# 3 54.1485 45.5082 144.1323 0.0000 0.0000 0.0000
# 4 0.0000 0.0000 0.0000 24.0746 0.0000 0.0000
# 5 0.0000 0.0000 0.0000 0.0000 13.1960 0.0000
# 6 0.0000 0.0000 0.0000 0.0000 0.0000 1.8218
#
#
#
# Elastic Compliance Matrix: (Units=1/GPa)
#
#
# Indices 1 2 3 4 5 6 
#
# 1 0.009694 -0.003708 -0.002471 0.000000 0.000000 0.000000
# 2 -0.003708 0.010814 -0.002021 0.000000 0.000000 0.000000
# 3 -0.002471 -0.002021 0.008505 0.000000 0.000000 0.000000
# 4 0.000000 0.000000 0.000000 0.041538 0.000000 0.000000
# 5 0.000000 0.000000 0.000000 0.000000 0.075780 0.000000
# 6 0.000000 0.000000 0.000000 0.000000 0.000000 0.548921
#
#
# Mechanical properties :
#
#
# Convention : Reuss Voigt Hill
#
# Bulk Modulus (GPa) = 79.29209 79.88166 79.58688
# Shear Modulus (GPa) = 6.98463 24.25422 15.61942
#
# Velocity S-wave (km/s) = 1.81205 3.37669 2.70976
# Velocity P-wave (km/s) = 6.45397 7.26331 6.87057
#
# Compressibility (1/GPa) = 0.01261160
#
# Stress axis : x y z
#
# Youngs Moduli (GPa) = 103.15168 92.47230 117.58257
#
# Poissons Ratio (x) = 0.34292 0.29057
# Poissons Ratio (y) = 0.38252 0.23766
# Poissons Ratio (z) = 0.25491 0.18691
#
# Static dielectric constant tensor:
#      x y z
#    x 1.772910 0.000000 0.000000 
#    y 0.000000 1.863530 0.000000 
#    z 0.000000 0.000000 1.795840 
# 
# From -- ./inp_files/9384.got.cif
#   From: 2010.05.17/outbox.cif.g08.bks.cpg/sg68_5_cif.got.tgz:9384.got - 2010.06.03 18:57:09.
