data_PCOD9509701
_publ_section_title
;
Structure prediction by ZEFSAII (Michael W. Deem and Ramdas Pophale) SiO2 
 PCOD9509701
Probable space group: C C C A
;
_chemical_formula_sum "Si O2"
_cell_formula_units_Z 36
_cell_length_a 17.815494
_cell_length_b 13.627812
_cell_length_c 5.527749
_cell_angle_alpha 90.000000
_cell_angle_beta 90.000000
_cell_angle_gamma 90.000000
_cell_volume 1342.061190
_symmetry_space_group_name_H-M "C C C A"
_symmetry_group_IT_number 68
_space_group.IT_coordinate_system_code '2'
_symmetry_cell_setting 'orthorhombic'
loop_
_space_group_symop_operation_xyz
x,y,z
-x,1/2-y,z
x,1/2-y,1/2-z
-x,y,1/2-z
-x,-y,-z
x,1/2+y,-z
-x,1/2+y,1/2+z
x,-y,1/2+z
1/2+x,1/2+y,z
1/2-x,-y,z
1/2+x,-y,1/2-z
1/2-x,1/2+y,1/2-z
1/2-x,1/2-y,-z
1/2+x,y,-z
1/2-x,y,1/2+z
1/2+x,1/2-y,1/2+z
loop_
_atom_site_type_symbol
_atom_site_label
_atom_site_fract_x
_atom_site_fract_y
_atom_site_fract_z
Si Si1 0.000000 0.750000 0.250000
Si Si2 0.706529 0.133228 0.751862
Si Si3 0.053190 0.908313 0.935279
O O1 0.940419 0.830451 0.352291
O O2 0.687999 0.250000 0.750000
O O3 0.759038 0.114422 0.516886
O O4 0.631132 0.072265 0.695888
O O5 0.000000 0.851386 0.750000
O O6 0.000000 0.000000 0.000000
#
# Coordination Sequence:
#
# PCOD9509701 Si02
#       3
#     4  16  16
#     4  12  26  48  84 108 164 212 276 340 406 490
#     4  10  24  46  80 118 162 215 274 347 425 496
#     4  12  27  49  80 118 161 216 278 343 419 506
#
# _framework density 26.82441
#
# number of rings (size 3 to 8) (size 9 to 14) (size 15 to 20)
#    0.000    0.889    2.222    3.333   15.556    0.000 
#    0.000    6.667    0.000    0.000    0.000    0.000 
#    0.000    0.000    0.000    0.000    0.000    0.000 
#
# Total GULP energy -100550.909309 kJ/mol
# GULP energy per Si atom -5586.161628 kJ/mol
# Density = 2.676336 g / cm^3
# Si number density = 26.824410 Si / 1000 Ang^3
#
#
#
# Elastic Constant Matrix: (Units=GPa)
#
#
# Indices 1 2 3 4 5 6 
#
# 1 180.4138 51.5349 65.6015 0.0000 0.0000 0.0000
# 2 51.5349 195.3617 43.3055 0.0000 0.0000 0.0000
# 3 65.6015 43.3055 118.7526 0.0000 0.0000 0.0000
# 4 0.0000 0.0000 0.0000 -6.4673 0.0000 0.0000
# 5 0.0000 0.0000 0.0000 0.0000 57.6326 0.0000
# 6 0.0000 0.0000 0.0000 0.0000 0.0000 34.3627
#
#
#
# Elastic Compliance Matrix: (Units=1/GPa)
#
#
# Indices 1 2 3 4 5 6 
#
# 1 0.007147 -0.001099 -0.003547 0.000000 0.000000 0.000000
# 2 -0.001099 0.005738 -0.001485 0.000000 0.000000 0.000000
# 3 -0.003547 -0.001485 0.010922 0.000000 0.000000 0.000000
# 4 0.000000 0.000000 0.000000 -0.154624 0.000000 0.000000
# 5 0.000000 0.000000 0.000000 0.000000 0.017351 0.000000
# 6 0.000000 0.000000 0.000000 0.000000 0.000000 0.029101
#
#
# Mechanical properties :
#
#
# Convention : Reuss Voigt Hill
#
# Bulk Modulus (GPa) = 86.62820 90.60133 88.61476
# Shear Modulus (GPa) = -73.25565 39.37800 -16.93882
#
# Velocity S-wave (km/s) = -5.23150 3.83559 -2.51563
# Velocity P-wave (km/s) = 2.03146 7.31196 4.96679
#
# Compressibility (1/GPa) = 0.01154359
#
# Stress axis : x y z
#
# Youngs Moduli (GPa) = 139.92822 174.28123 91.55778
#
# Poissons Ratio (x) = 0.19152 0.32477
# Poissons Ratio (y) = 0.15377 0.13600
# Poissons Ratio (z) = 0.49635 0.25887
#
# Static dielectric constant tensor:
#      x y z
#    x 2.102620 0.000000 0.000000 
#    y 0.000000 2.086100 0.000000 
#    z 0.000000 0.000000 4.952290 
# 
# From -- ./inp_files/1196.got.cif
#   From: 2010.05.17/outbox.cif.g08.bks.cpg/sg68_1_cif.got.tgz:1196.got - 2010.06.03 18:57:09.
