data_PCOD9509132
_publ_section_title
;
Structure prediction by ZEFSAII (Michael W. Deem and Ramdas Pophale) SiO2 
 PCOD9509132
Probable space group: C C C A
;
_chemical_formula_sum "Si O2"
_cell_formula_units_Z 80
_cell_length_a 20.729383
_cell_length_b 8.470979
_cell_length_c 21.175488
_cell_angle_alpha 90.000000
_cell_angle_beta 90.000000
_cell_angle_gamma 90.000000
_cell_volume 3718.376901
_symmetry_space_group_name_H-M "C C C A"
_symmetry_group_IT_number 68
_space_group.IT_coordinate_system_code '2'
_symmetry_cell_setting 'orthorhombic'
loop_
_space_group_symop_operation_xyz
x,y,z
-x,1/2-y,z
x,1/2-y,1/2-z
-x,y,1/2-z
-x,-y,-z
x,1/2+y,-z
-x,1/2+y,1/2+z
x,-y,1/2+z
1/2+x,1/2+y,z
1/2-x,-y,z
1/2+x,-y,1/2-z
1/2-x,1/2+y,1/2-z
1/2-x,1/2-y,-z
1/2+x,y,-z
1/2-x,y,1/2+z
1/2+x,1/2-y,1/2+z
loop_
_atom_site_type_symbol
_atom_site_label
_atom_site_fract_x
_atom_site_fract_y
_atom_site_fract_z
Si Si1 0.738545 0.672892 0.868024
Si Si2 0.453172 0.899538 0.668597
Si Si3 0.358350 0.390827 0.445616
Si Si4 0.864469 0.251510 0.082028
Si Si5 0.154496 0.250000 0.750000
Si Si6 0.500000 0.250000 0.850900
O O1 0.750000 0.500000 0.896033
O O2 0.696904 0.784223 0.913667
O O3 0.812316 0.726172 0.862851
O O4 0.699468 0.670823 0.802887
O O5 0.500000 0.750000 0.678856
O O6 0.423006 0.875394 0.597972
O O7 0.392185 0.875005 0.715092
O O8 0.485645 0.072731 0.677950
O O9 0.346070 0.574727 0.440431
O O10 0.362402 0.350577 0.518804
O O11 0.935348 0.230202 0.109015
#
# Coordination Sequence:
#
# PCOD9509132 Si02
#       6
#    16  16  16  16   8   8
#     4  11  24  42  69  92 132 180 233 288 344 402
#     4  10  23  44  71  98 142 177 229 280 346 419
#     4  10  23  39  67 101 139 179 225 279 344 414
#     4  11  23  41  66 103 140 179 225 281 347 420
#     4  10  25  46  70  95 126 192 234 292 352 403
#     4  10  26  40  71 106 140 177 226 286 346 426
#
# _framework density 21.514764
#
# number of rings (size 3 to 8) (size 9 to 14) (size 15 to 20)
#    0.000    1.600    0.000    2.700    9.800    6.400 
#    0.000    2.000    8.800    0.000    0.000    0.000 
#    0.000    0.000    0.000    0.000    0.000    0.000 
#
# Total GULP energy -223019.035730 kJ/mol
# GULP energy per Si atom -5575.475893 kJ/mol
# Density = 2.146580 g / cm^3
# Si number density = 21.514764 Si / 1000 Ang^3
#
#
#
# Elastic Constant Matrix: (Units=GPa)
#
#
# Indices 1 2 3 4 5 6 
#
# 1 145.8388 66.4297 59.3818 0.0000 0.0000 0.0000
# 2 66.4297 147.2881 29.1870 0.0000 0.0000 0.0000
# 3 59.3818 29.1870 87.6239 0.0000 0.0000 0.0000
# 4 0.0000 0.0000 0.0000 62.4431 0.0000 0.0000
# 5 0.0000 0.0000 0.0000 0.0000 17.4079 0.0000
# 6 0.0000 0.0000 0.0000 0.0000 0.0000 39.1485
#
#
#
# Elastic Compliance Matrix: (Units=1/GPa)
#
#
# Indices 1 2 3 4 5 6 
#
# 1 0.011139 -0.003777 -0.006290 0.000000 0.000000 0.000000
# 2 -0.003777 0.008550 -0.000288 0.000000 0.000000 0.000000
# 3 -0.006290 -0.000288 0.015771 0.000000 0.000000 0.000000
# 4 0.000000 0.000000 0.000000 0.016015 0.000000 0.000000
# 5 0.000000 0.000000 0.000000 0.000000 0.057445 0.000000
# 6 0.000000 0.000000 0.000000 0.000000 0.000000 0.025544
#
#
# Mechanical properties :
#
#
# Convention : Reuss Voigt Hill
#
# Bulk Modulus (GPa) = 67.80355 76.74976 72.27666
# Shear Modulus (GPa) = 31.23212 38.85007 35.04110
#
# Velocity S-wave (km/s) = 3.81420 4.25401 4.04009
# Velocity P-wave (km/s) = 7.14008 7.73817 7.44514
#
# Compressibility (1/GPa) = 0.01474849
#
# Stress axis : x y z
#
# Youngs Moduli (GPa) = 89.77693 116.95729 63.40608
#
# Poissons Ratio (x) = 0.44178 0.39885
# Poissons Ratio (y) = 0.33911 0.01827
# Poissons Ratio (z) = 0.56473 0.03371
#
# Static dielectric constant tensor:
#      x y z
#    x 1.786960 0.000000 0.000000 
#    y 0.000000 1.851590 0.000000 
#    z 0.000000 0.000000 1.767730 
# 
# From -- ./inp_files/46431.got.cif
#   From: 2010.05.17/outbox.cif.g08.bks.cpg/sg68_24_cif.got.tgz:46431.got - 2010.06.03 18:57:09.
