data_PCOD9509923
_publ_section_title
;
Structure prediction by ZEFSAII (Michael W. Deem and Ramdas Pophale) SiO2 
 PCOD9509923
Probable space group: C C C A
;
_chemical_formula_sum "Si O2"
_cell_formula_units_Z 128
_cell_length_a 17.124148
_cell_length_b 18.266929
_cell_length_c 25.163659
_cell_angle_alpha 90.000000
_cell_angle_beta 90.000000
_cell_angle_gamma 90.000000
_cell_volume 7871.333344
_symmetry_space_group_name_H-M "C C C A"
_symmetry_group_IT_number 68
_space_group.IT_coordinate_system_code '2'
_symmetry_cell_setting 'orthorhombic'
loop_
_space_group_symop_operation_xyz
x,y,z
-x,1/2-y,z
x,1/2-y,1/2-z
-x,y,1/2-z
-x,-y,-z
x,1/2+y,-z
-x,1/2+y,1/2+z
x,-y,1/2+z
1/2+x,1/2+y,z
1/2-x,-y,z
1/2+x,-y,1/2-z
1/2-x,1/2+y,1/2-z
1/2-x,1/2-y,-z
1/2+x,y,-z
1/2-x,y,1/2+z
1/2+x,1/2-y,1/2+z
loop_
_atom_site_type_symbol
_atom_site_label
_atom_site_fract_x
_atom_site_fract_y
_atom_site_fract_z
Si Si1 0.255865 0.735082 0.406407
Si Si2 0.869892 0.248332 0.190129
Si Si3 0.902851 0.929528 0.022130
Si Si4 0.999473 0.624995 0.689247
Si Si5 0.752262 0.920266 0.461069
Si Si6 0.369452 0.831415 0.476894
Si Si7 0.418865 0.728594 0.570328
Si Si8 0.482408 0.064868 0.922502
O O1 0.302613 0.748243 0.352822
O O2 0.265422 0.650789 0.425328
O O3 0.298570 0.786708 0.450132
O O4 0.164364 0.754589 0.402346
O O5 0.838848 0.250000 0.250000
O O6 0.923616 0.176192 0.184850
O O7 0.927736 0.317870 0.183878
O O8 0.922476 0.854716 0.051930
O O9 0.932254 0.994799 0.059537
O O10 0.811890 0.927931 0.007469
O O11 0.946738 0.933100 0.964908
O O12 0.996133 0.569749 0.639522
O O13 0.000000 0.595125 0.750000
O O14 0.833932 0.898256 0.488611
O O15 0.750000 0.000000 0.433869
O O16 0.412845 0.777724 0.517071
O O17 0.429504 0.864077 0.435098
O O18 0.500000 0.750000 0.598411
#
# Coordination Sequence:
#
# PCOD9509923 Si02
#       8
#    16  16  16  16  16  16  16  16
#     4  11  20  32  53  76  98 140 178 211 262 309
#     4   9  18  32  53  80 100 126 168 215 260 303
#     4  11  21  32  46  73 108 142 167 203 255 310
#     4   9  18  32  51  78 109 132 162 209 258 308
#     4  11  20  32  45  72 110 138 169 206 249 314
#     4  11  19  30  50  74 101 139 173 206 250 306
#     4  11  21  33  48  73 105 136 174 212 250 312
#     4  11  21  29  49  77 107 139 168 201 258 316
#
# _framework density 16.26154
#
# number of rings (size 3 to 8) (size 9 to 14) (size 15 to 20)
#    0.000    1.500    6.250    2.250    0.000    0.000 
#    0.000    0.000    0.000    0.375   13.000    0.000 
#    0.000    0.000    0.000    0.000    0.000    0.000 
#
# Total GULP energy -356777.194243 kJ/mol
# GULP energy per Si atom -5574.643660 kJ/mol
# Density = 1.622453 g / cm^3
# Si number density = 16.261540 Si / 1000 Ang^3
#
#
#
# Elastic Constant Matrix: (Units=GPa)
#
#
# Indices 1 2 3 4 5 6 
#
# 1 67.2891 10.4111 28.6086 0.0000 0.0000 0.0000
# 2 10.4111 79.5292 31.8727 0.0000 0.0000 0.0000
# 3 28.6086 31.8727 107.6362 0.0000 0.0000 0.0000
# 4 0.0000 0.0000 0.0000 20.5637 0.0000 0.0000
# 5 0.0000 0.0000 0.0000 0.0000 19.8379 0.0000
# 6 0.0000 0.0000 0.0000 0.0000 0.0000 16.1942
#
#
#
# Elastic Compliance Matrix: (Units=1/GPa)
#
#
# Indices 1 2 3 4 5 6 
#
# 1 0.016770 -0.000464 -0.004320 0.000000 0.000000 0.000000
# 2 -0.000464 0.014280 -0.004105 0.000000 0.000000 0.000000
# 3 -0.004320 -0.004105 0.011654 0.000000 0.000000 0.000000
# 4 0.000000 0.000000 0.000000 0.048629 0.000000 0.000000
# 5 0.000000 0.000000 0.000000 0.000000 0.050409 0.000000
# 6 0.000000 0.000000 0.000000 0.000000 0.000000 0.061751
#
#
# Mechanical properties :
#
#
# Convention : Reuss Voigt Hill
#
# Bulk Modulus (GPa) = 40.11897 44.02660 42.07279
# Shear Modulus (GPa) = 21.77898 23.55663 22.66781
#
# Velocity S-wave (km/s) = 3.66361 3.81019 3.73762
# Velocity P-wave (km/s) = 6.52845 6.81833 6.67496
#
# Compressibility (1/GPa) = 0.02492587
#
# Stress axis : x y z
#
# Youngs Moduli (GPa) = 59.63161 70.02817 85.80522
#
# Poissons Ratio (x) = 0.03250 0.37066
# Poissons Ratio (y) = 0.02767 0.35224
# Poissons Ratio (z) = 0.25759 0.28748
#
# Static dielectric constant tensor:
#      x y z
#    x 1.579030 0.000000 0.000000 
#    y 0.000000 1.573150 0.000000 
#    z 0.000000 0.000000 1.530270 
# 
# From -- ./inp_files/46200.got.cif
#   From: 2010.05.17/outbox.cif.g08.bks.cpg/sg68_24_cif.got.tgz:46200.got - 2010.06.03 18:57:09.
