data_PCOD9509785
_publ_section_title
;
Structure prediction by ZEFSAII (Michael W. Deem and Ramdas Pophale) SiO2 
 PCOD9509785
Probable space group: C C C A
;
_chemical_formula_sum "Si O2"
_cell_formula_units_Z 88
_cell_length_a 13.373610
_cell_length_b 13.718462
_cell_length_c 22.655706
_cell_angle_alpha 90.000000
_cell_angle_beta 90.000000
_cell_angle_gamma 90.000000
_cell_volume 4156.537271
_symmetry_space_group_name_H-M "C C C A"
_symmetry_group_IT_number 68
_space_group.IT_coordinate_system_code '2'
_symmetry_cell_setting 'orthorhombic'
loop_
_space_group_symop_operation_xyz
x,y,z
-x,1/2-y,z
x,1/2-y,1/2-z
-x,y,1/2-z
-x,-y,-z
x,1/2+y,-z
-x,1/2+y,1/2+z
x,-y,1/2+z
1/2+x,1/2+y,z
1/2-x,-y,z
1/2+x,-y,1/2-z
1/2-x,1/2+y,1/2-z
1/2-x,1/2-y,-z
1/2+x,y,-z
1/2-x,y,1/2+z
1/2+x,1/2-y,1/2+z
loop_
_atom_site_type_symbol
_atom_site_label
_atom_site_fract_x
_atom_site_fract_y
_atom_site_fract_z
Si Si1 0.420940 0.163081 0.148293
Si Si2 0.690303 0.723501 0.942447
Si Si3 0.306077 0.605965 0.158362
Si Si4 0.363431 0.040955 0.501859
Si Si5 0.784738 0.750000 0.250000
Si Si6 0.004900 0.965517 0.898394
O O1 0.500000 0.250000 0.149853
O O2 0.356051 0.184019 0.089679
O O3 0.352788 0.185193 0.205311
O O4 0.478405 0.062471 0.139054
O O5 0.755784 0.665391 0.895108
O O6 0.615785 0.642360 0.967375
O O7 0.750000 0.750000 0.000000
O O8 0.250000 0.500000 0.161146
O O9 0.280492 0.671944 0.214362
O O10 0.423690 0.595305 0.144804
O O11 0.425948 0.971613 0.457829
O O12 0.250000 0.000000 0.501071
O O13 0.400664 0.058166 0.568702
#
# Coordination Sequence:
#
# PCOD9509785 Si02
#       6
#    16  16  16  16   8  16
#     4  11  21  37  59  98 126 164 235 286 323 395
#     4  11  21  35  61  94 142 173 210 274 335 404
#     4  11  21  44  67  95 133 183 227 285 348 400
#     4  11  20  36  58 100 137 174 207 259 341 420
#     4  10  25  42  68  94 127 174 246 304 338 394
#     4  11  21  36  68  93 131 171 216 265 340 413
#
# _framework density 21.171468999999998
#
# number of rings (size 3 to 8) (size 9 to 14) (size 15 to 20)
#    0.000    1.091    5.455    2.455    2.545    0.000 
#    0.000    4.545    0.000    2.182    0.000    1.273 
#    0.000    0.000    0.000    0.000    0.000    0.000 
#
# Total GULP energy -245252.056007 kJ/mol
# GULP energy per Si atom -5573.910364 kJ/mol
# Density = 2.112328 g / cm^3
# Si number density = 21.171469 Si / 1000 Ang^3
#
#
#
# Elastic Constant Matrix: (Units=GPa)
#
#
# Indices 1 2 3 4 5 6 
#
# 1 84.3246 24.9931 49.9139 0.0000 0.0000 0.0000
# 2 24.9931 56.0889 37.4521 0.0000 0.0000 0.0000
# 3 49.9139 37.4521 130.1312 0.0000 0.0000 0.0000
# 4 0.0000 0.0000 0.0000 9.9643 0.0000 0.0000
# 5 0.0000 0.0000 0.0000 0.0000 -5.1595 0.0000
# 6 0.0000 0.0000 0.0000 0.0000 0.0000 25.6317
#
#
#
# Elastic Compliance Matrix: (Units=1/GPa)
#
#
# Indices 1 2 3 4 5 6 
#
# 1 0.015952 -0.003742 -0.005042 0.000000 0.000000 0.000000
# 2 -0.003742 0.022948 -0.005169 0.000000 0.000000 0.000000
# 3 -0.005042 -0.005169 0.011106 0.000000 0.000000 0.000000
# 4 0.000000 0.000000 0.000000 0.100359 0.000000 0.000000
# 5 0.000000 0.000000 0.000000 0.000000 -0.193818 0.000000
# 6 0.000000 0.000000 0.000000 0.000000 0.000000 0.039014
#
#
# Mechanical properties :
#
#
# Convention : Reuss Voigt Hill
#
# Bulk Modulus (GPa) = 45.24766 55.02924 50.13845
# Shear Modulus (GPa) = 162.15986 16.63300 89.39643
#
# Velocity S-wave (km/s) = 8.76127 2.80596 6.50512
# Velocity P-wave (km/s) = 11.12497 6.04537 8.95297
#
# Compressibility (1/GPa) = 0.02210059
#
# Stress axis : x y z
#
# Youngs Moduli (GPa) = 62.68653 43.57717 90.03990
#
# Poissons Ratio (x) = 0.16305 0.45397
# Poissons Ratio (y) = 0.23456 0.46544
# Poissons Ratio (z) = 0.31606 0.22526
#
# Static dielectric constant tensor:
#      x y z
#    x 1.858870 0.000000 0.000000 
#    y 0.000000 1.791940 0.000000 
#    z 0.000000 0.000000 1.706770 
# 
# From -- ./inp_files/44214.got.cif
#   From: 2010.05.17/outbox.cif.g08.bks.cpg/sg68_23_cif.got.tgz:44214.got - 2010.06.03 18:57:09.
