data_PCOD9509521
_publ_section_title
;
Structure prediction by ZEFSAII (Michael W. Deem and Ramdas Pophale) SiO2 
 PCOD9509521
Probable space group: C C C A
;
_chemical_formula_sum "Si O2"
_cell_formula_units_Z 64
_cell_length_a 8.038062
_cell_length_b 31.659372
_cell_length_c 11.307709
_cell_angle_alpha 90.000000
_cell_angle_beta 90.000000
_cell_angle_gamma 90.000000
_cell_volume 2877.585730
_symmetry_space_group_name_H-M "C C C A"
_symmetry_group_IT_number 68
_space_group.IT_coordinate_system_code '2'
_symmetry_cell_setting 'orthorhombic'
loop_
_space_group_symop_operation_xyz
x,y,z
-x,1/2-y,z
x,1/2-y,1/2-z
-x,y,1/2-z
-x,-y,-z
x,1/2+y,-z
-x,1/2+y,1/2+z
x,-y,1/2+z
1/2+x,1/2+y,z
1/2-x,-y,z
1/2+x,-y,1/2-z
1/2-x,1/2+y,1/2-z
1/2-x,1/2-y,-z
1/2+x,y,-z
1/2-x,y,1/2+z
1/2+x,1/2-y,1/2+z
loop_
_atom_site_type_symbol
_atom_site_label
_atom_site_fract_x
_atom_site_fract_y
_atom_site_fract_z
Si Si1 0.633051 0.587818 0.502853
Si Si2 0.612398 0.363551 0.634813
Si Si3 0.688708 0.233466 0.873406
Si Si4 0.380069 0.038672 0.363546
O O1 0.516904 0.627148 0.471057
O O2 0.746641 0.601202 0.613381
O O3 0.516327 0.547717 0.532536
O O4 0.752812 0.576977 0.393107
O O5 0.500000 0.368013 0.750000
O O6 0.687646 0.317161 0.629509
O O7 0.500000 0.250000 0.868920
O O8 0.769483 0.250000 0.750000
O O9 0.750000 0.250000 0.000000
O O10 0.500000 0.037920 0.250000
O O11 0.250000 0.000000 0.361756
#
# Coordination Sequence:
#
# PCOD9509521 Si02
#       4
#    16  16  16  16
#     4  10  24  42  66 100 132 175 228 275 353 398
#     4  11  21  40  67  94 134 176 222 289 336 412
#     4  11  23  42  65  99 136 181 233 283 350 410
#     4  11  24  43  67  99 135 176 223 279 340 418
#
# _framework density 22.240866
#
# number of rings (size 3 to 8) (size 9 to 14) (size 15 to 20)
#    0.000    1.250    2.500    3.750    0.000    6.500 
#    0.000    0.000    0.000    0.000    0.000    0.000 
#    0.000    0.000    0.000    0.000    0.000    0.000 
#
# Total GULP energy -178254.636168 kJ/mol
# GULP energy per Si atom -5570.457380 kJ/mol
# Density = 2.219024 g / cm^3
# Si number density = 22.240866 Si / 1000 Ang^3
#
#
#
# Elastic Constant Matrix: (Units=GPa)
#
#
# Indices 1 2 3 4 5 6 
#
# 1 110.9030 58.6926 63.5544 0.0000 0.0000 0.0000
# 2 58.6926 131.6091 54.8921 0.0000 0.0000 0.0000
# 3 63.5544 54.8921 157.7452 0.0000 0.0000 0.0000
# 4 0.0000 0.0000 0.0000 13.5415 0.0000 0.0000
# 5 0.0000 0.0000 0.0000 0.0000 27.3847 0.0000
# 6 0.0000 0.0000 0.0000 0.0000 0.0000 29.9695
#
#
#
# Elastic Compliance Matrix: (Units=1/GPa)
#
#
# Indices 1 2 3 4 5 6 
#
# 1 0.013623 -0.004429 -0.003947 0.000000 0.000000 0.000000
# 2 -0.004429 0.010328 -0.001810 0.000000 0.000000 0.000000
# 3 -0.003947 -0.001810 0.008559 0.000000 0.000000 0.000000
# 4 0.000000 0.000000 0.000000 0.073847 0.000000 0.000000
# 5 0.000000 0.000000 0.000000 0.000000 0.036517 0.000000
# 6 0.000000 0.000000 0.000000 0.000000 0.000000 0.033367
#
#
# Mechanical properties :
#
#
# Convention : Reuss Voigt Hill
#
# Bulk Modulus (GPa) = 82.38154 83.83729 83.10942
# Shear Modulus (GPa) = 24.91782 29.05369 26.98575
#
# Velocity S-wave (km/s) = 3.35081 3.61823 3.48708
# Velocity P-wave (km/s) = 7.21745 7.43185 7.32544
#
# Compressibility (1/GPa) = 0.01213864
#
# Stress axis : x y z
#
# Youngs Moduli (GPa) = 73.40597 96.82301 116.83029
#
# Poissons Ratio (x) = 0.42882 0.46118
# Poissons Ratio (y) = 0.32511 0.21142
# Poissons Ratio (z) = 0.28976 0.17521
#
# Static dielectric constant tensor:
#      x y z
#    x 1.844380 0.000000 0.000000 
#    y 0.000000 1.802800 0.000000 
#    z 0.000000 0.000000 1.866980 
# 
# From -- ./inp_files/10746.got.cif
#   From: 2010.05.17/outbox.cif.g08.bks.cpg/sg68_6_cif.got.tgz:10746.got - 2010.06.03 18:57:09.
