data_PCOD9509868
_publ_section_title
;
Structure prediction by ZEFSAII (Michael W. Deem and Ramdas Pophale) SiO2 
 PCOD9509868
Probable space group: C C C A
;
_chemical_formula_sum "Si O2"
_cell_formula_units_Z 88
_cell_length_a 23.070306
_cell_length_b 7.672467
_cell_length_c 20.698598
_cell_angle_alpha 90.000000
_cell_angle_beta 90.000000
_cell_angle_gamma 90.000000
_cell_volume 3663.779380
_symmetry_space_group_name_H-M "C C C A"
_symmetry_group_IT_number 68
_space_group.IT_coordinate_system_code '2'
_symmetry_cell_setting 'orthorhombic'
loop_
_space_group_symop_operation_xyz
x,y,z
-x,1/2-y,z
x,1/2-y,1/2-z
-x,y,1/2-z
-x,-y,-z
x,1/2+y,-z
-x,1/2+y,1/2+z
x,-y,1/2+z
1/2+x,1/2+y,z
1/2-x,-y,z
1/2+x,-y,1/2-z
1/2-x,1/2+y,1/2-z
1/2-x,1/2-y,-z
1/2+x,y,-z
1/2-x,y,1/2+z
1/2+x,1/2-y,1/2+z
loop_
_atom_site_type_symbol
_atom_site_label
_atom_site_fract_x
_atom_site_fract_y
_atom_site_fract_z
Si Si1 0.750000 0.000000 0.386181
Si Si2 0.413247 0.766867 0.078235
Si Si3 0.000000 0.750000 0.022902
Si Si4 0.872702 0.750000 0.250000
Si Si5 0.314642 0.764057 0.528325
Si Si6 0.092055 0.124301 0.886379
Si Si7 0.341743 0.112363 0.693859
O O1 0.696457 0.064186 0.429299
O O2 0.780607 0.145031 0.342277
O O3 0.461817 0.854631 0.032010
O O4 0.430343 0.571306 0.101136
O O5 0.392983 0.867371 0.141608
O O6 0.359317 0.733052 0.030025
O O7 0.052760 0.761659 0.074085
O O8 0.906805 0.826097 0.188355
O O9 0.839157 0.582730 0.221860
O O10 0.250000 0.750000 0.500000
O O11 0.343593 0.635951 0.581176
O O12 0.350786 0.250000 0.750000
#
# Coordination Sequence:
#
# PCOD9509868 Si02
#       7
#     8  16   8   8  16  16  16
#     4  12  24  42  68 110 150 198 246 300 360 442
#     4  11  24  46  73 102 147 188 243 308 368 435
#     4  10  26  45  77 112 138 190 242 304 378 432
#     4  12  26  47  72 104 148 192 246 299 362 438
#     4  11  22  40  67 107 143 185 242 305 364 425
#     4  11  24  44  72 103 147 187 241 301 363 440
#     4  12  27  48  71 105 152 201 249 296 361 442
#
# _framework density 24.018915
#
# number of rings (size 3 to 8) (size 9 to 14) (size 15 to 20)
#    0.000    0.727    5.455    1.636    3.818    1.818 
#    0.000    0.455    0.000    0.000    0.000    0.000 
#    0.000    0.000    0.000    0.000    0.000    0.000 
#
# Total GULP energy -245143.253827 kJ/mol
# GULP energy per Si atom -5571.437587 kJ/mol
# Density = 2.396425 g / cm^3
# Si number density = 24.018915 Si / 1000 Ang^3
#
#
#
# Elastic Constant Matrix: (Units=GPa)
#
#
# Indices 1 2 3 4 5 6 
#
# 1 109.5660 14.5785 55.1562 0.0000 0.0000 0.0000
# 2 14.5785 104.3171 37.6953 0.0000 0.0000 0.0000
# 3 55.1562 37.6953 182.5920 0.0000 0.0000 0.0000
# 4 0.0000 0.0000 0.0000 22.6261 0.0000 0.0000
# 5 0.0000 0.0000 0.0000 0.0000 20.7235 0.0000
# 6 0.0000 0.0000 0.0000 0.0000 0.0000 22.8703
#
#
#
# Elastic Compliance Matrix: (Units=1/GPa)
#
#
# Indices 1 2 3 4 5 6 
#
# 1 0.010776 -0.000356 -0.003182 0.000000 0.000000 0.000000
# 2 -0.000356 0.010371 -0.002033 0.000000 0.000000 0.000000
# 3 -0.003182 -0.002033 0.006858 0.000000 0.000000 0.000000
# 4 0.000000 0.000000 0.000000 0.044197 0.000000 0.000000
# 5 0.000000 0.000000 0.000000 0.000000 0.048254 0.000000
# 6 0.000000 0.000000 0.000000 0.000000 0.000000 0.043725
#
#
# Mechanical properties :
#
#
# Convention : Reuss Voigt Hill
#
# Bulk Modulus (GPa) = 59.30581 67.92611 63.61596
# Shear Modulus (GPa) = 27.63297 32.51365 30.07331
#
# Velocity S-wave (km/s) = 3.39553 3.68321 3.54230
# Velocity P-wave (km/s) = 6.33386 6.81394 6.57828
#
# Compressibility (1/GPa) = 0.01686176
#
# Stress axis : x y z
#
# Youngs Moduli (GPa) = 92.79927 96.42537 145.82487
#
# Poissons Ratio (x) = 0.03435 0.46395
# Poissons Ratio (y) = 0.03306 0.29652
# Poissons Ratio (z) = 0.29525 0.19607
#
# Static dielectric constant tensor:
#      x y z
#    x 1.945200 0.000000 0.000000 
#    y 0.000000 2.077710 0.000000 
#    z 0.000000 0.000000 1.905310 
# 
# From -- ./inp_files/40774.got.cif
#   From: 2010.05.17/outbox.cif.g08.bks.cpg/sg68_21_cif.got.tgz:40774.got - 2010.06.03 18:57:09.
