data_PCOD9509966
_publ_section_title
;
Structure prediction by ZEFSAII (Michael W. Deem and Ramdas Pophale) SiO2 
 PCOD9509966
Probable space group: C C C A
;
_chemical_formula_sum "Si O2"
_cell_formula_units_Z 64
_cell_length_a 14.331028
_cell_length_b 21.254639
_cell_length_c 7.424704
_cell_angle_alpha 90.000000
_cell_angle_beta 90.000000
_cell_angle_gamma 90.000000
_cell_volume 2261.570976
_symmetry_space_group_name_H-M "C C C A"
_symmetry_group_IT_number 68
_space_group.IT_coordinate_system_code '2'
_symmetry_cell_setting 'orthorhombic'
loop_
_space_group_symop_operation_xyz
x,y,z
-x,1/2-y,z
x,1/2-y,1/2-z
-x,y,1/2-z
-x,-y,-z
x,1/2+y,-z
-x,1/2+y,1/2+z
x,-y,1/2+z
1/2+x,1/2+y,z
1/2-x,-y,z
1/2+x,-y,1/2-z
1/2-x,1/2+y,1/2-z
1/2-x,1/2-y,-z
1/2+x,y,-z
1/2-x,y,1/2+z
1/2+x,1/2-y,1/2+z
loop_
_atom_site_type_symbol
_atom_site_label
_atom_site_fract_x
_atom_site_fract_y
_atom_site_fract_z
Si Si1 0.618912 0.690355 0.022441
Si Si2 0.817903 0.439961 0.971789
Si Si3 0.097058 0.950444 0.843227
Si Si4 0.100584 0.824654 0.958777
O O1 0.676539 0.633968 0.929074
O O2 0.508337 0.681010 0.987250
O O3 0.645818 0.761149 0.964508
O O4 0.617968 0.683966 0.242159
O O5 0.750000 0.500000 0.944063
O O6 0.828603 0.439879 0.185687
O O7 0.909056 0.476890 0.897025
O O8 0.124002 0.898064 0.993142
O O9 0.000000 0.931599 0.750000
#
# Coordination Sequence:
#
# PCOD9509966 Si02
#       4
#    16  16  16  16
#     4   8  14  27  50  78 106 133 185 241 260 317
#     4  11  22  35  52  83 121 150 179 235 302 343
#     4  11  20  35  58  84 108 148 196 237 277 338
#     4   8  13  27  52  80  98 131 198 235 253 306
#
# _framework density 28.298912999999999
#
# number of rings (size 3 to 8) (size 9 to 14) (size 15 to 20)
#    0.000    2.500    5.000    3.000    0.000    0.000 
#    0.000    1.250    0.000    4.500    0.000    0.000 
#    0.000    0.000    0.000    0.000    0.000    0.000 
#
# Total GULP energy -178280.105484 kJ/mol
# GULP energy per Si atom -5571.253296 kJ/mol
# Density = 2.823450 g / cm^3
# Si number density = 28.298913 Si / 1000 Ang^3
#
#
#
# Elastic Constant Matrix: (Units=GPa)
#
#
# Indices 1 2 3 4 5 6 
#
# 1 78.6584 28.2656 -0.2495 0.0000 0.0000 0.0000
# 2 28.2656 329.6495 29.8569 0.0000 0.0000 0.0000
# 3 -0.2495 29.8569 44.8249 0.0000 0.0000 0.0000
# 4 0.0000 0.0000 0.0000 28.1255 0.0000 0.0000
# 5 0.0000 0.0000 0.0000 0.0000 14.4454 0.0000
# 6 0.0000 0.0000 0.0000 0.0000 0.0000 37.5220
#
#
#
# Elastic Compliance Matrix: (Units=1/GPa)
#
#
# Indices 1 2 3 4 5 6 
#
# 1 0.013150 -0.001207 0.000877 0.000000 0.000000 0.000000
# 2 -0.001207 0.003339 -0.002231 0.000000 0.000000 0.000000
# 3 0.000877 -0.002231 0.023800 0.000000 0.000000 0.000000
# 4 0.000000 0.000000 0.000000 0.035555 0.000000 0.000000
# 5 0.000000 0.000000 0.000000 0.000000 0.069226 0.000000
# 6 0.000000 0.000000 0.000000 0.000000 0.000000 0.026651
#
#
# Mechanical properties :
#
#
# Convention : Reuss Voigt Hill
#
# Bulk Modulus (GPa) = 28.43548 63.20874 45.82211
# Shear Modulus (GPa) = 26.51614 42.36924 34.44269
#
# Velocity S-wave (km/s) = 3.06437 3.87357 3.49249
# Velocity P-wave (km/s) = 4.75295 6.51081 5.70005
#
# Compressibility (1/GPa) = 0.03516734
#
# Stress axis : x y z
#
# Youngs Moduli (GPa) = 76.04738 299.48539 42.01713
#
# Poissons Ratio (x) = 0.36147 -0.03685
# Poissons Ratio (y) = 0.09179 0.09373
# Poissons Ratio (z) = -0.06670 0.66809
#
# Static dielectric constant tensor:
#      x y z
#    x 3.500790 0.000000 0.000000 
#    y 0.000000 2.302480 0.000000 
#    z 0.000000 0.000000 2.152050 
# 
# From -- ./inp_files/5819.got.cif
#   From: 2010.05.17/outbox.cif.g08.bks.cpg/sg68_3_cif.got.tgz:5819.got - 2010.06.03 18:57:09.
