data_PCOD9509026
_publ_section_title
;
Structure prediction by ZEFSAII (Michael W. Deem and Ramdas Pophale) SiO2 
 PCOD9509026
Probable space group: C C C A
;
_chemical_formula_sum "Si O2"
_cell_formula_units_Z 96
_cell_length_a 21.160512
_cell_length_b 12.822924
_cell_length_c 15.470709
_cell_angle_alpha 90.000000
_cell_angle_beta 90.000000
_cell_angle_gamma 90.000000
_cell_volume 4197.816567
_symmetry_space_group_name_H-M "C C C A"
_symmetry_group_IT_number 68
_space_group.IT_coordinate_system_code '2'
_symmetry_cell_setting 'orthorhombic'
loop_
_space_group_symop_operation_xyz
x,y,z
-x,1/2-y,z
x,1/2-y,1/2-z
-x,y,1/2-z
-x,-y,-z
x,1/2+y,-z
-x,1/2+y,1/2+z
x,-y,1/2+z
1/2+x,1/2+y,z
1/2-x,-y,z
1/2+x,-y,1/2-z
1/2-x,1/2+y,1/2-z
1/2-x,1/2-y,-z
1/2+x,y,-z
1/2-x,y,1/2+z
1/2+x,1/2-y,1/2+z
loop_
_atom_site_type_symbol
_atom_site_label
_atom_site_fract_x
_atom_site_fract_y
_atom_site_fract_z
Si Si1 0.285363 0.250000 0.750000
Si Si2 0.877749 0.590683 0.465760
Si Si3 0.000000 0.978511 0.750000
Si Si4 0.512696 0.373456 0.086036
Si Si5 0.121489 0.895177 0.839671
Si Si6 0.763955 0.610832 0.596540
Si Si7 0.359387 0.316690 0.484450
O O1 0.325653 0.148783 0.777201
O O2 0.254597 0.204982 0.663437
O O3 0.864686 0.501623 0.393940
O O4 0.830745 0.592006 0.548010
O O5 0.862915 0.708144 0.433894
O O6 0.954207 0.593281 0.476056
O O7 0.011800 0.055751 0.670220
O O8 0.058724 0.910613 0.783622
O O9 0.500000 0.250000 0.103132
O O10 0.583239 0.385780 0.050300
O O11 0.120315 0.807775 0.915321
O O12 0.750000 0.500000 0.639675
O O13 0.709751 0.634562 0.524916
#
# Coordination Sequence:
#
# PCOD9509026 Si02
#       7
#     8  16   8  16  16  16  16
#     4  12  30  47  66 112 153 182 240 312 388 420
#     4  10  22  45  74 101 139 193 248 295 358 455
#     4  10  23  41  68 110 146 188 234 312 376 424
#     4   9  21  42  70 105 142 187 249 305 362 441
#     4  11  25  45  71 104 147 191 237 301 369 440
#     4  12  26  47  73 106 141 193 247 305 365 447
#     4  11  23  45  73 104 138 196 248 293 360 452
#
# _framework density 22.869032000000001
#
# number of rings (size 3 to 8) (size 9 to 14) (size 15 to 20)
#    0.000    1.333    3.333    0.750    2.333    5.667 
#    9.000    0.000    0.000    0.000    0.000    0.000 
#    0.000    0.000    0.000    0.000    0.000    0.000 
#
# Total GULP energy -267548.478938 kJ/mol
# GULP energy per Si atom -5573.926645 kJ/mol
# Density = 2.281698 g / cm^3
# Si number density = 22.869032 Si / 1000 Ang^3
#
#
#
# Elastic Constant Matrix: (Units=GPa)
#
#
# Indices 1 2 3 4 5 6 
#
# 1 118.6205 42.0905 63.6330 0.0000 0.0000 0.0000
# 2 42.0905 118.9948 17.0276 0.0000 0.0000 0.0000
# 3 63.6330 17.0276 83.0350 0.0000 0.0000 0.0000
# 4 0.0000 0.0000 0.0000 35.8944 0.0000 0.0000
# 5 0.0000 0.0000 0.0000 0.0000 38.3369 0.0000
# 6 0.0000 0.0000 0.0000 0.0000 0.0000 21.7874
#
#
#
# Elastic Compliance Matrix: (Units=1/GPa)
#
#
# Indices 1 2 3 4 5 6 
#
# 1 0.015986 -0.004019 -0.011427 0.000000 0.000000 0.000000
# 2 -0.004019 0.009668 0.001098 0.000000 0.000000 0.000000
# 3 -0.011427 0.001098 0.020575 0.000000 0.000000 0.000000
# 4 0.000000 0.000000 0.000000 0.027859 0.000000 0.000000
# 5 0.000000 0.000000 0.000000 0.000000 0.026085 0.000000
# 6 0.000000 0.000000 0.000000 0.000000 0.000000 0.045898
#
#
# Mechanical properties :
#
#
# Convention : Reuss Voigt Hill
#
# Bulk Modulus (GPa) = 57.03726 62.90583 59.97155
# Shear Modulus (GPa) = 27.68358 32.39702 30.04030
#
# Velocity S-wave (km/s) = 3.48304 3.76790 3.62827
# Velocity P-wave (km/s) = 6.41641 6.81881 6.62067
#
# Compressibility (1/GPa) = 0.01753240
#
# Stress axis : x y z
#
# Youngs Moduli (GPa) = 62.55394 103.42943 48.60339
#
# Poissons Ratio (x) = 0.41573 0.55537
# Poissons Ratio (y) = 0.25144 -0.05335
# Poissons Ratio (z) = 0.71478 -0.11353
#
# Static dielectric constant tensor:
#      x y z
#    x 1.903230 0.000000 0.000000 
#    y 0.000000 1.918590 0.000000 
#    z 0.000000 0.000000 1.915210 
# 
# From -- ./inp_files/24490.got.cif
#   From: 2010.05.17/outbox.cif.g08.bks.cpg/sg68_13_cif.got.tgz:24490.got - 2010.06.03 18:57:09.
