data_PCOD9509225
_publ_section_title
;
Structure prediction by ZEFSAII (Michael W. Deem and Ramdas Pophale) SiO2 
 PCOD9509225
Probable space group: C C C A
;
_chemical_formula_sum "Si O2"
_cell_formula_units_Z 60
_cell_length_a 17.880898
_cell_length_b 7.986073
_cell_length_c 17.172114
_cell_angle_alpha 90.000000
_cell_angle_beta 90.000000
_cell_angle_gamma 90.000000
_cell_volume 2452.146226
_symmetry_space_group_name_H-M "C C C A"
_symmetry_group_IT_number 68
_space_group.IT_coordinate_system_code '2'
_symmetry_cell_setting 'orthorhombic'
loop_
_space_group_symop_operation_xyz
x,y,z
-x,1/2-y,z
x,1/2-y,1/2-z
-x,y,1/2-z
-x,-y,-z
x,1/2+y,-z
-x,1/2+y,1/2+z
x,-y,1/2+z
1/2+x,1/2+y,z
1/2-x,-y,z
1/2+x,-y,1/2-z
1/2-x,1/2+y,1/2-z
1/2-x,1/2-y,-z
1/2+x,y,-z
1/2-x,y,1/2+z
1/2+x,1/2-y,1/2+z
loop_
_atom_site_type_symbol
_atom_site_label
_atom_site_fract_x
_atom_site_fract_y
_atom_site_fract_z
Si Si1 0.871110 0.750000 0.250000
Si Si2 0.500000 0.750000 0.250000
Si Si3 0.832375 0.986972 0.476037
Si Si4 0.147861 0.606560 0.808629
Si Si5 0.079856 0.816841 0.415587
O O1 0.831462 0.579783 0.220670
O O2 0.917754 0.680925 0.322992
O O3 0.442485 0.863467 0.199918
O O4 0.854075 0.808677 0.440945
O O5 0.750000 0.000000 0.510227
O O6 0.834143 0.110228 0.400292
O O7 0.895581 0.018476 0.540228
O O8 0.177737 0.750000 0.750000
O O9 0.000000 0.750000 0.441026
#
# Coordination Sequence:
#
# PCOD9509225 Si02
#       5
#     8   4  16  16  16
#     4  10  23  42  65 103 134 174 233 296 335 404
#     4   8  20  34  66 102 126 182 230 298 332 400
#     4  11  25  45  64 102 141 180 224 279 359 413
#     4   9  22  39  67  95 138 178 231 283 349 401
#     4  11  25  41  72  98 133 179 236 282 340 406
#
# _framework density 24.468359
#
# number of rings (size 3 to 8) (size 9 to 14) (size 15 to 20)
#    0.800    1.067    0.000    2.000   13.067    0.000 
#    9.600    1.333    0.000    0.000    0.000    0.000 
#    0.000    0.000    0.000    0.000    0.000    0.000 
#
# Total GULP energy -167501.368414 kJ/mol
# GULP energy per Si atom -5583.378947 kJ/mol
# Density = 2.441267 g / cm^3
# Si number density = 24.468359 Si / 1000 Ang^3
#
#
#
# Elastic Constant Matrix: (Units=GPa)
#
#
# Indices 1 2 3 4 5 6 
#
# 1 110.8468 5.3359 17.0182 0.0000 0.0000 0.0000
# 2 5.3359 86.5555 36.4376 0.0000 0.0000 0.0000
# 3 17.0182 36.4376 108.5822 0.0000 0.0000 0.0000
# 4 0.0000 0.0000 0.0000 9.5155 0.0000 0.0000
# 5 0.0000 0.0000 0.0000 0.0000 21.8836 0.0000
# 6 0.0000 0.0000 0.0000 0.0000 0.0000 30.4898
#
#
#
# Elastic Compliance Matrix: (Units=1/GPa)
#
#
# Indices 1 2 3 4 5 6 
#
# 1 0.009244 0.000047 -0.001464 0.000000 0.000000 0.000000
# 2 0.000047 0.013454 -0.004522 0.000000 0.000000 0.000000
# 3 -0.001464 -0.004522 0.010957 0.000000 0.000000 0.000000
# 4 0.000000 0.000000 0.000000 0.105091 0.000000 0.000000
# 5 0.000000 0.000000 0.000000 0.000000 0.045696 0.000000
# 6 0.000000 0.000000 0.000000 0.000000 0.000000 0.032798
#
#
# Mechanical properties :
#
#
# Convention : Reuss Voigt Hill
#
# Bulk Modulus (GPa) = 45.92465 47.06310 46.49388
# Shear Modulus (GPa) = 21.15249 28.85730 25.00490
#
# Velocity S-wave (km/s) = 2.94340 3.43792 3.20023
# Velocity P-wave (km/s) = 5.51010 5.91905 5.71823
#
# Compressibility (1/GPa) = 0.02177480
#
# Stress axis : x y z
#
# Youngs Moduli (GPa) = 108.17758 74.32654 91.26846
#
# Poissons Ratio (x) = -0.00347 0.13366
# Poissons Ratio (y) = -0.00505 0.41273
# Poissons Ratio (z) = 0.15842 0.33612
#
# Static dielectric constant tensor:
#      x y z
#    x 1.933400 0.000000 0.000000 
#    y 0.000000 1.967170 0.000000 
#    z 0.000000 0.000000 1.979470 
# 
# From -- ./inp_files/31499.got.cif
#   From: 2010.05.17/outbox.cif.g08.bks.cpg/sg68_16_cif.got.tgz:31499.got - 2010.06.03 18:57:09.
