data_PCOD9509544
_publ_section_title
;
Structure prediction by ZEFSAII (Michael W. Deem and Ramdas Pophale) SiO2 
 PCOD9509544
Probable space group: C C C A
;
_chemical_formula_sum "Si O2"
_cell_formula_units_Z 60
_cell_length_a 5.023411
_cell_length_b 25.682716
_cell_length_c 19.029811
_cell_angle_alpha 90.000000
_cell_angle_beta 90.000000
_cell_angle_gamma 90.000000
_cell_volume 2455.127985
_symmetry_space_group_name_H-M "C C C A"
_symmetry_group_IT_number 68
_space_group.IT_coordinate_system_code '2'
_symmetry_cell_setting 'orthorhombic'
loop_
_space_group_symop_operation_xyz
x,y,z
-x,1/2-y,z
x,1/2-y,1/2-z
-x,y,1/2-z
-x,-y,-z
x,1/2+y,-z
-x,1/2+y,1/2+z
x,-y,1/2+z
1/2+x,1/2+y,z
1/2-x,-y,z
1/2+x,-y,1/2-z
1/2-x,1/2+y,1/2-z
1/2-x,1/2-y,-z
1/2+x,y,-z
1/2-x,y,1/2+z
1/2+x,1/2-y,1/2+z
loop_
_atom_site_type_symbol
_atom_site_label
_atom_site_fract_x
_atom_site_fract_y
_atom_site_fract_z
Si Si1 0.250000 0.500000 0.361232
Si Si2 0.002706 0.409219 0.951172
Si Si3 0.000000 0.750000 0.950635
Si Si4 0.297231 0.168243 0.648555
Si Si5 0.500000 0.250000 0.250000
Si Si6 0.500000 0.579294 0.250000
O O1 0.068395 0.537620 0.409083
O O2 0.419539 0.535477 0.308632
O O3 0.077764 0.362399 0.898104
O O4 0.209930 0.407221 0.016378
O O5 0.988125 0.800375 0.902553
O O6 0.750000 0.750000 0.000000
O O7 0.167843 0.211099 0.700285
O O8 0.456108 0.125139 0.690979
#
# Coordination Sequence:
#
# PCOD9509544 Si02
#       6
#     8  16   8  16   4   8
#     4  10  24  42  72 104 146 190 246 302 368 440
#     4  11  25  46  73 106 144 191 243 304 369 440
#     4  12  25  45  74 109 149 196 248 310 376 448
#     4  11  25  44  72 106 147 193 248 306 371 444
#     4  12  26  48  76 110 150 200 252 312 376 448
#     4  10  24  44  66 104 144 194 244 304 368 440
#
# _framework density 24.438642000000002
#
# number of rings (size 3 to 8) (size 9 to 14) (size 15 to 20)
#    0.000    1.067    0.000    4.800    0.000   14.933 
#    0.000    0.000    0.000    0.000    0.000    0.000 
#    0.000    0.000    0.000    0.000    0.000    0.000 
#
# Total GULP energy -167380.318702 kJ/mol
# GULP energy per Si atom -5579.343957 kJ/mol
# Density = 2.438302 g / cm^3
# Si number density = 24.438642 Si / 1000 Ang^3
#
#
#
# Elastic Constant Matrix: (Units=GPa)
#
#
# Indices 1 2 3 4 5 6 
#
# 1 67.3885 33.3863 40.6600 0.0000 0.0000 0.0000
# 2 33.3863 220.1664 100.1166 0.0000 0.0000 0.0000
# 3 40.6600 100.1166 166.4152 0.0000 0.0000 0.0000
# 4 0.0000 0.0000 0.0000 61.6347 0.0000 0.0000
# 5 0.0000 0.0000 0.0000 0.0000 10.5309 0.0000
# 6 0.0000 0.0000 0.0000 0.0000 0.0000 6.7369
#
#
#
# Elastic Compliance Matrix: (Units=1/GPa)
#
#
# Indices 1 2 3 4 5 6 
#
# 1 0.017557 -0.000980 -0.003700 0.000000 0.000000 0.000000
# 2 -0.000980 0.006307 -0.003555 0.000000 0.000000 0.000000
# 3 -0.003700 -0.003555 0.009052 0.000000 0.000000 0.000000
# 4 0.000000 0.000000 0.000000 0.016225 0.000000 0.000000
# 5 0.000000 0.000000 0.000000 0.000000 0.094958 0.000000
# 6 0.000000 0.000000 0.000000 0.000000 0.000000 0.148436
#
#
# Mechanical properties :
#
#
# Convention : Reuss Voigt Hill
#
# Bulk Modulus (GPa) = 60.80448 89.14398 74.97423
# Shear Modulus (GPa) = 15.89887 34.43432 25.16660
#
# Velocity S-wave (km/s) = 2.55338 3.75775 3.21251
# Velocity P-wave (km/s) = 5.79892 7.44201 6.67124
#
# Compressibility (1/GPa) = 0.01644616
#
# Stress axis : x y z
#
# Youngs Moduli (GPa) = 56.95607 158.54913 110.47373
#
# Poissons Ratio (x) = 0.15534 0.40879
# Poissons Ratio (y) = 0.05580 0.39274
# Poissons Ratio (z) = 0.21076 0.56365
#
# Static dielectric constant tensor:
#      x y z
#    x 1.916790 0.000000 0.000000 
#    y 0.000000 1.960510 0.000000 
#    z 0.000000 0.000000 1.922700 
# 
# From -- ./inp_files/27033.got.cif
#   From: 2010.05.17/outbox.cif.g08.bks.cpg/sg68_14_cif.got.tgz:27033.got - 2010.06.03 18:57:09.
