data_PCOD9509030
_publ_section_title
;
Structure prediction by ZEFSAII (Michael W. Deem and Ramdas Pophale) SiO2 
 PCOD9509030
Probable space group: C C C A
;
_chemical_formula_sum "Si O2"
_cell_formula_units_Z 60
_cell_length_a 32.067436
_cell_length_b 16.331394
_cell_length_c 5.151622
_cell_angle_alpha 90.000000
_cell_angle_beta 90.000000
_cell_angle_gamma 90.000000
_cell_volume 2697.935000
_symmetry_space_group_name_H-M "C C C A"
_symmetry_group_IT_number 68
_space_group.IT_coordinate_system_code '2'
_symmetry_cell_setting 'orthorhombic'
loop_
_space_group_symop_operation_xyz
x,y,z
-x,1/2-y,z
x,1/2-y,1/2-z
-x,y,1/2-z
-x,-y,-z
x,1/2+y,-z
-x,1/2+y,1/2+z
x,-y,1/2+z
1/2+x,1/2+y,z
1/2-x,-y,z
1/2+x,-y,1/2-z
1/2-x,1/2+y,1/2-z
1/2-x,1/2-y,-z
1/2+x,y,-z
1/2-x,y,1/2+z
1/2+x,1/2-y,1/2+z
loop_
_atom_site_type_symbol
_atom_site_label
_atom_site_fract_x
_atom_site_fract_y
_atom_site_fract_z
Si Si1 0.500000 0.556026 0.250000
Si Si2 0.226072 0.651242 0.777544
Si Si3 0.646702 0.556757 0.999859
Si Si4 0.568506 0.332090 0.610551
Si Si5 0.500000 0.250000 0.250000
O O1 0.500000 0.500000 0.500000
O O2 0.458741 0.610215 0.206323
O O3 0.222952 0.750000 0.750000
O O4 0.237788 0.625858 0.484062
O O5 0.185174 0.613447 0.907799
O O6 0.647145 0.485528 0.218531
O O7 0.605979 0.614194 0.005336
O O8 0.584178 0.250000 0.750000
O O9 0.532140 0.304046 0.414779
#
# Coordination Sequence:
#
# PCOD9509030 Si02
#       5
#     8  16  16  16   4
#     4  12  24  42  67  97 134 172 220 288 360 416
#     4  10  22  45  74 106 143 188 238 286 345 422
#     4  12  28  46  69 108 147 189 235 295 364 419
#     4  12  26  46  70 101 136 187 243 295 351 432
#     4  12  24  48  76 100 132 186 254 290 366 418
#
# _framework density 22.239232000000001
#
# number of rings (size 3 to 8) (size 9 to 14) (size 15 to 20)
#    0.000    0.533    2.667    4.800    3.733    3.200 
#    7.200    0.000    0.000    0.000    0.000    0.000 
#    0.000    0.000    0.000    0.000    0.000    0.000 
#
# Total GULP energy -167680.922748 kJ/mol
# GULP energy per Si atom -5589.364092 kJ/mol
# Density = 2.218861 g / cm^3
# Si number density = 22.239232 Si / 1000 Ang^3
#
#
#
# Elastic Constant Matrix: (Units=GPa)
#
#
# Indices 1 2 3 4 5 6 
#
# 1 108.7007 20.5385 2.2587 0.0000 0.0000 0.0000
# 2 20.5385 58.7092 18.0738 0.0000 0.0000 0.0000
# 3 2.2587 18.0738 89.6882 0.0000 0.0000 0.0000
# 4 0.0000 0.0000 0.0000 12.8091 0.0000 0.0000
# 5 0.0000 0.0000 0.0000 0.0000 12.3292 0.0000
# 6 0.0000 0.0000 0.0000 0.0000 0.0000 -393.8161
#
#
#
# Elastic Compliance Matrix: (Units=1/GPa)
#
#
# Indices 1 2 3 4 5 6 
#
# 1 0.009870 -0.003600 0.000477 0.000000 0.000000 0.000000
# 2 -0.003600 0.019472 -0.003833 0.000000 0.000000 0.000000
# 3 0.000477 -0.003833 0.011910 0.000000 0.000000 0.000000
# 4 0.000000 0.000000 0.000000 0.078070 0.000000 0.000000
# 5 0.000000 0.000000 0.000000 0.000000 0.081108 0.000000
# 6 0.000000 0.000000 0.000000 0.000000 0.000000 -0.002539
#
#
# Mechanical properties :
#
#
# Convention : Reuss Voigt Hill
#
# Bulk Modulus (GPa) = 36.57622 37.64891 37.11256
# Shear Modulus (GPa) = 22.63292 -59.32043 -18.34376
#
# Velocity S-wave (km/s) = 3.19361 -5.17027 -2.87511
# Velocity P-wave (km/s) = 5.48464 4.32163 2.38797
#
# Compressibility (1/GPa) = 0.02734017
#
# Stress axis : x y z
#
# Youngs Moduli (GPa) = 101.31937 51.35452 83.96146
#
# Poissons Ratio (x) = 0.18485 -0.04003
# Poissons Ratio (y) = 0.36471 0.32186
# Poissons Ratio (z) = -0.04831 0.19686
#
# Static dielectric constant tensor:
#      x y z
#    x 1.730200 0.000000 0.000000 
#    y 0.000000 1.919620 0.000000 
#    z 0.000000 0.000000 1.828130 
# 
# From -- ./inp_files/1000.got.cif
#   From: 2010.05.17/outbox.cif.g08.bks.cpg/sg68_1_cif.got.tgz:1000.got - 2010.06.03 18:57:09.
