data_PCOD9509117
_publ_section_title
;
Structure prediction by ZEFSAII (Michael W. Deem and Ramdas Pophale) SiO2 
 PCOD9509117
Probable space group: C C C A
;
_chemical_formula_sum "Si O2"
_cell_formula_units_Z 108
_cell_length_a 11.740501
_cell_length_b 14.147198
_cell_length_c 32.694601
_cell_angle_alpha 90.000000
_cell_angle_beta 90.000000
_cell_angle_gamma 90.000000
_cell_volume 5430.416039
_symmetry_space_group_name_H-M "C C C A"
_symmetry_group_IT_number 68
_space_group.IT_coordinate_system_code '2'
_symmetry_cell_setting 'orthorhombic'
loop_
_space_group_symop_operation_xyz
x,y,z
-x,1/2-y,z
x,1/2-y,1/2-z
-x,y,1/2-z
-x,-y,-z
x,1/2+y,-z
-x,1/2+y,1/2+z
x,-y,1/2+z
1/2+x,1/2+y,z
1/2-x,-y,z
1/2+x,-y,1/2-z
1/2-x,1/2+y,1/2-z
1/2-x,1/2-y,-z
1/2+x,y,-z
1/2-x,y,1/2+z
1/2+x,1/2-y,1/2+z
loop_
_atom_site_type_symbol
_atom_site_label
_atom_site_fract_x
_atom_site_fract_y
_atom_site_fract_z
Si Si1 0.500000 0.250000 0.250000
Si Si2 0.584831 0.551287 0.627906
Si Si3 0.189066 0.349899 0.086924
Si Si4 0.442679 0.647087 0.561865
Si Si5 0.823032 0.132288 0.403135
Si Si6 0.487442 0.864510 0.027316
Si Si7 0.959707 0.572185 0.292620
Si Si8 0.250000 0.000000 0.844502
O O1 0.429527 0.178621 0.278210
O O2 0.479970 0.585507 0.600488
O O3 0.694263 0.602133 0.607291
O O4 0.603492 0.439057 0.624522
O O5 0.561784 0.578237 0.674569
O O6 0.307038 0.341833 0.061803
O O7 0.159030 0.243853 0.101799
O O8 0.092212 0.390239 0.056817
O O9 0.212659 0.415475 0.125536
O O10 0.500000 0.750000 0.566850
O O11 0.486040 0.602505 0.519367
O O12 0.870161 0.112579 0.448948
O O13 0.500000 0.750000 0.024047
O O14 0.855633 0.525755 0.315686
O O15 0.000000 0.525469 0.250000
#
# Coordination Sequence:
#
# PCOD9509117 Si02
#       8
#     4  16  16  16  16  16  16   8
#     4   8  24  44  76  96 124 176 204 268 324 400
#     4  11  22  40  64  97 121 170 227 269 325 399
#     4  11  23  41  64  89 133 179 219 280 337 390
#     4  11  22  36  66  88 125 174 235 278 320 388
#     4  10  23  39  62  88 133 174 220 271 328 391
#     4   9  22  38  55  89 132 175 223 273 337 381
#     4  10  24  43  70 100 134 159 215 270 327 403
#     4  12  24  42  70 106 128 168 222 276 332 392
#
# _framework density 19.887978
#
# number of rings (size 3 to 8) (size 9 to 14) (size 15 to 20)
#    0.444    1.185    2.963    0.889    5.185    3.556 
#    0.000    0.000    0.000    0.889    0.000    0.000 
#    0.000    0.000    0.000    0.000    0.000    0.000 
#
# Total GULP energy -301336.954494 kJ/mol
# GULP energy per Si atom -5580.313972 kJ/mol
# Density = 1.984271 g / cm^3
# Si number density = 19.887978 Si / 1000 Ang^3
#
#
#
# Elastic Constant Matrix: (Units=GPa)
#
#
# Indices 1 2 3 4 5 6 
#
# 1 95.8615 18.1896 48.8865 0.0000 0.0000 0.0000
# 2 18.1896 94.0308 41.7685 0.0000 0.0000 0.0000
# 3 48.8865 41.7685 148.1166 0.0000 0.0000 0.0000
# 4 0.0000 0.0000 0.0000 28.1816 0.0000 0.0000
# 5 0.0000 0.0000 0.0000 0.0000 18.6875 0.0000
# 6 0.0000 0.0000 0.0000 0.0000 0.0000 27.3574
#
#
#
# Elastic Compliance Matrix: (Units=1/GPa)
#
#
# Indices 1 2 3 4 5 6 
#
# 1 0.012580 -0.000674 -0.003962 0.000000 0.000000 0.000000
# 2 -0.000674 0.012194 -0.003216 0.000000 0.000000 0.000000
# 3 -0.003962 -0.003216 0.008966 0.000000 0.000000 0.000000
# 4 0.000000 0.000000 0.000000 0.035484 0.000000 0.000000
# 5 0.000000 0.000000 0.000000 0.000000 0.053512 0.000000
# 6 0.000000 0.000000 0.000000 0.000000 0.000000 0.036553
#
#
# Mechanical properties :
#
#
# Convention : Reuss Voigt Hill
#
# Bulk Modulus (GPa) = 55.44464 61.74422 58.59443
# Shear Modulus (GPa) = 27.62350 30.12291 28.87321
#
# Velocity S-wave (km/s) = 3.73091 3.89605 3.81437
# Velocity P-wave (km/s) = 6.81899 7.16605 6.99467
#
# Compressibility (1/GPa) = 0.01803601
#
# Stress axis : x y z
#
# Youngs Moduli (GPa) = 79.49052 82.00894 111.53043
#
# Poissons Ratio (x) = 0.05524 0.44190
# Poissons Ratio (y) = 0.05354 0.35872
# Poissons Ratio (z) = 0.31496 0.26377
#
# Static dielectric constant tensor:
#      x y z
#    x 1.738840 0.000000 0.000000 
#    y 0.000000 1.741430 0.000000 
#    z 0.000000 0.000000 1.672420 
# 
# From -- ./inp_files/54865.got.cif
#   From: 2010.05.17/outbox.cif.g08.bks.cpg/sg68_28_cif.got.tgz:54865.got - 2010.06.03 18:57:09.
