data_PCOD9509409
_publ_section_title
;
Structure prediction by ZEFSAII (Michael W. Deem and Ramdas Pophale) SiO2 
 PCOD9509409
Probable space group: C C C A
;
_chemical_formula_sum "Si O2"
_cell_formula_units_Z 88
_cell_length_a 14.451078
_cell_length_b 22.732338
_cell_length_c 11.428616
_cell_angle_alpha 90.000000
_cell_angle_beta 90.000000
_cell_angle_gamma 90.000000
_cell_volume 3754.377951
_symmetry_space_group_name_H-M "C C C A"
_symmetry_group_IT_number 68
_space_group.IT_coordinate_system_code '2'
_symmetry_cell_setting 'orthorhombic'
loop_
_space_group_symop_operation_xyz
x,y,z
-x,1/2-y,z
x,1/2-y,1/2-z
-x,y,1/2-z
-x,-y,-z
x,1/2+y,-z
-x,1/2+y,1/2+z
x,-y,1/2+z
1/2+x,1/2+y,z
1/2-x,-y,z
1/2+x,-y,1/2-z
1/2-x,1/2+y,1/2-z
1/2-x,1/2-y,-z
1/2+x,y,-z
1/2-x,y,1/2+z
1/2+x,1/2-y,1/2+z
loop_
_atom_site_type_symbol
_atom_site_label
_atom_site_fract_x
_atom_site_fract_y
_atom_site_fract_z
Si Si1 0.834211 0.266139 0.420728
Si Si2 0.500000 0.250000 0.077905
Si Si3 0.611255 0.532330 0.230878
Si Si4 0.394879 0.021068 0.475729
Si Si5 0.088875 0.367211 0.681025
Si Si6 0.211508 0.152663 0.230134
O O1 0.750000 0.250000 0.500000
O O2 0.805563 0.326031 0.360853
O O3 0.832482 0.207769 0.339950
O O4 0.925237 0.278107 0.492897
O O5 0.444365 0.301551 0.144437
O O6 0.500000 0.532735 0.250000
O O7 0.644718 0.509309 0.357821
O O8 0.650747 0.596583 0.209585
O O9 0.642461 0.504366 0.105784
O O10 0.393099 0.089754 0.430332
O O11 0.500000 0.000000 0.500000
O O12 0.177872 0.360015 0.766937
O O13 0.000000 0.393433 0.750000
#
# Coordination Sequence:
#
# PCOD9509409 Si02
#       6
#    16   8  16  16  16  16
#     4  11  24  44  65 105 146 188 251 313 371 462
#     4  12  25  41  74 100 144 200 245 311 392 446
#     4  10  23  46  74 105 148 193 247 317 381 455
#     4  10  23  47  73 107 146 194 252 312 383 459
#     4  12  25  44  70 102 145 200 249 312 382 463
#     4  11  26  43  69 105 146 190 250 316 378 454
#
# _framework density 23.439302999999999
#
# number of rings (size 3 to 8) (size 9 to 14) (size 15 to 20)
#    0.000    1.091    1.818    4.091   10.182    1.455 
#    3.273    3.636    0.000    0.000    0.000    0.000 
#    0.000    0.000    0.000    0.000    0.000    0.000 
#
# Total GULP energy -245087.539199 kJ/mol
# GULP energy per Si atom -5570.171345 kJ/mol
# Density = 2.338595 g / cm^3
# Si number density = 23.439303 Si / 1000 Ang^3
#
#
#
# Elastic Constant Matrix: (Units=GPa)
#
#
# Indices 1 2 3 4 5 6 
#
# 1 68.2023 -6.8143 -3.5037 0.0000 0.0000 0.0000
# 2 -6.8143 81.7322 5.8000 0.0000 0.0000 0.0000
# 3 -3.5037 5.8000 123.6461 0.0000 0.0000 0.0000
# 4 0.0000 0.0000 0.0000 25.5504 0.0000 0.0000
# 5 0.0000 0.0000 0.0000 0.0000 -45.5832 0.0000
# 6 0.0000 0.0000 0.0000 0.0000 0.0000 22.3948
#
#
#
# Elastic Compliance Matrix: (Units=1/GPa)
#
#
# Indices 1 2 3 4 5 6 
#
# 1 0.014802 0.001208 0.000363 0.000000 0.000000 0.000000
# 2 0.001208 0.012375 -0.000546 0.000000 0.000000 0.000000
# 3 0.000363 -0.000546 0.008123 0.000000 0.000000 0.000000
# 4 0.000000 0.000000 0.000000 0.039138 0.000000 0.000000
# 5 0.000000 0.000000 0.000000 0.000000 -0.021938 0.000000
# 6 0.000000 0.000000 0.000000 0.000000 0.000000 0.044653
#
#
# Mechanical properties :
#
#
# Convention : Reuss Voigt Hill
#
# Bulk Modulus (GPa) = 26.77419 29.39384 28.08402
# Shear Modulus (GPa) = 46.48854 19.01231 32.75043
#
# Velocity S-wave (km/s) = 4.45832 2.85112 3.74203
# Velocity P-wave (km/s) = 6.16034 4.83799 5.53877
#
# Compressibility (1/GPa) = 0.03734940
#
# Stress axis : x y z
#
# Youngs Moduli (GPa) = 67.56011 80.81076 123.09965
#
# Poissons Ratio (x) = -0.09765 -0.04465
# Poissons Ratio (y) = -0.08163 0.06724
# Poissons Ratio (z) = -0.02451 0.04414
#
# Static dielectric constant tensor:
#      x y z
#    x 1.839880 0.000000 0.000000 
#    y 0.000000 1.857930 0.000000 
#    z 0.000000 0.000000 1.974350 
# 
# From -- ./inp_files/13301.got.cif
#   From: 2010.05.17/outbox.cif.g08.bks.cpg/sg68_7_cif.got.tgz:13301.got - 2010.06.03 18:57:09.
