data_PCOD9509313
_publ_section_title
;
Structure prediction by ZEFSAII (Michael W. Deem and Ramdas Pophale) SiO2 
 PCOD9509313
Probable space group: C C C A
;
_chemical_formula_sum "Si O2"
_cell_formula_units_Z 104
_cell_length_a 24.290539
_cell_length_b 9.594157
_cell_length_c 21.641648
_cell_angle_alpha 90.000000
_cell_angle_beta 90.000000
_cell_angle_gamma 90.000000
_cell_volume 5043.526439
_symmetry_space_group_name_H-M "C C C A"
_symmetry_group_IT_number 68
_space_group.IT_coordinate_system_code '2'
_symmetry_cell_setting 'orthorhombic'
loop_
_space_group_symop_operation_xyz
x,y,z
-x,1/2-y,z
x,1/2-y,1/2-z
-x,y,1/2-z
-x,-y,-z
x,1/2+y,-z
-x,1/2+y,1/2+z
x,-y,1/2+z
1/2+x,1/2+y,z
1/2-x,-y,z
1/2+x,-y,1/2-z
1/2-x,1/2+y,1/2-z
1/2-x,1/2-y,-z
1/2+x,y,-z
1/2-x,y,1/2+z
1/2+x,1/2-y,1/2+z
loop_
_atom_site_type_symbol
_atom_site_label
_atom_site_fract_x
_atom_site_fract_y
_atom_site_fract_z
Si Si1 0.412872 0.192406 0.896665
Si Si2 0.000000 0.750000 0.499194
Si Si3 0.448670 0.090300 0.387163
Si Si4 0.461637 0.924396 0.189781
Si Si5 0.116805 0.678790 0.313779
Si Si6 0.320126 0.864988 0.038634
Si Si7 0.807618 0.331166 0.570516
O O1 0.440262 0.281140 0.840899
O O2 0.360961 0.280515 0.918021
O O3 0.402549 0.030469 0.883191
O O4 0.454779 0.187828 0.954690
O O5 0.967410 0.645603 0.453886
O O6 0.500771 0.008724 0.358905
O O7 0.428760 0.221580 0.346905
O O8 0.500000 0.910725 0.250000
O O9 0.410328 0.028637 0.200128
O O10 0.132747 0.750000 0.250000
O O11 0.167065 0.671121 0.361659
O O12 0.258165 0.843218 0.064106
O O13 0.331901 0.028757 0.039449
O O14 0.324336 0.800776 0.970478
#
# Coordination Sequence:
#
# PCOD9509313 Si02
#       7
#    16   8  16  16  16  16  16
#     4  12  26  40  65  98 135 176 219 280 335 397
#     4  12  24  38  62  98 136 172 218 264 336 400
#     4  12  25  40  62  96 135 172 216 272 326 401
#     4  12  24  46  63  92 133 182 222 266 324 399
#     4  12  24  44  71  93 128 180 228 267 326 402
#     4  10  23  43  73 100 134 169 223 275 352 396
#     4  10  23  45  71 101 133 174 219 286 336 410
#
# _framework density 20.620491999999999
#
# number of rings (size 3 to 8) (size 9 to 14) (size 15 to 20)
#    0.000    0.615    6.154    1.385    4.308    1.231 
#    0.000    0.000   10.154    0.000    0.000    0.000 
#    0.000    0.000    0.000    0.000    0.000    0.000 
#
# Total GULP energy -290769.357897 kJ/mol
# GULP energy per Si atom -5591.718421 kJ/mol
# Density = 2.057356 g / cm^3
# Si number density = 20.620492 Si / 1000 Ang^3
#
#
#
# Elastic Constant Matrix: (Units=GPa)
#
#
# Indices 1 2 3 4 5 6 
#
# 1 50.9473 23.1220 31.4069 0.0000 0.0000 0.0000
# 2 23.1220 131.5785 55.5693 0.0000 0.0000 0.0000
# 3 31.4069 55.5693 148.7077 0.0000 0.0000 0.0000
# 4 0.0000 0.0000 0.0000 26.7909 0.0000 0.0000
# 5 0.0000 0.0000 0.0000 0.0000 26.7816 0.0000
# 6 0.0000 0.0000 0.0000 0.0000 0.0000 29.6279
#
#
#
# Elastic Compliance Matrix: (Units=1/GPa)
#
#
# Indices 1 2 3 4 5 6 
#
# 1 0.023178 -0.002382 -0.004005 0.000000 0.000000 0.000000
# 2 -0.002382 0.009269 -0.002961 0.000000 0.000000 0.000000
# 3 -0.004005 -0.002961 0.008677 0.000000 0.000000 0.000000
# 4 0.000000 0.000000 0.000000 0.037326 0.000000 0.000000
# 5 0.000000 0.000000 0.000000 0.000000 0.037339 0.000000
# 6 0.000000 0.000000 0.000000 0.000000 0.000000 0.033752
#
#
# Mechanical properties :
#
#
# Convention : Reuss Voigt Hill
#
# Bulk Modulus (GPa) = 44.58522 61.26998 52.92760
# Shear Modulus (GPa) = 28.45566 31.38243 29.91905
#
# Velocity S-wave (km/s) = 3.71883 3.90539 3.81325
# Velocity P-wave (km/s) = 6.33311 7.07911 6.71647
#
# Compressibility (1/GPa) = 0.02242896
#
# Stress axis : x y z
#
# Youngs Moduli (GPa) = 43.14437 107.88787 115.24933
#
# Poissons Ratio (x) = 0.25693 0.46160
# Poissons Ratio (y) = 0.10275 0.34121
# Poissons Ratio (z) = 0.17280 0.31942
#
# Static dielectric constant tensor:
#      x y z
#    x 1.749920 0.000000 0.000000 
#    y 0.000000 1.773820 0.000000 
#    z 0.000000 0.000000 1.723060 
# 
# From -- ./inp_files/41313.got.cif
#   From: 2010.05.17/outbox.cif.g08.bks.cpg/sg68_21_cif.got.tgz:41313.got - 2010.06.03 18:57:09.
