data_PCOD9509381
_publ_section_title
;
Structure prediction by ZEFSAII (Michael W. Deem and Ramdas Pophale) SiO2 
 PCOD9509381
Probable space group: C C C A
;
_chemical_formula_sum "Si O2"
_cell_formula_units_Z 52
_cell_length_a 10.298152
_cell_length_b 13.842061
_cell_length_c 14.824110
_cell_angle_alpha 90.000000
_cell_angle_beta 90.000000
_cell_angle_gamma 90.000000
_cell_volume 2113.142017
_symmetry_space_group_name_H-M "C C C A"
_symmetry_group_IT_number 68
_space_group.IT_coordinate_system_code '2'
_symmetry_cell_setting 'orthorhombic'
loop_
_space_group_symop_operation_xyz
x,y,z
-x,1/2-y,z
x,1/2-y,1/2-z
-x,y,1/2-z
-x,-y,-z
x,1/2+y,-z
-x,1/2+y,1/2+z
x,-y,1/2+z
1/2+x,1/2+y,z
1/2-x,-y,z
1/2+x,-y,1/2-z
1/2-x,1/2+y,1/2-z
1/2-x,1/2-y,-z
1/2+x,y,-z
1/2-x,y,1/2+z
1/2+x,1/2-y,1/2+z
loop_
_atom_site_type_symbol
_atom_site_label
_atom_site_fract_x
_atom_site_fract_y
_atom_site_fract_z
Si Si1 0.816883 0.811788 0.101075
Si Si2 0.500000 0.250000 0.250000
Si Si3 0.714177 0.112416 0.921938
Si Si4 0.857248 0.583144 0.771669
O O1 0.910596 0.814737 0.186423
O O2 0.817762 0.699654 0.069346
O O3 0.679002 0.852254 0.140801
O O4 0.862148 0.873886 0.015481
O O5 0.661693 0.138645 0.823031
O O6 0.750000 0.000000 0.917954
O O7 0.750000 0.500000 0.778111
O O8 0.000000 0.542508 0.750000
#
# Coordination Sequence:
#
# PCOD9509381 Si02
#       4
#    16   4  16  16
#     4  11  24  44  72 105 151 195 242 310 367 441
#     4  12  24  44  70 104 150 198 246 292 380 428
#     4  10  23  45  70 110 142 195 250 303 368 440
#     4  11  25  46  74 110 149 195 247 305 375 447
#
# _framework density 24.607907000000001
#
# number of rings (size 3 to 8) (size 9 to 14) (size 15 to 20)
#    0.000    1.231    3.077    0.923    2.154    7.385 
#    0.000    6.154    0.000    0.000    0.000    0.000 
#    0.000    0.000    0.000    0.000    0.000    0.000 
#
# Total GULP energy -144791.556488 kJ/mol
# GULP energy per Si atom -5568.906019 kJ/mol
# Density = 2.455190 g / cm^3
# Si number density = 24.607907 Si / 1000 Ang^3
#
#
#
# Elastic Constant Matrix: (Units=GPa)
#
#
# Indices 1 2 3 4 5 6 
#
# 1 75.8790 26.9311 -0.5952 0.0000 0.0000 0.0000
# 2 26.9311 132.4563 21.3416 0.0000 0.0000 0.0000
# 3 -0.5952 21.3416 160.4698 0.0000 0.0000 0.0000
# 4 0.0000 0.0000 0.0000 50.9459 0.0000 0.0000
# 5 0.0000 0.0000 0.0000 0.0000 14.4583 0.0000
# 6 0.0000 0.0000 0.0000 0.0000 0.0000 18.4808
#
#
#
# Elastic Compliance Matrix: (Units=1/GPa)
#
#
# Indices 1 2 3 4 5 6 
#
# 1 0.014235 -0.002966 0.000447 0.000000 0.000000 0.000000
# 2 -0.002966 0.008333 -0.001119 0.000000 0.000000 0.000000
# 3 0.000447 -0.001119 0.006382 0.000000 0.000000 0.000000
# 4 0.000000 0.000000 0.000000 0.019629 0.000000 0.000000
# 5 0.000000 0.000000 0.000000 0.000000 0.069164 0.000000
# 6 0.000000 0.000000 0.000000 0.000000 0.000000 0.054110
#
#
# Mechanical properties :
#
#
# Convention : Reuss Voigt Hill
#
# Bulk Modulus (GPa) = 46.13850 51.57337 48.85593
# Shear Modulus (GPa) = 26.83047 38.18550 32.50798
#
# Velocity S-wave (km/s) = 3.30558 3.94351 3.63855
# Velocity P-wave (km/s) = 5.77575 6.46054 6.12772
#
# Compressibility (1/GPa) = 0.02167387
#
# Stress axis : x y z
#
# Youngs Moduli (GPa) = 70.24833 120.00295 156.68541
#
# Poissons Ratio (x) = 0.35598 -0.07009
# Poissons Ratio (y) = 0.20838 0.17537
# Poissons Ratio (z) = -0.03142 0.13431
#
# Static dielectric constant tensor:
#      x y z
#    x 2.128020 0.000000 0.000000 
#    y 0.000000 1.987700 0.000000 
#    z 0.000000 0.000000 2.085310 
# 
# From -- ./inp_files/28913.got.cif
#   From: 2010.05.17/outbox.cif.g08.bks.cpg/sg68_15_cif.got.tgz:28913.got - 2010.06.03 18:57:09.
