data_PCOD9509045
_publ_section_title
;
Structure prediction by ZEFSAII (Michael W. Deem and Ramdas Pophale) SiO2 
 PCOD9509045
Probable space group: C C C A
;
_chemical_formula_sum "Si O2"
_cell_formula_units_Z 104
_cell_length_a 8.371360
_cell_length_b 26.653878
_cell_length_c 22.344220
_cell_angle_alpha 90.000000
_cell_angle_beta 90.000000
_cell_angle_gamma 90.000000
_cell_volume 4985.648115
_symmetry_space_group_name_H-M "C C C A"
_symmetry_group_IT_number 68
_space_group.IT_coordinate_system_code '2'
_symmetry_cell_setting 'orthorhombic'
loop_
_space_group_symop_operation_xyz
x,y,z
-x,1/2-y,z
x,1/2-y,1/2-z
-x,y,1/2-z
-x,-y,-z
x,1/2+y,-z
-x,1/2+y,1/2+z
x,-y,1/2+z
1/2+x,1/2+y,z
1/2-x,-y,z
1/2+x,-y,1/2-z
1/2-x,1/2+y,1/2-z
1/2-x,1/2-y,-z
1/2+x,y,-z
1/2-x,y,1/2+z
1/2+x,1/2-y,1/2+z
loop_
_atom_site_type_symbol
_atom_site_label
_atom_site_fract_x
_atom_site_fract_y
_atom_site_fract_z
Si Si1 0.293038 0.597853 0.412434
Si Si2 0.901055 0.138819 0.021758
Si Si3 0.690647 0.692363 0.893897
Si Si4 0.750000 0.500000 0.168216
Si Si5 0.500000 0.942829 0.750000
Si Si6 0.334043 0.306950 0.729094
Si Si7 0.000000 0.250000 0.977961
Si Si8 0.589014 0.149222 0.319574
O O1 0.158406 0.608205 0.463657
O O2 0.461195 0.610363 0.442551
O O3 0.295998 0.545173 0.376974
O O4 0.239505 0.636421 0.361243
O O5 0.745220 0.147432 0.063197
O O6 0.964936 0.196201 0.009131
O O7 0.821377 0.695119 0.842266
O O8 0.655001 0.739203 0.936441
O O9 0.527250 0.683853 0.857644
O O10 0.620629 0.479256 0.215584
O O11 0.511824 0.901269 0.696106
O O12 0.335281 0.250000 0.750000
O O13 0.500000 0.331766 0.750000
O O14 0.176665 0.329612 0.760664
#
# Coordination Sequence:
#
# PCOD9509045 Si02
#       8
#    16  16  16   8   8  16   8  16
#     4  11  24  46  67  99 135 179 228 292 344 411
#     4  12  25  42  66  98 139 184 235 277 338 410
#     4  12  23  39  65  95 137 189 225 277 332 400
#     4  10  26  46  76 100 138 174 226 302 352 430
#     4  10  22  46  69 102 130 167 224 284 364 420
#     4  11  24  39  59  99 139 181 227 276 336 412
#     4  12  24  40  65  98 139 190 236 268 332 406
#     4  11  21  43  67  95 136 175 225 280 344 420
#
# _framework density 20.859876
#
# number of rings (size 3 to 8) (size 9 to 14) (size 15 to 20)
#    0.000    0.769    4.615    2.308    0.000    3.692 
#    5.538    0.000    0.000    0.000    0.000    0.000 
#    0.000    0.000    0.000    0.000    0.000    0.000 
#
# Total GULP energy -289558.759096 kJ/mol
# GULP energy per Si atom -5568.437675 kJ/mol
# Density = 2.081240 g / cm^3
# Si number density = 20.859876 Si / 1000 Ang^3
#
#
#
# Elastic Constant Matrix: (Units=GPa)
#
#
# Indices 1 2 3 4 5 6 
#
# 1 96.3932 50.4675 40.4132 0.0000 0.0000 0.0000
# 2 50.4675 90.7573 45.3846 0.0000 0.0000 0.0000
# 3 40.4132 45.3846 115.7020 0.0000 0.0000 0.0000
# 4 0.0000 0.0000 0.0000 2.3443 0.0000 0.0000
# 5 0.0000 0.0000 0.0000 0.0000 72.0130 0.0000
# 6 0.0000 0.0000 0.0000 0.0000 0.0000 16.0199
#
#
#
# Elastic Compliance Matrix: (Units=1/GPa)
#
#
# Indices 1 2 3 4 5 6 
#
# 1 0.015185 -0.007205 -0.002478 0.000000 0.000000 0.000000
# 2 -0.007205 0.017126 -0.004201 0.000000 0.000000 0.000000
# 3 -0.002478 -0.004201 0.011156 0.000000 0.000000 0.000000
# 4 0.000000 0.000000 0.000000 0.426565 0.000000 0.000000
# 5 0.000000 0.000000 0.000000 0.000000 0.013886 0.000000
# 6 0.000000 0.000000 0.000000 0.000000 0.000000 0.062422
#
#
# Mechanical properties :
#
#
# Convention : Reuss Voigt Hill
#
# Bulk Modulus (GPa) = 63.69632 63.93146 63.81389
# Shear Modulus (GPa) = 8.63048 29.18126 18.90587
#
# Velocity S-wave (km/s) = 2.03626 3.74427 3.01379
# Velocity P-wave (km/s) = 6.01083 7.02903 6.53978
#
# Compressibility (1/GPa) = 0.01569949
#
# Stress axis : x y z
#
# Youngs Moduli (GPa) = 65.85337 58.39188 89.63606
#
# Poissons Ratio (x) = 0.42071 0.22210
# Poissons Ratio (y) = 0.47447 0.37656
# Poissons Ratio (z) = 0.16317 0.24530
#
# Static dielectric constant tensor:
#      x y z
#    x 1.867640 0.000000 0.000000 
#    y 0.000000 1.645830 0.000000 
#    z 0.000000 0.000000 1.832720 
# 
# From -- ./inp_files/36729.got.cif
#   From: 2010.05.17/outbox.cif.g08.bks.cpg/sg68_19_cif.got.tgz:36729.got - 2010.06.03 18:57:09.
