data_PCOD9509015
_publ_section_title
;
Structure prediction by ZEFSAII (Michael W. Deem and Ramdas Pophale) SiO2 
 PCOD9509015
Probable space group: C C C A
;
_chemical_formula_sum "Si O2"
_cell_formula_units_Z 68
_cell_length_a 8.413788
_cell_length_b 14.244526
_cell_length_c 29.611577
_cell_angle_alpha 90.000000
_cell_angle_beta 90.000000
_cell_angle_gamma 90.000000
_cell_volume 3548.959997
_symmetry_space_group_name_H-M "C C C A"
_symmetry_group_IT_number 68
_space_group.IT_coordinate_system_code '2'
_symmetry_cell_setting 'orthorhombic'
loop_
_space_group_symop_operation_xyz
x,y,z
-x,1/2-y,z
x,1/2-y,1/2-z
-x,y,1/2-z
-x,-y,-z
x,1/2+y,-z
-x,1/2+y,1/2+z
x,-y,1/2+z
1/2+x,1/2+y,z
1/2-x,-y,z
1/2+x,-y,1/2-z
1/2-x,1/2+y,1/2-z
1/2-x,1/2-y,-z
1/2+x,y,-z
1/2-x,y,1/2+z
1/2+x,1/2-y,1/2+z
loop_
_atom_site_type_symbol
_atom_site_label
_atom_site_fract_x
_atom_site_fract_y
_atom_site_fract_z
Si Si1 0.059652 0.354571 0.439864
Si Si2 0.070354 0.854655 0.034508
Si Si3 0.903511 0.565531 0.206995
Si Si4 0.063494 0.480987 0.613826
Si Si5 0.000000 0.250000 0.750000
O O1 0.243599 0.354359 0.454052
O O2 0.000000 0.250000 0.429792
O O3 0.960957 0.389986 0.483662
O O4 0.027824 0.423007 0.398452
O O5 0.000000 0.750000 0.034527
O O6 0.979966 0.912382 0.072693
O O7 0.750000 0.500000 0.201862
O O8 0.893487 0.676686 0.220644
O O9 0.000000 0.525630 0.250000
O O10 0.002035 0.559201 0.160958
O O11 0.250000 0.500000 0.615492
#
# Coordination Sequence:
#
# PCOD9509015 Si02
#       5
#    16  16  16  16   4
#     4  11  22  40  57  92 125 169 219 265 328 388
#     4  11  22  37  62  85 128 170 215 272 322 385
#     4  10  22  45  69  99 133 169 216 270 332 399
#     4  12  24  40  63  92 127 168 216 268 319 391
#     4   8  24  44  78  94 140 164 214 268 344 382
#
# _framework density 19.160543000000001
#
# number of rings (size 3 to 8) (size 9 to 14) (size 15 to 20)
#    0.706    0.471    0.000    9.176    1.647    0.000 
#    4.235    0.588    0.000    0.000    0.000    0.000 
#    0.000    0.000    0.000    0.000    0.000    0.000 
#
# Total GULP energy -189814.449959 kJ/mol
# GULP energy per Si atom -5582.777940 kJ/mol
# Density = 1.911693 g / cm^3
# Si number density = 19.160543 Si / 1000 Ang^3
#
#
#
# Elastic Constant Matrix: (Units=GPa)
#
#
# Indices 1 2 3 4 5 6 
#
# 1 110.8288 30.3269 5.2278 0.0000 0.0000 0.0000
# 2 30.3269 105.4101 46.1483 0.0000 0.0000 0.0000
# 3 5.2278 46.1483 97.4014 0.0000 0.0000 0.0000
# 4 0.0000 0.0000 0.0000 25.9913 0.0000 0.0000
# 5 0.0000 0.0000 0.0000 0.0000 32.4352 0.0000
# 6 0.0000 0.0000 0.0000 0.0000 0.0000 21.7802
#
#
#
# Elastic Compliance Matrix: (Units=1/GPa)
#
#
# Indices 1 2 3 4 5 6 
#
# 1 0.009875 -0.003292 0.001030 0.000000 0.000000 0.000000
# 2 -0.003292 0.013067 -0.006014 0.000000 0.000000 0.000000
# 3 0.001030 -0.006014 0.013061 0.000000 0.000000 0.000000
# 4 0.000000 0.000000 0.000000 0.038474 0.000000 0.000000
# 5 0.000000 0.000000 0.000000 0.000000 0.030831 0.000000
# 6 0.000000 0.000000 0.000000 0.000000 0.000000 0.045913
#
#
# Mechanical properties :
#
#
# Convention : Reuss Voigt Hill
#
# Bulk Modulus (GPa) = 51.41395 53.00513 52.20954
# Shear Modulus (GPa) = 28.69309 31.50384 30.09847
#
# Velocity S-wave (km/s) = 3.87396 4.05928 3.96770
# Velocity P-wave (km/s) = 6.84848 7.04940 6.94966
#
# Compressibility (1/GPa) = 0.01944998
#
# Stress axis : x y z
#
# Youngs Moduli (GPa) = 101.26438 76.52908 76.56320
#
# Poissons Ratio (x) = 0.25193 -0.07883
# Poissons Ratio (y) = 0.33335 0.46048
# Poissons Ratio (z) = -0.10427 0.46027
#
# Static dielectric constant tensor:
#      x y z
#    x 1.650280 0.000000 0.000000 
#    y 0.000000 1.729620 0.000000 
#    z 0.000000 0.000000 1.642610 
# 
# From -- ./inp_files/48869.got.cif
#   From: 2010.05.17/outbox.cif.g08.bks.cpg/sg68_25_cif.got.tgz:48869.got - 2010.06.03 18:57:09.
