data_PCOD9509077
_publ_section_title
;
Structure prediction by ZEFSAII (Michael W. Deem and Ramdas Pophale) SiO2 
 PCOD9509077
Probable space group: C C C A
;
_chemical_formula_sum "Si O2"
_cell_formula_units_Z 120
_cell_length_a 21.758941
_cell_length_b 21.588253
_cell_length_c 10.700122
_cell_angle_alpha 90.000000
_cell_angle_beta 90.000000
_cell_angle_gamma 90.000000
_cell_volume 5026.248808
_symmetry_space_group_name_H-M "C C C A"
_symmetry_group_IT_number 68
_space_group.IT_coordinate_system_code '2'
_symmetry_cell_setting 'orthorhombic'
loop_
_space_group_symop_operation_xyz
x,y,z
-x,1/2-y,z
x,1/2-y,1/2-z
-x,y,1/2-z
-x,-y,-z
x,1/2+y,-z
-x,1/2+y,1/2+z
x,-y,1/2+z
1/2+x,1/2+y,z
1/2-x,-y,z
1/2+x,-y,1/2-z
1/2-x,1/2+y,1/2-z
1/2-x,1/2-y,-z
1/2+x,y,-z
1/2-x,y,1/2+z
1/2+x,1/2-y,1/2+z
loop_
_atom_site_type_symbol
_atom_site_label
_atom_site_fract_x
_atom_site_fract_y
_atom_site_fract_z
Si Si1 0.370607 0.834311 0.463386
Si Si2 0.108163 0.250000 0.250000
Si Si3 0.433296 0.190449 0.188923
Si Si4 0.750581 0.365453 0.086232
Si Si5 0.567072 0.936828 0.201704
Si Si6 0.410602 0.423379 0.155713
Si Si7 0.268141 0.433432 0.158842
Si Si8 0.107530 0.359332 0.412873
O O1 0.354743 0.793904 0.342923
O O2 0.425922 0.803961 0.541962
O O3 0.311625 0.828536 0.554097
O O4 0.399705 0.898449 0.409484
O O5 0.077174 0.302049 0.338155
O O6 0.400262 0.250000 0.250000
O O7 0.500000 0.190666 0.250000
O O8 0.412348 0.121063 0.224388
O O9 0.746978 0.386316 0.229827
O O10 0.820450 0.341602 0.062417
O O11 0.740854 0.417190 0.976595
O O12 0.500000 0.915091 0.250000
O O13 0.608653 0.919610 0.322230
O O14 0.559929 0.009324 0.169605
O O15 0.339841 0.436944 0.134540
O O16 0.428007 0.380850 0.036920
O O17 0.250000 0.500000 0.206735
#
# Coordination Sequence:
#
# PCOD9509077 Si02
#       8
#    16   8  16  16  16  16  16  16
#     4  11  24  46  71  99 143 185 241 297 371 438
#     4  10  22  48  69 102 142 188 243 294 358 450
#     4  11  25  45  69  99 136 184 241 301 359 429
#     4  11  22  41  65 101 141 184 238 295 362 433
#     4  11  26  44  68 104 142 191 241 302 367 439
#     4  11  23  41  68 101 139 186 240 293 364 430
#     4  11  21  36  64  98 141 188 233 289 353 434
#     4  10  24  42  67 102 140 188 241 292 364 435
#
# _framework density 23.874663999999999
#
# number of rings (size 3 to 8) (size 9 to 14) (size 15 to 20)
#    0.000    1.200    1.333    4.800    3.733    3.200 
#    3.600    3.000    0.000    0.000    0.000    0.000 
#    0.000    0.000    0.000    0.000    0.000    0.000 
#
# Total GULP energy -334330.931664 kJ/mol
# GULP energy per Si atom -5572.182194 kJ/mol
# Density = 2.382032 g / cm^3
# Si number density = 23.874664 Si / 1000 Ang^3
#
#
#
# Elastic Constant Matrix: (Units=GPa)
#
#
# Indices 1 2 3 4 5 6 
#
# 1 83.1058 9.4459 9.0751 0.0000 0.0000 0.0000
# 2 9.4459 125.0458 34.8691 0.0000 0.0000 0.0000
# 3 9.0751 34.8691 114.6132 0.0000 0.0000 0.0000
# 4 0.0000 0.0000 0.0000 43.1221 0.0000 0.0000
# 5 0.0000 0.0000 0.0000 0.0000 3.9029 0.0000
# 6 0.0000 0.0000 0.0000 0.0000 0.0000 11.1339
#
#
#
# Elastic Compliance Matrix: (Units=1/GPa)
#
#
# Indices 1 2 3 4 5 6 
#
# 1 0.012196 -0.000712 -0.000749 0.000000 0.000000 0.000000
# 2 -0.000712 0.008780 -0.002615 0.000000 0.000000 0.000000
# 3 -0.000749 -0.002615 0.009580 0.000000 0.000000 0.000000
# 4 0.000000 0.000000 0.000000 0.023190 0.000000 0.000000
# 5 0.000000 0.000000 0.000000 0.000000 0.256221 0.000000
# 6 0.000000 0.000000 0.000000 0.000000 0.000000 0.089816
#
#
# Mechanical properties :
#
#
# Convention : Reuss Voigt Hill
#
# Bulk Modulus (GPa) = 44.63640 47.72723 46.18182
# Shear Modulus (GPa) = 12.03652 29.59007 20.81330
#
# Velocity S-wave (km/s) = 2.24777 3.52432 2.95578
# Velocity P-wave (km/s) = 5.04712 6.04940 5.57085
#
# Compressibility (1/GPa) = 0.02240324
#
# Stress axis : x y z
#
# Youngs Moduli (GPa) = 81.99669 113.89507 104.38638
#
# Poissons Ratio (x) = 0.08114 0.07818
# Poissons Ratio (y) = 0.05842 0.27295
# Poissons Ratio (z) = 0.06141 0.29781
#
# Static dielectric constant tensor:
#      x y z
#    x 1.914690 0.000000 0.000000 
#    y 0.000000 2.152430 0.000000 
#    z 0.000000 0.000000 1.981970 
# 
# From -- ./inp_files/16626.got.cif
#   From: 2010.05.17/outbox.cif.g08.bks.cpg/sg68_9_cif.got.tgz:16626.got - 2010.06.03 18:57:09.
