data_PCOD9509168
_publ_section_title
;
Structure prediction by ZEFSAII (Michael W. Deem and Ramdas Pophale) SiO2 
 PCOD9509168
Probable space group: C C C A
;
_chemical_formula_sum "Si O2"
_cell_formula_units_Z 96
_cell_length_a 8.542481
_cell_length_b 25.495007
_cell_length_c 22.390624
_cell_angle_alpha 90.000000
_cell_angle_beta 90.000000
_cell_angle_gamma 90.000000
_cell_volume 4876.467724
_symmetry_space_group_name_H-M "C C C A"
_symmetry_group_IT_number 68
_space_group.IT_coordinate_system_code '2'
_symmetry_cell_setting 'orthorhombic'
loop_
_space_group_symop_operation_xyz
x,y,z
-x,1/2-y,z
x,1/2-y,1/2-z
-x,y,1/2-z
-x,-y,-z
x,1/2+y,-z
-x,1/2+y,1/2+z
x,-y,1/2+z
1/2+x,1/2+y,z
1/2-x,-y,z
1/2+x,-y,1/2-z
1/2-x,1/2+y,1/2-z
1/2-x,1/2-y,-z
1/2+x,y,-z
1/2-x,y,1/2+z
1/2+x,1/2-y,1/2+z
loop_
_atom_site_type_symbol
_atom_site_label
_atom_site_fract_x
_atom_site_fract_y
_atom_site_fract_z
Si Si1 0.064732 0.010706 0.811501
Si Si2 0.570288 0.808158 0.955620
Si Si3 0.524256 0.097209 0.636124
Si Si4 0.124767 0.960666 0.526558
Si Si5 0.870619 0.096156 0.594441
Si Si6 0.568472 0.194192 0.915468
O O1 0.993437 0.952562 0.821772
O O2 0.000000 0.033243 0.750000
O O3 0.250000 0.000000 0.807877
O O4 0.043622 0.050557 0.866975
O O5 0.500000 0.750000 0.944437
O O6 0.479426 0.853887 0.919418
O O7 0.753590 0.805961 0.939575
O O8 0.539116 0.819180 0.026039
O O9 0.452762 0.076476 0.574027
O O10 0.710034 0.106965 0.629739
O O11 0.445743 0.153721 0.639286
O O12 0.182580 0.927869 0.469456
O O13 0.250000 0.000000 0.554228
O O14 0.000000 0.000000 0.500000
O O15 0.500000 0.250000 0.896569
#
# Coordination Sequence:
#
# PCOD9509168 Si02
#       6
#    16  16  16  16  16  16
#     4  10  23  41  59  82 113 148 188 235 282 332
#     4  11  22  35  54  80 115 153 189 227 275 335
#     4  11  22  36  56  80 116 149 184 232 281 332
#     4  12  21  32  50  80 116 147 185 224 276 341
#     4  11  21  37  55  81 115 150 184 230 282 331
#     4  11  22  35  53  81 115 153 189 227 275 333
#
# _framework density 19.686381999999998
#
# number of rings (size 3 to 8) (size 9 to 14) (size 15 to 20)
#    0.000    1.000    5.000    4.500    2.333    2.000 
#    0.000    0.000    0.000    1.000    0.000    7.000 
#    0.000    0.000    0.000    0.000    0.000    0.000 
#
# Total GULP energy -267802.492045 kJ/mol
# GULP energy per Si atom -5579.218584 kJ/mol
# Density = 1.964157 g / cm^3
# Si number density = 19.686382 Si / 1000 Ang^3
#
#
#
# Elastic Constant Matrix: (Units=GPa)
#
#
# Indices 1 2 3 4 5 6 
#
# 1 63.3295 29.1172 -7.2460 0.0000 0.0000 0.0000
# 2 29.1172 126.1220 23.0562 0.0000 0.0000 0.0000
# 3 -7.2460 23.0562 55.4240 0.0000 0.0000 0.0000
# 4 0.0000 0.0000 0.0000 10.8058 0.0000 0.0000
# 5 0.0000 0.0000 0.0000 0.0000 13.1642 0.0000
# 6 0.0000 0.0000 0.0000 0.0000 0.0000 33.8351
#
#
#
# Elastic Compliance Matrix: (Units=1/GPa)
#
#
# Indices 1 2 3 4 5 6 
#
# 1 0.018684 -0.005152 0.004586 0.000000 0.000000 0.000000
# 2 -0.005152 0.010002 -0.004834 0.000000 0.000000 0.000000
# 3 0.004586 -0.004834 0.020653 0.000000 0.000000 0.000000
# 4 0.000000 0.000000 0.000000 0.092543 0.000000 0.000000
# 5 0.000000 0.000000 0.000000 0.000000 0.075963 0.000000
# 6 0.000000 0.000000 0.000000 0.000000 0.000000 0.029555
#
#
# Mechanical properties :
#
#
# Convention : Reuss Voigt Hill
#
# Bulk Modulus (GPa) = 25.94810 37.19226 31.57018
# Shear Modulus (GPa) = 18.44696 24.89089 21.66893
#
# Velocity S-wave (km/s) = 3.06443 3.55966 3.32129
# Velocity P-wave (km/s) = 5.07251 5.98567 5.54791
#
# Compressibility (1/GPa) = 0.03853846
#
# Stress axis : x y z
#
# Youngs Moduli (GPa) = 53.52243 99.98061 48.41838
#
# Poissons Ratio (x) = 0.51508 -0.22204
# Poissons Ratio (y) = 0.27573 0.23407
# Poissons Ratio (z) = -0.24544 0.48334
#
# Static dielectric constant tensor:
#      x y z
#    x 1.686400 0.000000 0.000000 
#    y 0.000000 1.690400 0.000000 
#    z 0.000000 0.000000 1.683460 
# 
# From -- ./inp_files/43393.got.cif
#   From: 2010.05.17/outbox.cif.g08.bks.cpg/sg68_22_cif.got.tgz:43393.got - 2010.06.03 18:57:09.
