data_PCOD9509780
_publ_section_title
;
Structure prediction by ZEFSAII (Michael W. Deem and Ramdas Pophale) SiO2 
 PCOD9509780
Probable space group: C C C A
;
_chemical_formula_sum "Si O2"
_cell_formula_units_Z 56
_cell_length_a 5.353069
_cell_length_b 18.505585
_cell_length_c 27.737371
_cell_angle_alpha 90.000000
_cell_angle_beta 90.000000
_cell_angle_gamma 90.000000
_cell_volume 2747.710387
_symmetry_space_group_name_H-M "C C C A"
_symmetry_group_IT_number 68
_space_group.IT_coordinate_system_code '2'
_symmetry_cell_setting 'orthorhombic'
loop_
_space_group_symop_operation_xyz
x,y,z
-x,1/2-y,z
x,1/2-y,1/2-z
-x,y,1/2-z
-x,-y,-z
x,1/2+y,-z
-x,1/2+y,1/2+z
x,-y,1/2+z
1/2+x,1/2+y,z
1/2-x,-y,z
1/2+x,-y,1/2-z
1/2-x,1/2+y,1/2-z
1/2-x,1/2-y,-z
1/2+x,y,-z
1/2-x,y,1/2+z
1/2+x,1/2-y,1/2+z
loop_
_atom_site_type_symbol
_atom_site_label
_atom_site_fract_x
_atom_site_fract_y
_atom_site_fract_z
Si Si1 0.751351 0.719823 0.444849
Si Si2 0.091724 0.424616 0.093065
Si Si3 0.750000 0.000000 0.968252
Si Si4 0.001707 0.950572 0.802607
O O1 0.500000 0.750000 0.421885
O O2 0.750000 0.750000 0.500000
O O3 0.735539 0.634216 0.438793
O O4 0.000000 0.750000 0.421687
O O5 0.250000 0.500000 0.093265
O O6 0.040991 0.405318 0.148604
O O7 0.821756 0.435461 0.067883
O O8 0.500000 0.000000 0.000000
O O9 0.000000 0.913477 0.750000
O O10 0.250000 0.000000 0.800188
O O11 0.750000 0.000000 0.808377
#
# Coordination Sequence:
#
# PCOD9509780 Si02
#       4
#    16  16   8  16
#     4  10  25  41  57  80 124 167 203 248 306 363
#     4  11  24  41  66  92 122 164 217 262 312 381
#     4  12  26  34  56  90 128 156 206 262 304 364
#     4   9  18  34  58  93 125 148 189 261 327 369
#
# _framework density 20.380604000000002
#
# number of rings (size 3 to 8) (size 9 to 14) (size 15 to 20)
#    0.000    1.714    2.857    0.000   12.000    0.000 
#    0.000    0.000    0.000    0.857    0.000    2.000 
#    0.000    0.000    0.000    0.000    0.000    0.000 
#
# Total GULP energy -155886.696364 kJ/mol
# GULP energy per Si atom -5567.382013 kJ/mol
# Density = 2.033422 g / cm^3
# Si number density = 20.380604 Si / 1000 Ang^3
#
#
#
# Elastic Constant Matrix: (Units=GPa)
#
#
# Indices 1 2 3 4 5 6 
#
# 1 170.3722 35.0171 17.4143 0.0000 0.0000 0.0000
# 2 35.0171 98.4152 28.1251 0.0000 0.0000 0.0000
# 3 17.4143 28.1251 163.8118 0.0000 0.0000 0.0000
# 4 0.0000 0.0000 0.0000 16.0722 0.0000 0.0000
# 5 0.0000 0.0000 0.0000 0.0000 16.0040 0.0000
# 6 0.0000 0.0000 0.0000 0.0000 0.0000 32.4887
#
#
#
# Elastic Compliance Matrix: (Units=1/GPa)
#
#
# Indices 1 2 3 4 5 6 
#
# 1 0.006347 -0.002172 -0.000302 0.000000 0.000000 0.000000
# 2 -0.002172 0.011429 -0.001731 0.000000 0.000000 0.000000
# 3 -0.000302 -0.001731 0.006434 0.000000 0.000000 0.000000
# 4 0.000000 0.000000 0.000000 0.062219 0.000000 0.000000
# 5 0.000000 0.000000 0.000000 0.000000 0.062484 0.000000
# 6 0.000000 0.000000 0.000000 0.000000 0.000000 0.030780
#
#
# Mechanical properties :
#
#
# Convention : Reuss Voigt Hill
#
# Bulk Modulus (GPa) = 63.29470 65.96803 64.63137
# Shear Modulus (GPa) = 25.85725 36.38249 31.11987
#
# Velocity S-wave (km/s) = 3.56577 4.22969 3.91184
# Velocity P-wave (km/s) = 6.93374 7.50280 7.22388
#
# Compressibility (1/GPa) = 0.01579911
#
# Stress axis : x y z
#
# Youngs Moduli (GPa) = 157.56048 87.49963 155.42674
#
# Poissons Ratio (x) = 0.19005 0.04691
# Poissons Ratio (y) = 0.34222 0.26909
# Poissons Ratio (z) = 0.04755 0.15149
#
# Static dielectric constant tensor:
#      x y z
#    x 1.807120 0.000000 0.000000 
#    y 0.000000 1.823510 0.000000 
#    z 0.000000 0.000000 1.810280 
# 
# From -- ./inp_files/52793.got.cif
#   From: 2010.05.17/outbox.cif.g08.bks.cpg/sg68_27_cif.got.tgz:52793.got - 2010.06.03 18:57:09.
