data_PCOD9509758
_publ_section_title
;
Structure prediction by ZEFSAII (Michael W. Deem and Ramdas Pophale) SiO2 
 PCOD9509758
Probable space group: C C C A
;
_chemical_formula_sum "Si O2"
_cell_formula_units_Z 72
_cell_length_a 27.088081
_cell_length_b 20.434066
_cell_length_c 5.278694
_cell_angle_alpha 90.000000
_cell_angle_beta 90.000000
_cell_angle_gamma 90.000000
_cell_volume 2921.860776
_symmetry_space_group_name_H-M "C C C A"
_symmetry_group_IT_number 68
_space_group.IT_coordinate_system_code '2'
_symmetry_cell_setting 'orthorhombic'
loop_
_space_group_symop_operation_xyz
x,y,z
-x,1/2-y,z
x,1/2-y,1/2-z
-x,y,1/2-z
-x,-y,-z
x,1/2+y,-z
-x,1/2+y,1/2+z
x,-y,1/2+z
1/2+x,1/2+y,z
1/2-x,-y,z
1/2+x,-y,1/2-z
1/2-x,1/2+y,1/2-z
1/2-x,1/2-y,-z
1/2+x,y,-z
1/2-x,y,1/2+z
1/2+x,1/2-y,1/2+z
loop_
_atom_site_type_symbol
_atom_site_label
_atom_site_fract_x
_atom_site_fract_y
_atom_site_fract_z
Si Si1 0.000000 0.545209 0.750000
Si Si2 0.590173 0.250000 0.750000
Si Si3 0.283852 0.750000 0.750000
Si Si4 0.951266 0.856552 0.424686
Si Si5 0.729269 0.426557 0.614541
Si Si6 0.141435 0.642786 0.084575
O O1 0.000000 0.500000 0.500000
O O2 0.042791 0.596153 0.668938
O O3 0.557943 0.215875 0.532677
O O4 0.622551 0.307852 0.632081
O O5 0.250000 0.750000 0.500000
O O6 0.320903 0.811742 0.758507
O O7 0.904553 0.876936 0.256606
O O8 0.000000 0.860188 0.250000
O O9 0.750000 0.500000 0.645310
O O10 0.738098 0.396593 0.888907
O O11 0.673275 0.416786 0.527847
#
# Coordination Sequence:
#
# PCOD9509758 Si02
#       6
#     8   8   8  16  16  16
#     4  12  28  57  82 117 160 226 282 344 418 494
#     4  12  27  47  81 130 174 215 286 351 445 506
#     4  12  25  44  72 108 163 211 268 341 428 516
#     4  12  28  53  83 123 172 220 283 358 423 518
#     4  10  24  49  76 111 156 211 278 340 413 497
#     4  12  26  46  76 121 164 218 277 347 437 512
#
# _framework density 24.641829999999999
#
# number of rings (size 3 to 8) (size 9 to 14) (size 15 to 20)
#    0.000    0.444    3.333    3.333    3.111    6.667 
#    8.000    0.000    0.000    0.000    0.000    0.000 
#    0.000    0.000    0.000    0.000    0.000    0.000 
#
# Total GULP energy -201478.734223 kJ/mol
# GULP energy per Si atom -5596.631506 kJ/mol
# Density = 2.458574 g / cm^3
# Si number density = 24.641830 Si / 1000 Ang^3
#
#
#
# Elastic Constant Matrix: (Units=GPa)
#
#
# Indices 1 2 3 4 5 6 
#
# 1 156.9304 59.4699 66.8728 0.0000 0.0000 0.0000
# 2 59.4699 111.9082 34.3076 0.0000 0.0000 0.0000
# 3 66.8728 34.3076 183.5942 0.0000 0.0000 0.0000
# 4 0.0000 0.0000 0.0000 48.6307 0.0000 0.0000
# 5 0.0000 0.0000 0.0000 0.0000 51.5044 0.0000
# 6 0.0000 0.0000 0.0000 0.0000 0.0000 44.6876
#
#
#
# Elastic Compliance Matrix: (Units=1/GPa)
#
#
# Indices 1 2 3 4 5 6 
#
# 1 0.008956 -0.003988 -0.002517 0.000000 0.000000 0.000000
# 2 -0.003988 0.011254 -0.000651 0.000000 0.000000 0.000000
# 3 -0.002517 -0.000651 0.006485 0.000000 0.000000 0.000000
# 4 0.000000 0.000000 0.000000 0.020563 0.000000 0.000000
# 5 0.000000 0.000000 0.000000 0.000000 0.019416 0.000000
# 6 0.000000 0.000000 0.000000 0.000000 0.000000 0.022378
#
#
# Mechanical properties :
#
#
# Convention : Reuss Voigt Hill
#
# Bulk Modulus (GPa) = 80.74253 85.97038 83.35646
# Shear Modulus (GPa) = 46.51546 48.41671 47.46609
#
# Velocity S-wave (km/s) = 4.34944 4.43744 4.39366
# Velocity P-wave (km/s) = 7.61978 7.82420 7.72267
#
# Compressibility (1/GPa) = 0.01238505
#
# Stress axis : x y z
#
# Youngs Moduli (GPa) = 111.65708 88.85335 154.19832
#
# Poissons Ratio (x) = 0.35432 0.38811
# Poissons Ratio (y) = 0.44526 0.10032
# Poissons Ratio (z) = 0.28104 0.05781
#
# Static dielectric constant tensor:
#      x y z
#    x 1.940210 0.000000 0.000000 
#    y 0.000000 1.958010 0.000000 
#    z 0.000000 0.000000 2.036690 
# 
# From -- ./inp_files/2353.got.cif
#   From: 2010.05.17/outbox.cif.g08.bks.cpg/sg68_2_cif.got.tgz:2353.got - 2010.06.03 18:57:09.
