data_PCOD9509501
_publ_section_title
;
Structure prediction by ZEFSAII (Michael W. Deem and Ramdas Pophale) SiO2 
 PCOD9509501
Probable space group: C C C A
;
_chemical_formula_sum "Si O2"
_cell_formula_units_Z 56
_cell_length_a 19.854760
_cell_length_b 5.550708
_cell_length_c 21.590994
_cell_angle_alpha 90.000000
_cell_angle_beta 90.000000
_cell_angle_gamma 90.000000
_cell_volume 2379.499731
_symmetry_space_group_name_H-M "C C C A"
_symmetry_group_IT_number 68
_space_group.IT_coordinate_system_code '2'
_symmetry_cell_setting 'orthorhombic'
loop_
_space_group_symop_operation_xyz
x,y,z
-x,1/2-y,z
x,1/2-y,1/2-z
-x,y,1/2-z
-x,-y,-z
x,1/2+y,-z
-x,1/2+y,1/2+z
x,-y,1/2+z
1/2+x,1/2+y,z
1/2-x,-y,z
1/2+x,-y,1/2-z
1/2-x,1/2+y,1/2-z
1/2-x,1/2-y,-z
1/2+x,y,-z
1/2-x,y,1/2+z
1/2+x,1/2-y,1/2+z
loop_
_atom_site_type_symbol
_atom_site_label
_atom_site_fract_x
_atom_site_fract_y
_atom_site_fract_z
Si Si1 0.326799 0.507458 0.134558
Si Si2 0.569813 0.348694 0.179230
Si Si3 0.577592 0.744841 0.462224
Si Si4 0.376721 0.250000 0.750000
O O1 0.250000 0.500000 0.113896
O O2 0.369089 0.257899 0.139305
O O3 0.367868 0.685529 0.089987
O O4 0.329373 0.592941 0.206050
O O5 0.500000 0.250000 0.152402
O O6 0.573352 0.250000 0.250000
O O7 0.576489 0.623995 0.198534
O O8 0.500000 0.750000 0.439072
O O9 0.585256 0.508794 0.506754
#
# Coordination Sequence:
#
# PCOD9509501 Si02
#       4
#    16  16  16   8
#     4  11  26  41  69 103 146 193 236 296 369 447
#     4   9  21  39  63  96 135 185 239 283 350 424
#     4  10  25  49  76 105 140 187 249 316 373 432
#     4  10  24  41  68 100 153 192 232 298 361 452
#
# _framework density 23.534357
#
# number of rings (size 3 to 8) (size 9 to 14) (size 15 to 20)
#    0.000    2.000    0.000    0.000   14.000   10.286 
#    0.000    0.000    0.000    0.000    0.000    0.000 
#    0.000    0.000    0.000    0.000    0.000    0.000 
#
# Total GULP energy -156104.666262 kJ/mol
# GULP energy per Si atom -5575.166652 kJ/mol
# Density = 2.348079 g / cm^3
# Si number density = 23.534357 Si / 1000 Ang^3
#
#
#
# Elastic Constant Matrix: (Units=GPa)
#
#
# Indices 1 2 3 4 5 6 
#
# 1 206.2123 63.5709 69.5949 0.0000 0.0000 0.0000
# 2 63.5709 110.7328 44.2409 0.0000 0.0000 0.0000
# 3 69.5949 44.2409 83.7482 0.0000 0.0000 0.0000
# 4 0.0000 0.0000 0.0000 32.3274 0.0000 0.0000
# 5 0.0000 0.0000 0.0000 0.0000 15.6925 0.0000
# 6 0.0000 0.0000 0.0000 0.0000 0.0000 18.0848
#
#
#
# Elastic Compliance Matrix: (Units=1/GPa)
#
#
# Indices 1 2 3 4 5 6 
#
# 1 0.007135 -0.002189 -0.004773 0.000000 0.000000 0.000000
# 2 -0.002189 0.012118 -0.004582 0.000000 0.000000 0.000000
# 3 -0.004773 -0.004582 0.018327 0.000000 0.000000 0.000000
# 4 0.000000 0.000000 0.000000 0.030934 0.000000 0.000000
# 5 0.000000 0.000000 0.000000 0.000000 0.063725 0.000000
# 6 0.000000 0.000000 0.000000 0.000000 0.000000 0.055295
#
#
# Mechanical properties :
#
#
# Convention : Reuss Voigt Hill
#
# Bulk Modulus (GPa) = 69.00333 83.94519 76.47426
# Shear Modulus (GPa) = 23.20683 28.10669 25.65676
#
# Velocity S-wave (km/s) = 3.14360 3.45959 3.30537
# Velocity P-wave (km/s) = 6.52382 7.19062 6.86532
#
# Compressibility (1/GPa) = 0.01449205
#
# Stress axis : x y z
#
# Youngs Moduli (GPa) = 140.15325 82.51910 54.56326
#
# Poissons Ratio (x) = 0.18066 0.26041
# Poissons Ratio (y) = 0.30684 0.25003
# Poissons Ratio (z) = 0.66891 0.37813
#
# Static dielectric constant tensor:
#      x y z
#    x 1.881800 0.000000 0.000000 
#    y 0.000000 2.229040 0.000000 
#    z 0.000000 0.000000 1.921280 
# 
# From -- ./inp_files/46284.got.cif
#   From: 2010.05.17/outbox.cif.g08.bks.cpg/sg68_24_cif.got.tgz:46284.got - 2010.06.03 18:57:09.
