data_PCOD9509282
_publ_section_title
;
Structure prediction by ZEFSAII (Michael W. Deem and Ramdas Pophale) SiO2 
 PCOD9509282
Probable space group: C C C A
;
_chemical_formula_sum "Si O2"
_cell_formula_units_Z 80
_cell_length_a 13.130902
_cell_length_b 22.845942
_cell_length_c 10.989981
_cell_angle_alpha 90.000000
_cell_angle_beta 90.000000
_cell_angle_gamma 90.000000
_cell_volume 3296.860502
_symmetry_space_group_name_H-M "C C C A"
_symmetry_group_IT_number 68
_space_group.IT_coordinate_system_code '2'
_symmetry_cell_setting 'orthorhombic'
loop_
_space_group_symop_operation_xyz
x,y,z
-x,1/2-y,z
x,1/2-y,1/2-z
-x,y,1/2-z
-x,-y,-z
x,1/2+y,-z
-x,1/2+y,1/2+z
x,-y,1/2+z
1/2+x,1/2+y,z
1/2-x,-y,z
1/2+x,-y,1/2-z
1/2-x,1/2+y,1/2-z
1/2-x,1/2-y,-z
1/2+x,y,-z
1/2-x,y,1/2+z
1/2+x,1/2-y,1/2+z
loop_
_atom_site_type_symbol
_atom_site_label
_atom_site_fract_x
_atom_site_fract_y
_atom_site_fract_z
Si Si1 0.215064 0.309118 0.813727
Si Si2 0.105508 0.000427 0.714767
Si Si3 0.585109 0.605040 0.525736
Si Si4 0.756167 0.421062 0.319042
Si Si5 0.450114 0.188550 0.615693
O O1 0.180471 0.250000 0.750000
O O2 0.140124 0.340520 0.907343
O O3 0.223831 0.355956 0.705893
O O4 0.328928 0.303002 0.869456
O O5 0.078332 0.050014 0.616845
O O6 0.158733 0.037130 0.824975
O O7 0.000000 0.972066 0.750000
O O8 0.186634 0.948209 0.698353
O O9 0.662059 0.581737 0.423608
O O10 0.484713 0.633854 0.467047
O O11 0.500000 0.250000 0.572248
O O12 0.500000 0.179062 0.750000
#
# Coordination Sequence:
#
# PCOD9509282 Si02
#       5
#    16  16  16  16  16
#     4  11  23  43  70 101 140 172 233 290 343 427
#     4  10  25  44  64 101 135 176 236 293 339 416
#     4  11  25  43  71  99 137 194 221 293 369 401
#     4  10  23  43  66  96 139 175 232 283 348 425
#     4  11  21  41  67 104 136 180 235 279 345 433
#
# _framework density 24.265509000000002
#
# number of rings (size 3 to 8) (size 9 to 14) (size 15 to 20)
#    0.000    1.400    4.000    0.000    5.600   10.400 
#    3.600    0.000    0.000    0.000    0.000    0.000 
#    0.000    0.000    0.000    0.000    0.000    0.000 
#
# Total GULP energy -223523.364383 kJ/mol
# GULP energy per Si atom -5588.084110 kJ/mol
# Density = 2.421028 g / cm^3
# Si number density = 24.265509 Si / 1000 Ang^3
#
#
#
# Elastic Constant Matrix: (Units=GPa)
#
#
# Indices 1 2 3 4 5 6 
#
# 1 53.5839 -6.6450 7.8114 0.0000 0.0000 0.0000
# 2 -6.6450 141.4784 29.2659 0.0000 0.0000 0.0000
# 3 7.8114 29.2659 51.7819 0.0000 0.0000 0.0000
# 4 0.0000 0.0000 0.0000 30.9733 0.0000 0.0000
# 5 0.0000 0.0000 0.0000 0.0000 13.6830 0.0000
# 6 0.0000 0.0000 0.0000 0.0000 0.0000 30.4918
#
#
#
# Elastic Compliance Matrix: (Units=1/GPa)
#
#
# Indices 1 2 3 4 5 6 
#
# 1 0.019445 0.001721 -0.003906 0.000000 0.000000 0.000000
# 2 0.001721 0.008156 -0.004869 0.000000 0.000000 0.000000
# 3 -0.003906 -0.004869 0.022653 0.000000 0.000000 0.000000
# 4 0.000000 0.000000 0.000000 0.032286 0.000000 0.000000
# 5 0.000000 0.000000 0.000000 0.000000 0.073083 0.000000
# 6 0.000000 0.000000 0.000000 0.000000 0.000000 0.032796
#
#
# Mechanical properties :
#
#
# Convention : Reuss Voigt Hill
#
# Bulk Modulus (GPa) = 27.66552 34.18987 30.92769
# Shear Modulus (GPa) = 23.30167 29.45708 26.37938
#
# Velocity S-wave (km/s) = 3.10220 3.48796 3.30072
# Velocity P-wave (km/s) = 4.92518 5.50832 5.22490
#
# Compressibility (1/GPa) = 0.03614607
#
# Stress axis : x y z
#
# Youngs Moduli (GPa) = 51.42651 122.60402 44.14410
#
# Poissons Ratio (x) = -0.21104 0.17244
# Poissons Ratio (y) = -0.08852 0.21496
# Poissons Ratio (z) = 0.20088 0.59701
#
# Static dielectric constant tensor:
#      x y z
#    x 1.924520 0.000000 0.000000 
#    y 0.000000 1.926210 0.000000 
#    z 0.000000 0.000000 2.002270 
# 
# From -- ./inp_files/13203.got.cif
#   From: 2010.05.17/outbox.cif.g08.bks.cpg/sg68_7_cif.got.tgz:13203.got - 2010.06.03 18:57:09.
