data_PCOD9509167
_publ_section_title
;
Structure prediction by ZEFSAII (Michael W. Deem and Ramdas Pophale) SiO2 
 PCOD9509167
Probable space group: C C C A
;
_chemical_formula_sum "Si O2"
_cell_formula_units_Z 80
_cell_length_a 10.667442
_cell_length_b 10.433087
_cell_length_c 33.185950
_cell_angle_alpha 90.000000
_cell_angle_beta 90.000000
_cell_angle_gamma 90.000000
_cell_volume 3693.408749
_symmetry_space_group_name_H-M "C C C A"
_symmetry_group_IT_number 68
_space_group.IT_coordinate_system_code '2'
_symmetry_cell_setting 'orthorhombic'
loop_
_space_group_symop_operation_xyz
x,y,z
-x,1/2-y,z
x,1/2-y,1/2-z
-x,y,1/2-z
-x,-y,-z
x,1/2+y,-z
-x,1/2+y,1/2+z
x,-y,1/2+z
1/2+x,1/2+y,z
1/2-x,-y,z
1/2+x,-y,1/2-z
1/2-x,1/2+y,1/2-z
1/2-x,1/2-y,-z
1/2+x,y,-z
1/2-x,y,1/2+z
1/2+x,1/2-y,1/2+z
loop_
_atom_site_type_symbol
_atom_site_label
_atom_site_fract_x
_atom_site_fract_y
_atom_site_fract_z
Si Si1 0.876498 0.581233 0.615710
Si Si2 0.386299 0.000906 0.777473
Si Si3 0.500000 0.250000 0.678166
Si Si4 0.250000 0.500000 0.578358
Si Si5 0.917550 0.124090 0.640630
Si Si6 0.486224 0.609981 0.032844
O O1 0.750000 0.500000 0.618125
O O2 0.892315 0.696593 0.647620
O O3 0.987533 0.489874 0.630510
O O4 0.912715 0.612463 0.569552
O O5 0.500000 0.952882 0.750000
O O6 0.437234 0.138016 0.794690
O O7 0.250000 0.000000 0.756307
O O8 0.366837 0.906075 0.815215
O O9 0.187521 0.392805 0.606962
O O10 0.353302 0.425252 0.552723
O O11 0.000000 0.250000 0.638517
O O12 0.500000 0.750000 0.013532
O O13 0.500000 0.500000 0.000000
#
# Coordination Sequence:
#
# PCOD9509167 Si02
#       6
#    16  16   8   8  16  16
#     4  10  23  40  72 102 127 175 240 282 347 425
#     4  11  25  46  69 101 146 188 230 294 365 424
#     4  10  23  48  70  96 134 184 230 292 344 416
#     4  10  24  48  70 100 142 182 242 300 346 428
#     4  10  23  41  71 103 131 180 233 293 346 418
#     4  11  26  45  68 102 144 193 230 295 372 426
#
# _framework density 21.660208000000001
#
# number of rings (size 3 to 8) (size 9 to 14) (size 15 to 20)
#    0.000    1.600    2.000    0.300    7.000    7.600 
#    3.600    0.000    0.000    0.000    0.000    0.000 
#    0.000    0.000    0.000    0.000    0.000    0.000 
#
# Total GULP energy -223427.873766 kJ/mol
# GULP energy per Si atom -5585.696844 kJ/mol
# Density = 2.161091 g / cm^3
# Si number density = 21.660208 Si / 1000 Ang^3
#
#
#
# Elastic Constant Matrix: (Units=GPa)
#
#
# Indices 1 2 3 4 5 6 
#
# 1 137.9443 16.2924 41.2104 0.0000 0.0000 0.0000
# 2 16.2924 101.8615 29.6292 0.0000 0.0000 0.0000
# 3 41.2104 29.6292 72.6607 0.0000 0.0000 0.0000
# 4 0.0000 0.0000 0.0000 -2.9116 0.0000 0.0000
# 5 0.0000 0.0000 0.0000 0.0000 29.0963 0.0000
# 6 0.0000 0.0000 0.0000 0.0000 0.0000 32.4534
#
#
#
# Elastic Compliance Matrix: (Units=1/GPa)
#
#
# Indices 1 2 3 4 5 6 
#
# 1 0.008728 0.000050 -0.004971 0.000000 0.000000 0.000000
# 2 0.000050 0.011139 -0.004570 0.000000 0.000000 0.000000
# 3 -0.004971 -0.004570 0.018445 0.000000 0.000000 0.000000
# 4 0.000000 0.000000 0.000000 -0.343459 0.000000 0.000000
# 5 0.000000 0.000000 0.000000 0.000000 0.034369 0.000000
# 6 0.000000 0.000000 0.000000 0.000000 0.000000 0.030813
#
#
# Mechanical properties :
#
#
# Convention : Reuss Voigt Hill
#
# Bulk Modulus (GPa) = 51.73289 54.08117 52.90703
# Shear Modulus (GPa) = -23.30579 26.74993 1.72207
#
# Velocity S-wave (km/s) = -3.28376 3.51804 0.89262
# Velocity P-wave (km/s) = 3.09164 6.44394 5.05384
#
# Compressibility (1/GPa) = 0.01933006
#
# Stress axis : x y z
#
# Youngs Moduli (GPa) = 114.56846 89.77720 54.21387
#
# Poissons Ratio (x) = -0.00447 0.26948
# Poissons Ratio (y) = -0.00570 0.24777
# Poissons Ratio (z) = 0.56949 0.41031
#
# Static dielectric constant tensor:
#      x y z
#    x 0.849840 0.000000 0.000000 
#    y 0.000000 1.885960 0.000000 
#    z 0.000000 0.000000 1.829010 
# 
# From -- ./inp_files/54551.got.cif
#   From: 2010.05.17/outbox.cif.g08.bks.cpg/sg68_28_cif.got.tgz:54551.got - 2010.06.03 18:57:09.
