data_PCOD9509253
_publ_section_title
;
Structure prediction by ZEFSAII (Michael W. Deem and Ramdas Pophale) SiO2 
 PCOD9509253
Probable space group: C C C A
;
_chemical_formula_sum "Si O2"
_cell_formula_units_Z 88
_cell_length_a 13.290106
_cell_length_b 13.168077
_cell_length_c 24.627885
_cell_angle_alpha 90.000000
_cell_angle_beta 90.000000
_cell_angle_gamma 90.000000
_cell_volume 4310.006441
_symmetry_space_group_name_H-M "C C C A"
_symmetry_group_IT_number 68
_space_group.IT_coordinate_system_code '2'
_symmetry_cell_setting 'orthorhombic'
loop_
_space_group_symop_operation_xyz
x,y,z
-x,1/2-y,z
x,1/2-y,1/2-z
-x,y,1/2-z
-x,-y,-z
x,1/2+y,-z
-x,1/2+y,1/2+z
x,-y,1/2+z
1/2+x,1/2+y,z
1/2-x,-y,z
1/2+x,-y,1/2-z
1/2-x,1/2+y,1/2-z
1/2-x,1/2-y,-z
1/2+x,y,-z
1/2-x,y,1/2+z
1/2+x,1/2-y,1/2+z
loop_
_atom_site_type_symbol
_atom_site_label
_atom_site_fract_x
_atom_site_fract_y
_atom_site_fract_z
Si Si1 0.109209 0.396444 0.447946
Si Si2 0.500000 0.000105 0.250000
Si Si3 0.195767 0.868189 0.239870
Si Si4 0.382971 0.673023 0.078997
Si Si5 0.250000 0.500000 0.035983
Si Si6 0.750000 0.500000 0.139452
Si Si7 0.107439 0.334701 0.202297
O O1 0.142867 0.278190 0.450968
O O2 0.158944 0.454648 0.499026
O O3 0.158982 0.460195 0.398317
O O4 0.988814 0.378492 0.440286
O O5 0.519184 0.918536 0.202433
O O6 0.404338 0.069870 0.249360
O O7 0.175109 0.750000 0.250000
O O8 0.289127 0.888998 0.279956
O O9 0.226916 0.905543 0.179743
O O10 0.297143 0.590175 0.070923
O O11 0.389278 0.705996 0.141998
O O12 0.099229 0.250000 0.250000
#
# Coordination Sequence:
#
# PCOD9509253 Si02
#       7
#    16   8  16  16   8   8  16
#     4  10  23  42  69  90 122 167 217 266 327 377
#     4  12  22  36  60  86 132 160 218 256 318 358
#     4  11  23  38  57  87 129 170 208 262 321 383
#     4  11  24  41  66  99 126 165 213 268 322 377
#     4  11  24  43  68  94 130 159 212 271 332 376
#     4  11  20  43  62  86 122 177 212 263 318 384
#     4  11  24  39  63  96 131 170 219 261 307 385
#
# _framework density 20.417603
#
# number of rings (size 3 to 8) (size 9 to 14) (size 15 to 20)
#    0.000    1.091    1.818    4.909    7.636    0.000 
#    0.000    0.000    0.000    0.000    0.000    0.000 
#    0.000    0.000    0.000    0.000    0.000    0.000 
#
# Total GULP energy -245203.027084 kJ/mol
# GULP energy per Si atom -5572.796070 kJ/mol
# Density = 2.037113 g / cm^3
# Si number density = 20.417603 Si / 1000 Ang^3
#
#
#
# Elastic Constant Matrix: (Units=GPa)
#
#
# Indices 1 2 3 4 5 6 
#
# 1 96.1910 43.7699 15.5728 0.0000 0.0000 0.0000
# 2 43.7699 130.8060 35.9337 0.0000 0.0000 0.0000
# 3 15.5728 35.9337 69.0088 0.0000 0.0000 0.0000
# 4 0.0000 0.0000 0.0000 31.6268 0.0000 0.0000
# 5 0.0000 0.0000 0.0000 0.0000 -13.4719 0.0000
# 6 0.0000 0.0000 0.0000 0.0000 0.0000 58.6430
#
#
#
# Elastic Compliance Matrix: (Units=1/GPa)
#
#
# Indices 1 2 3 4 5 6 
#
# 1 0.012295 -0.003912 -0.000738 0.000000 0.000000 0.000000
# 2 -0.003912 0.010165 -0.004411 0.000000 0.000000 0.000000
# 3 -0.000738 -0.004411 0.016954 0.000000 0.000000 0.000000
# 4 0.000000 0.000000 0.000000 0.031619 0.000000 0.000000
# 5 0.000000 0.000000 0.000000 0.000000 -0.074229 0.000000
# 6 0.000000 0.000000 0.000000 0.000000 0.000000 0.017052
#
#
# Mechanical properties :
#
#
# Convention : Reuss Voigt Hill
#
# Bulk Modulus (GPa) = 46.95957 54.06207 50.51082
# Shear Modulus (GPa) = 127.95809 28.74154 78.34982
#
# Velocity S-wave (km/s) = 7.92506 3.75598 6.20137
# Velocity P-wave (km/s) = 10.33400 6.73391 8.72173
#
# Compressibility (1/GPa) = 0.02129491
#
# Stress axis : x y z
#
# Youngs Moduli (GPa) = 81.33193 98.37304 58.98301
#
# Poissons Ratio (x) = 0.38479 0.04352
# Poissons Ratio (y) = 0.31813 0.26015
# Poissons Ratio (z) = 0.06001 0.43388
#
# Static dielectric constant tensor:
#      x y z
#    x 1.793470 0.000000 0.000000 
#    y 0.000000 1.732010 0.000000 
#    z 0.000000 0.000000 1.745490 
# 
# From -- ./inp_files/50896.got.cif
#   From: 2010.05.17/outbox.cif.g08.bks.cpg/sg68_26_cif.got.tgz:50896.got - 2010.06.03 18:57:09.
