data_PCOD9509553
_publ_section_title
;
Structure prediction by ZEFSAII (Michael W. Deem and Ramdas Pophale) SiO2 
 PCOD9509553
Probable space group: C C C A
;
_chemical_formula_sum "Si O2"
_cell_formula_units_Z 72
_cell_length_a 13.932927
_cell_length_b 25.906317
_cell_length_c 7.783795
_cell_angle_alpha 90.000000
_cell_angle_beta 90.000000
_cell_angle_gamma 90.000000
_cell_volume 2809.567216
_symmetry_space_group_name_H-M "C C C A"
_symmetry_group_IT_number 68
_space_group.IT_coordinate_system_code '2'
_symmetry_cell_setting 'orthorhombic'
loop_
_space_group_symop_operation_xyz
x,y,z
-x,1/2-y,z
x,1/2-y,1/2-z
-x,y,1/2-z
-x,-y,-z
x,1/2+y,-z
-x,1/2+y,1/2+z
x,-y,1/2+z
1/2+x,1/2+y,z
1/2-x,-y,z
1/2+x,-y,1/2-z
1/2-x,1/2+y,1/2-z
1/2-x,1/2-y,-z
1/2+x,y,-z
1/2-x,y,1/2+z
1/2+x,1/2-y,1/2+z
loop_
_atom_site_type_symbol
_atom_site_label
_atom_site_fract_x
_atom_site_fract_y
_atom_site_fract_z
Si Si1 0.345373 0.250000 0.250000
Si Si2 0.000000 0.750000 0.969985
Si Si3 0.907324 0.921995 0.526484
Si Si4 0.216839 0.637448 0.238502
Si Si5 0.906237 0.356957 0.104231
Si Si6 0.500000 0.999164 0.750000
O O1 0.417140 0.269371 0.400245
O O2 0.281057 0.300164 0.233748
O O3 0.938634 0.796602 0.884521
O O4 0.831083 0.891375 0.401616
O O5 0.993322 0.883641 0.575759
O O6 0.911906 0.964726 0.682639
O O7 0.954081 0.961456 0.387443
O O8 0.330898 0.625535 0.247438
O O9 0.152543 0.629367 0.070015
#
# Coordination Sequence:
#
# PCOD9509553 Si02
#       6
#     8   8  16  16  16   8
#     4   9  18  38  64  93 128 180 215 260 328 411
#     4   9  18  36  66  91 128 183 214 259 328 411
#     4  11  22  48  68 101 133 185 229 289 351 414
#     4  11  23  40  70  99 138 175 230 275 344 411
#     4  11  23  42  69 100 138 181 223 282 339 419
#     4  10  24  42  78  92 134 182 240 286 356 412
#
# _framework density 25.626722000000001
#
# number of rings (size 3 to 8) (size 9 to 14) (size 15 to 20)
#    0.000    1.556    4.444    0.000    3.111    3.556 
#    0.000    6.667    0.000    0.000    0.000    0.000 
#    0.000    0.000    0.000    0.000    0.000    0.000 
#
# Total GULP energy -200414.993892 kJ/mol
# GULP energy per Si atom -5567.083164 kJ/mol
# Density = 2.556839 g / cm^3
# Si number density = 25.626722 Si / 1000 Ang^3
#
#
#
# Elastic Constant Matrix: (Units=GPa)
#
#
# Indices 1 2 3 4 5 6 
#
# 1 189.5980 21.0858 19.6200 0.0000 0.0000 0.0000
# 2 21.0858 72.9003 -38.7249 0.0000 0.0000 0.0000
# 3 19.6200 -38.7249 51.5481 0.0000 0.0000 0.0000
# 4 0.0000 0.0000 0.0000 -41.8353 0.0000 0.0000
# 5 0.0000 0.0000 0.0000 0.0000 23.9662 0.0000
# 6 0.0000 0.0000 0.0000 0.0000 0.0000 -106.5365
#
#
#
# Elastic Compliance Matrix: (Units=1/GPa)
#
#
# Indices 1 2 3 4 5 6 
#
# 1 0.006543 -0.005351 -0.006510 0.000000 0.000000 0.000000
# 2 -0.005351 0.027202 0.022472 0.000000 0.000000 0.000000
# 3 -0.006510 0.022472 0.038759 0.000000 0.000000 0.000000
# 4 0.000000 0.000000 0.000000 -0.023903 0.000000 0.000000
# 5 0.000000 0.000000 0.000000 0.000000 0.041725 0.000000
# 6 0.000000 0.000000 0.000000 0.000000 0.000000 -0.009386
#
#
# Mechanical properties :
#
#
# Convention : Reuss Voigt Hill
#
# Bulk Modulus (GPa) = 10.66935 35.33424 23.00179
# Shear Modulus (GPa) = 54.96943 -4.07675 25.44634
#
# Velocity S-wave (km/s) = 4.63644 -1.26265 3.15455
# Velocity P-wave (km/s) = 5.73014 3.41940 4.71841
#
# Compressibility (1/GPa) = 0.09372640
#
# Stress axis : x y z
#
# Youngs Moduli (GPa) = 152.83391 36.76183 25.80053
#
# Poissons Ratio (x) = 0.19670 0.16796
# Poissons Ratio (y) = 0.81776 -0.57979
# Poissons Ratio (z) = 0.99495 -0.82611
#
# Static dielectric constant tensor:
#      x y z
#    x 1.544130 0.000000 0.000000 
#    y 0.000000 2.052520 0.000000 
#    z 0.000000 0.000000 1.264110 
# 
# From -- ./inp_files/5248.got.cif
#   From: 2010.05.17/outbox.cif.g08.bks.cpg/sg68_3_cif.got.tgz:5248.got - 2010.06.03 18:57:09.
