data_PCOD9509910
_publ_section_title
;
Structure prediction by ZEFSAII (Michael W. Deem and Ramdas Pophale) SiO2 
 PCOD9509910
Probable space group: C C C A
;
_chemical_formula_sum "Si O2"
_cell_formula_units_Z 88
_cell_length_a 21.342712
_cell_length_b 21.241737
_cell_length_c 9.385275
_cell_angle_alpha 90.000000
_cell_angle_beta 90.000000
_cell_angle_gamma 90.000000
_cell_volume 4254.873315
_symmetry_space_group_name_H-M "C C C A"
_symmetry_group_IT_number 68
_space_group.IT_coordinate_system_code '2'
_symmetry_cell_setting 'orthorhombic'
loop_
_space_group_symop_operation_xyz
x,y,z
-x,1/2-y,z
x,1/2-y,1/2-z
-x,y,1/2-z
-x,-y,-z
x,1/2+y,-z
-x,1/2+y,1/2+z
x,-y,1/2+z
1/2+x,1/2+y,z
1/2-x,-y,z
1/2+x,-y,1/2-z
1/2-x,1/2+y,1/2-z
1/2-x,1/2-y,-z
1/2+x,y,-z
1/2-x,y,1/2+z
1/2+x,1/2-y,1/2+z
loop_
_atom_site_type_symbol
_atom_site_label
_atom_site_fract_x
_atom_site_fract_y
_atom_site_fract_z
Si Si1 0.500000 0.627837 0.750000
Si Si2 0.899313 0.976144 0.316336
Si Si3 0.683956 0.965261 0.552050
Si Si4 0.730844 0.250000 0.250000
Si Si5 0.819524 0.820924 0.972621
Si Si6 0.463948 0.186298 0.537390
Si Si7 0.500000 0.580232 0.250000
O O1 0.553153 0.582358 0.683551
O O2 0.469680 0.670248 0.628841
O O3 0.868817 0.997006 0.463870
O O4 0.940143 0.034647 0.257108
O O5 0.842454 0.960927 0.211113
O O6 0.689436 0.895489 0.488950
O O7 0.750000 0.000000 0.546691
O O8 0.773946 0.205693 0.350241
O O9 0.693139 0.211096 0.128171
O O10 0.890929 0.808524 0.926950
O O11 0.500000 0.250000 0.572019
O O12 0.494577 0.127126 0.617436
#
# Coordination Sequence:
#
# PCOD9509910 Si02
#       7
#     8  16  16   8  16  16   8
#     4  11  23  44  68  98 137 175 222 284 352 407
#     4  11  23  44  68  98 137 175 222 284 352 407
#     4  12  26  41  69 103 134 180 228 285 342 409
#     4  10  28  50  72  94 136 198 216 294 336 394
#     4  11  26  50  71 102 142 172 247 276 344 415
#     4  12  26  41  69 103 134 180 228 285 342 409
#     4  11  23  44  68  98 137 175 222 284 352 407
#
# _framework density 20.682167
#
# number of rings (size 3 to 8) (size 9 to 14) (size 15 to 20)
#    0.000    0.727    3.636    2.182   10.182    2.909 
#    6.545    0.000    0.000    0.000    0.000    0.000 
#    0.000    0.000    0.000    0.000    0.000    0.000 
#
# Total GULP energy -246096.975921 kJ/mol
# GULP energy per Si atom -5593.113089 kJ/mol
# Density = 2.063509 g / cm^3
# Si number density = 20.682167 Si / 1000 Ang^3
#
#
#
# Elastic Constant Matrix: (Units=GPa)
#
#
# Indices 1 2 3 4 5 6 
#
# 1 96.9197 37.9842 -7.5433 0.0000 0.0000 0.0000
# 2 37.9842 82.5402 -7.6033 0.0000 0.0000 0.0000
# 3 -7.5433 -7.6033 64.6460 0.0000 0.0000 0.0000
# 4 0.0000 0.0000 0.0000 3.5172 0.0000 0.0000
# 5 0.0000 0.0000 0.0000 0.0000 2433.2937 0.0000
# 6 0.0000 0.0000 0.0000 0.0000 0.0000 23.3187
#
#
#
# Elastic Compliance Matrix: (Units=1/GPa)
#
#
# Indices 1 2 3 4 5 6 
#
# 1 0.012629 -0.005738 0.000799 0.000000 0.000000 0.000000
# 2 -0.005738 0.014855 0.001078 0.000000 0.000000 0.000000
# 3 0.000799 0.001078 0.015689 0.000000 0.000000 0.000000
# 4 0.000000 0.000000 0.000000 0.284314 0.000000 0.000000
# 5 0.000000 0.000000 0.000000 0.000000 0.000411 0.000000
# 6 0.000000 0.000000 0.000000 0.000000 0.000000 0.042884
#
#
# Mechanical properties :
#
#
# Convention : Reuss Voigt Hill
#
# Bulk Modulus (GPa) = 28.20925 32.19791 30.20358
# Shear Modulus (GPa) = 12.80994 506.77713 259.79353
#
# Velocity S-wave (km/s) = 2.49142 15.67045 11.21985
# Velocity P-wave (km/s) = 4.68457 18.52077 13.50859
#
# Compressibility (1/GPa) = 0.03544936
#
# Stress axis : x y z
#
# Youngs Moduli (GPa) = 79.18391 67.31653 63.73967
#
# Poissons Ratio (x) = 0.38627 -0.05091
# Poissons Ratio (y) = 0.45436 -0.06869
# Poissons Ratio (z) = -0.06325 -0.07254
#
# Static dielectric constant tensor:
#      x y z
#    x 1.715090 0.000000 0.000000 
#    y 0.000000 1.704930 0.000000 
#    z 0.000000 0.000000 1.743960 
# 
# From -- ./inp_files/7171.got.cif
#   From: 2010.05.17/outbox.cif.g08.bks.cpg/sg68_4_cif.got.tgz:7171.got - 2010.06.03 18:57:09.
