data_PCOD9509395
_publ_section_title
;
Structure prediction by ZEFSAII (Michael W. Deem and Ramdas Pophale) SiO2 
 PCOD9509395
Probable space group: C C C A
;
_chemical_formula_sum "Si O2"
_cell_formula_units_Z 48
_cell_length_a 22.460159
_cell_length_b 7.350198
_cell_length_c 10.794103
_cell_angle_alpha 90.000000
_cell_angle_beta 90.000000
_cell_angle_gamma 90.000000
_cell_volume 1781.961934
_symmetry_space_group_name_H-M "C C C A"
_symmetry_group_IT_number 68
_space_group.IT_coordinate_system_code '2'
_symmetry_cell_setting 'orthorhombic'
loop_
_space_group_symop_operation_xyz
x,y,z
-x,1/2-y,z
x,1/2-y,1/2-z
-x,y,1/2-z
-x,-y,-z
x,1/2+y,-z
-x,1/2+y,1/2+z
x,-y,1/2+z
1/2+x,1/2+y,z
1/2-x,-y,z
1/2+x,-y,1/2-z
1/2-x,1/2+y,1/2-z
1/2-x,1/2-y,-z
1/2+x,y,-z
1/2-x,y,1/2+z
1/2+x,1/2-y,1/2+z
loop_
_atom_site_type_symbol
_atom_site_label
_atom_site_fract_x
_atom_site_fract_y
_atom_site_fract_z
Si Si1 0.612369 0.793436 0.933488
Si Si2 0.559741 0.069754 0.673445
Si Si3 0.190471 0.115436 0.134539
O O1 0.591429 0.879084 0.642832
O O2 0.637565 0.965128 0.858923
O O3 0.561438 0.851926 0.031658
O O4 0.668683 0.733313 0.018206
O O5 0.581513 0.250000 0.750000
O O6 0.500000 0.026083 0.750000
O O7 0.200732 0.250000 0.250000
O O8 0.250000 0.000000 0.117217
#
# Coordination Sequence:
#
# PCOD9509395 Si02
#       3
#    16  16  16
#     4  10  24  50  77 113 162 202 254 327 389 457
#     4  10  23  45  78 113 150 207 265 318 384 458
#     4  11  25  46  79 117 154 204 258 317 393 471
#
# _framework density 26.936603000000002
#
# number of rings (size 3 to 8) (size 9 to 14) (size 15 to 20)
#    0.000    1.667    0.000    2.000    0.000   14.667 
#    0.000   18.333    0.000   19.000    0.000    0.000 
#    0.000    0.000    0.000    0.000    0.000    0.000 
#
# Total GULP energy -134197.087163 kJ/mol
# GULP energy per Si atom -5591.545298 kJ/mol
# Density = 2.687529 g / cm^3
# Si number density = 26.936603 Si / 1000 Ang^3
#
#
#
# Elastic Constant Matrix: (Units=GPa)
#
#
# Indices 1 2 3 4 5 6 
#
# 1 127.0231 73.4677 84.4150 0.0000 0.0000 0.0000
# 2 73.4677 276.3121 128.5656 0.0000 0.0000 0.0000
# 3 84.4150 128.5656 179.1553 0.0000 0.0000 0.0000
# 4 0.0000 0.0000 0.0000 48.9395 0.0000 0.0000
# 5 0.0000 0.0000 0.0000 0.0000 -56.9368 0.0000
# 6 0.0000 0.0000 0.0000 0.0000 0.0000 49.4062
#
#
#
# Elastic Compliance Matrix: (Units=1/GPa)
#
#
# Indices 1 2 3 4 5 6 
#
# 1 0.011581 -0.000811 -0.004875 0.000000 0.000000 0.000000
# 2 -0.000811 0.005490 -0.003558 0.000000 0.000000 0.000000
# 3 -0.004875 -0.003558 0.010432 0.000000 0.000000 0.000000
# 4 0.000000 0.000000 0.000000 0.020433 0.000000 0.000000
# 5 0.000000 0.000000 0.000000 0.000000 -0.017563 0.000000
# 6 0.000000 0.000000 0.000000 0.000000 0.000000 0.020240
#
#
# Mechanical properties :
#
#
# Convention : Reuss Voigt Hill
#
# Bulk Modulus (GPa) = 110.91411 128.37633 119.64522
# Shear Modulus (GPa) = 69.34213 28.01793 48.68003
#
# Velocity S-wave (km/s) = 5.07923 3.22862 4.25574
# Velocity P-wave (km/s) = 8.69848 7.85244 8.28626
#
# Compressibility (1/GPa) = 0.00901599
#
# Stress axis : x y z
#
# Youngs Moduli (GPa) = 86.34542 182.14643 95.86108
#
# Poissons Ratio (x) = 0.14774 0.46731
# Poissons Ratio (y) = 0.07003 0.34104
# Poissons Ratio (z) = 0.42093 0.64801
#
# Static dielectric constant tensor:
#      x y z
#    x 2.238950 0.000000 0.000000 
#    y 0.000000 2.036350 0.000000 
#    z 0.000000 0.000000 2.196160 
# 
# From -- ./inp_files/9272.got.cif
#   From: 2010.05.17/outbox.cif.g08.bks.cpg/sg68_5_cif.got.tgz:9272.got - 2010.06.03 18:57:09.
