data_PCOD9509337
_publ_section_title
;
Structure prediction by ZEFSAII (Michael W. Deem and Ramdas Pophale) SiO2 
 PCOD9509337
Probable space group: C C C A
;
_chemical_formula_sum "Si O2"
_cell_formula_units_Z 64
_cell_length_a 26.130953
_cell_length_b 17.723512
_cell_length_c 5.561874
_cell_angle_alpha 90.000000
_cell_angle_beta 90.000000
_cell_angle_gamma 90.000000
_cell_volume 2575.883270
_symmetry_space_group_name_H-M "C C C A"
_symmetry_group_IT_number 68
_space_group.IT_coordinate_system_code '2'
_symmetry_cell_setting 'orthorhombic'
loop_
_space_group_symop_operation_xyz
x,y,z
-x,1/2-y,z
x,1/2-y,1/2-z
-x,y,1/2-z
-x,-y,-z
x,1/2+y,-z
-x,1/2+y,1/2+z
x,-y,1/2+z
1/2+x,1/2+y,z
1/2-x,-y,z
1/2+x,-y,1/2-z
1/2-x,1/2+y,1/2-z
1/2-x,1/2-y,-z
1/2+x,y,-z
1/2-x,y,1/2+z
1/2+x,1/2-y,1/2+z
loop_
_atom_site_type_symbol
_atom_site_label
_atom_site_fract_x
_atom_site_fract_y
_atom_site_fract_z
Si Si1 0.269551 0.088040 0.474862
Si Si2 0.574841 0.543783 0.497158
Si Si3 0.872605 0.839426 0.206643
Si Si4 0.018299 0.648666 0.999555
O O1 0.326702 0.110071 0.398204
O O2 0.250000 0.000000 0.492240
O O3 0.261046 0.119417 0.743040
O O4 0.584578 0.504998 0.240415
O O5 0.609045 0.618460 0.548470
O O6 0.861912 0.750000 0.250000
O O7 0.983590 0.927102 0.499228
O O8 0.921130 0.848678 0.028608
O O9 0.000000 0.680334 0.750000
O O10 0.000000 0.681320 0.250000
#
# Coordination Sequence:
#
# PCOD9509337 Si02
#       4
#    16  16  16  16
#     4  10  25  49  76 110 141 195 254 328 387 447
#     4  11  25  44  71 107 147 197 250 299 357 451
#     4  11  27  48  77 113 154 202 253 314 389 459
#     4  10  23  44  68 106 153 199 244 299 366 448
#
# _framework density 24.845842999999999
#
# number of rings (size 3 to 8) (size 9 to 14) (size 15 to 20)
#    0.000    1.500    0.000    3.000    7.000   22.500 
#    0.000   26.250    0.000    0.000    0.000    0.000 
#    0.000    0.000    0.000    0.000    0.000    0.000 
#
# Total GULP energy -178354.574597 kJ/mol
# GULP energy per Si atom -5573.580456 kJ/mol
# Density = 2.478929 g / cm^3
# Si number density = 24.845843 Si / 1000 Ang^3
#
#
#
# Elastic Constant Matrix: (Units=GPa)
#
#
# Indices 1 2 3 4 5 6 
#
# 1 117.5976 28.0130 -7.8673 0.0000 0.0000 0.0000
# 2 28.0130 163.1964 34.9584 0.0000 0.0000 0.0000
# 3 -7.8673 34.9584 192.0621 0.0000 0.0000 0.0000
# 4 0.0000 0.0000 0.0000 86.7713 0.0000 0.0000
# 5 0.0000 0.0000 0.0000 0.0000 12.4967 0.0000
# 6 0.0000 0.0000 0.0000 0.0000 0.0000 102.7579
#
#
#
# Elastic Compliance Matrix: (Units=1/GPa)
#
#
# Indices 1 2 3 4 5 6 
#
# 1 0.008949 -0.001680 0.000672 0.000000 0.000000 0.000000
# 2 -0.001680 0.006692 -0.001287 0.000000 0.000000 0.000000
# 3 0.000672 -0.001287 0.005468 0.000000 0.000000 0.000000
# 4 0.000000 0.000000 0.000000 0.011525 0.000000 0.000000
# 5 0.000000 0.000000 0.000000 0.000000 0.080021 0.000000
# 6 0.000000 0.000000 0.000000 0.000000 0.000000 0.009732
#
#
# Mechanical properties :
#
#
# Convention : Reuss Voigt Hill
#
# Bulk Modulus (GPa) = 60.53368 64.78493 62.65930
# Shear Modulus (GPa) = 37.74111 68.25531 52.99821
#
# Velocity S-wave (km/s) = 3.90168 5.24701 4.62354
# Velocity P-wave (km/s) = 6.68686 7.92714 7.33327
#
# Compressibility (1/GPa) = 0.01651973
#
# Stress axis : x y z
#
# Youngs Moduli (GPa) = 111.74716 149.44050 182.86853
#
# Poissons Ratio (x) = 0.25108 -0.12296
# Poissons Ratio (y) = 0.18775 0.23532
# Poissons Ratio (z) = -0.07514 0.19230
#
# Static dielectric constant tensor:
#      x y z
#    x 2.010860 0.000000 0.000000 
#    y 0.000000 2.041480 0.000000 
#    z 0.000000 0.000000 2.038620 
# 
# From -- ./inp_files/2259.got.cif
#   From: 2010.05.17/outbox.cif.g08.bks.cpg/sg68_2_cif.got.tgz:2259.got - 2010.06.03 18:57:09.
