data_PCOD9509114
_publ_section_title
;
Structure prediction by ZEFSAII (Michael W. Deem and Ramdas Pophale) SiO2 
 PCOD9509114
Probable space group: C C C A
;
_chemical_formula_sum "Si O2"
_cell_formula_units_Z 56
_cell_length_a 4.937859
_cell_length_b 13.452164
_cell_length_c 33.449462
_cell_angle_alpha 90.000000
_cell_angle_beta 90.000000
_cell_angle_gamma 90.000000
_cell_volume 2221.876803
_symmetry_space_group_name_H-M "C C C A"
_symmetry_group_IT_number 68
_space_group.IT_coordinate_system_code '2'
_symmetry_cell_setting 'orthorhombic'
loop_
_space_group_symop_operation_xyz
x,y,z
-x,1/2-y,z
x,1/2-y,1/2-z
-x,y,1/2-z
-x,-y,-z
x,1/2+y,-z
-x,1/2+y,1/2+z
x,-y,1/2+z
1/2+x,1/2+y,z
1/2-x,-y,z
1/2+x,-y,1/2-z
1/2-x,1/2+y,1/2-z
1/2-x,1/2-y,-z
1/2+x,y,-z
1/2-x,y,1/2+z
1/2+x,1/2-y,1/2+z
loop_
_atom_site_type_symbol
_atom_site_label
_atom_site_fract_x
_atom_site_fract_y
_atom_site_fract_z
Si Si1 0.451479 0.631056 0.205821
Si Si2 0.750000 0.500000 0.910407
Si Si3 0.546166 0.134923 0.973262
Si Si4 0.953866 0.367672 0.653712
O O1 0.500000 0.750000 0.208916
O O2 0.500000 0.589577 0.250000
O O3 0.149473 0.611285 0.191391
O O4 0.655682 0.606197 0.169554
O O5 0.557746 0.433004 0.937973
O O6 0.935204 0.429168 0.883233
O O7 0.500000 0.250000 0.961981
O O8 0.850283 0.118395 0.988303
O O9 0.000000 0.250000 0.645138
#
# Coordination Sequence:
#
# PCOD9509114 Si02
#       4
#    16   8  16  16
#     4   9  18  38  65  91 129 181 231 280 333 394
#     4  12  26  44  72 104 144 182 218 284 356 412
#     4  10  24  46  72 101 133 178 231 277 332 410
#     4  10  23  39  62 100 136 174 227 281 341 404
#
# _framework density 25.203918999999999
#
# number of rings (size 3 to 8) (size 9 to 14) (size 15 to 20)
#    0.000    2.000    0.000    1.714    0.000   16.000 
#    0.000    2.857    0.000    0.000    0.000    0.000 
#    0.000    0.000    0.000    0.000    0.000    0.000 
#
# Total GULP energy -157134.950932 kJ/mol
# GULP energy per Si atom -5611.962533 kJ/mol
# Density = 2.514655 g / cm^3
# Si number density = 25.203919 Si / 1000 Ang^3
#
#
#
# Elastic Constant Matrix: (Units=GPa)
#
#
# Indices 1 2 3 4 5 6 
#
# 1 88.8777 14.1097 9.8641 0.0000 0.0000 0.0000
# 2 14.1097 135.9163 80.6727 0.0000 0.0000 0.0000
# 3 9.8641 80.6727 128.4238 0.0000 0.0000 0.0000
# 4 0.0000 0.0000 0.0000 -62.6005 0.0000 0.0000
# 5 0.0000 0.0000 0.0000 0.0000 38.3524 0.0000
# 6 0.0000 0.0000 0.0000 0.0000 0.0000 36.3972
#
#
#
# Elastic Compliance Matrix: (Units=1/GPa)
#
#
# Indices 1 2 3 4 5 6 
#
# 1 0.011444 -0.001062 -0.000212 0.000000 0.000000 0.000000
# 2 -0.001062 0.011830 -0.007350 0.000000 0.000000 0.000000
# 3 -0.000212 -0.007350 0.012420 0.000000 0.000000 0.000000
# 4 0.000000 0.000000 0.000000 -0.015974 0.000000 0.000000
# 5 0.000000 0.000000 0.000000 0.000000 0.026074 0.000000
# 6 0.000000 0.000000 0.000000 0.000000 0.000000 0.027475
#
#
# Mechanical properties :
#
#
# Convention : Reuss Voigt Hill
#
# Bulk Modulus (GPa) = 54.21206 62.50119 58.35662
# Shear Modulus (GPa) = 51.72524 19.00122 35.36323
#
# Velocity S-wave (km/s) = 4.53511 2.74870 3.74984
# Velocity P-wave (km/s) = 6.99851 5.90981 6.47707
#
# Compressibility (1/GPa) = 0.01844608
#
# Stress axis : x y z
#
# Youngs Moduli (GPa) = 87.38538 84.52896 80.51531
#
# Poissons Ratio (x) = 0.08980 0.01704
# Poissons Ratio (y) = 0.09284 0.59178
# Poissons Ratio (z) = 0.01849 0.62128
#
# Static dielectric constant tensor:
#      x y z
#    x 1.933240 0.000000 0.000000 
#    y 0.000000 2.065990 0.000000 
#    z 0.000000 0.000000 1.903100 
# 
# From -- ./inp_files/52778.got.cif
#   From: 2010.05.17/outbox.cif.g08.bks.cpg/sg68_27_cif.got.tgz:52778.got - 2010.06.03 18:57:09.
