data_PCOD9509542
_publ_section_title
;
Structure prediction by ZEFSAII (Michael W. Deem and Ramdas Pophale) SiO2 
 PCOD9509542
Probable space group: C C C A
;
_chemical_formula_sum "Si O2"
_cell_formula_units_Z 56
_cell_length_a 21.324932
_cell_length_b 12.842527
_cell_length_c 9.105731
_cell_angle_alpha 90.000000
_cell_angle_beta 90.000000
_cell_angle_gamma 90.000000
_cell_volume 2493.750262
_symmetry_space_group_name_H-M "C C C A"
_symmetry_group_IT_number 68
_space_group.IT_coordinate_system_code '2'
_symmetry_cell_setting 'orthorhombic'
loop_
_space_group_symop_operation_xyz
x,y,z
-x,1/2-y,z
x,1/2-y,1/2-z
-x,y,1/2-z
-x,-y,-z
x,1/2+y,-z
-x,1/2+y,1/2+z
x,-y,1/2+z
1/2+x,1/2+y,z
1/2-x,-y,z
1/2+x,-y,1/2-z
1/2-x,1/2+y,1/2-z
1/2-x,1/2-y,-z
1/2+x,y,-z
1/2-x,y,1/2+z
1/2+x,1/2-y,1/2+z
loop_
_atom_site_type_symbol
_atom_site_label
_atom_site_fract_x
_atom_site_fract_y
_atom_site_fract_z
Si Si1 0.044151 0.851205 0.865472
Si Si2 0.072315 0.633046 0.299379
Si Si3 0.838802 0.060938 0.237751
Si Si4 0.250000 0.000000 0.010692
O O1 0.108399 0.852834 0.775349
O O2 0.000000 0.750000 0.893980
O O3 0.000000 0.913158 0.750000
O O4 0.065649 0.886834 0.025532
O O5 0.093329 0.750000 0.250000
O O6 0.121367 0.548108 0.237355
O O7 0.000000 0.628240 0.250000
O O8 0.796221 0.062800 0.382106
O O9 0.793142 0.066108 0.098420
#
# Coordination Sequence:
#
# PCOD9509542 Si02
#       4
#    16  16  16   8
#     4  11  24  42  68 105 140 177 234 303 358 423
#     4  11  23  42  67 103 144 182 234 305 364 419
#     4  11  23  43  71  97 138 189 239 286 355 423
#     4  10  24  42  70  98 136 192 240 282 346 432
#
# _framework density 22.456136000000001
#
# number of rings (size 3 to 8) (size 9 to 14) (size 15 to 20)
#    0.000    1.143    5.714    0.857    4.000    2.286 
#    0.000    1.429   25.143    0.000    0.000    0.000 
#    0.000    0.000    0.000    0.000    0.000    0.000 
#
# Total GULP energy -155942.583947 kJ/mol
# GULP energy per Si atom -5569.377998 kJ/mol
# Density = 2.240502 g / cm^3
# Si number density = 22.456136 Si / 1000 Ang^3
#
#
#
# Elastic Constant Matrix: (Units=GPa)
#
#
# Indices 1 2 3 4 5 6 
#
# 1 169.9007 46.0379 48.3094 0.0000 0.0000 0.0000
# 2 46.0379 123.5548 22.9213 0.0000 0.0000 0.0000
# 3 48.3094 22.9213 135.5556 0.0000 0.0000 0.0000
# 4 0.0000 0.0000 0.0000 11.5907 0.0000 0.0000
# 5 0.0000 0.0000 0.0000 0.0000 47.8333 0.0000
# 6 0.0000 0.0000 0.0000 0.0000 0.0000 -63.0289
#
#
#
# Elastic Compliance Matrix: (Units=1/GPa)
#
#
# Indices 1 2 3 4 5 6 
#
# 1 0.007107 -0.002249 -0.002153 0.000000 0.000000 0.000000
# 2 -0.002249 0.009067 -0.000732 0.000000 0.000000 0.000000
# 3 -0.002153 -0.000732 0.008268 0.000000 0.000000 0.000000
# 4 0.000000 0.000000 0.000000 0.086276 0.000000 0.000000
# 5 0.000000 0.000000 0.000000 0.000000 0.020906 0.000000
# 6 0.000000 0.000000 0.000000 0.000000 0.000000 -0.015866
#
#
# Mechanical properties :
#
#
# Convention : Reuss Voigt Hill
#
# Bulk Modulus (GPa) = 70.54199 73.72762 72.13480
# Shear Modulus (GPa) = 38.24077 20.06184 29.15131
#
# Velocity S-wave (km/s) = 4.13111 2.99219 3.60689
# Velocity P-wave (km/s) = 7.36452 6.69632 7.03835
#
# Compressibility (1/GPa) = 0.01417595
#
# Stress axis : x y z
#
# Youngs Moduli (GPa) = 140.70148 110.28654 120.94926
#
# Poissons Ratio (x) = 0.24802 0.26036
# Poissons Ratio (y) = 0.31642 0.08850
# Poissons Ratio (z) = 0.30288 0.08070
#
# Static dielectric constant tensor:
#      x y z
#    x 1.824600 0.000000 0.000000 
#    y 0.000000 1.902680 0.000000 
#    z 0.000000 0.000000 1.899260 
# 
# From -- ./inp_files/6643.got.cif
#   From: 2010.05.17/outbox.cif.g08.bks.cpg/sg68_4_cif.got.tgz:6643.got - 2010.06.03 18:57:09.
