data_PCOD9509736
_publ_section_title
;
Structure prediction by ZEFSAII (Michael W. Deem and Ramdas Pophale) SiO2 
 PCOD9509736
Probable space group: C C C A
;
_chemical_formula_sum "Si O2"
_cell_formula_units_Z 60
_cell_length_a 5.739894
_cell_length_b 17.614528
_cell_length_c 22.769100
_cell_angle_alpha 90.000000
_cell_angle_beta 90.000000
_cell_angle_gamma 90.000000
_cell_volume 2302.081777
_symmetry_space_group_name_H-M "C C C A"
_symmetry_group_IT_number 68
_space_group.IT_coordinate_system_code '2'
_symmetry_cell_setting 'orthorhombic'
loop_
_space_group_symop_operation_xyz
x,y,z
-x,1/2-y,z
x,1/2-y,1/2-z
-x,y,1/2-z
-x,-y,-z
x,1/2+y,-z
-x,1/2+y,1/2+z
x,-y,1/2+z
1/2+x,1/2+y,z
1/2-x,-y,z
1/2+x,-y,1/2-z
1/2-x,1/2+y,1/2-z
1/2-x,1/2-y,-z
1/2+x,y,-z
1/2-x,y,1/2+z
1/2+x,1/2-y,1/2+z
loop_
_atom_site_type_symbol
_atom_site_label
_atom_site_fract_x
_atom_site_fract_y
_atom_site_fract_z
Si Si1 0.000000 0.250000 0.941809
Si Si2 0.500000 0.750000 0.250000
Si Si3 0.141836 0.178540 0.362712
Si Si4 0.011136 0.512176 0.854545
Si Si5 0.101832 0.089732 0.529456
O O1 0.877041 0.308356 0.896176
O O2 0.125278 0.317414 0.976828
O O3 0.649768 0.697147 0.293312
O O4 0.012711 0.100247 0.372933
O O5 0.000000 0.250000 0.386935
O O6 0.750000 0.500000 0.829537
O O7 0.052517 0.453422 0.908319
O O8 0.250000 0.500000 0.818082
O O9 0.860360 0.069237 0.495317
#
# Coordination Sequence:
#
# PCOD9509736 Si02
#       5
#     8   4  16  16  16
#     4  12  24  45  75 102 150 202 239 315 370 438
#     4   8  24  46  82 108 138 178 246 310 356 474
#     4  10  24  48  74 106 143 189 240 302 385 443
#     4  12  25  47  72 106 149 199 237 309 375 427
#     4  12  28  46  69 107 149 200 261 301 353 433
#
# _framework density 26.063364
#
# number of rings (size 3 to 8) (size 9 to 14) (size 15 to 20)
#    0.800    0.000    2.667    4.000    3.733    3.733 
#    0.000    1.333    0.000    0.000    0.000    0.000 
#    0.000    0.000    0.000    0.000    0.000    0.000 
#
# Total GULP energy -167127.808504 kJ/mol
# GULP energy per Si atom -5570.926950 kJ/mol
# Density = 2.600404 g / cm^3
# Si number density = 26.063364 Si / 1000 Ang^3
#
#
#
# Elastic Constant Matrix: (Units=GPa)
#
#
# Indices 1 2 3 4 5 6 
#
# 1 194.0005 60.4877 22.1924 0.0000 0.0000 0.0000
# 2 60.4877 225.5202 8.9403 0.0000 0.0000 0.0000
# 3 22.1924 8.9403 83.7494 0.0000 0.0000 0.0000
# 4 0.0000 0.0000 0.0000 -43.1735 0.0000 0.0000
# 5 0.0000 0.0000 0.0000 0.0000 -11.0437 0.0000
# 6 0.0000 0.0000 0.0000 0.0000 0.0000 54.7525
#
#
#
# Elastic Compliance Matrix: (Units=1/GPa)
#
#
# Indices 1 2 3 4 5 6 
#
# 1 0.005778 -0.001495 -0.001371 0.000000 0.000000 0.000000
# 2 -0.001495 0.004840 -0.000120 0.000000 0.000000 0.000000
# 3 -0.001371 -0.000120 0.012317 0.000000 0.000000 0.000000
# 4 0.000000 0.000000 0.000000 -0.023162 0.000000 0.000000
# 5 0.000000 0.000000 0.000000 0.000000 -0.090549 0.000000
# 6 0.000000 0.000000 0.000000 0.000000 0.000000 0.018264
#
#
# Mechanical properties :
#
#
# Convention : Reuss Voigt Hill
#
# Bulk Modulus (GPa) = 58.96183 76.27899 67.62041
# Shear Modulus (GPa) = -82.12109 27.55036 -27.28537
#
# Velocity S-wave (km/s) = -5.61931 3.25476 -3.23907
# Velocity P-wave (km/s) = 4.40801 6.59203 3.46586
#
# Compressibility (1/GPa) = 0.01696012
#
# Stress axis : x y z
#
# Youngs Moduli (GPa) = 173.07851 206.61037 81.19098
#
# Poissons Ratio (x) = 0.30894 0.11134
# Poissons Ratio (y) = 0.25880 0.00978
# Poissons Ratio (z) = 0.23736 0.02489
#
# Static dielectric constant tensor:
#      x y z
#    x 8.106360 0.000000 0.000000 
#    y 0.000000 1.846790 0.000000 
#    z 0.000000 0.000000 2.040930 
# 
# From -- ./inp_files/52900.got.cif
#   From: 2010.05.17/outbox.cif.g08.bks.cpg/sg68_27_cif.got.tgz:52900.got - 2010.06.03 18:57:09.
