data_PCOD9509599
_publ_section_title
;
Structure prediction by ZEFSAII (Michael W. Deem and Ramdas Pophale) SiO2 
 PCOD9509599
Probable space group: C C C A
;
_chemical_formula_sum "Si O2"
_cell_formula_units_Z 40
_cell_length_a 16.172979
_cell_length_b 5.281824
_cell_length_c 18.395622
_cell_angle_alpha 90.000000
_cell_angle_beta 90.000000
_cell_angle_gamma 90.000000
_cell_volume 1571.406066
_symmetry_space_group_name_H-M "C C C A"
_symmetry_group_IT_number 68
_space_group.IT_coordinate_system_code '2'
_symmetry_cell_setting 'orthorhombic'
loop_
_space_group_symop_operation_xyz
x,y,z
-x,1/2-y,z
x,1/2-y,1/2-z
-x,y,1/2-z
-x,-y,-z
x,1/2+y,-z
-x,1/2+y,1/2+z
x,-y,1/2+z
1/2+x,1/2+y,z
1/2-x,-y,z
1/2+x,-y,1/2-z
1/2-x,1/2+y,1/2-z
1/2-x,1/2-y,-z
1/2+x,y,-z
1/2-x,y,1/2+z
1/2+x,1/2-y,1/2+z
loop_
_atom_site_type_symbol
_atom_site_label
_atom_site_fract_x
_atom_site_fract_y
_atom_site_fract_z
Si Si1 0.151272 0.958262 0.540035
Si Si2 0.594434 0.235721 0.337086
Si Si3 0.750000 0.000000 0.699086
O O1 0.119404 0.708317 0.501408
O O2 0.250000 0.000000 0.536683
O O3 0.125992 0.983406 0.623909
O O4 0.500000 0.250000 0.362324
O O5 0.590318 0.250000 0.250000
O O6 0.670225 0.432167 0.350217
O O7 0.763595 0.750000 0.750000
#
# Coordination Sequence:
#
# PCOD9509599 Si02
#       3
#    16  16   8
#     4  10  24  44  70 100 140 188 236 288 355 428
#     4  10  24  45  73 110 142 184 243 297 355 432
#     4  10  24  44  72 102 148 194 228 294 372 418
#
# _framework density 25.454910000000002
#
# number of rings (size 3 to 8) (size 9 to 14) (size 15 to 20)
#    0.000    2.000    0.000    0.000   19.600    1.600 
#    0.000   28.000    0.000    0.000    0.000    0.000 
#    0.000    0.000    0.000    0.000    0.000    0.000 
#
# Total GULP energy -111658.705316 kJ/mol
# GULP energy per Si atom -5582.935266 kJ/mol
# Density = 2.539697 g / cm^3
# Si number density = 25.454910 Si / 1000 Ang^3
#
#
#
# Elastic Constant Matrix: (Units=GPa)
#
#
# Indices 1 2 3 4 5 6 
#
# 1 172.5265 37.1085 6.9362 0.0000 0.0000 0.0000
# 2 37.1085 157.3031 50.9297 0.0000 0.0000 0.0000
# 3 6.9362 50.9297 110.4254 0.0000 0.0000 0.0000
# 4 0.0000 0.0000 0.0000 38.6672 0.0000 0.0000
# 5 0.0000 0.0000 0.0000 0.0000 -21.4558 0.0000
# 6 0.0000 0.0000 0.0000 0.0000 0.0000 5.8113
#
#
#
# Elastic Compliance Matrix: (Units=1/GPa)
#
#
# Indices 1 2 3 4 5 6 
#
# 1 0.006116 -0.001550 0.000331 0.000000 0.000000 0.000000
# 2 -0.001550 0.007866 -0.003530 0.000000 0.000000 0.000000
# 3 0.000331 -0.003530 0.010663 0.000000 0.000000 0.000000
# 4 0.000000 0.000000 0.000000 0.025862 0.000000 0.000000
# 5 0.000000 0.000000 0.000000 0.000000 -0.046607 0.000000
# 6 0.000000 0.000000 0.000000 0.000000 0.000000 0.172080
#
#
# Mechanical properties :
#
#
# Convention : Reuss Voigt Hill
#
# Bulk Modulus (GPa) = 66.02370 70.02265 68.02317
# Shear Modulus (GPa) = 26.24286 27.62323 26.93305
#
# Velocity S-wave (km/s) = 3.21433 3.29778 3.25633
# Velocity P-wave (km/s) = 6.30632 6.48604 6.39681
#
# Compressibility (1/GPa) = 0.01514608
#
# Stress axis : x y z
#
# Youngs Moduli (GPa) = 163.49785 127.13194 93.77847
#
# Poissons Ratio (x) = 0.19704 -0.03101
# Poissons Ratio (y) = 0.25341 0.33108
# Poissons Ratio (z) = -0.05406 0.44884
#
# Static dielectric constant tensor:
#      x y z
#    x 2.044450 0.000000 0.000000 
#    y 0.000000 2.033300 0.000000 
#    z 0.000000 0.000000 2.123260 
# 
# From -- ./inp_files/31331.got.cif
#   From: 2010.05.17/outbox.cif.g08.bks.cpg/sg68_16_cif.got.tgz:31331.got - 2010.06.03 18:57:09.
