data_PCOD9509023
_publ_section_title
;
Structure prediction by ZEFSAII (Michael W. Deem and Ramdas Pophale) SiO2 
 PCOD9509023
Probable space group: C C C A
;
_chemical_formula_sum "Si O2"
_cell_formula_units_Z 44
_cell_length_a 20.886484
_cell_length_b 9.771820
_cell_length_c 10.251397
_cell_angle_alpha 90.000000
_cell_angle_beta 90.000000
_cell_angle_gamma 90.000000
_cell_volume 2092.299488
_symmetry_space_group_name_H-M "C C C A"
_symmetry_group_IT_number 68
_space_group.IT_coordinate_system_code '2'
_symmetry_cell_setting 'orthorhombic'
loop_
_space_group_symop_operation_xyz
x,y,z
-x,1/2-y,z
x,1/2-y,1/2-z
-x,y,1/2-z
-x,-y,-z
x,1/2+y,-z
-x,1/2+y,1/2+z
x,-y,1/2+z
1/2+x,1/2+y,z
1/2-x,-y,z
1/2+x,-y,1/2-z
1/2-x,1/2+y,1/2-z
1/2-x,1/2-y,-z
1/2+x,y,-z
1/2-x,y,1/2+z
1/2+x,1/2-y,1/2+z
loop_
_atom_site_type_symbol
_atom_site_label
_atom_site_fract_x
_atom_site_fract_y
_atom_site_fract_z
Si Si1 0.176009 0.036721 0.578921
Si Si2 0.000000 0.750000 0.750000
Si Si3 0.099104 0.537059 0.683855
Si Si4 0.886866 0.750000 0.250000
O O1 0.148348 0.034164 0.434474
O O2 0.159145 0.185216 0.639763
O O3 0.250000 0.000000 0.582947
O O4 0.136191 0.939466 0.678842
O O5 0.044575 0.648619 0.667100
O O6 0.074674 0.380473 0.697850
#
# Coordination Sequence:
#
# PCOD9509023 Si02
#       4
#    16   4  16   8
#     4  10  22  45  72 106 139 176 228 290 354 417
#     4  12  28  44  72  98 142 186 252 284 332 430
#     4  10  25  45  68 106 137 188 230 286 350 405
#     4   8  24  44  66 110 135 181 228 280 356 400
#
# _framework density 21.029496000000002
#
# number of rings (size 3 to 8) (size 9 to 14) (size 15 to 20)
#    2.182    0.000    0.000    1.091    5.091    5.091 
#    0.000    0.000    0.000    0.000    0.000    0.000 
#    0.000    0.000    0.000    0.000    0.000    0.000 
#
# Total GULP energy -122533.624630 kJ/mol
# GULP energy per Si atom -5569.710210 kJ/mol
# Density = 2.098163 g / cm^3
# Si number density = 21.029496 Si / 1000 Ang^3
#
#
#
# Elastic Constant Matrix: (Units=GPa)
#
#
# Indices 1 2 3 4 5 6 
#
# 1 103.6318 58.5565 26.6443 0.0000 0.0000 0.0000
# 2 58.5565 148.5265 17.0871 0.0000 0.0000 0.0000
# 3 26.6443 17.0871 61.3165 0.0000 0.0000 0.0000
# 4 0.0000 0.0000 0.0000 -0.4124 0.0000 0.0000
# 5 0.0000 0.0000 0.0000 0.0000 15.9032 0.0000
# 6 0.0000 0.0000 0.0000 0.0000 0.0000 30.4448
#
#
#
# Elastic Compliance Matrix: (Units=1/GPa)
#
#
# Indices 1 2 3 4 5 6 
#
# 1 0.013538 -0.004815 -0.004541 0.000000 0.000000 0.000000
# 2 -0.004815 0.008668 -0.000323 0.000000 0.000000 0.000000
# 3 -0.004541 -0.000323 0.018372 0.000000 0.000000 0.000000
# 4 0.000000 0.000000 0.000000 -2.424943 0.000000 0.000000
# 5 0.000000 0.000000 0.000000 0.000000 0.062880 0.000000
# 6 0.000000 0.000000 0.000000 0.000000 0.000000 0.032846
#
#
# Mechanical properties :
#
#
# Convention : Reuss Voigt Hill
#
# Bulk Modulus (GPa) = 47.12554 57.56116 52.34335
# Shear Modulus (GPa) = -2.21023 23.26626 10.52801
#
# Velocity S-wave (km/s) = -1.02630 3.32981 2.23991
# Velocity P-wave (km/s) = 4.58841 6.49728 5.62442
#
# Compressibility (1/GPa) = 0.02121992
#
# Stress axis : x y z
#
# Youngs Moduli (GPa) = 73.86845 115.36378 54.43033
#
# Poissons Ratio (x) = 0.55545 0.24716
# Poissons Ratio (y) = 0.35566 0.01760
# Poissons Ratio (z) = 0.33543 0.03731
#
# Static dielectric constant tensor:
#      x y z
#    x 1.719400 0.000000 0.000000 
#    y 0.000000 1.813300 0.000000 
#    z 0.000000 0.000000 1.780770 
# 
# From -- ./inp_files/7589.got.cif
#   From: 2010.05.17/outbox.cif.g08.bks.cpg/sg68_4_cif.got.tgz:7589.got - 2010.06.03 18:57:09.
