data_PCOD9509967
_publ_section_title
;
Structure prediction by ZEFSAII (Michael W. Deem and Ramdas Pophale) SiO2 
 PCOD9509967
Probable space group: C C C A
;
_chemical_formula_sum "Si O2"
_cell_formula_units_Z 64
_cell_length_a 16.846097
_cell_length_b 9.170899
_cell_length_c 20.054354
_cell_angle_alpha 90.000000
_cell_angle_beta 90.000000
_cell_angle_gamma 90.000000
_cell_volume 3098.274442
_symmetry_space_group_name_H-M "C C C A"
_symmetry_group_IT_number 68
_space_group.IT_coordinate_system_code '2'
_symmetry_cell_setting 'orthorhombic'
loop_
_space_group_symop_operation_xyz
x,y,z
-x,1/2-y,z
x,1/2-y,1/2-z
-x,y,1/2-z
-x,-y,-z
x,1/2+y,-z
-x,1/2+y,1/2+z
x,-y,1/2+z
1/2+x,1/2+y,z
1/2-x,-y,z
1/2+x,-y,1/2-z
1/2-x,1/2+y,1/2-z
1/2-x,1/2-y,-z
1/2+x,y,-z
1/2-x,y,1/2+z
1/2+x,1/2-y,1/2+z
loop_
_atom_site_type_symbol
_atom_site_label
_atom_site_fract_x
_atom_site_fract_y
_atom_site_fract_z
Si Si1 0.672163 0.803225 0.963287
Si Si2 0.628687 0.269735 0.322151
Si Si3 0.503693 0.499419 0.676311
Si Si4 0.929758 0.420183 0.039283
O O1 0.680534 0.754584 0.886806
O O2 0.646337 0.971522 0.961924
O O3 0.750000 0.750000 0.000000
O O4 0.598709 0.721614 0.999945
O O5 0.668620 0.250000 0.250000
O O6 0.581475 0.421490 0.333197
O O7 0.563670 0.138692 0.320863
O O8 0.500000 0.431100 0.750000
O O9 0.537185 0.406684 0.614755
O O10 0.000000 0.500000 0.000000
#
# Coordination Sequence:
#
# PCOD9509967 Si02
#       4
#    16  16  16  16
#     4  11  22  35  55  84 116 146 181 231 282 332
#     4   8  14  28  52  79 102 136 189 230 259 318
#     4   8  14  27  52  83 101 132 188 238 261 309
#     4  11  20  35  59  83 109 145 190 229 273 328
#
# _framework density 20.656659000000001
#
# number of rings (size 3 to 8) (size 9 to 14) (size 15 to 20)
#    0.000    2.500    2.500    3.000    0.000    0.000 
#    0.000    0.000    5.500    4.500    0.000    0.000 
#    0.000    0.000    0.000    0.000    0.000    0.000 
#
# Total GULP energy -178396.253146 kJ/mol
# GULP energy per Si atom -5574.882911 kJ/mol
# Density = 2.060964 g / cm^3
# Si number density = 20.656659 Si / 1000 Ang^3
#
#
#
# Elastic Constant Matrix: (Units=GPa)
#
#
# Indices 1 2 3 4 5 6 
#
# 1 62.2168 5.7203 35.2270 0.0000 0.0000 0.0000
# 2 5.7203 67.7228 22.5039 0.0000 0.0000 0.0000
# 3 35.2270 22.5039 189.7811 0.0000 0.0000 0.0000
# 4 0.0000 0.0000 0.0000 12.2337 0.0000 0.0000
# 5 0.0000 0.0000 0.0000 0.0000 39.2120 0.0000
# 6 0.0000 0.0000 0.0000 0.0000 0.0000 19.0092
#
#
#
# Elastic Compliance Matrix: (Units=1/GPa)
#
#
# Indices 1 2 3 4 5 6 
#
# 1 0.017972 -0.000426 -0.003285 0.000000 0.000000 0.000000
# 2 -0.000426 0.015382 -0.001745 0.000000 0.000000 0.000000
# 3 -0.003285 -0.001745 0.006086 0.000000 0.000000 0.000000
# 4 0.000000 0.000000 0.000000 0.081742 0.000000 0.000000
# 5 0.000000 0.000000 0.000000 0.000000 0.025502 0.000000
# 6 0.000000 0.000000 0.000000 0.000000 0.000000 0.052606
#
#
# Mechanical properties :
#
#
# Convention : Reuss Voigt Hill
#
# Bulk Modulus (GPa) = 35.05459 49.62478 42.33969
# Shear Modulus (GPa) = 22.75702 31.17561 26.96632
#
# Velocity S-wave (km/s) = 3.32276 3.88909 3.61703
# Velocity P-wave (km/s) = 5.63275 6.65150 6.16321
#
# Compressibility (1/GPa) = 0.02852693
#
# Stress axis : x y z
#
# Youngs Moduli (GPa) = 55.64135 65.01155 164.31248
#
# Poissons Ratio (x) = 0.02772 0.53984
# Poissons Ratio (y) = 0.02372 0.28670
# Poissons Ratio (z) = 0.18281 0.11343
#
# Static dielectric constant tensor:
#      x y z
#    x 1.751420 0.000000 0.000000 
#    y 0.000000 1.905520 0.000000 
#    z 0.000000 0.000000 1.797020 
# 
# From -- ./inp_files/31558.got.cif
#   From: 2010.05.17/outbox.cif.g08.bks.cpg/sg68_16_cif.got.tgz:31558.got - 2010.06.03 18:57:09.
