data_PCOD9509896
_publ_section_title
;
Structure prediction by ZEFSAII (Michael W. Deem and Ramdas Pophale) SiO2 
 PCOD9509896
Probable space group: C C C A
;
_chemical_formula_sum "Si O2"
_cell_formula_units_Z 88
_cell_length_a 18.679121
_cell_length_b 24.837850
_cell_length_c 8.347235
_cell_angle_alpha 90.000000
_cell_angle_beta 90.000000
_cell_angle_gamma 90.000000
_cell_volume 3872.693047
_symmetry_space_group_name_H-M "C C C A"
_symmetry_group_IT_number 68
_space_group.IT_coordinate_system_code '2'
_symmetry_cell_setting 'orthorhombic'
loop_
_space_group_symop_operation_xyz
x,y,z
-x,1/2-y,z
x,1/2-y,1/2-z
-x,y,1/2-z
-x,-y,-z
x,1/2+y,-z
-x,1/2+y,1/2+z
x,-y,1/2+z
1/2+x,1/2+y,z
1/2-x,-y,z
1/2+x,-y,1/2-z
1/2-x,1/2+y,1/2-z
1/2-x,1/2-y,-z
1/2+x,y,-z
1/2-x,y,1/2+z
1/2+x,1/2-y,1/2+z
loop_
_atom_site_type_symbol
_atom_site_label
_atom_site_fract_x
_atom_site_fract_y
_atom_site_fract_z
Si Si1 0.365725 0.750000 0.750000
Si Si2 0.652287 0.813790 0.290001
Si Si3 0.500000 0.102009 0.250000
Si Si4 0.290315 0.835329 0.547765
Si Si5 0.468036 0.190649 0.486398
Si Si6 0.250000 0.000000 0.996416
Si Si7 0.340700 0.436472 0.256471
O O1 0.319052 0.779224 0.617877
O O2 0.414669 0.707414 0.657974
O O3 0.655712 0.750000 0.250000
O O4 0.705588 0.830953 0.432169
O O5 0.574282 0.826861 0.355991
O O6 0.678486 0.842302 0.128560
O O7 0.510504 0.141425 0.406045
O O8 0.573817 0.068320 0.226459
O O9 0.317277 0.879752 0.670477
O O10 0.500000 0.250000 0.522114
O O11 0.210514 0.045577 0.890183
O O12 0.314242 0.022599 0.105487
#
# Coordination Sequence:
#
# PCOD9509896 Si02
#       7
#     8  16   8  16  16   8  16
#     4  12  19  40  66  94 143 190 228 274 336 417
#     4  12  25  37  62  98 145 197 245 290 328 418
#     4  12  25  44  76 108 144 190 240 293 380 442
#     4  12  23  42  68 106 140 187 247 291 352 427
#     4  12  23  42  61  94 150 203 233 277 346 420
#     4  10  26  52  82 104 136 178 244 320 382 430
#     4  11  25  49  79 108 138 186 239 311 375 443
#
# _framework density 22.723203999999999
#
# number of rings (size 3 to 8) (size 9 to 14) (size 15 to 20)
#    0.000    0.364    6.364    2.727    2.545    1.091 
#    0.000    0.000    0.000    0.000    0.000    0.000 
#    0.000    0.000    0.000    0.000    0.000    0.000 
#
# Total GULP energy -245957.608319 kJ/mol
# GULP energy per Si atom -5589.945644 kJ/mol
# Density = 2.267149 g / cm^3
# Si number density = 22.723204 Si / 1000 Ang^3
#
#
#
# Elastic Constant Matrix: (Units=GPa)
#
#
# Indices 1 2 3 4 5 6 
#
# 1 128.2035 27.8319 38.0924 0.0000 0.0000 0.0000
# 2 27.8319 62.8608 24.8794 0.0000 0.0000 0.0000
# 3 38.0924 24.8794 113.0167 0.0000 0.0000 0.0000
# 4 0.0000 0.0000 0.0000 21.2596 0.0000 0.0000
# 5 0.0000 0.0000 0.0000 0.0000 36.7722 0.0000
# 6 0.0000 0.0000 0.0000 0.0000 0.0000 38.3571
#
#
#
# Elastic Compliance Matrix: (Units=1/GPa)
#
#
# Indices 1 2 3 4 5 6 
#
# 1 0.009193 -0.003115 -0.002413 0.000000 0.000000 0.000000
# 2 -0.003115 0.018482 -0.003019 0.000000 0.000000 0.000000
# 3 -0.002413 -0.003019 0.010326 0.000000 0.000000 0.000000
# 4 0.000000 0.000000 0.000000 0.047038 0.000000 0.000000
# 5 0.000000 0.000000 0.000000 0.000000 0.027194 0.000000
# 6 0.000000 0.000000 0.000000 0.000000 0.000000 0.026071
#
#
# Mechanical properties :
#
#
# Convention : Reuss Voigt Hill
#
# Bulk Modulus (GPa) = 47.82881 53.96540 50.89710
# Shear Modulus (GPa) = 30.79436 33.49628 32.14532
#
# Velocity S-wave (km/s) = 3.68529 3.84357 3.76526
# Velocity P-wave (km/s) = 6.26120 6.59530 6.43042
#
# Compressibility (1/GPa) = 0.02090790
#
# Stress axis : x y z
#
# Youngs Moduli (GPa) = 108.77447 54.10596 96.84297
#
# Poissons Ratio (x) = 0.16856 0.23366
# Poissons Ratio (y) = 0.33888 0.29233
# Poissons Ratio (z) = 0.26245 0.16332
#
# Static dielectric constant tensor:
#      x y z
#    x 1.911980 0.000000 0.000000 
#    y 0.000000 1.866640 0.000000 
#    z 0.000000 0.000000 1.861240 
# 
# From -- ./inp_files/6436.got.cif
#   From: 2010.05.17/outbox.cif.g08.bks.cpg/sg68_4_cif.got.tgz:6436.got - 2010.06.03 18:57:09.
