data_PCOD9509886
_publ_section_title
;
Structure prediction by ZEFSAII (Michael W. Deem and Ramdas Pophale) SiO2 
 PCOD9509886
Probable space group: C C C A
;
_chemical_formula_sum "Si O2"
_cell_formula_units_Z 92
_cell_length_a 24.953136
_cell_length_b 8.293967
_cell_length_c 21.156182
_cell_angle_alpha 90.000000
_cell_angle_beta 90.000000
_cell_angle_gamma 90.000000
_cell_volume 4378.493720
_symmetry_space_group_name_H-M "C C C A"
_symmetry_group_IT_number 68
_space_group.IT_coordinate_system_code '2'
_symmetry_cell_setting 'orthorhombic'
loop_
_space_group_symop_operation_xyz
x,y,z
-x,1/2-y,z
x,1/2-y,1/2-z
-x,y,1/2-z
-x,-y,-z
x,1/2+y,-z
-x,1/2+y,1/2+z
x,-y,1/2+z
1/2+x,1/2+y,z
1/2-x,-y,z
1/2+x,-y,1/2-z
1/2-x,1/2+y,1/2-z
1/2-x,1/2-y,-z
1/2+x,y,-z
1/2-x,y,1/2+z
1/2+x,1/2-y,1/2+z
loop_
_atom_site_type_symbol
_atom_site_label
_atom_site_fract_x
_atom_site_fract_y
_atom_site_fract_z
Si Si1 0.627459 0.440178 0.077442
Si Si2 0.008695 0.555957 0.929233
Si Si3 0.331536 0.300021 0.181607
Si Si4 0.154920 0.789273 0.946950
Si Si5 0.000000 0.250000 0.250000
Si Si6 0.579132 0.451930 0.840818
Si Si7 0.750000 0.500000 0.903712
O O1 0.567944 0.505677 0.090181
O O2 0.649150 0.346298 0.137702
O O3 0.661576 0.599085 0.060920
O O4 0.628021 0.328444 0.014633
O O5 0.000000 0.750000 0.924311
O O6 0.964047 0.468169 0.887382
O O7 0.000000 0.500000 0.000000
O O8 0.310930 0.250000 0.250000
O O9 0.381944 0.420120 0.191480
O O10 0.287095 0.391447 0.140933
O O11 0.117517 0.850381 0.888679
O O12 0.210339 0.886080 0.942951
O O13 0.041154 0.353091 0.206862
#
# Coordination Sequence:
#
# PCOD9509886 Si02
#       7
#    16  16  16  16   4  16   8
#     4  12  24  43  70 106 141 176 228 286 350 407
#     4  12  23  39  66 102 138 187 222 272 342 405
#     4  11  29  48  68 103 138 181 234 291 343 423
#     4  11  23  44  73 102 138 177 230 297 339 410
#     4  12  24  44  70  96 136 196 220 272 340 410
#     4  11  24  43  66 101 140 183 233 278 335 412
#     4  10  26  50  72  98 132 180 236 292 360 404
#
# _framework density 21.011792
#
# number of rings (size 3 to 8) (size 9 to 14) (size 15 to 20)
#    0.000    0.696    4.348    2.087    7.304    4.870 
#    3.130    0.000    0.000    0.000    0.000    0.000 
#    0.000    0.000    0.000    0.000    0.000    0.000 
#
# Total GULP energy -257266.685299 kJ/mol
# GULP energy per Si atom -5592.754028 kJ/mol
# Density = 2.096397 g / cm^3
# Si number density = 21.011792 Si / 1000 Ang^3
#
#
#
# Elastic Constant Matrix: (Units=GPa)
#
#
# Indices 1 2 3 4 5 6 
#
# 1 106.7907 26.0206 3.6010 0.0000 0.0000 0.0000
# 2 26.0206 85.0605 19.0090 0.0000 0.0000 0.0000
# 3 3.6010 19.0090 70.5199 0.0000 0.0000 0.0000
# 4 0.0000 0.0000 0.0000 21.4941 0.0000 0.0000
# 5 0.0000 0.0000 0.0000 0.0000 20.3478 0.0000
# 6 0.0000 0.0000 0.0000 0.0000 0.0000 20.1700
#
#
#
# Elastic Compliance Matrix: (Units=1/GPa)
#
#
# Indices 1 2 3 4 5 6 
#
# 1 0.010126 -0.003173 0.000338 0.000000 0.000000 0.000000
# 2 -0.003173 0.013504 -0.003478 0.000000 0.000000 0.000000
# 3 0.000338 -0.003478 0.015101 0.000000 0.000000 0.000000
# 4 0.000000 0.000000 0.000000 0.046524 0.000000 0.000000
# 5 0.000000 0.000000 0.000000 0.000000 0.049145 0.000000
# 6 0.000000 0.000000 0.000000 0.000000 0.000000 0.049579
#
#
# Mechanical properties :
#
#
# Convention : Reuss Voigt Hill
#
# Bulk Modulus (GPa) = 38.30711 39.95914 39.13312
# Shear Modulus (GPa) = 24.35379 26.65174 25.50276
#
# Velocity S-wave (km/s) = 3.40818 3.56535 3.48765
# Velocity P-wave (km/s) = 5.81020 6.00064 5.90619
#
# Compressibility (1/GPa) = 0.02610482
#
# Stress axis : x y z
#
# Youngs Moduli (GPa) = 98.75684 74.05039 66.22227
#
# Poissons Ratio (x) = 0.23497 -0.02240
# Poissons Ratio (y) = 0.31337 0.23033
# Poissons Ratio (z) = -0.03341 0.25756
#
# Static dielectric constant tensor:
#      x y z
#    x 1.763080 0.000000 0.000000 
#    y 0.000000 1.756570 0.000000 
#    z 0.000000 0.000000 1.783150 
# 
# From -- ./inp_files/41276.got.cif
#   From: 2010.05.17/outbox.cif.g08.bks.cpg/sg68_21_cif.got.tgz:41276.got - 2010.06.03 18:57:09.
