data_PCOD9509035
_publ_section_title
;
Structure prediction by ZEFSAII (Michael W. Deem and Ramdas Pophale) SiO2 
 PCOD9509035
Probable space group: C C C A
;
_chemical_formula_sum "Si O2"
_cell_formula_units_Z 80
_cell_length_a 18.212222
_cell_length_b 11.197916
_cell_length_c 13.663463
_cell_angle_alpha 90.000000
_cell_angle_beta 90.000000
_cell_angle_gamma 90.000000
_cell_volume 2786.512053
_symmetry_space_group_name_H-M "C C C A"
_symmetry_group_IT_number 68
_space_group.IT_coordinate_system_code '2'
_symmetry_cell_setting 'orthorhombic'
loop_
_space_group_symop_operation_xyz
x,y,z
-x,1/2-y,z
x,1/2-y,1/2-z
-x,y,1/2-z
-x,-y,-z
x,1/2+y,-z
-x,1/2+y,1/2+z
x,-y,1/2+z
1/2+x,1/2+y,z
1/2-x,-y,z
1/2+x,-y,1/2-z
1/2-x,1/2+y,1/2-z
1/2-x,1/2-y,-z
1/2+x,y,-z
1/2-x,y,1/2+z
1/2+x,1/2-y,1/2+z
loop_
_atom_site_type_symbol
_atom_site_label
_atom_site_fract_x
_atom_site_fract_y
_atom_site_fract_z
Si Si1 0.542985 0.870099 0.504115
Si Si2 0.692098 0.900790 0.043928
Si Si3 0.851718 0.367955 0.180482
Si Si4 0.802517 0.714838 0.148674
Si Si5 0.575079 0.478691 0.310450
O O1 0.500000 0.750000 0.478610
O O2 0.608967 0.866603 0.425219
O O3 0.375915 0.942917 0.389544
O O4 0.561802 0.867192 0.619730
O O5 0.749589 0.820749 0.105017
O O6 0.750000 0.000000 0.010656
O O7 0.660341 0.836425 0.948133
O O8 0.628153 0.998616 0.279009
O O9 0.875476 0.250000 0.250000
O O10 0.765492 0.366226 0.179742
O O11 0.000000 0.486497 0.250000
O O12 0.840851 0.750000 0.250000
O O13 0.500000 0.500000 0.500000
#
# Coordination Sequence:
#
# PCOD9509035 Si02
#       5
#    16  16  16  16  16
#     4  12  27  46  76 120 167 224 293 363 444 532
#     4  11  24  46  78 116 166 218 297 368 438 531
#     4  11  22  46  82 112 157 231 289 348 441 551
#     4  10  22  45  77 118 161 219 290 359 437 542
#     4  12  25  48  79 117 166 224 286 365 453 541
#
# _framework density 28.709726
#
# number of rings (size 3 to 8) (size 9 to 14) (size 15 to 20)
#    0.000    0.800    6.000    2.400    0.000    1.200 
#    3.600    0.000    0.000    0.000    0.000    0.000 
#    0.000    0.000    0.000    0.000    0.000    0.000 
#
# Total GULP energy -223142.648117 kJ/mol
# GULP energy per Si atom -5578.566203 kJ/mol
# Density = 2.864438 g / cm^3
# Si number density = 28.709726 Si / 1000 Ang^3
#
#
#
# Elastic Constant Matrix: (Units=GPa)
#
#
# Indices 1 2 3 4 5 6 
#
# 1 119.7415 52.2983 79.9652 0.0000 0.0000 0.0000
# 2 52.2983 105.9582 44.9705 0.0000 0.0000 0.0000
# 3 79.9652 44.9705 240.5114 0.0000 0.0000 0.0000
# 4 0.0000 0.0000 0.0000 79.6462 0.0000 0.0000
# 5 0.0000 0.0000 0.0000 0.0000 78.4114 0.0000
# 6 0.0000 0.0000 0.0000 0.0000 0.0000 36.3291
#
#
#
# Elastic Compliance Matrix: (Units=1/GPa)
#
#
# Indices 1 2 3 4 5 6 
#
# 1 0.012681 -0.004855 -0.003308 0.000000 0.000000 0.000000
# 2 -0.004855 0.012110 -0.000650 0.000000 0.000000 0.000000
# 3 -0.003308 -0.000650 0.005379 0.000000 0.000000 0.000000
# 4 0.000000 0.000000 0.000000 0.012556 0.000000 0.000000
# 5 0.000000 0.000000 0.000000 0.000000 0.012753 0.000000
# 6 0.000000 0.000000 0.000000 0.000000 0.000000 0.027526
#
#
# Mechanical properties :
#
#
# Convention : Reuss Voigt Hill
#
# Bulk Modulus (GPa) = 79.72331 91.18654 85.45493
# Shear Modulus (GPa) = 47.70371 58.14247 52.92309
#
# Velocity S-wave (km/s) = 4.08068 4.50509 4.29812
# Velocity P-wave (km/s) = 7.07330 7.67408 7.37981
#
# Compressibility (1/GPa) = 0.01254338
#
# Stress axis : x y z
#
# Youngs Moduli (GPa) = 78.85673 82.57715 185.89553
#
# Poissons Ratio (x) = 0.40091 0.61503
# Poissons Ratio (y) = 0.38285 0.12085
# Poissons Ratio (z) = 0.26090 0.05368
#
# Static dielectric constant tensor:
#      x y z
#    x 2.323480 0.000000 0.000000 
#    y 0.000000 2.643260 0.000000 
#    z 0.000000 0.000000 2.371490 
# 
# From -- ./inp_files/24307.got.cif
#   From: 2010.05.17/outbox.cif.g08.bks.cpg/sg68_13_cif.got.tgz:24307.got - 2010.06.03 18:57:09.
