data_PCOD9509145
_publ_section_title
;
Structure prediction by ZEFSAII (Michael W. Deem and Ramdas Pophale) SiO2 
 PCOD9509145
Probable space group: C C C A
;
_chemical_formula_sum "Si O2"
_cell_formula_units_Z 68
_cell_length_a 8.335381
_cell_length_b 20.215736
_cell_length_c 17.035086
_cell_angle_alpha 90.000000
_cell_angle_beta 90.000000
_cell_angle_gamma 90.000000
_cell_volume 2870.511847
_symmetry_space_group_name_H-M "C C C A"
_symmetry_group_IT_number 68
_space_group.IT_coordinate_system_code '2'
_symmetry_cell_setting 'orthorhombic'
loop_
_space_group_symop_operation_xyz
x,y,z
-x,1/2-y,z
x,1/2-y,1/2-z
-x,y,1/2-z
-x,-y,-z
x,1/2+y,-z
-x,1/2+y,1/2+z
x,-y,1/2+z
1/2+x,1/2+y,z
1/2-x,-y,z
1/2+x,-y,1/2-z
1/2-x,1/2+y,1/2-z
1/2-x,1/2-y,-z
1/2+x,y,-z
1/2-x,y,1/2+z
1/2+x,1/2-y,1/2+z
loop_
_atom_site_type_symbol
_atom_site_label
_atom_site_fract_x
_atom_site_fract_y
_atom_site_fract_z
Si Si1 0.000000 0.750000 0.250000
Si Si2 0.817952 0.430786 0.121501
Si Si3 0.395722 0.108662 0.976469
Si Si4 0.266282 0.810707 0.865186
Si Si5 0.000000 0.157183 0.250000
Si Si6 0.000000 0.750000 0.477528
O O1 0.098279 0.698833 0.198324
O O2 0.750000 0.500000 0.151831
O O3 0.880256 0.385982 0.193896
O O4 0.973276 0.438257 0.063564
O O5 0.679635 0.404848 0.061315
O O6 0.252826 0.121523 0.913640
O O7 0.478795 0.181554 0.977366
O O8 0.336330 0.757390 0.926724
O O9 0.108633 0.804225 0.812583
#
# Coordination Sequence:
#
# PCOD9509145 Si02
#       6
#     4  16  16  16   8   8
#     4  10  24  38  58 104 146 190 212 266 360 428
#     4  11  25  48  69  99 133 185 238 293 343 411
#     4  11  23  43  72  99 136 175 234 288 348 411
#     4  10  23  40  63  99 142 183 222 279 350 423
#     4  10  26  45  63 102 138 184 236 288 358 414
#     4  11  22  41  66 107 135 174 220 283 352 413
#
# _framework density 23.689156000000001
#
# number of rings (size 3 to 8) (size 9 to 14) (size 15 to 20)
#    0.000    1.412    2.353    1.412    6.588    2.353 
#    4.235    2.353    0.000    0.000    0.000    0.000 
#    0.000    0.000    0.000    0.000    0.000    0.000 
#
# Total GULP energy -189512.610533 kJ/mol
# GULP energy per Si atom -5573.900310 kJ/mol
# Density = 2.363524 g / cm^3
# Si number density = 23.689156 Si / 1000 Ang^3
#
#
#
# Elastic Constant Matrix: (Units=GPa)
#
#
# Indices 1 2 3 4 5 6 
#
# 1 109.2855 45.9370 56.0121 0.0000 0.0000 0.0000
# 2 45.9370 48.8525 22.0600 0.0000 0.0000 0.0000
# 3 56.0121 22.0600 139.6363 0.0000 0.0000 0.0000
# 4 0.0000 0.0000 0.0000 13.4679 0.0000 0.0000
# 5 0.0000 0.0000 0.0000 0.0000 75.1503 0.0000
# 6 0.0000 0.0000 0.0000 0.0000 0.0000 32.0347
#
#
#
# Elastic Compliance Matrix: (Units=1/GPa)
#
#
# Indices 1 2 3 4 5 6 
#
# 1 0.017700 -0.014470 -0.004814 0.000000 0.000000 0.000000
# 2 -0.014470 0.033871 0.000453 0.000000 0.000000 0.000000
# 3 -0.004814 0.000453 0.009021 0.000000 0.000000 0.000000
# 4 0.000000 0.000000 0.000000 0.074251 0.000000 0.000000
# 5 0.000000 0.000000 0.000000 0.000000 0.013307 0.000000
# 6 0.000000 0.000000 0.000000 0.000000 0.000000 0.031216
#
#
# Mechanical properties :
#
#
# Convention : Reuss Voigt Hill
#
# Bulk Modulus (GPa) = 43.60907 60.64362 52.12635
# Shear Modulus (GPa) = 22.25485 35.71493 28.98489
#
# Velocity S-wave (km/s) = 3.06837 3.88706 3.50172
# Velocity P-wave (km/s) = 5.56795 6.76764 6.19689
#
# Compressibility (1/GPa) = 0.02293101
#
# Stress axis : x y z
#
# Youngs Moduli (GPa) = 56.49775 29.52351 110.85396
#
# Poissons Ratio (x) = 0.42720 0.53364
# Poissons Ratio (y) = 0.81751 -0.05023
# Poissons Ratio (z) = 0.27198 -0.01338
#
# Static dielectric constant tensor:
#      x y z
#    x 2.035910 0.000000 0.000000 
#    y 0.000000 1.878550 0.000000 
#    z 0.000000 0.000000 1.959600 
# 
# From -- ./inp_files/28022.got.cif
#   From: 2010.05.17/outbox.cif.g08.bks.cpg/sg68_15_cif.got.tgz:28022.got - 2010.06.03 18:57:09.
