data_PCOD9509279
_publ_section_title
;
Structure prediction by ZEFSAII (Michael W. Deem and Ramdas Pophale) SiO2 
 PCOD9509279
Probable space group: C C C A
;
_chemical_formula_sum "Si O2"
_cell_formula_units_Z 48
_cell_length_a 5.283717
_cell_length_b 14.451599
_cell_length_c 27.648088
_cell_angle_alpha 90.000000
_cell_angle_beta 90.000000
_cell_angle_gamma 90.000000
_cell_volume 2111.157108
_symmetry_space_group_name_H-M "C C C A"
_symmetry_group_IT_number 68
_space_group.IT_coordinate_system_code '2'
_symmetry_cell_setting 'orthorhombic'
loop_
_space_group_symop_operation_xyz
x,y,z
-x,1/2-y,z
x,1/2-y,1/2-z
-x,y,1/2-z
-x,-y,-z
x,1/2+y,-z
-x,1/2+y,1/2+z
x,-y,1/2+z
1/2+x,1/2+y,z
1/2-x,-y,z
1/2+x,-y,1/2-z
1/2-x,1/2+y,1/2-z
1/2-x,1/2-y,-z
1/2+x,y,-z
1/2-x,y,1/2+z
1/2+x,1/2-y,1/2+z
loop_
_atom_site_type_symbol
_atom_site_label
_atom_site_fract_x
_atom_site_fract_y
_atom_site_fract_z
Si Si1 0.750535 0.811573 0.113293
Si Si2 0.748466 0.388444 0.278766
Si Si3 0.073365 0.603571 0.518367
O O1 0.500000 0.750000 0.112930
O O2 0.766912 0.855119 0.166381
O O3 0.696396 0.886298 0.071093
O O4 0.000000 0.750000 0.104610
O O5 0.500000 0.358032 0.250000
O O6 0.750000 0.500000 0.279417
O O7 0.000000 0.358577 0.250000
O O8 0.292123 0.646751 0.484354
O O9 0.000000 0.500000 0.500000
#
# Coordination Sequence:
#
# PCOD9509279 Si02
#       3
#    16  16  16
#     4  12  26  42  68 104 136 173 222 284 345 403
#     4  10  23  44  68  98 133 179 226 270 327 410
#     4  10  23  43  66  95 128 183 223 272 329 403
#
# _framework density 22.736346999999999
#
# number of rings (size 3 to 8) (size 9 to 14) (size 15 to 20)
#    0.000    1.333    0.000    4.000    4.667    8.000 
#   12.000    0.000    0.000    0.000    0.000    0.000 
#    0.000    0.000    0.000    0.000    0.000    0.000 
#
# Total GULP energy -134142.644710 kJ/mol
# GULP energy per Si atom -5589.276863 kJ/mol
# Density = 2.268460 g / cm^3
# Si number density = 22.736347 Si / 1000 Ang^3
#
#
#
# Elastic Constant Matrix: (Units=GPa)
#
#
# Indices 1 2 3 4 5 6 
#
# 1 261.2701 56.7439 100.2897 0.0000 0.0000 0.0000
# 2 56.7439 109.0854 67.4073 0.0000 0.0000 0.0000
# 3 100.2897 67.4073 239.7001 0.0000 0.0000 0.0000
# 4 0.0000 0.0000 0.0000 40.9585 0.0000 0.0000
# 5 0.0000 0.0000 0.0000 0.0000 46.5180 0.0000
# 6 0.0000 0.0000 0.0000 0.0000 0.0000 -5.0168
#
#
#
# Elastic Compliance Matrix: (Units=1/GPa)
#
#
# Indices 1 2 3 4 5 6 
#
# 1 0.004756 -0.001506 -0.001566 0.000000 0.000000 0.000000
# 2 -0.001506 0.011572 -0.002624 0.000000 0.000000 0.000000
# 3 -0.001566 -0.002624 0.005565 0.000000 0.000000 0.000000
# 4 0.000000 0.000000 0.000000 0.024415 0.000000 0.000000
# 5 0.000000 0.000000 0.000000 0.000000 0.021497 0.000000
# 6 0.000000 0.000000 0.000000 0.000000 0.000000 -0.199332
#
#
# Mechanical properties :
#
#
# Convention : Reuss Voigt Hill
#
# Bulk Modulus (GPa) = 95.23677 117.65972 106.44825
# Shear Modulus (GPa) = -42.86923 42.19961 -0.33481
#
# Velocity S-wave (km/s) = -4.34694 4.31285 -0.38416
# Velocity P-wave (km/s) = 4.09682 8.75574 6.83545
#
# Compressibility (1/GPa) = 0.01050015
#
# Stress axis : x y z
#
# Youngs Moduli (GPa) = 210.27126 86.41508 179.68954
#
# Poissons Ratio (x) = 0.13014 0.28145
# Poissons Ratio (y) = 0.31667 0.47153
# Poissons Ratio (z) = 0.32935 0.22676
#
# Static dielectric constant tensor:
#      x y z
#    x 1.957510 0.000000 0.000000 
#    y 0.000000 2.009240 0.000000 
#    z 0.000000 0.000000 1.847290 
# 
# From -- ./inp_files/47763.got.cif
#   From: 2010.05.17/outbox.cif.g08.bks.cpg/sg68_24_cif.got.tgz:47763.got - 2010.06.03 18:57:09.
