data_PCOD9509965
_publ_section_title
;
Structure prediction by ZEFSAII (Michael W. Deem and Ramdas Pophale) SiO2 
 PCOD9509965
Probable space group: C C C A
;
_chemical_formula_sum "Si O2"
_cell_formula_units_Z 112
_cell_length_a 24.438960
_cell_length_b 14.001211
_cell_length_c 17.610507
_cell_angle_alpha 90.000000
_cell_angle_beta 90.000000
_cell_angle_gamma 90.000000
_cell_volume 6025.875859
_symmetry_space_group_name_H-M "C C C A"
_symmetry_group_IT_number 68
_space_group.IT_coordinate_system_code '2'
_symmetry_cell_setting 'orthorhombic'
loop_
_space_group_symop_operation_xyz
x,y,z
-x,1/2-y,z
x,1/2-y,1/2-z
-x,y,1/2-z
-x,-y,-z
x,1/2+y,-z
-x,1/2+y,1/2+z
x,-y,1/2+z
1/2+x,1/2+y,z
1/2-x,-y,z
1/2+x,-y,1/2-z
1/2-x,1/2+y,1/2-z
1/2-x,1/2-y,-z
1/2+x,y,-z
1/2-x,y,1/2+z
1/2+x,1/2-y,1/2+z
loop_
_atom_site_type_symbol
_atom_site_label
_atom_site_fract_x
_atom_site_fract_y
_atom_site_fract_z
Si Si1 0.637029 0.546128 0.342546
Si Si2 0.668326 0.654601 0.793155
Si Si3 0.196017 0.253391 0.948352
Si Si4 0.352139 0.858719 0.080009
Si Si5 0.187124 0.038699 0.510542
Si Si6 0.280742 0.141149 0.723738
Si Si7 0.560953 0.771953 0.160970
O O1 0.629996 0.434007 0.318860
O O2 0.669089 0.551027 0.422920
O O3 0.676672 0.586365 0.276912
O O4 0.586340 0.621066 0.349177
O O5 0.645852 0.750000 0.750000
O O6 0.696552 0.696366 0.870003
O O7 0.718157 0.613802 0.741525
O O8 0.182924 0.363979 0.942999
O O9 0.250000 0.250000 0.000000
O O10 0.153679 0.202509 0.003916
O O11 0.299842 0.860900 0.136834
O O12 0.399076 0.807069 0.125965
O O13 0.354298 0.965481 0.049878
O O14 0.250000 0.000000 0.510831
O O15 0.284903 0.250000 0.750000
O O16 0.500000 0.750000 0.131277
O O17 0.560351 0.750000 0.250000
#
# Coordination Sequence:
#
# PCOD9509965 Si02
#       7
#    16  16  16  16  16  16  16
#     4  12  20  40  59  85 125 169 200 254 317 367
#     4  11  25  34  52  89 132 176 202 236 301 388
#     4  12  21  37  54  82 132 167 205 242 299 386
#     4  12  22  39  59  90 118 160 210 261 313 364
#     4  12  24  33  59  92 129 173 200 239 316 389
#     4  11  20  35  56  86 121 162 210 246 294 372
#     4  11  24  44  69  91 112 153 218 280 324 358
#
# _framework density 18.586510000000001
#
# number of rings (size 3 to 8) (size 9 to 14) (size 15 to 20)
#    0.000    0.429    7.143    3.857    2.000    0.000 
#    0.000    0.714    0.000    0.000    0.000    6.000 
#    0.000    0.000    0.000    0.000    0.000    0.000 
#
# Total GULP energy -312401.077844 kJ/mol
# GULP energy per Si atom -5578.590676 kJ/mol
# Density = 1.854421 g / cm^3
# Si number density = 18.586510 Si / 1000 Ang^3
#
#
#
# Elastic Constant Matrix: (Units=GPa)
#
#
# Indices 1 2 3 4 5 6 
#
# 1 66.9357 57.5137 22.8529 0.0000 0.0000 0.0000
# 2 57.5137 140.8787 20.3722 0.0000 0.0000 0.0000
# 3 22.8529 20.3722 93.8196 0.0000 0.0000 0.0000
# 4 0.0000 0.0000 0.0000 35.2302 0.0000 0.0000
# 5 0.0000 0.0000 0.0000 0.0000 16.7183 0.0000
# 6 0.0000 0.0000 0.0000 0.0000 0.0000 19.8754
#
#
#
# Elastic Compliance Matrix: (Units=1/GPa)
#
#
# Indices 1 2 3 4 5 6 
#
# 1 0.024313 -0.009363 -0.003889 0.000000 0.000000 0.000000
# 2 -0.009363 0.010934 -0.000094 0.000000 0.000000 0.000000
# 3 -0.003889 -0.000094 0.011626 0.000000 0.000000 0.000000
# 4 0.000000 0.000000 0.000000 0.028385 0.000000 0.000000
# 5 0.000000 0.000000 0.000000 0.000000 0.059815 0.000000
# 6 0.000000 0.000000 0.000000 0.000000 0.000000 0.050313
#
#
# Mechanical properties :
#
#
# Convention : Reuss Voigt Hill
#
# Bulk Modulus (GPa) = 49.54968 55.90128 52.72548
# Shear Modulus (GPa) = 22.85133 27.75778 25.30455
#
# Velocity S-wave (km/s) = 3.51017 3.86869 3.69378
# Velocity P-wave (km/s) = 6.56850 7.07794 6.82797
#
# Compressibility (1/GPa) = 0.02018176
#
# Stress axis : x y z
#
# Youngs Moduli (GPa) = 41.13057 91.45444 86.01128
#
# Poissons Ratio (x) = 0.85632 0.33450
# Poissons Ratio (y) = 0.38512 0.00805
# Poissons Ratio (z) = 0.15996 0.00856
#
# Static dielectric constant tensor:
#      x y z
#    x 1.646650 0.000000 0.000000 
#    y 0.000000 1.709050 0.000000 
#    z 0.000000 0.000000 1.732820 
# 
# From -- ./inp_files/25477.got.cif
#   From: 2010.05.17/outbox.cif.g08.bks.cpg/sg68_13_cif.got.tgz:25477.got - 2010.06.03 18:57:09.
