data_PCOD9509712
_publ_section_title
;
Structure prediction by ZEFSAII (Michael W. Deem and Ramdas Pophale) SiO2 
 PCOD9509712
Probable space group: C C C A
;
_chemical_formula_sum "Si O2"
_cell_formula_units_Z 112
_cell_length_a 12.445383
_cell_length_b 26.627860
_cell_length_c 13.806410
_cell_angle_alpha 90.000000
_cell_angle_beta 90.000000
_cell_angle_gamma 90.000000
_cell_volume 4575.360278
_symmetry_space_group_name_H-M "C C C A"
_symmetry_group_IT_number 68
_space_group.IT_coordinate_system_code '2'
_symmetry_cell_setting 'orthorhombic'
loop_
_space_group_symop_operation_xyz
x,y,z
-x,1/2-y,z
x,1/2-y,1/2-z
-x,y,1/2-z
-x,-y,-z
x,1/2+y,-z
-x,1/2+y,1/2+z
x,-y,1/2+z
1/2+x,1/2+y,z
1/2-x,-y,z
1/2+x,-y,1/2-z
1/2-x,1/2+y,1/2-z
1/2-x,1/2-y,-z
1/2+x,y,-z
1/2-x,y,1/2+z
1/2+x,1/2-y,1/2+z
loop_
_atom_site_type_symbol
_atom_site_label
_atom_site_fract_x
_atom_site_fract_y
_atom_site_fract_z
Si Si1 0.384003 0.057216 0.201468
Si Si2 0.088990 0.292921 0.036974
Si Si3 0.315936 0.839057 0.650084
Si Si4 0.029845 0.033145 0.091842
Si Si5 0.211814 0.947205 0.871764
Si Si6 0.406707 0.642539 0.442143
Si Si7 0.212519 0.334921 0.623412
O O1 0.500000 0.068172 0.250000
O O2 0.358957 0.104066 0.132264
O O3 0.288662 0.053952 0.278128
O O4 0.397338 0.003589 0.153566
O O5 0.123470 0.303730 0.926001
O O6 0.000000 0.250000 0.045903
O O7 0.201123 0.292279 0.095386
O O8 0.023841 0.338879 0.085275
O O9 0.189935 0.838637 0.624317
O O10 0.324225 0.830964 0.765584
O O11 0.090235 0.082897 0.060372
O O12 0.915829 0.046702 0.141713
O O13 0.000000 0.000000 0.000000
O O14 0.235820 0.889857 0.905491
O O15 0.250000 0.000000 0.923300
O O16 0.385261 0.665342 0.548533
#
# Coordination Sequence:
#
# PCOD9509712 Si02
#       7
#    16  16  16  16  16  16  16
#     4  11  25  41  68 100 147 196 245 308 356 449
#     4  11  25  50  79 111 143 189 248 322 383 449
#     4  10  26  45  74 106 145 198 242 304 385 454
#     4  12  25  40  67  99 146 198 248 296 381 439
#     4  11  22  41  64 103 144 199 252 300 354 452
#     4  11  25  45  71 103 147 192 244 320 371 444
#     4  10  24  47  72 104 155 193 251 307 380 458
#
# _framework density 24.478945
#
# number of rings (size 3 to 8) (size 9 to 14) (size 15 to 20)
#    0.000    1.143    2.857    1.714   12.000    2.857 
#    0.000    4.286    0.000    0.000    0.000    0.000 
#    0.000    0.000    0.000    0.000    0.000    0.000 
#
# Total GULP energy -313174.640228 kJ/mol
# GULP energy per Si atom -5592.404290 kJ/mol
# Density = 2.442323 g / cm^3
# Si number density = 24.478945 Si / 1000 Ang^3
#
#
#
# Elastic Constant Matrix: (Units=GPa)
#
#
# Indices 1 2 3 4 5 6 
#
# 1 112.1771 24.8252 13.4917 0.0000 0.0000 0.0000
# 2 24.8252 95.9611 5.7669 0.0000 0.0000 0.0000
# 3 13.4917 5.7669 53.3170 0.0000 0.0000 0.0000
# 4 0.0000 0.0000 0.0000 19.5467 0.0000 0.0000
# 5 0.0000 0.0000 0.0000 0.0000 20.3811 0.0000
# 6 0.0000 0.0000 0.0000 0.0000 0.0000 51.1585
#
#
#
# Elastic Compliance Matrix: (Units=1/GPa)
#
#
# Indices 1 2 3 4 5 6 
#
# 1 0.009705 -0.002379 -0.002199 0.000000 0.000000 0.000000
# 2 -0.002379 0.011072 -0.000596 0.000000 0.000000 0.000000
# 3 -0.002199 -0.000596 0.019377 0.000000 0.000000 0.000000
# 4 0.000000 0.000000 0.000000 0.051160 0.000000 0.000000
# 5 0.000000 0.000000 0.000000 0.000000 0.049065 0.000000
# 6 0.000000 0.000000 0.000000 0.000000 0.000000 0.019547
#
#
# Mechanical properties :
#
#
# Convention : Reuss Voigt Hill
#
# Bulk Modulus (GPa) = 33.54802 38.84698 36.19750
# Shear Modulus (GPa) = 27.74579 32.70867 30.22723
#
# Velocity S-wave (km/s) = 3.37033 3.65937 3.51782
# Velocity P-wave (km/s) = 5.37402 5.81022 5.59637
#
# Compressibility (1/GPa) = 0.02980802
#
# Stress axis : x y z
#
# Youngs Moduli (GPa) = 103.03641 90.31760 51.60884
#
# Poissons Ratio (x) = 0.21483 0.11347
# Poissons Ratio (y) = 0.24509 0.03074
# Poissons Ratio (z) = 0.22654 0.05380
#
# Static dielectric constant tensor:
#      x y z
#    x 1.893220 0.000000 0.000000 
#    y 0.000000 2.044570 0.000000 
#    z 0.000000 0.000000 1.942400 
# 
# From -- ./inp_files/21243.got.cif
#   From: 2010.05.17/outbox.cif.g08.bks.cpg/sg68_11_cif.got.tgz:21243.got - 2010.06.03 18:57:09.
