data_PCOD9509863
_publ_section_title
;
Structure prediction by ZEFSAII (Michael W. Deem and Ramdas Pophale) SiO2 
 PCOD9509863
Probable space group: C C C A
;
_chemical_formula_sum "Si O2"
_cell_formula_units_Z 56
_cell_length_a 18.454889
_cell_length_b 16.721137
_cell_length_c 7.113404
_cell_angle_alpha 90.000000
_cell_angle_beta 90.000000
_cell_angle_gamma 90.000000
_cell_volume 2195.102060
_symmetry_space_group_name_H-M "C C C A"
_symmetry_group_IT_number 68
_space_group.IT_coordinate_system_code '2'
_symmetry_cell_setting 'orthorhombic'
loop_
_space_group_symop_operation_xyz
x,y,z
-x,1/2-y,z
x,1/2-y,1/2-z
-x,y,1/2-z
-x,-y,-z
x,1/2+y,-z
-x,1/2+y,1/2+z
x,-y,1/2+z
1/2+x,1/2+y,z
1/2-x,-y,z
1/2+x,-y,1/2-z
1/2-x,1/2+y,1/2-z
1/2-x,1/2-y,-z
1/2+x,y,-z
1/2-x,y,1/2+z
1/2+x,1/2-y,1/2+z
loop_
_atom_site_type_symbol
_atom_site_label
_atom_site_fract_x
_atom_site_fract_y
_atom_site_fract_z
Si Si1 0.454649 0.916993 0.012046
Si Si2 0.750000 0.000000 0.067759
Si Si3 0.592217 0.330614 0.865348
Si Si4 0.660972 0.097154 0.312132
O O1 0.593459 0.906781 0.672901
O O2 0.515795 0.848149 0.032302
O O3 0.409260 0.900193 0.204501
O O4 0.500000 0.000000 0.000000
O O5 0.730396 0.080659 0.181282
O O6 0.821890 0.022581 0.952244
O O7 0.598254 0.250000 0.750000
O O8 0.648906 0.333636 0.037192
#
# Coordination Sequence:
#
# PCOD9509863 Si02
#       4
#    16   8  16  16
#     4  11  25  41  79 115 144 190 254 321 399 459
#     4  10  26  44  72 118 148 202 272 318 354 436
#     4  11  27  47  71 113 156 194 244 316 406 471
#     4  11  25  44  73 105 158 193 254 316 372 446
#
# _framework density 25.511341000000002
#
# number of rings (size 3 to 8) (size 9 to 14) (size 15 to 20)
#    0.000    1.143    0.000    4.286   28.000    1.143 
#    0.000    7.143    0.000    0.000    0.000    0.000 
#    0.000    0.000    0.000    0.000    0.000    0.000 
#
# Total GULP energy -156103.698693 kJ/mol
# GULP energy per Si atom -5575.132096 kJ/mol
# Density = 2.545328 g / cm^3
# Si number density = 25.511341 Si / 1000 Ang^3
#
#
#
# Elastic Constant Matrix: (Units=GPa)
#
#
# Indices 1 2 3 4 5 6 
#
# 1 96.1553 51.8373 95.8530 0.0000 0.0000 0.0000
# 2 51.8373 109.4617 73.3789 0.0000 0.0000 0.0000
# 3 95.8530 73.3789 208.9946 0.0000 0.0000 0.0000
# 4 0.0000 0.0000 0.0000 33.9438 0.0000 0.0000
# 5 0.0000 0.0000 0.0000 0.0000 40.7020 0.0000
# 6 0.0000 0.0000 0.0000 0.0000 0.0000 18.9070
#
#
#
# Elastic Compliance Matrix: (Units=1/GPa)
#
#
# Indices 1 2 3 4 5 6 
#
# 1 0.020728 -0.004503 -0.007926 0.000000 0.000000 0.000000
# 2 -0.004503 0.012926 -0.002473 0.000000 0.000000 0.000000
# 3 -0.007926 -0.002473 0.009288 0.000000 0.000000 0.000000
# 4 0.000000 0.000000 0.000000 0.029460 0.000000 0.000000
# 5 0.000000 0.000000 0.000000 0.000000 0.024569 0.000000
# 6 0.000000 0.000000 0.000000 0.000000 0.000000 0.052890
#
#
# Mechanical properties :
#
#
# Convention : Reuss Voigt Hill
#
# Bulk Modulus (GPa) = 76.11154 95.19447 85.65301
# Shear Modulus (GPa) = 27.16722 31.61341 29.39032
#
# Velocity S-wave (km/s) = 3.26683 3.52403 3.39787
# Velocity P-wave (km/s) = 6.64295 7.34534 7.00295
#
# Compressibility (1/GPa) = 0.01313861
#
# Stress axis : x y z
#
# Youngs Moduli (GPa) = 48.24333 77.36358 107.66398
#
# Poissons Ratio (x) = 0.34838 0.85331
# Poissons Ratio (y) = 0.21724 0.26626
# Poissons Ratio (z) = 0.38236 0.19133
#
# Static dielectric constant tensor:
#      x y z
#    x 2.105740 0.000000 0.000000 
#    y 0.000000 2.020030 0.000000 
#    z 0.000000 0.000000 2.171830 
# 
# From -- ./inp_files/6718.got.cif
#   From: 2010.05.17/outbox.cif.g08.bks.cpg/sg68_4_cif.got.tgz:6718.got - 2010.06.03 18:57:09.
