data_PCOD9509943
_publ_section_title
;
Structure prediction by ZEFSAII (Michael W. Deem and Ramdas Pophale) SiO2 
 PCOD9509943
Probable space group: C C C A
;
_chemical_formula_sum "Si O2"
_cell_formula_units_Z 64
_cell_length_a 16.957738
_cell_length_b 6.959206
_cell_length_c 22.441427
_cell_angle_alpha 90.000000
_cell_angle_beta 90.000000
_cell_angle_gamma 90.000000
_cell_volume 2648.366481
_symmetry_space_group_name_H-M "C C C A"
_symmetry_group_IT_number 68
_space_group.IT_coordinate_system_code '2'
_symmetry_cell_setting 'orthorhombic'
loop_
_space_group_symop_operation_xyz
x,y,z
-x,1/2-y,z
x,1/2-y,1/2-z
-x,y,1/2-z
-x,-y,-z
x,1/2+y,-z
-x,1/2+y,1/2+z
x,-y,1/2+z
1/2+x,1/2+y,z
1/2-x,-y,z
1/2+x,-y,1/2-z
1/2-x,1/2+y,1/2-z
1/2-x,1/2-y,-z
1/2+x,y,-z
1/2-x,y,1/2+z
1/2+x,1/2-y,1/2+z
loop_
_atom_site_type_symbol
_atom_site_label
_atom_site_fract_x
_atom_site_fract_y
_atom_site_fract_z
Si Si1 0.312994 0.374516 0.011275
Si Si2 0.334770 0.416368 0.705953
Si Si3 0.835014 0.596707 0.613363
Si Si4 0.909546 0.771148 0.131231
O O1 0.369239 0.391851 0.952973
O O2 0.287916 0.626394 0.011682
O O3 0.356849 0.335272 0.073788
O O4 0.363345 0.250000 0.750000
O O5 0.250000 0.500000 0.726702
O O6 0.321172 0.295107 0.645545
O O7 0.392252 0.584642 0.685419
O O8 0.750000 0.500000 0.604916
O O9 0.882548 0.441555 0.650544
O O10 0.000000 0.750000 0.114495
#
# Coordination Sequence:
#
# PCOD9509943 Si02
#       4
#    16  16  16  16
#     4  11  19  39  70 104 145 192 241 294 347 440
#     4  12  26  47  80 106 134 192 262 308 355 442
#     4  11  22  43  72 106 145 191 247 296 358 438
#     4  12  27  45  70 113 157 193 237 306 379 437
#
# _framework density 24.165838000000001
#
# number of rings (size 3 to 8) (size 9 to 14) (size 15 to 20)
#    0.000    0.500    7.500    3.000    0.000    2.000 
#    0.000    3.750    0.000    0.000    0.000    0.000 
#    0.000    0.000    0.000    0.000    0.000    0.000 
#
# Total GULP energy -178479.930824 kJ/mol
# GULP energy per Si atom -5577.497838 kJ/mol
# Density = 2.411084 g / cm^3
# Si number density = 24.165838 Si / 1000 Ang^3
#
#
#
# Elastic Constant Matrix: (Units=GPa)
#
#
# Indices 1 2 3 4 5 6 
#
# 1 97.2246 33.8420 19.6427 0.0000 0.0000 0.0000
# 2 33.8420 151.6954 28.5253 0.0000 0.0000 0.0000
# 3 19.6427 28.5253 89.2261 0.0000 0.0000 0.0000
# 4 0.0000 0.0000 0.0000 57.0176 0.0000 0.0000
# 5 0.0000 0.0000 0.0000 0.0000 5.4979 0.0000
# 6 0.0000 0.0000 0.0000 0.0000 0.0000 16.1000
#
#
#
# Elastic Compliance Matrix: (Units=1/GPa)
#
#
# Indices 1 2 3 4 5 6 
#
# 1 0.011419 -0.002208 -0.001808 0.000000 0.000000 0.000000
# 2 -0.002208 0.007441 -0.001893 0.000000 0.000000 0.000000
# 3 -0.001808 -0.001893 0.012211 0.000000 0.000000 0.000000
# 4 0.000000 0.000000 0.000000 0.017538 0.000000 0.000000
# 5 0.000000 0.000000 0.000000 0.000000 0.181889 0.000000
# 6 0.000000 0.000000 0.000000 0.000000 0.000000 0.062112
#
#
# Mechanical properties :
#
#
# Convention : Reuss Voigt Hill
#
# Bulk Modulus (GPa) = 51.93845 55.79624 53.86735
# Shear Modulus (GPa) = 16.08522 32.79883 24.44203
#
# Velocity S-wave (km/s) = 2.58276 3.68807 3.18375
# Velocity P-wave (km/s) = 5.51664 6.42455 5.98783
#
# Compressibility (1/GPa) = 0.01925356
#
# Stress axis : x y z
#
# Youngs Moduli (GPa) = 87.57213 134.39863 81.89577
#
# Poissons Ratio (x) = 0.29669 0.14808
# Poissons Ratio (y) = 0.19332 0.15501
# Poissons Ratio (z) = 0.15834 0.25438
#
# Static dielectric constant tensor:
#      x y z
#    x 1.919060 0.000000 0.000000 
#    y 0.000000 2.606290 0.000000 
#    z 0.000000 0.000000 1.966150 
# 
# From -- ./inp_files/42037.got.cif
#   From: 2010.05.17/outbox.cif.g08.bks.cpg/sg68_22_cif.got.tgz:42037.got - 2010.06.03 18:57:09.
