data_PCOD9509692
_publ_section_title
;
Structure prediction by ZEFSAII (Michael W. Deem and Ramdas Pophale) SiO2 
 PCOD9509692
Probable space group: C C C A
;
_chemical_formula_sum "Si O2"
_cell_formula_units_Z 56
_cell_length_a 17.433027
_cell_length_b 14.532515
_cell_length_c 7.891594
_cell_angle_alpha 90.000000
_cell_angle_beta 90.000000
_cell_angle_gamma 90.000000
_cell_volume 1999.301614
_symmetry_space_group_name_H-M "C C C A"
_symmetry_group_IT_number 68
_space_group.IT_coordinate_system_code '2'
_symmetry_cell_setting 'orthorhombic'
loop_
_space_group_symop_operation_xyz
x,y,z
-x,1/2-y,z
x,1/2-y,1/2-z
-x,y,1/2-z
-x,-y,-z
x,1/2+y,-z
-x,1/2+y,1/2+z
x,-y,1/2+z
1/2+x,1/2+y,z
1/2-x,-y,z
1/2+x,-y,1/2-z
1/2-x,1/2+y,1/2-z
1/2-x,1/2-y,-z
1/2+x,y,-z
1/2-x,y,1/2+z
1/2+x,1/2-y,1/2+z
loop_
_atom_site_type_symbol
_atom_site_label
_atom_site_fract_x
_atom_site_fract_y
_atom_site_fract_z
Si Si1 0.500000 0.000000 0.500000
Si Si2 0.590818 0.186447 0.586897
Si Si3 0.230238 0.893820 0.723090
Si Si4 0.875197 0.857439 0.107788
O O1 0.537536 0.098347 0.560071
O O2 0.434857 0.058393 0.383875
O O3 0.574574 0.250000 0.750000
O O4 0.675509 0.147535 0.631718
O O5 0.586822 0.261064 0.438578
O O6 0.179997 0.880629 0.554635
O O7 0.314782 0.852241 0.739775
O O8 0.250000 0.000000 0.747752
#
# Coordination Sequence:
#
# PCOD9509692 Si02
#       4
#     8  16  16  16
#     4  12  24  46  76 114 158 210 264 332 402 506
#     4  10  24  46  76 112 156 214 269 337 412 482
#     4  11  22  45  74 110 155 205 271 334 397 478
#     4  11  25  45  74 114 153 209 268 336 409 481
#
# _framework density 28.009782999999999
#
# number of rings (size 3 to 8) (size 9 to 14) (size 15 to 20)
#    0.000    1.143    2.857    2.571    0.000    8.000 
#    0.000    0.000    0.000    0.000    0.000    0.000 
#    0.000    0.000    0.000    0.000    0.000    0.000 
#
# Total GULP energy -156077.497456 kJ/mol
# GULP energy per Si atom -5574.196338 kJ/mol
# Density = 2.794603 g / cm^3
# Si number density = 28.009783 Si / 1000 Ang^3
#
#
#
# Elastic Constant Matrix: (Units=GPa)
#
#
# Indices 1 2 3 4 5 6 
#
# 1 177.1662 88.6570 30.1030 0.0000 0.0000 0.0000
# 2 88.6570 324.4640 36.2243 0.0000 0.0000 0.0000
# 3 30.1030 36.2243 117.0971 0.0000 0.0000 0.0000
# 4 0.0000 0.0000 0.0000 15.6480 0.0000 0.0000
# 5 0.0000 0.0000 0.0000 0.0000 4.4906 0.0000
# 6 0.0000 0.0000 0.0000 0.0000 0.0000 66.2308
#
#
#
# Elastic Compliance Matrix: (Units=1/GPa)
#
#
# Indices 1 2 3 4 5 6 
#
# 1 0.006697 -0.001696 -0.001197 0.000000 0.000000 0.000000
# 2 -0.001696 0.003622 -0.000684 0.000000 0.000000 0.000000
# 3 -0.001197 -0.000684 0.009059 0.000000 0.000000 0.000000
# 4 0.000000 0.000000 0.000000 0.063906 0.000000 0.000000
# 5 0.000000 0.000000 0.000000 0.000000 0.222690 0.000000
# 6 0.000000 0.000000 0.000000 0.000000 0.000000 0.015099
#
#
# Mechanical properties :
#
#
# Convention : Reuss Voigt Hill
#
# Bulk Modulus (GPa) = 81.81294 103.18842 92.50068
# Shear Modulus (GPa) = 15.04659 48.19006 31.61833
#
# Velocity S-wave (km/s) = 2.32025 4.15236 3.36345
# Velocity P-wave (km/s) = 6.03740 7.74013 6.94117
#
# Compressibility (1/GPa) = 0.01222301
#
# Stress axis : x y z
#
# Youngs Moduli (GPa) = 149.33034 276.10005 110.38363
#
# Poissons Ratio (x) = 0.46831 0.13211
# Poissons Ratio (y) = 0.25329 0.07555
# Poissons Ratio (z) = 0.17872 0.18896
#
# Static dielectric constant tensor:
#      x y z
#    x 2.241970 0.000000 0.000000 
#    y 0.000000 2.023950 0.000000 
#    z 0.000000 0.000000 2.465810 
# 
# From -- ./inp_files/6647.got.cif
#   From: 2010.05.17/outbox.cif.g08.bks.cpg/sg68_4_cif.got.tgz:6647.got - 2010.06.03 18:57:09.
