data_PCOD9509493
_publ_section_title
;
Structure prediction by ZEFSAII (Michael W. Deem and Ramdas Pophale) SiO2 
 PCOD9509493
Probable space group: C C C A
;
_chemical_formula_sum "Si O2"
_cell_formula_units_Z 64
_cell_length_a 5.676773
_cell_length_b 14.801868
_cell_length_c 34.959467
_cell_angle_alpha 90.000000
_cell_angle_beta 90.000000
_cell_angle_gamma 90.000000
_cell_volume 2937.533701
_symmetry_space_group_name_H-M "C C C A"
_symmetry_group_IT_number 68
_space_group.IT_coordinate_system_code '2'
_symmetry_cell_setting 'orthorhombic'
loop_
_space_group_symop_operation_xyz
x,y,z
-x,1/2-y,z
x,1/2-y,1/2-z
-x,y,1/2-z
-x,-y,-z
x,1/2+y,-z
-x,1/2+y,1/2+z
x,-y,1/2+z
1/2+x,1/2+y,z
1/2-x,-y,z
1/2+x,-y,1/2-z
1/2-x,1/2+y,1/2-z
1/2-x,1/2-y,-z
1/2+x,y,-z
1/2-x,y,1/2+z
1/2+x,1/2-y,1/2+z
loop_
_atom_site_type_symbol
_atom_site_label
_atom_site_fract_x
_atom_site_fract_y
_atom_site_fract_z
Si Si1 0.000000 0.445157 0.250000
Si Si2 0.130416 0.656547 0.597625
Si Si3 0.271071 0.896618 0.486325
Si Si4 0.500000 0.250000 0.149076
Si Si5 0.350972 0.600978 0.328759
O O1 0.250000 0.500000 0.249745
O O2 0.995616 0.392005 0.290202
O O3 0.184593 0.604786 0.558992
O O4 0.360999 0.684000 0.620778
O O5 0.000000 0.750000 0.586809
O O6 0.976265 0.609324 0.630245
O O7 0.511490 0.856627 0.504678
O O8 0.250000 0.000000 0.500865
O O9 0.668855 0.315860 0.172615
O O10 0.250000 0.500000 0.328119
#
# Coordination Sequence:
#
# PCOD9509493 Si02
#       5
#     8  16  16   8  16
#     4  10  24  44  73 107 136 182 242 276 350 427
#     4  10  24  42  64  99 134 177 232 280 348 418
#     4  10  24  41  64  96 131 173 229 284 342 413
#     4  10  24  44  65 108 136 176 244 276 352 425
#     4  10  24  43  75  99 141 186 231 294 346 417
#
# _framework density 21.786984
#
# number of rings (size 3 to 8) (size 9 to 14) (size 15 to 20)
#    0.000    2.000    0.000    0.000   17.500    2.000 
#    0.000    6.875    0.000    0.000    0.000    0.000 
#    0.000    0.000    0.000    0.000    0.000    0.000 
#
# Total GULP energy -178443.215076 kJ/mol
# GULP energy per Si atom -5576.350471 kJ/mol
# Density = 2.173740 g / cm^3
# Si number density = 21.786984 Si / 1000 Ang^3
#
#
#
# Elastic Constant Matrix: (Units=GPa)
#
#
# Indices 1 2 3 4 5 6 
#
# 1 140.7794 27.3844 61.1870 0.0000 0.0000 0.0000
# 2 27.3844 42.8482 59.4820 0.0000 0.0000 0.0000
# 3 61.1870 59.4820 129.5965 0.0000 0.0000 0.0000
# 4 0.0000 0.0000 0.0000 115.5917 0.0000 0.0000
# 5 0.0000 0.0000 0.0000 0.0000 512.8727 0.0000
# 6 0.0000 0.0000 0.0000 0.0000 0.0000 2.4108
#
#
#
# Elastic Compliance Matrix: (Units=1/GPa)
#
#
# Indices 1 2 3 4 5 6 
#
# 1 0.008940 0.000402 -0.004405 0.000000 0.000000 0.000000
# 2 0.000402 0.064338 -0.029720 0.000000 0.000000 0.000000
# 3 -0.004405 -0.029720 0.023437 0.000000 0.000000 0.000000
# 4 0.000000 0.000000 0.000000 0.008651 0.000000 0.000000
# 5 0.000000 0.000000 0.000000 0.000000 0.001950 0.000000
# 6 0.000000 0.000000 0.000000 0.000000 0.000000 0.414806
#
#
# Mechanical properties :
#
#
# Convention : Reuss Voigt Hill
#
# Bulk Modulus (GPa) = 34.16598 67.70345 50.93472
# Shear Modulus (GPa) = 8.34273 137.18641 72.76457
#
# Velocity S-wave (km/s) = 1.95896 7.94379 5.78539
# Velocity P-wave (km/s) = 4.56427 10.73690 8.24966
#
# Compressibility (1/GPa) = 0.02926888
#
# Stress axis : x y z
#
# Youngs Moduli (GPa) = 111.85945 15.54292 42.66801
#
# Poissons Ratio (x) = -0.00625 0.18797
# Poissons Ratio (y) = -0.04497 1.26807
# Poissons Ratio (z) = 0.49277 0.46193
#
# Static dielectric constant tensor:
#      x y z
#    x 1.872050 0.000000 0.000000 
#    y 0.000000 1.828680 0.000000 
#    z 0.000000 0.000000 1.742660 
# 
# From -- ./inp_files/52937.got.cif
#   From: 2010.05.17/outbox.cif.g08.bks.cpg/sg68_27_cif.got.tgz:52937.got - 2010.06.03 18:57:09.
