data_PCOD9509258
_publ_section_title
;
Structure prediction by ZEFSAII (Michael W. Deem and Ramdas Pophale) SiO2 
 PCOD9509258
Probable space group: C C C A
;
_chemical_formula_sum "Si O2"
_cell_formula_units_Z 116
_cell_length_a 18.526142
_cell_length_b 25.347184
_cell_length_c 11.054996
_cell_angle_alpha 90.000000
_cell_angle_beta 90.000000
_cell_angle_gamma 90.000000
_cell_volume 5191.266157
_symmetry_space_group_name_H-M "C C C A"
_symmetry_group_IT_number 68
_space_group.IT_coordinate_system_code '2'
_symmetry_cell_setting 'orthorhombic'
loop_
_space_group_symop_operation_xyz
x,y,z
-x,1/2-y,z
x,1/2-y,1/2-z
-x,y,1/2-z
-x,-y,-z
x,1/2+y,-z
-x,1/2+y,1/2+z
x,-y,1/2+z
1/2+x,1/2+y,z
1/2-x,-y,z
1/2+x,-y,1/2-z
1/2-x,1/2+y,1/2-z
1/2-x,1/2-y,-z
1/2+x,y,-z
1/2-x,y,1/2+z
1/2+x,1/2-y,1/2+z
loop_
_atom_site_type_symbol
_atom_site_label
_atom_site_fract_x
_atom_site_fract_y
_atom_site_fract_z
Si Si1 0.500000 0.250000 0.250000
Si Si2 0.340586 0.445124 0.874133
Si Si3 0.379248 0.172601 0.200414
Si Si4 0.777376 0.802531 0.815208
Si Si5 0.171097 0.435393 0.901806
Si Si6 0.515925 0.188809 0.607152
Si Si7 0.121665 0.148914 0.980896
Si Si8 0.349189 0.619321 0.148022
O O1 0.447463 0.210309 0.176157
O O2 0.253841 0.438913 0.855636
O O3 0.359729 0.506209 0.884632
O O4 0.357780 0.411844 0.994654
O O5 0.377769 0.415940 0.760241
O O6 0.306318 0.199520 0.150606
O O7 0.374755 0.111972 0.157367
O O8 0.374520 0.169218 0.345680
O O9 0.803140 0.750000 0.750000
O O10 0.825700 0.818546 0.928961
O O11 0.786936 0.846646 0.711493
O O12 0.175592 0.418819 0.042100
O O13 0.500000 0.250000 0.579189
O O14 0.500000 0.183752 0.750000
O O15 0.458577 0.156282 0.530681
O O16 0.594089 0.161911 0.595607
#
# Coordination Sequence:
#
# PCOD9509258 Si02
#       8
#     4  16  16  16  16  16  16  16
#     4  12  32  52  60  96 154 202 224 268 362 430
#     4  10  23  42  71 105 132 173 233 302 347 399
#     4  12  27  46  66  99 145 187 230 279 352 433
#     4  11  22  42  69 103 129 176 235 300 340 402
#     4  11  25  43  71 100 139 184 226 285 363 414
#     4  11  22  42  69  99 138 180 226 286 348 404
#     4  11  24  42  69 103 138 176 236 288 344 415
#     4  11  23  42  69 104 138 175 235 281 346 421
#
# _framework density 22.345222
#
# number of rings (size 3 to 8) (size 9 to 14) (size 15 to 20)
#    0.000    0.966    6.207    1.655    4.828    2.759 
#    0.000    2.069    0.000    0.000    0.000    0.000 
#    0.000    0.000    0.000    0.000    0.000    0.000 
#
# Total GULP energy -324290.385777 kJ/mol
# GULP energy per Si atom -5591.213548 kJ/mol
# Density = 2.229436 g / cm^3
# Si number density = 22.345222 Si / 1000 Ang^3
#
#
#
# Elastic Constant Matrix: (Units=GPa)
#
#
# Indices 1 2 3 4 5 6 
#
# 1 94.5719 22.3039 13.8833 0.0000 0.0000 0.0000
# 2 22.3039 167.2671 35.0248 0.0000 0.0000 0.0000
# 3 13.8833 35.0248 91.3030 0.0000 0.0000 0.0000
# 4 0.0000 0.0000 0.0000 17.9573 0.0000 0.0000
# 5 0.0000 0.0000 0.0000 0.0000 25.6830 0.0000
# 6 0.0000 0.0000 0.0000 0.0000 0.0000 32.6967
#
#
#
# Elastic Compliance Matrix: (Units=1/GPa)
#
#
# Indices 1 2 3 4 5 6 
#
# 1 0.011039 -0.001218 -0.001211 0.000000 0.000000 0.000000
# 2 -0.001218 0.006635 -0.002360 0.000000 0.000000 0.000000
# 3 -0.001211 -0.002360 0.012042 0.000000 0.000000 0.000000
# 4 0.000000 0.000000 0.000000 0.055688 0.000000 0.000000
# 5 0.000000 0.000000 0.000000 0.000000 0.038936 0.000000
# 6 0.000000 0.000000 0.000000 0.000000 0.000000 0.030584
#
#
# Mechanical properties :
#
#
# Convention : Reuss Voigt Hill
#
# Bulk Modulus (GPa) = 49.65969 55.06289 52.36129
# Shear Modulus (GPa) = 29.20287 34.06271 31.63279
#
# Velocity S-wave (km/s) = 3.61902 3.90857 3.76658
# Velocity P-wave (km/s) = 6.30359 6.71302 6.51152
#
# Compressibility (1/GPa) = 0.02013706
#
# Stress axis : x y z
#
# Youngs Moduli (GPa) = 90.58694 150.71365 83.04232
#
# Poissons Ratio (x) = 0.18363 0.10058
# Poissons Ratio (y) = 0.11037 0.19598
# Poissons Ratio (z) = 0.10972 0.35569
#
# Static dielectric constant tensor:
#      x y z
#    x 1.839160 0.000000 0.000000 
#    y 0.000000 1.843960 0.000000 
#    z 0.000000 0.000000 1.840570 
# 
# From -- ./inp_files/14819.got.cif
#   From: 2010.05.17/outbox.cif.g08.bks.cpg/sg68_8_cif.got.tgz:14819.got - 2010.06.03 18:57:09.
