data_PCOD9509082
_publ_section_title
;
Structure prediction by ZEFSAII (Michael W. Deem and Ramdas Pophale) SiO2 
 PCOD9509082
Probable space group: C C C A
;
_chemical_formula_sum "Si O2"
_cell_formula_units_Z 100
_cell_length_a 30.250544
_cell_length_b 19.625412
_cell_length_c 7.426413
_cell_angle_alpha 90.000000
_cell_angle_beta 90.000000
_cell_angle_gamma 90.000000
_cell_volume 4408.908334
_symmetry_space_group_name_H-M "C C C A"
_symmetry_group_IT_number 68
_space_group.IT_coordinate_system_code '2'
_symmetry_cell_setting 'orthorhombic'
loop_
_space_group_symop_operation_xyz
x,y,z
-x,1/2-y,z
x,1/2-y,1/2-z
-x,y,1/2-z
-x,-y,-z
x,1/2+y,-z
-x,1/2+y,1/2+z
x,-y,1/2+z
1/2+x,1/2+y,z
1/2-x,-y,z
1/2+x,-y,1/2-z
1/2-x,1/2+y,1/2-z
1/2-x,1/2-y,-z
1/2+x,y,-z
1/2-x,y,1/2+z
1/2+x,1/2-y,1/2+z
loop_
_atom_site_type_symbol
_atom_site_label
_atom_site_fract_x
_atom_site_fract_y
_atom_site_fract_z
Si Si1 0.102808 0.568632 0.193066
Si Si2 0.000000 0.750000 0.750000
Si Si3 0.204833 0.102996 0.503464
Si Si4 0.579353 0.677542 0.068531
Si Si5 0.114294 0.919203 0.879576
Si Si6 0.804243 0.400148 0.901421
Si Si7 0.829332 0.753476 0.963271
O O1 0.107284 0.589312 0.404000
O O2 0.091830 0.489279 0.182216
O O3 0.146463 0.573634 0.059015
O O4 0.073073 0.623403 0.091404
O O5 0.033101 0.708708 0.876832
O O6 0.168093 0.078326 0.362577
O O7 0.196493 0.073467 0.697885
O O8 0.255174 0.085190 0.466462
O O9 0.192471 0.183270 0.528856
O O10 0.597400 0.640410 0.250459
O O11 0.618040 0.731825 0.013308
O O12 0.807807 0.319281 0.944049
O O13 0.820545 0.750000 0.750000
#
# Coordination Sequence:
#
# PCOD9509082 Si02
#       7
#    16   4  16  16  16  16  16
#     4  10  23  40  67  94 127 175 217 256 316 378
#     4  12  24  48  78 108 124 166 192 262 330 388
#     4  11  21  34  53  85 124 170 224 270 313 357
#     4  11  23  44  70  97 131 159 212 258 328 393
#     4  11  21  41  67  92 127 178 213 258 316 377
#     4  10  23  33  52  87 122 170 223 271 311 361
#     4  11  19  36  57  80 118 168 200 262 318 374
#
# _framework density 22.681352
#
# number of rings (size 3 to 8) (size 9 to 14) (size 15 to 20)
#    0.000    1.280    4.000    1.920    2.240    0.640 
#    0.000    6.400    0.000    0.000    0.000    0.000 
#    0.000    0.000    0.000    0.000    0.000    0.000 
#
# Total GULP energy -278767.422513 kJ/mol
# GULP energy per Si atom -5575.348450 kJ/mol
# Density = 2.262973 g / cm^3
# Si number density = 22.681352 Si / 1000 Ang^3
#
#
#
# Elastic Constant Matrix: (Units=GPa)
#
#
# Indices 1 2 3 4 5 6 
#
# 1 103.3518 11.2887 22.9217 0.0000 0.0000 0.0000
# 2 11.2887 77.4578 -3.0374 0.0000 0.0000 0.0000
# 3 22.9217 -3.0374 72.0359 0.0000 0.0000 0.0000
# 4 0.0000 0.0000 0.0000 -0.2048 0.0000 0.0000
# 5 0.0000 0.0000 0.0000 0.0000 4.1672 0.0000
# 6 0.0000 0.0000 0.0000 0.0000 0.0000 -1.8047
#
#
#
# Elastic Compliance Matrix: (Units=1/GPa)
#
#
# Indices 1 2 3 4 5 6 
#
# 1 0.010625 -0.001684 -0.003452 0.000000 0.000000 0.000000
# 2 -0.001684 0.013198 0.001092 0.000000 0.000000 0.000000
# 3 -0.003452 0.001092 0.015026 0.000000 0.000000 0.000000
# 4 0.000000 0.000000 0.000000 -4.883362 0.000000 0.000000
# 5 0.000000 0.000000 0.000000 0.000000 0.239967 0.000000
# 6 0.000000 0.000000 0.000000 0.000000 0.000000 -0.554120
#
#
# Mechanical properties :
#
#
# Convention : Reuss Voigt Hill
#
# Bulk Modulus (GPa) = 32.50640 35.02127 33.76384
# Shear Modulus (GPa) = -0.97270 15.20973 7.11851
#
# Velocity S-wave (km/s) = -0.65558 2.59237 1.77350
# Velocity P-wave (km/s) = 3.71347 4.94314 4.37175
#
# Compressibility (1/GPa) = 0.03076317
#
# Stress axis : x y z
#
# Youngs Moduli (GPa) = 94.11595 75.76621 66.54945
#
# Poissons Ratio (x) = 0.12758 0.22972
# Poissons Ratio (y) = 0.15848 -0.07269
# Poissons Ratio (z) = 0.32488 -0.08276
#
# Static dielectric constant tensor:
#      x y z
#    x 1.941310 0.000000 0.000000 
#    y 0.000000 1.945370 0.000000 
#    z 0.000000 0.000000 1.852700 
# 
# From -- ./inp_files/9586.got.cif
#   From: 2010.05.17/outbox.cif.g08.bks.cpg/sg68_5_cif.got.tgz:9586.got - 2010.06.03 18:57:09.
