data_PCOD9509733
_publ_section_title
;
Structure prediction by ZEFSAII (Michael W. Deem and Ramdas Pophale) SiO2 
 PCOD9509733
Probable space group: C C C A
;
_chemical_formula_sum "Si O2"
_cell_formula_units_Z 72
_cell_length_a 9.969602
_cell_length_b 13.451305
_cell_length_c 21.679496
_cell_angle_alpha 90.000000
_cell_angle_beta 90.000000
_cell_angle_gamma 90.000000
_cell_volume 2907.310540
_symmetry_space_group_name_H-M "C C C A"
_symmetry_group_IT_number 68
_space_group.IT_coordinate_system_code '2'
_symmetry_cell_setting 'orthorhombic'
loop_
_space_group_symop_operation_xyz
x,y,z
-x,1/2-y,z
x,1/2-y,1/2-z
-x,y,1/2-z
-x,-y,-z
x,1/2+y,-z
-x,1/2+y,1/2+z
x,-y,1/2+z
1/2+x,1/2+y,z
1/2-x,-y,z
1/2+x,-y,1/2-z
1/2-x,1/2+y,1/2-z
1/2-x,1/2-y,-z
1/2+x,y,-z
1/2-x,y,1/2+z
1/2+x,1/2-y,1/2+z
loop_
_atom_site_type_symbol
_atom_site_label
_atom_site_fract_x
_atom_site_fract_y
_atom_site_fract_z
Si Si1 0.805976 0.363020 0.984893
Si Si2 0.147670 0.209571 0.817221
Si Si3 0.100893 0.164509 0.397133
Si Si4 0.750000 0.500000 0.592694
Si Si5 0.977303 0.545404 0.371668
O O1 0.668858 0.397613 0.952327
O O2 0.919501 0.394917 0.934000
O O3 0.750000 0.250000 0.000000
O O4 0.826182 0.423653 0.047025
O O5 0.175722 0.250000 0.750000
O O6 0.277023 0.217394 0.860828
O O7 0.112047 0.093316 0.818499
O O8 0.000000 0.250000 0.837834
O O9 0.000000 0.250000 0.417426
O O10 0.037005 0.073022 0.361643
O O11 0.637123 0.559739 0.628991
#
# Coordination Sequence:
#
# PCOD9509733 Si02
#       5
#    16  16  16   8  16
#     4  11  23  38  64 101 150 205 238 285 344 435
#     4  10  24  48  73  98 132 181 239 309 378 432
#     4  11  24  45  70 106 147 186 242 302 363 437
#     4  12  24  38  66 108 154 206 242 276 368 436
#     4  11  25  44  68 105 149 191 247 300 356 445
#
# _framework density 24.765156999999999
#
# number of rings (size 3 to 8) (size 9 to 14) (size 15 to 20)
#    0.000    1.111    2.222    4.000   12.444    0.444 
#    0.000    8.889    0.000    0.000    0.000    0.000 
#    0.000    0.000    0.000    0.000    0.000    0.000 
#
# Total GULP energy -200471.503903 kJ/mol
# GULP energy per Si atom -5568.652886 kJ/mol
# Density = 2.470879 g / cm^3
# Si number density = 24.765157 Si / 1000 Ang^3
#
#
#
# Elastic Constant Matrix: (Units=GPa)
#
#
# Indices 1 2 3 4 5 6 
#
# 1 140.4980 15.2556 29.6389 0.0000 0.0000 0.0000
# 2 15.2556 82.2730 16.2773 0.0000 0.0000 0.0000
# 3 29.6389 16.2773 69.5802 0.0000 0.0000 0.0000
# 4 0.0000 0.0000 0.0000 23.6279 0.0000 0.0000
# 5 0.0000 0.0000 0.0000 0.0000 21.8400 0.0000
# 6 0.0000 0.0000 0.0000 0.0000 0.0000 47.6752
#
#
#
# Elastic Compliance Matrix: (Units=1/GPa)
#
#
# Indices 1 2 3 4 5 6 
#
# 1 0.007875 -0.000835 -0.003159 0.000000 0.000000 0.000000
# 2 -0.000835 0.012833 -0.002646 0.000000 0.000000 0.000000
# 3 -0.003159 -0.002646 0.016337 0.000000 0.000000 0.000000
# 4 0.000000 0.000000 0.000000 0.042323 0.000000 0.000000
# 5 0.000000 0.000000 0.000000 0.000000 0.045788 0.000000
# 6 0.000000 0.000000 0.000000 0.000000 0.000000 0.020975
#
#
# Mechanical properties :
#
#
# Convention : Reuss Voigt Hill
#
# Bulk Modulus (GPa) = 42.08167 46.07721 44.07944
# Shear Modulus (GPa) = 29.88070 34.04057 31.96063
#
# Velocity S-wave (km/s) = 3.47733 3.71149 3.59632
# Velocity P-wave (km/s) = 5.75774 6.08383 5.92303
#
# Compressibility (1/GPa) = 0.02376332
#
# Stress axis : x y z
#
# Youngs Moduli (GPa) = 126.99012 77.92361 61.21222
#
# Poissons Ratio (x) = 0.06508 0.19337
# Poissons Ratio (y) = 0.10606 0.16199
# Poissons Ratio (z) = 0.40116 0.20621
#
# Static dielectric constant tensor:
#      x y z
#    x 2.049370 0.000000 0.000000 
#    y 0.000000 2.217810 0.000000 
#    z 0.000000 0.000000 2.042030 
# 
# From -- ./inp_files/48920.got.cif
#   From: 2010.05.17/outbox.cif.g08.bks.cpg/sg68_25_cif.got.tgz:48920.got - 2010.06.03 18:57:09.
