data_PCOD9509901
_publ_section_title
;
Structure prediction by ZEFSAII (Michael W. Deem and Ramdas Pophale) SiO2 
 PCOD9509901
Probable space group: C C C A
;
_chemical_formula_sum "Si O2"
_cell_formula_units_Z 108
_cell_length_a 10.301522
_cell_length_b 30.193079
_cell_length_c 15.371397
_cell_angle_alpha 90.000000
_cell_angle_beta 90.000000
_cell_angle_gamma 90.000000
_cell_volume 4781.037356
_symmetry_space_group_name_H-M "C C C A"
_symmetry_group_IT_number 68
_space_group.IT_coordinate_system_code '2'
_symmetry_cell_setting 'orthorhombic'
loop_
_space_group_symop_operation_xyz
x,y,z
-x,1/2-y,z
x,1/2-y,1/2-z
-x,y,1/2-z
-x,-y,-z
x,1/2+y,-z
-x,1/2+y,1/2+z
x,-y,1/2+z
1/2+x,1/2+y,z
1/2-x,-y,z
1/2+x,-y,1/2-z
1/2-x,1/2+y,1/2-z
1/2-x,1/2-y,-z
1/2+x,y,-z
1/2-x,y,1/2+z
1/2+x,1/2-y,1/2+z
loop_
_atom_site_type_symbol
_atom_site_label
_atom_site_fract_x
_atom_site_fract_y
_atom_site_fract_z
Si Si1 0.280070 0.452070 0.564294
Si Si2 0.951071 0.839213 0.994827
Si Si3 0.801812 0.205297 0.957326
Si Si4 0.000000 0.405420 0.750000
Si Si5 0.500000 0.750000 0.750000
Si Si6 0.191177 0.822788 0.244484
Si Si7 0.501653 0.430220 0.436319
Si Si8 0.587242 0.625180 0.327784
O O1 0.250000 0.500000 0.604625
O O2 0.389570 0.453487 0.490056
O O3 0.327259 0.413767 0.629378
O O4 0.142055 0.439426 0.523345
O O5 0.798413 0.830513 0.999506
O O6 0.988883 0.856276 0.899607
O O7 0.048775 0.799683 0.016044
O O8 0.006003 0.877161 0.057406
O O9 0.791460 0.196999 0.853078
O O10 0.750000 0.250000 0.000000
O O11 0.119274 0.370489 0.756717
O O12 0.995937 0.436907 0.833811
O O13 0.400686 0.713859 0.707756
O O14 0.324225 0.834452 0.292687
O O15 0.500000 0.606987 0.250000
#
# Coordination Sequence:
#
# PCOD9509901 Si02
#       8
#    16  16  16   8   4  16  16  16
#     4  11  25  46  74 111 149 188 244 310 380 449
#     4  11  24  42  68  95 133 188 236 286 354 443
#     4  12  26  40  64  98 135 181 234 298 360 418
#     4  11  22  41  72 100 134 192 244 292 350 451
#     4  10  28  40  66  96 136 176 226 310 356 424
#     4  11  24  44  65  98 140 182 244 292 364 432
#     4  11  23  44  74 102 143 189 246 292 371 448
#     4  11  23  45  72 100 140 192 244 299 370 449
#
# _framework density 22.589238999999999
#
# number of rings (size 3 to 8) (size 9 to 14) (size 15 to 20)
#    0.000    0.889    4.444    2.667    4.148    0.000 
#    1.333    1.111    0.000    0.000    0.000    0.000 
#    0.000    0.000    0.000    0.000    0.000    0.000 
#
# Total GULP energy -301501.048340 kJ/mol
# GULP energy per Si atom -5583.352747 kJ/mol
# Density = 2.253782 g / cm^3
# Si number density = 22.589239 Si / 1000 Ang^3
#
#
#
# Elastic Constant Matrix: (Units=GPa)
#
#
# Indices 1 2 3 4 5 6 
#
# 1 122.5934 24.2959 34.7157 0.0000 0.0000 0.0000
# 2 24.2959 90.0529 17.8660 0.0000 0.0000 0.0000
# 3 34.7157 17.8660 129.9963 0.0000 0.0000 0.0000
# 4 0.0000 0.0000 0.0000 12.4576 0.0000 0.0000
# 5 0.0000 0.0000 0.0000 0.0000 26.4298 0.0000
# 6 0.0000 0.0000 0.0000 0.0000 0.0000 21.3299
#
#
#
# Elastic Compliance Matrix: (Units=1/GPa)
#
#
# Indices 1 2 3 4 5 6 
#
# 1 0.009177 -0.002045 -0.002170 0.000000 0.000000 0.000000
# 2 -0.002045 0.011872 -0.001085 0.000000 0.000000 0.000000
# 3 -0.002170 -0.001085 0.008421 0.000000 0.000000 0.000000
# 4 0.000000 0.000000 0.000000 0.080272 0.000000 0.000000
# 5 0.000000 0.000000 0.000000 0.000000 0.037836 0.000000
# 6 0.000000 0.000000 0.000000 0.000000 0.000000 0.046883
#
#
# Mechanical properties :
#
#
# Convention : Reuss Voigt Hill
#
# Bulk Modulus (GPa) = 52.99717 55.15530 54.07624
# Shear Modulus (GPa) = 23.65737 29.76114 26.70926
#
# Velocity S-wave (km/s) = 3.23969 3.63367 3.44232
# Velocity P-wave (km/s) = 6.12424 6.48647 6.30796
#
# Compressibility (1/GPa) = 0.01886893
#
# Stress axis : x y z
#
# Youngs Moduli (GPa) = 108.97062 84.23356 118.74968
#
# Poissons Ratio (x) = 0.17229 0.25763
# Poissons Ratio (y) = 0.22289 0.12889
# Poissons Ratio (z) = 0.23642 0.09142
#
# Static dielectric constant tensor:
#      x y z
#    x 1.854860 0.000000 0.000000 
#    y 0.000000 1.906140 0.000000 
#    z 0.000000 0.000000 1.930640 
# 
# From -- ./inp_files/21315.got.cif
#   From: 2010.05.17/outbox.cif.g08.bks.cpg/sg68_11_cif.got.tgz:21315.got - 2010.06.03 18:57:09.
