data_PCOD9509704
_publ_section_title
;
Structure prediction by ZEFSAII (Michael W. Deem and Ramdas Pophale) SiO2 
 PCOD9509704
Probable space group: C C C A
;
_chemical_formula_sum "Si O2"
_cell_formula_units_Z 88
_cell_length_a 11.914887
_cell_length_b 22.958447
_cell_length_c 14.279033
_cell_angle_alpha 90.000000
_cell_angle_beta 90.000000
_cell_angle_gamma 90.000000
_cell_volume 3905.990948
_symmetry_space_group_name_H-M "C C C A"
_symmetry_group_IT_number 68
_space_group.IT_coordinate_system_code '2'
_symmetry_cell_setting 'orthorhombic'
loop_
_space_group_symop_operation_xyz
x,y,z
-x,1/2-y,z
x,1/2-y,1/2-z
-x,y,1/2-z
-x,-y,-z
x,1/2+y,-z
-x,1/2+y,1/2+z
x,-y,1/2+z
1/2+x,1/2+y,z
1/2-x,-y,z
1/2+x,-y,1/2-z
1/2-x,1/2+y,1/2-z
1/2-x,1/2-y,-z
1/2+x,y,-z
1/2-x,y,1/2+z
1/2+x,1/2-y,1/2+z
loop_
_atom_site_type_symbol
_atom_site_label
_atom_site_fract_x
_atom_site_fract_y
_atom_site_fract_z
Si Si1 0.250000 0.500000 0.480423
Si Si2 0.995906 0.162647 0.149101
Si Si3 0.862506 0.289107 0.654828
Si Si4 0.275914 0.593345 0.116310
Si Si5 0.407805 0.182112 0.448221
Si Si6 0.290151 0.596344 0.325364
O O1 0.319954 0.461088 0.555410
O O2 0.275415 0.551071 0.407657
O O3 0.078217 0.109087 0.172469
O O4 0.000000 0.193588 0.250000
O O5 0.871989 0.142061 0.123562
O O6 0.049814 0.187587 0.054406
O O7 0.864877 0.250000 0.750000
O O8 0.838088 0.239444 0.578745
O O9 0.775980 0.342344 0.659963
O O10 0.982791 0.315520 0.620842
O O11 0.166393 0.624887 0.072226
O O12 0.252327 0.575251 0.223118
#
# Coordination Sequence:
#
# PCOD9509704 Si02
#       6
#     8  16  16  16  16  16
#     4  12  24  46  72 106 146 194 254 308 366 430
#     4  10  24  47  69 105 151 191 244 300 378 438
#     4  11  24  45  75 108 147 185 253 304 365 444
#     4  11  24  45  74 104 146 194 249 300 369 450
#     4  11  22  44  75 106 140 192 242 306 364 443
#     4  11  24  46  74 104 147 194 243 309 366 436
#
# _framework density 22.529492999999999
#
# number of rings (size 3 to 8) (size 9 to 14) (size 15 to 20)
#    0.000    1.091    3.636    2.727    0.000    1.455 
#    6.545    1.818    0.000    0.000    0.000    0.000 
#    0.000    0.000    0.000    0.000    0.000    0.000 
#
# Total GULP energy -245181.906235 kJ/mol
# GULP energy per Si atom -5572.316051 kJ/mol
# Density = 2.247822 g / cm^3
# Si number density = 22.529493 Si / 1000 Ang^3
#
#
#
# Elastic Constant Matrix: (Units=GPa)
#
#
# Indices 1 2 3 4 5 6 
#
# 1 81.8622 26.3498 45.9817 0.0000 0.0000 0.0000
# 2 26.3498 94.7949 65.4926 0.0000 0.0000 0.0000
# 3 45.9817 65.4926 189.4323 0.0000 0.0000 0.0000
# 4 0.0000 0.0000 0.0000 151.4973 0.0000 0.0000
# 5 0.0000 0.0000 0.0000 0.0000 29.6515 0.0000
# 6 0.0000 0.0000 0.0000 0.0000 0.0000 -49.0804
#
#
#
# Elastic Compliance Matrix: (Units=1/GPa)
#
#
# Indices 1 2 3 4 5 6 
#
# 1 0.014454 -0.002094 -0.002784 0.000000 0.000000 0.000000
# 2 -0.002094 0.014163 -0.004388 0.000000 0.000000 0.000000
# 3 -0.002784 -0.004388 0.007472 0.000000 0.000000 0.000000
# 4 0.000000 0.000000 0.000000 0.006601 0.000000 0.000000
# 5 0.000000 0.000000 0.000000 0.000000 0.033725 0.000000
# 6 0.000000 0.000000 0.000000 0.000000 0.000000 -0.020375
#
#
# Mechanical properties :
#
#
# Convention : Reuss Voigt Hill
#
# Bulk Modulus (GPa) = 56.96295 71.30417 64.13356
# Shear Modulus (GPa) = 62.16984 41.63135 51.90060
#
# Velocity S-wave (km/s) = 5.25878 4.30334 4.80487
# Velocity P-wave (km/s) = 7.88744 7.51063 7.70134
#
# Compressibility (1/GPa) = 0.01755527
#
# Stress axis : x y z
#
# Youngs Moduli (GPa) = 69.18658 70.60673 133.83302
#
# Poissons Ratio (x) = 0.14784 0.37266
# Poissons Ratio (y) = 0.14487 0.58730
# Poissons Ratio (z) = 0.19265 0.30984
#
# Static dielectric constant tensor:
#      x y z
#    x 1.836380 0.000000 0.000000 
#    y 0.000000 1.870900 0.000000 
#    z 0.000000 0.000000 2.157610 
# 
# From -- ./inp_files/20963.got.cif
#   From: 2010.05.17/outbox.cif.g08.bks.cpg/sg68_11_cif.got.tgz:20963.got - 2010.06.03 18:57:09.
