data_PCOD9509442
_publ_section_title
;
Structure prediction by ZEFSAII (Michael W. Deem and Ramdas Pophale) SiO2 
 PCOD9509442
Probable space group: C C C A
;
_chemical_formula_sum "Si O2"
_cell_formula_units_Z 72
_cell_length_a 19.268514
_cell_length_b 20.580806
_cell_length_c 8.462734
_cell_angle_alpha 90.000000
_cell_angle_beta 90.000000
_cell_angle_gamma 90.000000
_cell_volume 3355.994900
_symmetry_space_group_name_H-M "C C C A"
_symmetry_group_IT_number 68
_space_group.IT_coordinate_system_code '2'
_symmetry_cell_setting 'orthorhombic'
loop_
_space_group_symop_operation_xyz
x,y,z
-x,1/2-y,z
x,1/2-y,1/2-z
-x,y,1/2-z
-x,-y,-z
x,1/2+y,-z
-x,1/2+y,1/2+z
x,-y,1/2+z
1/2+x,1/2+y,z
1/2-x,-y,z
1/2+x,-y,1/2-z
1/2-x,1/2+y,1/2-z
1/2-x,1/2-y,-z
1/2+x,y,-z
1/2-x,y,1/2+z
1/2+x,1/2-y,1/2+z
loop_
_atom_site_type_symbol
_atom_site_label
_atom_site_fract_x
_atom_site_fract_y
_atom_site_fract_z
Si Si1 0.421910 0.672771 0.923030
Si Si2 0.051088 0.537532 0.385528
Si Si3 0.839527 0.434103 0.112264
Si Si4 0.250000 0.500000 0.652049
Si Si5 0.912179 0.186778 0.546354
O O1 0.407449 0.597733 0.962245
O O2 0.403212 0.677755 0.736015
O O3 0.391495 0.738936 0.995646
O O4 0.504171 0.678935 0.965200
O O5 0.101657 0.482472 0.322588
O O6 0.000000 0.564517 0.250000
O O7 0.000000 0.500000 0.500000
O O8 0.808929 0.469170 0.957364
O O9 0.872338 0.366235 0.057932
O O10 0.778506 0.441215 0.239357
#
# Coordination Sequence:
#
# PCOD9509442 Si02
#       5
#    16  16  16   8  16
#     4   9  16  29  51  89 115 148 177 228 312 375
#     4  12  20  32  57  91 119 145 184 243 314 363
#     4  11  21  39  58  86 117 159 206 251 288 352
#     4  10  24  38  60  80 120 168 216 248 282 330
#     4   9  16  30  55  79 119 150 187 230 293 368
#
# _framework density 21.454145
#
# number of rings (size 3 to 8) (size 9 to 14) (size 15 to 20)
#    0.000    1.778    4.444    4.000    0.000    0.000 
#    0.000    0.000    0.000   30.667    0.000    0.000 
#    0.000    0.000    0.000    0.000    0.000    0.000 
#
# Total GULP energy -200572.955712 kJ/mol
# GULP energy per Si atom -5571.470992 kJ/mol
# Density = 2.140531 g / cm^3
# Si number density = 21.454145 Si / 1000 Ang^3
#
#
#
# Elastic Constant Matrix: (Units=GPa)
#
#
# Indices 1 2 3 4 5 6 
#
# 1 37.3959 21.2629 21.2980 0.0000 0.0000 0.0000
# 2 21.2629 195.8809 26.0078 0.0000 0.0000 0.0000
# 3 21.2980 26.0078 46.1030 0.0000 0.0000 0.0000
# 4 0.0000 0.0000 0.0000 19.9415 0.0000 0.0000
# 5 0.0000 0.0000 0.0000 0.0000 26.5770 0.0000
# 6 0.0000 0.0000 0.0000 0.0000 0.0000 23.1469
#
#
#
# Elastic Compliance Matrix: (Units=1/GPa)
#
#
# Indices 1 2 3 4 5 6 
#
# 1 0.036921 -0.001884 -0.015993 0.000000 0.000000 0.000000
# 2 -0.001884 0.005615 -0.002297 0.000000 0.000000 0.000000
# 3 -0.015993 -0.002297 0.030375 0.000000 0.000000 0.000000
# 4 0.000000 0.000000 0.000000 0.050147 0.000000 0.000000
# 5 0.000000 0.000000 0.000000 0.000000 0.037626 0.000000
# 6 0.000000 0.000000 0.000000 0.000000 0.000000 0.043202
#
#
# Mechanical properties :
#
#
# Convention : Reuss Voigt Hill
#
# Bulk Modulus (GPa) = 30.71123 46.27968 38.49545
# Shear Modulus (GPa) = 19.60110 27.98718 23.79414
#
# Velocity S-wave (km/s) = 3.02591 3.61572 3.33388
# Velocity P-wave (km/s) = 5.15306 6.24896 5.72728
#
# Compressibility (1/GPa) = 0.03256138
#
# Stress axis : x y z
#
# Youngs Moduli (GPa) = 27.08500 178.10564 32.92232
#
# Poissons Ratio (x) = 0.33560 0.52653
# Poissons Ratio (y) = 0.05104 0.07562
# Poissons Ratio (z) = 0.43317 0.40909
#
# Static dielectric constant tensor:
#      x y z
#    x 1.782190 0.000000 0.000000 
#    y 0.000000 1.988890 0.000000 
#    z 0.000000 0.000000 1.762930 
# 
# From -- ./inp_files/6964.got.cif
#   From: 2010.05.17/outbox.cif.g08.bks.cpg/sg68_4_cif.got.tgz:6964.got - 2010.06.03 18:57:09.
