data_PCOD9509260
_publ_section_title
;
Structure prediction by ZEFSAII (Michael W. Deem and Ramdas Pophale) SiO2 
 PCOD9509260
Probable space group: C C C A
;
_chemical_formula_sum "Si O2"
_cell_formula_units_Z 104
_cell_length_a 17.643711
_cell_length_b 19.673273
_cell_length_c 14.225777
_cell_angle_alpha 90.000000
_cell_angle_beta 90.000000
_cell_angle_gamma 90.000000
_cell_volume 4937.902957
_symmetry_space_group_name_H-M "C C C A"
_symmetry_group_IT_number 68
_space_group.IT_coordinate_system_code '2'
_symmetry_cell_setting 'orthorhombic'
loop_
_space_group_symop_operation_xyz
x,y,z
-x,1/2-y,z
x,1/2-y,1/2-z
-x,y,1/2-z
-x,-y,-z
x,1/2+y,-z
-x,1/2+y,1/2+z
x,-y,1/2+z
1/2+x,1/2+y,z
1/2-x,-y,z
1/2+x,-y,1/2-z
1/2-x,1/2+y,1/2-z
1/2-x,1/2-y,-z
1/2+x,y,-z
1/2-x,y,1/2+z
1/2+x,1/2-y,1/2+z
loop_
_atom_site_type_symbol
_atom_site_label
_atom_site_fract_x
_atom_site_fract_y
_atom_site_fract_z
Si Si1 0.936370 0.356198 0.020950
Si Si2 0.941569 0.111508 0.682576
Si Si3 0.333622 0.269151 0.466741
Si Si4 0.662064 0.492491 0.784759
Si Si5 0.660535 0.015005 0.938375
Si Si6 0.628903 0.750000 0.750000
Si Si7 0.904638 0.899026 0.565422
O O1 0.972611 0.370921 0.918582
O O2 0.896412 0.283524 0.008159
O O3 0.868876 0.409086 0.041227
O O4 0.009879 0.372033 0.083595
O O5 0.917405 0.181238 0.731628
O O6 0.000000 0.074731 0.750000
O O7 0.873456 0.060143 0.671322
O O8 0.250000 0.250000 0.500000
O O9 0.332913 0.263792 0.352263
O O10 0.357326 0.341013 0.511257
O O11 0.750000 0.500000 0.802639
O O12 0.650109 0.494755 0.673101
O O13 0.629813 0.426102 0.836413
O O14 0.750000 0.000000 0.959840
O O15 0.606477 0.964592 0.997427
#
# Coordination Sequence:
#
# PCOD9509260 Si02
#       7
#    16  16  16  16  16   8  16
#     4  11  24  41  65  99 135 174 221 286 346 410
#     4  11  22  39  68 101 134 169 226 284 345 396
#     4  11  25  45  70  98 136 177 230 285 352 412
#     4  11  26  40  67  97 137 182 232 275 340 417
#     4  11  23  42  66  97 135 180 230 277 337 407
#     4  10  23  42  72 100 133 170 230 290 345 402
#     4  12  24  43  68  99 138 177 228 285 348 408
#
# _framework density 21.061571000000001
#
# number of rings (size 3 to 8) (size 9 to 14) (size 15 to 20)
#    0.000    0.923    1.538    5.308    6.462    3.692 
#    0.000    0.000    0.000    1.846    0.000    0.000 
#    0.000    0.000    0.000    0.000    0.000    0.000 
#
# Total GULP energy -290283.308024 kJ/mol
# GULP energy per Si atom -5582.371308 kJ/mol
# Density = 2.101363 g / cm^3
# Si number density = 21.061571 Si / 1000 Ang^3
#
#
#
# Elastic Constant Matrix: (Units=GPa)
#
#
# Indices 1 2 3 4 5 6 
#
# 1 84.7945 5.0236 15.8217 0.0000 0.0000 0.0000
# 2 5.0236 89.7006 2.7819 0.0000 0.0000 0.0000
# 3 15.8217 2.7819 60.1861 0.0000 0.0000 0.0000
# 4 0.0000 0.0000 0.0000 35.5084 0.0000 0.0000
# 5 0.0000 0.0000 0.0000 0.0000 10.4911 0.0000
# 6 0.0000 0.0000 0.0000 0.0000 0.0000 22.1110
#
#
#
# Elastic Compliance Matrix: (Units=1/GPa)
#
#
# Indices 1 2 3 4 5 6 
#
# 1 0.012433 -0.000596 -0.003241 0.000000 0.000000 0.000000
# 2 -0.000596 0.011193 -0.000361 0.000000 0.000000 0.000000
# 3 -0.003241 -0.000361 0.017484 0.000000 0.000000 0.000000
# 4 0.000000 0.000000 0.000000 0.028162 0.000000 0.000000
# 5 0.000000 0.000000 0.000000 0.000000 0.095319 0.000000
# 6 0.000000 0.000000 0.000000 0.000000 0.000000 0.045226
#
#
# Mechanical properties :
#
#
# Convention : Reuss Voigt Hill
#
# Bulk Modulus (GPa) = 30.56711 31.32618 30.94665
# Shear Modulus (GPa) = 21.82285 27.69236 24.75761
#
# Velocity S-wave (km/s) = 3.22241 3.62999 3.43226
# Velocity P-wave (km/s) = 5.32823 5.69869 5.51657
#
# Compressibility (1/GPa) = 0.03271490
#
# Stress axis : x y z
#
# Youngs Moduli (GPa) = 80.42963 89.34351 57.19590
#
# Poissons Ratio (x) = 0.05323 0.18537
# Poissons Ratio (y) = 0.04792 0.02063
# Poissons Ratio (z) = 0.26066 0.03223
#
# Static dielectric constant tensor:
#      x y z
#    x 1.792670 0.000000 0.000000 
#    y 0.000000 1.750820 0.000000 
#    z 0.000000 0.000000 1.798430 
# 
# From -- ./inp_files/23803.got.cif
#   From: 2010.05.17/outbox.cif.g08.bks.cpg/sg68_12_cif.got.tgz:23803.got - 2010.06.03 18:57:09.
