data_PCOD9509924
_publ_section_title
;
Structure prediction by ZEFSAII (Michael W. Deem and Ramdas Pophale) SiO2 
 PCOD9509924
Probable space group: C C C A
;
_chemical_formula_sum "Si O2"
_cell_formula_units_Z 84
_cell_length_a 24.752260
_cell_length_b 16.283917
_cell_length_c 10.092074
_cell_angle_alpha 90.000000
_cell_angle_beta 90.000000
_cell_angle_gamma 90.000000
_cell_volume 4067.749166
_symmetry_space_group_name_H-M "C C C A"
_symmetry_group_IT_number 68
_space_group.IT_coordinate_system_code '2'
_symmetry_cell_setting 'orthorhombic'
loop_
_space_group_symop_operation_xyz
x,y,z
-x,1/2-y,z
x,1/2-y,1/2-z
-x,y,1/2-z
-x,-y,-z
x,1/2+y,-z
-x,1/2+y,1/2+z
x,-y,1/2+z
1/2+x,1/2+y,z
1/2-x,-y,z
1/2+x,-y,1/2-z
1/2-x,1/2+y,1/2-z
1/2-x,1/2-y,-z
1/2+x,y,-z
1/2-x,y,1/2+z
1/2+x,1/2-y,1/2+z
loop_
_atom_site_type_symbol
_atom_site_label
_atom_site_fract_x
_atom_site_fract_y
_atom_site_fract_z
Si Si1 0.768442 0.307370 0.126145
Si Si2 0.844482 0.849811 0.278116
Si Si3 0.011771 0.431958 0.393399
Si Si4 0.572977 0.822268 0.973936
Si Si5 0.378284 0.357545 0.986585
Si Si6 0.000000 0.250000 0.750000
O O1 0.784153 0.250000 0.250000
O O2 0.717759 0.359602 0.180834
O O3 0.820217 0.358786 0.082372
O O4 0.750000 0.250000 0.000000
O O5 0.848267 0.750000 0.250000
O O6 0.879500 0.874729 0.406232
O O7 0.867519 0.883972 0.139836
O O8 0.073054 0.404252 0.416456
O O9 0.000000 0.466115 0.250000
O O10 0.000000 0.500000 0.500000
O O11 0.967345 0.360290 0.419542
O O12 0.535861 0.803697 0.846605
O O13 0.600713 0.737229 0.016327
#
# Coordination Sequence:
#
# PCOD9509924 Si02
#       6
#    16  16  16  16  16   4
#     4  11  19  32  56  98 137 159 200 262 322 376
#     4   9  17  32  59  97 123 165 196 245 326 368
#     4  12  30  45  61  91 126 172 219 268 328 380
#     4  11  19  35  64  92 124 159 211 258 318 382
#     4  11  21  38  64  96 130 163 205 263 320 383
#     4  12  16  32  66  92 116 168 204 264 310 380
#
# _framework density 20.650241999999999
#
# number of rings (size 3 to 8) (size 9 to 14) (size 15 to 20)
#    0.000    1.143   10.476    0.000    6.667    0.762 
#    0.000    0.000    0.000    1.143    0.000    0.000 
#    0.000    0.000    0.000    0.000    0.000    0.000 
#
# Total GULP energy -234309.934910 kJ/mol
# GULP energy per Si atom -5578.807974 kJ/mol
# Density = 2.060324 g / cm^3
# Si number density = 20.650242 Si / 1000 Ang^3
#
#
#
# Elastic Constant Matrix: (Units=GPa)
#
#
# Indices 1 2 3 4 5 6 
#
# 1 155.9920 14.7121 36.1396 0.0000 0.0000 0.0000
# 2 14.7121 11.1536 11.8253 0.0000 0.0000 0.0000
# 3 36.1396 11.8253 114.3649 0.0000 0.0000 0.0000
# 4 0.0000 0.0000 0.0000 2.4257 0.0000 0.0000
# 5 0.0000 0.0000 0.0000 0.0000 43.8035 0.0000
# 6 0.0000 0.0000 0.0000 0.0000 0.0000 4.7975
#
#
#
# Elastic Compliance Matrix: (Units=1/GPa)
#
#
# Indices 1 2 3 4 5 6 
#
# 1 0.007550 -0.008344 -0.001523 0.000000 0.000000 0.000000
# 2 -0.008344 0.109918 -0.008729 0.000000 0.000000 0.000000
# 3 -0.001523 -0.008729 0.010128 0.000000 0.000000 0.000000
# 4 0.000000 0.000000 0.000000 0.412256 0.000000 0.000000
# 5 0.000000 0.000000 0.000000 0.000000 0.022829 0.000000
# 6 0.000000 0.000000 0.000000 0.000000 0.000000 0.208442
#
#
# Mechanical properties :
#
#
# Convention : Reuss Voigt Hill
#
# Bulk Modulus (GPa) = 11.06147 45.20717 28.13432
# Shear Modulus (GPa) = 5.96338 24.79422 15.37880
#
# Velocity S-wave (km/s) = 1.70120 3.46883 2.73193
# Velocity P-wave (km/s) = 3.03759 6.16304 4.85850
#
# Compressibility (1/GPa) = 0.09040391
#
# Stress axis : x y z
#
# Youngs Moduli (GPa) = 132.44232 9.09767 98.73808
#
# Poissons Ratio (x) = 0.07592 0.15039
# Poissons Ratio (y) = 1.10516 0.86185
# Poissons Ratio (z) = 0.20173 0.07941
#
# Static dielectric constant tensor:
#      x y z
#    x 1.864930 0.000000 0.000000 
#    y 0.000000 1.907340 0.000000 
#    z 0.000000 0.000000 1.751170 
# 
# From -- ./inp_files/7959.got.cif
#   From: 2010.05.17/outbox.cif.g08.bks.cpg/sg68_4_cif.got.tgz:7959.got - 2010.06.03 18:57:09.
