data_PCOD9509610
_publ_section_title
;
Structure prediction by ZEFSAII (Michael W. Deem and Ramdas Pophale) SiO2 
 PCOD9509610
Probable space group: C C C A
;
_chemical_formula_sum "Si O2"
_cell_formula_units_Z 64
_cell_length_a 10.054739
_cell_length_b 30.651439
_cell_length_c 8.950159
_cell_angle_alpha 90.000000
_cell_angle_beta 90.000000
_cell_angle_gamma 90.000000
_cell_volume 2758.369364
_symmetry_space_group_name_H-M "C C C A"
_symmetry_group_IT_number 68
_space_group.IT_coordinate_system_code '2'
_symmetry_cell_setting 'orthorhombic'
loop_
_space_group_symop_operation_xyz
x,y,z
-x,1/2-y,z
x,1/2-y,1/2-z
-x,y,1/2-z
-x,-y,-z
x,1/2+y,-z
-x,1/2+y,1/2+z
x,-y,1/2+z
1/2+x,1/2+y,z
1/2-x,-y,z
1/2+x,-y,1/2-z
1/2-x,1/2+y,1/2-z
1/2-x,1/2-y,-z
1/2+x,y,-z
1/2-x,y,1/2+z
1/2+x,1/2-y,1/2+z
loop_
_atom_site_type_symbol
_atom_site_label
_atom_site_fract_x
_atom_site_fract_y
_atom_site_fract_z
Si Si1 0.597024 0.789350 0.457311
Si Si2 0.750000 0.500000 0.326553
Si Si3 0.848336 0.562155 0.077774
Si Si4 0.434870 0.390016 0.909879
Si Si5 0.314611 0.750000 0.750000
O O1 0.500000 0.750000 0.412320
O O2 0.553240 0.837928 0.423569
O O3 0.614542 0.782297 0.634407
O O4 0.729349 0.779806 0.362901
O O5 0.834971 0.469875 0.435824
O O6 0.837323 0.531061 0.220860
O O7 0.980251 0.589223 0.044483
O O8 0.716898 0.593057 0.082534
O O9 0.500000 0.402221 0.750000
#
# Coordination Sequence:
#
# PCOD9509610 Si02
#       5
#    16   8  16  16   8
#     4  11  25  46  71 104 147 197 240 299 364 438
#     4  10  24  50  76 106 146 196 250 292 402 442
#     4  11  26  47  76 110 146 196 241 318 363 463
#     4  12  27  47  75 117 149 190 255 309 372 434
#     4  10  24  44  72 102 138 206 240 292 364 432
#
# _framework density 23.202113000000001
#
# number of rings (size 3 to 8) (size 9 to 14) (size 15 to 20)
#    0.000    1.000    2.500    2.250   10.500    7.000 
#    4.500    0.000    0.000    0.000    0.000    0.000 
#    0.000    0.000    0.000    0.000    0.000    0.000 
#
# Total GULP energy -179119.613487 kJ/mol
# GULP energy per Si atom -5597.487921 kJ/mol
# Density = 2.314930 g / cm^3
# Si number density = 23.202113 Si / 1000 Ang^3
#
#
#
# Elastic Constant Matrix: (Units=GPa)
#
#
# Indices 1 2 3 4 5 6 
#
# 1 60.8625 18.9942 14.2621 0.0000 0.0000 0.0000
# 2 18.9942 135.8223 26.0593 0.0000 0.0000 0.0000
# 3 14.2621 26.0593 138.3151 0.0000 0.0000 0.0000
# 4 0.0000 0.0000 0.0000 36.3806 0.0000 0.0000
# 5 0.0000 0.0000 0.0000 0.0000 34.0025 0.0000
# 6 0.0000 0.0000 0.0000 0.0000 0.0000 15.2373
#
#
#
# Elastic Compliance Matrix: (Units=1/GPa)
#
#
# Indices 1 2 3 4 5 6 
#
# 1 0.017434 -0.002172 -0.001388 0.000000 0.000000 0.000000
# 2 -0.002172 0.007909 -0.001266 0.000000 0.000000 0.000000
# 3 -0.001388 -0.001266 0.007612 0.000000 0.000000 0.000000
# 4 0.000000 0.000000 0.000000 0.027487 0.000000 0.000000
# 5 0.000000 0.000000 0.000000 0.000000 0.029410 0.000000
# 6 0.000000 0.000000 0.000000 0.000000 0.000000 0.065628
#
#
# Mechanical properties :
#
#
# Convention : Reuss Voigt Hill
#
# Bulk Modulus (GPa) = 42.91524 50.40344 46.65934
# Shear Modulus (GPa) = 28.91856 35.50305 32.21080
#
# Velocity S-wave (km/s) = 3.53424 3.91598 3.72999
# Velocity P-wave (km/s) = 5.93219 6.49748 6.22126
#
# Compressibility (1/GPa) = 0.02330175
#
# Stress axis : x y z
#
# Youngs Moduli (GPa) = 57.36062 126.43520 131.37845
#
# Poissons Ratio (x) = 0.27457 0.18242
# Poissons Ratio (y) = 0.12456 0.16635
# Poissons Ratio (z) = 0.07964 0.16009
#
# Static dielectric constant tensor:
#      x y z
#    x 1.982490 0.000000 0.000000 
#    y 0.000000 1.858230 0.000000 
#    z 0.000000 0.000000 1.877340 
# 
# From -- ./inp_files/4086.got.cif
#   From: 2010.05.17/outbox.cif.g08.bks.cpg/sg68_3_cif.got.tgz:4086.got - 2010.06.03 18:57:09.
