data_PCOD9509993
_publ_section_title
;
Structure prediction by ZEFSAII (Michael W. Deem and Ramdas Pophale) SiO2 
 PCOD9509993
Probable space group: C C C A
;
_chemical_formula_sum "Si O2"
_cell_formula_units_Z 80
_cell_length_a 15.975459
_cell_length_b 11.531933
_cell_length_c 17.016685
_cell_angle_alpha 90.000000
_cell_angle_beta 90.000000
_cell_angle_gamma 90.000000
_cell_volume 3134.948531
_symmetry_space_group_name_H-M "C C C A"
_symmetry_group_IT_number 68
_space_group.IT_coordinate_system_code '2'
_symmetry_cell_setting 'orthorhombic'
loop_
_space_group_symop_operation_xyz
x,y,z
-x,1/2-y,z
x,1/2-y,1/2-z
-x,y,1/2-z
-x,-y,-z
x,1/2+y,-z
-x,1/2+y,1/2+z
x,-y,1/2+z
1/2+x,1/2+y,z
1/2-x,-y,z
1/2+x,-y,1/2-z
1/2-x,1/2+y,1/2-z
1/2-x,1/2-y,-z
1/2+x,y,-z
1/2-x,y,1/2+z
1/2+x,1/2-y,1/2+z
loop_
_atom_site_type_symbol
_atom_site_label
_atom_site_fract_x
_atom_site_fract_y
_atom_site_fract_z
Si Si1 0.092012 0.699543 0.446062
Si Si2 0.912840 0.866047 0.626375
Si Si3 0.333532 0.576768 0.568255
Si Si4 0.094600 0.948139 0.606718
Si Si5 0.750000 0.500000 0.214078
Si Si6 0.287983 0.250000 0.750000
O O1 0.109419 0.667025 0.536682
O O2 0.163713 0.786118 0.414194
O O3 0.077847 0.584044 0.397636
O O4 0.000000 0.750000 0.445604
O O5 0.986374 0.624979 0.633021
O O6 0.855397 0.788272 0.681689
O O7 0.883996 0.000486 0.631257
O O8 0.250000 0.500000 0.558269
O O9 0.380080 0.580426 0.483212
O O10 0.174289 0.951284 0.661860
O O11 0.767202 0.628775 0.251590
#
# Coordination Sequence:
#
# PCOD9509993 Si02
#       6
#    16  16  16  16   8   8
#     4  11  20  40  72 111 144 179 238 314 382 442
#     4  11  25  43  71 103 144 197 243 296 371 462
#     4  11  22  37  70 111 146 179 233 311 387 433
#     4  11  23  44  71 108 141 186 242 312 379 442
#     4  12  30  50  72 104 146 194 262 312 362 446
#     4  12  32  53  74 103 150 212 260 301 368 456
#
# _framework density 25.518761000000001
#
# number of rings (size 3 to 8) (size 9 to 14) (size 15 to 20)
#    0.000    0.800    5.000    2.400    4.200    3.200 
#    0.000    0.000    0.000    0.000    0.000    0.000 
#    0.000    0.000    0.000    0.000    0.000    0.000 
#
# Total GULP energy -223151.403116 kJ/mol
# GULP energy per Si atom -5578.785078 kJ/mol
# Density = 2.546068 g / cm^3
# Si number density = 25.518761 Si / 1000 Ang^3
#
#
#
# Elastic Constant Matrix: (Units=GPa)
#
#
# Indices 1 2 3 4 5 6 
#
# 1 140.0789 57.0424 29.7479 0.0000 0.0000 0.0000
# 2 57.0424 198.3119 24.3626 0.0000 0.0000 0.0000
# 3 29.7479 24.3626 48.3821 0.0000 0.0000 0.0000
# 4 0.0000 0.0000 0.0000 14.7068 0.0000 0.0000
# 5 0.0000 0.0000 0.0000 0.0000 82.3098 0.0000
# 6 0.0000 0.0000 0.0000 0.0000 0.0000 69.0101
#
#
#
# Elastic Compliance Matrix: (Units=1/GPa)
#
#
# Indices 1 2 3 4 5 6 
#
# 1 0.008906 -0.002014 -0.004462 0.000000 0.000000 0.000000
# 2 -0.002014 0.005830 -0.001698 0.000000 0.000000 0.000000
# 3 -0.004462 -0.001698 0.024267 0.000000 0.000000 0.000000
# 4 0.000000 0.000000 0.000000 0.067996 0.000000 0.000000
# 5 0.000000 0.000000 0.000000 0.000000 0.012149 0.000000
# 6 0.000000 0.000000 0.000000 0.000000 0.000000 0.014491
#
#
# Mechanical properties :
#
#
# Convention : Reuss Voigt Hill
#
# Bulk Modulus (GPa) = 44.13669 67.67540 55.90605
# Shear Modulus (GPa) = 31.73819 51.58000 41.65910
#
# Velocity S-wave (km/s) = 3.53047 4.50072 4.04479
# Velocity P-wave (km/s) = 5.82686 7.32025 6.61583
#
# Compressibility (1/GPa) = 0.02265689
#
# Stress axis : x y z
#
# Youngs Moduli (GPa) = 112.27827 171.51655 41.20778
#
# Poissons Ratio (x) = 0.34538 0.18388
# Poissons Ratio (y) = 0.22609 0.06996
# Poissons Ratio (z) = 0.50100 0.29119
#
# Static dielectric constant tensor:
#      x y z
#    x 2.087910 0.000000 0.000000 
#    y 0.000000 2.004870 0.000000 
#    z 0.000000 0.000000 2.167070 
# 
# From -- ./inp_files/32742.got.cif
#   From: 2010.05.17/outbox.cif.g08.bks.cpg/sg68_17_cif.got.tgz:32742.got - 2010.06.03 18:57:09.
