data_PCOD9509824
_publ_section_title
;
Structure prediction by ZEFSAII (Michael W. Deem and Ramdas Pophale) SiO2 
 PCOD9509824
Probable space group: C C C A
;
_chemical_formula_sum "Si O2"
_cell_formula_units_Z 108
_cell_length_a 12.621067
_cell_length_b 29.663906
_cell_length_c 13.435137
_cell_angle_alpha 90.000000
_cell_angle_beta 90.000000
_cell_angle_gamma 90.000000
_cell_volume 5029.982891
_symmetry_space_group_name_H-M "C C C A"
_symmetry_group_IT_number 68
_space_group.IT_coordinate_system_code '2'
_symmetry_cell_setting 'orthorhombic'
loop_
_space_group_symop_operation_xyz
x,y,z
-x,1/2-y,z
x,1/2-y,1/2-z
-x,y,1/2-z
-x,-y,-z
x,1/2+y,-z
-x,1/2+y,1/2+z
x,-y,1/2+z
1/2+x,1/2+y,z
1/2-x,-y,z
1/2+x,-y,1/2-z
1/2-x,1/2+y,1/2-z
1/2-x,1/2-y,-z
1/2+x,y,-z
1/2-x,y,1/2+z
1/2+x,1/2-y,1/2+z
loop_
_atom_site_type_symbol
_atom_site_label
_atom_site_fract_x
_atom_site_fract_y
_atom_site_fract_z
Si Si1 0.174511 0.134085 0.702919
Si Si2 0.500000 0.750000 0.250000
Si Si3 0.392560 0.075529 0.015152
Si Si4 0.395049 0.130711 0.810236
Si Si5 0.342460 0.771747 0.385960
Si Si6 0.074961 0.438314 0.662663
Si Si7 0.619257 0.267863 0.120895
Si Si8 0.250000 0.000000 0.928660
O O1 0.158487 0.106105 0.601479
O O2 0.293684 0.127240 0.739484
O O3 0.108027 0.110205 0.791727
O O4 0.139659 0.184884 0.676696
O O5 0.411797 0.733262 0.331654
O O6 0.508214 0.065955 0.061314
O O7 0.391449 0.101093 0.910068
O O8 0.326217 0.030459 0.996368
O O9 0.500000 0.120111 0.750000
O O10 0.390823 0.182469 0.844195
O O11 0.364166 0.773591 0.502582
O O12 0.219151 0.765434 0.359117
O O13 0.177173 0.468011 0.639701
O O14 0.000000 0.458543 0.750000
O O15 0.500000 0.250000 0.138739
#
# Coordination Sequence:
#
# PCOD9509824 Si02
#       8
#    16   4  16  16  16  16  16   8
#     4  11  25  49  72 112 149 199 247 311 379 445
#     4  12  20  44  62 100 144 190 248 306 364 420
#     4  11  26  48  76 110 147 193 240 315 371 455
#     4  12  26  45  75 106 143 197 249 306 374 447
#     4  11  24  42  72 105 146 196 251 310 366 435
#     4  10  25  47  76 110 150 194 241 309 374 457
#     4  11  25  46  75 107 149 205 252 314 370 442
#     4  12  24  50  78 112 152 190 252 304 392 450
#
# _framework density 21.471245
#
# number of rings (size 3 to 8) (size 9 to 14) (size 15 to 20)
#    0.000    0.889    4.444    1.333    2.074    6.519 
#    0.000    2.593    0.000    0.000    0.000    0.000 
#    0.000    0.000    0.000    0.000    0.000    0.000 
#
# Total GULP energy -301511.972039 kJ/mol
# GULP energy per Si atom -5583.555038 kJ/mol
# Density = 2.142238 g / cm^3
# Si number density = 21.471245 Si / 1000 Ang^3
#
#
#
# Elastic Constant Matrix: (Units=GPa)
#
#
# Indices 1 2 3 4 5 6 
#
# 1 187.1600 56.7919 60.2242 0.0000 0.0000 0.0000
# 2 56.7919 107.3907 59.7697 0.0000 0.0000 0.0000
# 3 60.2242 59.7697 133.7125 0.0000 0.0000 0.0000
# 4 0.0000 0.0000 0.0000 29.5792 0.0000 0.0000
# 5 0.0000 0.0000 0.0000 0.0000 43.5242 0.0000
# 6 0.0000 0.0000 0.0000 0.0000 0.0000 32.5129
#
#
#
# Elastic Compliance Matrix: (Units=1/GPa)
#
#
# Indices 1 2 3 4 5 6 
#
# 1 0.006713 -0.002486 -0.001912 0.000000 0.000000 0.000000
# 2 -0.002486 0.013316 -0.004833 0.000000 0.000000 0.000000
# 3 -0.001912 -0.004833 0.010500 0.000000 0.000000 0.000000
# 4 0.000000 0.000000 0.000000 0.033807 0.000000 0.000000
# 5 0.000000 0.000000 0.000000 0.000000 0.022976 0.000000
# 6 0.000000 0.000000 0.000000 0.000000 0.000000 0.030757
#
#
# Mechanical properties :
#
#
# Convention : Reuss Voigt Hill
#
# Bulk Modulus (GPa) = 82.86644 86.87054 84.86849
# Shear Modulus (GPa) = 35.57382 37.88844 36.73113
#
# Velocity S-wave (km/s) = 4.07481 4.20529 4.14056
# Velocity P-wave (km/s) = 7.79851 8.00788 7.90389
#
# Compressibility (1/GPa) = 0.01206761
#
# Stress axis : x y z
#
# Youngs Moduli (GPa) = 148.97421 75.09782 95.23540
#
# Poissons Ratio (x) = 0.18666 0.18212
# Poissons Ratio (y) = 0.37028 0.46025
# Poissons Ratio (z) = 0.28489 0.36293
#
# Static dielectric constant tensor:
#      x y z
#    x 1.830440 0.000000 0.000000 
#    y 0.000000 1.498420 0.000000 
#    z 0.000000 0.000000 1.778320 
# 
# From -- ./inp_files/21303.got.cif
#   From: 2010.05.17/outbox.cif.g08.bks.cpg/sg68_11_cif.got.tgz:21303.got - 2010.06.03 18:57:09.
