data_PCOD9509318
_publ_section_title
;
Structure prediction by ZEFSAII (Michael W. Deem and Ramdas Pophale) SiO2 
 PCOD9509318
Probable space group: C C C A
;
_chemical_formula_sum "Si O2"
_cell_formula_units_Z 60
_cell_length_a 7.620953
_cell_length_b 11.312736
_cell_length_c 29.158195
_cell_angle_alpha 90.000000
_cell_angle_beta 90.000000
_cell_angle_gamma 90.000000
_cell_volume 2513.839648
_symmetry_space_group_name_H-M "C C C A"
_symmetry_group_IT_number 68
_space_group.IT_coordinate_system_code '2'
_symmetry_cell_setting 'orthorhombic'
loop_
_space_group_symop_operation_xyz
x,y,z
-x,1/2-y,z
x,1/2-y,1/2-z
-x,y,1/2-z
-x,-y,-z
x,1/2+y,-z
-x,1/2+y,1/2+z
x,-y,1/2+z
1/2+x,1/2+y,z
1/2-x,-y,z
1/2+x,-y,1/2-z
1/2-x,1/2+y,1/2-z
1/2-x,1/2-y,-z
1/2+x,y,-z
1/2-x,y,1/2+z
1/2+x,1/2-y,1/2+z
loop_
_atom_site_type_symbol
_atom_site_label
_atom_site_fract_x
_atom_site_fract_y
_atom_site_fract_z
Si Si1 0.591073 0.587646 0.853921
Si Si2 0.962745 0.986749 0.946476
Si Si3 0.500000 0.250000 0.750000
Si Si4 0.757400 0.161714 0.326887
Si Si5 0.000000 0.750000 0.904957
O O1 0.750000 0.500000 0.844086
O O2 0.544089 0.576134 0.908168
O O3 0.403153 0.570047 0.829158
O O4 0.664271 0.710764 0.835303
O O5 0.055830 0.859056 0.936204
O O6 0.750000 0.000000 0.941491
O O7 0.000000 0.000000 0.000000
O O8 0.625814 0.328290 0.718063
O O9 0.882115 0.170427 0.371012
#
# Coordination Sequence:
#
# PCOD9509318 Si02
#       5
#    16  16   4  16   8
#     4  11  22  42  71 103 142 186 235 299 376 443
#     4  12  26  42  67 103 143 190 253 302 361 458
#     4  10  24  50  72 108 144 188 256 310 376 470
#     4  10  23  43  75  98 137 188 236 306 379 444
#     4  11  22  43  70  94 138 192 228 299 380 433
#
# _framework density 23.86787
#
# number of rings (size 3 to 8) (size 9 to 14) (size 15 to 20)
#    0.000    1.067    5.333    0.800    0.000    5.333 
#    0.000    2.667    0.000    0.000    0.000    0.000 
#    0.000    0.000    0.000    0.000    0.000    0.000 
#
# Total GULP energy -167246.811965 kJ/mol
# GULP energy per Si atom -5574.893732 kJ/mol
# Density = 2.381355 g / cm^3
# Si number density = 23.867870 Si / 1000 Ang^3
#
#
#
# Elastic Constant Matrix: (Units=GPa)
#
#
# Indices 1 2 3 4 5 6 
#
# 1 169.3031 40.6146 75.2784 0.0000 0.0000 0.0000
# 2 40.6146 63.6847 48.2243 0.0000 0.0000 0.0000
# 3 75.2784 48.2243 161.5101 0.0000 0.0000 0.0000
# 4 0.0000 0.0000 0.0000 24.2523 0.0000 0.0000
# 5 0.0000 0.0000 0.0000 0.0000 54.3565 0.0000
# 6 0.0000 0.0000 0.0000 0.0000 0.0000 42.8092
#
#
#
# Elastic Compliance Matrix: (Units=1/GPa)
#
#
# Indices 1 2 3 4 5 6 
#
# 1 0.007841 -0.002885 -0.002793 0.000000 0.000000 0.000000
# 2 -0.002885 0.021352 -0.005030 0.000000 0.000000 0.000000
# 3 -0.002793 -0.005030 0.008995 0.000000 0.000000 0.000000
# 4 0.000000 0.000000 0.000000 0.041233 0.000000 0.000000
# 5 0.000000 0.000000 0.000000 0.000000 0.018397 0.000000
# 6 0.000000 0.000000 0.000000 0.000000 0.000000 0.023359
#
#
# Mechanical properties :
#
#
# Convention : Reuss Voigt Hill
#
# Bulk Modulus (GPa) = 59.62967 80.30361 69.96664
# Shear Modulus (GPa) = 33.74168 39.64233 36.69201
#
# Velocity S-wave (km/s) = 3.76398 4.07985 3.92509
# Velocity P-wave (km/s) = 6.62779 7.47741 7.06538
#
# Compressibility (1/GPa) = 0.01677018
#
# Stress axis : x y z
#
# Youngs Moduli (GPa) = 127.54167 46.83467 111.16922
#
# Poissons Ratio (x) = 0.13514 0.31048
# Poissons Ratio (y) = 0.36801 0.55923
# Poissons Ratio (z) = 0.35621 0.23560
#
# Static dielectric constant tensor:
#      x y z
#    x 2.053390 0.000000 0.000000 
#    y 0.000000 2.048980 0.000000 
#    z 0.000000 0.000000 1.879510 
# 
# From -- ./inp_files/53739.got.cif
#   From: 2010.05.17/outbox.cif.g08.bks.cpg/sg68_27_cif.got.tgz:53739.got - 2010.06.03 18:57:09.
