data_PCOD9509081
_publ_section_title
;
Structure prediction by ZEFSAII (Michael W. Deem and Ramdas Pophale) SiO2 
 PCOD9509081
Probable space group: C C C A
;
_chemical_formula_sum "Si O2"
_cell_formula_units_Z 72
_cell_length_a 26.625603
_cell_length_b 9.375848
_cell_length_c 10.256185
_cell_angle_alpha 90.000000
_cell_angle_beta 90.000000
_cell_angle_gamma 90.000000
_cell_volume 2560.329477
_symmetry_space_group_name_H-M "C C C A"
_symmetry_group_IT_number 68
_space_group.IT_coordinate_system_code '2'
_symmetry_cell_setting 'orthorhombic'
loop_
_space_group_symop_operation_xyz
x,y,z
-x,1/2-y,z
x,1/2-y,1/2-z
-x,y,1/2-z
-x,-y,-z
x,1/2+y,-z
-x,1/2+y,1/2+z
x,-y,1/2+z
1/2+x,1/2+y,z
1/2-x,-y,z
1/2+x,-y,1/2-z
1/2-x,1/2+y,1/2-z
1/2-x,1/2-y,-z
1/2+x,y,-z
1/2-x,y,1/2+z
1/2+x,1/2-y,1/2+z
loop_
_atom_site_type_symbol
_atom_site_label
_atom_site_fract_x
_atom_site_fract_y
_atom_site_fract_z
Si Si1 0.916870 0.027254 0.218912
Si Si2 0.328774 0.750000 0.250000
Si Si3 0.953482 0.853244 0.984117
Si Si4 0.299733 0.414153 0.998167
Si Si5 0.136785 0.182093 0.600693
O O1 0.867437 0.125574 0.207530
O O2 0.947205 0.981410 0.089423
O O3 0.894730 0.882971 0.280404
O O4 0.949905 0.095526 0.334932
O O5 0.296490 0.815832 0.132138
O O6 0.903691 0.760662 0.009826
O O7 0.000000 0.750000 0.010647
O O8 0.250000 0.500000 0.034062
O O9 0.338790 0.538425 0.958911
O O10 0.319845 0.303111 0.105717
#
# Coordination Sequence:
#
# PCOD9509081 Si02
#       5
#    16   8  16  16  16
#     4  11  26  53  86 118 178 229 289 360 442 516
#     4  10  22  48  79 118 170 226 269 364 434 514
#     4  12  28  55  84 125 169 228 292 358 437 533
#     4  11  24  48  78 124 165 224 287 357 433 516
#     4  11  23  50  80 114 169 217 284 359 420 509
#
# _framework density 28.121379000000001
#
# number of rings (size 3 to 8) (size 9 to 14) (size 15 to 20)
#    0.000    0.889    4.444    2.667    0.000    2.667 
#   20.000    2.222    0.000    0.000    0.000    0.000 
#    0.000    0.000    0.000    0.000    0.000    0.000 
#
# Total GULP energy -201937.547267 kJ/mol
# GULP energy per Si atom -5609.376313 kJ/mol
# Density = 2.805737 g / cm^3
# Si number density = 28.121379 Si / 1000 Ang^3
#
#
#
# Elastic Constant Matrix: (Units=GPa)
#
#
# Indices 1 2 3 4 5 6 
#
# 1 133.8927 53.9292 23.2629 0.0000 0.0000 0.0000
# 2 53.9292 203.4675 34.1927 0.0000 0.0000 0.0000
# 3 23.2629 34.1927 143.4419 0.0000 0.0000 0.0000
# 4 0.0000 0.0000 0.0000 74.7384 0.0000 0.0000
# 5 0.0000 0.0000 0.0000 0.0000 23.8509 0.0000
# 6 0.0000 0.0000 0.0000 0.0000 0.0000 74.4516
#
#
#
# Elastic Compliance Matrix: (Units=1/GPa)
#
#
# Indices 1 2 3 4 5 6 
#
# 1 0.008465 -0.002097 -0.000873 0.000000 0.000000 0.000000
# 2 -0.002097 0.005639 -0.001004 0.000000 0.000000 0.000000
# 3 -0.000873 -0.001004 0.007352 0.000000 0.000000 0.000000
# 4 0.000000 0.000000 0.000000 0.013380 0.000000 0.000000
# 5 0.000000 0.000000 0.000000 0.000000 0.041927 0.000000
# 6 0.000000 0.000000 0.000000 0.000000 0.000000 0.013432
#
#
# Mechanical properties :
#
#
# Convention : Reuss Voigt Hill
#
# Bulk Modulus (GPa) = 74.02740 78.17462 76.10101
# Shear Modulus (GPa) = 48.71095 59.23602 53.97348
#
# Velocity S-wave (km/s) = 4.16645 4.59458 4.38574
# Velocity P-wave (km/s) = 7.03755 7.48373 7.26407
#
# Compressibility (1/GPa) = 0.01350851
#
# Stress axis : x y z
#
# Youngs Moduli (GPa) = 118.13432 177.32578 136.00980
#
# Poissons Ratio (x) = 0.37184 0.11873
# Poissons Ratio (y) = 0.24772 0.13658
# Poissons Ratio (z) = 0.10313 0.17807
#
# Static dielectric constant tensor:
#      x y z
#    x 2.152600 0.000000 0.000000 
#    y 0.000000 2.254070 0.000000 
#    z 0.000000 0.000000 2.490510 
# 
# From -- ./inp_files/25833.got.cif
#   From: 2010.05.17/outbox.cif.g08.bks.cpg/sg68_13_cif.got.tgz:25833.got - 2010.06.03 18:57:09.
