data_PCOD9509205
_publ_section_title
;
Structure prediction by ZEFSAII (Michael W. Deem and Ramdas Pophale) SiO2 
 PCOD9509205
Probable space group: C C C A
;
_chemical_formula_sum "Si O2"
_cell_formula_units_Z 52
_cell_length_a 21.679524
_cell_length_b 19.518283
_cell_length_c 5.364065
_cell_angle_alpha 90.000000
_cell_angle_beta 90.000000
_cell_angle_gamma 90.000000
_cell_volume 2269.788467
_symmetry_space_group_name_H-M "C C C A"
_symmetry_group_IT_number 68
_space_group.IT_coordinate_system_code '2'
_symmetry_cell_setting 'orthorhombic'
loop_
_space_group_symop_operation_xyz
x,y,z
-x,1/2-y,z
x,1/2-y,1/2-z
-x,y,1/2-z
-x,-y,-z
x,1/2+y,-z
-x,1/2+y,1/2+z
x,-y,1/2+z
1/2+x,1/2+y,z
1/2-x,-y,z
1/2+x,-y,1/2-z
1/2-x,1/2+y,1/2-z
1/2-x,1/2-y,-z
1/2+x,y,-z
1/2-x,y,1/2+z
1/2+x,1/2-y,1/2+z
loop_
_atom_site_type_symbol
_atom_site_label
_atom_site_fract_x
_atom_site_fract_y
_atom_site_fract_z
Si Si1 0.000000 0.250000 0.750000
Si Si2 0.209602 0.089507 0.479981
Si Si3 0.098365 0.818678 0.904051
Si Si4 0.915306 0.467210 0.357150
O O1 0.045641 0.201662 0.596117
O O2 0.252530 0.088470 0.235610
O O3 0.164533 0.155887 0.502947
O O4 0.158623 0.030987 0.418380
O O5 0.107190 0.750000 0.750000
O O6 0.075603 0.888565 0.770852
O O7 0.937992 0.514639 0.133813
#
# Coordination Sequence:
#
# PCOD9509205 Si02
#       4
#     4  16  16  16
#     4  12  26  52  76  90 136 196 252 298 366 412
#     4  10  23  41  71 108 149 185 228 286 352 430
#     4  10  27  45  75 102 140 189 247 287 360 422
#     4  10  23  43  71 107 149 184 233 284 352 427
#
# _framework density 22.909624999999998
#
# number of rings (size 3 to 8) (size 9 to 14) (size 15 to 20)
#    1.846    0.000    0.000    2.308    8.615    4.923 
#    0.000    1.538    0.000    0.000    0.000    0.000 
#    0.000    0.000    0.000    0.000    0.000    0.000 
#
# Total GULP energy -144786.707487 kJ/mol
# GULP energy per Si atom -5568.719519 kJ/mol
# Density = 2.285748 g / cm^3
# Si number density = 22.909625 Si / 1000 Ang^3
#
#
#
# Elastic Constant Matrix: (Units=GPa)
#
#
# Indices 1 2 3 4 5 6 
#
# 1 151.7563 16.1245 73.6693 0.0000 0.0000 0.0000
# 2 16.1245 87.2950 16.6194 0.0000 0.0000 0.0000
# 3 73.6693 16.6194 118.7857 0.0000 0.0000 0.0000
# 4 0.0000 0.0000 0.0000 32.3511 0.0000 0.0000
# 5 0.0000 0.0000 0.0000 0.0000 45.0287 0.0000
# 6 0.0000 0.0000 0.0000 0.0000 0.0000 118.0303
#
#
#
# Elastic Compliance Matrix: (Units=1/GPa)
#
#
# Indices 1 2 3 4 5 6 
#
# 1 0.009463 -0.000648 -0.005778 0.000000 0.000000 0.000000
# 2 -0.000648 0.011813 -0.001251 0.000000 0.000000 0.000000
# 3 -0.005778 -0.001251 0.012177 0.000000 0.000000 0.000000
# 4 0.000000 0.000000 0.000000 0.030911 0.000000 0.000000
# 5 0.000000 0.000000 0.000000 0.000000 0.022208 0.000000
# 6 0.000000 0.000000 0.000000 0.000000 0.000000 0.008472
#
#
# Mechanical properties :
#
#
# Convention : Reuss Voigt Hill
#
# Bulk Modulus (GPa) = 55.25079 63.40704 59.32891
# Shear Modulus (GPa) = 42.94311 55.84361 49.39336
#
# Velocity S-wave (km/s) = 4.33420 4.94252 4.64832
# Velocity P-wave (km/s) = 7.01543 7.76585 7.40016
#
# Compressibility (1/GPa) = 0.01809929
#
# Stress axis : x y z
#
# Youngs Moduli (GPa) = 105.66924 84.65074 82.12011
#
# Poissons Ratio (x) = 0.05485 0.47453
# Poissons Ratio (y) = 0.06846 0.10273
# Poissons Ratio (z) = 0.61061 0.10590
#
# Static dielectric constant tensor:
#      x y z
#    x 1.715010 0.000000 0.000000 
#    y 0.000000 1.887250 0.000000 
#    z 0.000000 0.000000 1.881430 
# 
# From -- ./inp_files/1037.got.cif
#   From: 2010.05.17/outbox.cif.g08.bks.cpg/sg68_1_cif.got.tgz:1037.got - 2010.06.03 18:57:09.
