data_PCOD9509262
_publ_section_title
;
Structure prediction by ZEFSAII (Michael W. Deem and Ramdas Pophale) SiO2 
 PCOD9509262
Probable space group: C C C A
;
_chemical_formula_sum "Si O2"
_cell_formula_units_Z 84
_cell_length_a 14.067274
_cell_length_b 16.822825
_cell_length_c 13.340448
_cell_angle_alpha 90.000000
_cell_angle_beta 90.000000
_cell_angle_gamma 90.000000
_cell_volume 3157.034211
_symmetry_space_group_name_H-M "C C C A"
_symmetry_group_IT_number 68
_space_group.IT_coordinate_system_code '2'
_symmetry_cell_setting 'orthorhombic'
loop_
_space_group_symop_operation_xyz
x,y,z
-x,1/2-y,z
x,1/2-y,1/2-z
-x,y,1/2-z
-x,-y,-z
x,1/2+y,-z
-x,1/2+y,1/2+z
x,-y,1/2+z
1/2+x,1/2+y,z
1/2-x,-y,z
1/2+x,-y,1/2-z
1/2-x,1/2+y,1/2-z
1/2-x,1/2-y,-z
1/2+x,y,-z
1/2-x,y,1/2+z
1/2+x,1/2-y,1/2+z
loop_
_atom_site_type_symbol
_atom_site_label
_atom_site_fract_x
_atom_site_fract_y
_atom_site_fract_z
Si Si1 0.946475 0.963284 0.840395
Si Si2 0.842173 0.831914 0.388982
Si Si3 0.812361 0.874233 0.599034
Si Si4 0.391474 0.447154 0.067912
Si Si5 0.695065 0.250000 0.750000
Si Si6 0.750000 0.500000 0.660435
Si Si7 0.500000 0.250000 0.250000
O O1 0.792229 0.079972 0.888667
O O2 0.000000 0.922002 0.750000
O O3 0.009849 0.041606 0.870589
O O4 0.919173 0.929686 0.950865
O O5 0.851501 0.820813 0.506916
O O6 0.759856 0.780604 0.340219
O O7 0.932366 0.804124 0.321999
O O8 0.846828 0.826854 0.696858
O O9 0.846171 0.979369 0.786390
O O10 0.854088 0.962028 0.576488
O O11 0.303831 0.390586 0.101581
#
# Coordination Sequence:
#
# PCOD9509262 Si02
#       7
#    16  16  16  16   8   8   4
#     4  11  24  40  69 121 145 198 256 344 418 502
#     4  11  24  49  71 112 154 210 272 354 403 515
#     4  11  22  46  74 110 157 205 268 347 420 500
#     4  10  23  42  74 113 153 202 263 348 427 490
#     4  11  28  39  70 104 144 218 263 316 436 495
#     4  12  24  44  78 106 154 198 278 340 416 474
#     4  10  28  48  84 120 166 222 290 328 456 520
#
# _framework density 26.607250000000001
#
# number of rings (size 3 to 8) (size 9 to 14) (size 15 to 20)
#    0.000    1.143    3.810    0.571    6.667    1.524 
#    0.000    0.952    0.000    2.286    0.000    0.000 
#    0.000    0.000    0.000    0.000    0.000    0.000 
#
# Total GULP energy -233869.616603 kJ/mol
# GULP energy per Si atom -5568.324205 kJ/mol
# Density = 2.654669 g / cm^3
# Si number density = 26.607250 Si / 1000 Ang^3
#
#
#
# Elastic Constant Matrix: (Units=GPa)
#
#
# Indices 1 2 3 4 5 6 
#
# 1 203.0400 44.3302 73.3097 0.0000 0.0000 0.0000
# 2 44.3302 126.8213 68.2809 0.0000 0.0000 0.0000
# 3 73.3097 68.2809 157.5904 0.0000 0.0000 0.0000
# 4 0.0000 0.0000 0.0000 13.8826 0.0000 0.0000
# 5 0.0000 0.0000 0.0000 0.0000 12.4528 0.0000
# 6 0.0000 0.0000 0.0000 0.0000 0.0000 -1.5127
#
#
#
# Elastic Compliance Matrix: (Units=1/GPa)
#
#
# Indices 1 2 3 4 5 6 
#
# 1 0.005977 -0.000772 -0.002446 0.000000 0.000000 0.000000
# 2 -0.000772 0.010384 -0.004140 0.000000 0.000000 0.000000
# 3 -0.002446 -0.004140 0.009277 0.000000 0.000000 0.000000
# 4 0.000000 0.000000 0.000000 0.072033 0.000000 0.000000
# 5 0.000000 0.000000 0.000000 0.000000 0.080303 0.000000
# 6 0.000000 0.000000 0.000000 0.000000 0.000000 -0.661076
#
#
# Mechanical properties :
#
#
# Convention : Reuss Voigt Hill
#
# Bulk Modulus (GPa) = 91.55935 95.47706 93.51821
# Shear Modulus (GPa) = -10.75856 25.06660 7.15402
#
# Velocity S-wave (km/s) = -2.01302 3.07269 1.64152
# Velocity P-wave (km/s) = 5.39288 6.96780 6.23031
#
# Compressibility (1/GPa) = 0.01092188
#
# Stress axis : x y z
#
# Youngs Moduli (GPa) = 167.31286 96.30170 107.79331
#
# Poissons Ratio (x) = 0.07439 0.26363
# Poissons Ratio (y) = 0.12924 0.44625
# Poissons Ratio (z) = 0.40920 0.39868
#
# Static dielectric constant tensor:
#      x y z
#    x 2.253170 0.000000 0.000000 
#    y 0.000000 2.280210 0.000000 
#    z 0.000000 0.000000 2.219990 
# 
# From -- ./inp_files/14401.got.cif
#   From: 2010.05.17/outbox.cif.g08.bks.cpg/sg68_8_cif.got.tgz:14401.got - 2010.06.03 18:57:09.
