data_PCOD9509675
_publ_section_title
;
Structure prediction by ZEFSAII (Michael W. Deem and Ramdas Pophale) SiO2 
 PCOD9509675
Probable space group: C C C A
;
_chemical_formula_sum "Si O2"
_cell_formula_units_Z 92
_cell_length_a 14.215624
_cell_length_b 23.104396
_cell_length_c 10.009347
_cell_angle_alpha 90.000000
_cell_angle_beta 90.000000
_cell_angle_gamma 90.000000
_cell_volume 3287.504023
_symmetry_space_group_name_H-M "C C C A"
_symmetry_group_IT_number 68
_space_group.IT_coordinate_system_code '2'
_symmetry_cell_setting 'orthorhombic'
loop_
_space_group_symop_operation_xyz
x,y,z
-x,1/2-y,z
x,1/2-y,1/2-z
-x,y,1/2-z
-x,-y,-z
x,1/2+y,-z
-x,1/2+y,1/2+z
x,-y,1/2+z
1/2+x,1/2+y,z
1/2-x,-y,z
1/2+x,-y,1/2-z
1/2-x,1/2+y,1/2-z
1/2-x,1/2-y,-z
1/2+x,y,-z
1/2-x,y,1/2+z
1/2+x,1/2-y,1/2+z
loop_
_atom_site_type_symbol
_atom_site_label
_atom_site_fract_x
_atom_site_fract_y
_atom_site_fract_z
Si Si1 0.283278 0.148966 0.900893
Si Si2 0.593223 0.850832 0.854917
Si Si3 0.000000 0.750000 0.750000
Si Si4 0.078031 0.839153 0.528255
Si Si5 0.297076 0.451124 0.254284
Si Si6 0.229655 0.750000 0.250000
Si Si7 0.941468 0.029525 0.383740
O O1 0.272692 0.102527 0.782118
O O2 0.297126 0.212552 0.843658
O O3 0.360886 0.128916 0.003909
O O4 0.185425 0.159346 0.979254
O O5 0.611441 0.907435 0.762709
O O6 0.659773 0.797077 0.815062
O O7 0.489930 0.830282 0.898293
O O8 0.950622 0.705402 0.643658
O O9 0.064805 0.903865 0.579539
O O10 0.250000 0.500000 0.156137
O O11 0.339921 0.500217 0.356187
O O12 0.000000 0.023296 0.250000
O O13 0.000000 0.000000 0.500000
#
# Coordination Sequence:
#
# PCOD9509675 Si02
#       7
#    16  16   4  16  16   8  16
#     4  11  26  45  70 106 144 192 252 313 380 453
#     4  11  25  45  71 104 143 192 247 314 382 457
#     4  12  28  46  72 108 144 194 264 304 386 462
#     4  12  26  46  72 105 148 193 246 316 380 456
#     4  11  26  43  73 105 146 191 249 312 375 464
#     4  10  24  46  72 100 142 192 250 310 388 448
#     4  12  25  46  73 107 147 195 244 301 380 447
#
# _framework density 27.984756999999998
#
# number of rings (size 3 to 8) (size 9 to 14) (size 15 to 20)
#    0.000    0.696    2.609    3.652    2.435    9.043 
#    0.000    0.000    0.000    0.000    0.000    0.000 
#    0.000    0.000    0.000    0.000    0.000    0.000 
#
# Total GULP energy -256972.951320 kJ/mol
# GULP energy per Si atom -5586.368507 kJ/mol
# Density = 2.792106 g / cm^3
# Si number density = 27.984757 Si / 1000 Ang^3
#
#
#
# Elastic Constant Matrix: (Units=GPa)
#
#
# Indices 1 2 3 4 5 6 
#
# 1 91.3540 29.0562 17.0147 0.0000 0.0000 0.0000
# 2 29.0562 254.8498 52.8352 0.0000 0.0000 0.0000
# 3 17.0147 52.8352 104.7021 0.0000 0.0000 0.0000
# 4 0.0000 0.0000 0.0000 31.7214 0.0000 0.0000
# 5 0.0000 0.0000 0.0000 0.0000 63.1373 0.0000
# 6 0.0000 0.0000 0.0000 0.0000 0.0000 35.2053
#
#
#
# Elastic Compliance Matrix: (Units=1/GPa)
#
#
# Indices 1 2 3 4 5 6 
#
# 1 0.011527 -0.001034 -0.001351 0.000000 0.000000 0.000000
# 2 -0.001034 0.004475 -0.002090 0.000000 0.000000 0.000000
# 3 -0.001351 -0.002090 0.010825 0.000000 0.000000 0.000000
# 4 0.000000 0.000000 0.000000 0.031524 0.000000 0.000000
# 5 0.000000 0.000000 0.000000 0.000000 0.015838 0.000000
# 6 0.000000 0.000000 0.000000 0.000000 0.000000 0.028405
#
#
# Mechanical properties :
#
#
# Convention : Reuss Voigt Hill
#
# Bulk Modulus (GPa) = 55.94063 72.07979 64.01021
# Shear Modulus (GPa) = 42.55130 49.47946 46.01538
#
# Velocity S-wave (km/s) = 3.90361 4.20942 4.05940
# Velocity P-wave (km/s) = 6.35222 7.03124 6.70034
#
# Compressibility (1/GPa) = 0.01787609
#
# Stress axis : x y z
#
# Youngs Moduli (GPa) = 86.75271 223.45786 92.37631
#
# Poissons Ratio (x) = 0.23107 0.12484
# Poissons Ratio (y) = 0.08971 0.19309
# Poissons Ratio (z) = 0.11724 0.46707
#
# Static dielectric constant tensor:
#      x y z
#    x 2.481500 0.000000 0.000000 
#    y 0.000000 2.092860 0.000000 
#    z 0.000000 0.000000 2.392110 
# 
# From -- ./inp_files/14521.got.cif
#   From: 2010.05.17/outbox.cif.g08.bks.cpg/sg68_8_cif.got.tgz:14521.got - 2010.06.03 18:57:09.
