data_PCOD9509428
_publ_section_title
;
Structure prediction by ZEFSAII (Michael W. Deem and Ramdas Pophale) SiO2 
 PCOD9509428
Probable space group: C C C A
;
_chemical_formula_sum "Si O2"
_cell_formula_units_Z 52
_cell_length_a 9.799549
_cell_length_b 23.468606
_cell_length_c 9.447642
_cell_angle_alpha 90.000000
_cell_angle_beta 90.000000
_cell_angle_gamma 90.000000
_cell_volume 2172.785283
_symmetry_space_group_name_H-M "C C C A"
_symmetry_group_IT_number 68
_space_group.IT_coordinate_system_code '2'
_symmetry_cell_setting 'orthorhombic'
loop_
_space_group_symop_operation_xyz
x,y,z
-x,1/2-y,z
x,1/2-y,1/2-z
-x,y,1/2-z
-x,-y,-z
x,1/2+y,-z
-x,1/2+y,1/2+z
x,-y,1/2+z
1/2+x,1/2+y,z
1/2-x,-y,z
1/2+x,-y,1/2-z
1/2-x,1/2+y,1/2-z
1/2-x,1/2-y,-z
1/2+x,y,-z
1/2-x,y,1/2+z
1/2+x,1/2-y,1/2+z
loop_
_atom_site_type_symbol
_atom_site_label
_atom_site_fract_x
_atom_site_fract_y
_atom_site_fract_z
Si Si1 0.465163 0.389145 0.090154
Si Si2 0.136279 0.452345 0.329516
Si Si3 0.186119 0.653574 0.621937
Si Si4 0.500000 0.750000 0.250000
O O1 0.500000 0.403293 0.250000
O O2 0.346523 0.340796 0.091466
O O3 0.398544 0.437822 0.992076
O O4 0.602726 0.371409 0.010558
O O5 0.250000 0.500000 0.320111
O O6 0.173976 0.393686 0.247134
O O7 0.000000 0.471317 0.250000
O O8 0.102104 0.709052 0.664515
#
# Coordination Sequence:
#
# PCOD9509428 Si02
#       4
#    16  16  16   4
#     4  11  24  47  75 111 156 197 263 316 393 465
#     4  10  23  48  77 109 154 205 259 319 385 465
#     4  11  25  49  77 112 153 203 261 318 388 460
#     4  12  24  52  84 104 164 200 264 326 376 464
#
# _framework density 23.932416
#
# number of rings (size 3 to 8) (size 9 to 14) (size 15 to 20)
#    0.000    1.231    4.615    1.846    0.000    6.154 
#    0.000   16.923    3.385    0.000    0.000    0.000 
#    0.000    0.000    0.000    0.000    0.000    0.000 
#
# Total GULP energy -145718.213507 kJ/mol
# GULP energy per Si atom -5604.546673 kJ/mol
# Density = 2.387794 g / cm^3
# Si number density = 23.932416 Si / 1000 Ang^3
#
#
#
# Elastic Constant Matrix: (Units=GPa)
#
#
# Indices 1 2 3 4 5 6 
#
# 1 167.0060 39.9067 66.3649 0.0000 0.0000 0.0000
# 2 39.9067 109.1953 64.6758 0.0000 0.0000 0.0000
# 3 66.3649 64.6758 201.2114 0.0000 0.0000 0.0000
# 4 0.0000 0.0000 0.0000 -10.3219 0.0000 0.0000
# 5 0.0000 0.0000 0.0000 0.0000 38.0603 0.0000
# 6 0.0000 0.0000 0.0000 0.0000 0.0000 50.5638
#
#
#
# Elastic Compliance Matrix: (Units=1/GPa)
#
#
# Indices 1 2 3 4 5 6 
#
# 1 0.007081 -0.001488 -0.001857 0.000000 0.000000 0.000000
# 2 -0.001488 0.011624 -0.003246 0.000000 0.000000 0.000000
# 3 -0.001857 -0.003246 0.006626 0.000000 0.000000 0.000000
# 4 0.000000 0.000000 0.000000 -0.096882 0.000000 0.000000
# 5 0.000000 0.000000 0.000000 0.000000 0.026274 0.000000
# 6 0.000000 0.000000 0.000000 0.000000 0.000000 0.019777
#
#
# Mechanical properties :
#
#
# Convention : Reuss Voigt Hill
#
# Bulk Modulus (GPa) = 82.30803 91.03418 86.67110
# Shear Modulus (GPa) = -604.74747 36.09147 -284.32800
#
# Velocity S-wave (km/s) = -15.91346 3.88759 -10.91157
# Velocity P-wave (km/s) = 17.41219 7.63359 11.06600
#
# Compressibility (1/GPa) = 0.01214948
#
# Stress axis : x y z
#
# Youngs Moduli (GPa) = 141.21440 86.02883 150.92623
#
# Poissons Ratio (x) = 0.12800 0.28033
# Poissons Ratio (y) = 0.21011 0.48984
# Poissons Ratio (z) = 0.26229 0.27921
#
# Static dielectric constant tensor:
#      x y z
#    x 1.926730 0.000000 0.000000 
#    y 0.000000 1.938740 0.000000 
#    z 0.000000 0.000000 1.904550 
# 
# From -- ./inp_files/3810.got.cif
#   From: 2010.05.17/outbox.cif.g08.bks.cpg/sg68_2_cif.got.tgz:3810.got - 2010.06.03 18:57:09.
