data_PCOD9509950
_publ_section_title
;
Structure prediction by ZEFSAII (Michael W. Deem and Ramdas Pophale) SiO2 
 PCOD9509950
Probable space group: C C C A
;
_chemical_formula_sum "Si O2"
_cell_formula_units_Z 116
_cell_length_a 17.892367
_cell_length_b 16.939710
_cell_length_c 17.741523
_cell_angle_alpha 90.000000
_cell_angle_beta 90.000000
_cell_angle_gamma 90.000000
_cell_volume 5377.304964
_symmetry_space_group_name_H-M "C C C A"
_symmetry_group_IT_number 68
_space_group.IT_coordinate_system_code '2'
_symmetry_cell_setting 'orthorhombic'
loop_
_space_group_symop_operation_xyz
x,y,z
-x,1/2-y,z
x,1/2-y,1/2-z
-x,y,1/2-z
-x,-y,-z
x,1/2+y,-z
-x,1/2+y,1/2+z
x,-y,1/2+z
1/2+x,1/2+y,z
1/2-x,-y,z
1/2+x,-y,1/2-z
1/2-x,1/2+y,1/2-z
1/2-x,1/2-y,-z
1/2+x,y,-z
1/2-x,y,1/2+z
1/2+x,1/2-y,1/2+z
loop_
_atom_site_type_symbol
_atom_site_label
_atom_site_fract_x
_atom_site_fract_y
_atom_site_fract_z
Si Si1 0.110111 0.618325 0.766655
Si Si2 0.587169 0.008733 0.014859
Si Si3 0.000000 0.750000 0.750000
Si Si4 0.671940 0.715762 0.106859
Si Si5 0.831801 0.789478 0.328387
Si Si6 0.320812 0.390364 0.615679
Si Si7 0.338981 0.974944 0.647035
Si Si8 0.166184 0.155499 0.945177
O O1 0.113794 0.665483 0.845652
O O2 0.175945 0.609975 0.705953
O O3 0.108488 0.528552 0.798006
O O4 0.056630 0.680105 0.720443
O O5 0.634126 0.992777 0.938246
O O6 0.624585 0.953386 0.078362
O O7 0.500000 0.000000 0.000000
O O8 0.598231 0.097630 0.042862
O O9 0.742055 0.716576 0.163017
O O10 0.652248 0.804606 0.087687
O O11 0.694280 0.676803 0.028692
O O12 0.855700 0.750000 0.250000
O O13 0.848907 0.881996 0.336432
O O14 0.855268 0.732276 0.397208
O O15 0.234251 0.392827 0.592310
O O16 0.250000 0.000000 0.653956
#
# Coordination Sequence:
#
# PCOD9509950 Si02
#       8
#    16  16   4  16  16  16  16  16
#     4  12  25  41  74 101 149 184 236 306 380 437
#     4  12  27  45  67 101 144 191 246 301 373 449
#     4  12  28  48  68 116 154 192 236 312 388 452
#     4  11  19  41  66 102 136 175 229 303 367 418
#     4  11  23  40  68 105 142 179 240 297 361 430
#     4  11  23  40  71 103 134 182 245 295 365 432
#     4  12  25  45  73 105 146 191 242 310 370 436
#     4  11  23  42  72 100 142 182 246 307 361 439
#
# _framework density 21.572144999999999
#
# number of rings (size 3 to 8) (size 9 to 14) (size 15 to 20)
#    0.000    0.552    4.138    6.207    3.862    0.000 
#    0.000    2.069    0.000    0.828    0.000    0.000 
#    0.000    0.000    0.000    0.000    0.000    0.000 
#
# Total GULP energy -322967.721237 kJ/mol
# GULP energy per Si atom -5568.408987 kJ/mol
# Density = 2.152305 g / cm^3
# Si number density = 21.572145 Si / 1000 Ang^3
#
#
#
# Elastic Constant Matrix: (Units=GPa)
#
#
# Indices 1 2 3 4 5 6 
#
# 1 66.6860 43.9899 21.6296 0.0000 0.0000 0.0000
# 2 43.9899 184.5731 38.9503 0.0000 0.0000 0.0000
# 3 21.6296 38.9503 102.8742 0.0000 0.0000 0.0000
# 4 0.0000 0.0000 0.0000 34.9540 0.0000 0.0000
# 5 0.0000 0.0000 0.0000 0.0000 -1.6252 0.0000
# 6 0.0000 0.0000 0.0000 0.0000 0.0000 25.5446
#
#
#
# Elastic Compliance Matrix: (Units=1/GPa)
#
#
# Indices 1 2 3 4 5 6 
#
# 1 0.018318 -0.003862 -0.002389 0.000000 0.000000 0.000000
# 2 -0.003862 0.006702 -0.001726 0.000000 0.000000 0.000000
# 3 -0.002389 -0.001726 0.010876 0.000000 0.000000 0.000000
# 4 0.000000 0.000000 0.000000 0.028609 0.000000 0.000000
# 5 0.000000 0.000000 0.000000 0.000000 -0.615315 0.000000
# 6 0.000000 0.000000 0.000000 0.000000 0.000000 0.039147
#
#
# Mechanical properties :
#
#
# Convention : Reuss Voigt Hill
#
# Bulk Modulus (GPa) = 50.14185 62.58589 56.36387
# Shear Modulus (GPa) = -10.22368 28.41224 9.09428
#
# Velocity S-wave (km/s) = -2.17935 3.63310 2.05546
# Velocity P-wave (km/s) = 4.11843 6.83188 5.64075
#
# Compressibility (1/GPa) = 0.01994342
#
# Stress axis : x y z
#
# Youngs Moduli (GPa) = 54.59137 149.19962 91.94222
#
# Poissons Ratio (x) = 0.57614 0.21968
# Poissons Ratio (y) = 0.21081 0.15867
# Poissons Ratio (z) = 0.13044 0.25749
#
# Static dielectric constant tensor:
#      x y z
#    x 1.841090 0.000000 0.000000 
#    y 0.000000 1.852220 0.000000 
#    z 0.000000 0.000000 1.821930 
# 
# From -- ./inp_files/32149.got.cif
#   From: 2010.05.17/outbox.cif.g08.bks.cpg/sg68_17_cif.got.tgz:32149.got - 2010.06.03 18:57:09.
