data_PCOD9509588
_publ_section_title
;
Structure prediction by ZEFSAII (Michael W. Deem and Ramdas Pophale) SiO2 
 PCOD9509588
Probable space group: C C C A
;
_chemical_formula_sum "Si O2"
_cell_formula_units_Z 88
_cell_length_a 8.454492
_cell_length_b 25.856145
_cell_length_c 19.840429
_cell_angle_alpha 90.000000
_cell_angle_beta 90.000000
_cell_angle_gamma 90.000000
_cell_volume 4337.129109
_symmetry_space_group_name_H-M "C C C A"
_symmetry_group_IT_number 68
_space_group.IT_coordinate_system_code '2'
_symmetry_cell_setting 'orthorhombic'
loop_
_space_group_symop_operation_xyz
x,y,z
-x,1/2-y,z
x,1/2-y,1/2-z
-x,y,1/2-z
-x,-y,-z
x,1/2+y,-z
-x,1/2+y,1/2+z
x,-y,1/2+z
1/2+x,1/2+y,z
1/2-x,-y,z
1/2+x,-y,1/2-z
1/2-x,1/2+y,1/2-z
1/2-x,1/2-y,-z
1/2+x,y,-z
1/2-x,y,1/2+z
1/2+x,1/2-y,1/2+z
loop_
_atom_site_type_symbol
_atom_site_label
_atom_site_fract_x
_atom_site_fract_y
_atom_site_fract_z
Si Si1 0.532591 0.860199 0.025797
Si Si2 0.587414 0.524357 0.817367
Si Si3 0.172352 0.268991 0.673106
Si Si4 0.138375 0.127835 0.897469
Si Si5 0.582588 0.471451 0.563606
Si Si6 0.000000 0.250000 0.405841
O O1 0.708239 0.869432 0.054272
O O2 0.430666 0.909860 0.051216
O O3 0.487397 0.803109 0.051786
O O4 0.510644 0.860417 0.945432
O O5 0.500000 0.540688 0.750000
O O6 0.750000 0.500000 0.794281
O O7 0.619648 0.572253 0.865776
O O8 0.499572 0.483409 0.865153
O O9 0.182055 0.250000 0.750000
O O10 0.162443 0.330407 0.661191
O O11 0.335211 0.252566 0.636141
O O12 0.000000 0.250000 0.646232
O O13 0.500000 0.500000 0.500000
O O14 0.750000 0.500000 0.566803
#
# Coordination Sequence:
#
# PCOD9509588 Si02
#       6
#    16  16  16  16  16   8
#     4  11  24  43  70 104 136 182 233 294 357 417
#     4  12  26  47  65 100 140 178 233 288 356 426
#     4  10  24  44  66  98 136 188 237 280 353 432
#     4  11  25  43  70 103 137 179 231 295 351 432
#     4  12  23  42  70 101 136 183 233 288 354 427
#     4  10  25  44  68 100 143 180 236 302 348 418
#
# _framework density 20.289921
#
# number of rings (size 3 to 8) (size 9 to 14) (size 15 to 20)
#    0.000    0.909    3.636    2.455    6.364    1.455 
#    3.273    0.000    0.000    0.000    0.000    0.000 
#    0.000    0.000    0.000    0.000    0.000    0.000 
#
# Total GULP energy -245647.247413 kJ/mol
# GULP energy per Si atom -5582.891987 kJ/mol
# Density = 2.024374 g / cm^3
# Si number density = 20.289921 Si / 1000 Ang^3
#
#
#
# Elastic Constant Matrix: (Units=GPa)
#
#
# Indices 1 2 3 4 5 6 
#
# 1 97.1775 25.9675 14.0248 0.0000 0.0000 0.0000
# 2 25.9675 150.3728 37.2492 0.0000 0.0000 0.0000
# 3 14.0248 37.2492 67.5104 0.0000 0.0000 0.0000
# 4 0.0000 0.0000 0.0000 24.6650 0.0000 0.0000
# 5 0.0000 0.0000 0.0000 0.0000 14.1034 0.0000
# 6 0.0000 0.0000 0.0000 0.0000 0.0000 23.8786
#
#
#
# Elastic Compliance Matrix: (Units=1/GPa)
#
#
# Indices 1 2 3 4 5 6 
#
# 1 0.010905 -0.001531 -0.001420 0.000000 0.000000 0.000000
# 2 -0.001531 0.007918 -0.004051 0.000000 0.000000 0.000000
# 3 -0.001420 -0.004051 0.017343 0.000000 0.000000 0.000000
# 4 0.000000 0.000000 0.000000 0.040543 0.000000 0.000000
# 5 0.000000 0.000000 0.000000 0.000000 0.070905 0.000000
# 6 0.000000 0.000000 0.000000 0.000000 0.000000 0.041879
#
#
# Mechanical properties :
#
#
# Convention : Reuss Voigt Hill
#
# Bulk Modulus (GPa) = 45.12550 52.17152 48.64851
# Shear Modulus (GPa) = 23.70980 28.38403 26.04691
#
# Velocity S-wave (km/s) = 3.42212 3.74427 3.58681
# Velocity P-wave (km/s) = 6.15655 6.66796 6.41735
#
# Compressibility (1/GPa) = 0.02216042
#
# Stress axis : x y z
#
# Youngs Moduli (GPa) = 91.70425 126.29514 57.66145
#
# Poissons Ratio (x) = 0.19339 0.08191
# Poissons Ratio (y) = 0.14042 0.23357
# Poissons Ratio (z) = 0.13027 0.51158
#
# Static dielectric constant tensor:
#      x y z
#    x 1.744730 0.000000 0.000000 
#    y 0.000000 1.720510 0.000000 
#    z 0.000000 0.000000 1.748190 
# 
# From -- ./inp_files/36303.got.cif
#   From: 2010.05.17/outbox.cif.g08.bks.cpg/sg68_19_cif.got.tgz:36303.got - 2010.06.03 18:57:09.
