data_PCOD9509625
_publ_section_title
;
Structure prediction by ZEFSAII (Michael W. Deem and Ramdas Pophale) SiO2 
 PCOD9509625
Probable space group: C C C A
;
_chemical_formula_sum "Si O2"
_cell_formula_units_Z 56
_cell_length_a 5.666437
_cell_length_b 14.036346
_cell_length_c 29.117255
_cell_angle_alpha 90.000000
_cell_angle_beta 90.000000
_cell_angle_gamma 90.000000
_cell_volume 2315.872041
_symmetry_space_group_name_H-M "C C C A"
_symmetry_group_IT_number 68
_space_group.IT_coordinate_system_code '2'
_symmetry_cell_setting 'orthorhombic'
loop_
_space_group_symop_operation_xyz
x,y,z
-x,1/2-y,z
x,1/2-y,1/2-z
-x,y,1/2-z
-x,-y,-z
x,1/2+y,-z
-x,1/2+y,1/2+z
x,-y,1/2+z
1/2+x,1/2+y,z
1/2-x,-y,z
1/2+x,-y,1/2-z
1/2-x,1/2+y,1/2-z
1/2-x,1/2-y,-z
1/2+x,y,-z
1/2-x,y,1/2+z
1/2+x,1/2-y,1/2+z
loop_
_atom_site_type_symbol
_atom_site_label
_atom_site_fract_x
_atom_site_fract_y
_atom_site_fract_z
Si Si1 0.022225 0.360837 0.481251
Si Si2 0.640671 0.102945 0.616741
Si Si3 0.000000 0.250000 0.840509
Si Si4 0.660411 0.895191 0.291286
O O1 0.769009 0.399085 0.499072
O O2 0.019604 0.369807 0.426368
O O3 0.000000 0.250000 0.494645
O O4 0.495377 0.092245 0.663290
O O5 0.830960 0.185333 0.627585
O O6 0.750000 0.000000 0.606551
O O7 0.139018 0.322716 0.807473
O O8 0.500000 0.858510 0.250000
O O9 0.750000 0.000000 0.277573
#
# Coordination Sequence:
#
# PCOD9509625 Si02
#       4
#    16  16   8  16
#     4  10  24  44  76 113 158 210 268 331 401 477
#     4  12  27  49  78 113 154 205 263 327 391 478
#     4  12  28  51  80 106 154 208 250 326 395 472
#     4  12  28  52  78 114 155 202 260 323 393 477
#
# _framework density 24.180956999999999
#
# number of rings (size 3 to 8) (size 9 to 14) (size 15 to 20)
#    0.000    0.571    2.857    3.429   10.000    4.571 
#    0.000    0.000    0.000    0.000    0.000    0.000 
#    0.000    0.000    0.000    0.000    0.000    0.000 
#
# Total GULP energy -156958.332322 kJ/mol
# GULP energy per Si atom -5605.654726 kJ/mol
# Density = 2.412592 g / cm^3
# Si number density = 24.180957 Si / 1000 Ang^3
#
#
#
# Elastic Constant Matrix: (Units=GPa)
#
#
# Indices 1 2 3 4 5 6 
#
# 1 97.9951 25.4377 43.3377 0.0000 0.0000 0.0000
# 2 25.4377 156.2872 -10.8282 0.0000 0.0000 0.0000
# 3 43.3377 -10.8282 123.1136 0.0000 0.0000 0.0000
# 4 0.0000 0.0000 0.0000 17.6163 0.0000 0.0000
# 5 0.0000 0.0000 0.0000 0.0000 53.4992 0.0000
# 6 0.0000 0.0000 0.0000 0.0000 0.0000 -11.0171
#
#
#
# Elastic Compliance Matrix: (Units=1/GPa)
#
#
# Indices 1 2 3 4 5 6 
#
# 1 0.012948 -0.002438 -0.004772 0.000000 0.000000 0.000000
# 2 -0.002438 0.006897 0.001465 0.000000 0.000000 0.000000
# 3 -0.004772 0.001465 0.009931 0.000000 0.000000 0.000000
# 4 0.000000 0.000000 0.000000 0.056765 0.000000 0.000000
# 5 0.000000 0.000000 0.000000 0.000000 0.018692 0.000000
# 6 0.000000 0.000000 0.000000 0.000000 0.000000 -0.090768
#
#
# Mechanical properties :
#
#
# Convention : Reuss Voigt Hill
#
# Bulk Modulus (GPa) = 54.68964 54.81001 54.74982
# Shear Modulus (GPa) = 156.00007 33.31628 94.65818
#
# Velocity S-wave (km/s) = 8.04075 3.71589 6.26344
# Velocity P-wave (km/s) = 10.43412 6.41297 8.66017
#
# Compressibility (1/GPa) = 0.01828500
#
# Stress axis : x y z
#
# Youngs Moduli (GPa) = 77.23199 144.99482 100.69140
#
# Poissons Ratio (x) = 0.35351 0.48053
# Poissons Ratio (y) = 0.18830 -0.14750
# Poissons Ratio (z) = 0.36858 -0.21239
#
# Static dielectric constant tensor:
#      x y z
#    x 2.029440 0.000000 0.000000 
#    y 0.000000 2.034430 0.000000 
#    z 0.000000 0.000000 1.841430 
# 
# From -- ./inp_files/52756.got.cif
#   From: 2010.05.17/outbox.cif.g08.bks.cpg/sg68_27_cif.got.tgz:52756.got - 2010.06.03 18:57:09.
