data_PCOD9509628
_publ_section_title
;
Structure prediction by ZEFSAII (Michael W. Deem and Ramdas Pophale) SiO2 
 PCOD9509628
Probable space group: C C C A
;
_chemical_formula_sum "Si O2"
_cell_formula_units_Z 52
_cell_length_a 19.751166
_cell_length_b 19.646177
_cell_length_c 5.365944
_cell_angle_alpha 90.000000
_cell_angle_beta 90.000000
_cell_angle_gamma 90.000000
_cell_volume 2082.173561
_symmetry_space_group_name_H-M "C C C A"
_symmetry_group_IT_number 68
_space_group.IT_coordinate_system_code '2'
_symmetry_cell_setting 'orthorhombic'
loop_
_space_group_symop_operation_xyz
x,y,z
-x,1/2-y,z
x,1/2-y,1/2-z
-x,y,1/2-z
-x,-y,-z
x,1/2+y,-z
-x,1/2+y,1/2+z
x,-y,1/2+z
1/2+x,1/2+y,z
1/2-x,-y,z
1/2+x,-y,1/2-z
1/2-x,1/2+y,1/2-z
1/2-x,1/2-y,-z
1/2+x,y,-z
1/2-x,y,1/2+z
1/2+x,1/2-y,1/2+z
loop_
_atom_site_type_symbol
_atom_site_label
_atom_site_fract_x
_atom_site_fract_y
_atom_site_fract_z
Si Si1 0.295580 0.250000 0.250000
Si Si2 0.720087 0.422800 0.777087
Si Si3 0.100581 0.145061 0.539838
Si Si4 0.000000 0.543966 0.250000
Si Si5 0.000000 0.750000 0.750000
O O1 0.250000 0.250000 0.500000
O O2 0.347524 0.310880 0.302744
O O3 0.750000 0.500000 0.758348
O O4 0.737409 0.394372 0.508447
O O5 0.643428 0.403390 0.849233
O O6 0.063239 0.093900 0.724499
O O7 0.048674 0.198136 0.406726
O O8 0.000000 0.500000 0.500000
#
# Coordination Sequence:
#
# PCOD9509628 Si02
#       5
#     8  16  16   8   4
#     4  12  27  49  84 123 161 222 276 366 428 508
#     4  10  24  44  77 112 154 207 263 343 414 489
#     4  12  27  52  81 117 173 209 299 330 436 510
#     4  12  31  49  80 119 167 234 276 356 422 510
#     4  12  28  54  88 126 172 250 268 374 424 522
#
# _framework density 24.973903
#
# number of rings (size 3 to 8) (size 9 to 14) (size 15 to 20)
#    0.000    0.615    0.000    5.538    8.615    7.385 
#    0.000    0.000    0.000    0.000    0.000    0.000 
#    0.000    0.000    0.000    0.000    0.000    0.000 
#
# Total GULP energy -145373.407066 kJ/mol
# GULP energy per Si atom -5591.284887 kJ/mol
# Density = 2.491706 g / cm^3
# Si number density = 24.973903 Si / 1000 Ang^3
#
#
#
# Elastic Constant Matrix: (Units=GPa)
#
#
# Indices 1 2 3 4 5 6 
#
# 1 178.8924 107.1603 99.1504 0.0000 0.0000 0.0000
# 2 107.1603 214.5071 76.5023 0.0000 0.0000 0.0000
# 3 99.1504 76.5023 219.7188 0.0000 0.0000 0.0000
# 4 0.0000 0.0000 0.0000 42.6066 0.0000 0.0000
# 5 0.0000 0.0000 0.0000 0.0000 55.2743 0.0000
# 6 0.0000 0.0000 0.0000 0.0000 0.0000 62.6823
#
#
#
# Elastic Compliance Matrix: (Units=1/GPa)
#
#
# Indices 1 2 3 4 5 6 
#
# 1 0.009428 -0.003645 -0.002985 0.000000 0.000000 0.000000
# 2 -0.003645 0.006732 -0.000699 0.000000 0.000000 0.000000
# 3 -0.002985 -0.000699 0.006142 0.000000 0.000000 0.000000
# 4 0.000000 0.000000 0.000000 0.023471 0.000000 0.000000
# 5 0.000000 0.000000 0.000000 0.000000 0.018092 0.000000
# 6 0.000000 0.000000 0.000000 0.000000 0.000000 0.015953
#
#
# Mechanical properties :
#
#
# Convention : Reuss Voigt Hill
#
# Bulk Modulus (GPa) = 130.84127 130.97161 130.90644
# Shear Modulus (GPa) = 51.53321 54.13300 52.83311
#
# Velocity S-wave (km/s) = 4.54749 4.66078 4.60448
# Velocity P-wave (km/s) = 8.94862 9.02890 8.98885
#
# Compressibility (1/GPa) = 0.00764285
#
# Stress axis : x y z
#
# Youngs Moduli (GPa) = 106.06520 148.53925 162.81769
#
# Poissons Ratio (x) = 0.54147 0.48606
# Poissons Ratio (y) = 0.38664 0.11382
# Poissons Ratio (z) = 0.31664 0.10384
#
# Static dielectric constant tensor:
#      x y z
#    x 2.016860 0.000000 0.000000 
#    y 0.000000 1.562500 0.000000 
#    z 0.000000 0.000000 1.965690 
# 
# From -- ./inp_files/1314.got.cif
#   From: 2010.05.17/outbox.cif.g08.bks.cpg/sg68_1_cif.got.tgz:1314.got - 2010.06.03 18:57:09.
