data_PCOD9509113
_publ_section_title
;
Structure prediction by ZEFSAII (Michael W. Deem and Ramdas Pophale) SiO2 
 PCOD9509113
Probable space group: C C C A
;
_chemical_formula_sum "Si O2"
_cell_formula_units_Z 80
_cell_length_a 21.381755
_cell_length_b 12.899142
_cell_length_c 14.999956
_cell_angle_alpha 90.000000
_cell_angle_beta 90.000000
_cell_angle_gamma 90.000000
_cell_volume 4137.082274
_symmetry_space_group_name_H-M "C C C A"
_symmetry_group_IT_number 68
_space_group.IT_coordinate_system_code '2'
_symmetry_cell_setting 'orthorhombic'
loop_
_space_group_symop_operation_xyz
x,y,z
-x,1/2-y,z
x,1/2-y,1/2-z
-x,y,1/2-z
-x,-y,-z
x,1/2+y,-z
-x,1/2+y,1/2+z
x,-y,1/2+z
1/2+x,1/2+y,z
1/2-x,-y,z
1/2+x,-y,1/2-z
1/2-x,1/2+y,1/2-z
1/2-x,1/2-y,-z
1/2+x,y,-z
1/2-x,y,1/2+z
1/2+x,1/2-y,1/2+z
loop_
_atom_site_type_symbol
_atom_site_label
_atom_site_fract_x
_atom_site_fract_y
_atom_site_fract_z
Si Si1 0.500000 0.750000 0.481463
Si Si2 0.078330 0.873806 0.388155
Si Si3 0.353502 0.045511 0.550997
Si Si4 0.014108 0.559649 0.853027
Si Si5 0.264999 0.607779 0.872677
Si Si6 0.155029 0.750000 0.250000
O O1 0.444366 0.720033 0.548535
O O2 0.511042 0.650449 0.418471
O O3 0.110631 0.831719 0.300011
O O4 0.125331 0.935829 0.451192
O O5 0.020686 0.950800 0.370181
O O6 0.315550 0.938560 0.558649
O O7 0.413368 0.048169 0.616763
O O8 0.301544 0.129733 0.582224
O O9 0.000000 0.586829 0.750000
O O10 0.250000 0.500000 0.817722
O O11 0.299076 0.694831 0.818998
#
# Coordination Sequence:
#
# PCOD9509113 Si02
#       6
#     8  16  16  16  16   8
#     4  10  23  39  60  90 134 170 208 243 347 396
#     4  11  25  37  67  97 127 166 211 279 322 393
#     4   8  19  44  58  85 129 169 200 261 317 388
#     4  11  22  40  64  98 127 166 210 272 325 383
#     4   8  21  42  63  84 129 165 213 263 306 392
#     4  12  24  41  66 104 123 168 230 266 330 378
#
# _framework density 19.337299999999999
#
# number of rings (size 3 to 8) (size 9 to 14) (size 15 to 20)
#    1.200    0.800    0.000    3.900    8.400    0.800 
#   10.800    0.000    0.000    0.000    0.000    0.000 
#    0.000    0.000    0.000    0.000    0.000    0.000 
#
# Total GULP energy -222691.654156 kJ/mol
# GULP energy per Si atom -5567.291354 kJ/mol
# Density = 1.929329 g / cm^3
# Si number density = 19.337300 Si / 1000 Ang^3
#
#
#
# Elastic Constant Matrix: (Units=GPa)
#
#
# Indices 1 2 3 4 5 6 
#
# 1 115.2003 31.7863 36.1678 0.0000 0.0000 0.0000
# 2 31.7863 33.5769 -0.9122 0.0000 0.0000 0.0000
# 3 36.1678 -0.9122 67.6781 0.0000 0.0000 0.0000
# 4 0.0000 0.0000 0.0000 13.3507 0.0000 0.0000
# 5 0.0000 0.0000 0.0000 0.0000 -55.5135 0.0000
# 6 0.0000 0.0000 0.0000 0.0000 0.0000 -28.5978
#
#
#
# Elastic Compliance Matrix: (Units=1/GPa)
#
#
# Indices 1 2 3 4 5 6 
#
# 1 0.015423 -0.014830 -0.008442 0.000000 0.000000 0.000000
# 2 -0.014830 0.044053 0.008519 0.000000 0.000000 0.000000
# 3 -0.008442 0.008519 0.019402 0.000000 0.000000 0.000000
# 4 0.000000 0.000000 0.000000 0.074902 0.000000 0.000000
# 5 0.000000 0.000000 0.000000 0.000000 -0.018014 0.000000
# 6 0.000000 0.000000 0.000000 0.000000 0.000000 -0.034968
#
#
# Mechanical properties :
#
#
# Convention : Reuss Voigt Hill
#
# Bulk Modulus (GPa) = 20.25438 38.94879 29.60159
# Shear Modulus (GPa) = 34.06893 -4.19122 14.93886
#
# Velocity S-wave (km/s) = 4.20196 -1.47382 2.78248
# Velocity P-wave (km/s) = 5.83429 4.15805 5.06598
#
# Compressibility (1/GPa) = 0.04937203
#
# Stress axis : x y z
#
# Youngs Moduli (GPa) = 64.83926 22.70014 51.54079
#
# Poissons Ratio (x) = 0.33663 0.43510
# Poissons Ratio (y) = 0.96154 -0.43907
# Poissons Ratio (z) = 0.54737 -0.19338
#
# Static dielectric constant tensor:
#      x y z
#    x 1.725930 0.000000 0.000000 
#    y 0.000000 1.767540 0.000000 
#    z 0.000000 0.000000 1.676200 
# 
# From -- ./inp_files/25214.got.cif
#   From: 2010.05.17/outbox.cif.g08.bks.cpg/sg68_13_cif.got.tgz:25214.got - 2010.06.03 18:57:09.
