data_PCOD9509983
_publ_section_title
;
Structure prediction by ZEFSAII (Michael W. Deem and Ramdas Pophale) SiO2 
 PCOD9509983
Probable space group: C C C A
;
_chemical_formula_sum "Si O2"
_cell_formula_units_Z 80
_cell_length_a 9.242948
_cell_length_b 22.790197
_cell_length_c 18.409219
_cell_angle_alpha 90.000000
_cell_angle_beta 90.000000
_cell_angle_gamma 90.000000
_cell_volume 3877.876316
_symmetry_space_group_name_H-M "C C C A"
_symmetry_group_IT_number 68
_space_group.IT_coordinate_system_code '2'
_symmetry_cell_setting 'orthorhombic'
loop_
_space_group_symop_operation_xyz
x,y,z
-x,1/2-y,z
x,1/2-y,1/2-z
-x,y,1/2-z
-x,-y,-z
x,1/2+y,-z
-x,1/2+y,1/2+z
x,-y,1/2+z
1/2+x,1/2+y,z
1/2-x,-y,z
1/2+x,-y,1/2-z
1/2-x,1/2+y,1/2-z
1/2-x,1/2-y,-z
1/2+x,y,-z
1/2-x,y,1/2+z
1/2+x,1/2-y,1/2+z
loop_
_atom_site_type_symbol
_atom_site_label
_atom_site_fract_x
_atom_site_fract_y
_atom_site_fract_z
Si Si1 0.737714 0.750000 0.250000
Si Si2 0.493027 0.678192 0.933761
Si Si3 0.638610 0.139082 0.282219
Si Si4 0.000000 0.750000 0.643353
Si Si5 0.851105 0.444260 0.289514
Si Si6 0.330965 0.857011 0.425884
O O1 0.834926 0.804503 0.229459
O O2 0.626822 0.777188 0.307591
O O3 0.500000 0.750000 0.944456
O O4 0.404408 0.664201 0.860177
O O5 0.659021 0.655295 0.932245
O O6 0.405424 0.641094 0.994944
O O7 0.500000 0.106509 0.250000
O O8 0.772554 0.097426 0.269761
O O9 0.086175 0.700685 0.602502
O O10 0.750000 0.500000 0.303267
O O11 0.860843 0.407164 0.365245
O O12 0.000000 0.460233 0.250000
#
# Coordination Sequence:
#
# PCOD9509983 Si02
#       6
#     8  16  16   8  16  16
#     4  11  21  32  66 104 138 178 236 290 366 428
#     4  12  26  42  70 109 157 196 230 292 374 456
#     4  12  22  42  68 104 141 189 238 301 361 433
#     4  11  20  38  62 100 149 178 234 294 353 444
#     4  12  28  51  78 103 137 191 255 315 362 425
#     4  12  26  45  69 108 151 193 241 294 372 447
#
# _framework density 20.629849
#
# number of rings (size 3 to 8) (size 9 to 14) (size 15 to 20)
#    0.000    0.200    5.000    5.100    5.600    0.000 
#    0.000    2.000    0.000    0.000    0.000    0.000 
#    0.000    0.000    0.000    0.000    0.000    0.000 
#
# Total GULP energy -223062.784409 kJ/mol
# GULP energy per Si atom -5576.569610 kJ/mol
# Density = 2.058289 g / cm^3
# Si number density = 20.629849 Si / 1000 Ang^3
#
#
#
# Elastic Constant Matrix: (Units=GPa)
#
#
# Indices 1 2 3 4 5 6 
#
# 1 135.2571 43.8540 66.6740 0.0000 0.0000 0.0000
# 2 43.8540 106.1333 42.5042 0.0000 0.0000 0.0000
# 3 66.6740 42.5042 127.4447 0.0000 0.0000 0.0000
# 4 0.0000 0.0000 0.0000 2.0547 0.0000 0.0000
# 5 0.0000 0.0000 0.0000 0.0000 33.4746 0.0000
# 6 0.0000 0.0000 0.0000 0.0000 0.0000 33.5864
#
#
#
# Elastic Compliance Matrix: (Units=1/GPa)
#
#
# Indices 1 2 3 4 5 6 
#
# 1 0.010494 -0.002467 -0.004667 0.000000 0.000000 0.000000
# 2 -0.002467 0.011454 -0.002530 0.000000 0.000000 0.000000
# 3 -0.004667 -0.002530 0.011132 0.000000 0.000000 0.000000
# 4 0.000000 0.000000 0.000000 0.486688 0.000000 0.000000
# 5 0.000000 0.000000 0.000000 0.000000 0.029873 0.000000
# 6 0.000000 0.000000 0.000000 0.000000 0.000000 0.029774
#
#
# Mechanical properties :
#
#
# Convention : Reuss Voigt Hill
#
# Bulk Modulus (GPa) = 72.71270 74.98884 73.85077
# Shear Modulus (GPa) = 8.28738 28.21002 18.24870
#
# Velocity S-wave (km/s) = 2.00646 3.70190 2.97741
# Velocity P-wave (km/s) = 6.37893 7.39599 6.90621
#
# Compressibility (1/GPa) = 0.01375275
#
# Stress axis : x y z
#
# Youngs Moduli (GPa) = 95.29407 87.30209 89.83192
#
# Poissons Ratio (x) = 0.21536 0.41927
# Poissons Ratio (y) = 0.23508 0.22724
# Poissons Ratio (z) = 0.44476 0.22084
#
# Static dielectric constant tensor:
#      x y z
#    x 1.827390 0.000000 0.000000 
#    y 0.000000 1.727520 0.000000 
#    z 0.000000 0.000000 1.904820 
# 
# From -- ./inp_files/36210.got.cif
#   From: 2010.05.17/outbox.cif.g08.bks.cpg/sg68_19_cif.got.tgz:36210.got - 2010.06.03 18:57:09.
