data_PCOD9509366
_publ_section_title
;
Structure prediction by ZEFSAII (Michael W. Deem and Ramdas Pophale) SiO2 
 PCOD9509366
Probable space group: C C C A
;
_chemical_formula_sum "Si O2"
_cell_formula_units_Z 64
_cell_length_a 13.909474
_cell_length_b 13.415949
_cell_length_c 12.502806
_cell_angle_alpha 90.000000
_cell_angle_beta 90.000000
_cell_angle_gamma 90.000000
_cell_volume 2333.133547
_symmetry_space_group_name_H-M "C C C A"
_symmetry_group_IT_number 68
_space_group.IT_coordinate_system_code '2'
_symmetry_cell_setting 'orthorhombic'
loop_
_space_group_symop_operation_xyz
x,y,z
-x,1/2-y,z
x,1/2-y,1/2-z
-x,y,1/2-z
-x,-y,-z
x,1/2+y,-z
-x,1/2+y,1/2+z
x,-y,1/2+z
1/2+x,1/2+y,z
1/2-x,-y,z
1/2+x,-y,1/2-z
1/2-x,1/2+y,1/2-z
1/2-x,1/2-y,-z
1/2+x,y,-z
1/2-x,y,1/2+z
1/2+x,1/2-y,1/2+z
loop_
_atom_site_type_symbol
_atom_site_label
_atom_site_fract_x
_atom_site_fract_y
_atom_site_fract_z
Si Si1 0.032823 0.520562 0.379145
Si Si2 0.859808 0.634155 0.775077
Si Si3 0.146975 0.344138 0.678210
Si Si4 0.895019 0.697654 0.013835
O O1 0.081550 0.429516 0.313751
O O2 0.935995 0.573451 0.331526
O O3 0.000000 0.500000 0.500000
O O4 0.108943 0.608537 0.400024
O O5 0.873355 0.750000 0.750000
O O6 0.746404 0.613321 0.777941
O O7 0.884847 0.641219 0.901129
O O8 0.115464 0.250000 0.750000
O O9 0.166187 0.290666 0.561822
O O10 0.000000 0.750000 0.013957
#
# Coordination Sequence:
#
# PCOD9509366 Si02
#       4
#    16  16  16  16
#     4  11  26  48  81 123 166 218 278 349 430 509
#     4  11  24  49  83 123 166 216 279 350 425 515
#     4  10  24  49  80 117 165 219 277 341 417 505
#     4  10  23  44  75 114 161 219 283 352 430 512
#
# _framework density 27.430917999999998
#
# number of rings (size 3 to 8) (size 9 to 14) (size 15 to 20)
#    0.000    1.500    0.000    3.750    0.000   14.000 
#    0.000   23.750    0.000    1.500    0.000    0.000 
#    0.000    0.000    0.000    0.000    0.000    0.000 
#
# Total GULP energy -178823.260460 kJ/mol
# GULP energy per Si atom -5588.226889 kJ/mol
# Density = 2.736848 g / cm^3
# Si number density = 27.430918 Si / 1000 Ang^3
#
#
#
# Elastic Constant Matrix: (Units=GPa)
#
#
# Indices 1 2 3 4 5 6 
#
# 1 175.7364 91.1689 111.5100 0.0000 0.0000 0.0000
# 2 91.1689 219.4331 125.2297 0.0000 0.0000 0.0000
# 3 111.5100 125.2297 196.6046 0.0000 0.0000 0.0000
# 4 0.0000 0.0000 0.0000 91.2494 0.0000 0.0000
# 5 0.0000 0.0000 0.0000 0.0000 33.7736 0.0000
# 6 0.0000 0.0000 0.0000 0.0000 0.0000 43.5777
#
#
#
# Elastic Compliance Matrix: (Units=1/GPa)
#
#
# Indices 1 2 3 4 5 6 
#
# 1 0.009125 -0.001316 -0.004337 0.000000 0.000000 0.000000
# 2 -0.001316 0.007350 -0.003935 0.000000 0.000000 0.000000
# 3 -0.004337 -0.003935 0.010053 0.000000 0.000000 0.000000
# 4 0.000000 0.000000 0.000000 0.010959 0.000000 0.000000
# 5 0.000000 0.000000 0.000000 0.000000 0.029609 0.000000
# 6 0.000000 0.000000 0.000000 0.000000 0.000000 0.022948
#
#
# Mechanical properties :
#
#
# Convention : Reuss Voigt Hill
#
# Bulk Modulus (GPa) = 136.03711 138.62127 137.32919
# Shear Modulus (GPa) = 44.77452 51.31116 48.04284
#
# Velocity S-wave (km/s) = 4.04451 4.32969 4.18953
# Velocity P-wave (km/s) = 8.45642 8.69709 8.57760
#
# Compressibility (1/GPa) = 0.00735094
#
# Stress axis : x y z
#
# Youngs Moduli (GPa) = 109.58570 136.06026 99.47309
#
# Poissons Ratio (x) = 0.17905 0.43146
# Poissons Ratio (y) = 0.14421 0.39144
# Poissons Ratio (z) = 0.47532 0.53541
#
# Static dielectric constant tensor:
#      x y z
#    x 2.220740 0.000000 0.000000 
#    y 0.000000 2.226580 0.000000 
#    z 0.000000 0.000000 2.410640 
# 
# From -- ./inp_files/23302.got.cif
#   From: 2010.05.17/outbox.cif.g08.bks.cpg/sg68_12_cif.got.tgz:23302.got - 2010.06.03 18:57:09.
