data_PCOD9509731
_publ_section_title
;
Structure prediction by ZEFSAII (Michael W. Deem and Ramdas Pophale) SiO2 
 PCOD9509731
Probable space group: C C C A
;
_chemical_formula_sum "Si O2"
_cell_formula_units_Z 88
_cell_length_a 14.918633
_cell_length_b 27.311683
_cell_length_c 9.226852
_cell_angle_alpha 90.000000
_cell_angle_beta 90.000000
_cell_angle_gamma 90.000000
_cell_volume 3759.508300
_symmetry_space_group_name_H-M "C C C A"
_symmetry_group_IT_number 68
_space_group.IT_coordinate_system_code '2'
_symmetry_cell_setting 'orthorhombic'
loop_
_space_group_symop_operation_xyz
x,y,z
-x,1/2-y,z
x,1/2-y,1/2-z
-x,y,1/2-z
-x,-y,-z
x,1/2+y,-z
-x,1/2+y,1/2+z
x,-y,1/2+z
1/2+x,1/2+y,z
1/2-x,-y,z
1/2+x,-y,1/2-z
1/2-x,1/2+y,1/2-z
1/2-x,1/2-y,-z
1/2+x,y,-z
1/2-x,y,1/2+z
1/2+x,1/2-y,1/2+z
loop_
_atom_site_type_symbol
_atom_site_label
_atom_site_fract_x
_atom_site_fract_y
_atom_site_fract_z
Si Si1 0.103570 0.745754 0.074099
Si Si2 0.154778 0.638646 0.124224
Si Si3 0.171863 0.349086 0.966126
Si Si4 0.750000 0.500000 0.373035
Si Si5 0.016428 0.920358 0.033315
Si Si6 0.383437 0.482709 0.874930
O O1 0.107001 0.750000 0.250000
O O2 0.133622 0.690654 0.047547
O O3 0.158963 0.790873 0.007121
O O4 0.000000 0.750000 0.030963
O O5 0.177334 0.645190 0.292810
O O6 0.319483 0.525934 0.237854
O O7 0.065869 0.605879 0.115875
O O8 0.083014 0.377692 0.012541
O O9 0.254672 0.375159 0.042495
O O10 0.680362 0.476117 0.484959
O O11 0.074824 0.962197 0.116416
O O12 0.967417 0.947978 0.902071
#
# Coordination Sequence:
#
# PCOD9509731 Si02
#       6
#    16  16  16   8  16  16
#     4   9  17  38  67  98 127 174 223 269 320 388
#     4  11  24  41  68  98 135 174 223 272 329 393
#     4  11  24  41  68  98 135 174 223 272 329 393
#     4  10  24  48  72  94 126 180 212 280 336 394
#     4  11  25  42  65 100 126 174 220 272 318 396
#     4  10  26  44  69  97 134 167 225 270 335 391
#
# _framework density 23.407316999999999
#
# number of rings (size 3 to 8) (size 9 to 14) (size 15 to 20)
#    0.000    1.636    1.818    1.091   10.182    2.182 
#    3.273    0.000    0.000    1.091    0.000    0.000 
#    0.000    0.000    0.000    0.000    0.000    0.000 
#
# Total GULP energy -245892.920994 kJ/mol
# GULP energy per Si atom -5588.475477 kJ/mol
# Density = 2.335404 g / cm^3
# Si number density = 23.407317 Si / 1000 Ang^3
#
#
#
# Elastic Constant Matrix: (Units=GPa)
#
#
# Indices 1 2 3 4 5 6 
#
# 1 164.1520 53.9520 46.6585 0.0000 0.0000 0.0000
# 2 53.9520 126.1115 34.2304 0.0000 0.0000 0.0000
# 3 46.6585 34.2304 71.0361 0.0000 0.0000 0.0000
# 4 0.0000 0.0000 0.0000 6.7326 0.0000 0.0000
# 5 0.0000 0.0000 0.0000 0.0000 9.4106 0.0000
# 6 0.0000 0.0000 0.0000 0.0000 0.0000 38.8587
#
#
#
# Elastic Compliance Matrix: (Units=1/GPa)
#
#
# Indices 1 2 3 4 5 6 
#
# 1 0.008034 -0.002306 -0.004166 0.000000 0.000000 0.000000
# 2 -0.002306 0.009785 -0.003200 0.000000 0.000000 0.000000
# 3 -0.004166 -0.003200 0.018355 0.000000 0.000000 0.000000
# 4 0.000000 0.000000 0.000000 0.148532 0.000000 0.000000
# 5 0.000000 0.000000 0.000000 0.000000 0.106264 0.000000
# 6 0.000000 0.000000 0.000000 0.000000 0.000000 0.025734
#
#
# Mechanical properties :
#
#
# Convention : Reuss Voigt Hill
#
# Bulk Modulus (GPa) = 59.41740 70.10905 64.76322
# Shear Modulus (GPa) = 14.63451 26.09762 20.36607
#
# Velocity S-wave (km/s) = 2.50313 3.34269 2.95290
# Velocity P-wave (km/s) = 5.81321 6.70185 6.27329
#
# Compressibility (1/GPa) = 0.01683009
#
# Stress axis : x y z
#
# Youngs Moduli (GPa) = 124.47151 102.19939 54.47974
#
# Poissons Ratio (x) = 0.23571 0.22694
# Poissons Ratio (y) = 0.28708 0.17434
# Poissons Ratio (z) = 0.51849 0.32705
#
# Static dielectric constant tensor:
#      x y z
#    x 1.875780 0.000000 0.000000 
#    y 0.000000 1.958650 0.000000 
#    z 0.000000 0.000000 1.868820 
# 
# From -- ./inp_files/22284.got.cif
#   From: 2010.05.17/outbox.cif.g08.bks.cpg/sg68_12_cif.got.tgz:22284.got - 2010.06.03 18:57:09.
