data_PCOD9509853
_publ_section_title
;
Structure prediction by ZEFSAII (Michael W. Deem and Ramdas Pophale) SiO2 
 PCOD9509853
Probable space group: C C C A
;
_chemical_formula_sum "Si O2"
_cell_formula_units_Z 88
_cell_length_a 14.713245
_cell_length_b 20.322117
_cell_length_c 13.601747
_cell_angle_alpha 90.000000
_cell_angle_beta 90.000000
_cell_angle_gamma 90.000000
_cell_volume 4066.980655
_symmetry_space_group_name_H-M "C C C A"
_symmetry_group_IT_number 68
_space_group.IT_coordinate_system_code '2'
_symmetry_cell_setting 'orthorhombic'
loop_
_space_group_symop_operation_xyz
x,y,z
-x,1/2-y,z
x,1/2-y,1/2-z
-x,y,1/2-z
-x,-y,-z
x,1/2+y,-z
-x,1/2+y,1/2+z
x,-y,1/2+z
1/2+x,1/2+y,z
1/2-x,-y,z
1/2+x,-y,1/2-z
1/2-x,1/2+y,1/2-z
1/2-x,1/2-y,-z
1/2+x,y,-z
1/2-x,y,1/2+z
1/2+x,1/2-y,1/2+z
loop_
_atom_site_type_symbol
_atom_site_label
_atom_site_fract_x
_atom_site_fract_y
_atom_site_fract_z
Si Si1 0.650654 0.320793 0.519041
Si Si2 0.205073 0.395944 0.112987
Si Si3 0.483330 0.828429 0.362014
Si Si4 0.603746 0.723185 0.645282
Si Si5 0.736522 0.380408 0.166375
Si Si6 0.250000 0.500000 0.477649
O O1 0.761218 0.399994 0.275685
O O2 0.554243 0.350399 0.553686
O O3 0.638831 0.254910 0.456053
O O4 0.704277 0.319330 0.622836
O O5 0.117245 0.350248 0.111522
O O6 0.289325 0.364106 0.054829
O O7 0.183135 0.464139 0.056079
O O8 0.500000 0.750000 0.360093
O O9 0.500000 0.852923 0.250000
O O10 0.500000 0.750000 0.646118
O O11 0.642465 0.750000 0.750000
O O12 0.633847 0.646611 0.649930
O O13 0.766696 0.440973 0.098552
#
# Coordination Sequence:
#
# PCOD9509853 Si02
#       6
#    16  16  16  16  16   8
#     4  11  24  39  69 108 137 192 233 298 392 444
#     4  11  24  47  71  97 149 191 248 315 366 454
#     4  11  25  41  69 109 149 185 238 308 387 466
#     4  11  24  40  67 108 149 184 231 308 393 459
#     4  11  23  45  70  98 145 191 246 307 371 449
#     4  10  26  42  72 100 130 210 258 300 362 432
#
# _framework density 21.637674000000001
#
# number of rings (size 3 to 8) (size 9 to 14) (size 15 to 20)
#    0.000    1.091    3.636    1.636   12.727    0.000 
#    0.000    3.636    0.000    0.000    0.000    0.000 
#    0.000    0.000    0.000    0.000    0.000    0.000 
#
# Total GULP energy -244936.045789 kJ/mol
# GULP energy per Si atom -5566.728313 kJ/mol
# Density = 2.158843 g / cm^3
# Si number density = 21.637674 Si / 1000 Ang^3
#
#
#
# Elastic Constant Matrix: (Units=GPa)
#
#
# Indices 1 2 3 4 5 6 
#
# 1 95.4832 56.4417 68.1830 0.0000 0.0000 0.0000
# 2 56.4417 84.6950 52.6462 0.0000 0.0000 0.0000
# 3 68.1830 52.6462 198.7166 0.0000 0.0000 0.0000
# 4 0.0000 0.0000 0.0000 25.4639 0.0000 0.0000
# 5 0.0000 0.0000 0.0000 0.0000 197.4116 0.0000
# 6 0.0000 0.0000 0.0000 0.0000 0.0000 11.8726
#
#
#
# Elastic Compliance Matrix: (Units=1/GPa)
#
#
# Indices 1 2 3 4 5 6 
#
# 1 0.019505 -0.010581 -0.003889 0.000000 0.000000 0.000000
# 2 -0.010581 0.019874 -0.001635 0.000000 0.000000 0.000000
# 3 -0.003889 -0.001635 0.006800 0.000000 0.000000 0.000000
# 4 0.000000 0.000000 0.000000 0.039271 0.000000 0.000000
# 5 0.000000 0.000000 0.000000 0.000000 0.005066 0.000000
# 6 0.000000 0.000000 0.000000 0.000000 0.000000 0.084227
#
#
# Mechanical properties :
#
#
# Convention : Reuss Voigt Hill
#
# Bulk Modulus (GPa) = 71.58522 81.49293 76.53908
# Shear Modulus (GPa) = 23.62847 60.39122 42.00985
#
# Velocity S-wave (km/s) = 3.30814 5.28874 4.41104
# Velocity P-wave (km/s) = 6.90993 8.66249 7.83536
#
# Compressibility (1/GPa) = 0.01396936
#
# Stress axis : x y z
#
# Youngs Moduli (GPa) = 51.26979 50.31601 147.06073
#
# Poissons Ratio (x) = 0.53237 0.57196
# Poissons Ratio (y) = 0.54246 0.24044
# Poissons Ratio (z) = 0.19940 0.08227
#
# Static dielectric constant tensor:
#      x y z
#    x 1.936460 0.000000 0.000000 
#    y 0.000000 1.936670 0.000000 
#    z 0.000000 0.000000 1.815610 
# 
# From -- ./inp_files/22235.got.cif
#   From: 2010.05.17/outbox.cif.g08.bks.cpg/sg68_12_cif.got.tgz:22235.got - 2010.06.03 18:57:09.
