data_PCOD9509979
_publ_section_title
;
Structure prediction by ZEFSAII (Michael W. Deem and Ramdas Pophale) SiO2 
 PCOD9509979
Probable space group: C C C A
;
_chemical_formula_sum "Si O2"
_cell_formula_units_Z 72
_cell_length_a 23.768935
_cell_length_b 4.964518
_cell_length_c 27.880502
_cell_angle_alpha 90.000000
_cell_angle_beta 90.000000
_cell_angle_gamma 90.000000
_cell_volume 3289.935638
_symmetry_space_group_name_H-M "C C C A"
_symmetry_group_IT_number 68
_space_group.IT_coordinate_system_code '2'
_symmetry_cell_setting 'orthorhombic'
loop_
_space_group_symop_operation_xyz
x,y,z
-x,1/2-y,z
x,1/2-y,1/2-z
-x,y,1/2-z
-x,-y,-z
x,1/2+y,-z
-x,1/2+y,1/2+z
x,-y,1/2+z
1/2+x,1/2+y,z
1/2-x,-y,z
1/2+x,-y,1/2-z
1/2-x,1/2+y,1/2-z
1/2-x,1/2-y,-z
1/2+x,y,-z
1/2-x,y,1/2+z
1/2+x,1/2-y,1/2+z
loop_
_atom_site_type_symbol
_atom_site_label
_atom_site_fract_x
_atom_site_fract_y
_atom_site_fract_z
Si Si1 0.810986 0.594776 0.572204
Si Si2 0.250000 0.500000 0.218640
Si Si3 0.077181 0.286689 0.472678
Si Si4 0.462617 0.518470 0.126986
Si Si5 0.336986 0.908116 0.861546
O O1 0.750000 0.500000 0.554838
O O2 0.855367 0.689608 0.532605
O O3 0.835734 0.345586 0.602641
O O4 0.809660 0.841819 0.609453
O O5 0.228243 0.250000 0.250000
O O6 0.298865 0.377391 0.185078
O O7 0.059837 0.589052 0.484570
O O8 0.055344 0.153514 0.424087
O O9 0.500000 0.750000 0.151539
O O10 0.402151 0.461952 0.150361
O O11 0.500000 0.250000 0.122210
#
# Coordination Sequence:
#
# PCOD9509979 Si02
#       5
#    16   8  16  16  16
#     4  11  20  37  61  82 120 171 205 246 311 368
#     4  12  24  40  70 104 128 150 180 242 322 366
#     4  11  23  36  53  86 122 159 215 274 317 347
#     4  11  23  40  63  85 115 171 219 252 300 356
#     4  11  22  41  63  93 126 154 203 248 292 379
#
# _framework density 21.884926
#
# number of rings (size 3 to 8) (size 9 to 14) (size 15 to 20)
#    0.000    0.889    2.222    8.000    0.000    3.556 
#    0.000    0.000    0.000    4.000    0.000    0.000 
#    0.000    0.000    0.000    0.000    0.000    0.000 
#
# Total GULP energy -201333.491006 kJ/mol
# GULP energy per Si atom -5592.596972 kJ/mol
# Density = 2.183511 g / cm^3
# Si number density = 21.884926 Si / 1000 Ang^3
#
#
#
# Elastic Constant Matrix: (Units=GPa)
#
#
# Indices 1 2 3 4 5 6 
#
# 1 172.1831 30.3054 21.4339 0.0000 0.0000 0.0000
# 2 30.3054 136.7406 12.3394 0.0000 0.0000 0.0000
# 3 21.4339 12.3394 35.9556 0.0000 0.0000 0.0000
# 4 0.0000 0.0000 0.0000 27.6676 0.0000 0.0000
# 5 0.0000 0.0000 0.0000 0.0000 11.3700 0.0000
# 6 0.0000 0.0000 0.0000 0.0000 0.0000 42.8670
#
#
#
# Elastic Compliance Matrix: (Units=1/GPa)
#
#
# Indices 1 2 3 4 5 6 
#
# 1 0.006434 -0.001114 -0.003453 0.000000 0.000000 0.000000
# 2 -0.001114 0.007740 -0.001992 0.000000 0.000000 0.000000
# 3 -0.003453 -0.001992 0.030554 0.000000 0.000000 0.000000
# 4 0.000000 0.000000 0.000000 0.036143 0.000000 0.000000
# 5 0.000000 0.000000 0.000000 0.000000 0.087951 0.000000
# 6 0.000000 0.000000 0.000000 0.000000 0.000000 0.023328
#
#
# Mechanical properties :
#
#
# Convention : Reuss Voigt Hill
#
# Bulk Modulus (GPa) = 31.63623 52.55965 42.09794
# Shear Modulus (GPa) = 23.16912 35.10095 29.13504
#
# Velocity S-wave (km/s) = 3.25727 4.00920 3.65263
# Velocity P-wave (km/s) = 5.35103 6.74538 6.08825
#
# Compressibility (1/GPa) = 0.03160933
#
# Stress axis : x y z
#
# Youngs Moduli (GPa) = 155.43110 129.20188 32.72897
#
# Poissons Ratio (x) = 0.14397 0.11301
# Poissons Ratio (y) = 0.17320 0.06519
# Poissons Ratio (z) = 0.53668 0.25736
#
# Static dielectric constant tensor:
#      x y z
#    x 1.873070 0.000000 0.000000 
#    y 0.000000 1.792140 0.000000 
#    z 0.000000 0.000000 1.767690 
# 
# From -- ./inp_files/55887.got.cif
#   From: 2010.05.17/outbox.cif.g08.bks.cpg/sg68_28_cif.got.tgz:55887.got - 2010.06.03 18:57:09.
