data_PCOD9509252
_publ_section_title
;
Structure prediction by ZEFSAII (Michael W. Deem and Ramdas Pophale) SiO2 
 PCOD9509252
Probable space group: C C C A
;
_chemical_formula_sum "Si O2"
_cell_formula_units_Z 84
_cell_length_a 8.820744
_cell_length_b 22.610704
_cell_length_c 21.247760
_cell_angle_alpha 90.000000
_cell_angle_beta 90.000000
_cell_angle_gamma 90.000000
_cell_volume 4237.721920
_symmetry_space_group_name_H-M "C C C A"
_symmetry_group_IT_number 68
_space_group.IT_coordinate_system_code '2'
_symmetry_cell_setting 'orthorhombic'
loop_
_space_group_symop_operation_xyz
x,y,z
-x,1/2-y,z
x,1/2-y,1/2-z
-x,y,1/2-z
-x,-y,-z
x,1/2+y,-z
-x,1/2+y,1/2+z
x,-y,1/2+z
1/2+x,1/2+y,z
1/2-x,-y,z
1/2+x,-y,1/2-z
1/2-x,1/2+y,1/2-z
1/2-x,1/2-y,-z
1/2+x,y,-z
1/2-x,y,1/2+z
1/2+x,1/2-y,1/2+z
loop_
_atom_site_type_symbol
_atom_site_label
_atom_site_fract_x
_atom_site_fract_y
_atom_site_fract_z
Si Si1 0.118526 0.956509 0.296297
Si Si2 0.531672 0.946336 0.923547
Si Si3 0.000000 0.250000 0.750000
Si Si4 0.745255 0.337487 0.762085
Si Si5 0.383090 0.579339 0.447604
Si Si6 0.032094 0.183083 0.145441
O O1 0.192001 0.903425 0.256997
O O2 0.000000 0.988354 0.250000
O O3 0.033222 0.929813 0.356060
O O4 0.250000 0.000000 0.317800
O O5 0.703342 0.926339 0.936582
O O6 0.538928 0.018230 0.924058
O O7 0.425626 0.921432 0.978818
O O8 0.882568 0.294824 0.782784
O O9 0.612904 0.336067 0.813376
O O10 0.671056 0.317387 0.695849
O O11 0.440216 0.636030 0.409451
O O12 0.000000 0.250000 0.123606
#
# Coordination Sequence:
#
# PCOD9509252 Si02
#       6
#    16  16   4  16  16  16
#     4  12  27  39  64 101 134 167 218 280 338 388
#     4  10  24  43  66  95 128 173 220 266 338 396
#     4  12  20  42  60  96 128 182 220 258 322 398
#     4  11  23  39  66  93 139 172 218 270 333 395
#     4  10  23  42  69  88 130 175 219 264 326 400
#     4  11  22  42  65  97 129 176 219 269 330 395
#
# _framework density 19.82197
#
# number of rings (size 3 to 8) (size 9 to 14) (size 15 to 20)
#    0.000    1.143    2.857    2.857   16.000    0.000 
#    0.000    0.952    2.095    0.000    0.000    0.000 
#    0.000    0.000    0.000    0.000    0.000    0.000 
#
# Total GULP energy -234583.591431 kJ/mol
# GULP energy per Si atom -5585.323606 kJ/mol
# Density = 1.977685 g / cm^3
# Si number density = 19.821970 Si / 1000 Ang^3
#
#
#
# Elastic Constant Matrix: (Units=GPa)
#
#
# Indices 1 2 3 4 5 6 
#
# 1 117.6030 40.0875 58.8621 0.0000 0.0000 0.0000
# 2 40.0875 101.1650 53.1281 0.0000 0.0000 0.0000
# 3 58.8621 53.1281 103.8647 0.0000 0.0000 0.0000
# 4 0.0000 0.0000 0.0000 24.0475 0.0000 0.0000
# 5 0.0000 0.0000 0.0000 0.0000 20.2625 0.0000
# 6 0.0000 0.0000 0.0000 0.0000 0.0000 28.5134
#
#
#
# Elastic Compliance Matrix: (Units=1/GPa)
#
#
# Indices 1 2 3 4 5 6 
#
# 1 0.012063 -0.001627 -0.006004 0.000000 0.000000 0.000000
# 2 -0.001627 0.013735 -0.006104 0.000000 0.000000 0.000000
# 3 -0.006004 -0.006104 0.016153 0.000000 0.000000 0.000000
# 4 0.000000 0.000000 0.000000 0.041584 0.000000 0.000000
# 5 0.000000 0.000000 0.000000 0.000000 0.049352 0.000000
# 6 0.000000 0.000000 0.000000 0.000000 0.000000 0.035071
#
#
# Mechanical properties :
#
#
# Convention : Reuss Voigt Hill
#
# Bulk Modulus (GPa) = 69.05485 69.64315 69.34900
# Shear Modulus (GPa) = 24.96822 25.93500 25.45161
#
# Velocity S-wave (km/s) = 3.55297 3.62110 3.58720
# Velocity P-wave (km/s) = 7.19337 7.25905 7.22628
#
# Compressibility (1/GPa) = 0.01448124
#
# Stress axis : x y z
#
# Youngs Moduli (GPa) = 82.89885 72.80732 61.90955
#
# Poissons Ratio (x) = 0.11845 0.37171
# Poissons Ratio (y) = 0.13487 0.37787
# Poissons Ratio (z) = 0.49773 0.44438
#
# Static dielectric constant tensor:
#      x y z
#    x 1.723890 0.000000 0.000000 
#    y 0.000000 1.707480 0.000000 
#    z 0.000000 0.000000 1.666450 
# 
# From -- ./inp_files/36189.got.cif
#   From: 2010.05.17/outbox.cif.g08.bks.cpg/sg68_19_cif.got.tgz:36189.got - 2010.06.03 18:57:09.
