data_PCOD9509685
_publ_section_title
;
Structure prediction by ZEFSAII (Michael W. Deem and Ramdas Pophale) SiO2 
 PCOD9509685
Probable space group: C C C A
;
_chemical_formula_sum "Si O2"
_cell_formula_units_Z 60
_cell_length_a 24.953247
_cell_length_b 11.934276
_cell_length_c 8.309601
_cell_angle_alpha 90.000000
_cell_angle_beta 90.000000
_cell_angle_gamma 90.000000
_cell_volume 2474.590343
_symmetry_space_group_name_H-M "C C C A"
_symmetry_group_IT_number 68
_space_group.IT_coordinate_system_code '2'
_symmetry_cell_setting 'orthorhombic'
loop_
_space_group_symop_operation_xyz
x,y,z
-x,1/2-y,z
x,1/2-y,1/2-z
-x,y,1/2-z
-x,-y,-z
x,1/2+y,-z
-x,1/2+y,1/2+z
x,-y,1/2+z
1/2+x,1/2+y,z
1/2-x,-y,z
1/2+x,-y,1/2-z
1/2-x,1/2+y,1/2-z
1/2-x,1/2-y,-z
1/2+x,y,-z
1/2-x,y,1/2+z
1/2+x,1/2-y,1/2+z
loop_
_atom_site_type_symbol
_atom_site_label
_atom_site_fract_x
_atom_site_fract_y
_atom_site_fract_z
Si Si1 0.212771 0.898331 0.035388
Si Si2 0.554768 0.051878 0.931691
Si Si3 0.707671 0.750000 0.250000
Si Si4 0.500000 0.250000 0.750000
Si Si5 0.118104 0.883930 0.272622
O O1 0.255046 0.821472 0.131355
O O2 0.170834 0.922650 0.177812
O O3 0.250000 0.000000 0.976072
O O4 0.183416 0.836137 0.883619
O O5 0.537515 0.168388 0.852447
O O6 0.572138 0.954001 0.813214
O O7 0.605893 0.081708 0.044487
O O8 0.500000 0.000000 0.000000
O O9 0.114718 0.750000 0.250000
#
# Coordination Sequence:
#
# PCOD9509685 Si02
#       5
#    16  16   8   4  16
#     4  11  25  47  75 113 156 206 262 324 398 475
#     4  12  26  50  79 117 155 207 262 331 412 477
#     4  10  24  46  73 106 159 203 250 325 390 460
#     4  12  24  52  82 116 164 210 256 348 408 494
#     4  12  28  49  78 116 153 208 269 331 400 484
#
# _framework density 24.246438000000001
#
# number of rings (size 3 to 8) (size 9 to 14) (size 15 to 20)
#    0.000    0.533    4.000    2.400    7.467    1.067 
#    0.000    1.333    0.000    0.000    0.000    0.000 
#    0.000    0.000    0.000    0.000    0.000    0.000 
#
# Total GULP energy -167506.672682 kJ/mol
# GULP energy per Si atom -5583.555756 kJ/mol
# Density = 2.419125 g / cm^3
# Si number density = 24.246438 Si / 1000 Ang^3
#
#
#
# Elastic Constant Matrix: (Units=GPa)
#
#
# Indices 1 2 3 4 5 6 
#
# 1 74.6689 38.2801 33.5517 0.0000 0.0000 0.0000
# 2 38.2801 133.0258 50.0383 0.0000 0.0000 0.0000
# 3 33.5517 50.0383 119.4110 0.0000 0.0000 0.0000
# 4 0.0000 0.0000 0.0000 55.4698 0.0000 0.0000
# 5 0.0000 0.0000 0.0000 0.0000 46.8529 0.0000
# 6 0.0000 0.0000 0.0000 0.0000 0.0000 22.7504
#
#
#
# Elastic Compliance Matrix: (Units=1/GPa)
#
#
# Indices 1 2 3 4 5 6 
#
# 1 0.016665 -0.003602 -0.003173 0.000000 0.000000 0.000000
# 2 -0.003602 0.009703 -0.003054 0.000000 0.000000 0.000000
# 3 -0.003173 -0.003054 0.010546 0.000000 0.000000 0.000000
# 4 0.000000 0.000000 0.000000 0.018028 0.000000 0.000000
# 5 0.000000 0.000000 0.000000 0.000000 0.021343 0.000000
# 6 0.000000 0.000000 0.000000 0.000000 0.000000 0.043955
#
#
# Mechanical properties :
#
#
# Convention : Reuss Voigt Hill
#
# Bulk Modulus (GPa) = 57.95244 63.42731 60.68988
# Shear Modulus (GPa) = 34.32915 38.69699 36.51307
#
# Velocity S-wave (km/s) = 3.76685 3.99931 3.88482
# Velocity P-wave (km/s) = 6.54769 6.89509 6.72363
#
# Compressibility (1/GPa) = 0.01725553
#
# Stress axis : x y z
#
# Youngs Moduli (GPa) = 60.00657 103.06589 94.82615
#
# Poissons Ratio (x) = 0.37124 0.30089
# Poissons Ratio (y) = 0.21614 0.28957
# Poissons Ratio (z) = 0.19040 0.31473
#
# Static dielectric constant tensor:
#      x y z
#    x 1.899250 0.000000 0.000000 
#    y 0.000000 1.950820 0.000000 
#    z 0.000000 0.000000 1.976070 
# 
# From -- ./inp_files/3960.got.cif
#   From: 2010.05.17/outbox.cif.g08.bks.cpg/sg68_2_cif.got.tgz:3960.got - 2010.06.03 18:57:09.
