data_PCOD9509316
_publ_section_title
;
Structure prediction by ZEFSAII (Michael W. Deem and Ramdas Pophale) SiO2 
 PCOD9509316
Probable space group: C C C A
;
_chemical_formula_sum "Si O2"
_cell_formula_units_Z 104
_cell_length_a 17.388130
_cell_length_b 16.371829
_cell_length_c 15.883907
_cell_angle_alpha 90.000000
_cell_angle_beta 90.000000
_cell_angle_gamma 90.000000
_cell_volume 4521.759024
_symmetry_space_group_name_H-M "C C C A"
_symmetry_group_IT_number 68
_space_group.IT_coordinate_system_code '2'
_symmetry_cell_setting 'orthorhombic'
loop_
_space_group_symop_operation_xyz
x,y,z
-x,1/2-y,z
x,1/2-y,1/2-z
-x,y,1/2-z
-x,-y,-z
x,1/2+y,-z
-x,1/2+y,1/2+z
x,-y,1/2+z
1/2+x,1/2+y,z
1/2-x,-y,z
1/2+x,-y,1/2-z
1/2-x,1/2+y,1/2-z
1/2-x,1/2-y,-z
1/2+x,y,-z
1/2-x,y,1/2+z
1/2+x,1/2-y,1/2+z
loop_
_atom_site_type_symbol
_atom_site_label
_atom_site_fract_x
_atom_site_fract_y
_atom_site_fract_z
Si Si1 0.434597 0.528500 0.207295
Si Si2 0.872658 0.749602 0.351120
Si Si3 0.750000 0.500000 0.578550
Si Si4 0.118040 0.418486 0.026312
Si Si5 0.682829 0.120367 0.799876
Si Si6 0.699978 0.715448 0.376071
Si Si7 0.496452 0.880432 0.608125
O O1 0.500000 0.585137 0.250000
O O2 0.396799 0.552557 0.120348
O O3 0.369098 0.541323 0.276673
O O4 0.481985 0.451014 0.172888
O O5 0.863252 0.750000 0.250000
O O6 0.788963 0.737934 0.390350
O O7 0.920051 0.832119 0.364770
O O8 0.930693 0.680081 0.386479
O O9 0.824699 0.480809 0.521110
O O10 0.743336 0.420799 0.637936
O O11 0.160983 0.332682 0.047069
O O12 0.034985 0.411243 0.981390
O O13 0.704408 0.158880 0.709067
O O14 0.655289 0.201187 0.850605
#
# Coordination Sequence:
#
# PCOD9509316 Si02
#       7
#    16  16   8  16  16  16  16
#     4  11  24  46  71  97 143 192 244 299 360 452
#     4  11  22  40  72 106 136 191 245 305 374 448
#     4  12  26  40  70 112 142 186 246 312 388 436
#     4  11  27  46  67 108 149 197 245 312 385 449
#     4  10  23  43  74 103 140 196 246 306 362 456
#     4  10  23  47  73 101 149 195 259 299 371 458
#     4  11  24  41  66 107 148 184 236 312 388 436
#
# _framework density 22.999898999999999
#
# number of rings (size 3 to 8) (size 9 to 14) (size 15 to 20)
#    0.000    1.231    1.538    4.154    4.308    3.692 
#    8.308    5.385    0.000    0.000    0.000    0.000 
#    0.000    0.000    0.000    0.000    0.000    0.000 
#
# Total GULP energy -289543.487520 kJ/mol
# GULP energy per Si atom -5568.143991 kJ/mol
# Density = 2.294755 g / cm^3
# Si number density = 22.999899 Si / 1000 Ang^3
#
#
#
# Elastic Constant Matrix: (Units=GPa)
#
#
# Indices 1 2 3 4 5 6 
#
# 1 101.0211 41.0038 33.9054 0.0000 0.0000 0.0000
# 2 41.0038 82.3434 21.4929 0.0000 0.0000 0.0000
# 3 33.9054 21.4929 69.4841 0.0000 0.0000 0.0000
# 4 0.0000 0.0000 0.0000 -170.6183 0.0000 0.0000
# 5 0.0000 0.0000 0.0000 0.0000 47.5039 0.0000
# 6 0.0000 0.0000 0.0000 0.0000 0.0000 24.7433
#
#
#
# Elastic Compliance Matrix: (Units=1/GPa)
#
#
# Indices 1 2 3 4 5 6 
#
# 1 0.013855 -0.005586 -0.005033 0.000000 0.000000 0.000000
# 2 -0.005586 0.015463 -0.002057 0.000000 0.000000 0.000000
# 3 -0.005033 -0.002057 0.017484 0.000000 0.000000 0.000000
# 4 0.000000 0.000000 0.000000 -0.005861 0.000000 0.000000
# 5 0.000000 0.000000 0.000000 0.000000 0.021051 0.000000
# 6 0.000000 0.000000 0.000000 0.000000 0.000000 0.040415
#
#
# Mechanical properties :
#
#
# Convention : Reuss Voigt Hill
#
# Bulk Modulus (GPa) = 46.62023 49.51697 48.06860
# Shear Modulus (GPa) = 37.06194 -9.24447 13.90873
#
# Velocity S-wave (km/s) = 4.01857 -2.00701 2.46179
# Velocity P-wave (km/s) = 6.46882 4.02557 5.38753
#
# Compressibility (1/GPa) = 0.02144992
#
# Stress axis : x y z
#
# Youngs Moduli (GPa) = 72.17422 64.67167 57.19480
#
# Poissons Ratio (x) = 0.36124 0.28787
# Poissons Ratio (y) = 0.40314 0.11767
# Poissons Ratio (z) = 0.36326 0.13305
#
# Static dielectric constant tensor:
#      x y z
#    x 1.925220 0.000000 0.000000 
#    y 0.000000 1.964030 0.000000 
#    z 0.000000 0.000000 2.066270 
# 
# From -- ./inp_files/24641.got.cif
#   From: 2010.05.17/outbox.cif.g08.bks.cpg/sg68_13_cif.got.tgz:24641.got - 2010.06.03 18:57:09.
