data_PCOD9509748
_publ_section_title
;
Structure prediction by ZEFSAII (Michael W. Deem and Ramdas Pophale) SiO2 
 PCOD9509748
Probable space group: C C C A
;
_chemical_formula_sum "Si O2"
_cell_formula_units_Z 104
_cell_length_a 27.832381
_cell_length_b 19.838051
_cell_length_c 9.372465
_cell_angle_alpha 90.000000
_cell_angle_beta 90.000000
_cell_angle_gamma 90.000000
_cell_volume 5174.914641
_symmetry_space_group_name_H-M "C C C A"
_symmetry_group_IT_number 68
_space_group.IT_coordinate_system_code '2'
_symmetry_cell_setting 'orthorhombic'
loop_
_space_group_symop_operation_xyz
x,y,z
-x,1/2-y,z
x,1/2-y,1/2-z
-x,y,1/2-z
-x,-y,-z
x,1/2+y,-z
-x,1/2+y,1/2+z
x,-y,1/2+z
1/2+x,1/2+y,z
1/2-x,-y,z
1/2+x,-y,1/2-z
1/2-x,1/2+y,1/2-z
1/2-x,1/2-y,-z
1/2+x,y,-z
1/2-x,y,1/2+z
1/2+x,1/2-y,1/2+z
loop_
_atom_site_type_symbol
_atom_site_label
_atom_site_fract_x
_atom_site_fract_y
_atom_site_fract_z
Si Si1 0.750000 0.000000 0.562599
Si Si2 0.877479 0.319865 0.675401
Si Si3 0.184426 0.551112 0.315313
Si Si4 0.598010 0.442644 0.668927
Si Si5 0.500000 0.019865 0.250000
Si Si6 0.000000 0.750000 0.565740
Si Si7 0.947533 0.371665 0.908126
Si Si8 0.403647 0.189364 0.847797
O O1 0.786237 0.036589 0.671045
O O2 0.718492 0.044164 0.453358
O O3 0.865656 0.250000 0.750000
O O4 0.836830 0.375018 0.691367
O O5 0.923292 0.350708 0.759241
O O6 0.887135 0.308018 0.509795
O O7 0.140521 0.497355 0.330675
O O8 0.547284 0.477090 0.712299
O O9 0.590289 0.405304 0.517175
O O10 0.607618 0.382705 0.780492
O O11 0.513619 0.070383 0.121380
O O12 0.969610 0.695868 0.474990
O O13 0.960989 0.796664 0.645761
O O14 0.383759 0.250000 0.750000
#
# Coordination Sequence:
#
# PCOD9509748 Si02
#       8
#     8  16  16  16   8   8  16  16
#     4  10  24  48  78 104 132 168 220 298 362 426
#     4  12  24  44  68  99 135 178 232 283 339 414
#     4  11  24  46  76 106 134 173 228 285 362 417
#     4  12  25  42  67  99 145 183 234 286 340 409
#     4  12  26  37  61 104 142 186 236 284 330 396
#     4  12  23  41  60  86 144 200 250 274 326 390
#     4  12  25  40  61  94 140 195 239 279 326 394
#     4  12  25  41  60  91 136 194 237 282 328 394
#
# _framework density 20.096948999999999
#
# number of rings (size 3 to 8) (size 9 to 14) (size 15 to 20)
#    0.000    0.308    4.615    4.385    2.154    0.615 
#    0.000    0.769    0.000    3.692    0.000    0.000 
#    0.000    0.000    0.000    0.000    0.000    0.000 
#
# Total GULP energy -290878.293955 kJ/mol
# GULP energy per Si atom -5593.813345 kJ/mol
# Density = 2.005121 g / cm^3
# Si number density = 20.096949 Si / 1000 Ang^3
#
#
#
# Elastic Constant Matrix: (Units=GPa)
#
#
# Indices 1 2 3 4 5 6 
#
# 1 83.0219 53.6407 35.3400 0.0000 0.0000 0.0000
# 2 53.6407 152.9193 60.1220 0.0000 0.0000 0.0000
# 3 35.3400 60.1220 134.0039 0.0000 0.0000 0.0000
# 4 0.0000 0.0000 0.0000 17.9952 0.0000 0.0000
# 5 0.0000 0.0000 0.0000 0.0000 10.9466 0.0000
# 6 0.0000 0.0000 0.0000 0.0000 0.0000 8.5929
#
#
#
# Elastic Compliance Matrix: (Units=1/GPa)
#
#
# Indices 1 2 3 4 5 6 
#
# 1 0.016034 -0.004811 -0.002070 0.000000 0.000000 0.000000
# 2 -0.004811 0.009383 -0.002941 0.000000 0.000000 0.000000
# 3 -0.002070 -0.002941 0.009328 0.000000 0.000000 0.000000
# 4 0.000000 0.000000 0.000000 0.055570 0.000000 0.000000
# 5 0.000000 0.000000 0.000000 0.000000 0.091353 0.000000
# 6 0.000000 0.000000 0.000000 0.000000 0.000000 0.116375
#
#
# Mechanical properties :
#
#
# Convention : Reuss Voigt Hill
#
# Bulk Modulus (GPa) = 66.21869 74.23895 70.22882
# Shear Modulus (GPa) = 15.49321 22.22977 18.86149
#
# Velocity S-wave (km/s) = 2.77956 3.32946 3.06686
# Velocity P-wave (km/s) = 6.58198 7.19729 6.89650
#
# Compressibility (1/GPa) = 0.01510148
#
# Stress axis : x y z
#
# Youngs Moduli (GPa) = 62.36594 106.57360 107.20331
#
# Poissons Ratio (x) = 0.51267 0.22195
# Poissons Ratio (y) = 0.30001 0.31531
# Poissons Ratio (z) = 0.12912 0.31345
#
# Static dielectric constant tensor:
#      x y z
#    x 1.708990 0.000000 0.000000 
#    y 0.000000 1.689780 0.000000 
#    z 0.000000 0.000000 1.788090 
# 
# From -- ./inp_files/9627.got.cif
#   From: 2010.05.17/outbox.cif.g08.bks.cpg/sg68_5_cif.got.tgz:9627.got - 2010.06.03 18:57:09.
