data_PCOD9509949
_publ_section_title
;
Structure prediction by ZEFSAII (Michael W. Deem and Ramdas Pophale) SiO2 
 PCOD9509949
Probable space group: C C C A
;
_chemical_formula_sum "Si O2"
_cell_formula_units_Z 88
_cell_length_a 24.230266
_cell_length_b 14.490522
_cell_length_c 11.147281
_cell_angle_alpha 90.000000
_cell_angle_beta 90.000000
_cell_angle_gamma 90.000000
_cell_volume 3913.912942
_symmetry_space_group_name_H-M "C C C A"
_symmetry_group_IT_number 68
_space_group.IT_coordinate_system_code '2'
_symmetry_cell_setting 'orthorhombic'
loop_
_space_group_symop_operation_xyz
x,y,z
-x,1/2-y,z
x,1/2-y,1/2-z
-x,y,1/2-z
-x,-y,-z
x,1/2+y,-z
-x,1/2+y,1/2+z
x,-y,1/2+z
1/2+x,1/2+y,z
1/2-x,-y,z
1/2+x,-y,1/2-z
1/2-x,1/2+y,1/2-z
1/2-x,1/2-y,-z
1/2+x,y,-z
1/2-x,y,1/2+z
1/2+x,1/2-y,1/2+z
loop_
_atom_site_type_symbol
_atom_site_label
_atom_site_fract_x
_atom_site_fract_y
_atom_site_fract_z
Si Si1 0.622333 0.346214 0.299727
Si Si2 0.249212 0.847448 0.374148
Si Si3 0.957676 0.581067 0.138094
Si Si4 0.000000 0.250000 0.472847
Si Si5 0.917255 0.389450 0.060811
Si Si6 0.791320 0.637003 0.624536
O O1 0.599997 0.250000 0.250000
O O2 0.685576 0.333060 0.335172
O O3 0.604827 0.410620 0.191149
O O4 0.591870 0.378231 0.418532
O O5 0.244573 0.892083 0.506694
O O6 0.280688 0.748736 0.381364
O O7 0.274050 0.896473 0.256846
O O8 0.953396 0.479848 0.082623
O O9 0.000000 0.583160 0.250000
O O10 0.972786 0.666929 0.051958
O O11 0.952089 0.199557 0.399538
O O12 0.855305 0.386606 0.110026
#
# Coordination Sequence:
#
# PCOD9509949 Si02
#       6
#    16  16  16   8  16  16
#     4  11  19  40  75 101 123 190 247 284 345 430
#     4   9  18  35  68  99 132 179 242 283 343 430
#     4  12  24  43  69 102 140 179 242 296 352 430
#     4  12  23  44  71  94 130 192 243 287 354 436
#     4  11  25  41  66 105 139 176 238 298 360 421
#     4   9  18  37  63 100 136 182 229 292 350 417
#
# _framework density 22.483893999999999
#
# number of rings (size 3 to 8) (size 9 to 14) (size 15 to 20)
#    0.000    1.455    5.455    0.818    0.000    0.000 
#    6.545    2.727    0.000    6.545    0.000    0.000 
#    0.000    0.000    0.000    0.000    0.000    0.000 
#
# Total GULP energy -245300.823037 kJ/mol
# GULP energy per Si atom -5575.018705 kJ/mol
# Density = 2.243272 g / cm^3
# Si number density = 22.483894 Si / 1000 Ang^3
#
#
#
# Elastic Constant Matrix: (Units=GPa)
#
#
# Indices 1 2 3 4 5 6 
#
# 1 56.6065 33.1710 19.1825 0.0000 0.0000 0.0000
# 2 33.1710 128.4955 30.9525 0.0000 0.0000 0.0000
# 3 19.1825 30.9525 118.0641 0.0000 0.0000 0.0000
# 4 0.0000 0.0000 0.0000 17.6070 0.0000 0.0000
# 5 0.0000 0.0000 0.0000 0.0000 34.2372 0.0000
# 6 0.0000 0.0000 0.0000 0.0000 0.0000 30.2222
#
#
#
# Elastic Compliance Matrix: (Units=1/GPa)
#
#
# Indices 1 2 3 4 5 6 
#
# 1 0.021317 -0.004983 -0.002157 0.000000 0.000000 0.000000
# 2 -0.004983 0.009472 -0.001674 0.000000 0.000000 0.000000
# 3 -0.002157 -0.001674 0.009259 0.000000 0.000000 0.000000
# 4 0.000000 0.000000 0.000000 0.056796 0.000000 0.000000
# 5 0.000000 0.000000 0.000000 0.000000 0.029208 0.000000
# 6 0.000000 0.000000 0.000000 0.000000 0.000000 0.033088
#
#
# Mechanical properties :
#
#
# Convention : Reuss Voigt Hill
#
# Bulk Modulus (GPa) = 44.60251 52.19756 48.40004
# Shear Modulus (GPa) = 27.13834 31.07064 29.10449
#
# Velocity S-wave (km/s) = 3.47798 3.72143 3.60176
# Velocity P-wave (km/s) = 6.00075 6.45998 6.23460
#
# Compressibility (1/GPa) = 0.02242026
#
# Stress axis : x y z
#
# Youngs Moduli (GPa) = 46.91093 105.57479 108.00084
#
# Poissons Ratio (x) = 0.52612 0.23296
# Poissons Ratio (y) = 0.23377 0.18075
# Poissons Ratio (z) = 0.10119 0.17669
#
# Static dielectric constant tensor:
#      x y z
#    x 1.870520 0.000000 0.000000 
#    y 0.000000 1.834400 0.000000 
#    z 0.000000 0.000000 1.911140 
# 
# From -- ./inp_files/16308.got.cif
#   From: 2010.05.17/outbox.cif.g08.bks.cpg/sg68_9_cif.got.tgz:16308.got - 2010.06.03 18:57:09.
