data_PCOD9509073
_publ_section_title
;
Structure prediction by ZEFSAII (Michael W. Deem and Ramdas Pophale) SiO2 
 PCOD9509073
Probable space group: C C C A
;
_chemical_formula_sum "Si O2"
_cell_formula_units_Z 48
_cell_length_a 15.042359
_cell_length_b 14.804682
_cell_length_c 9.847460
_cell_angle_alpha 90.000000
_cell_angle_beta 90.000000
_cell_angle_gamma 90.000000
_cell_volume 2193.003163
_symmetry_space_group_name_H-M "C C C A"
_symmetry_group_IT_number 68
_space_group.IT_coordinate_system_code '2'
_symmetry_cell_setting 'orthorhombic'
loop_
_space_group_symop_operation_xyz
x,y,z
-x,1/2-y,z
x,1/2-y,1/2-z
-x,y,1/2-z
-x,-y,-z
x,1/2+y,-z
-x,1/2+y,1/2+z
x,-y,1/2+z
1/2+x,1/2+y,z
1/2-x,-y,z
1/2+x,-y,1/2-z
1/2-x,1/2+y,1/2-z
1/2-x,1/2-y,-z
1/2+x,y,-z
1/2-x,y,1/2+z
1/2+x,1/2-y,1/2+z
loop_
_atom_site_type_symbol
_atom_site_label
_atom_site_fract_x
_atom_site_fract_y
_atom_site_fract_z
Si Si1 0.100998 0.878729 0.194616
Si Si2 0.654038 0.285418 0.458539
Si Si3 0.443209 0.942921 0.114256
O O1 0.159151 0.839571 0.316389
O O2 0.100743 0.806527 0.073843
O O3 0.000000 0.881561 0.250000
O O4 0.127109 0.979340 0.155475
O O5 0.750000 0.250000 0.500000
O O6 0.603976 0.354019 0.558009
O O7 0.500000 0.922719 0.250000
O O8 0.500000 0.000000 0.000000
#
# Coordination Sequence:
#
# PCOD9509073 Si02
#       3
#    16  16  16
#     4  10  22  47  75  94 145 198 250 308 367 439
#     4  11  23  43  68 108 148 191 241 314 381 427
#     4  11  22  44  78 109 137 199 257 300 357 459
#
# _framework density 21.887792999999999
#
# number of rings (size 3 to 8) (size 9 to 14) (size 15 to 20)
#    0.000    1.333    6.667    2.000    0.000    1.333 
#   12.000    8.333    0.000    0.000    0.000    0.000 
#    0.000    0.000    0.000    0.000    0.000    0.000 
#
# Total GULP energy -133971.096748 kJ/mol
# GULP energy per Si atom -5582.129031 kJ/mol
# Density = 2.183798 g / cm^3
# Si number density = 21.887793 Si / 1000 Ang^3
#
#
#
# Elastic Constant Matrix: (Units=GPa)
#
#
# Indices 1 2 3 4 5 6 
#
# 1 93.7708 67.2321 59.2974 0.0000 0.0000 0.0000
# 2 67.2321 202.6169 89.8595 0.0000 0.0000 0.0000
# 3 59.2974 89.8595 129.6150 0.0000 0.0000 0.0000
# 4 0.0000 0.0000 0.0000 53.8424 0.0000 0.0000
# 5 0.0000 0.0000 0.0000 0.0000 33.9028 0.0000
# 6 0.0000 0.0000 0.0000 0.0000 0.0000 3.6051
#
#
#
# Elastic Compliance Matrix: (Units=1/GPa)
#
#
# Indices 1 2 3 4 5 6 
#
# 1 0.016187 -0.003013 -0.005316 0.000000 0.000000 0.000000
# 2 -0.003013 0.007688 -0.003951 0.000000 0.000000 0.000000
# 3 -0.005316 -0.003951 0.012886 0.000000 0.000000 0.000000
# 4 0.000000 0.000000 0.000000 0.018573 0.000000 0.000000
# 5 0.000000 0.000000 0.000000 0.000000 0.029496 0.000000
# 6 0.000000 0.000000 0.000000 0.000000 0.000000 0.277382
#
#
# Mechanical properties :
#
#
# Convention : Reuss Voigt Hill
#
# Bulk Modulus (GPa) = 81.97032 95.42005 88.69518
# Shear Modulus (GPa) = 12.79300 32.24431 22.51866
#
# Velocity S-wave (km/s) = 2.42023 3.84235 3.21101
# Velocity P-wave (km/s) = 6.73361 7.96081 7.37279
#
# Compressibility (1/GPa) = 0.01219954
#
# Stress axis : x y z
#
# Youngs Moduli (GPa) = 61.77984 130.07977 77.60119
#
# Poissons Ratio (x) = 0.39198 0.41253
# Poissons Ratio (y) = 0.18616 0.30661
# Poissons Ratio (z) = 0.32842 0.51396
#
# Static dielectric constant tensor:
#      x y z
#    x 1.831610 0.000000 0.000000 
#    y 0.000000 1.875410 0.000000 
#    z 0.000000 0.000000 1.896770 
# 
# From -- ./inp_files/12410.got.cif
#   From: 2010.05.17/outbox.cif.g08.bks.cpg/sg68_7_cif.got.tgz:12410.got - 2010.06.03 18:57:09.
