data_PCOD9509036
_publ_section_title
;
Structure prediction by ZEFSAII (Michael W. Deem and Ramdas Pophale) SiO2 
 PCOD9509036
Probable space group: C C C A
;
_chemical_formula_sum "Si O2"
_cell_formula_units_Z 80
_cell_length_a 16.543168
_cell_length_b 8.425844
_cell_length_c 26.357409
_cell_angle_alpha 90.000000
_cell_angle_beta 90.000000
_cell_angle_gamma 90.000000
_cell_volume 3673.963269
_symmetry_space_group_name_H-M "C C C A"
_symmetry_group_IT_number 68
_space_group.IT_coordinate_system_code '2'
_symmetry_cell_setting 'orthorhombic'
loop_
_space_group_symop_operation_xyz
x,y,z
-x,1/2-y,z
x,1/2-y,1/2-z
-x,y,1/2-z
-x,-y,-z
x,1/2+y,-z
-x,1/2+y,1/2+z
x,-y,1/2+z
1/2+x,1/2+y,z
1/2-x,-y,z
1/2+x,-y,1/2-z
1/2-x,1/2+y,1/2-z
1/2-x,1/2-y,-z
1/2+x,y,-z
1/2-x,y,1/2+z
1/2+x,1/2-y,1/2+z
loop_
_atom_site_type_symbol
_atom_site_label
_atom_site_fract_x
_atom_site_fract_y
_atom_site_fract_z
Si Si1 0.755438 0.829584 0.135839
Si Si2 0.824433 0.172633 0.028521
Si Si3 0.922095 0.358191 0.645505
Si Si4 0.171326 0.397562 0.287514
Si Si5 0.428549 0.461859 0.961345
O O1 0.710786 0.861930 0.083279
O O2 0.845960 0.758819 0.133611
O O3 0.704231 0.694499 0.163328
O O4 0.750000 0.000000 0.162822
O O5 0.903389 0.279417 0.039632
O O6 0.750000 0.250000 0.000000
O O7 0.852444 0.037449 0.990545
O O8 0.895216 0.476995 0.691371
O O9 0.938599 0.459100 0.593886
O O10 0.000000 0.250000 0.657266
O O11 0.148459 0.250000 0.250000
O O12 0.250000 0.500000 0.270004
O O13 0.500000 0.500000 0.000000
#
# Coordination Sequence:
#
# PCOD9509036 Si02
#       5
#    16  16  16  16  16
#     4  11  23  41  68 104 137 186 238 292 350 426
#     4  12  23  38  62  94 142 187 241 285 343 416
#     4  11  24  44  68 106 151 184 233 301 363 423
#     4  10  22  45  80 108 135 180 242 307 366 432
#     4  12  25  41  59  99 144 196 240 286 351 424
#
# _framework density 21.774851000000002
#
# number of rings (size 3 to 8) (size 9 to 14) (size 15 to 20)
#    0.000    0.800    4.000    4.200    2.800    0.000 
#    0.000    1.000    0.000   32.400    0.000    0.000 
#    0.000    0.000    0.000    0.000    0.000    0.000 
#
# Total GULP energy -223202.560052 kJ/mol
# GULP energy per Si atom -5580.064001 kJ/mol
# Density = 2.172529 g / cm^3
# Si number density = 21.774851 Si / 1000 Ang^3
#
#
#
# Elastic Constant Matrix: (Units=GPa)
#
#
# Indices 1 2 3 4 5 6 
#
# 1 117.1213 49.5217 32.3636 0.0000 0.0000 0.0000
# 2 49.5217 128.7082 39.3951 0.0000 0.0000 0.0000
# 3 32.3636 39.3951 117.2978 0.0000 0.0000 0.0000
# 4 0.0000 0.0000 0.0000 28.1753 0.0000 0.0000
# 5 0.0000 0.0000 0.0000 0.0000 22.7007 0.0000
# 6 0.0000 0.0000 0.0000 0.0000 0.0000 48.4243
#
#
#
# Elastic Compliance Matrix: (Units=1/GPa)
#
#
# Indices 1 2 3 4 5 6 
#
# 1 0.010498 -0.003514 -0.001716 0.000000 0.000000 0.000000
# 2 -0.003514 0.009836 -0.002334 0.000000 0.000000 0.000000
# 3 -0.001716 -0.002334 0.009783 0.000000 0.000000 0.000000
# 4 0.000000 0.000000 0.000000 0.035492 0.000000 0.000000
# 5 0.000000 0.000000 0.000000 0.000000 0.044052 0.000000
# 6 0.000000 0.000000 0.000000 0.000000 0.000000 0.020651
#
#
# Mechanical properties :
#
#
# Convention : Reuss Voigt Hill
#
# Bulk Modulus (GPa) = 66.71834 67.29868 67.00851
# Shear Modulus (GPa) = 33.23675 35.98317 34.60996
#
# Velocity S-wave (km/s) = 3.91113 4.06952 3.99111
# Velocity P-wave (km/s) = 7.14861 7.28389 7.21656
#
# Compressibility (1/GPa) = 0.01498838
#
# Stress axis : x y z
#
# Youngs Moduli (GPa) = 95.25430 101.66839 102.22091
#
# Poissons Ratio (x) = 0.35726 0.17545
# Poissons Ratio (y) = 0.33472 0.23857
# Poissons Ratio (z) = 0.16349 0.23729
#
# Static dielectric constant tensor:
#      x y z
#    x 1.824260 0.000000 0.000000 
#    y 0.000000 2.100700 0.000000 
#    z 0.000000 0.000000 1.717980 
# 
# From -- ./inp_files/51268.got.cif
#   From: 2010.05.17/outbox.cif.g08.bks.cpg/sg68_26_cif.got.tgz:51268.got - 2010.06.03 18:57:09.
