data_PCOD9509488
_publ_section_title
;
Structure prediction by ZEFSAII (Michael W. Deem and Ramdas Pophale) SiO2 
 PCOD9509488
Probable space group: C C C A
;
_chemical_formula_sum "Si O2"
_cell_formula_units_Z 64
_cell_length_a 10.718288
_cell_length_b 18.551439
_cell_length_c 14.389209
_cell_angle_alpha 90.000000
_cell_angle_beta 90.000000
_cell_angle_gamma 90.000000
_cell_volume 2861.145512
_symmetry_space_group_name_H-M "C C C A"
_symmetry_group_IT_number 68
_space_group.IT_coordinate_system_code '2'
_symmetry_cell_setting 'orthorhombic'
loop_
_space_group_symop_operation_xyz
x,y,z
-x,1/2-y,z
x,1/2-y,1/2-z
-x,y,1/2-z
-x,-y,-z
x,1/2+y,-z
-x,1/2+y,1/2+z
x,-y,1/2+z
1/2+x,1/2+y,z
1/2-x,-y,z
1/2+x,-y,1/2-z
1/2-x,1/2+y,1/2-z
1/2-x,1/2-y,-z
1/2+x,y,-z
1/2-x,y,1/2+z
1/2+x,1/2-y,1/2+z
loop_
_atom_site_type_symbol
_atom_site_label
_atom_site_fract_x
_atom_site_fract_y
_atom_site_fract_z
Si Si1 0.750000 0.500000 0.531002
Si Si2 0.103272 0.857715 0.464492
Si Si3 0.261534 0.816933 0.302742
Si Si4 0.500000 0.750000 0.381405
Si Si5 0.401901 0.910592 0.674338
O O1 0.832585 0.562866 0.480650
O O2 0.651303 0.536307 0.598875
O O3 0.209103 0.819684 0.405465
O O4 0.069480 0.810012 0.554056
O O5 0.985669 0.859238 0.392767
O O6 0.201572 0.750000 0.250000
O O7 0.404414 0.798152 0.321386
O O8 0.213647 0.881098 0.236681
O O9 0.500000 0.939899 0.750000
#
# Coordination Sequence:
#
# PCOD9509488 Si02
#       5
#     8  16  16   8  16
#     4  12  24  42  66  96 132 180 234 282 346 426
#     4  11  24  43  67  97 135 180 229 286 349 421
#     4  11  23  41  64  96 131 172 223 283 351 416
#     4  12  23  40  69 100 132 174 230 296 349 414
#     4  10  24  41  63  93 132 177 222 280 348 417
#
# _framework density 22.368663999999999
#
# number of rings (size 3 to 8) (size 9 to 14) (size 15 to 20)
#    0.000    1.000    0.000    6.375    0.000    9.500 
#    0.000    0.000    0.000    0.000    0.000    0.000 
#    0.000    0.000    0.000    0.000    0.000    0.000 
#
# Total GULP energy -178194.080080 kJ/mol
# GULP energy per Si atom -5568.565003 kJ/mol
# Density = 2.231775 g / cm^3
# Si number density = 22.368664 Si / 1000 Ang^3
#
#
#
# Elastic Constant Matrix: (Units=GPa)
#
#
# Indices 1 2 3 4 5 6 
#
# 1 139.0206 46.2884 66.3595 0.0000 0.0000 0.0000
# 2 46.2884 33.9402 22.6499 0.0000 0.0000 0.0000
# 3 66.3595 22.6499 94.8758 0.0000 0.0000 0.0000
# 4 0.0000 0.0000 0.0000 72.1364 0.0000 0.0000
# 5 0.0000 0.0000 0.0000 0.0000 23.3189 0.0000
# 6 0.0000 0.0000 0.0000 0.0000 0.0000 139.3572
#
#
#
# Elastic Compliance Matrix: (Units=1/GPa)
#
#
# Indices 1 2 3 4 5 6 
#
# 1 0.016634 -0.017749 -0.007397 0.000000 0.000000 0.000000
# 2 -0.017749 0.053987 -0.000474 0.000000 0.000000 0.000000
# 3 -0.007397 -0.000474 0.015827 0.000000 0.000000 0.000000
# 4 0.000000 0.000000 0.000000 0.013863 0.000000 0.000000
# 5 0.000000 0.000000 0.000000 0.000000 0.042884 0.000000
# 6 0.000000 0.000000 0.000000 0.000000 0.000000 0.007176
#
#
# Mechanical properties :
#
#
# Convention : Reuss Voigt Hill
#
# Bulk Modulus (GPa) = 28.40328 59.82579 44.11453
# Shear Modulus (GPa) = 23.43618 55.79842 39.61730
#
# Velocity S-wave (km/s) = 3.24037 4.99991 4.21302
# Velocity P-wave (km/s) = 5.16966 7.75471 6.59018
#
# Compressibility (1/GPa) = 0.03520720
#
# Stress axis : x y z
#
# Youngs Moduli (GPa) = 60.11863 18.52310 63.18347
#
# Poissons Ratio (x) = 0.32877 0.46736
# Poissons Ratio (y) = 1.06706 0.02995
# Poissons Ratio (z) = 0.44469 0.00878
#
# Static dielectric constant tensor:
#      x y z
#    x 1.479980 0.000000 0.000000 
#    y 0.000000 1.737530 0.000000 
#    z 0.000000 0.000000 1.884170 
# 
# From -- ./inp_files/20522.got.cif
#   From: 2010.05.17/outbox.cif.g08.bks.cpg/sg68_11_cif.got.tgz:20522.got - 2010.06.03 18:57:09.
