data_PCOD9509303
_publ_section_title
;
Structure prediction by ZEFSAII (Michael W. Deem and Ramdas Pophale) SiO2 
 PCOD9509303
Probable space group: C C C A
;
_chemical_formula_sum "Si O2"
_cell_formula_units_Z 72
_cell_length_a 9.181695
_cell_length_b 11.683804
_cell_length_c 27.523083
_cell_angle_alpha 90.000000
_cell_angle_beta 90.000000
_cell_angle_gamma 90.000000
_cell_volume 2952.597209
_symmetry_space_group_name_H-M "C C C A"
_symmetry_group_IT_number 68
_space_group.IT_coordinate_system_code '2'
_symmetry_cell_setting 'orthorhombic'
loop_
_space_group_symop_operation_xyz
x,y,z
-x,1/2-y,z
x,1/2-y,1/2-z
-x,y,1/2-z
-x,-y,-z
x,1/2+y,-z
-x,1/2+y,1/2+z
x,-y,1/2+z
1/2+x,1/2+y,z
1/2-x,-y,z
1/2+x,-y,1/2-z
1/2-x,1/2+y,1/2-z
1/2-x,1/2-y,-z
1/2+x,y,-z
1/2-x,y,1/2+z
1/2+x,1/2-y,1/2+z
loop_
_atom_site_type_symbol
_atom_site_label
_atom_site_fract_x
_atom_site_fract_y
_atom_site_fract_z
Si Si1 0.000000 0.250000 0.635121
Si Si2 0.250000 0.000000 0.977803
Si Si3 0.282105 0.676134 0.183674
Si Si4 0.750000 0.500000 0.730686
Si Si5 0.053773 0.937658 0.063564
Si Si6 0.065904 0.915828 0.651753
O O1 0.880916 0.185631 0.666222
O O2 0.916387 0.335223 0.599700
O O3 0.120482 0.060807 0.947880
O O4 0.351849 0.072676 0.014883
O O5 0.274954 0.611810 0.235751
O O6 0.356416 0.800369 0.171955
O O7 0.392909 0.596568 0.154254
O O8 0.882970 0.492892 0.692427
O O9 0.095688 0.048493 0.096339
#
# Coordination Sequence:
#
# PCOD9509303 Si02
#       6
#     8   8  16   8  16  16
#     4  12  24  42  69 102 142 184 232 282 353 418
#     4  10  23  43  70  98 134 174 232 287 351 426
#     4  11  25  42  68 102 137 186 236 283 342 420
#     4  12  23  41  68 100 136 180 238 287 339 414
#     4  11  23  43  68 100 137 180 226 289 351 417
#     4  11  24  45  69  97 143 187 230 287 354 418
#
# _framework density 24.385308999999999
#
# number of rings (size 3 to 8) (size 9 to 14) (size 15 to 20)
#    0.000    0.889    0.000    7.333    0.000    4.444 
#    0.000   13.333    0.000    2.667    0.000    0.000 
#    0.000    0.000    0.000    0.000    0.000    0.000 
#
# Total GULP energy -200980.748712 kJ/mol
# GULP energy per Si atom -5582.798575 kJ/mol
# Density = 2.432981 g / cm^3
# Si number density = 24.385309 Si / 1000 Ang^3
#
#
#
# Elastic Constant Matrix: (Units=GPa)
#
#
# Indices 1 2 3 4 5 6 
#
# 1 152.9033 37.2630 29.9364 0.0000 0.0000 0.0000
# 2 37.2630 76.0192 34.8520 0.0000 0.0000 0.0000
# 3 29.9364 34.8520 112.0866 0.0000 0.0000 0.0000
# 4 0.0000 0.0000 0.0000 12.7689 0.0000 0.0000
# 5 0.0000 0.0000 0.0000 0.0000 -12.6062 0.0000
# 6 0.0000 0.0000 0.0000 0.0000 0.0000 40.4307
#
#
#
# Elastic Compliance Matrix: (Units=1/GPa)
#
#
# Indices 1 2 3 4 5 6 
#
# 1 0.007523 -0.003227 -0.001006 0.000000 0.000000 0.000000
# 2 -0.003227 0.016725 -0.004339 0.000000 0.000000 0.000000
# 3 -0.001006 -0.004339 0.010539 0.000000 0.000000 0.000000
# 4 0.000000 0.000000 0.000000 0.078315 0.000000 0.000000
# 5 0.000000 0.000000 0.000000 0.000000 -0.079326 0.000000
# 6 0.000000 0.000000 0.000000 0.000000 0.000000 0.024734
#
#
# Mechanical properties :
#
#
# Convention : Reuss Voigt Hill
#
# Bulk Modulus (GPa) = 56.67227 60.56799 58.62013
# Shear Modulus (GPa) = 61.32302 24.04921 42.68612
#
# Velocity S-wave (km/s) = 5.02017 3.14382 4.18842
# Velocity P-wave (km/s) = 7.54279 6.17008 6.89070
#
# Compressibility (1/GPa) = 0.01764531
#
# Stress axis : x y z
#
# Youngs Moduli (GPa) = 132.91897 59.78957 94.88137
#
# Poissons Ratio (x) = 0.19291 0.09546
# Poissons Ratio (y) = 0.42887 0.41167
# Poissons Ratio (z) = 0.13373 0.25941
#
# Static dielectric constant tensor:
#      x y z
#    x 1.987690 0.000000 0.000000 
#    y 0.000000 2.079550 0.000000 
#    z 0.000000 0.000000 1.889110 
# 
# From -- ./inp_files/49010.got.cif
#   From: 2010.05.17/outbox.cif.g08.bks.cpg/sg68_25_cif.got.tgz:49010.got - 2010.06.03 18:57:09.
