data_PCOD9509921
_publ_section_title
;
Structure prediction by ZEFSAII (Michael W. Deem and Ramdas Pophale) SiO2 
 PCOD9509921
Probable space group: C C C A
;
_chemical_formula_sum "Si O2"
_cell_formula_units_Z 72
_cell_length_a 14.255625
_cell_length_b 16.001371
_cell_length_c 12.133617
_cell_angle_alpha 90.000000
_cell_angle_beta 90.000000
_cell_angle_gamma 90.000000
_cell_volume 2767.793847
_symmetry_space_group_name_H-M "C C C A"
_symmetry_group_IT_number 68
_space_group.IT_coordinate_system_code '2'
_symmetry_cell_setting 'orthorhombic'
loop_
_space_group_symop_operation_xyz
x,y,z
-x,1/2-y,z
x,1/2-y,1/2-z
-x,y,1/2-z
-x,-y,-z
x,1/2+y,-z
-x,1/2+y,1/2+z
x,-y,1/2+z
1/2+x,1/2+y,z
1/2-x,-y,z
1/2+x,-y,1/2-z
1/2-x,1/2+y,1/2-z
1/2-x,1/2-y,-z
1/2+x,y,-z
1/2-x,y,1/2+z
1/2+x,1/2-y,1/2+z
loop_
_atom_site_type_symbol
_atom_site_label
_atom_site_fract_x
_atom_site_fract_y
_atom_site_fract_z
Si Si1 0.500000 0.611458 0.250000
Si Si2 0.873749 0.695512 0.564370
Si Si3 0.840729 0.108568 0.105079
Si Si4 0.304426 0.420122 0.372954
Si Si5 0.136801 0.161621 0.814257
O O1 0.444523 0.663470 0.343182
O O2 0.416886 0.568553 0.184521
O O3 0.867024 0.795275 0.574547
O O4 0.773000 0.652973 0.597035
O O5 0.901704 0.672501 0.438138
O O6 0.740124 0.123007 0.160592
O O7 0.841169 0.056781 0.993669
O O8 0.250000 0.500000 0.331152
O O9 0.388321 0.394651 0.291658
O O10 0.140172 0.250000 0.750000
#
# Coordination Sequence:
#
# PCOD9509921 Si02
#       5
#     8  16  16  16  16
#     4  12  23  40  66 100 126 168 221 264 321 394
#     4  11  21  37  66  95 125 166 211 271 320 372
#     4  11  20  37  67  94 124 163 212 269 312 378
#     4  11  23  39  64  97 126 164 218 264 316 385
#     4  11  18  37  65  90 123 164 214 267 310 365
#
# _framework density 26.013497999999998
#
# number of rings (size 3 to 8) (size 9 to 14) (size 15 to 20)
#    0.000    0.889    6.667    3.333    0.000    3.556 
#    0.000    2.222    0.000    0.000    0.000    0.000 
#    0.000    0.000    0.000    0.000    0.000    0.000 
#
# Total GULP energy -201115.400282 kJ/mol
# GULP energy per Si atom -5586.538897 kJ/mol
# Density = 2.595429 g / cm^3
# Si number density = 26.013498 Si / 1000 Ang^3
#
#
#
# Elastic Constant Matrix: (Units=GPa)
#
#
# Indices 1 2 3 4 5 6 
#
# 1 61.1358 -9.4756 31.5624 0.0000 0.0000 0.0000
# 2 -9.4756 73.0551 35.1215 0.0000 0.0000 0.0000
# 3 31.5624 35.1215 215.9624 0.0000 0.0000 0.0000
# 4 0.0000 0.0000 0.0000 13.3200 0.0000 0.0000
# 5 0.0000 0.0000 0.0000 0.0000 51.8115 0.0000
# 6 0.0000 0.0000 0.0000 0.0000 0.0000 10.0737
#
#
#
# Elastic Compliance Matrix: (Units=1/GPa)
#
#
# Indices 1 2 3 4 5 6 
#
# 1 0.018743 0.004066 -0.003400 0.000000 0.000000 0.000000
# 2 0.004066 0.015731 -0.003153 0.000000 0.000000 0.000000
# 3 -0.003400 -0.003153 0.005640 0.000000 0.000000 0.000000
# 4 0.000000 0.000000 0.000000 0.075075 0.000000 0.000000
# 5 0.000000 0.000000 0.000000 0.000000 0.019301 0.000000
# 6 0.000000 0.000000 0.000000 0.000000 0.000000 0.099269
#
#
# Mechanical properties :
#
#
# Convention : Reuss Voigt Hill
#
# Bulk Modulus (GPa) = 28.45782 51.61887 40.03835
# Shear Modulus (GPa) = 19.96435 34.57070 27.26752
#
# Velocity S-wave (km/s) = 2.77331 3.64943 3.24111
# Velocity P-wave (km/s) = 4.60635 6.13547 5.42505
#
# Compressibility (1/GPa) = 0.03513972
#
# Stress axis : x y z
#
# Youngs Moduli (GPa) = 53.35408 63.56768 177.30213
#
# Poissons Ratio (x) = -0.25845 0.60290
# Poissons Ratio (y) = -0.21693 0.55895
# Poissons Ratio (z) = 0.18143 0.20040
#
# Static dielectric constant tensor:
#      x y z
#    x 2.130100 0.000000 0.000000 
#    y 0.000000 2.002170 0.000000 
#    z 0.000000 0.000000 2.130710 
# 
# From -- ./inp_files/14202.got.cif
#   From: 2010.05.17/outbox.cif.g08.bks.cpg/sg68_8_cif.got.tgz:14202.got - 2010.06.03 18:57:09.
