data_PCOD9509977
_publ_section_title
;
Structure prediction by ZEFSAII (Michael W. Deem and Ramdas Pophale) SiO2 
 PCOD9509977
Probable space group: C C C A
;
_chemical_formula_sum "Si O2"
_cell_formula_units_Z 64
_cell_length_a 8.409298
_cell_length_b 23.387940
_cell_length_c 14.523203
_cell_angle_alpha 90.000000
_cell_angle_beta 90.000000
_cell_angle_gamma 90.000000
_cell_volume 2856.367754
_symmetry_space_group_name_H-M "C C C A"
_symmetry_group_IT_number 68
_space_group.IT_coordinate_system_code '2'
_symmetry_cell_setting 'orthorhombic'
loop_
_space_group_symop_operation_xyz
x,y,z
-x,1/2-y,z
x,1/2-y,1/2-z
-x,y,1/2-z
-x,-y,-z
x,1/2+y,-z
-x,1/2+y,1/2+z
x,-y,1/2+z
1/2+x,1/2+y,z
1/2-x,-y,z
1/2+x,-y,1/2-z
1/2-x,1/2+y,1/2-z
1/2-x,1/2-y,-z
1/2+x,y,-z
1/2-x,y,1/2+z
1/2+x,1/2-y,1/2+z
loop_
_atom_site_type_symbol
_atom_site_label
_atom_site_fract_x
_atom_site_fract_y
_atom_site_fract_z
Si Si1 0.189495 0.817667 0.242619
Si Si2 0.351691 0.614362 0.091665
Si Si3 0.124664 0.457695 0.451243
Si Si4 0.363316 0.792783 0.552892
O O1 0.229809 0.750000 0.250000
O O2 0.274552 0.854737 0.320384
O O3 0.219744 0.827569 0.134677
O O4 0.000000 0.827050 0.250000
O O5 0.507173 0.577526 0.114016
O O6 0.220566 0.578948 0.030137
O O7 0.419400 0.662261 0.021842
O O8 0.250000 0.500000 0.403498
O O9 0.000000 0.500000 0.500000
O O10 0.500000 0.750000 0.589615
O O11 0.250000 0.750000 0.500000
#
# Coordination Sequence:
#
# PCOD9509977 Si02
#       4
#    16  16  16  16
#     4  11  20  37  58  91 139 186 226 270 339 436
#     4  11  21  39  67  97 133 188 226 287 362 409
#     4   9  20  40  69 100 129 176 245 299 348 412
#     4  12  22  37  60  92 135 180 225 270 338 426
#
# _framework density 22.406079999999999
#
# number of rings (size 3 to 8) (size 9 to 14) (size 15 to 20)
#    0.000    1.250    5.000    3.000    0.000    0.000 
#    0.000    6.250    0.000   31.500    0.000    0.000 
#    0.000    0.000    0.000    0.000    0.000    0.000 
#
# Total GULP energy -178531.329860 kJ/mol
# GULP energy per Si atom -5579.104058 kJ/mol
# Density = 2.235508 g / cm^3
# Si number density = 22.406080 Si / 1000 Ang^3
#
#
#
# Elastic Constant Matrix: (Units=GPa)
#
#
# Indices 1 2 3 4 5 6 
#
# 1 130.0425 72.4629 54.0244 0.0000 0.0000 0.0000
# 2 72.4629 101.6381 48.9504 0.0000 0.0000 0.0000
# 3 54.0244 48.9504 140.3488 0.0000 0.0000 0.0000
# 4 0.0000 0.0000 0.0000 23.8813 0.0000 0.0000
# 5 0.0000 0.0000 0.0000 0.0000 31.3883 0.0000
# 6 0.0000 0.0000 0.0000 0.0000 0.0000 55.7971
#
#
#
# Elastic Compliance Matrix: (Units=1/GPa)
#
#
# Indices 1 2 3 4 5 6 
#
# 1 0.013289 -0.008426 -0.002177 0.000000 0.000000 0.000000
# 2 -0.008426 0.017168 -0.002744 0.000000 0.000000 0.000000
# 3 -0.002177 -0.002744 0.008920 0.000000 0.000000 0.000000
# 4 0.000000 0.000000 0.000000 0.041874 0.000000 0.000000
# 5 0.000000 0.000000 0.000000 0.000000 0.031859 0.000000
# 6 0.000000 0.000000 0.000000 0.000000 0.000000 0.017922
#
#
# Mechanical properties :
#
#
# Convention : Reuss Voigt Hill
#
# Bulk Modulus (GPa) = 78.84492 80.32275 79.58384
# Shear Modulus (GPa) = 30.87284 35.31947 33.09616
#
# Velocity S-wave (km/s) = 3.71600 3.97461 3.84748
# Velocity P-wave (km/s) = 7.32646 7.54916 7.43865
#
# Compressibility (1/GPa) = 0.01268313
#
# Stress axis : x y z
#
# Youngs Moduli (GPa) = 75.24777 58.24738 112.10690
#
# Poissons Ratio (x) = 0.49082 0.24401
# Poissons Ratio (y) = 0.63407 0.30765
# Poissons Ratio (z) = 0.16378 0.15985
#
# Static dielectric constant tensor:
#      x y z
#    x 1.865450 0.000000 0.000000 
#    y 0.000000 1.910280 0.000000 
#    z 0.000000 0.000000 1.880260 
# 
# From -- ./inp_files/11677.got.cif
#   From: 2010.05.17/outbox.cif.g08.bks.cpg/sg68_6_cif.got.tgz:11677.got - 2010.06.03 18:57:09.
