data_PCOD9509766
_publ_section_title
;
Structure prediction by ZEFSAII (Michael W. Deem and Ramdas Pophale) SiO2 
 PCOD9509766
Probable space group: C C C A
;
_chemical_formula_sum "Si O2"
_cell_formula_units_Z 44
_cell_length_a 12.809777
_cell_length_b 9.703076
_cell_length_c 13.467246
_cell_angle_alpha 90.000000
_cell_angle_beta 90.000000
_cell_angle_gamma 90.000000
_cell_volume 1673.901103
_symmetry_space_group_name_H-M "C C C A"
_symmetry_group_IT_number 68
_space_group.IT_coordinate_system_code '2'
_symmetry_cell_setting 'orthorhombic'
loop_
_space_group_symop_operation_xyz
x,y,z
-x,1/2-y,z
x,1/2-y,1/2-z
-x,y,1/2-z
-x,-y,-z
x,1/2+y,-z
-x,1/2+y,1/2+z
x,-y,1/2+z
1/2+x,1/2+y,z
1/2-x,-y,z
1/2+x,-y,1/2-z
1/2-x,1/2+y,1/2-z
1/2-x,1/2-y,-z
1/2+x,y,-z
1/2-x,y,1/2+z
1/2+x,1/2-y,1/2+z
loop_
_atom_site_type_symbol
_atom_site_label
_atom_site_fract_x
_atom_site_fract_y
_atom_site_fract_z
Si Si1 0.365235 0.013887 0.762228
Si Si2 0.250000 0.000000 0.944745
Si Si3 0.500000 0.750000 0.750000
Si Si4 0.934540 0.616205 0.556032
O O1 0.417065 0.865456 0.789453
O O2 0.250000 0.000000 0.714479
O O3 0.328682 0.078340 0.867368
O O4 0.428621 0.086376 0.674119
O O5 0.180491 0.102135 0.009341
O O6 0.000000 0.750000 0.533150
O O7 0.000000 0.500000 0.500000
#
# Coordination Sequence:
#
# PCOD9509766 Si02
#       4
#    16   8   4  16
#     4  10  26  48  80 116 161 214 276 338 406 490
#     4  10  24  50  78 120 160 224 266 338 414 492
#     4  12  24  52  82 114 160 222 270 344 420 482
#     4  12  28  50  80 122 167 219 277 343 419 495
#
# _framework density 26.285903000000001
#
# number of rings (size 3 to 8) (size 9 to 14) (size 15 to 20)
#    1.091    0.000    1.818    2.182   10.182    4.364 
#    0.000    1.818    0.000    0.000    0.000    0.000 
#    0.000    0.000    0.000    0.000    0.000    0.000 
#
# Total GULP energy -122647.463043 kJ/mol
# GULP energy per Si atom -5574.884684 kJ/mol
# Density = 2.622608 g / cm^3
# Si number density = 26.285903 Si / 1000 Ang^3
#
#
#
# Elastic Constant Matrix: (Units=GPa)
#
#
# Indices 1 2 3 4 5 6 
#
# 1 164.7729 86.1061 84.9671 0.0000 0.0000 0.0000
# 2 86.1061 170.3984 65.6038 0.0000 0.0000 0.0000
# 3 84.9671 65.6038 196.8250 0.0000 0.0000 0.0000
# 4 0.0000 0.0000 0.0000 34.8115 0.0000 0.0000
# 5 0.0000 0.0000 0.0000 0.0000 84.7857 0.0000
# 6 0.0000 0.0000 0.0000 0.0000 0.0000 51.1317
#
#
#
# Elastic Compliance Matrix: (Units=1/GPa)
#
#
# Indices 1 2 3 4 5 6 
#
# 1 0.009469 -0.003684 -0.002860 0.000000 0.000000 0.000000
# 2 -0.003684 0.008166 -0.001131 0.000000 0.000000 0.000000
# 3 -0.002860 -0.001131 0.006692 0.000000 0.000000 0.000000
# 4 0.000000 0.000000 0.000000 0.028726 0.000000 0.000000
# 5 0.000000 0.000000 0.000000 0.000000 0.011794 0.000000
# 6 0.000000 0.000000 0.000000 0.000000 0.000000 0.019557
#
#
# Mechanical properties :
#
#
# Convention : Reuss Voigt Hill
#
# Bulk Modulus (GPa) = 111.39799 111.70558 111.55179
# Shear Modulus (GPa) = 48.66345 53.83372 51.24859
#
# Velocity S-wave (km/s) = 4.30736 4.53040 4.42029
# Velocity P-wave (km/s) = 8.19812 8.36389 8.28142
#
# Compressibility (1/GPa) = 0.00897682
#
# Stress axis : x y z
#
# Youngs Moduli (GPa) = 105.61236 122.46358 149.42595
#
# Poissons Ratio (x) = 0.45112 0.42731
# Poissons Ratio (y) = 0.38905 0.16907
# Poissons Ratio (z) = 0.30202 0.13857
#
# Static dielectric constant tensor:
#      x y z
#    x 2.241770 0.000000 0.000000 
#    y 0.000000 2.021020 0.000000 
#    z 0.000000 0.000000 2.110980 
# 
# From -- ./inp_files/21476.got.cif
#   From: 2010.05.17/outbox.cif.g08.bks.cpg/sg68_11_cif.got.tgz:21476.got - 2010.06.03 18:57:09.
