data_PCOD9509280
_publ_section_title
;
Structure prediction by ZEFSAII (Michael W. Deem and Ramdas Pophale) SiO2 
 PCOD9509280
Probable space group: C C C A
;
_chemical_formula_sum "Si O2"
_cell_formula_units_Z 48
_cell_length_a 5.278396
_cell_length_b 27.468179
_cell_length_c 14.294164
_cell_angle_alpha 90.000000
_cell_angle_beta 90.000000
_cell_angle_gamma 90.000000
_cell_volume 2072.481195
_symmetry_space_group_name_H-M "C C C A"
_symmetry_group_IT_number 68
_space_group.IT_coordinate_system_code '2'
_symmetry_cell_setting 'orthorhombic'
loop_
_space_group_symop_operation_xyz
x,y,z
-x,1/2-y,z
x,1/2-y,1/2-z
-x,y,1/2-z
-x,-y,-z
x,1/2+y,-z
-x,1/2+y,1/2+z
x,-y,1/2+z
1/2+x,1/2+y,z
1/2-x,-y,z
1/2+x,-y,1/2-z
1/2-x,1/2+y,1/2-z
1/2-x,1/2-y,-z
1/2+x,y,-z
1/2-x,y,1/2+z
1/2+x,1/2-y,1/2+z
loop_
_atom_site_type_symbol
_atom_site_label
_atom_site_fract_x
_atom_site_fract_y
_atom_site_fract_z
Si Si1 0.502524 0.031245 0.362198
Si Si2 0.940472 0.138479 0.943008
Si Si3 0.744185 0.771803 0.854595
O O1 0.500000 0.040203 0.250000
O O2 0.538715 0.082373 0.413715
O O3 0.750000 0.000000 0.383789
O O4 0.250000 0.000000 0.384995
O O5 0.819048 0.171115 0.859731
O O6 0.728135 0.148847 0.023095
O O7 0.500000 0.750000 0.904257
O O8 0.744875 0.750000 0.750000
O O9 0.000000 0.750000 0.895005
#
# Coordination Sequence:
#
# PCOD9509280 Si02
#       3
#    16  16  16
#     4  10  23  44  68  99 134 180 227 272 329 409
#     4  12  26  42  68 104 135 174 221 281 345 402
#     4  10  23  43  66  95 128 184 223 274 329 402
#
# _framework density 23.160643
#
# number of rings (size 3 to 8) (size 9 to 14) (size 15 to 20)
#    0.000    1.333    0.000    4.000    4.667    8.000 
#   12.000    0.000    0.000    0.000    0.000    0.000 
#    0.000    0.000    0.000    0.000    0.000    0.000 
#
# Total GULP energy -133923.485028 kJ/mol
# GULP energy per Si atom -5580.145209 kJ/mol
# Density = 2.310793 g / cm^3
# Si number density = 23.160643 Si / 1000 Ang^3
#
#
#
# Elastic Constant Matrix: (Units=GPa)
#
#
# Indices 1 2 3 4 5 6 
#
# 1 239.4026 63.0928 18.7704 0.0000 0.0000 0.0000
# 2 63.0928 153.2400 28.2459 0.0000 0.0000 0.0000
# 3 18.7704 28.2459 99.3196 0.0000 0.0000 0.0000
# 4 0.0000 0.0000 0.0000 21.2107 0.0000 0.0000
# 5 0.0000 0.0000 0.0000 0.0000 -13.4528 0.0000
# 6 0.0000 0.0000 0.0000 0.0000 0.0000 34.9751
#
#
#
# Elastic Compliance Matrix: (Units=1/GPa)
#
#
# Indices 1 2 3 4 5 6 
#
# 1 0.004697 -0.001868 -0.000356 0.000000 0.000000 0.000000
# 2 -0.001868 0.007630 -0.001817 0.000000 0.000000 0.000000
# 3 -0.000356 -0.001817 0.010653 0.000000 0.000000 0.000000
# 4 0.000000 0.000000 0.000000 0.047146 0.000000 0.000000
# 5 0.000000 0.000000 0.000000 0.000000 -0.074334 0.000000
# 6 0.000000 0.000000 0.000000 0.000000 0.000000 0.028592
#
#
# Mechanical properties :
#
#
# Convention : Reuss Voigt Hill
#
# Bulk Modulus (GPa) = 67.12895 79.13114 73.13004
# Shear Modulus (GPa) = 133.57455 34.00348 83.78902
#
# Velocity S-wave (km/s) = 7.60252 3.83581 6.02128
# Velocity P-wave (km/s) = 10.30104 7.33882 8.94342
#
# Compressibility (1/GPa) = 0.01489670
#
# Stress axis : x y z
#
# Youngs Moduli (GPa) = 212.88396 131.06457 93.87429
#
# Poissons Ratio (x) = 0.24487 0.03346
# Poissons Ratio (y) = 0.39774 0.17055
# Poissons Ratio (z) = 0.07588 0.23812
#
# Static dielectric constant tensor:
#      x y z
#    x 1.929850 0.000000 0.000000 
#    y 0.000000 2.031560 0.000000 
#    z 0.000000 0.000000 1.912780 
# 
# From -- ./inp_files/18157.got.cif
#   From: 2010.05.17/outbox.cif.g08.bks.cpg/sg68_10_cif.got.tgz:18157.got - 2010.06.03 18:57:09.
