data_PCOD9509218
_publ_section_title
;
Structure prediction by ZEFSAII (Michael W. Deem and Ramdas Pophale) SiO2 
 PCOD9509218
Probable space group: C C C A
;
_chemical_formula_sum "Si O2"
_cell_formula_units_Z 72
_cell_length_a 7.527565
_cell_length_b 21.420596
_cell_length_c 20.191542
_cell_angle_alpha 90.000000
_cell_angle_beta 90.000000
_cell_angle_gamma 90.000000
_cell_volume 3255.783751
_symmetry_space_group_name_H-M "C C C A"
_symmetry_group_IT_number 68
_space_group.IT_coordinate_system_code '2'
_symmetry_cell_setting 'orthorhombic'
loop_
_space_group_symop_operation_xyz
x,y,z
-x,1/2-y,z
x,1/2-y,1/2-z
-x,y,1/2-z
-x,-y,-z
x,1/2+y,-z
-x,1/2+y,1/2+z
x,-y,1/2+z
1/2+x,1/2+y,z
1/2-x,-y,z
1/2+x,-y,1/2-z
1/2-x,1/2+y,1/2-z
1/2-x,1/2-y,-z
1/2+x,y,-z
1/2-x,y,1/2+z
1/2+x,1/2-y,1/2+z
loop_
_atom_site_type_symbol
_atom_site_label
_atom_site_fract_x
_atom_site_fract_y
_atom_site_fract_z
Si Si1 0.053154 0.182574 0.101135
Si Si2 0.269610 0.927616 0.434740
Si Si3 0.500000 0.658088 0.250000
Si Si4 0.634810 0.398350 0.079085
Si Si5 0.804220 0.431427 0.727978
O O1 0.923962 0.122463 0.086251
O O2 0.050503 0.189259 0.180969
O O3 0.000000 0.250000 0.072801
O O4 0.251102 0.165138 0.077378
O O5 0.306991 0.934085 0.513153
O O6 0.078137 0.896157 0.421353
O O7 0.250000 0.000000 0.408749
O O8 0.331199 0.614605 0.237367
O O9 0.699723 0.427593 0.148367
O O10 0.750000 0.500000 0.748590
O O11 0.000000 0.415703 0.750000
#
# Coordination Sequence:
#
# PCOD9509218 Si02
#       5
#    16  16   8  16  16
#     4  11  26  46  69  97 135 181 227 279 336 404
#     4  12  25  43  70 101 136 177 219 278 336 408
#     4  10  23  42  64  94 130 178 223 272 340 403
#     4  11  25  42  68 100 138 176 225 273 342 400
#     4  11  22  37  62  99 133 171 218 281 333 396
#
# _framework density 22.114491000000001
#
# number of rings (size 3 to 8) (size 9 to 14) (size 15 to 20)
#    0.000    0.889    3.333    3.000    6.222    3.556 
#    0.000    0.000    0.000    4.000    0.000    0.000 
#    0.000    0.000    0.000    0.000    0.000    0.000 
#
# Total GULP energy -200838.354562 kJ/mol
# GULP energy per Si atom -5578.843182 kJ/mol
# Density = 2.206416 g / cm^3
# Si number density = 22.114491 Si / 1000 Ang^3
#
#
#
# Elastic Constant Matrix: (Units=GPa)
#
#
# Indices 1 2 3 4 5 6 
#
# 1 162.5659 46.0387 -19.6324 0.0000 0.0000 0.0000
# 2 46.0387 111.7763 -6.1259 0.0000 0.0000 0.0000
# 3 -19.6324 -6.1259 79.7032 0.0000 0.0000 0.0000
# 4 0.0000 0.0000 0.0000 -9.2231 0.0000 0.0000
# 5 0.0000 0.0000 0.0000 0.0000 34.3692 0.0000
# 6 0.0000 0.0000 0.0000 0.0000 0.0000 7.3218
#
#
#
# Elastic Compliance Matrix: (Units=1/GPa)
#
#
# Indices 1 2 3 4 5 6 
#
# 1 0.007147 -0.002859 0.001541 0.000000 0.000000 0.000000
# 2 -0.002859 0.010128 0.000074 0.000000 0.000000 0.000000
# 3 0.001541 0.000074 0.012932 0.000000 0.000000 0.000000
# 4 0.000000 0.000000 0.000000 -0.108423 0.000000 0.000000
# 5 0.000000 0.000000 0.000000 0.000000 0.029096 0.000000
# 6 0.000000 0.000000 0.000000 0.000000 0.000000 0.136578
#
#
# Mechanical properties :
#
#
# Convention : Reuss Voigt Hill
#
# Bulk Modulus (GPa) = 36.07746 43.84514 39.96130
# Shear Modulus (GPa) = 50.41047 28.74458 39.57753
#
# Velocity S-wave (km/s) = 4.77961 3.60920 4.23503
# Velocity P-wave (km/s) = 6.84171 6.10228 6.48255
#
# Compressibility (1/GPa) = 0.02771814
#
# Stress axis : x y z
#
# Youngs Moduli (GPa) = 139.91512 98.73395 77.32902
#
# Poissons Ratio (x) = 0.28232 -0.11914
# Poissons Ratio (y) = 0.40007 -0.00573
# Poissons Ratio (z) = -0.21557 -0.00732
#
# Static dielectric constant tensor:
#      x y z
#    x 1.798260 0.000000 0.000000 
#    y 0.000000 1.855730 0.000000 
#    z 0.000000 0.000000 1.855170 
# 
# From -- ./inp_files/36046.got.cif
#   From: 2010.05.17/outbox.cif.g08.bks.cpg/sg68_19_cif.got.tgz:36046.got - 2010.06.03 18:57:09.
