data_PCOD9509136
_publ_section_title
;
Structure prediction by ZEFSAII (Michael W. Deem and Ramdas Pophale) SiO2 
 PCOD9509136
Probable space group: C C C A
;
_chemical_formula_sum "Si O2"
_cell_formula_units_Z 120
_cell_length_a 23.844290
_cell_length_b 9.094722
_cell_length_c 27.851203
_cell_angle_alpha 90.000000
_cell_angle_beta 90.000000
_cell_angle_gamma 90.000000
_cell_volume 6039.733588
_symmetry_space_group_name_H-M "C C C A"
_symmetry_group_IT_number 68
_space_group.IT_coordinate_system_code '2'
_symmetry_cell_setting 'orthorhombic'
loop_
_space_group_symop_operation_xyz
x,y,z
-x,1/2-y,z
x,1/2-y,1/2-z
-x,y,1/2-z
-x,-y,-z
x,1/2+y,-z
-x,1/2+y,1/2+z
x,-y,1/2+z
1/2+x,1/2+y,z
1/2-x,-y,z
1/2+x,-y,1/2-z
1/2-x,1/2+y,1/2-z
1/2-x,1/2-y,-z
1/2+x,y,-z
1/2-x,y,1/2+z
1/2+x,1/2-y,1/2+z
loop_
_atom_site_type_symbol
_atom_site_label
_atom_site_fract_x
_atom_site_fract_y
_atom_site_fract_z
Si Si1 0.412309 0.487900 0.870335
Si Si2 0.630770 0.201962 0.114107
Si Si3 0.596776 0.447255 0.832950
Si Si4 0.065024 0.423281 0.760712
Si Si5 0.689070 0.772737 0.364887
Si Si6 0.000000 0.750000 0.865318
Si Si7 0.722778 0.830799 0.701337
Si Si8 0.266271 0.169905 0.451040
O O1 0.401221 0.645679 0.893186
O O2 0.423660 0.526347 0.814486
O O3 0.352701 0.405950 0.872436
O O4 0.461110 0.377840 0.889462
O O5 0.585244 0.082896 0.131529
O O6 0.674445 0.186776 0.160053
O O7 0.669717 0.175635 0.067875
O O8 0.603772 0.495086 0.778115
O O9 0.649463 0.367467 0.856346
O O10 0.545613 0.335497 0.834389
O O11 0.071394 0.250000 0.750000
O O12 0.000000 0.457005 0.750000
O O13 0.727386 0.774566 0.317993
O O14 0.729112 0.745673 0.409656
O O15 0.703572 0.750000 0.750000
O O16 0.750000 0.000000 0.704105
O O17 0.250000 0.250000 0.500000
O O18 0.250000 0.000000 0.454192
#
# Coordination Sequence:
#
# PCOD9509136 Si02
#       8
#    16  16  16  16  16   8  16  16
#     4  11  24  37  59  89 124 172 213 266 300 367
#     4  11  23  40  63  87 126 162 213 248 321 372
#     4  11  20  39  60  81 125 171 208 264 303 360
#     4  11  22  34  53  83 124 169 227 265 296 345
#     4  10  23  40  59  86 127 158 205 260 314 365
#     4  10  24  39  56  88 122 166 216 268 310 352
#     4  11  24  37  52  81 119 170 209 250 301 373
#     4  11  24  45  70  99 128 157 197 266 319 386
#
# _framework density 19.868427000000001
#
# number of rings (size 3 to 8) (size 9 to 14) (size 15 to 20)
#    0.000    1.200    5.333    0.800    7.467    3.733 
#    0.000    0.000    0.000    0.000    0.000   14.933 
#    0.000    0.000    0.000    0.000    0.000    0.000 
#
# Total GULP energy -334540.278387 kJ/mol
# GULP energy per Si atom -5575.671306 kJ/mol
# Density = 1.982321 g / cm^3
# Si number density = 19.868427 Si / 1000 Ang^3
#
#
#
# Elastic Constant Matrix: (Units=GPa)
#
#
# Indices 1 2 3 4 5 6 
#
# 1 50.1858 17.6819 14.5907 0.0000 0.0000 0.0000
# 2 17.6819 90.2164 14.9496 0.0000 0.0000 0.0000
# 3 14.5907 14.9496 76.2443 0.0000 0.0000 0.0000
# 4 0.0000 0.0000 0.0000 14.4332 0.0000 0.0000
# 5 0.0000 0.0000 0.0000 0.0000 75.2594 0.0000
# 6 0.0000 0.0000 0.0000 0.0000 0.0000 37.1467
#
#
#
# Elastic Compliance Matrix: (Units=1/GPa)
#
#
# Indices 1 2 3 4 5 6 
#
# 1 0.022283 -0.003784 -0.003522 0.000000 0.000000 0.000000
# 2 -0.003784 0.012099 -0.001648 0.000000 0.000000 0.000000
# 3 -0.003522 -0.001648 0.014113 0.000000 0.000000 0.000000
# 4 0.000000 0.000000 0.000000 0.069285 0.000000 0.000000
# 5 0.000000 0.000000 0.000000 0.000000 0.013287 0.000000
# 6 0.000000 0.000000 0.000000 0.000000 0.000000 0.026920
#
#
# Mechanical properties :
#
#
# Convention : Reuss Voigt Hill
#
# Bulk Modulus (GPa) = 32.69406 34.56568 33.62987
# Shear Modulus (GPa) = 26.86847 36.66283 31.76565
#
# Velocity S-wave (km/s) = 3.68138 4.30033 4.00284
# Velocity P-wave (km/s) = 5.87887 6.48785 6.19085
#
# Compressibility (1/GPa) = 0.03058659
#
# Stress axis : x y z
#
# Youngs Moduli (GPa) = 44.87701 82.65028 70.85670
#
# Poissons Ratio (x) = 0.31272 0.24959
# Poissons Ratio (y) = 0.16980 0.11679
# Poissons Ratio (z) = 0.15807 0.13623
#
# Static dielectric constant tensor:
#      x y z
#    x 1.763930 0.000000 0.000000 
#    y 0.000000 1.752200 0.000000 
#    z 0.000000 0.000000 1.670290 
# 
# From -- ./inp_files/52408.got.cif
#   From: 2010.05.17/outbox.cif.g08.bks.cpg/sg68_27_cif.got.tgz:52408.got - 2010.06.03 18:57:09.
