data_PCOD9509878
_publ_section_title
;
Structure prediction by ZEFSAII (Michael W. Deem and Ramdas Pophale) SiO2 
 PCOD9509878
Probable space group: C C C A
;
_chemical_formula_sum "Si O2"
_cell_formula_units_Z 72
_cell_length_a 28.195528
_cell_length_b 13.051312
_cell_length_c 9.012664
_cell_angle_alpha 90.000000
_cell_angle_beta 90.000000
_cell_angle_gamma 90.000000
_cell_volume 3316.557904
_symmetry_space_group_name_H-M "C C C A"
_symmetry_group_IT_number 68
_space_group.IT_coordinate_system_code '2'
_symmetry_cell_setting 'orthorhombic'
loop_
_space_group_symop_operation_xyz
x,y,z
-x,1/2-y,z
x,1/2-y,1/2-z
-x,y,1/2-z
-x,-y,-z
x,1/2+y,-z
-x,1/2+y,1/2+z
x,-y,1/2+z
1/2+x,1/2+y,z
1/2-x,-y,z
1/2+x,-y,1/2-z
1/2-x,1/2+y,1/2-z
1/2-x,1/2-y,-z
1/2+x,y,-z
1/2-x,y,1/2+z
1/2+x,1/2-y,1/2+z
loop_
_atom_site_type_symbol
_atom_site_label
_atom_site_fract_x
_atom_site_fract_y
_atom_site_fract_z
Si Si1 0.252419 0.250000 0.750000
Si Si2 0.050581 0.713610 0.078821
Si Si3 0.606254 0.389751 0.987715
Si Si4 0.054073 0.491705 0.733723
Si Si5 0.714351 0.598542 0.502564
O O1 0.279566 0.327967 0.640756
O O2 0.224139 0.172555 0.642768
O O3 0.049243 0.750000 0.250000
O O4 0.095649 0.768856 0.007297
O O5 0.053828 0.593167 0.101330
O O6 0.000000 0.750000 0.012042
O O7 0.574294 0.439325 0.118716
O O8 0.587349 0.420290 0.827020
O O9 0.659235 0.429588 0.008325
O O10 0.000000 0.525112 0.750000
O O11 0.750000 0.500000 0.499515
#
# Coordination Sequence:
#
# PCOD9509878 Si02
#       5
#     8  16  16  16  16
#     4  10  26  48  72  98 142 174 228 292 354 414
#     4   9  17  37  60  87 124 171 215 256 319 400
#     4  11  25  39  70  99 131 177 226 274 343 409
#     4  11  22  41  66  97 135 176 224 272 334 411
#     4  11  26  47  73 103 139 180 233 292 355 414
#
# _framework density 21.709256
#
# number of rings (size 3 to 8) (size 9 to 14) (size 15 to 20)
#    0.000    1.556    4.444    1.333   10.889    1.778 
#    0.000    0.000    0.000    0.000    0.000    0.000 
#    0.000    0.000    0.000    0.000    0.000    0.000 
#
# Total GULP energy -200817.327085 kJ/mol
# GULP energy per Si atom -5578.259086 kJ/mol
# Density = 2.165984 g / cm^3
# Si number density = 21.709256 Si / 1000 Ang^3
#
#
#
# Elastic Constant Matrix: (Units=GPa)
#
#
# Indices 1 2 3 4 5 6 
#
# 1 126.2657 21.9873 14.4273 0.0000 0.0000 0.0000
# 2 21.9873 81.0221 22.8131 0.0000 0.0000 0.0000
# 3 14.4273 22.8131 71.2054 0.0000 0.0000 0.0000
# 4 0.0000 0.0000 0.0000 41.4351 0.0000 0.0000
# 5 0.0000 0.0000 0.0000 0.0000 -1.4263 0.0000
# 6 0.0000 0.0000 0.0000 0.0000 0.0000 8.4461
#
#
#
# Elastic Compliance Matrix: (Units=1/GPa)
#
#
# Indices 1 2 3 4 5 6 
#
# 1 0.008386 -0.001975 -0.001066 0.000000 0.000000 0.000000
# 2 -0.001975 0.014031 -0.004095 0.000000 0.000000 0.000000
# 3 -0.001066 -0.004095 0.015572 0.000000 0.000000 0.000000
# 4 0.000000 0.000000 0.000000 0.024134 0.000000 0.000000
# 5 0.000000 0.000000 0.000000 0.000000 -0.701103 0.000000
# 6 0.000000 0.000000 0.000000 0.000000 0.000000 0.118397
#
#
# Mechanical properties :
#
#
# Convention : Reuss Voigt Hill
#
# Bulk Modulus (GPa) = 42.16668 44.10541 43.13605
# Shear Modulus (GPa) = -10.03202 24.30869 7.13833
#
# Velocity S-wave (km/s) = -2.15200 3.34988 1.81529
# Velocity P-wave (km/s) = 3.64564 5.94330 4.93019
#
# Compressibility (1/GPa) = 0.02371541
#
# Stress axis : x y z
#
# Youngs Moduli (GPa) = 119.25174 71.26835 64.21810
#
# Poissons Ratio (x) = 0.14079 0.06847
# Poissons Ratio (y) = 0.23558 0.26299
# Poissons Ratio (z) = 0.12714 0.29186
#
# Static dielectric constant tensor:
#      x y z
#    x 1.787020 0.000000 0.000000 
#    y 0.000000 1.352520 0.000000 
#    z 0.000000 0.000000 1.793420 
# 
# From -- ./inp_files/8664.got.cif
#   From: 2010.05.17/outbox.cif.g08.bks.cpg/sg68_5_cif.got.tgz:8664.got - 2010.06.03 18:57:09.
