data_PCOD9509681
_publ_section_title
;
Structure prediction by ZEFSAII (Michael W. Deem and Ramdas Pophale) SiO2 
 PCOD9509681
Probable space group: C C C A
;
_chemical_formula_sum "Si O2"
_cell_formula_units_Z 56
_cell_length_a 14.227261
_cell_length_b 19.854628
_cell_length_c 8.609217
_cell_angle_alpha 90.000000
_cell_angle_beta 90.000000
_cell_angle_gamma 90.000000
_cell_volume 2431.905572
_symmetry_space_group_name_H-M "C C C A"
_symmetry_group_IT_number 68
_space_group.IT_coordinate_system_code '2'
_symmetry_cell_setting 'orthorhombic'
loop_
_space_group_symop_operation_xyz
x,y,z
-x,1/2-y,z
x,1/2-y,1/2-z
-x,y,1/2-z
-x,-y,-z
x,1/2+y,-z
-x,1/2+y,1/2+z
x,-y,1/2+z
1/2+x,1/2+y,z
1/2-x,-y,z
1/2+x,-y,1/2-z
1/2-x,1/2+y,1/2-z
1/2-x,1/2-y,-z
1/2+x,y,-z
1/2-x,y,1/2+z
1/2+x,1/2-y,1/2+z
loop_
_atom_site_type_symbol
_atom_site_label
_atom_site_fract_x
_atom_site_fract_y
_atom_site_fract_z
Si Si1 0.336589 0.912425 0.934932
Si Si2 0.513807 0.329238 0.063869
Si Si3 0.750000 0.000000 0.301474
Si Si4 0.694744 0.300156 0.887505
O O1 0.433107 0.879431 0.991800
O O2 0.275061 0.854488 0.850507
O O3 0.333548 0.972663 0.809433
O O4 0.285861 0.941774 0.085473
O O5 0.500000 0.250000 0.031389
O O6 0.500000 0.336186 0.250000
O O7 0.612889 0.339571 0.979162
O O8 0.661673 0.250000 0.750000
O O9 0.750000 0.250000 0.000000
#
# Coordination Sequence:
#
# PCOD9509681 Si02
#       4
#    16  16   8  16
#     4  11  23  46  69 101 143 188 247 289 357 437
#     4  11  23  41  69 105 146 181 234 306 371 423
#     4  10  24  46  72  96 146 208 232 288 354 440
#     4  12  24  43  73 109 146 186 238 310 377 432
#
# _framework density 23.027211000000001
#
# number of rings (size 3 to 8) (size 9 to 14) (size 15 to 20)
#    0.000    0.857    2.857    5.143    0.000    0.571 
#    0.000   15.714    0.000    0.000    0.000    0.000 
#    0.000    0.000    0.000    0.000    0.000    0.000 
#
# Total GULP energy -156317.449629 kJ/mol
# GULP energy per Si atom -5582.766058 kJ/mol
# Density = 2.297480 g / cm^3
# Si number density = 23.027211 Si / 1000 Ang^3
#
#
#
# Elastic Constant Matrix: (Units=GPa)
#
#
# Indices 1 2 3 4 5 6 
#
# 1 146.1299 38.5520 44.8323 0.0000 0.0000 0.0000
# 2 38.5520 82.8939 32.2225 0.0000 0.0000 0.0000
# 3 44.8323 32.2225 112.3215 0.0000 0.0000 0.0000
# 4 0.0000 0.0000 0.0000 38.7936 0.0000 0.0000
# 5 0.0000 0.0000 0.0000 0.0000 19.3584 0.0000
# 6 0.0000 0.0000 0.0000 0.0000 0.0000 44.3622
#
#
#
# Elastic Compliance Matrix: (Units=1/GPa)
#
#
# Indices 1 2 3 4 5 6 
#
# 1 0.008384 -0.002925 -0.002507 0.000000 0.000000 0.000000
# 2 -0.002925 0.014598 -0.003020 0.000000 0.000000 0.000000
# 3 -0.002507 -0.003020 0.010770 0.000000 0.000000 0.000000
# 4 0.000000 0.000000 0.000000 0.025777 0.000000 0.000000
# 5 0.000000 0.000000 0.000000 0.000000 0.051657 0.000000
# 6 0.000000 0.000000 0.000000 0.000000 0.000000 0.022542
#
#
# Mechanical properties :
#
#
# Convention : Reuss Voigt Hill
#
# Bulk Modulus (GPa) = 59.35658 63.61765 61.48712
# Shear Modulus (GPa) = 32.00013 35.55207 33.77610
#
# Velocity S-wave (km/s) = 3.73187 3.93353 3.83403
# Velocity P-wave (km/s) = 6.66347 6.95107 6.80879
#
# Compressibility (1/GPa) = 0.01684733
#
# Stress axis : x y z
#
# Youngs Moduli (GPa) = 119.27399 68.50316 92.84740
#
# Poissons Ratio (x) = 0.20034 0.23281
# Poissons Ratio (y) = 0.34882 0.28044
# Poissons Ratio (z) = 0.29907 0.20691
#
# Static dielectric constant tensor:
#      x y z
#    x 1.957230 0.000000 0.000000 
#    y 0.000000 2.041830 0.000000 
#    z 0.000000 0.000000 1.916560 
# 
# From -- ./inp_files/4727.got.cif
#   From: 2010.05.17/outbox.cif.g08.bks.cpg/sg68_3_cif.got.tgz:4727.got - 2010.06.03 18:57:09.
