data_PCOD9509471
_publ_section_title
;
Structure prediction by ZEFSAII (Michael W. Deem and Ramdas Pophale) SiO2 
 PCOD9509471
Probable space group: C C C A
;
_chemical_formula_sum "Si O2"
_cell_formula_units_Z 56
_cell_length_a 26.473953
_cell_length_b 8.638754
_cell_length_c 10.696492
_cell_angle_alpha 90.000000
_cell_angle_beta 90.000000
_cell_angle_gamma 90.000000
_cell_volume 2446.308764
_symmetry_space_group_name_H-M "C C C A"
_symmetry_group_IT_number 68
_space_group.IT_coordinate_system_code '2'
_symmetry_cell_setting 'orthorhombic'
loop_
_space_group_symop_operation_xyz
x,y,z
-x,1/2-y,z
x,1/2-y,1/2-z
-x,y,1/2-z
-x,-y,-z
x,1/2+y,-z
-x,1/2+y,1/2+z
x,-y,1/2+z
1/2+x,1/2+y,z
1/2-x,-y,z
1/2+x,-y,1/2-z
1/2-x,1/2+y,1/2-z
1/2-x,1/2-y,-z
1/2+x,y,-z
1/2-x,y,1/2+z
1/2+x,1/2-y,1/2+z
loop_
_atom_site_type_symbol
_atom_site_label
_atom_site_fract_x
_atom_site_fract_y
_atom_site_fract_z
Si Si1 0.500000 0.250000 0.935934
Si Si2 0.544065 0.951391 0.847642
Si Si3 0.694649 0.439976 0.394583
Si Si4 0.657945 0.589061 0.636932
O O1 0.462387 0.364236 0.864259
O O2 0.468040 0.136066 0.023717
O O3 0.500000 0.911138 0.750000
O O4 0.600409 0.904039 0.814709
O O5 0.750000 0.500000 0.431803
O O6 0.658885 0.502890 0.504369
O O7 0.684091 0.255889 0.385702
O O8 0.685627 0.495961 0.252154
#
# Coordination Sequence:
#
# PCOD9509471 Si02
#       4
#     8  16  16  16
#     4  10  24  40  66  94 144 184 234 280 344 402
#     4  11  24  42  67 100 144 183 236 286 345 428
#     4  11  25  47  71 103 141 183 243 299 358 424
#     4  11  26  44  74 105 140 190 235 291 369 419
#
# _framework density 22.891632999999999
#
# number of rings (size 3 to 8) (size 9 to 14) (size 15 to 20)
#    0.000    1.143    0.000    4.286   16.000    3.429 
#    5.143    0.000    0.000    0.000    0.000    0.000 
#    0.000    0.000    0.000    0.000    0.000    0.000 
#
# Total GULP energy -156403.386041 kJ/mol
# GULP energy per Si atom -5585.835216 kJ/mol
# Density = 2.283953 g / cm^3
# Si number density = 22.891633 Si / 1000 Ang^3
#
#
#
# Elastic Constant Matrix: (Units=GPa)
#
#
# Indices 1 2 3 4 5 6 
#
# 1 133.0339 21.9599 12.5549 0.0000 0.0000 0.0000
# 2 21.9599 118.6043 51.9445 0.0000 0.0000 0.0000
# 3 12.5549 51.9445 106.8124 0.0000 0.0000 0.0000
# 4 0.0000 0.0000 0.0000 54.4584 0.0000 0.0000
# 5 0.0000 0.0000 0.0000 0.0000 32.3417 0.0000
# 6 0.0000 0.0000 0.0000 0.0000 0.0000 672.4740
#
#
#
# Elastic Compliance Matrix: (Units=1/GPa)
#
#
# Indices 1 2 3 4 5 6 
#
# 1 0.007760 -0.001318 -0.000271 0.000000 0.000000 0.000000
# 2 -0.001318 0.010937 -0.005164 0.000000 0.000000 0.000000
# 3 -0.000271 -0.005164 0.011905 0.000000 0.000000 0.000000
# 4 0.000000 0.000000 0.000000 0.018363 0.000000 0.000000
# 5 0.000000 0.000000 0.000000 0.000000 0.030920 0.000000
# 6 0.000000 0.000000 0.000000 0.000000 0.000000 0.001487
#
#
# Mechanical properties :
#
#
# Convention : Reuss Voigt Hill
#
# Bulk Modulus (GPa) = 58.49239 59.04102 58.76671
# Shear Modulus (GPa) = 49.71320 169.98759 109.85040
#
# Velocity S-wave (km/s) = 4.66518 8.62663 6.93479
# Velocity P-wave (km/s) = 7.39093 11.18358 9.47888
#
# Compressibility (1/GPa) = 0.01709624
#
# Stress axis : x y z
#
# Youngs Moduli (GPa) = 128.86535 91.43231 83.99569
#
# Poissons Ratio (x) = 0.12051 0.02277
# Poissons Ratio (y) = 0.16985 0.43375
# Poissons Ratio (z) = 0.03494 0.47215
#
# Static dielectric constant tensor:
#      x y z
#    x 1.902120 0.000000 0.000000 
#    y 0.000000 1.874130 0.000000 
#    z 0.000000 0.000000 2.027280 
# 
# From -- ./inp_files/10569.got.cif
#   From: 2010.05.17/outbox.cif.g08.bks.cpg/sg68_6_cif.got.tgz:10569.got - 2010.06.03 18:57:09.
