data_PCOD9509499
_publ_section_title
;
Structure prediction by ZEFSAII (Michael W. Deem and Ramdas Pophale) SiO2 
 PCOD9509499
Probable space group: C C C A
;
_chemical_formula_sum "Si O2"
_cell_formula_units_Z 96
_cell_length_a 30.109686
_cell_length_b 13.815572
_cell_length_c 11.022001
_cell_angle_alpha 90.000000
_cell_angle_beta 90.000000
_cell_angle_gamma 90.000000
_cell_volume 4584.959915
_symmetry_space_group_name_H-M "C C C A"
_symmetry_group_IT_number 68
_space_group.IT_coordinate_system_code '2'
_symmetry_cell_setting 'orthorhombic'
loop_
_space_group_symop_operation_xyz
x,y,z
-x,1/2-y,z
x,1/2-y,1/2-z
-x,y,1/2-z
-x,-y,-z
x,1/2+y,-z
-x,1/2+y,1/2+z
x,-y,1/2+z
1/2+x,1/2+y,z
1/2-x,-y,z
1/2+x,-y,1/2-z
1/2-x,1/2+y,1/2-z
1/2-x,1/2-y,-z
1/2+x,y,-z
1/2-x,y,1/2+z
1/2+x,1/2-y,1/2+z
loop_
_atom_site_type_symbol
_atom_site_label
_atom_site_fract_x
_atom_site_fract_y
_atom_site_fract_z
Si Si1 0.896155 0.750000 0.250000
Si Si2 0.914638 0.560409 0.849200
Si Si3 0.959823 0.688706 0.047234
Si Si4 0.500000 0.546615 0.750000
Si Si5 0.702609 0.722790 0.054223
Si Si6 0.823282 0.104657 0.218846
Si Si7 0.154375 0.409008 0.640114
O O1 0.927720 0.751426 0.133237
O O2 0.866115 0.654427 0.251198
O O3 0.876755 0.601525 0.758519
O O4 0.886514 0.473001 0.911173
O O5 0.957879 0.517160 0.786996
O O6 0.930680 0.636750 0.946964
O O7 0.983362 0.612808 0.138713
O O8 0.000000 0.750000 0.992107
O O9 0.703017 0.650068 0.169440
O O10 0.674741 0.666666 0.952626
O O11 0.750000 0.750000 0.000000
O O12 0.682563 0.822601 0.106146
O O13 0.812536 0.993482 0.185503
#
# Coordination Sequence:
#
# PCOD9509499 Si02
#       7
#     8  16  16   8  16  16  16
#     4  12  21  40  68  98 138 182 242 282 350 413
#     4  10  24  41  67  97 142 188 237 286 359 406
#     4  12  21  39  61  97 140 186 241 300 333 399
#     4  12  21  40  59 102 138 188 246 291 328 415
#     4  11  24  47  74 101 137 176 231 296 375 444
#     4   9  24  48  68 103 143 180 226 299 359 436
#     4  10  24  42  72 101 137 186 229 292 360 435
#
# _framework density 20.938025
#
# number of rings (size 3 to 8) (size 9 to 14) (size 15 to 20)
#    1.000    0.333    3.333    1.500    4.667    2.000 
#    6.000    3.333    0.000    0.000    0.000    0.000 
#    0.000    0.000    0.000    0.000    0.000    0.000 
#
# Total GULP energy -267788.864666 kJ/mol
# GULP energy per Si atom -5578.934681 kJ/mol
# Density = 2.089037 g / cm^3
# Si number density = 20.938025 Si / 1000 Ang^3
#
#
#
# Elastic Constant Matrix: (Units=GPa)
#
#
# Indices 1 2 3 4 5 6 
#
# 1 112.3181 43.9756 37.9359 0.0000 0.0000 0.0000
# 2 43.9756 103.1616 22.7134 0.0000 0.0000 0.0000
# 3 37.9359 22.7134 44.2592 0.0000 0.0000 0.0000
# 4 0.0000 0.0000 0.0000 18.2435 0.0000 0.0000
# 5 0.0000 0.0000 0.0000 0.0000 28.2892 0.0000
# 6 0.0000 0.0000 0.0000 0.0000 0.0000 6.4828
#
#
#
# Elastic Compliance Matrix: (Units=1/GPa)
#
#
# Indices 1 2 3 4 5 6 
#
# 1 0.013654 -0.003657 -0.009827 0.000000 0.000000 0.000000
# 2 -0.003657 0.011908 -0.002977 0.000000 0.000000 0.000000
# 3 -0.009827 -0.002977 0.032544 0.000000 0.000000 0.000000
# 4 0.000000 0.000000 0.000000 0.054814 0.000000 0.000000
# 5 0.000000 0.000000 0.000000 0.000000 0.035349 0.000000
# 6 0.000000 0.000000 0.000000 0.000000 0.000000 0.154255
#
#
# Mechanical properties :
#
#
# Convention : Reuss Voigt Hill
#
# Bulk Modulus (GPa) = 39.70438 52.10985 45.90712
# Shear Modulus (GPa) = 14.54167 20.94403 17.74285
#
# Velocity S-wave (km/s) = 2.63821 3.16616 2.91417
# Velocity P-wave (km/s) = 5.31829 6.18933 5.77027
#
# Compressibility (1/GPa) = 0.02518614
#
# Stress axis : x y z
#
# Youngs Moduli (GPa) = 73.23857 83.97906 30.72727
#
# Poissons Ratio (x) = 0.30710 0.30194
# Poissons Ratio (y) = 0.26782 0.09146
# Poissons Ratio (z) = 0.71969 0.24997
#
# Static dielectric constant tensor:
#      x y z
#    x 1.772590 0.000000 0.000000 
#    y 0.000000 1.786070 0.000000 
#    z 0.000000 0.000000 1.733640 
# 
# From -- ./inp_files/26490.got.cif
#   From: 2010.05.17/outbox.cif.g08.bks.cpg/sg68_14_cif.got.tgz:26490.got - 2010.06.03 18:57:09.
