data_PCOD9509467
_publ_section_title
;
Structure prediction by ZEFSAII (Michael W. Deem and Ramdas Pophale) SiO2 
 PCOD9509467
Probable space group: C C C A
;
_chemical_formula_sum "Si O2"
_cell_formula_units_Z 92
_cell_length_a 29.864286
_cell_length_b 9.195577
_cell_length_c 18.059159
_cell_angle_alpha 90.000000
_cell_angle_beta 90.000000
_cell_angle_gamma 90.000000
_cell_volume 4959.394352
_symmetry_space_group_name_H-M "C C C A"
_symmetry_group_IT_number 68
_space_group.IT_coordinate_system_code '2'
_symmetry_cell_setting 'orthorhombic'
loop_
_space_group_symop_operation_xyz
x,y,z
-x,1/2-y,z
x,1/2-y,1/2-z
-x,y,1/2-z
-x,-y,-z
x,1/2+y,-z
-x,1/2+y,1/2+z
x,-y,1/2+z
1/2+x,1/2+y,z
1/2-x,-y,z
1/2+x,-y,1/2-z
1/2-x,1/2+y,1/2-z
1/2-x,1/2-y,-z
1/2+x,y,-z
1/2-x,y,1/2+z
1/2+x,1/2-y,1/2+z
loop_
_atom_site_type_symbol
_atom_site_label
_atom_site_fract_x
_atom_site_fract_y
_atom_site_fract_z
Si Si1 0.219424 0.135524 0.043546
Si Si2 0.861242 0.037474 0.561163
Si Si3 0.500000 0.750000 0.250000
Si Si4 0.412975 0.159653 0.059154
Si Si5 0.155119 0.282775 0.162998
Si Si6 0.564470 0.608372 0.137134
Si Si7 0.500000 0.750000 0.017543
O O1 0.193039 0.208862 0.111677
O O2 0.250000 0.000000 0.067722
O O3 0.250000 0.250000 0.000000
O O4 0.182821 0.080947 0.984336
O O5 0.890538 0.183564 0.571833
O O6 0.886981 0.926141 0.506112
O O7 0.849093 0.950223 0.635907
O O8 0.532739 0.644747 0.205088
O O9 0.415319 0.051796 0.128762
O O10 0.463985 0.172407 0.033191
O O11 0.162360 0.250000 0.250000
O O12 0.107311 0.212773 0.141121
O O13 0.531939 0.650560 0.068753
#
# Coordination Sequence:
#
# PCOD9509467 Si02
#       7
#    16  16   4  16  16  16   8
#     4  12  23  43  75  98 127 168 224 278 334 419
#     4  12  22  42  68  99 129 175 220 275 340 403
#     4  10  24  40  64  86 140 194 238 262 358 396
#     4  12  21  36  67  96 131 168 233 280 324 390
#     4  12  25  46  68  97 138 177 216 278 354 401
#     4  11  22  39  65  91 132 183 223 277 333 405
#     4  11  20  33  62  97 128 161 230 284 325 374
#
# _framework density 18.550651999999999
#
# number of rings (size 3 to 8) (size 9 to 14) (size 15 to 20)
#    0.000    0.348    9.565    0.522    0.000    0.000 
#    3.130    0.870    0.000    0.000    0.000    0.000 
#    0.000    0.000    0.000    0.000    0.000    0.000 
#
# Total GULP energy -256739.304869 kJ/mol
# GULP energy per Si atom -5581.289236 kJ/mol
# Density = 1.850843 g / cm^3
# Si number density = 18.550652 Si / 1000 Ang^3
#
#
#
# Elastic Constant Matrix: (Units=GPa)
#
#
# Indices 1 2 3 4 5 6 
#
# 1 115.2754 41.0925 49.5942 0.0000 0.0000 0.0000
# 2 41.0925 133.6153 70.9749 0.0000 0.0000 0.0000
# 3 49.5942 70.9749 106.2515 0.0000 0.0000 0.0000
# 4 0.0000 0.0000 0.0000 9.9493 0.0000 0.0000
# 5 0.0000 0.0000 0.0000 0.0000 18.1157 0.0000
# 6 0.0000 0.0000 0.0000 0.0000 0.0000 45.1216
#
#
#
# Elastic Compliance Matrix: (Units=1/GPa)
#
#
# Indices 1 2 3 4 5 6 
#
# 1 0.010942 -0.001011 -0.004432 0.000000 0.000000 0.000000
# 2 -0.001011 0.011694 -0.007339 0.000000 0.000000 0.000000
# 3 -0.004432 -0.007339 0.016383 0.000000 0.000000 0.000000
# 4 0.000000 0.000000 0.000000 0.100510 0.000000 0.000000
# 5 0.000000 0.000000 0.000000 0.000000 0.055201 0.000000
# 6 0.000000 0.000000 0.000000 0.000000 0.000000 0.022162
#
#
# Mechanical properties :
#
#
# Convention : Reuss Voigt Hill
#
# Bulk Modulus (GPa) = 74.32745 75.38503 74.85624
# Shear Modulus (GPa) = 20.24774 27.53602 23.89188
#
# Velocity S-wave (km/s) = 3.30735 3.85693 3.59266
# Velocity P-wave (km/s) = 7.39858 7.78204 7.59273
#
# Compressibility (1/GPa) = 0.01345398
#
# Stress axis : x y z
#
# Youngs Moduli (GPa) = 91.39088 85.51634 61.03885
#
# Poissons Ratio (x) = 0.08645 0.27053
# Poissons Ratio (y) = 0.09239 0.44799
# Poissons Ratio (z) = 0.40505 0.62764
#
# Static dielectric constant tensor:
#      x y z
#    x 1.617320 0.000000 0.000000 
#    y 0.000000 1.740080 0.000000 
#    z 0.000000 0.000000 1.655730 
# 
# From -- ./inp_files/41265.got.cif
#   From: 2010.05.17/outbox.cif.g08.bks.cpg/sg68_21_cif.got.tgz:41265.got - 2010.06.03 18:57:09.
