data_PCOD9509504
_publ_section_title
;
Structure prediction by ZEFSAII (Michael W. Deem and Ramdas Pophale) SiO2 
 PCOD9509504
Probable space group: C C C A
;
_chemical_formula_sum "Si O2"
_cell_formula_units_Z 112
_cell_length_a 16.859227
_cell_length_b 11.257149
_cell_length_c 27.235138
_cell_angle_alpha 90.000000
_cell_angle_beta 90.000000
_cell_angle_gamma 90.000000
_cell_volume 5168.870516
_symmetry_space_group_name_H-M "C C C A"
_symmetry_group_IT_number 68
_space_group.IT_coordinate_system_code '2'
_symmetry_cell_setting 'orthorhombic'
loop_
_space_group_symop_operation_xyz
x,y,z
-x,1/2-y,z
x,1/2-y,1/2-z
-x,y,1/2-z
-x,-y,-z
x,1/2+y,-z
-x,1/2+y,1/2+z
x,-y,1/2+z
1/2+x,1/2+y,z
1/2-x,-y,z
1/2+x,-y,1/2-z
1/2-x,1/2+y,1/2-z
1/2-x,1/2-y,-z
1/2+x,y,-z
1/2-x,y,1/2+z
1/2+x,1/2-y,1/2+z
loop_
_atom_site_type_symbol
_atom_site_label
_atom_site_fract_x
_atom_site_fract_y
_atom_site_fract_z
Si Si1 0.247424 0.806446 0.424725
Si Si2 0.806954 0.609579 0.237654
Si Si3 0.124697 0.209165 0.642772
Si Si4 0.029451 0.999921 0.606894
Si Si5 0.675657 0.570842 0.059730
Si Si6 0.871129 0.997603 0.045894
Si Si7 0.549620 0.923386 0.699448
O O1 0.211215 0.753865 0.374483
O O2 0.285148 0.696350 0.453377
O O3 0.167107 0.869511 0.442866
O O4 0.315208 0.906656 0.426619
O O5 0.783263 0.750000 0.250000
O O6 0.750000 0.500000 0.227052
O O7 0.859572 0.627061 0.189470
O O8 0.862119 0.556418 0.280731
O O9 0.077107 0.125922 0.605175
O O10 0.069639 0.313893 0.663045
O O11 0.959225 0.993717 0.566981
O O12 0.991594 0.987229 0.661283
O O13 0.100307 0.909700 0.594370
O O14 0.750000 0.500000 0.082299
O O15 0.644049 0.497328 0.012502
O O16 0.500000 0.901212 0.750000
#
# Coordination Sequence:
#
# PCOD9509504 Si02
#       7
#    16  16  16  16  16  16  16
#     4  11  24  44  70  97 140 183 224 287 355 418
#     4  10  24  41  70 103 139 182 235 296 356 423
#     4  11  23  38  70 102 136 177 239 284 337 419
#     4  12  25  40  68 102 133 180 233 283 349 417
#     4  12  25  44  70 100 139 178 231 293 346 414
#     4  11  26  46  69  99 138 184 233 283 357 420
#     4  11  23  40  66  99 136 175 230 295 341 396
#
# _framework density 21.668175999999999
#
# number of rings (size 3 to 8) (size 9 to 14) (size 15 to 20)
#    0.000    0.857    5.714    1.286    6.000    2.857 
#    0.000    0.000    3.143    0.429    0.000    0.000 
#    0.000    0.000    0.000    0.000    0.000    0.000 
#
# Total GULP energy -311763.454527 kJ/mol
# GULP energy per Si atom -5567.204545 kJ/mol
# Density = 2.161886 g / cm^3
# Si number density = 21.668176 Si / 1000 Ang^3
#
#
#
# Elastic Constant Matrix: (Units=GPa)
#
#
# Indices 1 2 3 4 5 6 
#
# 1 92.6211 19.4057 25.5764 0.0000 0.0000 0.0000
# 2 19.4057 54.2293 0.6896 0.0000 0.0000 0.0000
# 3 25.5764 0.6896 77.8897 0.0000 0.0000 0.0000
# 4 0.0000 0.0000 0.0000 20.0808 0.0000 0.0000
# 5 0.0000 0.0000 0.0000 0.0000 50.3478 0.0000
# 6 0.0000 0.0000 0.0000 0.0000 0.0000 26.4259
#
#
#
# Elastic Compliance Matrix: (Units=1/GPa)
#
#
# Indices 1 2 3 4 5 6 
#
# 1 0.012913 -0.004568 -0.004200 0.000000 0.000000 0.000000
# 2 -0.004568 0.020058 0.001322 0.000000 0.000000 0.000000
# 3 -0.004200 0.001322 0.014206 0.000000 0.000000 0.000000
# 4 0.000000 0.000000 0.000000 0.049799 0.000000 0.000000
# 5 0.000000 0.000000 0.000000 0.000000 0.019862 0.000000
# 6 0.000000 0.000000 0.000000 0.000000 0.000000 0.037842
#
#
# Mechanical properties :
#
#
# Convention : Reuss Voigt Hill
#
# Bulk Modulus (GPa) = 30.97228 35.12037 33.04633
# Shear Modulus (GPa) = 27.72659 31.30881 29.51770
#
# Velocity S-wave (km/s) = 3.58103 3.80534 3.69489
# Velocity P-wave (km/s) = 5.60565 5.96246 5.78680
#
# Compressibility (1/GPa) = 0.03228693
#
# Stress axis : x y z
#
# Youngs Moduli (GPa) = 77.43886 49.85572 70.39245
#
# Poissons Ratio (x) = 0.22772 0.29564
# Poissons Ratio (y) = 0.35371 -0.09308
# Poissons Ratio (z) = 0.32524 -0.06592
#
# Static dielectric constant tensor:
#      x y z
#    x 1.843750 0.000000 0.000000 
#    y 0.000000 1.902960 0.000000 
#    z 0.000000 0.000000 1.884310 
# 
# From -- ./inp_files/55250.got.cif
#   From: 2010.05.17/outbox.cif.g08.bks.cpg/sg68_28_cif.got.tgz:55250.got - 2010.06.03 18:57:09.
