data_PCOD9509866
_publ_section_title
;
Structure prediction by ZEFSAII (Michael W. Deem and Ramdas Pophale) SiO2 
 PCOD9509866
Probable space group: C C C A
;
_chemical_formula_sum "Si O2"
_cell_formula_units_Z 52
_cell_length_a 24.572380
_cell_length_b 5.389152
_cell_length_c 17.583501
_cell_angle_alpha 90.000000
_cell_angle_beta 90.000000
_cell_angle_gamma 90.000000
_cell_volume 2328.482650
_symmetry_space_group_name_H-M "C C C A"
_symmetry_group_IT_number 68
_space_group.IT_coordinate_system_code '2'
_symmetry_cell_setting 'orthorhombic'
loop_
_space_group_symop_operation_xyz
x,y,z
-x,1/2-y,z
x,1/2-y,1/2-z
-x,y,1/2-z
-x,-y,-z
x,1/2+y,-z
-x,1/2+y,1/2+z
x,-y,1/2+z
1/2+x,1/2+y,z
1/2-x,-y,z
1/2+x,-y,1/2-z
1/2-x,1/2+y,1/2-z
1/2-x,1/2-y,-z
1/2+x,y,-z
1/2-x,y,1/2+z
1/2+x,1/2-y,1/2+z
loop_
_atom_site_type_symbol
_atom_site_label
_atom_site_fract_x
_atom_site_fract_y
_atom_site_fract_z
Si Si1 0.681394 0.750000 0.750000
Si Si2 0.142901 0.669297 0.954720
Si Si3 0.412715 0.078534 0.814150
Si Si4 0.000000 0.250000 0.750000
Si Si5 0.250000 0.500000 0.379711
O O1 0.642781 0.530872 0.779049
O O2 0.716424 0.673053 0.677685
O O3 0.103906 0.761092 0.886816
O O4 0.205902 0.657443 0.927123
O O5 0.134283 0.386428 0.982862
O O6 0.437787 0.250000 0.750000
O O7 0.457017 0.863561 0.812099
#
# Coordination Sequence:
#
# PCOD9509866 Si02
#       5
#     8  16  16   4   8
#     4  11  22  39  70 104 142 189 254 307 346 404
#     4  12  27  45  69 107 157 199 238 295 364 439
#     4  11  23  48  72 104 136 185 246 314 364 435
#     4  10  26  44  88  98 128 180 264 310 386 426
#     4  12  22  42  68 106 150 208 246 290 350 440
#
# _framework density 22.332138
#
# number of rings (size 3 to 8) (size 9 to 14) (size 15 to 20)
#    0.000    0.615    3.077    5.077    4.308    2.462 
#    0.000    1.538    0.000    0.000    0.000    0.000 
#    0.000    0.000    0.000    0.000    0.000    0.000 
#
# Total GULP energy -145089.560192 kJ/mol
# GULP energy per Si atom -5580.367700 kJ/mol
# Density = 2.228131 g / cm^3
# Si number density = 22.332138 Si / 1000 Ang^3
#
#
#
# Elastic Constant Matrix: (Units=GPa)
#
#
# Indices 1 2 3 4 5 6 
#
# 1 91.9478 9.2027 21.8992 0.0000 0.0000 0.0000
# 2 9.2027 55.9489 7.4062 0.0000 0.0000 0.0000
# 3 21.8992 7.4062 71.0272 0.0000 0.0000 0.0000
# 4 0.0000 0.0000 0.0000 41.4264 0.0000 0.0000
# 5 0.0000 0.0000 0.0000 0.0000 2.1916 0.0000
# 6 0.0000 0.0000 0.0000 0.0000 0.0000 5.6857
#
#
#
# Elastic Compliance Matrix: (Units=1/GPa)
#
#
# Indices 1 2 3 4 5 6 
#
# 1 0.011858 -0.001487 -0.003501 0.000000 0.000000 0.000000
# 2 -0.001487 0.018310 -0.001451 0.000000 0.000000 0.000000
# 3 -0.003501 -0.001451 0.015310 0.000000 0.000000 0.000000
# 4 0.000000 0.000000 0.000000 0.024139 0.000000 0.000000
# 5 0.000000 0.000000 0.000000 0.000000 0.456287 0.000000
# 6 0.000000 0.000000 0.000000 0.000000 0.000000 0.175879
#
#
# Mechanical properties :
#
#
# Convention : Reuss Voigt Hill
#
# Bulk Modulus (GPa) = 30.67441 32.88224 31.77832
# Shear Modulus (GPa) = 6.89153 21.88847 14.39000
#
# Velocity S-wave (km/s) = 1.75859 3.13410 2.54118
# Velocity P-wave (km/s) = 4.22952 5.27759 4.78235
#
# Compressibility (1/GPa) = 0.03260047
#
# Stress axis : x y z
#
# Youngs Moduli (GPa) = 84.32816 54.61471 65.31730
#
# Poissons Ratio (x) = 0.08122 0.22869
# Poissons Ratio (y) = 0.12540 0.09476
# Poissons Ratio (z) = 0.29525 0.07923
#
# Static dielectric constant tensor:
#      x y z
#    x 1.863590 0.000000 0.000000 
#    y 0.000000 1.851840 0.000000 
#    z 0.000000 0.000000 1.844680 
# 
# From -- ./inp_files/26961.got.cif
#   From: 2010.05.17/outbox.cif.g08.bks.cpg/sg68_14_cif.got.tgz:26961.got - 2010.06.03 18:57:09.
