data_PCOD9509860
_publ_section_title
;
Structure prediction by ZEFSAII (Michael W. Deem and Ramdas Pophale) SiO2 
 PCOD9509860
Probable space group: C C C A
;
_chemical_formula_sum "Si O2"
_cell_formula_units_Z 92
_cell_length_a 12.573469
_cell_length_b 17.677947
_cell_length_c 18.340030
_cell_angle_alpha 90.000000
_cell_angle_beta 90.000000
_cell_angle_gamma 90.000000
_cell_volume 4076.495663
_symmetry_space_group_name_H-M "C C C A"
_symmetry_group_IT_number 68
_space_group.IT_coordinate_system_code '2'
_symmetry_cell_setting 'orthorhombic'
loop_
_space_group_symop_operation_xyz
x,y,z
-x,1/2-y,z
x,1/2-y,1/2-z
-x,y,1/2-z
-x,-y,-z
x,1/2+y,-z
-x,1/2+y,1/2+z
x,-y,1/2+z
1/2+x,1/2+y,z
1/2-x,-y,z
1/2+x,-y,1/2-z
1/2-x,1/2+y,1/2-z
1/2-x,1/2-y,-z
1/2+x,y,-z
1/2-x,y,1/2+z
1/2+x,1/2-y,1/2+z
loop_
_atom_site_type_symbol
_atom_site_label
_atom_site_fract_x
_atom_site_fract_y
_atom_site_fract_z
Si Si1 0.025792 0.114434 0.067978
Si Si2 0.500000 0.250000 0.750000
Si Si3 0.830977 0.845321 0.665347
Si Si4 0.985493 0.478473 0.835114
Si Si5 0.735466 0.713309 0.079187
Si Si6 0.037326 0.337779 0.910505
Si Si7 0.750000 0.500000 0.322721
O O1 0.120262 0.173528 0.088351
O O2 0.906147 0.134521 0.095550
O O3 0.047422 0.035481 0.110392
O O4 0.016377 0.121570 0.980862
O O5 0.419748 0.306568 0.712530
O O6 0.752145 0.780992 0.637466
O O7 0.778008 0.916013 0.706828
O O8 0.011566 0.390877 0.842826
O O9 0.000000 0.501781 0.750000
O O10 0.862362 0.484281 0.859855
O O11 0.835196 0.658679 0.084936
O O12 0.750000 0.750000 0.000000
O O13 0.000000 0.250000 0.909322
#
# Coordination Sequence:
#
# PCOD9509860 Si02
#       7
#    16   4  16  16  16  16   8
#     4  11  23  43  69 101 140 185 246 307 360 442
#     4  12  24  40  80 104 142 190 262 316 360 452
#     4  11  23  44  68 107 138 193 246 306 362 449
#     4  11  28  47  68 103 146 193 247 305 372 458
#     4  12  22  40  73 104 143 181 242 304 373 429
#     4  12  24  43  71 103 144 185 242 304 373 449
#     4  10  26  44  70  90 146 186 236 290 384 416
#
# _framework density 22.568403
#
# number of rings (size 3 to 8) (size 9 to 14) (size 15 to 20)
#    0.000    0.696    5.217    1.565    4.870    3.826 
#    0.000    0.000    0.000    0.000    0.000    0.000 
#    0.000    0.000    0.000    0.000    0.000    0.000 
#
# Total GULP energy -256132.105752 kJ/mol
# GULP energy per Si atom -5568.089255 kJ/mol
# Density = 2.251704 g / cm^3
# Si number density = 22.568403 Si / 1000 Ang^3
#
#
#
# Elastic Constant Matrix: (Units=GPa)
#
#
# Indices 1 2 3 4 5 6 
#
# 1 92.6028 33.9208 8.9507 0.0000 0.0000 0.0000
# 2 33.9208 136.2353 62.4036 0.0000 0.0000 0.0000
# 3 8.9507 62.4036 64.4499 0.0000 0.0000 0.0000
# 4 0.0000 0.0000 0.0000 -141.7921 0.0000 0.0000
# 5 0.0000 0.0000 0.0000 0.0000 18.5096 0.0000
# 6 0.0000 0.0000 0.0000 0.0000 0.0000 52.4284
#
#
#
# Elastic Compliance Matrix: (Units=1/GPa)
#
#
# Indices 1 2 3 4 5 6 
#
# 1 0.012056 -0.004016 0.002214 0.000000 0.000000 0.000000
# 2 -0.004016 0.014528 -0.013509 0.000000 0.000000 0.000000
# 3 0.002214 -0.013509 0.028289 0.000000 0.000000 0.000000
# 4 0.000000 0.000000 0.000000 -0.007053 0.000000 0.000000
# 5 0.000000 0.000000 0.000000 0.000000 0.054026 0.000000
# 6 0.000000 0.000000 0.000000 0.000000 0.000000 0.019074
#
#
# Mechanical properties :
#
#
# Convention : Reuss Voigt Hill
#
# Bulk Modulus (GPa) = 41.23584 55.98204 48.60894
# Shear Modulus (GPa) = 31.32339 -1.63664 14.84338
#
# Velocity S-wave (km/s) = 3.72954 -0.85250 2.56736
# Velocity P-wave (km/s) = 6.07100 4.88777 5.51123
#
# Compressibility (1/GPa) = 0.02425075
#
# Stress axis : x y z
#
# Youngs Moduli (GPa) = 82.94723 68.83207 35.34991
#
# Poissons Ratio (x) = 0.27643 -0.07827
# Poissons Ratio (y) = 0.33311 0.47755
# Poissons Ratio (z) = -0.18366 0.92986
#
# Static dielectric constant tensor:
#      x y z
#    x 1.809210 0.000000 0.000000 
#    y 0.000000 1.933480 0.000000 
#    z 0.000000 0.000000 1.911270 
# 
# From -- ./inp_files/37512.got.cif
#   From: 2010.05.17/outbox.cif.g08.bks.cpg/sg68_19_cif.got.tgz:37512.got - 2010.06.03 18:57:09.
