data_PCOD9509181
_publ_section_title
;
Structure prediction by ZEFSAII (Michael W. Deem and Ramdas Pophale) SiO2 
 PCOD9509181
Probable space group: C C C A
;
_chemical_formula_sum "Si O2"
_cell_formula_units_Z 80
_cell_length_a 9.980223
_cell_length_b 25.429275
_cell_length_c 15.831835
_cell_angle_alpha 90.000000
_cell_angle_beta 90.000000
_cell_angle_gamma 90.000000
_cell_volume 4017.958796
_symmetry_space_group_name_H-M "C C C A"
_symmetry_group_IT_number 68
_space_group.IT_coordinate_system_code '2'
_symmetry_cell_setting 'orthorhombic'
loop_
_space_group_symop_operation_xyz
x,y,z
-x,1/2-y,z
x,1/2-y,1/2-z
-x,y,1/2-z
-x,-y,-z
x,1/2+y,-z
-x,1/2+y,1/2+z
x,-y,1/2+z
1/2+x,1/2+y,z
1/2-x,-y,z
1/2+x,-y,1/2-z
1/2-x,1/2+y,1/2-z
1/2-x,1/2-y,-z
1/2+x,y,-z
1/2-x,y,1/2+z
1/2+x,1/2-y,1/2+z
loop_
_atom_site_type_symbol
_atom_site_label
_atom_site_fract_x
_atom_site_fract_y
_atom_site_fract_z
Si Si1 0.696260 0.105754 0.043404
Si Si2 0.889326 0.477655 0.817138
Si Si3 0.274565 0.250000 0.750000
Si Si4 0.647271 0.728179 0.930320
Si Si5 0.500000 0.661241 0.250000
Si Si6 0.483745 0.082904 0.907931
O O1 0.652770 0.069207 0.121467
O O2 0.654889 0.165334 0.062093
O O3 0.856165 0.099994 0.035721
O O4 0.617924 0.085541 0.961787
O O5 0.750000 0.500000 0.778380
O O6 0.952628 0.525449 0.871056
O O7 0.000000 0.461217 0.750000
O O8 0.190528 0.245448 0.836084
O O9 0.371344 0.300830 0.754544
O O10 0.500000 0.750000 0.949069
O O11 0.750000 0.750000 0.000000
O O12 0.491399 0.624027 0.168746
#
# Coordination Sequence:
#
# PCOD9509181 Si02
#       6
#    16  16   8  16   8  16
#     4  11  24  42  65  97 133 169 223 275 329 392
#     4  10  23  41  65  97 133 169 223 270 334 400
#     4  11  25  42  66  98 132 176 218 278 332 394
#     4  12  26  44  66  98 134 176 226 275 333 401
#     4  11  22  42  72  92 132 172 221 264 338 396
#     4  11  22  44  67  98 129 175 217 274 334 401
#
# _framework density 19.910606999999999
#
# number of rings (size 3 to 8) (size 9 to 14) (size 15 to 20)
#    0.000    1.000    3.000    3.300    2.800    3.200 
#    0.000    0.000    0.000    0.000    0.000    0.000 
#    0.000    0.000    0.000    0.000    0.000    0.000 
#
# Total GULP energy -223809.352527 kJ/mol
# GULP energy per Si atom -5595.233813 kJ/mol
# Density = 1.986529 g / cm^3
# Si number density = 19.910607 Si / 1000 Ang^3
#
#
#
# Elastic Constant Matrix: (Units=GPa)
#
#
# Indices 1 2 3 4 5 6 
#
# 1 112.3178 11.5452 51.4263 0.0000 0.0000 0.0000
# 2 11.5452 93.8455 3.6851 0.0000 0.0000 0.0000
# 3 51.4263 3.6851 74.4936 0.0000 0.0000 0.0000
# 4 0.0000 0.0000 0.0000 9.8598 0.0000 0.0000
# 5 0.0000 0.0000 0.0000 0.0000 27.1307 0.0000
# 6 0.0000 0.0000 0.0000 0.0000 0.0000 26.9131
#
#
#
# Elastic Compliance Matrix: (Units=1/GPa)
#
#
# Indices 1 2 3 4 5 6 
#
# 1 0.013166 -0.001265 -0.009027 0.000000 0.000000 0.000000
# 2 -0.001265 0.010798 0.000339 0.000000 0.000000 0.000000
# 3 -0.009027 0.000339 0.019639 0.000000 0.000000 0.000000
# 4 0.000000 0.000000 0.000000 0.101422 0.000000 0.000000
# 5 0.000000 0.000000 0.000000 0.000000 0.036859 0.000000
# 6 0.000000 0.000000 0.000000 0.000000 0.000000 0.037157
#
#
# Mechanical properties :
#
#
# Convention : Reuss Voigt Hill
#
# Bulk Modulus (GPa) = 42.19796 45.99667 44.09731
# Shear Modulus (GPa) = 20.25557 27.04741 23.65149
#
# Velocity S-wave (km/s) = 3.19301 3.68970 3.45031
# Velocity P-wave (km/s) = 5.90199 6.42679 6.16997
#
# Compressibility (1/GPa) = 0.02369783
#
# Stress axis : x y z
#
# Youngs Moduli (GPa) = 75.95097 92.60841 50.91974
#
# Poissons Ratio (x) = 0.11718 0.45964
# Poissons Ratio (y) = 0.09610 -0.01728
# Poissons Ratio (z) = 0.68559 -0.03143
#
# Static dielectric constant tensor:
#      x y z
#    x 1.617640 0.000000 0.000000 
#    y 0.000000 1.673540 0.000000 
#    z 0.000000 0.000000 1.669720 
# 
# From -- ./inp_files/20914.got.cif
#   From: 2010.05.17/outbox.cif.g08.bks.cpg/sg68_11_cif.got.tgz:20914.got - 2010.06.03 18:57:09.
