data_PCOD9509307
_publ_section_title
;
Structure prediction by ZEFSAII (Michael W. Deem and Ramdas Pophale) SiO2 
 PCOD9509307
Probable space group: C C C A
;
_chemical_formula_sum "Si O2"
_cell_formula_units_Z 52
_cell_length_a 5.045222
_cell_length_b 20.855210
_cell_length_c 19.954826
_cell_angle_alpha 90.000000
_cell_angle_beta 90.000000
_cell_angle_gamma 90.000000
_cell_volume 2099.630116
_symmetry_space_group_name_H-M "C C C A"
_symmetry_group_IT_number 68
_space_group.IT_coordinate_system_code '2'
_symmetry_cell_setting 'orthorhombic'
loop_
_space_group_symop_operation_xyz
x,y,z
-x,1/2-y,z
x,1/2-y,1/2-z
-x,y,1/2-z
-x,-y,-z
x,1/2+y,-z
-x,1/2+y,1/2+z
x,-y,1/2+z
1/2+x,1/2+y,z
1/2-x,-y,z
1/2+x,-y,1/2-z
1/2-x,1/2+y,1/2-z
1/2-x,1/2-y,-z
1/2+x,y,-z
1/2-x,y,1/2+z
1/2+x,1/2-y,1/2+z
loop_
_atom_site_type_symbol
_atom_site_label
_atom_site_fract_x
_atom_site_fract_y
_atom_site_fract_z
Si Si1 0.372212 0.435723 0.951843
Si Si2 0.500000 0.750000 0.951616
Si Si3 0.177489 0.845762 0.152243
Si Si4 0.500000 0.750000 0.250000
Si Si5 0.500000 0.546422 0.750000
O O1 0.250000 0.500000 0.917161
O O2 0.381718 0.380648 0.897055
O O3 0.653376 0.432515 0.988752
O O4 0.506516 0.691112 0.900238
O O5 0.250000 0.750000 0.000000
O O6 0.317880 0.796271 0.203463
O O7 0.031430 0.903177 0.189649
O O8 0.750000 0.500000 0.757855
#
# Coordination Sequence:
#
# PCOD9509307 Si02
#       5
#    16   8  16   4   8
#     4  10  23  43  71 104 139 183 235 302 376 443
#     4  12  27  47  78 113 151 206 260 322 396 466
#     4  12  26  49  74 108 154 195 256 317 377 464
#     4  12  28  50  80 114 156 222 264 318 396 466
#     4  12  29  49  78 113 151 208 262 322 396 466
#
# _framework density 24.766269000000001
#
# number of rings (size 3 to 8) (size 9 to 14) (size 15 to 20)
#    0.000    0.615    0.000    6.462    0.000   13.538 
#    0.000    0.000    0.000    0.000    0.000    0.000 
#    0.000    0.000    0.000    0.000    0.000    0.000 
#
# Total GULP energy -145549.470322 kJ/mol
# GULP energy per Si atom -5598.056551 kJ/mol
# Density = 2.470990 g / cm^3
# Si number density = 24.766269 Si / 1000 Ang^3
#
#
#
# Elastic Constant Matrix: (Units=GPa)
#
#
# Indices 1 2 3 4 5 6 
#
# 1 160.0913 76.3909 74.6742 0.0000 0.0000 0.0000
# 2 76.3909 195.3997 114.3406 0.0000 0.0000 0.0000
# 3 74.6742 114.3406 161.4981 0.0000 0.0000 0.0000
# 4 0.0000 0.0000 0.0000 52.8764 0.0000 0.0000
# 5 0.0000 0.0000 0.0000 0.0000 1.8397 0.0000
# 6 0.0000 0.0000 0.0000 0.0000 0.0000 29.2619
#
#
#
# Elastic Compliance Matrix: (Units=1/GPa)
#
#
# Indices 1 2 3 4 5 6 
#
# 1 0.008283 -0.001702 -0.002625 0.000000 0.000000 0.000000
# 2 -0.001702 0.009088 -0.005647 0.000000 0.000000 0.000000
# 3 -0.002625 -0.005647 0.011404 0.000000 0.000000 0.000000
# 4 0.000000 0.000000 0.000000 0.018912 0.000000 0.000000
# 5 0.000000 0.000000 0.000000 0.000000 0.543573 0.000000
# 6 0.000000 0.000000 0.000000 0.000000 0.000000 0.034174
#
#
# Mechanical properties :
#
#
# Convention : Reuss Voigt Hill
#
# Bulk Modulus (GPa) = 113.29615 116.42230 114.85923
# Shear Modulus (GPa) = 7.71221 33.56783 20.64002
#
# Velocity S-wave (km/s) = 1.76657 3.68555 2.88999
# Velocity P-wave (km/s) = 7.07153 8.07598 7.59039
#
# Compressibility (1/GPa) = 0.00882642
#
# Stress axis : x y z
#
# Youngs Moduli (GPa) = 120.72889 110.04031 87.69158
#
# Poissons Ratio (x) = 0.18733 0.23016
# Poissons Ratio (y) = 0.20552 0.49518
# Poissons Ratio (z) = 0.31687 0.62138
#
# Static dielectric constant tensor:
#      x y z
#    x 2.094070 0.000000 0.000000 
#    y 0.000000 2.170930 0.000000 
#    z 0.000000 0.000000 1.969500 
# 
# From -- ./inp_files/34855.got.cif
#   From: 2010.05.17/outbox.cif.g08.bks.cpg/sg68_18_cif.got.tgz:34855.got - 2010.06.03 18:57:09.
