data_PCOD9509817
_publ_section_title
;
Structure prediction by ZEFSAII (Michael W. Deem and Ramdas Pophale) SiO2 
 PCOD9509817
Probable space group: C C C A
;
_chemical_formula_sum "Si O2"
_cell_formula_units_Z 32
_cell_length_a 8.113595
_cell_length_b 5.027997
_cell_length_c 31.140134
_cell_angle_alpha 90.000000
_cell_angle_beta 90.000000
_cell_angle_gamma 90.000000
_cell_volume 1270.365856
_symmetry_space_group_name_H-M "C C C A"
_symmetry_group_IT_number 68
_space_group.IT_coordinate_system_code '2'
_symmetry_cell_setting 'orthorhombic'
loop_
_space_group_symop_operation_xyz
x,y,z
-x,1/2-y,z
x,1/2-y,1/2-z
-x,y,1/2-z
-x,-y,-z
x,1/2+y,-z
-x,1/2+y,1/2+z
x,-y,1/2+z
1/2+x,1/2+y,z
1/2-x,-y,z
1/2+x,-y,1/2-z
1/2-x,1/2+y,1/2-z
1/2-x,1/2-y,-z
1/2+x,y,-z
1/2-x,y,1/2+z
1/2+x,1/2-y,1/2+z
loop_
_atom_site_type_symbol
_atom_site_label
_atom_site_fract_x
_atom_site_fract_y
_atom_site_fract_z
Si Si1 0.250000 0.000000 0.408021
Si Si2 0.500000 0.750000 0.030899
Si Si3 0.250000 0.500000 0.780026
Si Si4 0.000000 0.750000 0.844955
O O1 0.331241 0.783057 0.440886
O O2 0.400709 0.964286 0.374162
O O3 0.500000 0.500000 0.000000
O O4 0.209975 0.250000 0.750000
O O5 0.109672 0.583482 0.812719
#
# Coordination Sequence:
#
# PCOD9509817 Si02
#       4
#     8   8   8   8
#     4  10  25  46  75 110 150 198 250 312 379 450
#     4  11  24  46  73 108 149 198 251 310 375 450
#     4  12  29  52  79 112 152 202 254 314 381 456
#     4  11  27  48  75 112 152 196 252 314 379 454
#
# _framework density 25.189594
#
# number of rings (size 3 to 8) (size 9 to 14) (size 15 to 20)
#    0.000    1.000    0.000    3.750    0.000   22.000 
#    0.000    0.000    0.000    0.000    0.000    0.000 
#    0.000    0.000    0.000    0.000    0.000    0.000 
#
# Total GULP energy -89136.081791 kJ/mol
# GULP energy per Si atom -5571.005112 kJ/mol
# Density = 2.513226 g / cm^3
# Si number density = 25.189594 Si / 1000 Ang^3
#
#
#
# Elastic Constant Matrix: (Units=GPa)
#
#
# Indices 1 2 3 4 5 6 
#
# 1 171.7761 100.2905 109.2130 0.0000 0.0000 0.0000
# 2 100.2905 192.4172 112.8731 0.0000 0.0000 0.0000
# 3 109.2130 112.8731 214.4358 0.0000 0.0000 0.0000
# 4 0.0000 0.0000 0.0000 -60.6451 0.0000 0.0000
# 5 0.0000 0.0000 0.0000 0.0000 57.1648 0.0000
# 6 0.0000 0.0000 0.0000 0.0000 0.0000 57.1714
#
#
#
# Elastic Compliance Matrix: (Units=1/GPa)
#
#
# Indices 1 2 3 4 5 6 
#
# 1 0.009768 -0.003143 -0.003320 0.000000 0.000000 0.000000
# 2 -0.003143 0.008530 -0.002889 0.000000 0.000000 0.000000
# 3 -0.003320 -0.002889 0.007875 0.000000 0.000000 0.000000
# 4 0.000000 0.000000 0.000000 -0.016489 0.000000 0.000000
# 5 0.000000 0.000000 0.000000 0.000000 0.017493 0.000000
# 6 0.000000 0.000000 0.000000 0.000000 0.000000 0.017491
#
#
# Mechanical properties :
#
#
# Convention : Reuss Voigt Hill
#
# Bulk Modulus (GPa) = 133.91029 135.93136 134.92083
# Shear Modulus (GPa) = 75.91554 27.82174 51.86864
#
# Velocity S-wave (km/s) = 5.49573 3.32700 4.54269
# Velocity P-wave (km/s) = 9.67198 8.29693 9.01072
#
# Compressibility (1/GPa) = 0.00746769
#
# Stress axis : x y z
#
# Youngs Moduli (GPa) = 102.37826 117.23034 126.98298
#
# Poissons Ratio (x) = 0.36851 0.42160
# Poissons Ratio (y) = 0.32182 0.36686
# Poissons Ratio (z) = 0.33991 0.33869
#
# Static dielectric constant tensor:
#      x y z
#    x 1.971980 0.000000 0.000000 
#    y 0.000000 1.907330 0.000000 
#    z 0.000000 0.000000 1.966000 
# 
# From -- ./inp_files/52532.got.cif
#   From: 2010.05.17/outbox.cif.g08.bks.cpg/sg68_27_cif.got.tgz:52532.got - 2010.06.03 18:57:09.
