data_PCOD9509998
_publ_section_title
;
Structure prediction by ZEFSAII (Michael W. Deem and Ramdas Pophale) SiO2 
 PCOD9509998
Probable space group: C C C A
;
_chemical_formula_sum "Si O2"
_cell_formula_units_Z 100
_cell_length_a 11.696039
_cell_length_b 28.250701
_cell_length_c 14.021214
_cell_angle_alpha 90.000000
_cell_angle_beta 90.000000
_cell_angle_gamma 90.000000
_cell_volume 4632.907767
_symmetry_space_group_name_H-M "C C C A"
_symmetry_group_IT_number 68
_space_group.IT_coordinate_system_code '2'
_symmetry_cell_setting 'orthorhombic'
loop_
_space_group_symop_operation_xyz
x,y,z
-x,1/2-y,z
x,1/2-y,1/2-z
-x,y,1/2-z
-x,-y,-z
x,1/2+y,-z
-x,1/2+y,1/2+z
x,-y,1/2+z
1/2+x,1/2+y,z
1/2-x,-y,z
1/2+x,-y,1/2-z
1/2-x,1/2+y,1/2-z
1/2-x,1/2-y,-z
1/2+x,y,-z
1/2-x,y,1/2+z
1/2+x,1/2-y,1/2+z
loop_
_atom_site_type_symbol
_atom_site_label
_atom_site_fract_x
_atom_site_fract_y
_atom_site_fract_z
Si Si1 0.000000 0.250000 0.750000
Si Si2 0.938806 0.950022 0.995335
Si Si3 0.381334 0.064562 0.704983
Si Si4 0.923868 0.323341 0.165370
Si Si5 0.167237 0.325483 0.827318
Si Si6 0.399993 0.362231 0.531522
Si Si7 0.796693 0.599765 0.337671
O O1 0.079913 0.283428 0.812093
O O2 0.036445 0.912361 0.968656
O O3 0.857833 0.952661 0.901884
O O4 0.878004 0.928126 0.088687
O O5 0.000000 0.000000 0.000000
O O6 0.500000 0.045332 0.750000
O O7 0.399914 0.121283 0.692060
O O8 0.277223 0.061675 0.777862
O O9 0.795790 0.304556 0.163250
O O10 0.000000 0.303201 0.250000
O O11 0.005013 0.325846 0.072845
O O12 0.153424 0.363460 0.740544
O O13 0.140613 0.350746 0.926462
O O14 0.291724 0.368481 0.600487
#
# Coordination Sequence:
#
# PCOD9509998 Si02
#       7
#     4  16  16  16  16  16  16
#     4  12  28  48  62 104 154 168 212 290 348 416
#     4  11  24  39  59  97 142 178 230 287 344 408
#     4   9  16  38  63  87 123 167 225 284 323 387
#     4   9  16  38  72  95 122 171 232 273 324 405
#     4  11  24  43  70  98 136 183 225 280 347 422
#     4  11  20  41  69  99 129 178 239 277 335 422
#     4  11  20  41  72  93 127 184 230 277 347 401
#
# _framework density 21.584716
#
# number of rings (size 3 to 8) (size 9 to 14) (size 15 to 20)
#    0.000    1.600    6.400    3.840    0.000    0.640 
#    2.880    3.600    0.000    0.000    0.000    0.000 
#    0.000    0.000    0.000    0.000    0.000    0.000 
#
# Total GULP energy -279117.430929 kJ/mol
# GULP energy per Si atom -5582.348619 kJ/mol
# Density = 2.153559 g / cm^3
# Si number density = 21.584716 Si / 1000 Ang^3
#
#
#
# Elastic Constant Matrix: (Units=GPa)
#
#
# Indices 1 2 3 4 5 6 
#
# 1 109.3115 41.1926 54.1141 0.0000 0.0000 0.0000
# 2 41.1926 56.8714 46.3340 0.0000 0.0000 0.0000
# 3 54.1141 46.3340 171.9162 0.0000 0.0000 0.0000
# 4 0.0000 0.0000 0.0000 27.4460 0.0000 0.0000
# 5 0.0000 0.0000 0.0000 0.0000 46.6351 0.0000
# 6 0.0000 0.0000 0.0000 0.0000 0.0000 5.7426
#
#
#
# Elastic Compliance Matrix: (Units=1/GPa)
#
#
# Indices 1 2 3 4 5 6 
#
# 1 0.013102 -0.007854 -0.002007 0.000000 0.000000 0.000000
# 2 -0.007854 0.027240 -0.004869 0.000000 0.000000 0.000000
# 3 -0.002007 -0.004869 0.007761 0.000000 0.000000 0.000000
# 4 0.000000 0.000000 0.000000 0.036435 0.000000 0.000000
# 5 0.000000 0.000000 0.000000 0.000000 0.021443 0.000000
# 6 0.000000 0.000000 0.000000 0.000000 0.000000 0.174136
#
#
# Mechanical properties :
#
#
# Convention : Reuss Voigt Hill
#
# Bulk Modulus (GPa) = 53.64609 69.04228 61.34419
# Shear Modulus (GPa) = 15.83325 29.06197 22.44761
#
# Velocity S-wave (km/s) = 2.71133 3.67333 3.22837
# Velocity P-wave (km/s) = 5.89147 7.07441 6.50987
#
# Compressibility (1/GPa) = 0.01864069
#
# Stress axis : x y z
#
# Youngs Moduli (GPa) = 76.32647 36.71135 128.85151
#
# Poissons Ratio (x) = 0.28835 0.25862
# Poissons Ratio (y) = 0.59950 0.62740
# Poissons Ratio (z) = 0.15320 0.17875
#
# Static dielectric constant tensor:
#      x y z
#    x 1.891720 0.000000 0.000000 
#    y 0.000000 1.788030 0.000000 
#    z 0.000000 0.000000 1.822890 
# 
# From -- ./inp_files/21204.got.cif
#   From: 2010.05.17/outbox.cif.g08.bks.cpg/sg68_11_cif.got.tgz:21204.got - 2010.06.03 18:57:09.
