data_PCOD9509233
_publ_section_title
;
Structure prediction by ZEFSAII (Michael W. Deem and Ramdas Pophale) SiO2 
 PCOD9509233
Probable space group: C C C A
;
_chemical_formula_sum "Si O2"
_cell_formula_units_Z 56
_cell_length_a 4.837766
_cell_length_b 21.855344
_cell_length_c 21.476450
_cell_angle_alpha 90.000000
_cell_angle_beta 90.000000
_cell_angle_gamma 90.000000
_cell_volume 2270.727397
_symmetry_space_group_name_H-M "C C C A"
_symmetry_group_IT_number 68
_space_group.IT_coordinate_system_code '2'
_symmetry_cell_setting 'orthorhombic'
loop_
_space_group_symop_operation_xyz
x,y,z
-x,1/2-y,z
x,1/2-y,1/2-z
-x,y,1/2-z
-x,-y,-z
x,1/2+y,-z
-x,1/2+y,1/2+z
x,-y,1/2+z
1/2+x,1/2+y,z
1/2-x,-y,z
1/2+x,-y,1/2-z
1/2-x,1/2+y,1/2-z
1/2-x,1/2-y,-z
1/2+x,y,-z
1/2-x,y,1/2+z
1/2+x,1/2-y,1/2+z
loop_
_atom_site_type_symbol
_atom_site_label
_atom_site_fract_x
_atom_site_fract_y
_atom_site_fract_z
Si Si1 0.778301 0.072324 0.372088
Si Si2 0.500000 0.750000 0.640617
Si Si3 0.147151 0.674454 0.958696
Si Si4 0.797603 0.372134 0.808170
O O1 0.863011 0.104209 0.436377
O O2 0.468492 0.096090 0.362812
O O3 0.991087 0.101067 0.319929
O O4 0.750000 0.000000 0.368839
O O5 0.282560 0.788537 0.598678
O O6 0.326126 0.700592 0.680656
O O7 0.340686 0.687290 0.017906
O O8 0.000000 0.387113 0.750000
#
# Coordination Sequence:
#
# PCOD9509233 Si02
#       4
#    16   8  16  16
#     4  11  25  44  65  95 134 174 228 281 329 402
#     4  10  23  42  66 100 138 170 223 282 338 414
#     4  11  23  40  66  97 134 180 223 274 339 405
#     4  11  24  43  68  97 130 175 222 279 346 404
#
# _framework density 24.661698999999999
#
# number of rings (size 3 to 8) (size 9 to 14) (size 15 to 20)
#    0.000    1.143    0.000    6.429    0.000   12.571 
#    0.000    5.714    0.000    0.000    0.000    0.000 
#    0.000    0.000    0.000    0.000    0.000    0.000 
#
# Total GULP energy -156360.439047 kJ/mol
# GULP energy per Si atom -5584.301395 kJ/mol
# Density = 2.460557 g / cm^3
# Si number density = 24.661699 Si / 1000 Ang^3
#
#
#
# Elastic Constant Matrix: (Units=GPa)
#
#
# Indices 1 2 3 4 5 6 
#
# 1 157.7252 49.2306 25.1889 0.0000 0.0000 0.0000
# 2 49.2306 162.5980 8.4246 0.0000 0.0000 0.0000
# 3 25.1889 8.4246 43.1005 0.0000 0.0000 0.0000
# 4 0.0000 0.0000 0.0000 4.3027 0.0000 0.0000
# 5 0.0000 0.0000 0.0000 0.0000 32.3516 0.0000
# 6 0.0000 0.0000 0.0000 0.0000 0.0000 29.2858
#
#
#
# Elastic Compliance Matrix: (Units=1/GPa)
#
#
# Indices 1 2 3 4 5 6 
#
# 1 0.007645 -0.002104 -0.004056 0.000000 0.000000 0.000000
# 2 -0.002104 0.006792 -0.000098 0.000000 0.000000 0.000000
# 3 -0.004056 -0.000098 0.025591 0.000000 0.000000 0.000000
# 4 0.000000 0.000000 0.000000 0.232411 0.000000 0.000000
# 5 0.000000 0.000000 0.000000 0.000000 0.030910 0.000000
# 6 0.000000 0.000000 0.000000 0.000000 0.000000 0.034146
#
#
# Mechanical properties :
#
#
# Convention : Reuss Voigt Hill
#
# Bulk Modulus (GPa) = 36.34883 58.79020 47.56951
# Shear Modulus (GPa) = 13.92046 31.89334 22.90690
#
# Velocity S-wave (km/s) = 2.37841 3.60006 3.05100
# Velocity P-wave (km/s) = 4.72371 6.41646 5.63402
#
# Compressibility (1/GPa) = 0.02751120
#
# Stress axis : x y z
#
# Youngs Moduli (GPa) = 130.80729 147.22365 39.07567
#
# Poissons Ratio (x) = 0.30983 0.15851
# Poissons Ratio (y) = 0.27528 0.00382
# Poissons Ratio (z) = 0.53061 0.01439
#
# Static dielectric constant tensor:
#      x y z
#    x 1.922270 0.000000 0.000000 
#    y 0.000000 2.020920 0.000000 
#    z 0.000000 0.000000 2.044290 
# 
# From -- ./inp_files/42126.got.cif
#   From: 2010.05.17/outbox.cif.g08.bks.cpg/sg68_22_cif.got.tgz:42126.got - 2010.06.03 18:57:09.
