data_PCOD9509932
_publ_section_title
;
Structure prediction by ZEFSAII (Michael W. Deem and Ramdas Pophale) SiO2 
 PCOD9509932
Probable space group: C C C A
;
_chemical_formula_sum "Si O2"
_cell_formula_units_Z 60
_cell_length_a 10.598551
_cell_length_b 16.753635
_cell_length_c 13.675097
_cell_angle_alpha 90.000000
_cell_angle_beta 90.000000
_cell_angle_gamma 90.000000
_cell_volume 2428.208411
_symmetry_space_group_name_H-M "C C C A"
_symmetry_group_IT_number 68
_space_group.IT_coordinate_system_code '2'
_symmetry_cell_setting 'orthorhombic'
loop_
_space_group_symop_operation_xyz
x,y,z
-x,1/2-y,z
x,1/2-y,1/2-z
-x,y,1/2-z
-x,-y,-z
x,1/2+y,-z
-x,1/2+y,1/2+z
x,-y,1/2+z
1/2+x,1/2+y,z
1/2-x,-y,z
1/2+x,-y,1/2-z
1/2-x,1/2+y,1/2-z
1/2-x,1/2-y,-z
1/2+x,y,-z
1/2-x,y,1/2+z
1/2+x,1/2-y,1/2+z
loop_
_atom_site_type_symbol
_atom_site_label
_atom_site_fract_x
_atom_site_fract_y
_atom_site_fract_z
Si Si1 0.062379 0.003374 0.343804
Si Si2 0.169464 0.159757 0.090548
Si Si3 0.250000 0.500000 0.803878
Si Si4 0.571533 0.379374 0.020236
Si Si5 0.000000 0.750000 0.750000
O O1 0.165145 0.955892 0.280011
O O2 0.000000 0.047584 0.250000
O O3 0.969771 0.941835 0.396325
O O4 0.107335 0.066088 0.425120
O O5 0.100451 0.206888 0.177256
O O6 0.061196 0.159787 0.008521
O O7 0.193132 0.068506 0.127378
O O8 0.311095 0.175693 0.050805
#
# Coordination Sequence:
#
# PCOD9509932 Si02
#       5
#    16  16   8  16   4
#     4  11  19  35  66 117 157 193 246 333 390 453
#     4  12  25  47  74 109 153 203 266 324 395 473
#     4  12  20  40  74 110 154 202 254 328 394 456
#     4  11  23  41  70 108 151 204 260 318 395 468
#     4  12  32  52  76 110 162 226 260 322 412 480
#
# _framework density 24.709576999999999
#
# number of rings (size 3 to 8) (size 9 to 14) (size 15 to 20)
#    0.000    0.533    5.333    4.800    0.000    1.067 
#    0.000    0.000    0.000    3.200    0.000    0.000 
#    0.000    0.000    0.000    0.000    0.000    0.000 
#
# Total GULP energy -167058.777472 kJ/mol
# GULP energy per Si atom -5568.625916 kJ/mol
# Density = 2.465334 g / cm^3
# Si number density = 24.709577 Si / 1000 Ang^3
#
#
#
# Elastic Constant Matrix: (Units=GPa)
#
#
# Indices 1 2 3 4 5 6 
#
# 1 199.4718 63.0282 69.2539 0.0000 0.0000 0.0000
# 2 63.0282 78.5700 44.1522 0.0000 0.0000 0.0000
# 3 69.2539 44.1522 153.3385 0.0000 0.0000 0.0000
# 4 0.0000 0.0000 0.0000 18.2406 0.0000 0.0000
# 5 0.0000 0.0000 0.0000 0.0000 47.5542 0.0000
# 6 0.0000 0.0000 0.0000 0.0000 0.0000 35.5511
#
#
#
# Elastic Compliance Matrix: (Units=1/GPa)
#
#
# Indices 1 2 3 4 5 6 
#
# 1 0.007143 -0.004673 -0.001880 0.000000 0.000000 0.000000
# 2 -0.004673 0.018242 -0.003142 0.000000 0.000000 0.000000
# 3 -0.001880 -0.003142 0.008275 0.000000 0.000000 0.000000
# 4 0.000000 0.000000 0.000000 0.054823 0.000000 0.000000
# 5 0.000000 0.000000 0.000000 0.000000 0.021029 0.000000
# 6 0.000000 0.000000 0.000000 0.000000 0.000000 0.028129
#
#
# Mechanical properties :
#
#
# Convention : Reuss Voigt Hill
#
# Bulk Modulus (GPa) = 70.08152 87.13875 78.61014
# Shear Modulus (GPa) = 30.90480 37.26558 34.08519
#
# Velocity S-wave (km/s) = 3.54039 3.88770 3.71810
# Velocity P-wave (km/s) = 6.71834 7.44943 7.09331
#
# Compressibility (1/GPa) = 0.01426910
#
# Stress axis : x y z
#
# Youngs Moduli (GPa) = 140.00378 54.81894 120.83924
#
# Poissons Ratio (x) = 0.25618 0.22722
# Poissons Ratio (y) = 0.65426 0.37967
# Poissons Ratio (z) = 0.26325 0.17224
#
# Static dielectric constant tensor:
#      x y z
#    x 2.704700 0.000000 0.000000 
#    y 0.000000 2.003030 0.000000 
#    z 0.000000 0.000000 1.960270 
# 
# From -- ./inp_files/11590.got.cif
#   From: 2010.05.17/outbox.cif.g08.bks.cpg/sg68_6_cif.got.tgz:11590.got - 2010.06.03 18:57:09.
