data_PCOD9509829
_publ_section_title
;
Structure prediction by ZEFSAII (Michael W. Deem and Ramdas Pophale) SiO2 
 PCOD9509829
Probable space group: C C C A
;
_chemical_formula_sum "Si O2"
_cell_formula_units_Z 56
_cell_length_a 14.472318
_cell_length_b 13.604869
_cell_length_c 12.776891
_cell_angle_alpha 90.000000
_cell_angle_beta 90.000000
_cell_angle_gamma 90.000000
_cell_volume 2515.693055
_symmetry_space_group_name_H-M "C C C A"
_symmetry_group_IT_number 68
_space_group.IT_coordinate_system_code '2'
_symmetry_cell_setting 'orthorhombic'
loop_
_space_group_symop_operation_xyz
x,y,z
-x,1/2-y,z
x,1/2-y,1/2-z
-x,y,1/2-z
-x,-y,-z
x,1/2+y,-z
-x,1/2+y,1/2+z
x,-y,1/2+z
1/2+x,1/2+y,z
1/2-x,-y,z
1/2+x,-y,1/2-z
1/2-x,1/2+y,1/2-z
1/2-x,1/2-y,-z
1/2+x,y,-z
1/2-x,y,1/2+z
1/2+x,1/2-y,1/2+z
loop_
_atom_site_type_symbol
_atom_site_label
_atom_site_fract_x
_atom_site_fract_y
_atom_site_fract_z
Si Si1 0.890253 0.590914 0.753289
Si Si2 0.500000 0.093732 0.250000
Si Si3 0.174131 0.177019 0.044197
Si Si4 0.750000 0.000000 0.084044
Si Si5 0.000000 0.750000 0.432283
O O1 0.835377 0.651772 0.666333
O O2 0.820453 0.571465 0.850560
O O3 0.000000 0.627347 0.750000
O O4 0.912862 0.476494 0.728026
O O5 0.493179 0.159213 0.352578
O O6 0.250000 0.250000 0.000000
O O7 0.188422 0.072633 0.986498
O O8 0.083932 0.234408 0.008801
#
# Coordination Sequence:
#
# PCOD9509829 Si02
#       5
#    16   8  16   8   8
#     4  10  25  48  74 105 148 202 252 312 387 456
#     4   9  22  44  76  97 142 200 249 306 388 447
#     4  12  29  44  77 112 152 198 264 318 388 459
#     4  12  26  50  74 110 158 200 260 324 390 460
#     4  11  24  46  69 112 144 192 253 326 379 458
#
# _framework density 22.260268
#
# number of rings (size 3 to 8) (size 9 to 14) (size 15 to 20)
#    0.857    0.286    2.857    0.857   12.000    3.429 
#    0.000    0.000    0.000    0.000    0.000    0.000 
#    0.000    0.000    0.000    0.000    0.000    0.000 
#
# Total GULP energy -155872.899595 kJ/mol
# GULP energy per Si atom -5566.889271 kJ/mol
# Density = 2.220960 g / cm^3
# Si number density = 22.260268 Si / 1000 Ang^3
#
#
#
# Elastic Constant Matrix: (Units=GPa)
#
#
# Indices 1 2 3 4 5 6 
#
# 1 121.7311 30.8845 29.0430 0.0000 0.0000 0.0000
# 2 30.8845 82.7680 36.3256 0.0000 0.0000 0.0000
# 3 29.0430 36.3256 87.7551 0.0000 0.0000 0.0000
# 4 0.0000 0.0000 0.0000 -52.0604 0.0000 0.0000
# 5 0.0000 0.0000 0.0000 0.0000 32.2540 0.0000
# 6 0.0000 0.0000 0.0000 0.0000 0.0000 38.3166
#
#
#
# Elastic Compliance Matrix: (Units=1/GPa)
#
#
# Indices 1 2 3 4 5 6 
#
# 1 0.009357 -0.002606 -0.002018 0.000000 0.000000 0.000000
# 2 -0.002606 0.015490 -0.005550 0.000000 0.000000 0.000000
# 3 -0.002018 -0.005550 0.014360 0.000000 0.000000 0.000000
# 4 0.000000 0.000000 0.000000 -0.019208 0.000000 0.000000
# 5 0.000000 0.000000 0.000000 0.000000 0.031004 0.000000
# 6 0.000000 0.000000 0.000000 0.000000 0.000000 0.026098
#
#
# Mechanical properties :
#
#
# Convention : Reuss Voigt Hill
#
# Bulk Modulus (GPa) = 53.02057 53.86227 53.44142
# Shear Modulus (GPa) = 48.19932 16.76878 32.48405
#
# Velocity S-wave (km/s) = 4.65829 2.74762 3.82420
# Velocity P-wave (km/s) = 7.26657 5.85790 6.59993
#
# Compressibility (1/GPa) = 0.01886060
#
# Stress axis : x y z
#
# Youngs Moduli (GPa) = 106.86625 64.55795 69.63561
#
# Poissons Ratio (x) = 0.16824 0.14054
# Poissons Ratio (y) = 0.27849 0.38644
# Poissons Ratio (z) = 0.21568 0.35827
#
# Static dielectric constant tensor:
#      x y z
#    x 1.804600 0.000000 0.000000 
#    y 0.000000 1.842220 0.000000 
#    z 0.000000 0.000000 1.949980 
# 
# From -- ./inp_files/21735.got.cif
#   From: 2010.05.17/outbox.cif.g08.bks.cpg/sg68_11_cif.got.tgz:21735.got - 2010.06.03 18:57:09.
