data_PCOD9509460
_publ_section_title
;
Structure prediction by ZEFSAII (Michael W. Deem and Ramdas Pophale) SiO2 
 PCOD9509460
Probable space group: C C C A
;
_chemical_formula_sum "Si O2"
_cell_formula_units_Z 64
_cell_length_a 12.186001
_cell_length_b 8.824918
_cell_length_c 27.034567
_cell_angle_alpha 90.000000
_cell_angle_beta 90.000000
_cell_angle_gamma 90.000000
_cell_volume 2907.309760
_symmetry_space_group_name_H-M "C C C A"
_symmetry_group_IT_number 68
_space_group.IT_coordinate_system_code '2'
_symmetry_cell_setting 'orthorhombic'
loop_
_space_group_symop_operation_xyz
x,y,z
-x,1/2-y,z
x,1/2-y,1/2-z
-x,y,1/2-z
-x,-y,-z
x,1/2+y,-z
-x,1/2+y,1/2+z
x,-y,1/2+z
1/2+x,1/2+y,z
1/2-x,-y,z
1/2+x,-y,1/2-z
1/2-x,1/2+y,1/2-z
1/2-x,1/2-y,-z
1/2+x,y,-z
1/2-x,y,1/2+z
1/2+x,1/2-y,1/2+z
loop_
_atom_site_type_symbol
_atom_site_label
_atom_site_fract_x
_atom_site_fract_y
_atom_site_fract_z
Si Si1 0.000000 0.250000 0.523478
Si Si2 0.566835 0.054599 0.565579
Si Si3 0.361874 0.048916 0.635394
Si Si4 0.750000 0.500000 0.367418
Si Si5 0.189219 0.270070 0.808158
O O1 0.931958 0.356348 0.485950
O O2 0.065696 0.373357 0.555195
O O3 0.671604 0.095764 0.597442
O O4 0.457983 0.087287 0.597992
O O5 0.388077 0.898725 0.667973
O O6 0.250000 0.000000 0.606300
O O7 0.311100 0.167925 0.675036
O O8 0.822562 0.608999 0.333957
O O9 0.179695 0.250000 0.750000
#
# Coordination Sequence:
#
# PCOD9509460 Si02
#       5
#     8  16  16   8  16
#     4  10  24  40  60  78 120 142 206 234 276 360
#     4  11  22  42  55  89 108 158 186 237 297 323
#     4   8  20  39  60  75 121 154 177 232 282 347
#     4  12  22  34  64  82 120 144 192 240 284 340
#     4   9  19  37  59  88 114 148 189 231 277 341
#
# _framework density 22.013477999999999
#
# number of rings (size 3 to 8) (size 9 to 14) (size 15 to 20)
#    1.500    0.500    0.000    4.500    0.000    1.000 
#    9.000    7.500    0.000    0.000    0.000    0.000 
#    0.000    0.000    0.000    0.000    0.000    0.000 
#
# Total GULP energy -178307.723135 kJ/mol
# GULP energy per Si atom -5572.116348 kJ/mol
# Density = 2.196337 g / cm^3
# Si number density = 22.013478 Si / 1000 Ang^3
#
#
#
# Elastic Constant Matrix: (Units=GPa)
#
#
# Indices 1 2 3 4 5 6 
#
# 1 74.4960 -18.3286 23.7866 0.0000 0.0000 0.0000
# 2 -18.3286 82.2170 11.7586 0.0000 0.0000 0.0000
# 3 23.7866 11.7586 96.1962 0.0000 0.0000 0.0000
# 4 0.0000 0.0000 0.0000 38.6202 0.0000 0.0000
# 5 0.0000 0.0000 0.0000 0.0000 3.5677 0.0000
# 6 0.0000 0.0000 0.0000 0.0000 0.0000 15.0440
#
#
#
# Elastic Compliance Matrix: (Units=1/GPa)
#
#
# Indices 1 2 3 4 5 6 
#
# 1 0.015865 0.004171 -0.004433 0.000000 0.000000 0.000000
# 2 0.004171 0.013476 -0.002679 0.000000 0.000000 0.000000
# 3 -0.004433 -0.002679 0.011819 0.000000 0.000000 0.000000
# 4 0.000000 0.000000 0.000000 0.025893 0.000000 0.000000
# 5 0.000000 0.000000 0.000000 0.000000 0.280293 0.000000
# 6 0.000000 0.000000 0.000000 0.000000 0.000000 0.066472
#
#
# Mechanical properties :
#
#
# Convention : Reuss Voigt Hill
#
# Bulk Modulus (GPa) = 28.34572 31.92694 30.13633
# Shear Modulus (GPa) = 11.58859 27.15921 19.37390
#
# Velocity S-wave (km/s) = 2.29690 3.51629 2.96985
# Velocity P-wave (km/s) = 4.46529 5.56961 5.04774
#
# Compressibility (1/GPa) = 0.03527869
#
# Stress axis : x y z
#
# Youngs Moduli (GPa) = 63.03150 74.20701 84.60991
#
# Poissons Ratio (x) = -0.30950 0.37506
# Poissons Ratio (y) = -0.26289 0.22663
# Poissons Ratio (z) = 0.27941 0.19877
#
# Static dielectric constant tensor:
#      x y z
#    x 1.792670 0.000000 0.000000 
#    y 0.000000 2.077560 0.000000 
#    z 0.000000 0.000000 1.730590 
# 
# From -- ./inp_files/45000.got.cif
#   From: 2010.05.17/outbox.cif.g08.bks.cpg/sg68_23_cif.got.tgz:45000.got - 2010.06.03 18:57:09.
