data_PCOD9509139
_publ_section_title
;
Structure prediction by ZEFSAII (Michael W. Deem and Ramdas Pophale) SiO2 
 PCOD9509139
Probable space group: C C C A
;
_chemical_formula_sum "Si O2"
_cell_formula_units_Z 64
_cell_length_a 25.475009
_cell_length_b 7.995005
_cell_length_c 16.410411
_cell_angle_alpha 90.000000
_cell_angle_beta 90.000000
_cell_angle_gamma 90.000000
_cell_volume 3342.354757
_symmetry_space_group_name_H-M "C C C A"
_symmetry_group_IT_number 68
_space_group.IT_coordinate_system_code '2'
_symmetry_cell_setting 'orthorhombic'
loop_
_space_group_symop_operation_xyz
x,y,z
-x,1/2-y,z
x,1/2-y,1/2-z
-x,y,1/2-z
-x,-y,-z
x,1/2+y,-z
-x,1/2+y,1/2+z
x,-y,1/2+z
1/2+x,1/2+y,z
1/2-x,-y,z
1/2+x,-y,1/2-z
1/2-x,1/2+y,1/2-z
1/2-x,1/2-y,-z
1/2+x,y,-z
1/2-x,y,1/2+z
1/2+x,1/2-y,1/2+z
loop_
_atom_site_type_symbol
_atom_site_label
_atom_site_fract_x
_atom_site_fract_y
_atom_site_fract_z
Si Si1 0.939821 0.278247 0.153307
Si Si2 0.155163 0.804635 0.945659
Si Si3 0.362772 0.451960 0.386047
Si Si4 0.194253 0.750000 0.250000
Si Si5 0.750000 0.000000 0.629019
O O1 0.934136 0.250000 0.250000
O O2 0.897991 0.160998 0.106120
O O3 0.919518 0.464220 0.129902
O O4 0.000000 0.250000 0.130592
O O5 0.169065 0.616466 0.916929
O O6 0.202365 0.926045 0.923127
O O7 0.140877 0.820891 0.040430
O O8 0.340405 0.375941 0.303758
O O9 0.229050 0.646150 0.187136
#
# Coordination Sequence:
#
# PCOD9509139 Si02
#       5
#    16  16  16   8   8
#     4   9  20  41  66  90 125 165 209 265 320 372
#     4  10  23  40  60  95 125 168 206 262 318 376
#     4  10  23  41  64  93 128 166 213 263 314 392
#     4  12  24  38  64  95 127 176 214 258 322 376
#     4  12  24  38  64  90 134 168 212 266 310 394
#
# _framework density 19.148178000000001
#
# number of rings (size 3 to 8) (size 9 to 14) (size 15 to 20)
#    1.500    0.250    0.000    4.500    1.750    6.000 
#    0.000    0.000    0.000    1.500    0.000    0.000 
#    0.000    0.000    0.000    0.000    0.000    0.000 
#
# Total GULP energy -178352.323761 kJ/mol
# GULP energy per Si atom -5573.510118 kJ/mol
# Density = 1.910460 g / cm^3
# Si number density = 19.148178 Si / 1000 Ang^3
#
#
#
# Elastic Constant Matrix: (Units=GPa)
#
#
# Indices 1 2 3 4 5 6 
#
# 1 131.1596 32.5983 53.3234 0.0000 0.0000 0.0000
# 2 32.5983 72.0123 24.3248 0.0000 0.0000 0.0000
# 3 53.3234 24.3248 103.6989 0.0000 0.0000 0.0000
# 4 0.0000 0.0000 0.0000 39.3408 0.0000 0.0000
# 5 0.0000 0.0000 0.0000 0.0000 -14.3585 0.0000
# 6 0.0000 0.0000 0.0000 0.0000 0.0000 6.7729
#
#
#
# Elastic Compliance Matrix: (Units=1/GPa)
#
#
# Indices 1 2 3 4 5 6 
#
# 1 0.010240 -0.003103 -0.004538 0.000000 0.000000 0.000000
# 2 -0.003103 0.016022 -0.002163 0.000000 0.000000 0.000000
# 3 -0.004538 -0.002163 0.012484 0.000000 0.000000 0.000000
# 4 0.000000 0.000000 0.000000 0.025419 0.000000 0.000000
# 5 0.000000 0.000000 0.000000 0.000000 -0.069645 0.000000
# 6 0.000000 0.000000 0.000000 0.000000 0.000000 0.147647
#
#
# Mechanical properties :
#
#
# Convention : Reuss Voigt Hill
#
# Bulk Modulus (GPa) = 52.24863 58.59596 55.42230
# Shear Modulus (GPa) = 29.73473 19.45933 24.59703
#
# Velocity S-wave (km/s) = 3.94493 3.19133 3.58797
# Velocity P-wave (km/s) = 6.93510 6.65185 6.79496
#
# Compressibility (1/GPa) = 0.01913926
#
# Stress axis : x y z
#
# Youngs Moduli (GPa) = 97.65289 62.41579 80.10202
#
# Poissons Ratio (x) = 0.19366 0.36350
# Poissons Ratio (y) = 0.30299 0.17324
# Poissons Ratio (z) = 0.44314 0.13499
#
# Static dielectric constant tensor:
#      x y z
#    x 1.661310 0.000000 0.000000 
#    y 0.000000 1.710820 0.000000 
#    z 0.000000 0.000000 1.652790 
# 
# From -- ./inp_files/19381.got.cif
#   From: 2010.05.17/outbox.cif.g08.bks.cpg/sg68_10_cif.got.tgz:19381.got - 2010.06.03 18:57:09.
