data_PCOD9509744
_publ_section_title
;
Structure prediction by ZEFSAII (Michael W. Deem and Ramdas Pophale) SiO2 
 PCOD9509744
Probable space group: C C C A
;
_chemical_formula_sum "Si O2"
_cell_formula_units_Z 60
_cell_length_a 17.890746
_cell_length_b 22.785528
_cell_length_c 5.759952
_cell_angle_alpha 90.000000
_cell_angle_beta 90.000000
_cell_angle_gamma 90.000000
_cell_volume 2348.044974
_symmetry_space_group_name_H-M "C C C A"
_symmetry_group_IT_number 68
_space_group.IT_coordinate_system_code '2'
_symmetry_cell_setting 'orthorhombic'
loop_
_space_group_symop_operation_xyz
x,y,z
-x,1/2-y,z
x,1/2-y,1/2-z
-x,y,1/2-z
-x,-y,-z
x,1/2+y,-z
-x,1/2+y,1/2+z
x,-y,1/2+z
1/2+x,1/2+y,z
1/2-x,-y,z
1/2+x,-y,1/2-z
1/2-x,1/2+y,1/2-z
1/2-x,1/2-y,-z
1/2+x,y,-z
1/2-x,y,1/2+z
1/2+x,1/2-y,1/2+z
loop_
_atom_site_type_symbol
_atom_site_label
_atom_site_fract_x
_atom_site_fract_y
_atom_site_fract_z
Si Si1 0.000000 0.750000 0.750000
Si Si2 0.930280 0.638166 0.597768
Si Si3 0.000000 0.942539 0.250000
Si Si4 0.344817 0.029698 0.114245
Si Si5 0.260954 0.144576 0.664004
O O1 0.948354 0.707406 0.596907
O O2 0.942238 0.603582 0.365883
O O3 0.848061 0.627252 0.687276
O O4 0.000000 0.615454 0.750000
O O5 0.063695 0.974718 0.102959
O O6 0.295816 0.089640 0.135593
O O7 0.327036 0.998213 0.361397
O O8 0.257905 0.175287 0.409566
#
# Coordination Sequence:
#
# PCOD9509744 Si02
#       5
#     4  16   8  16  16
#     4   8  24  46  82 108 138 178 250 314 352 474
#     4  10  24  48  76 106 142 189 240 301 381 437
#     4  12  24  47  77 100 150 200 241 307 366 430
#     4  12  28  46  70 108 149 201 257 300 346 427
#     4  12  25  47  72 107 151 198 235 306 373 422
#
# _framework density 25.553175
#
# number of rings (size 3 to 8) (size 9 to 14) (size 15 to 20)
#    0.800    0.000    2.667    4.000    3.733    3.733 
#    0.000    1.333    0.000    0.000    0.000    0.000 
#    0.000    0.000    0.000    0.000    0.000    0.000 
#
# Total GULP energy -167193.183674 kJ/mol
# GULP energy per Si atom -5573.106122 kJ/mol
# Density = 2.549501 g / cm^3
# Si number density = 25.553175 Si / 1000 Ang^3
#
#
#
# Elastic Constant Matrix: (Units=GPa)
#
#
# Indices 1 2 3 4 5 6 
#
# 1 253.3993 15.6684 26.6316 0.0000 0.0000 0.0000
# 2 15.6684 58.5302 21.1000 0.0000 0.0000 0.0000
# 3 26.6316 21.1000 169.7900 0.0000 0.0000 0.0000
# 4 0.0000 0.0000 0.0000 41.5961 0.0000 0.0000
# 5 0.0000 0.0000 0.0000 0.0000 28.7752 0.0000
# 6 0.0000 0.0000 0.0000 0.0000 0.0000 177.8939
#
#
#
# Elastic Compliance Matrix: (Units=1/GPa)
#
#
# Indices 1 2 3 4 5 6 
#
# 1 0.004057 -0.000897 -0.000525 0.000000 0.000000 0.000000
# 2 -0.000897 0.018085 -0.002107 0.000000 0.000000 0.000000
# 3 -0.000525 -0.002107 0.006234 0.000000 0.000000 0.000000
# 4 0.000000 0.000000 0.000000 0.024041 0.000000 0.000000
# 5 0.000000 0.000000 0.000000 0.000000 0.034752 0.000000
# 6 0.000000 0.000000 0.000000 0.000000 0.000000 0.005621
#
#
# Mechanical properties :
#
#
# Convention : Reuss Voigt Hill
#
# Bulk Modulus (GPa) = 46.90749 67.61329 57.26039
# Shear Modulus (GPa) = 46.74964 77.54102 62.14533
#
# Velocity S-wave (km/s) = 4.28191 5.51460 4.93688
# Velocity P-wave (km/s) = 6.54546 8.18933 7.41310
#
# Compressibility (1/GPa) = 0.02131856
#
# Stress axis : x y z
#
# Youngs Moduli (GPa) = 246.49015 55.29522 160.41669
#
# Poissons Ratio (x) = 0.04959 0.08420
# Poissons Ratio (y) = 0.22106 0.33796
# Poissons Ratio (z) = 0.12938 0.11649
#
# Static dielectric constant tensor:
#      x y z
#    x 2.063290 0.000000 0.000000 
#    y 0.000000 2.014660 0.000000 
#    z 0.000000 0.000000 1.279630 
# 
# From -- ./inp_files/1004.got.cif
#   From: 2010.05.17/outbox.cif.g08.bks.cpg/sg68_1_cif.got.tgz:1004.got - 2010.06.03 18:57:09.
