data_PCOD9509259
_publ_section_title
;
Structure prediction by ZEFSAII (Michael W. Deem and Ramdas Pophale) SiO2 
 PCOD9509259
Probable space group: C C C A
;
_chemical_formula_sum "Si O2"
_cell_formula_units_Z 88
_cell_length_a 11.019866
_cell_length_b 11.640560
_cell_length_c 28.887959
_cell_angle_alpha 90.000000
_cell_angle_beta 90.000000
_cell_angle_gamma 90.000000
_cell_volume 3705.672600
_symmetry_space_group_name_H-M "C C C A"
_symmetry_group_IT_number 68
_space_group.IT_coordinate_system_code '2'
_symmetry_cell_setting 'orthorhombic'
loop_
_space_group_symop_operation_xyz
x,y,z
-x,1/2-y,z
x,1/2-y,1/2-z
-x,y,1/2-z
-x,-y,-z
x,1/2+y,-z
-x,1/2+y,1/2+z
x,-y,1/2+z
1/2+x,1/2+y,z
1/2-x,-y,z
1/2+x,-y,1/2-z
1/2-x,1/2+y,1/2-z
1/2-x,1/2-y,-z
1/2+x,y,-z
1/2-x,y,1/2+z
1/2+x,1/2-y,1/2+z
loop_
_atom_site_type_symbol
_atom_site_label
_atom_site_fract_x
_atom_site_fract_y
_atom_site_fract_z
Si Si1 0.145325 0.590089 0.090268
Si Si2 0.879626 0.316657 0.001764
Si Si3 0.500000 0.750000 0.320874
Si Si4 0.750000 0.500000 0.663512
Si Si5 0.326527 0.287890 0.895596
Si Si6 0.505571 0.886305 0.820255
Si Si7 0.000000 0.445090 0.250000
O O1 0.250000 0.500000 0.102031
O O2 0.204352 0.717252 0.094768
O O3 0.037823 0.586886 0.127436
O O4 0.121555 0.578786 0.034960
O O5 0.891689 0.326484 0.057093
O O6 0.000000 0.250000 0.986150
O O7 0.750000 0.250000 0.000000
O O8 0.600898 0.711194 0.357947
O O9 0.547910 0.851359 0.287719
O O10 0.694553 0.404520 0.630656
O O11 0.641857 0.567609 0.688579
O O12 0.500000 0.750000 0.812299
O O13 0.430634 0.965564 0.784206
#
# Coordination Sequence:
#
# PCOD9509259 Si02
#       7
#    16  16   8   8  16  16   8
#     4  11  25  44  73 110 149 196 246 315 377 456
#     4  10  23  42  71 109 152 200 254 304 382 459
#     4  11  22  46  72 106 148 194 256 307 380 464
#     4  12  26  44  76 106 142 202 242 320 380 454
#     4  11  23  46  71 105 151 196 247 314 379 456
#     4  12  25  51  72 107 151 191 256 312 392 453
#     4  11  25  44  74 106 141 199 250 318 380 455
#
# _framework density 23.747375000000002
#
# number of rings (size 3 to 8) (size 9 to 14) (size 15 to 20)
#    0.000    0.909    4.545    1.909    3.818    0.000 
#    4.909    4.545    0.000    0.000    0.000    0.000 
#    0.000    0.000    0.000    0.000    0.000    0.000 
#
# Total GULP energy -244993.473198 kJ/mol
# GULP energy per Si atom -5568.033482 kJ/mol
# Density = 2.369332 g / cm^3
# Si number density = 23.747375 Si / 1000 Ang^3
#
#
#
# Elastic Constant Matrix: (Units=GPa)
#
#
# Indices 1 2 3 4 5 6 
#
# 1 91.5084 24.8385 37.3168 0.0000 0.0000 0.0000
# 2 24.8385 123.9007 36.2209 0.0000 0.0000 0.0000
# 3 37.3168 36.2209 180.9087 0.0000 0.0000 0.0000
# 4 0.0000 0.0000 0.0000 34.2712 0.0000 0.0000
# 5 0.0000 0.0000 0.0000 0.0000 14.8668 0.0000
# 6 0.0000 0.0000 0.0000 0.0000 0.0000 22.7033
#
#
#
# Elastic Compliance Matrix: (Units=1/GPa)
#
#
# Indices 1 2 3 4 5 6 
#
# 1 0.012311 -0.001833 -0.002173 0.000000 0.000000 0.000000
# 2 -0.001833 0.008846 -0.001393 0.000000 0.000000 0.000000
# 3 -0.002173 -0.001393 0.006255 0.000000 0.000000 0.000000
# 4 0.000000 0.000000 0.000000 0.029179 0.000000 0.000000
# 5 0.000000 0.000000 0.000000 0.000000 0.067264 0.000000
# 6 0.000000 0.000000 0.000000 0.000000 0.000000 0.044046
#
#
# Mechanical properties :
#
#
# Convention : Reuss Voigt Hill
#
# Bulk Modulus (GPa) = 60.18711 65.89666 63.04188
# Shear Modulus (GPa) = 27.13902 34.23103 30.68502
#
# Velocity S-wave (km/s) = 3.38423 3.80078 3.59854
# Velocity P-wave (km/s) = 6.37734 6.86080 6.62348
#
# Compressibility (1/GPa) = 0.01661485
#
# Stress axis : x y z
#
# Youngs Moduli (GPa) = 81.22524 113.04994 159.88025
#
# Poissons Ratio (x) = 0.20722 0.34735
# Poissons Ratio (y) = 0.14888 0.22270
# Poissons Ratio (z) = 0.17647 0.15747
#
# Static dielectric constant tensor:
#      x y z
#    x -1.170050 0.000000 0.000000 
#    y 0.000000 1.899050 0.000000 
#    z 0.000000 0.000000 1.998550 
# 
# From -- ./inp_files/54667.got.cif
#   From: 2010.05.17/outbox.cif.g08.bks.cpg/sg68_28_cif.got.tgz:54667.got - 2010.06.03 18:57:09.
