data_PCOD9509374
_publ_section_title
;
Structure prediction by ZEFSAII (Michael W. Deem and Ramdas Pophale) SiO2 
 PCOD9509374
Probable space group: C C C A
;
_chemical_formula_sum "Si O2"
_cell_formula_units_Z 60
_cell_length_a 9.308655
_cell_length_b 27.332837
_cell_length_c 11.428536
_cell_angle_alpha 90.000000
_cell_angle_beta 90.000000
_cell_angle_gamma 90.000000
_cell_volume 2907.784698
_symmetry_space_group_name_H-M "C C C A"
_symmetry_group_IT_number 68
_space_group.IT_coordinate_system_code '2'
_symmetry_cell_setting 'orthorhombic'
loop_
_space_group_symop_operation_xyz
x,y,z
-x,1/2-y,z
x,1/2-y,1/2-z
-x,y,1/2-z
-x,-y,-z
x,1/2+y,-z
-x,1/2+y,1/2+z
x,-y,1/2+z
1/2+x,1/2+y,z
1/2-x,-y,z
1/2+x,-y,1/2-z
1/2-x,1/2+y,1/2-z
1/2-x,1/2-y,-z
1/2+x,y,-z
1/2-x,y,1/2+z
1/2+x,1/2-y,1/2+z
loop_
_atom_site_type_symbol
_atom_site_label
_atom_site_fract_x
_atom_site_fract_y
_atom_site_fract_z
Si Si1 0.030035 0.342503 0.373107
Si Si2 0.874358 0.034807 0.954481
Si Si3 0.735803 0.623237 0.926871
Si Si4 0.500000 0.750000 0.250000
Si Si5 0.500000 0.397793 0.250000
O O1 0.137016 0.367980 0.460312
O O2 0.081660 0.288757 0.332429
O O3 0.000000 0.370004 0.250000
O O4 0.870793 0.340241 0.427189
O O5 0.934724 0.069623 0.853780
O O6 0.750000 0.000000 0.907235
O O7 0.805976 0.069491 0.055468
O O8 0.000000 0.000000 0.000000
O O9 0.633449 0.629144 0.813825
#
# Coordination Sequence:
#
# PCOD9509374 Si02
#       5
#    16  16  16   4   8
#     4  10  23  45  67 100 133 168 226 270 349 397
#     4  12  25  43  60  96 134 179 228 272 315 383
#     4  12  23  44  70  97 136 180 220 281 333 409
#     4   8  24  44  70 100 128 176 208 300 330 416
#     4  12  26  40  67  95 128 186 224 260 344 372
#
# _framework density 20.634264999999999
#
# number of rings (size 3 to 8) (size 9 to 14) (size 15 to 20)
#    0.800    0.000    5.333    1.600    3.733    1.067 
#    2.400    0.000    0.000    1.600    0.000    0.000 
#    0.000    0.000    0.000    0.000    0.000    0.000 
#
# Total GULP energy -167264.925376 kJ/mol
# GULP energy per Si atom -5575.497513 kJ/mol
# Density = 2.058730 g / cm^3
# Si number density = 20.634265 Si / 1000 Ang^3
#
#
#
# Elastic Constant Matrix: (Units=GPa)
#
#
# Indices 1 2 3 4 5 6 
#
# 1 134.1076 30.1391 42.8228 0.0000 0.0000 0.0000
# 2 30.1391 69.2759 15.8713 0.0000 0.0000 0.0000
# 3 42.8228 15.8713 92.4800 0.0000 0.0000 0.0000
# 4 0.0000 0.0000 0.0000 21.8575 0.0000 0.0000
# 5 0.0000 0.0000 0.0000 0.0000 42.5079 0.0000
# 6 0.0000 0.0000 0.0000 0.0000 0.0000 15.3325
#
#
#
# Elastic Compliance Matrix: (Units=1/GPa)
#
#
# Indices 1 2 3 4 5 6 
#
# 1 0.009392 -0.003216 -0.003797 0.000000 0.000000 0.000000
# 2 -0.003216 0.016127 -0.001278 0.000000 0.000000 0.000000
# 3 -0.003797 -0.001278 0.012791 0.000000 0.000000 0.000000
# 4 0.000000 0.000000 0.000000 0.045751 0.000000 0.000000
# 5 0.000000 0.000000 0.000000 0.000000 0.023525 0.000000
# 6 0.000000 0.000000 0.000000 0.000000 0.000000 0.065221
#
#
# Mechanical properties :
#
#
# Convention : Reuss Voigt Hill
#
# Bulk Modulus (GPa) = 46.02651 52.61444 49.32047
# Shear Modulus (GPa) = 25.42818 29.74158 27.58488
#
# Velocity S-wave (km/s) = 3.51426 3.80065 3.66026
# Velocity P-wave (km/s) = 6.23065 6.69432 6.46664
#
# Compressibility (1/GPa) = 0.02172661
#
# Stress axis : x y z
#
# Youngs Moduli (GPa) = 106.47437 62.00721 78.18149
#
# Poissons Ratio (x) = 0.19942 0.29685
# Poissons Ratio (y) = 0.34244 0.09995
# Poissons Ratio (z) = 0.40428 0.07928
#
# Static dielectric constant tensor:
#      x y z
#    x 1.823610 0.000000 0.000000 
#    y 0.000000 1.754310 0.000000 
#    z 0.000000 0.000000 1.774990 
# 
# From -- ./inp_files/10598.got.cif
#   From: 2010.05.17/outbox.cif.g08.bks.cpg/sg68_6_cif.got.tgz:10598.got - 2010.06.03 18:57:09.
