data_PCOD9509841
_publ_section_title
;
Structure prediction by ZEFSAII (Michael W. Deem and Ramdas Pophale) SiO2 
 PCOD9509841
Probable space group: C C C A
;
_chemical_formula_sum "Si O2"
_cell_formula_units_Z 60
_cell_length_a 17.042952
_cell_length_b 15.434432
_cell_length_c 8.845105
_cell_angle_alpha 90.000000
_cell_angle_beta 90.000000
_cell_angle_gamma 90.000000
_cell_volume 2326.689690
_symmetry_space_group_name_H-M "C C C A"
_symmetry_group_IT_number 68
_space_group.IT_coordinate_system_code '2'
_symmetry_cell_setting 'orthorhombic'
loop_
_space_group_symop_operation_xyz
x,y,z
-x,1/2-y,z
x,1/2-y,1/2-z
-x,y,1/2-z
-x,-y,-z
x,1/2+y,-z
-x,1/2+y,1/2+z
x,-y,1/2+z
1/2+x,1/2+y,z
1/2-x,-y,z
1/2+x,-y,1/2-z
1/2-x,1/2+y,1/2-z
1/2-x,1/2-y,-z
1/2+x,y,-z
1/2-x,y,1/2+z
1/2+x,1/2-y,1/2+z
loop_
_atom_site_type_symbol
_atom_site_label
_atom_site_fract_x
_atom_site_fract_y
_atom_site_fract_z
Si Si1 0.000000 0.750000 0.750000
Si Si2 0.688311 0.425758 0.756661
Si Si3 0.090217 0.015083 0.968432
Si Si4 0.784892 0.250000 0.750000
Si Si5 0.578368 0.297806 0.451178
O O1 0.942358 0.699207 0.632290
O O2 0.750000 0.500000 0.803889
O O3 0.646786 0.462048 0.606944
O O4 0.731940 0.335439 0.743464
O O5 0.622410 0.431078 0.884867
O O6 0.088518 0.106730 0.880425
O O7 0.000000 0.000000 0.000000
O O8 0.843000 0.248952 0.604199
O O9 0.500000 0.250000 0.399151
#
# Coordination Sequence:
#
# PCOD9509841 Si02
#       5
#     4  16  16   8  16
#     4   8  24  44  80 124 162 206 308 316 430 514
#     4  12  29  54  81 127 165 221 278 361 427 507
#     4  12  29  52  82 117 172 219 286 349 427 518
#     4  12  27  53  87 116 183 220 288 354 442 506
#     4  10  25  49  79 126 162 231 279 353 419 529
#
# _framework density 25.787711000000002
#
# number of rings (size 3 to 8) (size 9 to 14) (size 15 to 20)
#    0.800    0.000    2.667    2.000    7.467    6.400 
#    4.800    1.333    0.000    0.000    0.000    0.000 
#    0.000    0.000    0.000    0.000    0.000    0.000 
#
# Total GULP energy -167913.806162 kJ/mol
# GULP energy per Si atom -5597.126872 kJ/mol
# Density = 2.572902 g / cm^3
# Si number density = 25.787711 Si / 1000 Ang^3
#
#
#
# Elastic Constant Matrix: (Units=GPa)
#
#
# Indices 1 2 3 4 5 6 
#
# 1 211.2264 84.1657 72.9071 0.0000 0.0000 0.0000
# 2 84.1657 150.5511 52.8484 0.0000 0.0000 0.0000
# 3 72.9071 52.8484 126.7791 0.0000 0.0000 0.0000
# 4 0.0000 0.0000 0.0000 36.2001 0.0000 0.0000
# 5 0.0000 0.0000 0.0000 0.0000 -267.8825 0.0000
# 6 0.0000 0.0000 0.0000 0.0000 0.0000 60.8107
#
#
#
# Elastic Compliance Matrix: (Units=1/GPa)
#
#
# Indices 1 2 3 4 5 6 
#
# 1 0.006812 -0.002850 -0.002729 0.000000 0.000000 0.000000
# 2 -0.002850 0.008973 -0.002102 0.000000 0.000000 0.000000
# 3 -0.002729 -0.002102 0.010333 0.000000 0.000000 0.000000
# 4 0.000000 0.000000 0.000000 0.027624 0.000000 0.000000
# 5 0.000000 0.000000 0.000000 0.000000 -0.003733 0.000000
# 6 0.000000 0.000000 0.000000 0.000000 0.000000 0.016444
#
#
# Mechanical properties :
#
#
# Convention : Reuss Voigt Hill
#
# Bulk Modulus (GPa) = 92.96544 100.93322 96.94933
# Shear Modulus (GPa) = 58.54671 -15.59866 21.47402
#
# Velocity S-wave (km/s) = 4.76997 -2.46211 2.88882
# Velocity P-wave (km/s) = 8.15263 5.58053 6.98598
#
# Compressibility (1/GPa) = 0.01075669
#
# Stress axis : x y z
#
# Youngs Moduli (GPa) = 146.80014 111.44097 96.77461
#
# Poissons Ratio (x) = 0.31763 0.26412
# Poissons Ratio (y) = 0.41841 0.20337
# Poissons Ratio (z) = 0.40066 0.23420
#
# Static dielectric constant tensor:
#      x y z
#    x 2.073450 0.000000 0.000000 
#    y 0.000000 1.988470 0.000000 
#    z 0.000000 0.000000 2.182580 
# 
# From -- ./inp_files/5666.got.cif
#   From: 2010.05.17/outbox.cif.g08.bks.cpg/sg68_3_cif.got.tgz:5666.got - 2010.06.03 18:57:09.
