data_PCOD9509478
_publ_section_title
;
Structure prediction by ZEFSAII (Michael W. Deem and Ramdas Pophale) SiO2 
 PCOD9509478
Probable space group: C C C A
;
_chemical_formula_sum "Si O2"
_cell_formula_units_Z 68
_cell_length_a 8.794860
_cell_length_b 17.455354
_cell_length_c 16.852243
_cell_angle_alpha 90.000000
_cell_angle_beta 90.000000
_cell_angle_gamma 90.000000
_cell_volume 2587.112440
_symmetry_space_group_name_H-M "C C C A"
_symmetry_group_IT_number 68
_space_group.IT_coordinate_system_code '2'
_symmetry_cell_setting 'orthorhombic'
loop_
_space_group_symop_operation_xyz
x,y,z
-x,1/2-y,z
x,1/2-y,1/2-z
-x,y,1/2-z
-x,-y,-z
x,1/2+y,-z
-x,1/2+y,1/2+z
x,-y,1/2+z
1/2+x,1/2+y,z
1/2-x,-y,z
1/2+x,-y,1/2-z
1/2-x,1/2+y,1/2-z
1/2-x,1/2-y,-z
1/2+x,y,-z
1/2-x,y,1/2+z
1/2+x,1/2-y,1/2+z
loop_
_atom_site_type_symbol
_atom_site_label
_atom_site_fract_x
_atom_site_fract_y
_atom_site_fract_z
Si Si1 0.000000 0.250000 0.250000
Si Si2 0.559710 0.345666 0.492077
Si Si3 0.250000 0.500000 0.148047
Si Si4 0.313859 0.329599 0.611222
Si Si5 0.000000 0.581067 0.250000
Si Si6 0.183240 0.584500 0.394532
O O1 0.109785 0.200479 0.308328
O O2 0.422296 0.308003 0.539459
O O3 0.647172 0.305429 0.418569
O O4 0.681873 0.371100 0.559292
O O5 0.467257 0.415321 0.449565
O O6 0.302316 0.578080 0.107269
O O7 0.108501 0.527234 0.199527
O O8 0.118017 0.620264 0.311899
O O9 0.250000 0.500000 0.379242
#
# Coordination Sequence:
#
# PCOD9509478 Si02
#       6
#     4  16   8  16   8  16
#     4  12  30  52  76 110 158 224 248 318 386 492
#     4  10  24  40  69 103 147 193 252 319 378 459
#     4  12  24  42  70 112 152 200 256 326 374 464
#     4  11  26  46  75 107 152 199 261 311 396 449
#     4  12  23  34  60  98 153 188 242 302 385 438
#     4  11  21  36  58  99 145 189 233 306 383 444
#
# _framework density 26.284129
#
# number of rings (size 3 to 8) (size 9 to 14) (size 15 to 20)
#    0.000    0.941    3.529    2.824    9.882    0.941 
#    0.000    0.000    0.000    9.176    0.000    0.000 
#    0.000    0.000    0.000    0.000    0.000    0.000 
#
# Total GULP energy -189843.844010 kJ/mol
# GULP energy per Si atom -5583.642471 kJ/mol
# Density = 2.622431 g / cm^3
# Si number density = 26.284129 Si / 1000 Ang^3
#
#
#
# Elastic Constant Matrix: (Units=GPa)
#
#
# Indices 1 2 3 4 5 6 
#
# 1 159.8741 14.1427 44.3057 0.0000 0.0000 0.0000
# 2 14.1427 67.2940 7.6567 0.0000 0.0000 0.0000
# 3 44.3057 7.6567 105.9021 0.0000 0.0000 0.0000
# 4 0.0000 0.0000 0.0000 6.3401 0.0000 0.0000
# 5 0.0000 0.0000 0.0000 0.0000 223.5271 0.0000
# 6 0.0000 0.0000 0.0000 0.0000 0.0000 17.2243
#
#
#
# Elastic Compliance Matrix: (Units=1/GPa)
#
#
# Indices 1 2 3 4 5 6 
#
# 1 0.007166 -0.001175 -0.002913 0.000000 0.000000 0.000000
# 2 -0.001175 0.015176 -0.000606 0.000000 0.000000 0.000000
# 3 -0.002913 -0.000606 0.010705 0.000000 0.000000 0.000000
# 4 0.000000 0.000000 0.000000 0.157726 0.000000 0.000000
# 5 0.000000 0.000000 0.000000 0.000000 0.004474 0.000000
# 6 0.000000 0.000000 0.000000 0.000000 0.000000 0.058057
#
#
# Mechanical properties :
#
#
# Convention : Reuss Voigt Hill
#
# Bulk Modulus (GPa) = 42.26500 51.69781 46.98141
# Shear Modulus (GPa) = 18.47893 67.21598 42.84745
#
# Velocity S-wave (km/s) = 2.65438 5.06245 4.04191
# Velocity P-wave (km/s) = 5.05067 7.34048 6.30047
#
# Compressibility (1/GPa) = 0.02366024
#
# Stress axis : x y z
#
# Youngs Moduli (GPa) = 139.54504 65.89376 93.41218
#
# Poissons Ratio (x) = 0.07740 0.27212
# Poissons Ratio (y) = 0.16391 0.05659
# Poissons Ratio (z) = 0.40651 0.03992
#
# Static dielectric constant tensor:
#      x y z
#    x 2.060130 0.000000 0.000000 
#    y 0.000000 2.203960 0.000000 
#    z 0.000000 0.000000 2.091590 
# 
# From -- ./inp_files/28032.got.cif
#   From: 2010.05.17/outbox.cif.g08.bks.cpg/sg68_15_cif.got.tgz:28032.got - 2010.06.03 18:57:09.
