data_PCOD9509915
_publ_section_title
;
Structure prediction by ZEFSAII (Michael W. Deem and Ramdas Pophale) SiO2 
 PCOD9509915
Probable space group: C C C A
;
_chemical_formula_sum "Si O2"
_cell_formula_units_Z 80
_cell_length_a 12.835792
_cell_length_b 18.863171
_cell_length_c 13.547050
_cell_angle_alpha 90.000000
_cell_angle_beta 90.000000
_cell_angle_gamma 90.000000
_cell_volume 3280.062404
_symmetry_space_group_name_H-M "C C C A"
_symmetry_group_IT_number 68
_space_group.IT_coordinate_system_code '2'
_symmetry_cell_setting 'orthorhombic'
loop_
_space_group_symop_operation_xyz
x,y,z
-x,1/2-y,z
x,1/2-y,1/2-z
-x,y,1/2-z
-x,-y,-z
x,1/2+y,-z
-x,1/2+y,1/2+z
x,-y,1/2+z
1/2+x,1/2+y,z
1/2-x,-y,z
1/2+x,-y,1/2-z
1/2-x,1/2+y,1/2-z
1/2-x,1/2-y,-z
1/2+x,y,-z
1/2-x,y,1/2+z
1/2+x,1/2-y,1/2+z
loop_
_atom_site_type_symbol
_atom_site_label
_atom_site_fract_x
_atom_site_fract_y
_atom_site_fract_z
Si Si1 0.758330 0.697808 0.171034
Si Si2 0.631973 0.431994 0.462841
Si Si3 0.006394 0.942246 0.865435
Si Si4 0.178153 0.657929 0.628000
Si Si5 0.527849 0.169021 0.363247
O O1 0.819390 0.750000 0.250000
O O2 0.696342 0.653016 0.251813
O O3 0.849565 0.657470 0.117101
O O4 0.696782 0.757520 0.110004
O O5 0.604198 0.446367 0.577622
O O6 0.593107 0.503192 0.408626
O O7 0.737377 0.392540 0.427164
O O8 0.543875 0.377913 0.429453
O O9 0.060784 0.866553 0.884149
O O10 0.000000 0.956535 0.750000
O O11 0.500000 0.250000 0.382958
O O12 0.500000 0.150250 0.250000
#
# Coordination Sequence:
#
# PCOD9509915 Si02
#       5
#    16  16  16  16  16
#     4   8  16  30  66  93 122 149 209 263 320 373
#     4  11  22  40  65  92 125 170 228 265 321 402
#     4  11  26  43  59  90 137 176 213 267 337 400
#     4   9  18  41  63  93 129 163 210 272 324 395
#     4  11  13  30  62  99 120 148 210 279 314 356
#
# _framework density 24.389779000000001
#
# number of rings (size 3 to 8) (size 9 to 14) (size 15 to 20)
#    1.200    0.600    6.000    1.200    0.000    0.000 
#    3.600    9.000    0.000    0.000    0.000    0.000 
#    0.000    0.000    0.000    0.000    0.000    0.000 
#
# Total GULP energy -222933.371732 kJ/mol
# GULP energy per Si atom -5573.334293 kJ/mol
# Density = 2.433427 g / cm^3
# Si number density = 24.389779 Si / 1000 Ang^3
#
#
#
# Elastic Constant Matrix: (Units=GPa)
#
#
# Indices 1 2 3 4 5 6 
#
# 1 60.9362 26.0835 32.0260 0.0000 0.0000 0.0000
# 2 26.0835 54.1709 35.8979 0.0000 0.0000 0.0000
# 3 32.0260 35.8979 130.7085 0.0000 0.0000 0.0000
# 4 0.0000 0.0000 0.0000 988.8491 0.0000 0.0000
# 5 0.0000 0.0000 0.0000 0.0000 17.9812 0.0000
# 6 0.0000 0.0000 0.0000 0.0000 0.0000 3.8057
#
#
#
# Elastic Compliance Matrix: (Units=1/GPa)
#
#
# Indices 1 2 3 4 5 6 
#
# 1 0.021578 -0.008418 -0.002975 0.000000 0.000000 0.000000
# 2 -0.008418 0.025852 -0.005037 0.000000 0.000000 0.000000
# 3 -0.002975 -0.005037 0.009763 0.000000 0.000000 0.000000
# 4 0.000000 0.000000 0.000000 0.001011 0.000000 0.000000
# 5 0.000000 0.000000 0.000000 0.000000 0.055614 0.000000
# 6 0.000000 0.000000 0.000000 0.000000 0.000000 0.262761
#
#
# Mechanical properties :
#
#
# Convention : Reuss Voigt Hill
#
# Bulk Modulus (GPa) = 41.09948 48.20341 44.65144
# Shear Modulus (GPa) = 11.97464 212.24775 112.11119
#
# Velocity S-wave (km/s) = 2.21819 9.33874 6.78721
# Velocity P-wave (km/s) = 4.84233 11.66574 8.93134
#
# Compressibility (1/GPa) = 0.02433121
#
# Stress axis : x y z
#
# Youngs Moduli (GPa) = 46.34455 38.68225 102.42795
#
# Poissons Ratio (x) = 0.32564 0.30471
# Poissons Ratio (y) = 0.39014 0.51596
# Poissons Ratio (z) = 0.13787 0.19485
#
# Static dielectric constant tensor:
#      x y z
#    x 1.914290 0.000000 0.000000 
#    y 0.000000 1.991820 0.000000 
#    z 0.000000 0.000000 2.520300 
# 
# From -- ./inp_files/13194.got.cif
#   From: 2010.05.17/outbox.cif.g08.bks.cpg/sg68_7_cif.got.tgz:13194.got - 2010.06.03 18:57:09.
