data_PCOD9509311
_publ_section_title
;
Structure prediction by ZEFSAII (Michael W. Deem and Ramdas Pophale) SiO2 
 PCOD9509311
Probable space group: C C C A
;
_chemical_formula_sum "Si O2"
_cell_formula_units_Z 52
_cell_length_a 17.946983
_cell_length_b 9.398620
_cell_length_c 14.055718
_cell_angle_alpha 90.000000
_cell_angle_beta 90.000000
_cell_angle_gamma 90.000000
_cell_volume 2370.874565
_symmetry_space_group_name_H-M "C C C A"
_symmetry_group_IT_number 68
_space_group.IT_coordinate_system_code '2'
_symmetry_cell_setting 'orthorhombic'
loop_
_space_group_symop_operation_xyz
x,y,z
-x,1/2-y,z
x,1/2-y,1/2-z
-x,y,1/2-z
-x,-y,-z
x,1/2+y,-z
-x,1/2+y,1/2+z
x,-y,1/2+z
1/2+x,1/2+y,z
1/2-x,-y,z
1/2+x,-y,1/2-z
1/2-x,1/2+y,1/2-z
1/2-x,1/2-y,-z
1/2+x,y,-z
1/2-x,y,1/2+z
1/2+x,1/2-y,1/2+z
loop_
_atom_site_type_symbol
_atom_site_label
_atom_site_fract_x
_atom_site_fract_y
_atom_site_fract_z
Si Si1 0.662363 0.519120 0.392431
Si Si2 0.500000 0.750000 0.750000
Si Si3 0.586424 0.290069 0.516111
Si Si4 0.924295 0.026402 0.296326
O O1 0.750000 0.500000 0.403019
O O2 0.619279 0.379203 0.428871
O O3 0.632628 0.650850 0.454798
O O4 0.638971 0.542570 0.282853
O O5 0.552266 0.639369 0.692834
O O6 0.500000 0.250000 0.505029
O O7 0.592033 0.396770 0.606240
O O8 0.000000 0.089144 0.250000
#
# Coordination Sequence:
#
# PCOD9509311 Si02
#       4
#    16   4  16  16
#     4  12  28  45  70 110 149 184 235 299 371 416
#     4   8  20  40  70 104 124 170 256 284 340 408
#     4  12  25  47  77 102 142 193 244 292 352 435
#     4  10  23  43  72 101 141 182 244 288 353 426
#
# _framework density 21.932834
#
# number of rings (size 3 to 8) (size 9 to 14) (size 15 to 20)
#    0.923    0.000    3.077    2.769    6.462    1.231 
#    5.538    0.000    0.000    0.000    0.000    0.000 
#    0.000    0.000    0.000    0.000    0.000    0.000 
#
# Total GULP energy -145531.512056 kJ/mol
# GULP energy per Si atom -5597.365848 kJ/mol
# Density = 2.188291 g / cm^3
# Si number density = 21.932834 Si / 1000 Ang^3
#
#
#
# Elastic Constant Matrix: (Units=GPa)
#
#
# Indices 1 2 3 4 5 6 
#
# 1 161.7339 56.9202 37.8929 0.0000 0.0000 0.0000
# 2 56.9202 146.3370 24.6127 0.0000 0.0000 0.0000
# 3 37.8929 24.6127 89.9672 0.0000 0.0000 0.0000
# 4 0.0000 0.0000 0.0000 58.1813 0.0000 0.0000
# 5 0.0000 0.0000 0.0000 0.0000 -9.9112 0.0000
# 6 0.0000 0.0000 0.0000 0.0000 0.0000 24.0834
#
#
#
# Elastic Compliance Matrix: (Units=1/GPa)
#
#
# Indices 1 2 3 4 5 6 
#
# 1 0.007678 -0.002560 -0.002533 0.000000 0.000000 0.000000
# 2 -0.002560 0.008017 -0.001115 0.000000 0.000000 0.000000
# 3 -0.002533 -0.001115 0.012487 0.000000 0.000000 0.000000
# 4 0.000000 0.000000 0.000000 0.017188 0.000000 0.000000
# 5 0.000000 0.000000 0.000000 0.000000 -0.100896 0.000000
# 6 0.000000 0.000000 0.000000 0.000000 0.000000 0.041522
#
#
# Mechanical properties :
#
#
# Convention : Reuss Voigt Hill
#
# Bulk Modulus (GPa) = 63.43233 70.76553 67.09893
# Shear Modulus (GPa) = 1363.48171 33.04485 698.26328
#
# Velocity S-wave (km/s) = 24.96021 3.88575 17.86212
# Velocity P-wave (km/s) = 29.32007 7.24340 21.35572
#
# Compressibility (1/GPa) = 0.01576483
#
# Stress axis : x y z
#
# Youngs Moduli (GPa) = 130.24966 124.73640 80.08238
#
# Poissons Ratio (x) = 0.31936 0.20287
# Poissons Ratio (y) = 0.33347 0.08928
# Poissons Ratio (z) = 0.32996 0.13907
#
# Static dielectric constant tensor:
#      x y z
#    x 1.764250 0.000000 0.000000 
#    y 0.000000 1.823340 0.000000 
#    z 0.000000 0.000000 1.847900 
# 
# From -- ./inp_files/18958.got.cif
#   From: 2010.05.17/outbox.cif.g08.bks.cpg/sg68_10_cif.got.tgz:18958.got - 2010.06.03 18:57:09.
