data_PCOD9509055
_publ_section_title
;
Structure prediction by ZEFSAII (Michael W. Deem and Ramdas Pophale) SiO2 
 PCOD9509055
Probable space group: C C C A
;
_chemical_formula_sum "Si O2"
_cell_formula_units_Z 64
_cell_length_a 8.753371
_cell_length_b 13.024800
_cell_length_c 24.327891
_cell_angle_alpha 90.000000
_cell_angle_beta 90.000000
_cell_angle_gamma 90.000000
_cell_volume 2773.644909
_symmetry_space_group_name_H-M "C C C A"
_symmetry_group_IT_number 68
_space_group.IT_coordinate_system_code '2'
_symmetry_cell_setting 'orthorhombic'
loop_
_space_group_symop_operation_xyz
x,y,z
-x,1/2-y,z
x,1/2-y,1/2-z
-x,y,1/2-z
-x,-y,-z
x,1/2+y,-z
-x,1/2+y,1/2+z
x,-y,1/2+z
1/2+x,1/2+y,z
1/2-x,-y,z
1/2+x,-y,1/2-z
1/2-x,1/2+y,1/2-z
1/2-x,1/2-y,-z
1/2+x,y,-z
1/2-x,y,1/2+z
1/2+x,1/2-y,1/2+z
loop_
_atom_site_type_symbol
_atom_site_label
_atom_site_fract_x
_atom_site_fract_y
_atom_site_fract_z
Si Si1 0.536821 0.370653 0.400818
Si Si2 0.250000 0.000000 0.599618
Si Si3 0.500000 0.250000 0.750000
Si Si4 0.000000 0.750000 0.250000
Si Si5 0.379913 0.327561 0.979294
Si Si6 0.749593 0.115691 0.690687
O O1 0.500000 0.250000 0.394066
O O2 0.401926 0.443125 0.375296
O O3 0.549888 0.383054 0.466745
O O4 0.701559 0.389120 0.373131
O O5 0.181649 0.909341 0.562888
O O6 0.602659 0.177831 0.710773
O O7 0.108827 0.822342 0.284705
O O8 0.500000 0.250000 0.952625
O O9 0.250000 0.250000 0.000000
O O10 0.750000 0.000000 0.712313
#
# Coordination Sequence:
#
# PCOD9509055 Si02
#       6
#    16   8   4   4  16  16
#     4  11  24  43  64 102 139 177 235 288 335 405
#     4  12  24  44  68  96 144 194 230 284 346 392
#     4  10  26  50  72 100 138 174 226 282 364 428
#     4  10  22  46  72  92 142 166 214 298 344 412
#     4  11  23  42  66  94 139 189 231 278 334 396
#     4  11  24  45  72 102 131 178 223 281 352 417
#
# _framework density 23.07433
#
# number of rings (size 3 to 8) (size 9 to 14) (size 15 to 20)
#    0.000    1.000    6.250    1.500    1.750    2.000 
#    4.500    0.000    0.000    0.000    0.000    0.000 
#    0.000    0.000    0.000    0.000    0.000    0.000 
#
# Total GULP energy -178773.652954 kJ/mol
# GULP energy per Si atom -5586.676655 kJ/mol
# Density = 2.302181 g / cm^3
# Si number density = 23.074330 Si / 1000 Ang^3
#
#
#
# Elastic Constant Matrix: (Units=GPa)
#
#
# Indices 1 2 3 4 5 6 
#
# 1 130.8126 66.1303 23.6853 0.0000 0.0000 0.0000
# 2 66.1303 160.6259 23.0779 0.0000 0.0000 0.0000
# 3 23.6853 23.0779 47.3783 0.0000 0.0000 0.0000
# 4 0.0000 0.0000 0.0000 1.8056 0.0000 0.0000
# 5 0.0000 0.0000 0.0000 0.0000 630.7611 0.0000
# 6 0.0000 0.0000 0.0000 0.0000 0.0000 45.1826
#
#
#
# Elastic Compliance Matrix: (Units=1/GPa)
#
#
# Indices 1 2 3 4 5 6 
#
# 1 0.010099 -0.003691 -0.003251 0.000000 0.000000 0.000000
# 2 -0.003691 0.008043 -0.002073 0.000000 0.000000 0.000000
# 3 -0.003251 -0.002073 0.023741 0.000000 0.000000 0.000000
# 4 0.000000 0.000000 0.000000 0.553833 0.000000 0.000000
# 5 0.000000 0.000000 0.000000 0.000000 0.001585 0.000000
# 6 0.000000 0.000000 0.000000 0.000000 0.000000 0.022132
#
#
# Mechanical properties :
#
#
# Convention : Reuss Voigt Hill
#
# Bulk Modulus (GPa) = 41.92023 62.73375 52.32699
# Shear Modulus (GPa) = 7.74696 150.61141 79.17919
#
# Velocity S-wave (km/s) = 1.83431 8.08789 5.86424
# Velocity P-wave (km/s) = 4.76373 10.69885 8.28126
#
# Compressibility (1/GPa) = 0.02385483
#
# Stress axis : x y z
#
# Youngs Moduli (GPa) = 99.02058 124.33322 42.12035
#
# Poissons Ratio (x) = 0.45888 0.13693
# Poissons Ratio (y) = 0.36545 0.08730
# Poissons Ratio (z) = 0.32191 0.25770
#
# Static dielectric constant tensor:
#      x y z
#    x 1.961970 0.000000 0.000000 
#    y 0.000000 1.834720 0.000000 
#    z 0.000000 0.000000 2.010900 
# 
# From -- ./inp_files/53843.got.cif
#   From: 2010.05.17/outbox.cif.g08.bks.cpg/sg68_27_cif.got.tgz:53843.got - 2010.06.03 18:57:09.
