data_PCOD9509191
_publ_section_title
;
Structure prediction by ZEFSAII (Michael W. Deem and Ramdas Pophale) SiO2 
 PCOD9509191
Probable space group: C C C A
;
_chemical_formula_sum "Si O2"
_cell_formula_units_Z 52
_cell_length_a 16.363844
_cell_length_b 9.955030
_cell_length_c 13.397578
_cell_angle_alpha 90.000000
_cell_angle_beta 90.000000
_cell_angle_gamma 90.000000
_cell_volume 2182.499726
_symmetry_space_group_name_H-M "C C C A"
_symmetry_group_IT_number 68
_space_group.IT_coordinate_system_code '2'
_symmetry_cell_setting 'orthorhombic'
loop_
_space_group_symop_operation_xyz
x,y,z
-x,1/2-y,z
x,1/2-y,1/2-z
-x,y,1/2-z
-x,-y,-z
x,1/2+y,-z
-x,1/2+y,1/2+z
x,-y,1/2+z
1/2+x,1/2+y,z
1/2-x,-y,z
1/2+x,-y,1/2-z
1/2-x,1/2+y,1/2-z
1/2-x,1/2-y,-z
1/2+x,y,-z
1/2-x,y,1/2+z
1/2+x,1/2-y,1/2+z
loop_
_atom_site_type_symbol
_atom_site_label
_atom_site_fract_x
_atom_site_fract_y
_atom_site_fract_z
Si Si1 0.862071 0.237266 0.099608
Si Si2 0.402916 0.005146 0.495877
Si Si3 0.000000 0.250000 0.250000
Si Si4 0.801707 0.128449 0.688504
O O1 0.773077 0.208804 0.138410
O O2 0.934217 0.185635 0.173790
O O3 0.872902 0.147901 0.000558
O O4 0.875721 0.393363 0.081588
O O5 0.361139 0.065299 0.395273
O O6 0.500000 0.000000 0.500000
O O7 0.843409 0.250000 0.750000
O O8 0.750000 0.000000 0.734353
#
# Coordination Sequence:
#
# PCOD9509191 Si02
#       4
#    16  16   4  16
#     4  11  23  42  66  94 133 180 226 283 352 414
#     4  11  22  42  63  95 132 179 222 278 344 416
#     4  12  20  40  72  90 134 180 222 294 360 404
#     4  10  23  41  66  99 136 177 232 285 348 414
#
# _framework density 23.825890999999999
#
# number of rings (size 3 to 8) (size 9 to 14) (size 15 to 20)
#    0.000    1.231    4.615    0.923    0.000    2.462 
#    0.000    0.000    0.000    0.000    0.000    0.000 
#    0.000    0.000    0.000    0.000    0.000    0.000 
#
# Total GULP energy -144939.900626 kJ/mol
# GULP energy per Si atom -5574.611563 kJ/mol
# Density = 2.377166 g / cm^3
# Si number density = 23.825891 Si / 1000 Ang^3
#
#
#
# Elastic Constant Matrix: (Units=GPa)
#
#
# Indices 1 2 3 4 5 6 
#
# 1 139.5497 27.0499 38.2544 0.0000 0.0000 0.0000
# 2 27.0499 87.3141 30.7548 0.0000 0.0000 0.0000
# 3 38.2544 30.7548 52.6053 0.0000 0.0000 0.0000
# 4 0.0000 0.0000 0.0000 35.0336 0.0000 0.0000
# 5 0.0000 0.0000 0.0000 0.0000 46.4069 0.0000
# 6 0.0000 0.0000 0.0000 0.0000 0.0000 39.1403
#
#
#
# Elastic Compliance Matrix: (Units=1/GPa)
#
#
# Indices 1 2 3 4 5 6 
#
# 1 0.008975 -0.000606 -0.006172 0.000000 0.000000 0.000000
# 2 -0.000606 0.014464 -0.008015 0.000000 0.000000 0.000000
# 3 -0.006172 -0.008015 0.028184 0.000000 0.000000 0.000000
# 4 0.000000 0.000000 0.000000 0.028544 0.000000 0.000000
# 5 0.000000 0.000000 0.000000 0.000000 0.021549 0.000000
# 6 0.000000 0.000000 0.000000 0.000000 0.000000 0.025549
#
#
# Mechanical properties :
#
#
# Convention : Reuss Voigt Hill
#
# Bulk Modulus (GPa) = 45.38138 52.39859 48.88999
# Shear Modulus (GPa) = 30.45103 36.34349 33.39726
#
# Velocity S-wave (km/s) = 3.57888 3.90985 3.74802
# Velocity P-wave (km/s) = 6.01384 6.51326 6.26853
#
# Compressibility (1/GPa) = 0.02203547
#
# Stress axis : x y z
#
# Youngs Moduli (GPa) = 111.41462 69.13730 35.48126
#
# Poissons Ratio (x) = 0.04193 0.21900
# Poissons Ratio (y) = 0.06757 0.28439
# Poissons Ratio (z) = 0.68769 0.55414
#
# Static dielectric constant tensor:
#      x y z
#    x 1.840080 0.000000 0.000000 
#    y 0.000000 2.016790 0.000000 
#    z 0.000000 0.000000 2.105600 
# 
# From -- ./inp_files/23042.got.cif
#   From: 2010.05.17/outbox.cif.g08.bks.cpg/sg68_12_cif.got.tgz:23042.got - 2010.06.03 18:57:09.
