data_PCOD9509193
_publ_section_title
;
Structure prediction by ZEFSAII (Michael W. Deem and Ramdas Pophale) SiO2 
 PCOD9509193
Probable space group: C C C A
;
_chemical_formula_sum "Si O2"
_cell_formula_units_Z 52
_cell_length_a 8.504032
_cell_length_b 20.094023
_cell_length_c 12.751119
_cell_angle_alpha 90.000000
_cell_angle_beta 90.000000
_cell_angle_gamma 90.000000
_cell_volume 2178.913951
_symmetry_space_group_name_H-M "C C C A"
_symmetry_group_IT_number 68
_space_group.IT_coordinate_system_code '2'
_symmetry_cell_setting 'orthorhombic'
loop_
_space_group_symop_operation_xyz
x,y,z
-x,1/2-y,z
x,1/2-y,1/2-z
-x,y,1/2-z
-x,-y,-z
x,1/2+y,-z
-x,1/2+y,1/2+z
x,-y,1/2+z
1/2+x,1/2+y,z
1/2-x,-y,z
1/2+x,-y,1/2-z
1/2-x,1/2+y,1/2-z
1/2-x,1/2-y,-z
1/2+x,y,-z
1/2-x,y,1/2+z
1/2+x,1/2-y,1/2+z
loop_
_atom_site_type_symbol
_atom_site_label
_atom_site_fract_x
_atom_site_fract_y
_atom_site_fract_z
Si Si1 0.086260 0.651832 0.080845
Si Si2 0.000000 0.750000 0.250000
Si Si3 0.248195 0.421019 0.411500
Si Si4 0.000000 0.143044 0.250000
Si Si5 0.000000 0.750000 0.592155
O O1 0.914991 0.617068 0.096284
O O2 0.099826 0.699876 0.179433
O O3 0.193156 0.594368 0.031651
O O4 0.100686 0.705157 0.985597
O O5 0.250000 0.500000 0.399348
O O6 0.127116 0.396249 0.319988
O O7 0.075538 0.194104 0.334153
#
# Coordination Sequence:
#
# PCOD9509193 Si02
#       5
#    16   4  16   8   8
#     4  10  23  41  67  95 131 175 219 282 330 387
#     4  10  24  40  64 102 132 170 236 282 336 382
#     4  11  24  44  67  97 136 179 220 265 332 405
#     4   9  20  37  66  97 126 167 214 272 324 391
#     4   8  18  40  64  94 128 162 216 272 336 378
#
# _framework density 23.865099000000001
#
# number of rings (size 3 to 8) (size 9 to 14) (size 15 to 20)
#    0.000    2.154    0.000    0.923    0.000   22.154 
#    0.000    7.692    0.000    0.000    0.000    0.000 
#    0.000    0.000    0.000    0.000    0.000    0.000 
#
# Total GULP energy -144867.409091 kJ/mol
# GULP energy per Si atom -5571.823427 kJ/mol
# Density = 2.381078 g / cm^3
# Si number density = 23.865099 Si / 1000 Ang^3
#
#
#
# Elastic Constant Matrix: (Units=GPa)
#
#
# Indices 1 2 3 4 5 6 
#
# 1 122.7525 71.2949 31.8311 0.0000 0.0000 0.0000
# 2 71.2949 201.1066 80.2232 0.0000 0.0000 0.0000
# 3 31.8311 80.2232 153.1436 0.0000 0.0000 0.0000
# 4 0.0000 0.0000 0.0000 46.6915 0.0000 0.0000
# 5 0.0000 0.0000 0.0000 0.0000 14.5652 0.0000
# 6 0.0000 0.0000 0.0000 0.0000 0.0000 16.5884
#
#
#
# Elastic Compliance Matrix: (Units=1/GPa)
#
#
# Indices 1 2 3 4 5 6 
#
# 1 0.010269 -0.003526 -0.000287 0.000000 0.000000 0.000000
# 2 -0.003526 0.007497 -0.003194 0.000000 0.000000 0.000000
# 3 -0.000287 -0.003194 0.008263 0.000000 0.000000 0.000000
# 4 0.000000 0.000000 0.000000 0.021417 0.000000 0.000000
# 5 0.000000 0.000000 0.000000 0.000000 0.068657 0.000000
# 6 0.000000 0.000000 0.000000 0.000000 0.000000 0.060283
#
#
# Mechanical properties :
#
#
# Convention : Reuss Voigt Hill
#
# Bulk Modulus (GPa) = 83.24034 93.74457 88.49246
# Shear Modulus (GPa) = 25.71955 35.14592 30.43274
#
# Velocity S-wave (km/s) = 3.28640 3.84173 3.57487
# Velocity P-wave (km/s) = 7.02537 7.68406 7.36209
#
# Compressibility (1/GPa) = 0.01201341
#
# Stress axis : x y z
#
# Youngs Moduli (GPa) = 97.38258 133.39352 121.02390
#
# Poissons Ratio (x) = 0.47031 0.03479
# Poissons Ratio (y) = 0.34335 0.38658
# Poissons Ratio (z) = 0.02799 0.42609
#
# Static dielectric constant tensor:
#      x y z
#    x 2.051050 0.000000 0.000000 
#    y 0.000000 1.926400 0.000000 
#    z 0.000000 0.000000 1.999330 
# 
# From -- ./inp_files/19021.got.cif
#   From: 2010.05.17/outbox.cif.g08.bks.cpg/sg68_10_cif.got.tgz:19021.got - 2010.06.03 18:57:09.
