data_PCOD9509197
_publ_section_title
;
Structure prediction by ZEFSAII (Michael W. Deem and Ramdas Pophale) SiO2 
 PCOD9509197
Probable space group: C C C A
;
_chemical_formula_sum "Si O2"
_cell_formula_units_Z 80
_cell_length_a 24.645157
_cell_length_b 29.937877
_cell_length_c 5.230245
_cell_angle_alpha 90.000000
_cell_angle_beta 90.000000
_cell_angle_gamma 90.000000
_cell_volume 3858.998608
_symmetry_space_group_name_H-M "C C C A"
_symmetry_group_IT_number 68
_space_group.IT_coordinate_system_code '2'
_symmetry_cell_setting 'orthorhombic'
loop_
_space_group_symop_operation_xyz
x,y,z
-x,1/2-y,z
x,1/2-y,1/2-z
-x,y,1/2-z
-x,-y,-z
x,1/2+y,-z
-x,1/2+y,1/2+z
x,-y,1/2+z
1/2+x,1/2+y,z
1/2-x,-y,z
1/2+x,-y,1/2-z
1/2-x,1/2+y,1/2-z
1/2-x,1/2-y,-z
1/2+x,y,-z
1/2-x,y,1/2+z
1/2+x,1/2-y,1/2+z
loop_
_atom_site_type_symbol
_atom_site_label
_atom_site_fract_x
_atom_site_fract_y
_atom_site_fract_z
Si Si1 0.716539 0.650649 0.808891
Si Si2 0.437619 0.982243 0.533310
Si Si3 0.897829 0.115306 0.854839
Si Si4 0.830136 0.750000 0.250000
Si Si5 0.596188 0.750000 0.250000
Si Si6 0.442614 0.654093 0.348483
O O1 0.760841 0.641804 0.590275
O O2 0.663452 0.621438 0.743456
O O3 0.702005 0.703760 0.792249
O O4 0.426213 0.933023 0.636325
O O5 0.500000 0.000000 0.500000
O O6 0.413294 0.014014 0.751060
O O7 0.931306 0.142833 0.641598
O O8 0.900576 0.134000 0.143167
O O9 0.866469 0.757635 0.501694
O O10 0.561223 0.793244 0.310586
O O11 0.500000 0.636130 0.250000
#
# Coordination Sequence:
#
# PCOD9509197 Si02
#       6
#    16  16  16   8   8  16
#     4  12  24  42  67  96 133 182 229 286 340 388
#     4  10  23  41  68  99 132 165 208 273 347 416
#     4  12  25  44  66 100 136 172 224 285 336 412
#     4  12  22  41  65  93 134 179 239 291 330 372
#     4  12  21  43  58  91 140 185 226 273 327 394
#     4  12  25  39  65  93 137 188 221 266 334 405
#
# _framework density 20.730768000000001
#
# number of rings (size 3 to 8) (size 9 to 14) (size 15 to 20)
#    0.000    0.400    4.000    5.100    8.400    0.000 
#    0.000    3.000    0.000    3.600    0.000    0.000 
#    0.000    0.000    0.000    0.000    0.000    0.000 
#
# Total GULP energy -223430.613072 kJ/mol
# GULP energy per Si atom -5585.765327 kJ/mol
# Density = 2.068358 g / cm^3
# Si number density = 20.730768 Si / 1000 Ang^3
#
#
#
# Elastic Constant Matrix: (Units=GPa)
#
#
# Indices 1 2 3 4 5 6 
#
# 1 63.2875 21.4459 -2.5752 0.0000 0.0000 0.0000
# 2 21.4459 110.4001 12.6876 0.0000 0.0000 0.0000
# 3 -2.5752 12.6876 111.8450 0.0000 0.0000 0.0000
# 4 0.0000 0.0000 0.0000 28.2857 0.0000 0.0000
# 5 0.0000 0.0000 0.0000 0.0000 32.8987 0.0000
# 6 0.0000 0.0000 0.0000 0.0000 0.0000 26.0291
#
#
#
# Elastic Compliance Matrix: (Units=1/GPa)
#
#
# Indices 1 2 3 4 5 6 
#
# 1 0.016980 -0.003388 0.000775 0.000000 0.000000 0.000000
# 2 -0.003388 0.009853 -0.001196 0.000000 0.000000 0.000000
# 3 0.000775 -0.001196 0.009094 0.000000 0.000000 0.000000
# 4 0.000000 0.000000 0.000000 0.035354 0.000000 0.000000
# 5 0.000000 0.000000 0.000000 0.000000 0.030396 0.000000
# 6 0.000000 0.000000 0.000000 0.000000 0.000000 0.038419
#
#
# Mechanical properties :
#
#
# Convention : Reuss Voigt Hill
#
# Bulk Modulus (GPa) = 35.32073 38.73881 37.02977
# Shear Modulus (GPa) = 31.81664 34.37430 33.09547
#
# Velocity S-wave (km/s) = 3.92184 4.07643 3.99988
# Velocity P-wave (km/s) = 6.13047 6.39403 6.26363
#
# Compressibility (1/GPa) = 0.02831199
#
# Stress axis : x y z
#
# Youngs Moduli (GPa) = 58.89142 101.48723 109.95726
#
# Poissons Ratio (x) = 0.34380 -0.08524
# Poissons Ratio (y) = 0.19950 0.13148
# Poissons Ratio (z) = -0.04566 0.12135
#
# Static dielectric constant tensor:
#      x y z
#    x 1.700420 0.000000 0.000000 
#    y 0.000000 1.768280 0.000000 
#    z 0.000000 0.000000 1.733550 
# 
# From -- ./inp_files/2406.got.cif
#   From: 2010.05.17/outbox.cif.g08.bks.cpg/sg68_2_cif.got.tgz:2406.got - 2010.06.03 18:57:09.
