data_PCOD9509738
_publ_section_title
;
Structure prediction by ZEFSAII (Michael W. Deem and Ramdas Pophale) SiO2 
 PCOD9509738
Probable space group: C C C A
;
_chemical_formula_sum "Si O2"
_cell_formula_units_Z 44
_cell_length_a 17.487228
_cell_length_b 5.113587
_cell_length_c 20.456734
_cell_angle_alpha 90.000000
_cell_angle_beta 90.000000
_cell_angle_gamma 90.000000
_cell_volume 1829.291514
_symmetry_space_group_name_H-M "C C C A"
_symmetry_group_IT_number 68
_space_group.IT_coordinate_system_code '2'
_symmetry_cell_setting 'orthorhombic'
loop_
_space_group_symop_operation_xyz
x,y,z
-x,1/2-y,z
x,1/2-y,1/2-z
-x,y,1/2-z
-x,-y,-z
x,1/2+y,-z
-x,1/2+y,1/2+z
x,-y,1/2+z
1/2+x,1/2+y,z
1/2-x,-y,z
1/2+x,-y,1/2-z
1/2-x,1/2+y,1/2-z
1/2-x,1/2-y,-z
1/2+x,y,-z
1/2-x,y,1/2+z
1/2+x,1/2-y,1/2+z
loop_
_atom_site_type_symbol
_atom_site_label
_atom_site_fract_x
_atom_site_fract_y
_atom_site_fract_z
Si Si1 0.500000 0.250000 0.456475
Si Si2 0.123029 0.654583 0.355691
Si Si3 0.250000 0.000000 0.049126
Si Si4 0.500000 0.250000 0.250000
Si Si5 0.750000 0.000000 0.709405
O O1 0.500000 0.500000 0.500000
O O2 0.572133 0.280133 0.410910
O O3 0.178570 0.468511 0.399383
O O4 0.059979 0.592923 0.298153
O O5 0.180714 0.868928 0.327851
O O6 0.250000 0.750000 0.000000
O O7 0.719321 0.250000 0.750000
#
# Coordination Sequence:
#
# PCOD9509738 Si02
#       5
#     8  16   8   4   8
#     4  11  26  49  76 109 156 201 256 318 392 467
#     4  11  25  48  79 114 157 206 262 331 394 485
#     4  12  26  48  82 112 150 204 270 328 386 456
#     4  10  24  48  74 116 162 208 258 318 430 474
#     4  12  26  46  78 112 162 200 262 324 396 476
#
# _framework density 24.053027
#
# number of rings (size 3 to 8) (size 9 to 14) (size 15 to 20)
#    0.000    0.727    1.818    4.364    0.000    5.818 
#    0.000    0.000    0.000    0.000    0.000    0.000 
#    0.000    0.000    0.000    0.000    0.000    0.000 
#
# Total GULP energy -122698.397575 kJ/mol
# GULP energy per Si atom -5577.199890 kJ/mol
# Density = 2.399828 g / cm^3
# Si number density = 24.053027 Si / 1000 Ang^3
#
#
#
# Elastic Constant Matrix: (Units=GPa)
#
#
# Indices 1 2 3 4 5 6 
#
# 1 177.0846 29.8871 88.6031 0.0000 0.0000 0.0000
# 2 29.8871 131.7909 64.3503 0.0000 0.0000 0.0000
# 3 88.6031 64.3503 179.4985 0.0000 0.0000 0.0000
# 4 0.0000 0.0000 0.0000 2.4804 0.0000 0.0000
# 5 0.0000 0.0000 0.0000 0.0000 -62.5970 0.0000
# 6 0.0000 0.0000 0.0000 0.0000 0.0000 26.5264
#
#
#
# Elastic Compliance Matrix: (Units=1/GPa)
#
#
# Indices 1 2 3 4 5 6 
#
# 1 0.007501 0.000130 -0.003749 0.000000 0.000000 0.000000
# 2 0.000130 0.009200 -0.003362 0.000000 0.000000 0.000000
# 3 -0.003749 -0.003362 0.008627 0.000000 0.000000 0.000000
# 4 0.000000 0.000000 0.000000 0.403154 0.000000 0.000000
# 5 0.000000 0.000000 0.000000 0.000000 -0.015975 0.000000
# 6 0.000000 0.000000 0.000000 0.000000 0.000000 0.037698
#
#
# Mechanical properties :
#
#
# Convention : Reuss Voigt Hill
#
# Bulk Modulus (GPa) = 87.99190 94.89501 91.44345
# Shear Modulus (GPa) = 10.68474 13.65087 12.16781
#
# Velocity S-wave (km/s) = 2.10993 2.38488 2.25161
# Velocity P-wave (km/s) = 6.52669 6.86452 6.69773
#
# Compressibility (1/GPa) = 0.01136468
#
# Stress axis : x y z
#
# Youngs Moduli (GPa) = 133.31643 108.69491 115.91544
#
# Poissons Ratio (x) = -0.01408 0.43457
# Poissons Ratio (y) = -0.01727 0.38973
# Poissons Ratio (z) = 0.49980 0.36545
#
# Static dielectric constant tensor:
#      x y z
#    x 1.985700 0.000000 0.000000 
#    y 0.000000 1.943520 0.000000 
#    z 0.000000 0.000000 1.975970 
# 
# From -- ./inp_files/34688.got.cif
#   From: 2010.05.17/outbox.cif.g08.bks.cpg/sg68_18_cif.got.tgz:34688.got - 2010.06.03 18:57:09.
