data_PCOD9509102
_publ_section_title
;
Structure prediction by ZEFSAII (Michael W. Deem and Ramdas Pophale) SiO2 
 PCOD9509102
Probable space group: C C C A
;
_chemical_formula_sum "Si O2"
_cell_formula_units_Z 64
_cell_length_a 4.862183
_cell_length_b 25.069058
_cell_length_c 23.916366
_cell_angle_alpha 90.000000
_cell_angle_beta 90.000000
_cell_angle_gamma 90.000000
_cell_volume 2915.174166
_symmetry_space_group_name_H-M "C C C A"
_symmetry_group_IT_number 68
_space_group.IT_coordinate_system_code '2'
_symmetry_cell_setting 'orthorhombic'
loop_
_space_group_symop_operation_xyz
x,y,z
-x,1/2-y,z
x,1/2-y,1/2-z
-x,y,1/2-z
-x,-y,-z
x,1/2+y,-z
-x,1/2+y,1/2+z
x,-y,1/2+z
1/2+x,1/2+y,z
1/2-x,-y,z
1/2+x,-y,1/2-z
1/2-x,1/2+y,1/2-z
1/2-x,1/2-y,-z
1/2+x,y,-z
1/2-x,y,1/2+z
1/2+x,1/2-y,1/2+z
loop_
_atom_site_type_symbol
_atom_site_label
_atom_site_fract_x
_atom_site_fract_y
_atom_site_fract_z
Si Si1 0.965750 0.333425 0.186905
Si Si2 0.467146 0.895966 0.851466
Si Si3 0.761839 0.655158 0.462386
Si Si4 0.250000 0.000000 0.290477
Si Si5 0.000000 0.750000 0.596904
O O1 0.769526 0.383632 0.172481
O O2 0.000000 0.314304 0.250000
O O3 0.275221 0.351218 0.175659
O O4 0.867482 0.291683 0.140273
O O5 0.392005 0.884186 0.916203
O O6 0.365305 0.952582 0.828978
O O7 0.450521 0.647441 0.483283
O O8 0.722312 0.715574 0.438154
O O9 0.500000 0.982507 0.250000
#
# Coordination Sequence:
#
# PCOD9509102 Si02
#       5
#    16  16  16   8   8
#     4  11  22  39  60  90 131 166 200 255 319 381
#     4  11  24  41  62  93 124 161 212 259 312 383
#     4  11  23  41  63  89 125 169 214 266 314 366
#     4  12  24  42  70  96 124 164 208 264 330 394
#     4  10  23  38  62  94 124 168 219 256 308 386
#
# _framework density 21.954091999999999
#
# number of rings (size 3 to 8) (size 9 to 14) (size 15 to 20)
#    0.000    1.000    0.000    8.625    0.000    8.000 
#    0.000    6.250    0.000    0.000    0.000    0.000 
#    0.000    0.000    0.000    0.000    0.000    0.000 
#
# Total GULP energy -178388.840640 kJ/mol
# GULP energy per Si atom -5574.651270 kJ/mol
# Density = 2.190412 g / cm^3
# Si number density = 21.954092 Si / 1000 Ang^3
#
#
#
# Elastic Constant Matrix: (Units=GPa)
#
#
# Indices 1 2 3 4 5 6 
#
# 1 62.8427 -4.8144 20.4288 0.0000 0.0000 0.0000
# 2 -4.8144 81.7590 41.6975 0.0000 0.0000 0.0000
# 3 20.4288 41.6975 121.7639 0.0000 0.0000 0.0000
# 4 0.0000 0.0000 0.0000 32.2223 0.0000 0.0000
# 5 0.0000 0.0000 0.0000 0.0000 -72.0128 0.0000
# 6 0.0000 0.0000 0.0000 0.0000 0.0000 30.6741
#
#
#
# Elastic Compliance Matrix: (Units=1/GPa)
#
#
# Indices 1 2 3 4 5 6 
#
# 1 0.017437 0.003052 -0.003971 0.000000 0.000000 0.000000
# 2 0.003052 0.015353 -0.005770 0.000000 0.000000 0.000000
# 3 -0.003971 -0.005770 0.010855 0.000000 0.000000 0.000000
# 4 0.000000 0.000000 0.000000 0.031034 0.000000 0.000000
# 5 0.000000 0.000000 0.000000 0.000000 -0.013886 0.000000
# 6 0.000000 0.000000 0.000000 0.000000 0.000000 0.032601
#
#
# Mechanical properties :
#
#
# Convention : Reuss Voigt Hill
#
# Bulk Modulus (GPa) = 33.03787 42.33216 37.68501
# Shear Modulus (GPa) = 42.78608 12.11364 27.44986
#
# Velocity S-wave (km/s) = 4.41941 2.35153 3.53984
# Velocity P-wave (km/s) = 6.41271 5.16691 5.82322
#
# Compressibility (1/GPa) = 0.03026830
#
# Stress axis : x y z
#
# Youngs Moduli (GPa) = 57.34826 65.13234 92.12690
#
# Poissons Ratio (x) = -0.19877 0.36580
# Poissons Ratio (y) = -0.17502 0.53155
# Poissons Ratio (z) = 0.22771 0.37579
#
# Static dielectric constant tensor:
#      x y z
#    x 1.781060 0.000000 0.000000 
#    y 0.000000 1.896490 0.000000 
#    z 0.000000 0.000000 1.987590 
# 
# From -- ./inp_files/42157.got.cif
#   From: 2010.05.17/outbox.cif.g08.bks.cpg/sg68_22_cif.got.tgz:42157.got - 2010.06.03 18:57:09.
