data_PCOD9509007
_publ_section_title
;
Structure prediction by ZEFSAII (Michael W. Deem and Ramdas Pophale) SiO2 
 PCOD9509007
Probable space group: C C C A
;
_chemical_formula_sum "Si O2"
_cell_formula_units_Z 64
_cell_length_a 9.425496
_cell_length_b 17.052665
_cell_length_c 13.985057
_cell_angle_alpha 90.000000
_cell_angle_beta 90.000000
_cell_angle_gamma 90.000000
_cell_volume 2247.815775
_symmetry_space_group_name_H-M "C C C A"
_symmetry_group_IT_number 68
_space_group.IT_coordinate_system_code '2'
_symmetry_cell_setting 'orthorhombic'
loop_
_space_group_symop_operation_xyz
x,y,z
-x,1/2-y,z
x,1/2-y,1/2-z
-x,y,1/2-z
-x,-y,-z
x,1/2+y,-z
-x,1/2+y,1/2+z
x,-y,1/2+z
1/2+x,1/2+y,z
1/2-x,-y,z
1/2+x,-y,1/2-z
1/2-x,1/2+y,1/2-z
1/2-x,1/2-y,-z
1/2+x,y,-z
1/2-x,y,1/2+z
1/2+x,1/2-y,1/2+z
loop_
_atom_site_type_symbol
_atom_site_label
_atom_site_fract_x
_atom_site_fract_y
_atom_site_fract_z
Si Si1 0.617279 0.941696 0.613474
Si Si2 0.186249 0.163417 0.501158
Si Si3 0.462820 0.909383 0.139676
Si Si4 0.331309 0.335707 0.297026
O O1 0.679923 0.894286 0.522067
O O2 0.625921 0.890873 0.710187
O O3 0.921814 0.855618 0.585244
O O4 0.750000 0.000000 0.629792
O O5 0.250000 0.250000 0.500000
O O6 0.017065 0.999312 0.601353
O O7 0.092143 0.158652 0.599101
O O8 0.500000 0.924160 0.250000
O O9 0.318792 0.861646 0.159092
O O10 0.332624 0.250000 0.250000
#
# Coordination Sequence:
#
# PCOD9509007 Si02
#       4
#    16  16  16  16
#     4  10  22  45  67 112 156 191 252 332 383 458
#     4  11  23  43  73 114 152 193 265 327 379 459
#     4  11  23  47  76 109 154 207 259 313 405 479
#     4  12  24  47  85 108 153 211 260 327 396 478
#
# _framework density 28.472083000000001
#
# number of rings (size 3 to 8) (size 9 to 14) (size 15 to 20)
#    0.000    1.000    7.500    0.000    0.000    7.500 
#    4.500    0.000    0.000    0.750    0.000    0.000 
#    0.000    0.000    0.000    0.000    0.000    0.000 
#
# Total GULP energy -179097.699348 kJ/mol
# GULP energy per Si atom -5596.803105 kJ/mol
# Density = 2.840728 g / cm^3
# Si number density = 28.472083 Si / 1000 Ang^3
#
#
#
# Elastic Constant Matrix: (Units=GPa)
#
#
# Indices 1 2 3 4 5 6 
#
# 1 126.0536 56.3651 23.1188 0.0000 0.0000 0.0000
# 2 56.3651 247.2170 113.1909 0.0000 0.0000 0.0000
# 3 23.1188 113.1909 235.1306 0.0000 0.0000 0.0000
# 4 0.0000 0.0000 0.0000 50.5210 0.0000 0.0000
# 5 0.0000 0.0000 0.0000 0.0000 55.6762 0.0000
# 6 0.0000 0.0000 0.0000 0.0000 0.0000 23.6463
#
#
#
# Elastic Compliance Matrix: (Units=1/GPa)
#
#
# Indices 1 2 3 4 5 6 
#
# 1 0.008837 -0.002074 0.000130 0.000000 0.000000 0.000000
# 2 -0.002074 0.005676 -0.002528 0.000000 0.000000 0.000000
# 3 0.000130 -0.002528 0.005457 0.000000 0.000000 0.000000
# 4 0.000000 0.000000 0.000000 0.019794 0.000000 0.000000
# 5 0.000000 0.000000 0.000000 0.000000 0.017961 0.000000
# 6 0.000000 0.000000 0.000000 0.000000 0.000000 0.042290
#
#
# Mechanical properties :
#
#
# Convention : Reuss Voigt Hill
#
# Bulk Modulus (GPa) = 90.71018 110.41677 100.56348
# Shear Modulus (GPa) = 44.39142 53.68380 49.03761
#
# Velocity S-wave (km/s) = 3.95285 4.34693 4.15457
# Velocity P-wave (km/s) = 7.26374 8.00371 7.64268
#
# Compressibility (1/GPa) = 0.01102412
#
# Stress axis : x y z
#
# Youngs Moduli (GPa) = 113.16297 176.19586 183.24104
#
# Poissons Ratio (x) = 0.36545 -0.02375
# Poissons Ratio (y) = 0.23471 0.46328
# Poissons Ratio (z) = -0.01467 0.44546
#
# Static dielectric constant tensor:
#      x y z
#    x 2.583790 0.000000 0.000000 
#    y 0.000000 2.330200 0.000000 
#    z 0.000000 0.000000 2.460750 
# 
# From -- ./inp_files/20441.got.cif
#   From: 2010.05.17/outbox.cif.g08.bks.cpg/sg68_11_cif.got.tgz:20441.got - 2010.06.03 18:57:09.
