data_PCOD9509773
_publ_section_title
;
Structure prediction by ZEFSAII (Michael W. Deem and Ramdas Pophale) SiO2 
 PCOD9509773
Probable space group: C C C A
;
_chemical_formula_sum "Si O2"
_cell_formula_units_Z 72
_cell_length_a 12.592814
_cell_length_b 27.006591
_cell_length_c 9.152670
_cell_angle_alpha 90.000000
_cell_angle_beta 90.000000
_cell_angle_gamma 90.000000
_cell_volume 3112.722179
_symmetry_space_group_name_H-M "C C C A"
_symmetry_group_IT_number 68
_space_group.IT_coordinate_system_code '2'
_symmetry_cell_setting 'orthorhombic'
loop_
_space_group_symop_operation_xyz
x,y,z
-x,1/2-y,z
x,1/2-y,1/2-z
-x,y,1/2-z
-x,-y,-z
x,1/2+y,-z
-x,1/2+y,1/2+z
x,-y,1/2+z
1/2+x,1/2+y,z
1/2-x,-y,z
1/2+x,-y,1/2-z
1/2-x,1/2+y,1/2-z
1/2-x,1/2-y,-z
1/2+x,y,-z
1/2-x,y,1/2+z
1/2+x,1/2-y,1/2+z
loop_
_atom_site_type_symbol
_atom_site_label
_atom_site_fract_x
_atom_site_fract_y
_atom_site_fract_z
Si Si1 0.650454 0.688296 0.477214
Si Si2 0.296685 0.250000 0.250000
Si Si3 0.250000 0.500000 0.279371
Si Si4 0.500000 0.146241 0.750000
Si Si5 0.434890 0.532512 0.613633
Si Si6 0.802961 0.399930 0.083011
O O1 0.638714 0.719958 0.626318
O O2 0.720498 0.716088 0.352515
O O3 0.541038 0.675453 0.393707
O O4 0.721015 0.641412 0.530517
O O5 0.351305 0.505815 0.179469
O O6 0.259185 0.449156 0.365998
O O7 0.608006 0.117944 0.799985
O O8 0.500000 0.550821 0.750000
O O9 0.500000 0.500000 0.500000
O O10 0.374535 0.578555 0.546447
#
# Coordination Sequence:
#
# PCOD9509773 Si02
#       6
#    16   8   8   8  16  16
#     4  11  25  51  80 117 155 200 256 333 393 488
#     4  10  24  53  83 110 156 192 258 330 414 466
#     4  12  26  48  72 104 158 200 248 324 376 450
#     4  12  26  47  82 114 160 204 264 321 402 464
#     4  12  26  44  68 103 152 204 260 309 381 463
#     4  12  26  46  76 116 153 205 261 321 383 473
#
# _framework density 23.130877999999999
#
# number of rings (size 3 to 8) (size 9 to 14) (size 15 to 20)
#    0.000    0.444    4.444    3.333    3.111    0.444 
#    0.000    1.111    0.000    0.000    0.000    0.000 
#    0.000    0.000    0.000    0.000    0.000    0.000 
#
# Total GULP energy -201240.869263 kJ/mol
# GULP energy per Si atom -5590.024146 kJ/mol
# Density = 2.307823 g / cm^3
# Si number density = 23.130878 Si / 1000 Ang^3
#
#
#
# Elastic Constant Matrix: (Units=GPa)
#
#
# Indices 1 2 3 4 5 6 
#
# 1 91.9233 44.3397 57.4277 0.0000 0.0000 0.0000
# 2 44.3397 127.8761 71.8727 0.0000 0.0000 0.0000
# 3 57.4277 71.8727 170.8464 0.0000 0.0000 0.0000
# 4 0.0000 0.0000 0.0000 -73.4889 0.0000 0.0000
# 5 0.0000 0.0000 0.0000 0.0000 72.6805 0.0000
# 6 0.0000 0.0000 0.0000 0.0000 0.0000 18.1092
#
#
#
# Elastic Compliance Matrix: (Units=1/GPa)
#
#
# Indices 1 2 3 4 5 6 
#
# 1 0.014609 -0.003020 -0.003641 0.000000 0.000000 0.000000
# 2 -0.003020 0.010866 -0.003556 0.000000 0.000000 0.000000
# 3 -0.003641 -0.003556 0.008573 0.000000 0.000000 0.000000
# 4 0.000000 0.000000 0.000000 -0.013608 0.000000 0.000000
# 5 0.000000 0.000000 0.000000 0.000000 0.013759 0.000000
# 6 0.000000 0.000000 0.000000 0.000000 0.000000 0.055220
#
#
# Mechanical properties :
#
#
# Convention : Reuss Voigt Hill
#
# Bulk Modulus (GPa) = 73.44364 81.99178 77.71771
# Shear Modulus (GPa) = 43.70977 17.92722 30.81849
#
# Velocity S-wave (km/s) = 4.35175 2.78696 3.65410
# Velocity P-wave (km/s) = 7.55451 6.77348 7.17463
#
# Compressibility (1/GPa) = 0.01361588
#
# Stress axis : x y z
#
# Youngs Moduli (GPa) = 68.44870 92.03214 116.64640
#
# Poissons Ratio (x) = 0.27789 0.42465
# Poissons Ratio (y) = 0.20668 0.41481
# Poissons Ratio (z) = 0.24919 0.32728
#
# Static dielectric constant tensor:
#      x y z
#    x 1.821290 0.000000 0.000000 
#    y 0.000000 1.935290 0.000000 
#    z 0.000000 0.000000 1.905670 
# 
# From -- ./inp_files/5256.got.cif
#   From: 2010.05.17/outbox.cif.g08.bks.cpg/sg68_3_cif.got.tgz:5256.got - 2010.06.03 18:57:09.
