data_PCOD9509448
_publ_section_title
;
Structure prediction by ZEFSAII (Michael W. Deem and Ramdas Pophale) SiO2 
 PCOD9509448
Probable space group: C C C A
;
_chemical_formula_sum "Si O2"
_cell_formula_units_Z 104
_cell_length_a 31.021340
_cell_length_b 8.806458
_cell_length_c 19.862244
_cell_angle_alpha 90.000000
_cell_angle_beta 90.000000
_cell_angle_gamma 90.000000
_cell_volume 5426.129253
_symmetry_space_group_name_H-M "C C C A"
_symmetry_group_IT_number 68
_space_group.IT_coordinate_system_code '2'
_symmetry_cell_setting 'orthorhombic'
loop_
_space_group_symop_operation_xyz
x,y,z
-x,1/2-y,z
x,1/2-y,1/2-z
-x,y,1/2-z
-x,-y,-z
x,1/2+y,-z
-x,1/2+y,1/2+z
x,-y,1/2+z
1/2+x,1/2+y,z
1/2-x,-y,z
1/2+x,-y,1/2-z
1/2-x,1/2+y,1/2-z
1/2-x,1/2-y,-z
1/2+x,y,-z
1/2-x,y,1/2+z
1/2+x,1/2-y,1/2+z
loop_
_atom_site_type_symbol
_atom_site_label
_atom_site_fract_x
_atom_site_fract_y
_atom_site_fract_z
Si Si1 0.498635 0.575391 0.831773
Si Si2 0.910238 0.943388 0.675061
Si Si3 0.250000 0.500000 0.650905
Si Si4 0.752698 0.250000 0.750000
Si Si5 0.590889 0.422227 0.669850
Si Si6 0.250000 0.500000 0.851896
Si Si7 0.167516 0.379588 0.428690
Si Si8 0.165415 0.486589 0.075980
O O1 0.500000 0.750000 0.853180
O O2 0.500000 0.570612 0.750000
O O3 0.543316 0.497172 0.850885
O O4 0.454776 0.492050 0.853291
O O5 0.911495 0.760634 0.672989
O O6 0.902351 0.982289 0.753807
O O7 0.873110 0.012404 0.628586
O O8 0.269452 0.367155 0.698476
O O9 0.210109 0.449296 0.606078
O O10 0.771740 0.372191 0.697150
O O11 0.630744 0.447586 0.620332
O O12 0.213248 0.570801 0.898057
O O13 0.167538 0.196525 0.430241
O O14 0.159412 0.441707 0.503120
#
# Coordination Sequence:
#
# PCOD9509448 Si02
#       8
#    16  16   8   8  16   8  16  16
#     4   9  17  33  54  89 120 143 179 241 300 349
#     4   9  19  36  61  84 112 151 195 240 291 349
#     4  11  23  42  62  90 124 154 196 244 302 344
#     4  10  24  38  66  94 116 148 202 250 294 348
#     4   9  19  36  61  84 112 151 195 240 291 349
#     4  11  23  42  62  90 124 154 196 244 302 344
#     4  11  25  41  59  85 121 161 202 242 291 353
#     4  11  25  41  59  85 121 161 202 242 291 353
#
# _framework density 19.166516000000001
#
# number of rings (size 3 to 8) (size 9 to 14) (size 15 to 20)
#    0.000    2.000    1.538    0.923    6.462    4.308 
#    0.000    0.769    0.000    0.000    0.000    0.000 
#    0.000    0.000    0.000    0.000    0.000    0.000 
#
# Total GULP energy -289737.746628 kJ/mol
# GULP energy per Si atom -5571.879743 kJ/mol
# Density = 1.912289 g / cm^3
# Si number density = 19.166516 Si / 1000 Ang^3
#
#
#
# Elastic Constant Matrix: (Units=GPa)
#
#
# Indices 1 2 3 4 5 6 
#
# 1 141.2102 14.0619 63.5848 0.0000 0.0000 0.0000
# 2 14.0619 27.4117 26.0809 0.0000 0.0000 0.0000
# 3 63.5848 26.0809 103.9288 0.0000 0.0000 0.0000
# 4 0.0000 0.0000 0.0000 11.0384 0.0000 0.0000
# 5 0.0000 0.0000 0.0000 0.0000 35.6019 0.0000
# 6 0.0000 0.0000 0.0000 0.0000 0.0000 22.9925
#
#
#
# Elastic Compliance Matrix: (Units=1/GPa)
#
#
# Indices 1 2 3 4 5 6 
#
# 1 0.009791 0.000889 -0.006213 0.000000 0.000000 0.000000
# 2 0.000889 0.048004 -0.012591 0.000000 0.000000 0.000000
# 3 -0.006213 -0.012591 0.016583 0.000000 0.000000 0.000000
# 4 0.000000 0.000000 0.000000 0.090593 0.000000 0.000000
# 5 0.000000 0.000000 0.000000 0.000000 0.028088 0.000000
# 6 0.000000 0.000000 0.000000 0.000000 0.000000 0.043493
#
#
# Mechanical properties :
#
#
# Convention : Reuss Voigt Hill
#
# Bulk Modulus (GPa) = 25.94149 53.33399 39.63774
# Shear Modulus (GPa) = 17.52969 25.18142 21.35556
#
# Velocity S-wave (km/s) = 3.02752 3.62860 3.34160
# Velocity P-wave (km/s) = 5.07792 6.74112 5.96775
#
# Compressibility (1/GPa) = 0.03854829
#
# Stress axis : x y z
#
# Youngs Moduli (GPa) = 102.13618 20.83156 60.30300
#
# Poissons Ratio (x) = -0.01852 0.37468
# Poissons Ratio (y) = -0.09080 0.75925
# Poissons Ratio (z) = 0.63460 0.26228
#
# Static dielectric constant tensor:
#      x y z
#    x 1.655090 0.000000 0.000000 
#    y 0.000000 1.686920 0.000000 
#    z 0.000000 0.000000 1.660430 
# 
# From -- ./inp_files/41369.got.cif
#   From: 2010.05.17/outbox.cif.g08.bks.cpg/sg68_21_cif.got.tgz:41369.got - 2010.06.03 18:57:09.
