data_PCOD9509487
_publ_section_title
;
Structure prediction by ZEFSAII (Michael W. Deem and Ramdas Pophale) SiO2 
 PCOD9509487
Probable space group: C C C A
;
_chemical_formula_sum "Si O2"
_cell_formula_units_Z 116
_cell_length_a 24.014065
_cell_length_b 9.405730
_cell_length_c 26.710387
_cell_angle_alpha 90.000000
_cell_angle_beta 90.000000
_cell_angle_gamma 90.000000
_cell_volume 6033.070079
_symmetry_space_group_name_H-M "C C C A"
_symmetry_group_IT_number 68
_space_group.IT_coordinate_system_code '2'
_symmetry_cell_setting 'orthorhombic'
loop_
_space_group_symop_operation_xyz
x,y,z
-x,1/2-y,z
x,1/2-y,1/2-z
-x,y,1/2-z
-x,-y,-z
x,1/2+y,-z
-x,1/2+y,1/2+z
x,-y,1/2+z
1/2+x,1/2+y,z
1/2-x,-y,z
1/2+x,-y,1/2-z
1/2-x,1/2+y,1/2-z
1/2-x,1/2-y,-z
1/2+x,y,-z
1/2-x,y,1/2+z
1/2+x,1/2-y,1/2+z
loop_
_atom_site_type_symbol
_atom_site_label
_atom_site_fract_x
_atom_site_fract_y
_atom_site_fract_z
Si Si1 0.297325 0.761128 0.958318
Si Si2 0.870672 0.983743 0.501273
Si Si3 0.675993 0.083434 0.696420
Si Si4 0.912457 0.190302 0.330267
Si Si5 0.063342 0.732012 0.945567
Si Si6 0.500000 0.250000 0.750000
Si Si7 0.714209 0.197625 0.154614
Si Si8 0.685300 0.518789 0.690034
O O1 0.273431 0.766356 0.902630
O O2 0.330965 0.906814 0.968866
O O3 0.250000 0.750000 0.000000
O O4 0.335641 0.621505 0.965266
O O5 0.902591 0.871975 0.537003
O O6 0.910135 0.090930 0.470421
O O7 0.619959 0.169261 0.688798
O O8 0.728604 0.185230 0.685719
O O9 0.684404 0.954074 0.658470
O O10 0.682120 0.021576 0.751736
O O11 0.934962 0.215984 0.385702
O O12 0.960030 0.163196 0.288543
O O13 0.863585 0.073200 0.334254
O O14 0.000000 0.750000 0.962640
O O15 0.675741 0.316193 0.179259
O O16 0.750000 0.500000 0.672906
#
# Coordination Sequence:
#
# PCOD9509487 Si02
#       8
#    16  16  16  16  16   4  16  16
#     4  11  24  40  60  90 133 169 202 252 321 398
#     4  10  24  41  63  92 128 159 217 265 316 380
#     4  11  23  36  62  88 127 165 212 254 316 386
#     4  12  24  42  67  93 128 169 221 264 324 381
#     4  11  23  43  68  92 120 168 217 276 322 371
#     4  12  24  44  64  98 124 176 220 276 300 390
#     4  11  24  36  61  92 128 169 202 251 329 385
#     4  12  22  38  60  94 129 160 206 270 318 383
#
# _framework density 19.227357000000001
#
# number of rings (size 3 to 8) (size 9 to 14) (size 15 to 20)
#    0.000    0.828    4.828    2.897    7.724    1.103 
#    0.000    0.000    0.000    1.655    0.000    0.000 
#    0.000    0.000    0.000    0.000    0.000    0.000 
#
# Total GULP energy -323985.178817 kJ/mol
# GULP energy per Si atom -5585.951359 kJ/mol
# Density = 1.918360 g / cm^3
# Si number density = 19.227357 Si / 1000 Ang^3
#
#
#
# Elastic Constant Matrix: (Units=GPa)
#
#
# Indices 1 2 3 4 5 6 
#
# 1 86.8904 41.0738 27.5619 0.0000 0.0000 0.0000
# 2 41.0738 118.7775 35.1694 0.0000 0.0000 0.0000
# 3 27.5619 35.1694 111.9384 0.0000 0.0000 0.0000
# 4 0.0000 0.0000 0.0000 18.1955 0.0000 0.0000
# 5 0.0000 0.0000 0.0000 0.0000 29.1224 0.0000
# 6 0.0000 0.0000 0.0000 0.0000 0.0000 19.3278
#
#
#
# Elastic Compliance Matrix: (Units=1/GPa)
#
#
# Indices 1 2 3 4 5 6 
#
# 1 0.014214 -0.004277 -0.002156 0.000000 0.000000 0.000000
# 2 -0.004277 0.010570 -0.002268 0.000000 0.000000 0.000000
# 3 -0.002156 -0.002268 0.010177 0.000000 0.000000 0.000000
# 4 0.000000 0.000000 0.000000 0.054959 0.000000 0.000000
# 5 0.000000 0.000000 0.000000 0.000000 0.034338 0.000000
# 6 0.000000 0.000000 0.000000 0.000000 0.000000 0.051739
#
#
# Mechanical properties :
#
#
# Convention : Reuss Voigt Hill
#
# Bulk Modulus (GPa) = 56.95036 58.35739 57.65387
# Shear Modulus (GPa) = 25.09400 27.58257 26.33828
#
# Velocity S-wave (km/s) = 3.61656 3.79165 3.70514
# Velocity P-wave (km/s) = 6.86463 7.04173 6.95374
#
# Compressibility (1/GPa) = 0.01755915
#
# Stress axis : x y z
#
# Youngs Moduli (GPa) = 70.35089 94.61129 98.26204
#
# Poissons Ratio (x) = 0.40465 0.21187
# Poissons Ratio (y) = 0.30089 0.22283
# Poissons Ratio (z) = 0.15169 0.21455
#
# Static dielectric constant tensor:
#      x y z
#    x 1.727240 0.000000 0.000000 
#    y 0.000000 1.704830 0.000000 
#    z 0.000000 0.000000 1.661460 
# 
# From -- ./inp_files/52200.got.cif
#   From: 2010.05.17/outbox.cif.g08.bks.cpg/sg68_27_cif.got.tgz:52200.got - 2010.06.03 18:57:09.
