data_PCOD9509104
_publ_section_title
;
Structure prediction by ZEFSAII (Michael W. Deem and Ramdas Pophale) SiO2 
 PCOD9509104
Probable space group: C C C A
;
_chemical_formula_sum "Si O2"
_cell_formula_units_Z 68
_cell_length_a 11.757100
_cell_length_b 11.220521
_cell_length_c 23.191454
_cell_angle_alpha 90.000000
_cell_angle_beta 90.000000
_cell_angle_gamma 90.000000
_cell_volume 3059.434874
_symmetry_space_group_name_H-M "C C C A"
_symmetry_group_IT_number 68
_space_group.IT_coordinate_system_code '2'
_symmetry_cell_setting 'orthorhombic'
loop_
_space_group_symop_operation_xyz
x,y,z
-x,1/2-y,z
x,1/2-y,1/2-z
-x,y,1/2-z
-x,-y,-z
x,1/2+y,-z
-x,1/2+y,1/2+z
x,-y,1/2+z
1/2+x,1/2+y,z
1/2-x,-y,z
1/2+x,-y,1/2-z
1/2-x,1/2+y,1/2-z
1/2-x,1/2-y,-z
1/2+x,y,-z
1/2-x,y,1/2+z
1/2+x,1/2-y,1/2+z
loop_
_atom_site_type_symbol
_atom_site_label
_atom_site_fract_x
_atom_site_fract_y
_atom_site_fract_z
Si Si1 0.250000 0.000000 0.487392
Si Si2 0.069029 0.918930 0.907791
Si Si3 0.317925 0.663946 0.417661
Si Si4 0.124764 0.468267 0.704238
Si Si5 0.750000 0.500000 0.183363
Si Si6 0.000000 0.750000 0.250000
O O1 0.139373 0.989830 0.446959
O O2 0.242426 0.114523 0.529793
O O3 0.147780 0.800834 0.910790
O O4 0.941485 0.896238 0.928483
O O5 0.053602 0.959346 0.841912
O O6 0.261905 0.612084 0.359143
O O7 0.250000 0.500000 0.680541
O O8 0.144642 0.501822 0.771438
O O9 0.078769 0.334575 0.710400
#
# Coordination Sequence:
#
# PCOD9509104 Si02
#       6
#     8  16  16  16   8   4
#     4  11  21  42  62  90 121 167 222 272 330 399
#     4  11  22  42  60  93 126 164 219 268 334 393
#     4  10  23  38  64  88 127 169 209 275 327 397
#     4  10  24  40  65  97 132 171 220 274 325 411
#     4   9  21  40  60  96 127 167 220 254 342 387
#     4  12  24  44  68 100 140 180 224 276 342 404
#
# _framework density 22.226327000000001
#
# number of rings (size 3 to 8) (size 9 to 14) (size 15 to 20)
#    0.706    0.941    1.176    2.824    3.294    0.941 
#    0.000    4.706    0.000    0.000    0.000    0.000 
#    0.000    0.000    0.000    0.000    0.000    0.000 
#
# Total GULP energy -189335.450261 kJ/mol
# GULP energy per Si atom -5568.689714 kJ/mol
# Density = 2.217574 g / cm^3
# Si number density = 22.226327 Si / 1000 Ang^3
#
#
#
# Elastic Constant Matrix: (Units=GPa)
#
#
# Indices 1 2 3 4 5 6 
#
# 1 38.6279 22.7838 37.3262 0.0000 0.0000 0.0000
# 2 22.7838 64.0865 30.1600 0.0000 0.0000 0.0000
# 3 37.3262 30.1600 145.9115 0.0000 0.0000 0.0000
# 4 0.0000 0.0000 0.0000 30.0579 0.0000 0.0000
# 5 0.0000 0.0000 0.0000 0.0000 -118.0204 0.0000
# 6 0.0000 0.0000 0.0000 0.0000 0.0000 43.1912
#
#
#
# Elastic Compliance Matrix: (Units=1/GPa)
#
#
# Indices 1 2 3 4 5 6 
#
# 1 0.039754 -0.010355 -0.008029 0.000000 0.000000 0.000000
# 2 -0.010355 0.019982 -0.001482 0.000000 0.000000 0.000000
# 3 -0.008029 -0.001482 0.009214 0.000000 0.000000 0.000000
# 4 0.000000 0.000000 0.000000 0.033269 0.000000 0.000000
# 5 0.000000 0.000000 0.000000 0.000000 -0.008473 0.000000
# 6 0.000000 0.000000 0.000000 0.000000 0.000000 0.023153
#
#
# Mechanical properties :
#
#
# Convention : Reuss Voigt Hill
#
# Bulk Modulus (GPa) = 34.22387 47.68510 40.95448
# Shear Modulus (GPa) = 30.05352 1.60279 15.82816
#
# Velocity S-wave (km/s) = 3.68116 0.85011 2.67148
# Velocity P-wave (km/s) = 5.78785 4.73967 5.28979
#
# Compressibility (1/GPa) = 0.02921937
#
# Stress axis : x y z
#
# Youngs Moduli (GPa) = 25.15458 50.04422 108.53360
#
# Poissons Ratio (x) = 0.51818 0.87146
# Poissons Ratio (y) = 0.26046 0.16079
# Poissons Ratio (z) = 0.20198 0.07414
#
# Static dielectric constant tensor:
#      x y z
#    x 1.817450 0.000000 0.000000 
#    y 0.000000 1.622310 0.000000 
#    z 0.000000 0.000000 1.790430 
# 
# From -- ./inp_files/38320.got.cif
#   From: 2010.05.17/outbox.cif.g08.bks.cpg/sg68_20_cif.got.tgz:38320.got - 2010.06.03 18:57:09.
