data_PCOD9509895
_publ_section_title
;
Structure prediction by ZEFSAII (Michael W. Deem and Ramdas Pophale) SiO2 
 PCOD9509895
Probable space group: C C C A
;
_chemical_formula_sum "Si O2"
_cell_formula_units_Z 60
_cell_length_a 17.749574
_cell_length_b 22.309059
_cell_length_c 5.697711
_cell_angle_alpha 90.000000
_cell_angle_beta 90.000000
_cell_angle_gamma 90.000000
_cell_volume 2256.158484
_symmetry_space_group_name_H-M "C C C A"
_symmetry_group_IT_number 68
_space_group.IT_coordinate_system_code '2'
_symmetry_cell_setting 'orthorhombic'
loop_
_space_group_symop_operation_xyz
x,y,z
-x,1/2-y,z
x,1/2-y,1/2-z
-x,y,1/2-z
-x,-y,-z
x,1/2+y,-z
-x,1/2+y,1/2+z
x,-y,1/2+z
1/2+x,1/2+y,z
1/2-x,-y,z
1/2+x,-y,1/2-z
1/2-x,1/2+y,1/2-z
1/2-x,1/2-y,-z
1/2+x,y,-z
1/2-x,y,1/2+z
1/2+x,1/2-y,1/2+z
loop_
_atom_site_type_symbol
_atom_site_label
_atom_site_fract_x
_atom_site_fract_y
_atom_site_fract_z
Si Si1 0.000000 0.051778 0.250000
Si Si2 0.342083 0.031779 0.584936
Si Si3 0.738053 0.652284 0.645989
Si Si4 0.432585 0.151015 0.066908
Si Si5 0.000000 0.250000 0.250000
O O1 0.934125 0.028744 0.421913
O O2 0.052850 0.095173 0.402638
O O3 0.293874 0.093947 0.617324
O O4 0.324890 0.004907 0.325916
O O5 0.740527 0.682874 0.390434
O O6 0.648769 0.641801 0.675333
O O7 0.500000 0.152553 0.250000
O O8 0.445940 0.209639 0.910169
#
# Coordination Sequence:
#
# PCOD9509895 Si02
#       5
#     8  16  16  16   4
#     4  11  24  47  72 108 150 208 260 321 380 447
#     4  12  27  46  70 108 157 210 268 318 367 444
#     4  12  26  49  74 112 155 207 249 316 388 448
#     4  11  25  49  84 108 152 198 254 320 404 476
#     4  10  26  52  80 122 140 192 256 332 398 494
#
# _framework density 26.593879000000001
#
# number of rings (size 3 to 8) (size 9 to 14) (size 15 to 20)
#    0.000    0.533    2.667    4.400    7.467    3.200 
#    0.000    1.333    0.000    0.000    0.000    0.000 
#    0.000    0.000    0.000    0.000    0.000    0.000 
#
# Total GULP energy -167701.518237 kJ/mol
# GULP energy per Si atom -5590.050608 kJ/mol
# Density = 2.653335 g / cm^3
# Si number density = 26.593879 Si / 1000 Ang^3
#
#
#
# Elastic Constant Matrix: (Units=GPa)
#
#
# Indices 1 2 3 4 5 6 
#
# 1 243.0342 13.2576 9.7365 0.0000 0.0000 0.0000
# 2 13.2576 91.3634 20.1592 0.0000 0.0000 0.0000
# 3 9.7365 20.1592 174.7880 0.0000 0.0000 0.0000
# 4 0.0000 0.0000 0.0000 49.7580 0.0000 0.0000
# 5 0.0000 0.0000 0.0000 0.0000 46.8151 0.0000
# 6 0.0000 0.0000 0.0000 0.0000 0.0000 -186.0651
#
#
#
# Elastic Compliance Matrix: (Units=1/GPa)
#
#
# Indices 1 2 3 4 5 6 
#
# 1 0.004152 -0.000566 -0.000166 0.000000 0.000000 0.000000
# 2 -0.000566 0.011308 -0.001273 0.000000 0.000000 0.000000
# 3 -0.000166 -0.001273 0.005877 0.000000 0.000000 0.000000
# 4 0.000000 0.000000 0.000000 0.020097 0.000000 0.000000
# 5 0.000000 0.000000 0.000000 0.000000 0.021361 0.000000
# 6 0.000000 0.000000 0.000000 0.000000 0.000000 -0.005374
#
#
# Mechanical properties :
#
#
# Convention : Reuss Voigt Hill
#
# Bulk Modulus (GPa) = 57.70871 66.16580 61.93726
# Shear Modulus (GPa) = 74.39757 13.17042 43.78400
#
# Velocity S-wave (km/s) = 5.29492 2.22782 4.06198
# Velocity P-wave (km/s) = 7.68952 5.61709 6.73351
#
# Compressibility (1/GPa) = 0.01732841
#
# Stress axis : x y z
#
# Youngs Moduli (GPa) = 240.83802 88.43111 170.14745
#
# Poissons Ratio (x) = 0.05004 0.02825
# Poissons Ratio (y) = 0.13629 0.21655
# Poissons Ratio (z) = 0.03999 0.11255
#
# Static dielectric constant tensor:
#      x y z
#    x 2.150020 0.000000 0.000000 
#    y 0.000000 2.240050 0.000000 
#    z 0.000000 0.000000 2.903420 
# 
# From -- ./inp_files/996.got.cif
#   From: 2010.05.17/outbox.cif.g08.bks.cpg/sg68_1_cif.got.tgz:996.got - 2010.06.03 18:57:09.
