data_PCOD9509295
_publ_section_title
;
Structure prediction by ZEFSAII (Michael W. Deem and Ramdas Pophale) SiO2 
 PCOD9509295
Probable space group: C C C A
;
_chemical_formula_sum "Si O2"
_cell_formula_units_Z 92
_cell_length_a 20.643506
_cell_length_b 17.185305
_cell_length_c 13.149879
_cell_angle_alpha 90.000000
_cell_angle_beta 90.000000
_cell_angle_gamma 90.000000
_cell_volume 4665.116125
_symmetry_space_group_name_H-M "C C C A"
_symmetry_group_IT_number 68
_space_group.IT_coordinate_system_code '2'
_symmetry_cell_setting 'orthorhombic'
loop_
_space_group_symop_operation_xyz
x,y,z
-x,1/2-y,z
x,1/2-y,1/2-z
-x,y,1/2-z
-x,-y,-z
x,1/2+y,-z
-x,1/2+y,1/2+z
x,-y,1/2+z
1/2+x,1/2+y,z
1/2-x,-y,z
1/2+x,-y,1/2-z
1/2-x,1/2+y,1/2-z
1/2-x,1/2-y,-z
1/2+x,y,-z
1/2-x,y,1/2+z
1/2+x,1/2-y,1/2+z
loop_
_atom_site_type_symbol
_atom_site_label
_atom_site_fract_x
_atom_site_fract_y
_atom_site_fract_z
Si Si1 0.569176 0.786674 0.084838
Si Si2 0.779429 0.280956 0.646477
Si Si3 0.500000 0.250000 0.250000
Si Si4 0.500000 0.871195 0.250000
Si Si5 0.333825 0.340803 0.982006
Si Si6 0.906928 0.363301 0.624243
Si Si7 0.438814 0.030865 0.568487
O O1 0.500000 0.750000 0.054750
O O2 0.556470 0.823470 0.193888
O O3 0.621023 0.719500 0.078136
O O4 0.590062 0.845607 0.996571
O O5 0.748315 0.250000 0.750000
O O6 0.732318 0.337388 0.582523
O O7 0.809811 0.206915 0.583205
O O8 0.840924 0.333395 0.672152
O O9 0.539994 0.190952 0.321508
O O10 0.530262 0.916959 0.343532
O O11 0.380301 0.418430 0.986186
O O12 0.913385 0.455196 0.627840
O O13 0.500000 0.000000 0.500000
#
# Coordination Sequence:
#
# PCOD9509295 Si02
#       7
#    16  16   4   8  16  16  16
#     4  11  20  38  63  93 120 166 218 265 321 398
#     4  10  23  43  68  95 123 184 235 269 325 415
#     4  12  22  40  70  98 128 186 226 284 330 402
#     4  12  24  36  63  97 128 172 202 263 347 394
#     4  10  24  41  66  94 135 169 222 285 329 402
#     4  11  23  41  65  94 133 171 225 274 334 404
#     4  12  25  41  63 100 139 167 212 284 352 407
#
# _framework density 19.720839000000002
#
# number of rings (size 3 to 8) (size 9 to 14) (size 15 to 20)
#    0.000    1.043    5.217    0.783    4.870    2.087 
#    0.000    0.000    0.000    2.087    0.000    0.000 
#    0.000    0.000    0.000    0.000    0.000    0.000 
#
# Total GULP energy -256071.641548 kJ/mol
# GULP energy per Si atom -5566.774816 kJ/mol
# Density = 1.967595 g / cm^3
# Si number density = 19.720839 Si / 1000 Ang^3
#
#
#
# Elastic Constant Matrix: (Units=GPa)
#
#
# Indices 1 2 3 4 5 6 
#
# 1 79.7888 27.2547 9.8389 0.0000 0.0000 0.0000
# 2 27.2547 105.2222 25.1873 0.0000 0.0000 0.0000
# 3 9.8389 25.1873 87.0003 0.0000 0.0000 0.0000
# 4 0.0000 0.0000 0.0000 41.6257 0.0000 0.0000
# 5 0.0000 0.0000 0.0000 0.0000 5.0738 0.0000
# 6 0.0000 0.0000 0.0000 0.0000 0.0000 30.6302
#
#
#
# Elastic Compliance Matrix: (Units=1/GPa)
#
#
# Indices 1 2 3 4 5 6 
#
# 1 0.013775 -0.003433 -0.000564 0.000000 0.000000 0.000000
# 2 -0.003433 0.011067 -0.002816 0.000000 0.000000 0.000000
# 3 -0.000564 -0.002816 0.012373 0.000000 0.000000 0.000000
# 4 0.000000 0.000000 0.000000 0.024024 0.000000 0.000000
# 5 0.000000 0.000000 0.000000 0.000000 0.197090 0.000000
# 6 0.000000 0.000000 0.000000 0.000000 0.000000 0.032647
#
#
# Mechanical properties :
#
#
# Convention : Reuss Voigt Hill
#
# Bulk Modulus (GPa) = 42.39102 44.06368 43.22735
# Shear Modulus (GPa) = 16.00175 29.44798 22.72486
#
# Velocity S-wave (km/s) = 2.85162 3.86844 3.39828
# Velocity P-wave (km/s) = 5.69074 6.50733 6.11269
#
# Compressibility (1/GPa) = 0.02358990
#
# Stress axis : x y z
#
# Youngs Moduli (GPa) = 72.59357 90.35922 80.82009
#
# Poissons Ratio (x) = 0.31021 0.04558
# Poissons Ratio (y) = 0.24922 0.22757
# Poissons Ratio (z) = 0.04094 0.25443
#
# Static dielectric constant tensor:
#      x y z
#    x 1.787130 0.000000 0.000000 
#    y 0.000000 1.749360 0.000000 
#    z 0.000000 0.000000 1.745490 
# 
# From -- ./inp_files/24608.got.cif
#   From: 2010.05.17/outbox.cif.g08.bks.cpg/sg68_13_cif.got.tgz:24608.got - 2010.06.03 18:57:09.
