data_PCOD9509000
_publ_section_title
;
Structure prediction by ZEFSAII (Michael W. Deem and Ramdas Pophale) SiO2 
 PCOD9509000
Probable space group: C C C A
;
_chemical_formula_sum "Si O2"
_cell_formula_units_Z 48
_cell_length_a 19.076407
_cell_length_b 5.527853
_cell_length_c 18.932586
_cell_angle_alpha 90.000000
_cell_angle_beta 90.000000
_cell_angle_gamma 90.000000
_cell_volume 1996.470987
_symmetry_space_group_name_H-M "C C C A"
_symmetry_group_IT_number 68
_space_group.IT_coordinate_system_code '2'
_symmetry_cell_setting 'orthorhombic'
loop_
_space_group_symop_operation_xyz
x,y,z
-x,1/2-y,z
x,1/2-y,1/2-z
-x,y,1/2-z
-x,-y,-z
x,1/2+y,-z
-x,1/2+y,1/2+z
x,-y,1/2+z
1/2+x,1/2+y,z
1/2-x,-y,z
1/2+x,-y,1/2-z
1/2-x,1/2+y,1/2-z
1/2-x,1/2-y,-z
1/2+x,y,-z
1/2-x,y,1/2+z
1/2+x,1/2-y,1/2+z
loop_
_atom_site_type_symbol
_atom_site_label
_atom_site_fract_x
_atom_site_fract_y
_atom_site_fract_z
Si Si1 0.972331 0.496204 0.168715
Si Si2 0.682216 0.848371 0.828169
Si Si3 0.829860 0.194605 0.526172
O O1 0.888730 0.498223 0.172781
O O2 0.000000 0.750000 0.137277
O O3 0.000000 0.498054 0.250000
O O4 0.000000 0.250000 0.134906
O O5 0.693118 0.750000 0.750000
O O6 0.671759 0.652193 0.889773
O O7 0.750000 0.000000 0.848816
O O8 0.862315 0.459913 0.510890
O O9 0.750000 0.250000 0.500000
#
# Coordination Sequence:
#
# PCOD9509000 Si02
#       3
#    16  16  16
#     4  10  22  45  61  94 143 184 208 284 365 404
#     4  12  26  39  74 115 131 178 250 301 332 418
#     4  10  22  45  62  96 145 187 211 286 367 408
#
# _framework density 24.042421999999998
#
# number of rings (size 3 to 8) (size 9 to 14) (size 15 to 20)
#    0.000    1.333    6.667    0.000    9.333    2.667 
#    0.000    0.000    0.000    6.000    0.000    0.000 
#    0.000    0.000    0.000    0.000    0.000    0.000 
#
# Total GULP energy -134123.068185 kJ/mol
# GULP energy per Si atom -5588.461174 kJ/mol
# Density = 2.398770 g / cm^3
# Si number density = 24.042422 Si / 1000 Ang^3
#
#
#
# Elastic Constant Matrix: (Units=GPa)
#
#
# Indices 1 2 3 4 5 6 
#
# 1 136.1326 16.7837 -25.8341 0.0000 0.0000 0.0000
# 2 16.7837 187.3650 6.5056 0.0000 0.0000 0.0000
# 3 -25.8341 6.5056 136.3162 0.0000 0.0000 0.0000
# 4 0.0000 0.0000 0.0000 40.2738 0.0000 0.0000
# 5 0.0000 0.0000 0.0000 0.0000 -21.6706 0.0000
# 6 0.0000 0.0000 0.0000 0.0000 0.0000 30.4097
#
#
#
# Elastic Compliance Matrix: (Units=1/GPa)
#
#
# Indices 1 2 3 4 5 6 
#
# 1 0.007722 -0.000744 0.001499 0.000000 0.000000 0.000000
# 2 -0.000744 0.005418 -0.000400 0.000000 0.000000 0.000000
# 3 0.001499 -0.000400 0.007639 0.000000 0.000000 0.000000
# 4 0.000000 0.000000 0.000000 0.024830 0.000000 0.000000
# 5 0.000000 0.000000 0.000000 0.000000 -0.046146 0.000000
# 6 0.000000 0.000000 0.000000 0.000000 0.000000 0.032884
#
#
# Mechanical properties :
#
#
# Convention : Reuss Voigt Hill
#
# Bulk Modulus (GPa) = 46.53338 50.52490 48.52914
# Shear Modulus (GPa) = 128.86823 40.62650 84.74736
#
# Velocity S-wave (km/s) = 7.32917 4.11516 5.94354
# Velocity P-wave (km/s) = 9.54039 6.60605 8.20545
#
# Compressibility (1/GPa) = 0.02148995
#
# Stress axis : x y z
#
# Youngs Moduli (GPa) = 129.50126 184.58118 130.90683
#
# Poissons Ratio (x) = 0.13728 -0.19622
# Poissons Ratio (y) = 0.09632 0.05230
# Poissons Ratio (z) = -0.19411 0.07374
#
# Static dielectric constant tensor:
#      x y z
#    x 1.911450 0.000000 0.000000 
#    y 0.000000 2.036830 0.000000 
#    z 0.000000 0.000000 1.905250 
# 
# From -- ./inp_files/39929.got.cif
#   From: 2010.05.17/outbox.cif.g08.bks.cpg/sg68_20_cif.got.tgz:39929.got - 2010.06.03 18:57:09.
