data_PCOD9509569
_publ_section_title
;
Structure prediction by ZEFSAII (Michael W. Deem and Ramdas Pophale) SiO2 
 PCOD9509569
Probable space group: C C C A
;
_chemical_formula_sum "Si O2"
_cell_formula_units_Z 48
_cell_length_a 14.147616
_cell_length_b 11.714081
_cell_length_c 12.960152
_cell_angle_alpha 90.000000
_cell_angle_beta 90.000000
_cell_angle_gamma 90.000000
_cell_volume 2147.838295
_symmetry_space_group_name_H-M "C C C A"
_symmetry_group_IT_number 68
_space_group.IT_coordinate_system_code '2'
_symmetry_cell_setting 'orthorhombic'
loop_
_space_group_symop_operation_xyz
x,y,z
-x,1/2-y,z
x,1/2-y,1/2-z
-x,y,1/2-z
-x,-y,-z
x,1/2+y,-z
-x,1/2+y,1/2+z
x,-y,1/2+z
1/2+x,1/2+y,z
1/2-x,-y,z
1/2+x,-y,1/2-z
1/2-x,1/2+y,1/2-z
1/2-x,1/2-y,-z
1/2+x,y,-z
1/2-x,y,1/2+z
1/2+x,1/2-y,1/2+z
loop_
_atom_site_type_symbol
_atom_site_label
_atom_site_fract_x
_atom_site_fract_y
_atom_site_fract_z
Si Si1 0.473390 0.399913 0.365680
Si Si2 0.736605 0.364126 0.176835
Si Si3 0.565391 0.650116 0.073439
O O1 0.500000 0.369523 0.250000
O O2 0.363842 0.367306 0.381259
O O3 0.475546 0.535194 0.378537
O O4 0.545746 0.355853 0.451114
O O5 0.734789 0.250000 0.250000
O O6 0.750000 0.500000 0.217419
O O7 0.825800 0.343665 0.103045
O O8 0.500000 0.750000 0.115274
#
# Coordination Sequence:
#
# PCOD9509569 Si02
#       3
#    16  16  16
#     4  10  24  46  69 103 146 191 242 302 369 434
#     4  10  24  45  73 109 145 194 248 303 367 436
#     4  10  24  43  70 104 141 190 246 300 360 435
#
# _framework density 22.348050000000001
#
# number of rings (size 3 to 8) (size 9 to 14) (size 15 to 20)
#    0.000    2.000    0.000    0.000   14.000    1.333 
#    0.000    8.333    0.000    0.000    0.000    0.000 
#    0.000    0.000    0.000    0.000    0.000    0.000 
#
# Total GULP energy -133884.779251 kJ/mol
# GULP energy per Si atom -5578.532469 kJ/mol
# Density = 2.229718 g / cm^3
# Si number density = 22.348050 Si / 1000 Ang^3
#
#
#
# Elastic Constant Matrix: (Units=GPa)
#
#
# Indices 1 2 3 4 5 6 
#
# 1 139.1392 85.0149 43.0320 0.0000 0.0000 0.0000
# 2 85.0149 209.4290 60.7711 0.0000 0.0000 0.0000
# 3 43.0320 60.7711 105.1952 0.0000 0.0000 0.0000
# 4 0.0000 0.0000 0.0000 21.9237 0.0000 0.0000
# 5 0.0000 0.0000 0.0000 0.0000 34.9175 0.0000
# 6 0.0000 0.0000 0.0000 0.0000 0.0000 45.3089
#
#
#
# Elastic Compliance Matrix: (Units=1/GPa)
#
#
# Indices 1 2 3 4 5 6 
#
# 1 0.009923 -0.003424 -0.002081 0.000000 0.000000 0.000000
# 2 -0.003424 0.006918 -0.002596 0.000000 0.000000 0.000000
# 3 -0.002081 -0.002596 0.011857 0.000000 0.000000 0.000000
# 4 0.000000 0.000000 0.000000 0.045613 0.000000 0.000000
# 5 0.000000 0.000000 0.000000 0.000000 0.028639 0.000000
# 6 0.000000 0.000000 0.000000 0.000000 0.000000 0.022071
#
#
# Mechanical properties :
#
#
# Convention : Reuss Voigt Hill
#
# Bulk Modulus (GPa) = 80.02595 92.37770 86.20183
# Shear Modulus (GPa) = 34.39079 38.09305 36.24192
#
# Velocity S-wave (km/s) = 3.92710 4.13308 4.03141
# Velocity P-wave (km/s) = 7.51329 8.01262 7.76697
#
# Compressibility (1/GPa) = 0.01249595
#
# Stress axis : x y z
#
# Youngs Moduli (GPa) = 100.77767 144.54723 84.33817
#
# Poissons Ratio (x) = 0.49496 0.17550
# Poissons Ratio (y) = 0.34508 0.21893
# Poissons Ratio (z) = 0.20971 0.37523
#
# Static dielectric constant tensor:
#      x y z
#    x 1.654770 0.000000 0.000000 
#    y 0.000000 1.941610 0.000000 
#    z 0.000000 0.000000 1.826530 
# 
# From -- ./inp_files/21454.got.cif
#   From: 2010.05.17/outbox.cif.g08.bks.cpg/sg68_11_cif.got.tgz:21454.got - 2010.06.03 18:57:09.
