data_PCOD9509267
_publ_section_title
;
Structure prediction by ZEFSAII (Michael W. Deem and Ramdas Pophale) SiO2 
 PCOD9509267
Probable space group: C C C A
;
_chemical_formula_sum "Si O2"
_cell_formula_units_Z 76
_cell_length_a 11.078895
_cell_length_b 24.527043
_cell_length_c 12.829785
_cell_angle_alpha 90.000000
_cell_angle_beta 90.000000
_cell_angle_gamma 90.000000
_cell_volume 3486.269989
_symmetry_space_group_name_H-M "C C C A"
_symmetry_group_IT_number 68
_space_group.IT_coordinate_system_code '2'
_symmetry_cell_setting 'orthorhombic'
loop_
_space_group_symop_operation_xyz
x,y,z
-x,1/2-y,z
x,1/2-y,1/2-z
-x,y,1/2-z
-x,-y,-z
x,1/2+y,-z
-x,1/2+y,1/2+z
x,-y,1/2+z
1/2+x,1/2+y,z
1/2-x,-y,z
1/2+x,-y,1/2-z
1/2-x,1/2+y,1/2-z
1/2-x,1/2-y,-z
1/2+x,y,-z
1/2-x,y,1/2+z
1/2+x,1/2-y,1/2+z
loop_
_atom_site_type_symbol
_atom_site_label
_atom_site_fract_x
_atom_site_fract_y
_atom_site_fract_z
Si Si1 0.080633 0.594090 0.502156
Si Si2 0.608681 0.094318 0.170084
Si Si3 0.750000 0.000000 0.105542
Si Si4 0.694897 0.831888 0.828665
Si Si5 0.500000 0.750000 0.750000
Si Si6 0.532198 0.308047 0.629307
O O1 0.156104 0.541292 0.543982
O O2 0.160724 0.622019 0.412457
O O3 0.951073 0.586964 0.443384
O O4 0.042093 0.640865 0.583727
O O5 0.500000 0.099373 0.250000
O O6 0.694520 0.143087 0.210094
O O7 0.677403 0.038823 0.182059
O O8 0.588880 0.787026 0.820196
O O9 0.823126 0.811880 0.868059
O O10 0.500000 0.250000 0.577988
O O11 0.500000 0.306019 0.750000
#
# Coordination Sequence:
#
# PCOD9509267 Si02
#       6
#    16  16   8  16   4  16
#     4  11  24  44  65 101 134 178 235 277 346 416
#     4  10  23  43  62  97 127 171 230 271 336 407
#     4  12  24  38  70  92 138 188 216 288 336 404
#     4  11  24  43  70  96 135 175 229 291 340 423
#     4  12  20  44  74  96 130 180 232 282 362 408
#     4  11  25  43  64 101 138 176 228 290 353 413
#
# _framework density 21.799804000000002
#
# number of rings (size 3 to 8) (size 9 to 14) (size 15 to 20)
#    0.000    1.053    3.158    4.421    1.474    6.737 
#    0.000    0.000    0.000    0.000    0.000    0.000 
#    0.000    0.000    0.000    0.000    0.000    0.000 
#
# Total GULP energy -211536.988344 kJ/mol
# GULP energy per Si atom -5566.762851 kJ/mol
# Density = 2.175019 g / cm^3
# Si number density = 21.799804 Si / 1000 Ang^3
#
#
#
# Elastic Constant Matrix: (Units=GPa)
#
#
# Indices 1 2 3 4 5 6 
#
# 1 122.7048 58.7627 10.3801 0.0000 0.0000 0.0000
# 2 58.7627 144.1178 32.9625 0.0000 0.0000 0.0000
# 3 10.3801 32.9625 42.8837 0.0000 0.0000 0.0000
# 4 0.0000 0.0000 0.0000 19.2946 0.0000 0.0000
# 5 0.0000 0.0000 0.0000 0.0000 13.0897 0.0000
# 6 0.0000 0.0000 0.0000 0.0000 0.0000 51.6951
#
#
#
# Elastic Compliance Matrix: (Units=1/GPa)
#
#
# Indices 1 2 3 4 5 6 
#
# 1 0.010154 -0.004341 0.000879 0.000000 0.000000 0.000000
# 2 -0.004341 0.010275 -0.006847 0.000000 0.000000 0.000000
# 3 0.000879 -0.006847 0.028369 0.000000 0.000000 0.000000
# 4 0.000000 0.000000 0.000000 0.051828 0.000000 0.000000
# 5 0.000000 0.000000 0.000000 0.000000 0.076396 0.000000
# 6 0.000000 0.000000 0.000000 0.000000 0.000000 0.019344
#
#
# Mechanical properties :
#
#
# Convention : Reuss Voigt Hill
#
# Bulk Modulus (GPa) = 35.48640 57.10187 46.29414
# Shear Modulus (GPa) = 22.08690 30.65593 26.37142
#
# Velocity S-wave (km/s) = 3.18649 3.75407 3.48186
# Velocity P-wave (km/s) = 5.46369 6.71128 6.11936
#
# Compressibility (1/GPa) = 0.02817981
#
# Stress axis : x y z
#
# Youngs Moduli (GPa) = 98.47996 97.32369 35.24968
#
# Poissons Ratio (x) = 0.42252 -0.03099
# Poissons Ratio (y) = 0.42754 0.24136
# Poissons Ratio (z) = -0.08658 0.66638
#
# Static dielectric constant tensor:
#      x y z
#    x 1.941010 0.000000 0.000000 
#    y 0.000000 1.838460 0.000000 
#    z 0.000000 0.000000 1.841390 
# 
# From -- ./inp_files/20915.got.cif
#   From: 2010.05.17/outbox.cif.g08.bks.cpg/sg68_11_cif.got.tgz:20915.got - 2010.06.03 18:57:09.
