data_PCOD9509702
_publ_section_title
;
Structure prediction by ZEFSAII (Michael W. Deem and Ramdas Pophale) SiO2 
 PCOD9509702
Probable space group: C C C A
;
_chemical_formula_sum "Si O2"
_cell_formula_units_Z 104
_cell_length_a 22.369793
_cell_length_b 7.517611
_cell_length_c 25.268188
_cell_angle_alpha 90.000000
_cell_angle_beta 90.000000
_cell_angle_gamma 90.000000
_cell_volume 4249.285527
_symmetry_space_group_name_H-M "C C C A"
_symmetry_group_IT_number 68
_space_group.IT_coordinate_system_code '2'
_symmetry_cell_setting 'orthorhombic'
loop_
_space_group_symop_operation_xyz
x,y,z
-x,1/2-y,z
x,1/2-y,1/2-z
-x,y,1/2-z
-x,-y,-z
x,1/2+y,-z
-x,1/2+y,1/2+z
x,-y,1/2+z
1/2+x,1/2+y,z
1/2-x,-y,z
1/2+x,-y,1/2-z
1/2-x,1/2+y,1/2-z
1/2-x,1/2-y,-z
1/2+x,y,-z
1/2-x,y,1/2+z
1/2+x,1/2-y,1/2+z
loop_
_atom_site_type_symbol
_atom_site_label
_atom_site_fract_x
_atom_site_fract_y
_atom_site_fract_z
Si Si1 0.252922 0.750000 0.750000
Si Si2 0.895298 0.862606 0.516640
Si Si3 0.688736 0.412359 0.554193
Si Si4 0.337498 0.351238 0.830515
Si Si5 0.566932 0.038049 0.762109
Si Si6 0.559881 0.653728 0.917701
Si Si7 0.150855 0.922404 0.326808
O O1 0.204689 0.621421 0.779564
O O2 0.292316 0.674672 0.700617
O O3 0.833408 0.787431 0.542372
O O4 0.931019 0.743449 0.475018
O O5 0.866502 0.995777 0.474144
O O6 0.936944 0.946385 0.562654
O O7 0.750000 0.500000 0.534618
O O8 0.687909 0.431817 0.616633
O O9 0.399736 0.453442 0.818223
O O10 0.339990 0.135494 0.837040
O O11 0.570828 0.250000 0.750000
O O12 0.500000 0.986295 0.750000
O O13 0.603674 0.925547 0.720481
O O14 0.500000 0.750000 0.895449
O O15 0.617275 0.661659 0.877960
#
# Coordination Sequence:
#
# PCOD9509702 Si02
#       7
#     8  16  16  16  16  16  16
#     4  12  26  42  66  94 144 184 230 282 362 434
#     4  10  24  47  66 101 143 182 241 299 369 427
#     4  11  24  41  71 102 141 185 237 297 366 449
#     4  11  23  42  67  99 137 189 237 291 362 439
#     4   9  20  40  63  91 130 175 226 287 351 417
#     4  11  24  46  72 101 138 188 241 299 366 436
#     4  11  24  42  64  99 139 180 229 302 353 429
#
# _framework density 24.474703999999999
#
# number of rings (size 3 to 8) (size 9 to 14) (size 15 to 20)
#    0.000    1.385    3.846    1.385    4.308    2.462 
#    0.000    0.000    0.000    0.000    0.000    0.000 
#    0.000    0.000    0.000    0.000    0.000    0.000 
#
# Total GULP energy -289506.828787 kJ/mol
# GULP energy per Si atom -5567.439015 kJ/mol
# Density = 2.441900 g / cm^3
# Si number density = 24.474704 Si / 1000 Ang^3
#
#
#
# Elastic Constant Matrix: (Units=GPa)
#
#
# Indices 1 2 3 4 5 6 
#
# 1 143.9209 37.1612 39.1381 0.0000 0.0000 0.0000
# 2 37.1612 46.4500 23.2774 0.0000 0.0000 0.0000
# 3 39.1381 23.2774 100.6353 0.0000 0.0000 0.0000
# 4 0.0000 0.0000 0.0000 34.3214 0.0000 0.0000
# 5 0.0000 0.0000 0.0000 0.0000 34.5414 0.0000
# 6 0.0000 0.0000 0.0000 0.0000 0.0000 27.8876
#
#
#
# Elastic Compliance Matrix: (Units=1/GPa)
#
#
# Indices 1 2 3 4 5 6 
#
# 1 0.009136 -0.006253 -0.002107 0.000000 0.000000 0.000000
# 2 -0.006253 0.028631 -0.004191 0.000000 0.000000 0.000000
# 3 -0.002107 -0.004191 0.011725 0.000000 0.000000 0.000000
# 4 0.000000 0.000000 0.000000 0.029136 0.000000 0.000000
# 5 0.000000 0.000000 0.000000 0.000000 0.028951 0.000000
# 6 0.000000 0.000000 0.000000 0.000000 0.000000 0.035858
#
#
# Mechanical properties :
#
#
# Convention : Reuss Voigt Hill
#
# Bulk Modulus (GPa) = 40.99757 54.46218 47.72988
# Shear Modulus (GPa) = 28.30150 32.11204 30.20677
#
# Velocity S-wave (km/s) = 3.40421 3.62615 3.51693
# Velocity P-wave (km/s) = 5.67793 6.31132 6.00298
#
# Compressibility (1/GPa) = 0.02439169
#
# Stress axis : x y z
#
# Youngs Moduli (GPa) = 109.46031 34.92689 85.28451
#
# Poissons Ratio (x) = 0.21840 0.17966
# Poissons Ratio (y) = 0.68447 0.35740
# Poissons Ratio (z) = 0.23059 0.14637
#
# Static dielectric constant tensor:
#      x y z
#    x 2.002470 0.000000 0.000000 
#    y 0.000000 2.486940 0.000000 
#    z 0.000000 0.000000 1.913610 
# 
# From -- ./inp_files/51850.got.cif
#   From: 2010.05.17/outbox.cif.g08.bks.cpg/sg68_26_cif.got.tgz:51850.got - 2010.06.03 18:57:09.
