data_PCOD9509586
_publ_section_title
;
Structure prediction by ZEFSAII (Michael W. Deem and Ramdas Pophale) SiO2 
 PCOD9509586
Probable space group: C C C A
;
_chemical_formula_sum "Si O2"
_cell_formula_units_Z 80
_cell_length_a 4.966955
_cell_length_b 26.793539
_cell_length_c 27.266774
_cell_angle_alpha 90.000000
_cell_angle_beta 90.000000
_cell_angle_gamma 90.000000
_cell_volume 3628.725066
_symmetry_space_group_name_H-M "C C C A"
_symmetry_group_IT_number 68
_space_group.IT_coordinate_system_code '2'
_symmetry_cell_setting 'orthorhombic'
loop_
_space_group_symop_operation_xyz
x,y,z
-x,1/2-y,z
x,1/2-y,1/2-z
-x,y,1/2-z
-x,-y,-z
x,1/2+y,-z
-x,1/2+y,1/2+z
x,-y,1/2+z
1/2+x,1/2+y,z
1/2-x,-y,z
1/2+x,-y,1/2-z
1/2-x,1/2+y,1/2-z
1/2-x,1/2-y,-z
1/2+x,y,-z
1/2-x,y,1/2+z
1/2+x,1/2-y,1/2+z
loop_
_atom_site_type_symbol
_atom_site_label
_atom_site_fract_x
_atom_site_fract_y
_atom_site_fract_z
Si Si1 0.315052 0.855756 0.401556
Si Si2 0.500000 0.750000 0.381422
Si Si3 0.415355 0.554474 0.033691
Si Si4 0.750000 0.500000 0.116786
Si Si5 0.000000 0.750000 0.316783
Si Si6 0.000000 0.338006 0.750000
Si Si7 0.193353 0.606832 0.343461
O O1 0.376782 0.797609 0.408892
O O2 0.399231 0.888551 0.447998
O O3 0.508981 0.876747 0.358863
O O4 0.016343 0.868225 0.382256
O O5 0.749957 0.769004 0.348454
O O6 0.524160 0.523819 0.080640
O O7 0.124146 0.546506 0.010295
O O8 0.843190 0.547363 0.148672
O O9 0.129536 0.795924 0.286084
O O10 0.853289 0.373419 0.711359
#
# Coordination Sequence:
#
# PCOD9509586 Si02
#       7
#    16   8  16   8   8   8  16
#     4  11  23  41  63  95 131 164 207 261 327 375
#     4  12  20  43  62  97 125 178 203 257 324 383
#     4  11  23  41  68  94 119 158 214 270 317 383
#     4  10  24  44  66  92 124 168 212 260 332 380
#     4  11  24  34  70  95 127 168 227 255 304 372
#     4  11  22  42  62 102 130 168 220 267 302 374
#     4  11  24  41  62  92 132 170 210 267 311 371
#
# _framework density 22.046309000000001
#
# number of rings (size 3 to 8) (size 9 to 14) (size 15 to 20)
#    0.000    1.000    4.000    3.000    0.000   10.400 
#    0.000    5.000    0.000    0.000    0.000    0.000 
#    0.000    0.000    0.000    0.000    0.000    0.000 
#
# Total GULP energy -223273.029739 kJ/mol
# GULP energy per Si atom -5581.825743 kJ/mol
# Density = 2.199613 g / cm^3
# Si number density = 22.046309 Si / 1000 Ang^3
#
#
#
# Elastic Constant Matrix: (Units=GPa)
#
#
# Indices 1 2 3 4 5 6 
#
# 1 79.2572 15.8860 10.8863 0.0000 0.0000 0.0000
# 2 15.8860 193.6919 48.0918 0.0000 0.0000 0.0000
# 3 10.8863 48.0918 64.2226 0.0000 0.0000 0.0000
# 4 0.0000 0.0000 0.0000 35.8939 0.0000 0.0000
# 5 0.0000 0.0000 0.0000 0.0000 4.0667 0.0000
# 6 0.0000 0.0000 0.0000 0.0000 0.0000 33.6067
#
#
#
# Elastic Compliance Matrix: (Units=1/GPa)
#
#
# Indices 1 2 3 4 5 6 
#
# 1 0.012982 -0.000637 -0.001724 0.000000 0.000000 0.000000
# 2 -0.000637 0.006373 -0.004665 0.000000 0.000000 0.000000
# 3 -0.001724 -0.004665 0.019356 0.000000 0.000000 0.000000
# 4 0.000000 0.000000 0.000000 0.027860 0.000000 0.000000
# 5 0.000000 0.000000 0.000000 0.000000 0.245901 0.000000
# 6 0.000000 0.000000 0.000000 0.000000 0.000000 0.029756
#
#
# Mechanical properties :
#
#
# Convention : Reuss Voigt Hill
#
# Bulk Modulus (GPa) = 40.55014 54.09999 47.32507
# Shear Modulus (GPa) = 13.71752 32.20064 22.95908
#
# Velocity S-wave (km/s) = 2.49713 3.82591 3.23058
# Velocity P-wave (km/s) = 5.17178 6.64149 5.95217
#
# Compressibility (1/GPa) = 0.02466082
#
# Stress axis : x y z
#
# Youngs Moduli (GPa) = 77.03251 156.90662 51.66367
#
# Poissons Ratio (x) = 0.09991 0.08905
# Poissons Ratio (y) = 0.04905 0.24099
# Poissons Ratio (z) = 0.13278 0.73189
#
# Static dielectric constant tensor:
#      x y z
#    x 1.802370 0.000000 0.000000 
#    y 0.000000 1.954800 0.000000 
#    z 0.000000 0.000000 1.827950 
# 
# From -- ./inp_files/48474.got.cif
#   From: 2010.05.17/outbox.cif.g08.bks.cpg/sg68_25_cif.got.tgz:48474.got - 2010.06.03 18:57:09.
