data_PCOD9509552
_publ_section_title
;
Structure prediction by ZEFSAII (Michael W. Deem and Ramdas Pophale) SiO2 
 PCOD9509552
Probable space group: C C C A
;
_chemical_formula_sum "Si O2"
_cell_formula_units_Z 36
_cell_length_a 9.218716
_cell_length_b 11.792844
_cell_length_c 11.982871
_cell_angle_alpha 90.000000
_cell_angle_beta 90.000000
_cell_angle_gamma 90.000000
_cell_volume 1302.716379
_symmetry_space_group_name_H-M "C C C A"
_symmetry_group_IT_number 68
_space_group.IT_coordinate_system_code '2'
_symmetry_cell_setting 'orthorhombic'
loop_
_space_group_symop_operation_xyz
x,y,z
-x,1/2-y,z
x,1/2-y,1/2-z
-x,y,1/2-z
-x,-y,-z
x,1/2+y,-z
-x,1/2+y,1/2+z
x,-y,1/2+z
1/2+x,1/2+y,z
1/2-x,-y,z
1/2+x,-y,1/2-z
1/2-x,1/2+y,1/2-z
1/2-x,1/2-y,-z
1/2+x,y,-z
1/2-x,y,1/2+z
1/2+x,1/2-y,1/2+z
loop_
_atom_site_type_symbol
_atom_site_label
_atom_site_fract_x
_atom_site_fract_y
_atom_site_fract_z
Si Si1 0.750000 0.000000 0.897920
Si Si2 0.000000 0.250000 0.250000
Si Si3 0.500000 0.899890 0.750000
Si Si4 0.247918 0.634126 0.605136
O O1 0.603874 0.976724 0.829634
O O2 0.759891 0.882258 0.971306
O O3 0.109510 0.185656 0.334503
O O4 0.606304 0.831737 0.667109
O O5 0.250000 0.500000 0.629890
#
# Coordination Sequence:
#
# PCOD9509552 Si02
#       4
#     8   4   8  16
#     4  10  24  42  78 118 154 226 272 328 420 486
#     4  12  26  54  78 128 168 206 274 344 398 514
#     4  12  21  43  77 111 160 226 263 337 419 471
#     4  10  25  44  80 114 165 214 269 330 416 483
#
# _framework density 27.634566
#
# number of rings (size 3 to 8) (size 9 to 14) (size 15 to 20)
#    1.333    0.000    2.222    2.667    0.000    0.889 
#    0.000    8.889    0.000    0.000    0.000    0.000 
#    0.000    0.000    0.000    0.000    0.000    0.000 
#
# Total GULP energy -100510.845908 kJ/mol
# GULP energy per Si atom -5583.935884 kJ/mol
# Density = 2.757167 g / cm^3
# Si number density = 27.634566 Si / 1000 Ang^3
#
#
#
# Elastic Constant Matrix: (Units=GPa)
#
#
# Indices 1 2 3 4 5 6 
#
# 1 304.6552 84.4494 124.1030 0.0000 0.0000 0.0000
# 2 84.4494 65.8081 39.6154 0.0000 0.0000 0.0000
# 3 124.1030 39.6154 177.2896 0.0000 0.0000 0.0000
# 4 0.0000 0.0000 0.0000 48.9391 0.0000 0.0000
# 5 0.0000 0.0000 0.0000 0.0000 38.0858 0.0000
# 6 0.0000 0.0000 0.0000 0.0000 0.0000 72.1591
#
#
#
# Elastic Compliance Matrix: (Units=1/GPa)
#
#
# Indices 1 2 3 4 5 6 
#
# 1 0.006200 -0.006174 -0.002960 0.000000 0.000000 0.000000
# 2 -0.006174 0.023705 -0.000975 0.000000 0.000000 0.000000
# 3 -0.002960 -0.000975 0.007931 0.000000 0.000000 0.000000
# 4 0.000000 0.000000 0.000000 0.020434 0.000000 0.000000
# 5 0.000000 0.000000 0.000000 0.000000 0.026256 0.000000
# 6 0.000000 0.000000 0.000000 0.000000 0.000000 0.013858
#
#
# Mechanical properties :
#
#
# Convention : Reuss Voigt Hill
#
# Bulk Modulus (GPa) = 56.76334 116.00982 86.38658
# Shear Modulus (GPa) = 40.16876 51.80914 45.98895
#
# Velocity S-wave (km/s) = 3.81671 4.33459 4.08386
# Velocity P-wave (km/s) = 6.32521 8.19284 7.31884
#
# Compressibility (1/GPa) = 0.01761700
#
# Stress axis : x y z
#
# Youngs Moduli (GPa) = 161.30083 42.18445 126.09430
#
# Poissons Ratio (x) = 0.26044 0.37326
# Poissons Ratio (y) = 0.99583 0.12298
# Poissons Ratio (z) = 0.47748 0.04114
#
# Static dielectric constant tensor:
#      x y z
#    x 2.147500 0.000000 0.000000 
#    y 0.000000 2.947590 0.000000 
#    z 0.000000 0.000000 2.490130 
# 
# From -- ./inp_files/18611.got.cif
#   From: 2010.05.17/outbox.cif.g08.bks.cpg/sg68_10_cif.got.tgz:18611.got - 2010.06.03 18:57:09.
