data_PCOD9509147
_publ_section_title
;
Structure prediction by ZEFSAII (Michael W. Deem and Ramdas Pophale) SiO2 
 PCOD9509147
Probable space group: C C C A
;
_chemical_formula_sum "Si O2"
_cell_formula_units_Z 88
_cell_length_a 5.659554
_cell_length_b 28.094822
_cell_length_c 23.440797
_cell_angle_alpha 90.000000
_cell_angle_beta 90.000000
_cell_angle_gamma 90.000000
_cell_volume 3727.184289
_symmetry_space_group_name_H-M "C C C A"
_symmetry_group_IT_number 68
_space_group.IT_coordinate_system_code '2'
_symmetry_cell_setting 'orthorhombic'
loop_
_space_group_symop_operation_xyz
x,y,z
-x,1/2-y,z
x,1/2-y,1/2-z
-x,y,1/2-z
-x,-y,-z
x,1/2+y,-z
-x,1/2+y,1/2+z
x,-y,1/2+z
1/2+x,1/2+y,z
1/2-x,-y,z
1/2+x,-y,1/2-z
1/2-x,1/2+y,1/2-z
1/2-x,1/2-y,-z
1/2+x,y,-z
1/2-x,y,1/2+z
1/2+x,1/2-y,1/2+z
loop_
_atom_site_type_symbol
_atom_site_label
_atom_site_fract_x
_atom_site_fract_y
_atom_site_fract_z
Si Si1 0.109082 0.552472 0.469935
Si Si2 0.569703 0.135802 0.187453
Si Si3 0.098308 0.797560 0.864947
Si Si4 0.000000 0.250000 0.941885
Si Si5 0.691906 0.341646 0.067844
Si Si6 0.496068 0.526175 0.839172
O O1 0.375990 0.540921 0.492055
O O2 0.133334 0.609739 0.463347
O O3 0.049630 0.533930 0.406685
O O4 0.500000 0.152583 0.250000
O O5 0.820634 0.160500 0.176612
O O6 0.428756 0.153466 0.131150
O O7 0.537797 0.078914 0.185588
O O8 0.296963 0.770492 0.901473
O O9 0.000000 0.750000 0.834021
O O10 0.949272 0.826746 0.911727
O O11 0.101832 0.297131 0.969498
O O12 0.750000 0.500000 0.831438
O O13 0.250000 0.500000 0.818330
#
# Coordination Sequence:
#
# PCOD9509147 Si02
#       6
#    16  16  16   8  16  16
#     4  11  25  41  68  99 130 169 219 277 344 409
#     4  10  23  40  64  97 136 176 224 277 339 399
#     4   9  18  37  64  90 128 176 220 270 330 398
#     4   8  16  34  59  86 124 172 218 270 323 390
#     4   9  20  37  62  87 129 173 218 271 333 390
#     4  11  26  46  71  99 135 177 225 281 343 410
#
# _framework density 23.610316999999998
#
# number of rings (size 3 to 8) (size 9 to 14) (size 15 to 20)
#    0.000    2.182    0.000    1.091   12.727    3.636 
#    0.000   21.818    0.000    0.000    0.000    0.000 
#    0.000    0.000    0.000    0.000    0.000    0.000 
#
# Total GULP energy -245101.556728 kJ/mol
# GULP energy per Si atom -5570.489926 kJ/mol
# Density = 2.355658 g / cm^3
# Si number density = 23.610317 Si / 1000 Ang^3
#
#
#
# Elastic Constant Matrix: (Units=GPa)
#
#
# Indices 1 2 3 4 5 6 
#
# 1 126.1971 66.1857 32.5863 0.0000 0.0000 0.0000
# 2 66.1857 117.5463 27.5241 0.0000 0.0000 0.0000
# 3 32.5863 27.5241 95.5006 0.0000 0.0000 0.0000
# 4 0.0000 0.0000 0.0000 -16.4825 0.0000 0.0000
# 5 0.0000 0.0000 0.0000 0.0000 -3.7901 0.0000
# 6 0.0000 0.0000 0.0000 0.0000 0.0000 44.9034
#
#
#
# Elastic Compliance Matrix: (Units=1/GPa)
#
#
# Indices 1 2 3 4 5 6 
#
# 1 0.011675 -0.006049 -0.002240 0.000000 0.000000 0.000000
# 2 -0.006049 0.012257 -0.001469 0.000000 0.000000 0.000000
# 3 -0.002240 -0.001469 0.011659 0.000000 0.000000 0.000000
# 4 0.000000 0.000000 0.000000 -0.060670 0.000000 0.000000
# 5 0.000000 0.000000 0.000000 0.000000 -0.263843 0.000000
# 6 0.000000 0.000000 0.000000 0.000000 0.000000 0.022270
#
#
# Mechanical properties :
#
#
# Convention : Reuss Voigt Hill
#
# Bulk Modulus (GPa) = 62.20828 65.75958 63.98393
# Shear Modulus (GPa) = -20.68016 19.12268 -0.77874
#
# Velocity S-wave (km/s) = -2.96276 2.84901 -0.57493
# Velocity P-wave (km/s) = 3.83421 6.22375 5.16895
#
# Compressibility (1/GPa) = 0.01607503
#
# Stress axis : x y z
#
# Youngs Moduli (GPa) = 85.65149 81.58427 85.77205
#
# Poissons Ratio (x) = 0.49353 0.19216
# Poissons Ratio (y) = 0.51813 0.12596
# Poissons Ratio (z) = 0.19189 0.11981
#
# Static dielectric constant tensor:
#      x y z
#    x 2.062680 0.000000 0.000000 
#    y 0.000000 1.981340 0.000000 
#    z 0.000000 0.000000 1.852150 
# 
# From -- ./inp_files/42389.got.cif
#   From: 2010.05.17/outbox.cif.g08.bks.cpg/sg68_22_cif.got.tgz:42389.got - 2010.06.03 18:57:09.
