data_PCOD9509761
_publ_section_title
;
Structure prediction by ZEFSAII (Michael W. Deem and Ramdas Pophale) SiO2 
 PCOD9509761
Probable space group: C C C A
;
_chemical_formula_sum "Si O2"
_cell_formula_units_Z 104
_cell_length_a 18.845486
_cell_length_b 15.402310
_cell_length_c 12.957919
_cell_angle_alpha 90.000000
_cell_angle_beta 90.000000
_cell_angle_gamma 90.000000
_cell_volume 3761.217627
_symmetry_space_group_name_H-M "C C C A"
_symmetry_group_IT_number 68
_space_group.IT_coordinate_system_code '2'
_symmetry_cell_setting 'orthorhombic'
loop_
_space_group_symop_operation_xyz
x,y,z
-x,1/2-y,z
x,1/2-y,1/2-z
-x,y,1/2-z
-x,-y,-z
x,1/2+y,-z
-x,1/2+y,1/2+z
x,-y,1/2+z
1/2+x,1/2+y,z
1/2-x,-y,z
1/2+x,-y,1/2-z
1/2-x,1/2+y,1/2-z
1/2-x,1/2-y,-z
1/2+x,y,-z
1/2-x,y,1/2+z
1/2+x,1/2-y,1/2+z
loop_
_atom_site_type_symbol
_atom_site_label
_atom_site_fract_x
_atom_site_fract_y
_atom_site_fract_z
Si Si1 0.685026 0.933996 0.901529
Si Si2 0.500000 0.876099 0.250000
Si Si3 0.514640 0.642091 0.472981
Si Si4 0.845847 0.242176 0.984083
Si Si5 0.100178 0.469938 0.552886
Si Si6 0.145148 0.341949 0.298102
Si Si7 0.797219 0.873588 0.188579
O O1 0.692895 0.854006 0.983710
O O2 0.661894 0.887613 0.796623
O O3 0.750000 0.000000 0.885907
O O4 0.628161 0.002558 0.941030
O O5 0.508036 0.830143 0.360211
O O6 0.583133 0.908326 0.260396
O O7 0.426767 0.793616 0.517850
O O8 0.451273 0.613056 0.547912
O O9 0.549627 0.551582 0.433631
O O10 0.838476 0.307614 0.083250
O O11 0.817030 0.291448 0.882752
O O12 0.170425 0.451708 0.619260
O O13 0.122640 0.250000 0.250000
O O14 0.217502 0.366612 0.235001
#
# Coordination Sequence:
#
# PCOD9509761 Si02
#       7
#    16   8  16  16  16  16  16
#     4  11  28  50  79 121 165 225 274 338 432 504
#     4  12  25  44  80 120 154 215 288 342 416 511
#     4  10  24  49  85 114 164 226 276 351 415 502
#     4  11  26  55  80 121 168 216 287 352 418 502
#     4  10  26  51  79 123 167 218 280 340 418 519
#     4  12  27  46  80 119 160 218 275 358 421 492
#     4  12  29  50  82 120 171 217 279 356 427 500
#
# _framework density 27.650618999999999
#
# number of rings (size 3 to 8) (size 9 to 14) (size 15 to 20)
#    0.000    0.923    1.538    2.538    8.615    3.692 
#    5.538    0.000    0.000   14.769    0.000    0.000 
#    0.000    0.000    0.000    0.000    0.000    0.000 
#
# Total GULP energy -289626.402745 kJ/mol
# GULP energy per Si atom -5569.738514 kJ/mol
# Density = 2.758769 g / cm^3
# Si number density = 27.650619 Si / 1000 Ang^3
#
#
#
# Elastic Constant Matrix: (Units=GPa)
#
#
# Indices 1 2 3 4 5 6 
#
# 1 171.5238 31.4572 60.0912 0.0000 0.0000 0.0000
# 2 31.4572 150.4493 29.7440 0.0000 0.0000 0.0000
# 3 60.0912 29.7440 148.1816 0.0000 0.0000 0.0000
# 4 0.0000 0.0000 0.0000 231.4706 0.0000 0.0000
# 5 0.0000 0.0000 0.0000 0.0000 53.4193 0.0000
# 6 0.0000 0.0000 0.0000 0.0000 0.0000 35.7334
#
#
#
# Elastic Compliance Matrix: (Units=1/GPa)
#
#
# Indices 1 2 3 4 5 6 
#
# 1 0.006918 -0.000929 -0.002619 0.000000 0.000000 0.000000
# 2 -0.000929 0.007046 -0.001038 0.000000 0.000000 0.000000
# 3 -0.002619 -0.001038 0.008019 0.000000 0.000000 0.000000
# 4 0.000000 0.000000 0.000000 0.004320 0.000000 0.000000
# 5 0.000000 0.000000 0.000000 0.000000 0.018720 0.000000
# 6 0.000000 0.000000 0.000000 0.000000 0.000000 0.027985
#
#
# Mechanical properties :
#
#
# Convention : Reuss Voigt Hill
#
# Bulk Modulus (GPa) = 78.05140 79.19329 78.62235
# Shear Modulus (GPa) = 57.83730 87.38214 72.60972
#
# Velocity S-wave (km/s) = 4.57849 5.62769 5.12998
# Velocity P-wave (km/s) = 7.49927 8.42203 7.97401
#
# Compressibility (1/GPa) = 0.01281207
#
# Stress axis : x y z
#
# Youngs Moduli (GPa) = 144.55170 141.92255 124.70642
#
# Poissons Ratio (x) = 0.13180 0.32660
# Poissons Ratio (y) = 0.13424 0.12941
# Poissons Ratio (z) = 0.37858 0.14728
#
# Static dielectric constant tensor:
#      x y z
#    x 2.196090 0.000000 0.000000 
#    y 0.000000 2.169510 0.000000 
#    z 0.000000 0.000000 2.334380 
# 
# From -- ./inp_files/23822.got.cif
#   From: 2010.05.17/outbox.cif.g08.bks.cpg/sg68_12_cif.got.tgz:23822.got - 2010.06.03 18:57:09.
