data_PCOD9509379
_publ_section_title
;
Structure prediction by ZEFSAII (Michael W. Deem and Ramdas Pophale) SiO2 
 PCOD9509379
Probable space group: C C C A
;
_chemical_formula_sum "Si O2"
_cell_formula_units_Z 72
_cell_length_a 9.375106
_cell_length_b 13.762089
_cell_length_c 23.044356
_cell_angle_alpha 90.000000
_cell_angle_beta 90.000000
_cell_angle_gamma 90.000000
_cell_volume 2973.206850
_symmetry_space_group_name_H-M "C C C A"
_symmetry_group_IT_number 68
_space_group.IT_coordinate_system_code '2'
_symmetry_cell_setting 'orthorhombic'
loop_
_space_group_symop_operation_xyz
x,y,z
-x,1/2-y,z
x,1/2-y,1/2-z
-x,y,1/2-z
-x,-y,-z
x,1/2+y,-z
-x,1/2+y,1/2+z
x,-y,1/2+z
1/2+x,1/2+y,z
1/2-x,-y,z
1/2+x,-y,1/2-z
1/2-x,1/2+y,1/2-z
1/2-x,1/2-y,-z
1/2+x,y,-z
1/2-x,y,1/2+z
1/2+x,1/2-y,1/2+z
loop_
_atom_site_type_symbol
_atom_site_label
_atom_site_fract_x
_atom_site_fract_y
_atom_site_fract_z
Si Si1 0.500000 0.250000 0.907741
Si Si2 0.609317 0.552651 0.866681
Si Si3 0.091167 0.045272 0.051541
Si Si4 0.000000 0.250000 0.856933
Si Si5 0.250000 0.500000 0.749170
Si Si6 0.292353 0.692907 0.307385
O O1 0.447976 0.340279 0.946986
O O2 0.629769 0.246533 0.860740
O O3 0.750000 0.500000 0.892154
O O4 0.477319 0.490692 0.888146
O O5 0.577596 0.660983 0.888799
O O6 0.642229 0.550601 0.797703
O O7 0.250000 0.000000 0.048398
O O8 0.000000 0.000000 0.000000
O O9 0.875597 0.200240 0.820151
O O10 0.319254 0.417940 0.789060
O O11 0.330877 0.750000 0.250000
#
# Coordination Sequence:
#
# PCOD9509379 Si02
#       6
#     8  16  16   8   8  16
#     4  12  29  49  74 115 153 200 268 324 402 492
#     4  10  23  45  69 108 150 198 262 320 381 478
#     4  12  28  51  81 110 149 201 266 346 421 476
#     4  12  23  41  70 101 147 202 257 300 375 452
#     4  10  24  42  74 104 160 214 252 312 384 472
#     4  12  24  44  69 110 159 207 255 310 383 474
#
# _framework density 24.216277000000002
#
# number of rings (size 3 to 8) (size 9 to 14) (size 15 to 20)
#    0.667    0.000    2.222    5.333    4.667    1.778 
#    0.000    0.000    0.000    0.000    0.000    0.000 
#    0.000    0.000    0.000    0.000    0.000    0.000 
#
# Total GULP energy -200879.441522 kJ/mol
# GULP energy per Si atom -5579.984487 kJ/mol
# Density = 2.416116 g / cm^3
# Si number density = 24.216277 Si / 1000 Ang^3
#
#
#
# Elastic Constant Matrix: (Units=GPa)
#
#
# Indices 1 2 3 4 5 6 
#
# 1 179.7221 62.5762 62.5992 0.0000 0.0000 0.0000
# 2 62.5762 189.5756 34.2244 0.0000 0.0000 0.0000
# 3 62.5992 34.2244 97.2372 0.0000 0.0000 0.0000
# 4 0.0000 0.0000 0.0000 -70.9860 0.0000 0.0000
# 5 0.0000 0.0000 0.0000 0.0000 48.4572 0.0000
# 6 0.0000 0.0000 0.0000 0.0000 0.0000 45.5529
#
#
#
# Elastic Compliance Matrix: (Units=1/GPa)
#
#
# Indices 1 2 3 4 5 6 
#
# 1 0.007683 -0.001755 -0.004328 0.000000 0.000000 0.000000
# 2 -0.001755 0.006034 -0.000994 0.000000 0.000000 0.000000
# 3 -0.004328 -0.000994 0.013421 0.000000 0.000000 0.000000
# 4 0.000000 0.000000 0.000000 -0.014087 0.000000 0.000000
# 5 0.000000 0.000000 0.000000 0.000000 0.020637 0.000000
# 6 0.000000 0.000000 0.000000 0.000000 0.000000 0.021953
#
#
# Mechanical properties :
#
#
# Convention : Reuss Voigt Hill
#
# Bulk Modulus (GPa) = 77.02540 87.25940 82.14240
# Shear Modulus (GPa) = 67.45784 25.08049 46.26917
#
# Velocity S-wave (km/s) = 5.28364 3.22170 4.37586
# Velocity P-wave (km/s) = 8.31257 7.06758 7.71523
#
# Compressibility (1/GPa) = 0.01298273
#
# Stress axis : x y z
#
# Youngs Moduli (GPa) = 130.16301 165.73990 74.51261
#
# Poissons Ratio (x) = 0.29080 0.32252
# Poissons Ratio (y) = 0.22837 0.07407
# Poissons Ratio (z) = 0.56340 0.16476
#
# Static dielectric constant tensor:
#      x y z
#    x 1.963980 0.000000 0.000000 
#    y 0.000000 1.969890 0.000000 
#    z 0.000000 0.000000 1.891570 
# 
# From -- ./inp_files/48996.got.cif
#   From: 2010.05.17/outbox.cif.g08.bks.cpg/sg68_25_cif.got.tgz:48996.got - 2010.06.03 18:57:09.
