data_PCOD9509100
_publ_section_title
;
Structure prediction by ZEFSAII (Michael W. Deem and Ramdas Pophale) SiO2 
 PCOD9509100
Probable space group: C C C A
;
_chemical_formula_sum "Si O2"
_cell_formula_units_Z 80
_cell_length_a 31.233719
_cell_length_b 12.533118
_cell_length_c 11.306361
_cell_angle_alpha 90.000000
_cell_angle_beta 90.000000
_cell_angle_gamma 90.000000
_cell_volume 4425.941560
_symmetry_space_group_name_H-M "C C C A"
_symmetry_group_IT_number 68
_space_group.IT_coordinate_system_code '2'
_symmetry_cell_setting 'orthorhombic'
loop_
_space_group_symop_operation_xyz
x,y,z
-x,1/2-y,z
x,1/2-y,1/2-z
-x,y,1/2-z
-x,-y,-z
x,1/2+y,-z
-x,1/2+y,1/2+z
x,-y,1/2+z
1/2+x,1/2+y,z
1/2-x,-y,z
1/2+x,-y,1/2-z
1/2-x,1/2+y,1/2-z
1/2-x,1/2-y,-z
1/2+x,y,-z
1/2-x,y,1/2+z
1/2+x,1/2-y,1/2+z
loop_
_atom_site_type_symbol
_atom_site_label
_atom_site_fract_x
_atom_site_fract_y
_atom_site_fract_z
Si Si1 0.192779 0.595058 0.206984
Si Si2 0.163214 0.718828 0.439707
Si Si3 0.293538 0.854034 0.324715
Si Si4 0.496190 0.425321 0.113881
Si Si5 0.427818 0.252747 0.385179
O O1 0.174582 0.646132 0.326545
O O2 0.172494 0.659062 0.097537
O O3 0.243176 0.623810 0.196453
O O4 0.185667 0.468529 0.204690
O O5 0.193567 0.677585 0.543027
O O6 0.112544 0.717233 0.465339
O O7 0.306183 0.750000 0.250000
O O8 0.500000 0.469617 0.250000
O O9 0.451976 0.359402 0.098609
O O10 0.535081 0.340686 0.108006
O O11 0.500000 0.500000 0.000000
O O12 0.411187 0.250000 0.250000
#
# Coordination Sequence:
#
# PCOD9509100 Si02
#       5
#    16  16  16  16  16
#     4  10  23  38  60  80 115 168 203 246 314 352
#     4  11  21  40  60  85 120 160 208 253 296 369
#     4  11  24  38  58  89 118 158 210 261 306 348
#     4   9  19  37  62  89 117 154 193 240 300 365
#     4   9  18  38  60  83 115 158 199 228 292 376
#
# _framework density 18.075251000000002
#
# number of rings (size 3 to 8) (size 9 to 14) (size 15 to 20)
#    0.000    2.000    4.000    1.800    2.800    3.200 
#    0.000    2.000    0.000    0.000    0.000    0.000 
#    0.000    0.000    0.000    0.000    0.000    0.000 
#
# Total GULP energy -222799.088133 kJ/mol
# GULP energy per Si atom -5569.977203 kJ/mol
# Density = 1.803411 g / cm^3
# Si number density = 18.075251 Si / 1000 Ang^3
#
#
#
# Elastic Constant Matrix: (Units=GPa)
#
#
# Indices 1 2 3 4 5 6 
#
# 1 75.2338 22.2068 24.3093 0.0000 0.0000 0.0000
# 2 22.2068 128.8749 59.4179 0.0000 0.0000 0.0000
# 3 24.3093 59.4179 101.0627 0.0000 0.0000 0.0000
# 4 0.0000 0.0000 0.0000 23.2854 0.0000 0.0000
# 5 0.0000 0.0000 0.0000 0.0000 12.7162 0.0000
# 6 0.0000 0.0000 0.0000 0.0000 0.0000 5.5851
#
#
#
# Elastic Compliance Matrix: (Units=1/GPa)
#
#
# Indices 1 2 3 4 5 6 
#
# 1 0.014552 -0.001226 -0.002779 0.000000 0.000000 0.000000
# 2 -0.001226 0.010748 -0.006024 0.000000 0.000000 0.000000
# 3 -0.002779 -0.006024 0.014105 0.000000 0.000000 0.000000
# 4 0.000000 0.000000 0.000000 0.042945 0.000000 0.000000
# 5 0.000000 0.000000 0.000000 0.000000 0.078640 0.000000
# 6 0.000000 0.000000 0.000000 0.000000 0.000000 0.179048
#
#
# Mechanical properties :
#
#
# Convention : Reuss Voigt Hill
#
# Bulk Modulus (GPa) = 51.69070 57.44882 54.56976
# Shear Modulus (GPa) = 13.64083 21.59983 17.62033
#
# Velocity S-wave (km/s) = 2.75010 3.46062 3.12562
# Velocity P-wave (km/s) = 6.22444 6.91520 6.57889
#
# Compressibility (1/GPa) = 0.01934584
#
# Stress axis : x y z
#
# Youngs Moduli (GPa) = 68.71976 93.03848 70.89534
#
# Poissons Ratio (x) = 0.11407 0.19705
# Poissons Ratio (y) = 0.08425 0.42710
# Poissons Ratio (z) = 0.19100 0.56049
#
# Static dielectric constant tensor:
#      x y z
#    x 1.661300 0.000000 0.000000 
#    y 0.000000 1.630580 0.000000 
#    z 0.000000 0.000000 1.630710 
# 
# From -- ./inp_files/17566.got.cif
#   From: 2010.05.17/outbox.cif.g08.bks.cpg/sg68_9_cif.got.tgz:17566.got - 2010.06.03 18:57:09.
