data_PCOD9509091
_publ_section_title
;
Structure prediction by ZEFSAII (Michael W. Deem and Ramdas Pophale) SiO2 
 PCOD9509091
Probable space group: C C C A
;
_chemical_formula_sum "Si O2"
_cell_formula_units_Z 104
_cell_length_a 17.690342
_cell_length_b 13.868117
_cell_length_c 21.635189
_cell_angle_alpha 90.000000
_cell_angle_beta 90.000000
_cell_angle_gamma 90.000000
_cell_volume 5307.798403
_symmetry_space_group_name_H-M "C C C A"
_symmetry_group_IT_number 68
_space_group.IT_coordinate_system_code '2'
_symmetry_cell_setting 'orthorhombic'
loop_
_space_group_symop_operation_xyz
x,y,z
-x,1/2-y,z
x,1/2-y,1/2-z
-x,y,1/2-z
-x,-y,-z
x,1/2+y,-z
-x,1/2+y,1/2+z
x,-y,1/2+z
1/2+x,1/2+y,z
1/2-x,-y,z
1/2+x,-y,1/2-z
1/2-x,1/2+y,1/2-z
1/2-x,1/2-y,-z
1/2+x,y,-z
1/2-x,y,1/2+z
1/2+x,1/2-y,1/2+z
loop_
_atom_site_type_symbol
_atom_site_label
_atom_site_fract_x
_atom_site_fract_y
_atom_site_fract_z
Si Si1 0.250000 0.500000 0.010696
Si Si2 0.155044 0.165776 0.928671
Si Si3 0.904495 0.030848 0.359948
Si Si4 0.378053 0.384756 0.450099
Si Si5 0.500000 0.520074 0.750000
Si Si6 0.750000 0.000000 0.792830
Si Si7 0.476360 0.640238 0.475763
Si Si8 0.645492 0.646054 0.782040
O O1 0.219038 0.591448 0.048746
O O2 0.314866 0.539758 0.967467
O O3 0.157841 0.278697 0.947700
O O4 0.154463 0.159461 0.855184
O O5 0.078359 0.135876 0.964550
O O6 0.933570 0.093692 0.417792
O O7 0.963855 0.042421 0.304750
O O8 0.908549 0.919287 0.383680
O O9 0.819190 0.043344 0.333961
O O10 0.443774 0.400253 0.500526
O O11 0.568263 0.587075 0.772609
O O12 0.788849 0.081774 0.750129
O O13 0.500000 0.750000 0.461220
O O14 0.642451 0.750000 0.750000
#
# Coordination Sequence:
#
# PCOD9509091 Si02
#       8
#     8  16  16  16   8   8  16  16
#     4  12  24  38  62  94 134 162 202 268 328 392
#     4  11  23  41  65  96 126 166 216 263 327 384
#     4  11  21  42  66  89 131 170 215 264 326 382
#     4  11  23  39  64  96 125 166 209 267 330 384
#     4  10  23  36  67  92 118 172 217 262 314 383
#     4  10  24  42  62  92 126 176 216 254 324 390
#     4  10  23  41  65  95 126 165 218 269 321 387
#     4  11  23  43  62  93 129 166 214 269 313 380
#
# _framework density 19.593810999999999
#
# number of rings (size 3 to 8) (size 9 to 14) (size 15 to 20)
#    0.000    1.231    1.538    4.846    2.154    2.462 
#    5.538    0.385    0.000    0.000    0.000    0.000 
#    0.000    0.000    0.000    0.000    0.000    0.000 
#
# Total GULP energy -290189.363217 kJ/mol
# GULP energy per Si atom -5580.564677 kJ/mol
# Density = 1.954921 g / cm^3
# Si number density = 19.593811 Si / 1000 Ang^3
#
#
#
# Elastic Constant Matrix: (Units=GPa)
#
#
# Indices 1 2 3 4 5 6 
#
# 1 132.1008 48.1638 71.3880 0.0000 0.0000 0.0000
# 2 48.1638 70.0971 43.7372 0.0000 0.0000 0.0000
# 3 71.3880 43.7372 151.3735 0.0000 0.0000 0.0000
# 4 0.0000 0.0000 0.0000 28.6155 0.0000 0.0000
# 5 0.0000 0.0000 0.0000 0.0000 8.1032 0.0000
# 6 0.0000 0.0000 0.0000 0.0000 0.0000 34.4162
#
#
#
# Elastic Compliance Matrix: (Units=1/GPa)
#
#
# Indices 1 2 3 4 5 6 
#
# 1 0.011732 -0.005622 -0.003908 0.000000 0.000000 0.000000
# 2 -0.005622 0.020098 -0.003155 0.000000 0.000000 0.000000
# 3 -0.003908 -0.003155 0.009361 0.000000 0.000000 0.000000
# 4 0.000000 0.000000 0.000000 0.034946 0.000000 0.000000
# 5 0.000000 0.000000 0.000000 0.000000 0.123409 0.000000
# 6 0.000000 0.000000 0.000000 0.000000 0.000000 0.029056
#
#
# Mechanical properties :
#
#
# Convention : Reuss Voigt Hill
#
# Bulk Modulus (GPa) = 63.21676 75.57216 69.39446
# Shear Modulus (GPa) = 19.28660 26.91246 23.09953
#
# Velocity S-wave (km/s) = 3.14079 3.71012 3.43727
# Velocity P-wave (km/s) = 6.74436 7.55026 7.15866
#
# Compressibility (1/GPa) = 0.01581859
#
# Stress axis : x y z
#
# Youngs Moduli (GPa) = 85.23701 49.75619 106.82557
#
# Poissons Ratio (x) = 0.27975 0.41751
# Poissons Ratio (y) = 0.47924 0.33708
# Poissons Ratio (z) = 0.33313 0.15700
#
# Static dielectric constant tensor:
#      x y z
#    x 1.693180 0.000000 0.000000 
#    y 0.000000 1.705280 0.000000 
#    z 0.000000 0.000000 1.711810 
# 
# From -- ./inp_files/39658.got.cif
#   From: 2010.05.17/outbox.cif.g08.bks.cpg/sg68_20_cif.got.tgz:39658.got - 2010.06.03 18:57:09.
