data_PCOD9509408
_publ_section_title
;
Structure prediction by ZEFSAII (Michael W. Deem and Ramdas Pophale) SiO2 
 PCOD9509408
Probable space group: C C C A
;
_chemical_formula_sum "Si O2"
_cell_formula_units_Z 112
_cell_length_a 22.768109
_cell_length_b 14.520732
_cell_length_c 15.322710
_cell_angle_alpha 90.000000
_cell_angle_beta 90.000000
_cell_angle_gamma 90.000000
_cell_volume 5065.835161
_symmetry_space_group_name_H-M "C C C A"
_symmetry_group_IT_number 68
_space_group.IT_coordinate_system_code '2'
_symmetry_cell_setting 'orthorhombic'
loop_
_space_group_symop_operation_xyz
x,y,z
-x,1/2-y,z
x,1/2-y,1/2-z
-x,y,1/2-z
-x,-y,-z
x,1/2+y,-z
-x,1/2+y,1/2+z
x,-y,1/2+z
1/2+x,1/2+y,z
1/2-x,-y,z
1/2+x,-y,1/2-z
1/2-x,1/2+y,1/2-z
1/2-x,1/2-y,-z
1/2+x,y,-z
1/2-x,y,1/2+z
1/2+x,1/2-y,1/2+z
loop_
_atom_site_type_symbol
_atom_site_label
_atom_site_fract_x
_atom_site_fract_y
_atom_site_fract_z
Si Si1 0.117100 0.043839 0.571541
Si Si2 0.067114 0.758997 0.024696
Si Si3 0.708934 0.352978 0.783724
Si Si4 0.914778 0.195178 0.159440
Si Si5 0.606185 0.574951 0.913842
Si Si6 0.175345 0.045202 0.743921
Si Si7 0.000365 0.480825 0.151524
O O1 0.088208 0.137061 0.535869
O O2 0.160727 0.079625 0.647548
O O3 0.138767 0.982455 0.489895
O O4 0.066288 0.983556 0.618720
O O5 0.106962 0.683524 0.071609
O O6 0.000000 0.750000 0.054285
O O7 0.071540 0.739831 0.921676
O O8 0.718628 0.250000 0.750000
O O9 0.653066 0.341102 0.848763
O O10 0.772899 0.399694 0.795448
O O11 0.685356 0.436569 0.723818
O O12 0.917504 0.250000 0.250000
O O13 0.963240 0.114515 0.157805
O O14 0.625402 0.550554 0.816309
O O15 0.538511 0.542004 0.915168
O O16 0.000000 0.519790 0.250000
#
# Coordination Sequence:
#
# PCOD9509408 Si02
#       7
#    16  16  16  16  16  16  16
#     4  12  25  45  68 102 147 184 233 285 357 433
#     4  12  26  40  67 107 145 185 229 287 357 439
#     4  10  23  46  74 100 132 181 245 302 339 411
#     4  11  25  42  69 101 138 180 236 297 350 408
#     4  12  25  43  67 102 141 183 228 289 345 431
#     4  11  25  48  72  98 139 188 232 294 363 408
#     4  12  22  42  68  99 141 185 224 282 355 419
#
# _framework density 22.108892999999998
#
# number of rings (size 3 to 8) (size 9 to 14) (size 15 to 20)
#    0.000    0.571    5.714    1.286   10.000    0.000 
#    0.000    7.857    0.000    0.000    0.000    0.000 
#    0.000    0.000    0.000    0.000    0.000    0.000 
#
# Total GULP energy -312119.249984 kJ/mol
# GULP energy per Si atom -5573.558035 kJ/mol
# Density = 2.205857 g / cm^3
# Si number density = 22.108893 Si / 1000 Ang^3
#
#
#
# Elastic Constant Matrix: (Units=GPa)
#
#
# Indices 1 2 3 4 5 6 
#
# 1 68.3106 18.2107 -1.2943 0.0000 0.0000 0.0000
# 2 18.2107 130.2310 14.0621 0.0000 0.0000 0.0000
# 3 -1.2943 14.0621 83.1952 0.0000 0.0000 0.0000
# 4 0.0000 0.0000 0.0000 28.0078 0.0000 0.0000
# 5 0.0000 0.0000 0.0000 0.0000 11.3167 0.0000
# 6 0.0000 0.0000 0.0000 0.0000 0.0000 24.4205
#
#
#
# Elastic Compliance Matrix: (Units=1/GPa)
#
#
# Indices 1 2 3 4 5 6 
#
# 1 0.015236 -0.002196 0.000608 0.000000 0.000000 0.000000
# 2 -0.002196 0.008138 -0.001410 0.000000 0.000000 0.000000
# 3 0.000608 -0.001410 0.012268 0.000000 0.000000 0.000000
# 4 0.000000 0.000000 0.000000 0.035704 0.000000 0.000000
# 5 0.000000 0.000000 0.000000 0.000000 0.088365 0.000000
# 6 0.000000 0.000000 0.000000 0.000000 0.000000 0.040949
#
#
# Mechanical properties :
#
#
# Convention : Reuss Voigt Hill
#
# Bulk Modulus (GPa) = 33.73094 38.18822 35.95958
# Shear Modulus (GPa) = 23.09070 29.46622 26.27846
#
# Velocity S-wave (km/s) = 3.23524 3.65468 3.45134
# Velocity P-wave (km/s) = 5.40791 5.92615 5.67295
#
# Compressibility (1/GPa) = 0.02964637
#
# Stress axis : x y z
#
# Youngs Moduli (GPa) = 65.63396 122.88062 81.51516
#
# Poissons Ratio (x) = 0.26987 -0.04958
# Poissons Ratio (y) = 0.14414 0.11491
# Poissons Ratio (z) = -0.03992 0.17322
#
# Static dielectric constant tensor:
#      x y z
#    x 1.941510 0.000000 0.000000 
#    y 0.000000 1.822950 0.000000 
#    z 0.000000 0.000000 1.830880 
# 
# From -- ./inp_files/25473.got.cif
#   From: 2010.05.17/outbox.cif.g08.bks.cpg/sg68_13_cif.got.tgz:25473.got - 2010.06.03 18:57:09.
