data_PCOD9509861
_publ_section_title
;
Structure prediction by ZEFSAII (Michael W. Deem and Ramdas Pophale) SiO2 
 PCOD9509861
Probable space group: C C C A
;
_chemical_formula_sum "Si O2"
_cell_formula_units_Z 88
_cell_length_a 13.951747
_cell_length_b 11.023379
_cell_length_c 25.704437
_cell_angle_alpha 90.000000
_cell_angle_beta 90.000000
_cell_angle_gamma 90.000000
_cell_volume 3953.224039
_symmetry_space_group_name_H-M "C C C A"
_symmetry_group_IT_number 68
_space_group.IT_coordinate_system_code '2'
_symmetry_cell_setting 'orthorhombic'
loop_
_space_group_symop_operation_xyz
x,y,z
-x,1/2-y,z
x,1/2-y,1/2-z
-x,y,1/2-z
-x,-y,-z
x,1/2+y,-z
-x,1/2+y,1/2+z
x,-y,1/2+z
1/2+x,1/2+y,z
1/2-x,-y,z
1/2+x,-y,1/2-z
1/2-x,1/2+y,1/2-z
1/2-x,1/2-y,-z
1/2+x,y,-z
1/2-x,y,1/2+z
1/2+x,1/2-y,1/2+z
loop_
_atom_site_type_symbol
_atom_site_label
_atom_site_fract_x
_atom_site_fract_y
_atom_site_fract_z
Si Si1 0.853908 0.560344 0.786558
Si Si2 0.329800 0.335453 0.388603
Si Si3 0.084596 0.644096 0.042384
Si Si4 0.750000 0.000000 0.978097
Si Si5 0.000329 0.506173 0.370379
Si Si6 0.137364 0.663787 0.825073
O O1 0.750000 0.500000 0.789446
O O2 0.862813 0.697216 0.808263
O O3 0.877849 0.580266 0.725872
O O4 0.922510 0.487862 0.825080
O O5 0.355931 0.204636 0.410138
O O6 0.308884 0.411109 0.440754
O O7 0.421672 0.390018 0.360961
O O8 0.239473 0.351911 0.351917
O O9 0.168685 0.585454 0.006255
O O10 0.000000 0.750000 0.028400
O O11 0.034200 0.530540 0.070921
O O12 0.056641 0.379587 0.364949
#
# Coordination Sequence:
#
# PCOD9509861 Si02
#       6
#    16  16  16   8  16  16
#     4  11  24  41  68 104 138 187 236 283 351 426
#     4  11  23  47  67 101 140 185 231 296 362 422
#     4  10  26  44  71 106 140 186 249 295 364 435
#     4  12  24  48  76  98 140 190 236 312 360 438
#     4  11  22  42  66  98 138 178 227 293 344 422
#     4  11  23  43  69 100 142 185 234 287 350 428
#
# _framework density 22.260311000000002
#
# number of rings (size 3 to 8) (size 9 to 14) (size 15 to 20)
#    0.000    1.091    1.818    3.818    3.818    4.364 
#    3.273    0.000    0.000    7.636    0.000    0.000 
#    0.000    0.000    0.000    0.000    0.000    0.000 
#
# Total GULP energy -245365.556708 kJ/mol
# GULP energy per Si atom -5576.489925 kJ/mol
# Density = 2.220965 g / cm^3
# Si number density = 22.260311 Si / 1000 Ang^3
#
#
#
# Elastic Constant Matrix: (Units=GPa)
#
#
# Indices 1 2 3 4 5 6 
#
# 1 115.2560 25.7225 57.3214 0.0000 0.0000 0.0000
# 2 25.7225 71.8801 45.9204 0.0000 0.0000 0.0000
# 3 57.3214 45.9204 92.6483 0.0000 0.0000 0.0000
# 4 0.0000 0.0000 0.0000 -46.4299 0.0000 0.0000
# 5 0.0000 0.0000 0.0000 0.0000 22.3780 0.0000
# 6 0.0000 0.0000 0.0000 0.0000 0.0000 26.8368
#
#
#
# Elastic Compliance Matrix: (Units=1/GPa)
#
#
# Indices 1 2 3 4 5 6 
#
# 1 0.012556 0.000687 -0.008109 0.000000 0.000000 0.000000
# 2 0.000687 0.020396 -0.010534 0.000000 0.000000 0.000000
# 3 -0.008109 -0.010534 0.021032 0.000000 0.000000 0.000000
# 4 0.000000 0.000000 0.000000 -0.021538 0.000000 0.000000
# 5 0.000000 0.000000 0.000000 0.000000 0.044687 0.000000
# 6 0.000000 0.000000 0.000000 0.000000 0.000000 0.037262
#
#
# Mechanical properties :
#
#
# Convention : Reuss Voigt Hill
#
# Bulk Modulus (GPa) = 55.33554 59.74589 57.54071
# Shear Modulus (GPa) = 31.98356 10.61165 21.29761
#
# Velocity S-wave (km/s) = 3.79462 2.18573 3.09650
# Velocity P-wave (km/s) = 6.64163 5.76783 6.22009
#
# Compressibility (1/GPa) = 0.01807157
#
# Stress axis : x y z
#
# Youngs Moduli (GPa) = 79.64411 49.02941 47.54732
#
# Poissons Ratio (x) = -0.03369 0.38556
# Poissons Ratio (y) = -0.05473 0.50087
# Poissons Ratio (z) = 0.64583 0.51649
#
# Static dielectric constant tensor:
#      x y z
#    x 1.893210 0.000000 0.000000 
#    y 0.000000 1.928940 0.000000 
#    z 0.000000 0.000000 1.829980 
# 
# From -- ./inp_files/45314.got.cif
#   From: 2010.05.17/outbox.cif.g08.bks.cpg/sg68_23_cif.got.tgz:45314.got - 2010.06.03 18:57:09.
