data_PCOD9509018
_publ_section_title
;
Structure prediction by ZEFSAII (Michael W. Deem and Ramdas Pophale) SiO2 
 PCOD9509018
Probable space group: C C C A
;
_chemical_formula_sum "Si O2"
_cell_formula_units_Z 48
_cell_length_a 7.865146
_cell_length_b 12.453442
_cell_length_c 19.563024
_cell_angle_alpha 90.000000
_cell_angle_beta 90.000000
_cell_angle_gamma 90.000000
_cell_volume 1916.161804
_symmetry_space_group_name_H-M "C C C A"
_symmetry_group_IT_number 68
_space_group.IT_coordinate_system_code '2'
_symmetry_cell_setting 'orthorhombic'
loop_
_space_group_symop_operation_xyz
x,y,z
-x,1/2-y,z
x,1/2-y,1/2-z
-x,y,1/2-z
-x,-y,-z
x,1/2+y,-z
-x,1/2+y,1/2+z
x,-y,1/2+z
1/2+x,1/2+y,z
1/2-x,-y,z
1/2+x,-y,1/2-z
1/2-x,1/2+y,1/2-z
1/2-x,1/2-y,-z
1/2+x,y,-z
1/2-x,y,1/2+z
1/2+x,1/2-y,1/2+z
loop_
_atom_site_type_symbol
_atom_site_label
_atom_site_fract_x
_atom_site_fract_y
_atom_site_fract_z
Si Si1 0.273730 0.695837 0.073869
Si Si2 0.118368 0.581954 0.900315
Si Si3 0.918088 0.070067 0.685032
O O1 0.305174 0.802937 0.118466
O O2 0.438989 0.619120 0.066070
O O3 0.128021 0.634289 0.115223
O O4 0.250000 0.750000 0.000000
O O5 0.250000 0.500000 0.937500
O O6 0.060172 0.515353 0.835708
O O7 0.000000 0.128380 0.750000
O O8 0.750000 0.000000 0.699806
#
# Coordination Sequence:
#
# PCOD9509018 Si02
#       3
#    16  16  16
#     4  10  24  44  68 102 141 186 240 301 372 448
#     4  10  23  43  68  99 136 182 237 298 363 439
#     4  10  22  45  71 100 140 186 237 298 371 448
#
# _framework density 25.050077000000002
#
# number of rings (size 3 to 8) (size 9 to 14) (size 15 to 20)
#    0.000    2.000    0.000    1.000    0.000   13.333 
#    0.000   33.333    0.000    0.000    0.000    0.000 
#    0.000    0.000    0.000    0.000    0.000    0.000 
#
# Total GULP energy -133834.582400 kJ/mol
# GULP energy per Si atom -5576.440933 kJ/mol
# Density = 2.499306 g / cm^3
# Si number density = 25.050077 Si / 1000 Ang^3
#
#
#
# Elastic Constant Matrix: (Units=GPa)
#
#
# Indices 1 2 3 4 5 6 
#
# 1 127.9160 58.1217 56.2471 0.0000 0.0000 0.0000
# 2 58.1217 138.0735 46.6414 0.0000 0.0000 0.0000
# 3 56.2471 46.6414 134.0678 0.0000 0.0000 0.0000
# 4 0.0000 0.0000 0.0000 2.3514 0.0000 0.0000
# 5 0.0000 0.0000 0.0000 0.0000 34.9741 0.0000
# 6 0.0000 0.0000 0.0000 0.0000 0.0000 57.1312
#
#
#
# Elastic Compliance Matrix: (Units=1/GPa)
#
#
# Indices 1 2 3 4 5 6 
#
# 1 0.010856 -0.003435 -0.003359 0.000000 0.000000 0.000000
# 2 -0.003435 0.009294 -0.001792 0.000000 0.000000 0.000000
# 3 -0.003359 -0.001792 0.009492 0.000000 0.000000 0.000000
# 4 0.000000 0.000000 0.000000 0.425287 0.000000 0.000000
# 5 0.000000 0.000000 0.000000 0.000000 0.028593 0.000000
# 6 0.000000 0.000000 0.000000 0.000000 0.000000 0.017504
#
#
# Mechanical properties :
#
#
# Convention : Reuss Voigt Hill
#
# Bulk Modulus (GPa) = 80.20331 80.23085 80.21708
# Shear Modulus (GPa) = 9.57207 34.82781 22.19994
#
# Velocity S-wave (km/s) = 1.95690 3.73275 2.98018
# Velocity P-wave (km/s) = 6.09858 7.11868 6.62828
#
# Compressibility (1/GPa) = 0.01246831
#
# Stress axis : x y z
#
# Youngs Moduli (GPa) = 92.11917 107.59863 105.35383
#
# Poissons Ratio (x) = 0.36958 0.35393
# Poissons Ratio (y) = 0.31641 0.18882
# Poissons Ratio (z) = 0.30946 0.19284
#
# Static dielectric constant tensor:
#      x y z
#    x 2.084240 0.000000 0.000000 
#    y 0.000000 2.006600 0.000000 
#    z 0.000000 0.000000 2.075520 
# 
# From -- ./inp_files/35438.got.cif
#   From: 2010.05.17/outbox.cif.g08.bks.cpg/sg68_18_cif.got.tgz:35438.got - 2010.06.03 18:57:09.
