data_PCOD9509319
_publ_section_title
;
Structure prediction by ZEFSAII (Michael W. Deem and Ramdas Pophale) SiO2 
 PCOD9509319
Probable space group: C C C A
;
_chemical_formula_sum "Si O2"
_cell_formula_units_Z 96
_cell_length_a 11.086010
_cell_length_b 15.732255
_cell_length_c 28.037579
_cell_angle_alpha 90.000000
_cell_angle_beta 90.000000
_cell_angle_gamma 90.000000
_cell_volume 4889.976291
_symmetry_space_group_name_H-M "C C C A"
_symmetry_group_IT_number 68
_space_group.IT_coordinate_system_code '2'
_symmetry_cell_setting 'orthorhombic'
loop_
_space_group_symop_operation_xyz
x,y,z
-x,1/2-y,z
x,1/2-y,1/2-z
-x,y,1/2-z
-x,-y,-z
x,1/2+y,-z
-x,1/2+y,1/2+z
x,-y,1/2+z
1/2+x,1/2+y,z
1/2-x,-y,z
1/2+x,-y,1/2-z
1/2-x,1/2+y,1/2-z
1/2-x,1/2-y,-z
1/2+x,y,-z
1/2-x,y,1/2+z
1/2+x,1/2-y,1/2+z
loop_
_atom_site_type_symbol
_atom_site_label
_atom_site_fract_x
_atom_site_fract_y
_atom_site_fract_z
Si Si1 0.199542 0.750000 0.750000
Si Si2 0.750000 0.500000 0.679496
Si Si3 0.000000 0.250000 0.877763
Si Si4 0.389309 0.525421 0.966453
Si Si5 0.094364 0.866839 0.208154
Si Si6 0.197529 0.212331 0.549281
Si Si7 0.000000 0.750000 0.828008
Si Si8 0.616803 0.385769 0.610558
O O1 0.286453 0.678806 0.771462
O O2 0.112059 0.771323 0.793835
O O3 0.868851 0.466008 0.704986
O O4 0.715669 0.420472 0.647085
O O5 0.042552 0.324582 0.840764
O O6 0.113550 0.234056 0.913921
O O7 0.250000 0.500000 0.980835
O O8 0.380875 0.626686 0.960219
O O9 0.415765 0.469983 0.919047
O O10 0.500000 0.500000 0.000000
O O11 0.000000 0.853617 0.250000
O O12 0.250000 0.250000 0.500000
O O13 0.316155 0.179936 0.576329
O O14 0.020426 0.667552 0.860618
#
# Coordination Sequence:
#
# PCOD9509319 Si02
#       8
#     8   8   8  16  16  16   8  16
#     4  11  21  42  62 108 139 167 232 292 332 417
#     4  12  22  46  66  98 140 182 222 284 368 418
#     4  12  21  41  72  99 131 184 234 286 350 416
#     4  10  23  44  63  91 137 180 227 298 354 409
#     4  12  24  43  76 101 138 182 231 290 358 424
#     4  11  25  39  66 101 133 181 243 291 341 427
#     4  11  24  35  72  97 135 182 223 286 349 428
#     4  11  22  44  63  94 136 184 222 287 358 412
#
# _framework density 19.631996000000001
#
# number of rings (size 3 to 8) (size 9 to 14) (size 15 to 20)
#    0.000    0.833    7.500    0.000    7.000    1.333 
#    0.000    0.000    0.000    0.000    0.000    0.000 
#    0.000    0.000    0.000    0.000    0.000    0.000 
#
# Total GULP energy -267369.977485 kJ/mol
# GULP energy per Si atom -5570.207864 kJ/mol
# Density = 1.958731 g / cm^3
# Si number density = 19.631996 Si / 1000 Ang^3
#
#
#
# Elastic Constant Matrix: (Units=GPa)
#
#
# Indices 1 2 3 4 5 6 
#
# 1 96.9797 46.4190 73.6502 0.0000 0.0000 0.0000
# 2 46.4190 81.7227 57.4415 0.0000 0.0000 0.0000
# 3 73.6502 57.4415 135.7991 0.0000 0.0000 0.0000
# 4 0.0000 0.0000 0.0000 28.0161 0.0000 0.0000
# 5 0.0000 0.0000 0.0000 0.0000 40.0943 0.0000
# 6 0.0000 0.0000 0.0000 0.0000 0.0000 29.9240
#
#
#
# Elastic Compliance Matrix: (Units=1/GPa)
#
#
# Indices 1 2 3 4 5 6 
#
# 1 0.018876 -0.005018 -0.008115 0.000000 0.000000 0.000000
# 2 -0.005018 0.018748 -0.005209 0.000000 0.000000 0.000000
# 3 -0.008115 -0.005209 0.013968 0.000000 0.000000 0.000000
# 4 0.000000 0.000000 0.000000 0.035694 0.000000 0.000000
# 5 0.000000 0.000000 0.000000 0.000000 0.024941 0.000000
# 6 0.000000 0.000000 0.000000 0.000000 0.000000 0.033418
#
#
# Mechanical properties :
#
#
# Convention : Reuss Voigt Hill
#
# Bulk Modulus (GPa) = 67.07324 74.39142 70.73233
# Shear Modulus (GPa) = 26.69557 28.73961 27.71759
#
# Velocity S-wave (km/s) = 3.69155 3.83027 3.76155
# Velocity P-wave (km/s) = 7.23944 7.58528 7.41438
#
# Compressibility (1/GPa) = 0.01490908
#
# Stress axis : x y z
#
# Youngs Moduli (GPa) = 52.97756 53.33969 71.59201
#
# Poissons Ratio (x) = 0.26765 0.58095
# Poissons Ratio (y) = 0.26584 0.37290
# Poissons Ratio (z) = 0.42990 0.27783
#
# Static dielectric constant tensor:
#      x y z
#    x 1.744990 0.000000 0.000000 
#    y 0.000000 1.785490 0.000000 
#    z 0.000000 0.000000 -1.745790 
# 
# From -- ./inp_files/44484.got.cif
#   From: 2010.05.17/outbox.cif.g08.bks.cpg/sg68_23_cif.got.tgz:44484.got - 2010.06.03 18:57:09.
