data_PCOD9509961
_publ_section_title
;
Structure prediction by ZEFSAII (Michael W. Deem and Ramdas Pophale) SiO2 
 PCOD9509961
Probable space group: C C C A
;
_chemical_formula_sum "Si O2"
_cell_formula_units_Z 116
_cell_length_a 18.188490
_cell_length_b 12.914042
_cell_length_c 22.390785
_cell_angle_alpha 90.000000
_cell_angle_beta 90.000000
_cell_angle_gamma 90.000000
_cell_volume 5259.302610
_symmetry_space_group_name_H-M "C C C A"
_symmetry_group_IT_number 68
_space_group.IT_coordinate_system_code '2'
_symmetry_cell_setting 'orthorhombic'
loop_
_space_group_symop_operation_xyz
x,y,z
-x,1/2-y,z
x,1/2-y,1/2-z
-x,y,1/2-z
-x,-y,-z
x,1/2+y,-z
-x,1/2+y,1/2+z
x,-y,1/2+z
1/2+x,1/2+y,z
1/2-x,-y,z
1/2+x,-y,1/2-z
1/2-x,1/2+y,1/2-z
1/2-x,1/2-y,-z
1/2+x,y,-z
1/2-x,y,1/2+z
1/2+x,1/2-y,1/2+z
loop_
_atom_site_type_symbol
_atom_site_label
_atom_site_fract_x
_atom_site_fract_y
_atom_site_fract_z
Si Si1 0.572411 0.699387 0.133325
Si Si2 0.121874 0.318921 0.835290
Si Si3 0.048313 0.975354 0.074933
Si Si4 0.902789 0.848849 0.068779
Si Si5 0.223844 0.379821 0.344917
Si Si6 0.500000 0.250000 0.250000
Si Si7 0.766345 0.880838 0.984643
Si Si8 0.895133 0.170027 0.019798
O O1 0.500000 0.750000 0.164004
O O2 0.554508 0.595652 0.092826
O O3 0.641932 0.659253 0.172774
O O4 0.408475 0.707713 0.086665
O O5 0.104012 0.411920 0.881775
O O6 0.114629 0.212007 0.871001
O O7 0.205933 0.325247 0.814947
O O8 0.056114 0.319150 0.788276
O O9 0.967371 0.928365 0.083301
O O10 0.073293 0.936216 0.008808
O O11 0.829686 0.883506 0.034502
O O12 0.927182 0.759554 0.022565
O O13 0.250000 0.500000 0.339079
O O14 0.220927 0.349412 0.415679
O O15 0.750000 0.000000 0.976124
O O16 0.692181 0.828653 0.008066
#
# Coordination Sequence:
#
# PCOD9509961 Si02
#       8
#    16  16  16  16  16   4  16  16
#     4  12  25  36  58  91 130 187 228 261 308 397
#     4  11  21  41  70  93 127 154 213 288 340 399
#     4  11  22  40  55  87 131 175 215 276 327 366
#     4  11  20  34  55  83 125 170 204 265 330 364
#     4  11  20  40  62  92 132 183 226 261 321 397
#     4  12  24  44  76 116 108 152 220 292 368 398
#     4  11  21  33  53  84 131 186 226 254 304 386
#     4  11  21  34  49  78 125 176 231 259 298 377
#
# _framework density 22.056156999999999
#
# number of rings (size 3 to 8) (size 9 to 14) (size 15 to 20)
#    0.000    0.828    6.897    4.138    1.931    1.103 
#    0.000    0.000    0.000    2.483    0.000    0.000 
#    0.000    0.000    0.000    0.000    0.000    0.000 
#
# Total GULP energy -323448.081895 kJ/mol
# GULP energy per Si atom -5576.691067 kJ/mol
# Density = 2.200596 g / cm^3
# Si number density = 22.056157 Si / 1000 Ang^3
#
#
#
# Elastic Constant Matrix: (Units=GPa)
#
#
# Indices 1 2 3 4 5 6 
#
# 1 189.4537 45.6683 16.6376 0.0000 0.0000 0.0000
# 2 45.6683 72.2134 5.7870 0.0000 0.0000 0.0000
# 3 16.6376 5.7870 22.9495 0.0000 0.0000 0.0000
# 4 0.0000 0.0000 0.0000 1.1593 0.0000 0.0000
# 5 0.0000 0.0000 0.0000 0.0000 10.6499 0.0000
# 6 0.0000 0.0000 0.0000 0.0000 0.0000 45.6631
#
#
#
# Elastic Compliance Matrix: (Units=1/GPa)
#
#
# Indices 1 2 3 4 5 6 
#
# 1 0.006532 -0.003829 -0.003770 0.000000 0.000000 0.000000
# 2 -0.003829 0.016378 -0.001354 0.000000 0.000000 0.000000
# 3 -0.003770 -0.001354 0.046649 0.000000 0.000000 0.000000
# 4 0.000000 0.000000 0.000000 0.862564 0.000000 0.000000
# 5 0.000000 0.000000 0.000000 0.000000 0.093898 0.000000
# 6 0.000000 0.000000 0.000000 0.000000 0.000000 0.021900
#
#
# Mechanical properties :
#
#
# Convention : Reuss Voigt Hill
#
# Bulk Modulus (GPa) = 19.36018 46.75584 33.05801
# Shear Modulus (GPa) = 4.61662 25.92937 15.27299
#
# Velocity S-wave (km/s) = 1.44833 3.43243 2.63432
# Velocity P-wave (km/s) = 3.40494 6.07893 4.92681
#
# Compressibility (1/GPa) = 0.05165241
#
# Stress axis : x y z
#
# Youngs Moduli (GPa) = 153.08237 61.05806 21.43689
#
# Poissons Ratio (x) = 0.23379 0.08082
# Poissons Ratio (y) = 0.58616 0.02902
# Poissons Ratio (z) = 0.57716 0.08267
#
# Static dielectric constant tensor:
#      x y z
#    x 1.950460 0.000000 0.000000 
#    y 0.000000 1.975340 0.000000 
#    z 0.000000 0.000000 1.792380 
# 
# From -- ./inp_files/46140.got.cif
#   From: 2010.05.17/outbox.cif.g08.bks.cpg/sg68_24_cif.got.tgz:46140.got - 2010.06.03 18:57:09.
