data_PCOD9509416
_publ_section_title
;
Structure prediction by ZEFSAII (Michael W. Deem and Ramdas Pophale) SiO2 
 PCOD9509416
Probable space group: C C C A
;
_chemical_formula_sum "Si O2"
_cell_formula_units_Z 92
_cell_length_a 29.733404
_cell_length_b 20.560242
_cell_length_c 7.946481
_cell_angle_alpha 90.000000
_cell_angle_beta 90.000000
_cell_angle_gamma 90.000000
_cell_volume 4857.890299
_symmetry_space_group_name_H-M "C C C A"
_symmetry_group_IT_number 68
_space_group.IT_coordinate_system_code '2'
_symmetry_cell_setting 'orthorhombic'
loop_
_space_group_symop_operation_xyz
x,y,z
-x,1/2-y,z
x,1/2-y,1/2-z
-x,y,1/2-z
-x,-y,-z
x,1/2+y,-z
-x,1/2+y,1/2+z
x,-y,1/2+z
1/2+x,1/2+y,z
1/2-x,-y,z
1/2+x,-y,1/2-z
1/2-x,1/2+y,1/2-z
1/2-x,1/2-y,-z
1/2+x,y,-z
1/2-x,y,1/2+z
1/2+x,1/2-y,1/2+z
loop_
_atom_site_type_symbol
_atom_site_label
_atom_site_fract_x
_atom_site_fract_y
_atom_site_fract_z
Si Si1 0.912846 0.202758 0.601030
Si Si2 0.000000 0.750000 0.250000
Si Si3 0.811097 0.864654 0.631108
Si Si4 0.225628 0.321589 0.774994
Si Si5 0.195525 0.513173 0.412640
Si Si6 0.124620 0.250000 0.250000
Si Si7 0.158960 0.599233 0.101258
O O1 0.893521 0.250000 0.750000
O O2 0.965987 0.206210 0.640286
O O3 0.902561 0.233571 0.419783
O O4 0.889928 0.131757 0.612720
O O5 0.796299 0.829496 0.456015
O O6 0.767574 0.867985 0.749003
O O7 0.818386 0.937528 0.564388
O O8 0.847063 0.815982 0.712026
O O9 0.243467 0.250000 0.750000
O O10 0.191036 0.338198 0.625496
O O11 0.250000 0.500000 0.415385
O O12 0.177227 0.554073 0.253861
O O13 0.168935 0.445908 0.442481
#
# Coordination Sequence:
#
# PCOD9509416 Si02
#       7
#    16   4  16  16  16   8  16
#     4  10  23  47  70 101 123 157 206 285 349 421
#     4   8  24  50  74 100 130 148 198 288 388 420
#     4  11  24  33  51  87 125 174 225 263 301 360
#     4  11  21  35  51  78 124 173 219 271 311 346
#     4  11  23  37  52  88 134 193 232 261 299 368
#     4  12  24  39  71  98 128 164 223 271 342 400
#     4  11  23  36  60  83 131 172 229 265 313 377
#
# _framework density 18.938262999999999
#
# number of rings (size 3 to 8) (size 9 to 14) (size 15 to 20)
#    0.522    0.696    2.609    4.696    7.304    0.348 
#    0.000    0.000    0.000    1.043    0.000    0.000 
#    0.000    0.000    0.000    0.000    0.000    0.000 
#
# Total GULP energy -256502.088206 kJ/mol
# GULP energy per Si atom -5576.132352 kJ/mol
# Density = 1.889516 g / cm^3
# Si number density = 18.938263 Si / 1000 Ang^3
#
#
#
# Elastic Constant Matrix: (Units=GPa)
#
#
# Indices 1 2 3 4 5 6 
#
# 1 111.1079 40.9220 31.2107 0.0000 0.0000 0.0000
# 2 40.9220 100.9103 20.9576 0.0000 0.0000 0.0000
# 3 31.2107 20.9576 104.5122 0.0000 0.0000 0.0000
# 4 0.0000 0.0000 0.0000 31.1283 0.0000 0.0000
# 5 0.0000 0.0000 0.0000 0.0000 29.7521 0.0000
# 6 0.0000 0.0000 0.0000 0.0000 0.0000 23.2054
#
#
#
# Elastic Compliance Matrix: (Units=1/GPa)
#
#
# Indices 1 2 3 4 5 6 
#
# 1 0.011190 -0.004011 -0.002537 0.000000 0.000000 0.000000
# 2 -0.004011 0.011778 -0.001164 0.000000 0.000000 0.000000
# 3 -0.002537 -0.001164 0.010559 0.000000 0.000000 0.000000
# 4 0.000000 0.000000 0.000000 0.032125 0.000000 0.000000
# 5 0.000000 0.000000 0.000000 0.000000 0.033611 0.000000
# 6 0.000000 0.000000 0.000000 0.000000 0.000000 0.043093
#
#
# Mechanical properties :
#
#
# Convention : Reuss Voigt Hill
#
# Bulk Modulus (GPa) = 55.23978 55.85678 55.54828
# Shear Modulus (GPa) = 30.52189 31.71316 31.11753
#
# Velocity S-wave (km/s) = 4.01889 4.09657 4.05792
# Velocity P-wave (km/s) = 7.12510 7.20653 7.16593
#
# Compressibility (1/GPa) = 0.01810290
#
# Stress axis : x y z
#
# Youngs Moduli (GPa) = 89.36286 84.90321 94.70188
#
# Poissons Ratio (x) = 0.34055 0.24030
# Poissons Ratio (y) = 0.35843 0.11024
# Poissons Ratio (z) = 0.22676 0.09883
#
# Static dielectric constant tensor:
#      x y z
#    x 1.648930 0.000000 0.000000 
#    y 0.000000 1.712560 0.000000 
#    z 0.000000 0.000000 1.806800 
# 
# From -- ./inp_files/8976.got.cif
#   From: 2010.05.17/outbox.cif.g08.bks.cpg/sg68_5_cif.got.tgz:8976.got - 2010.06.03 18:57:09.
