data_PCOD9509123
_publ_section_title
;
Structure prediction by ZEFSAII (Michael W. Deem and Ramdas Pophale) SiO2 
 PCOD9509123
Probable space group: C C C A
;
_chemical_formula_sum "Si O2"
_cell_formula_units_Z 68
_cell_length_a 22.822978
_cell_length_b 24.645277
_cell_length_c 5.144633
_cell_angle_alpha 90.000000
_cell_angle_beta 90.000000
_cell_angle_gamma 90.000000
_cell_volume 2893.746043
_symmetry_space_group_name_H-M "C C C A"
_symmetry_group_IT_number 68
_space_group.IT_coordinate_system_code '2'
_symmetry_cell_setting 'orthorhombic'
loop_
_space_group_symop_operation_xyz
x,y,z
-x,1/2-y,z
x,1/2-y,1/2-z
-x,y,1/2-z
-x,-y,-z
x,1/2+y,-z
-x,1/2+y,1/2+z
x,-y,1/2+z
1/2+x,1/2+y,z
1/2-x,-y,z
1/2+x,-y,1/2-z
1/2-x,1/2+y,1/2-z
1/2-x,1/2-y,-z
1/2+x,y,-z
1/2-x,y,1/2+z
1/2+x,1/2-y,1/2+z
loop_
_atom_site_type_symbol
_atom_site_label
_atom_site_fract_x
_atom_site_fract_y
_atom_site_fract_z
Si Si1 0.500000 0.750000 0.750000
Si Si2 0.893105 0.607549 0.582197
Si Si3 0.500000 0.037341 0.750000
Si Si4 0.103542 0.673827 0.418704
Si Si5 0.727394 0.561639 0.200340
Si Si6 0.292186 0.750000 0.750000
O O1 0.454254 0.787741 0.590358
O O2 0.908548 0.626135 0.291718
O O3 0.836537 0.568794 0.584954
O O4 0.944440 0.575223 0.719465
O O5 0.883321 0.656910 0.784902
O O6 0.500000 0.000000 0.500000
O O7 0.161409 0.701387 0.295646
O O8 0.750000 0.500000 0.243752
O O9 0.730795 0.587587 0.484083
O O10 0.250000 0.750000 0.500000
#
# Coordination Sequence:
#
# PCOD9509123 Si02
#       6
#     4  16   8  16  16   8
#     4  10  24  48  72  98 140 168 228 270 364 384
#     4  12  25  44  68 100 135 171 241 267 339 403
#     4  12  28  43  70  93 134 181 218 297 338 398
#     4  11  25  43  72 100 132 182 215 288 327 413
#     4  10  23  39  64  90 128 175 220 274 324 386
#     4  11  24  43  68 101 146 173 218 270 350 403
#
# _framework density 23.498954000000001
#
# number of rings (size 3 to 8) (size 9 to 14) (size 15 to 20)
#    0.000    0.941    0.000    5.647    6.588    9.412 
#    0.000    0.000    0.000    0.000    0.000    0.000 
#    0.000    0.000    0.000    0.000    0.000    0.000 
#
# Total GULP energy -190053.960957 kJ/mol
# GULP energy per Si atom -5589.822381 kJ/mol
# Density = 2.344547 g / cm^3
# Si number density = 23.498954 Si / 1000 Ang^3
#
#
#
# Elastic Constant Matrix: (Units=GPa)
#
#
# Indices 1 2 3 4 5 6 
#
# 1 128.6029 30.4828 6.7434 0.0000 0.0000 0.0000
# 2 30.4828 49.8426 8.4498 0.0000 0.0000 0.0000
# 3 6.7434 8.4498 151.2233 0.0000 0.0000 0.0000
# 4 0.0000 0.0000 0.0000 17.0486 0.0000 0.0000
# 5 0.0000 0.0000 0.0000 0.0000 14.8611 0.0000
# 6 0.0000 0.0000 0.0000 0.0000 0.0000 53.5652
#
#
#
# Elastic Compliance Matrix: (Units=1/GPa)
#
#
# Indices 1 2 3 4 5 6 
#
# 1 0.009096 -0.005546 -0.000096 0.000000 0.000000 0.000000
# 2 -0.005546 0.023637 -0.001073 0.000000 0.000000 0.000000
# 3 -0.000096 -0.001073 0.006677 0.000000 0.000000 0.000000
# 4 0.000000 0.000000 0.000000 0.058656 0.000000 0.000000
# 5 0.000000 0.000000 0.000000 0.000000 0.067290 0.000000
# 6 0.000000 0.000000 0.000000 0.000000 0.000000 0.018669
#
#
# Mechanical properties :
#
#
# Convention : Reuss Voigt Hill
#
# Bulk Modulus (GPa) = 38.49310 46.78008 42.63659
# Shear Modulus (GPa) = 24.25833 36.02785 30.14309
#
# Velocity S-wave (km/s) = 3.21645 3.91982 3.58542
# Velocity P-wave (km/s) = 5.49640 6.35902 5.94338
#
# Compressibility (1/GPa) = 0.02597868
#
# Stress axis : x y z
#
# Youngs Moduli (GPa) = 109.94359 42.30605 149.76827
#
# Poissons Ratio (x) = 0.23465 0.01433
# Poissons Ratio (y) = 0.60980 0.16077
# Poissons Ratio (z) = 0.01052 0.04541
#
# Static dielectric constant tensor:
#      x y z
#    x 1.900820 0.000000 0.000000 
#    y 0.000000 2.087800 0.000000 
#    z 0.000000 0.000000 1.947300 
# 
# From -- ./inp_files/1565.got.cif
#   From: 2010.05.17/outbox.cif.g08.bks.cpg/sg68_1_cif.got.tgz:1565.got - 2010.06.03 18:57:09.
