data_PCOD9509912
_publ_section_title
;
Structure prediction by ZEFSAII (Michael W. Deem and Ramdas Pophale) SiO2 
 PCOD9509912
Probable space group: C C C A
;
_chemical_formula_sum "Si O2"
_cell_formula_units_Z 76
_cell_length_a 20.606774
_cell_length_b 13.114722
_cell_length_c 15.186513
_cell_angle_alpha 90.000000
_cell_angle_beta 90.000000
_cell_angle_gamma 90.000000
_cell_volume 4104.187217
_symmetry_space_group_name_H-M "C C C A"
_symmetry_group_IT_number 68
_space_group.IT_coordinate_system_code '2'
_symmetry_cell_setting 'orthorhombic'
loop_
_space_group_symop_operation_xyz
x,y,z
-x,1/2-y,z
x,1/2-y,1/2-z
-x,y,1/2-z
-x,-y,-z
x,1/2+y,-z
-x,1/2+y,1/2+z
x,-y,1/2+z
1/2+x,1/2+y,z
1/2-x,-y,z
1/2+x,-y,1/2-z
1/2-x,1/2+y,1/2-z
1/2-x,1/2-y,-z
1/2+x,y,-z
1/2-x,y,1/2+z
1/2+x,1/2-y,1/2+z
loop_
_atom_site_type_symbol
_atom_site_label
_atom_site_fract_x
_atom_site_fract_y
_atom_site_fract_z
Si Si1 0.674364 0.745757 0.031289
Si Si2 0.209176 0.250000 0.750000
Si Si3 0.297549 0.909817 0.162903
Si Si4 0.892171 0.153579 0.629616
Si Si5 0.323795 0.043471 0.863741
Si Si6 0.500000 0.250000 0.250000
O O1 0.839489 0.858152 0.912948
O O2 0.626364 0.732406 0.947937
O O3 0.750000 0.750000 0.000000
O O4 0.665952 0.848978 0.087323
O O5 0.252673 0.313546 0.814643
O O6 0.165179 0.329040 0.699889
O O7 0.327920 0.940285 0.257247
O O8 0.250000 0.000000 0.132023
O O9 0.955964 0.182029 0.684292
O O10 0.877954 0.037024 0.604249
O O11 0.250000 0.000000 0.880946
#
# Coordination Sequence:
#
# PCOD9509912 Si02
#       6
#    16   8  16  16  16   4
#     4  12  21  31  57  97 131 152 201 275 334 376
#     4  11  16  33  52  84 126 161 189 248 308 393
#     4  11  19  30  52  89 135 164 181 237 349 397
#     4  11  23  40  62  84 123 175 221 258 302 389
#     4  11  19  35  57  94 131 160 198 261 342 389
#     4  10  28  52  64  76 128 196 230 250 300 392
#
# _framework density 18.517672999999998
#
# number of rings (size 3 to 8) (size 9 to 14) (size 15 to 20)
#    0.000    0.842   10.526    0.000    2.947    0.000 
#    0.000    1.053    0.000    0.000    0.000    0.000 
#    0.000    0.000    0.000    0.000    0.000    0.000 
#
# Total GULP energy -211641.939955 kJ/mol
# GULP energy per Si atom -5569.524736 kJ/mol
# Density = 1.847553 g / cm^3
# Si number density = 18.517673 Si / 1000 Ang^3
#
#
#
# Elastic Constant Matrix: (Units=GPa)
#
#
# Indices 1 2 3 4 5 6 
#
# 1 57.3269 29.0589 25.4476 0.0000 0.0000 0.0000
# 2 29.0589 127.8436 38.3397 0.0000 0.0000 0.0000
# 3 25.4476 38.3397 95.1751 0.0000 0.0000 0.0000
# 4 0.0000 0.0000 0.0000 27.7808 0.0000 0.0000
# 5 0.0000 0.0000 0.0000 0.0000 69.0316 0.0000
# 6 0.0000 0.0000 0.0000 0.0000 0.0000 4.8227
#
#
#
# Elastic Compliance Matrix: (Units=1/GPa)
#
#
# Indices 1 2 3 4 5 6 
#
# 1 0.021108 -0.003532 -0.004221 0.000000 0.000000 0.000000
# 2 -0.003532 0.009488 -0.002878 0.000000 0.000000 0.000000
# 3 -0.004221 -0.002878 0.012795 0.000000 0.000000 0.000000
# 4 0.000000 0.000000 0.000000 0.035996 0.000000 0.000000
# 5 0.000000 0.000000 0.000000 0.000000 0.014486 0.000000
# 6 0.000000 0.000000 0.000000 0.000000 0.000000 0.207354
#
#
# Mechanical properties :
#
#
# Convention : Reuss Voigt Hill
#
# Bulk Modulus (GPa) = 45.18894 51.78199 48.48547
# Shear Modulus (GPa) = 15.15776 32.82699 23.99238
#
# Velocity S-wave (km/s) = 2.86415 4.21496 3.60342
# Velocity P-wave (km/s) = 5.94928 7.19111 6.59947
#
# Compressibility (1/GPa) = 0.02212931
#
# Stress axis : x y z
#
# Youngs Moduli (GPa) = 47.37572 105.39770 78.15701
#
# Poissons Ratio (x) = 0.37226 0.32990
# Poissons Ratio (y) = 0.16733 0.22491
# Poissons Ratio (z) = 0.19997 0.30330
#
# Static dielectric constant tensor:
#      x y z
#    x 1.627290 0.000000 0.000000 
#    y 0.000000 1.670770 0.000000 
#    z 0.000000 0.000000 1.774900 
# 
# From -- ./inp_files/31800.got.cif
#   From: 2010.05.17/outbox.cif.g08.bks.cpg/sg68_16_cif.got.tgz:31800.got - 2010.06.03 18:57:09.
