data_PCOD9509021
_publ_section_title
;
Structure prediction by ZEFSAII (Michael W. Deem and Ramdas Pophale) SiO2 
 PCOD9509021
Probable space group: C C C A
;
_chemical_formula_sum "Si O2"
_cell_formula_units_Z 96
_cell_length_a 24.354348
_cell_length_b 9.849376
_cell_length_c 20.806092
_cell_angle_alpha 90.000000
_cell_angle_beta 90.000000
_cell_angle_gamma 90.000000
_cell_volume 4990.864038
_symmetry_space_group_name_H-M "C C C A"
_symmetry_group_IT_number 68
_space_group.IT_coordinate_system_code '2'
_symmetry_cell_setting 'orthorhombic'
loop_
_space_group_symop_operation_xyz
x,y,z
-x,1/2-y,z
x,1/2-y,1/2-z
-x,y,1/2-z
-x,-y,-z
x,1/2+y,-z
-x,1/2+y,1/2+z
x,-y,1/2+z
1/2+x,1/2+y,z
1/2-x,-y,z
1/2+x,-y,1/2-z
1/2-x,1/2+y,1/2-z
1/2-x,1/2-y,-z
1/2+x,y,-z
1/2-x,y,1/2+z
1/2+x,1/2-y,1/2+z
loop_
_atom_site_type_symbol
_atom_site_label
_atom_site_fract_x
_atom_site_fract_y
_atom_site_fract_z
Si Si1 0.103699 0.592603 0.249673
Si Si2 0.305561 0.717522 0.538999
Si Si3 0.193516 0.049744 0.641910
Si Si4 0.942835 0.331911 0.193822
Si Si5 0.642950 0.287799 0.587210
Si Si6 0.687167 0.490437 0.859606
O O1 0.085200 0.750000 0.250000
O O2 0.149910 0.576651 0.303744
O O3 0.058792 0.483400 0.275975
O O4 0.137635 0.550442 0.184897
O O5 0.250000 0.750000 0.500000
O O6 0.303741 0.818711 0.598552
O O7 0.355014 0.741649 0.488580
O O8 0.310237 0.571609 0.572673
O O9 0.250000 0.000000 0.672123
O O10 0.176610 0.925973 0.596034
O O11 0.910380 0.250000 0.250000
O O12 0.912824 0.318249 0.125791
O O13 0.000000 0.250000 0.187509
O O14 0.672244 0.164397 0.624141
O O15 0.750000 0.500000 0.833023
#
# Coordination Sequence:
#
# PCOD9509021 Si02
#       6
#    16  16  16  16  16  16
#     4  11  23  40  61  96 128 160 210 273 325 374
#     4  12  22  36  56  85 135 182 216 242 301 381
#     4  11  21  36  54  86 133 178 212 250 303 374
#     4  10  22  45  71  91 113 158 217 272 332 373
#     4  11  23  35  61  90 121 169 218 256 299 379
#     4  12  22  37  58  90 135 176 211 248 306 377
#
# _framework density 19.235146
#
# number of rings (size 3 to 8) (size 9 to 14) (size 15 to 20)
#    0.000    0.833    6.667    1.500    0.000    0.000 
#    0.000    1.667    0.000    9.000    0.000    0.000 
#    0.000    0.000    0.000    0.000    0.000    0.000 
#
# Total GULP energy -267472.305267 kJ/mol
# GULP energy per Si atom -5572.339693 kJ/mol
# Density = 1.919137 g / cm^3
# Si number density = 19.235146 Si / 1000 Ang^3
#
#
#
# Elastic Constant Matrix: (Units=GPa)
#
#
# Indices 1 2 3 4 5 6 
#
# 1 84.9886 23.0741 25.8031 0.0000 0.0000 0.0000
# 2 23.0741 107.6475 -5.7675 0.0000 0.0000 0.0000
# 3 25.8031 -5.7675 80.4862 0.0000 0.0000 0.0000
# 4 0.0000 0.0000 0.0000 27.8742 0.0000 0.0000
# 5 0.0000 0.0000 0.0000 0.0000 20.6605 0.0000
# 6 0.0000 0.0000 0.0000 0.0000 0.0000 21.8850
#
#
#
# Elastic Compliance Matrix: (Units=1/GPa)
#
#
# Indices 1 2 3 4 5 6 
#
# 1 0.014100 -0.003277 -0.004755 0.000000 0.000000 0.000000
# 2 -0.003277 0.010087 0.001773 0.000000 0.000000 0.000000
# 3 -0.004755 0.001773 0.014076 0.000000 0.000000 0.000000
# 4 0.000000 0.000000 0.000000 0.035875 0.000000 0.000000
# 5 0.000000 0.000000 0.000000 0.000000 0.048402 0.000000
# 6 0.000000 0.000000 0.000000 0.000000 0.000000 0.045693
#
#
# Mechanical properties :
#
#
# Convention : Reuss Voigt Hill
#
# Bulk Modulus (GPa) = 38.84196 39.92686 39.38441
# Shear Modulus (GPa) = 26.40862 29.41811 27.91337
#
# Velocity S-wave (km/s) = 3.70933 3.91499 3.81355
# Velocity P-wave (km/s) = 6.21149 6.42172 6.31748
#
# Compressibility (1/GPa) = 0.02574535
#
# Stress axis : x y z
#
# Youngs Moduli (GPa) = 70.92384 99.13742 71.04302
#
# Poissons Ratio (x) = 0.32487 0.33781
# Poissons Ratio (y) = 0.23242 -0.12599
# Poissons Ratio (z) = 0.33724 -0.17581
#
# Static dielectric constant tensor:
#      x y z
#    x 1.715010 0.000000 0.000000 
#    y 0.000000 1.717180 0.000000 
#    z 0.000000 0.000000 1.688320 
# 
# From -- ./inp_files/41212.got.cif
#   From: 2010.05.17/outbox.cif.g08.bks.cpg/sg68_21_cif.got.tgz:41212.got - 2010.06.03 18:57:09.
