data_PCOD9509298
_publ_section_title
;
Structure prediction by ZEFSAII (Michael W. Deem and Ramdas Pophale) SiO2 
 PCOD9509298
Probable space group: C C C A
;
_chemical_formula_sum "Si O2"
_cell_formula_units_Z 48
_cell_length_a 19.836394
_cell_length_b 7.802254
_cell_length_c 12.661532
_cell_angle_alpha 90.000000
_cell_angle_beta 90.000000
_cell_angle_gamma 90.000000
_cell_volume 1959.607384
_symmetry_space_group_name_H-M "C C C A"
_symmetry_group_IT_number 68
_space_group.IT_coordinate_system_code '2'
_symmetry_cell_setting 'orthorhombic'
loop_
_space_group_symop_operation_xyz
x,y,z
-x,1/2-y,z
x,1/2-y,1/2-z
-x,y,1/2-z
-x,-y,-z
x,1/2+y,-z
-x,1/2+y,1/2+z
x,-y,1/2+z
1/2+x,1/2+y,z
1/2-x,-y,z
1/2+x,-y,1/2-z
1/2-x,1/2+y,1/2-z
1/2-x,1/2-y,-z
1/2+x,y,-z
1/2-x,y,1/2+z
1/2+x,1/2-y,1/2+z
loop_
_atom_site_type_symbol
_atom_site_label
_atom_site_fract_x
_atom_site_fract_y
_atom_site_fract_z
Si Si1 0.921281 0.712757 0.449302
Si Si2 0.607028 0.143472 0.659647
Si Si3 0.186449 0.582236 0.315182
O O1 0.883652 0.727603 0.561883
O O2 0.921892 0.526674 0.395414
O O3 0.879477 0.847390 0.377306
O O4 0.000000 0.750000 0.465754
O O5 0.569220 0.250000 0.750000
O O6 0.666349 0.059365 0.728369
O O7 0.207617 0.750000 0.250000
O O8 0.250000 0.500000 0.376945
#
# Coordination Sequence:
#
# PCOD9509298 Si02
#       3
#    16  16  16
#     4  11  25  44  69 105 142 187 244 301 362 432
#     4  11  24  43  69 100 138 184 235 298 362 429
#     4  10  23  43  69 102 143 188 238 296 362 435
#
# _framework density 24.494702
#
# number of rings (size 3 to 8) (size 9 to 14) (size 15 to 20)
#    0.000    1.333    0.000    4.000    0.000   10.667 
#    0.000   10.000    0.000    0.000    0.000    0.000 
#    0.000    0.000    0.000    0.000    0.000    0.000 
#
# Total GULP energy -133841.465272 kJ/mol
# GULP energy per Si atom -5576.727720 kJ/mol
# Density = 2.443895 g / cm^3
# Si number density = 24.494702 Si / 1000 Ang^3
#
#
#
# Elastic Constant Matrix: (Units=GPa)
#
#
# Indices 1 2 3 4 5 6 
#
# 1 130.4462 50.8580 37.8770 0.0000 0.0000 0.0000
# 2 50.8580 183.0673 64.9541 0.0000 0.0000 0.0000
# 3 37.8770 64.9541 146.3853 0.0000 0.0000 0.0000
# 4 0.0000 0.0000 0.0000 49.7444 0.0000 0.0000
# 5 0.0000 0.0000 0.0000 0.0000 16.8005 0.0000
# 6 0.0000 0.0000 0.0000 0.0000 0.0000 0.9134
#
#
#
# Elastic Compliance Matrix: (Units=1/GPa)
#
#
# Indices 1 2 3 4 5 6 
#
# 1 0.008840 -0.001951 -0.001421 0.000000 0.000000 0.000000
# 2 -0.001951 0.006914 -0.002563 0.000000 0.000000 0.000000
# 3 -0.001421 -0.002563 0.008336 0.000000 0.000000 0.000000
# 4 0.000000 0.000000 0.000000 0.020103 0.000000 0.000000
# 5 0.000000 0.000000 0.000000 0.000000 0.059522 0.000000
# 6 0.000000 0.000000 0.000000 0.000000 0.000000 1.094787
#
#
# Mechanical properties :
#
#
# Convention : Reuss Voigt Hill
#
# Bulk Modulus (GPa) = 81.84382 85.25299 83.54841
# Shear Modulus (GPa) = 4.11710 33.90565 19.01138
#
# Velocity S-wave (km/s) = 1.29787 3.72452 2.78896
# Velocity P-wave (km/s) = 5.97757 7.30591 6.67487
#
# Compressibility (1/GPa) = 0.01221839
#
# Stress axis : x y z
#
# Youngs Moduli (GPa) = 113.12848 144.63521 119.95763
#
# Poissons Ratio (x) = 0.28224 0.17050
# Poissons Ratio (y) = 0.22076 0.30744
# Poissons Ratio (z) = 0.16079 0.37069
#
# Static dielectric constant tensor:
#      x y z
#    x 1.921830 0.000000 0.000000 
#    y 0.000000 1.999310 0.000000 
#    z 0.000000 0.000000 1.951670 
# 
# From -- ./inp_files/10400.got.cif
#   From: 2010.05.17/outbox.cif.g08.bks.cpg/sg68_6_cif.got.tgz:10400.got - 2010.06.03 18:57:09.
