data_PCOD9509006
_publ_section_title
;
Structure prediction by ZEFSAII (Michael W. Deem and Ramdas Pophale) SiO2 
 PCOD9509006
Probable space group: C C C A
;
_chemical_formula_sum "Si O2"
_cell_formula_units_Z 84
_cell_length_a 12.630014
_cell_length_b 14.734229
_cell_length_c 20.806583
_cell_angle_alpha 90.000000
_cell_angle_beta 90.000000
_cell_angle_gamma 90.000000
_cell_volume 3871.970239
_symmetry_space_group_name_H-M "C C C A"
_symmetry_group_IT_number 68
_space_group.IT_coordinate_system_code '2'
_symmetry_cell_setting 'orthorhombic'
loop_
_space_group_symop_operation_xyz
x,y,z
-x,1/2-y,z
x,1/2-y,1/2-z
-x,y,1/2-z
-x,-y,-z
x,1/2+y,-z
-x,1/2+y,1/2+z
x,-y,1/2+z
1/2+x,1/2+y,z
1/2-x,-y,z
1/2+x,-y,1/2-z
1/2-x,1/2+y,1/2-z
1/2-x,1/2-y,-z
1/2+x,y,-z
1/2-x,y,1/2+z
1/2+x,1/2-y,1/2+z
loop_
_atom_site_type_symbol
_atom_site_label
_atom_site_fract_x
_atom_site_fract_y
_atom_site_fract_z
Si Si1 0.000000 0.750000 0.981635
Si Si2 0.000000 0.750000 0.750000
Si Si3 0.755468 0.397047 0.629434
Si Si4 0.750000 0.000000 0.492642
Si Si5 0.357375 0.287675 0.631159
Si Si6 0.863671 0.629338 0.421693
Si Si7 0.973516 0.644334 0.182797
O O1 0.068708 0.808889 0.930525
O O2 0.083997 0.701229 0.028826
O O3 0.079467 0.697567 0.698976
O O4 0.750000 0.500000 0.655860
O O5 0.783032 0.418695 0.555096
O O6 0.664064 0.322214 0.631228
O O7 0.851929 0.356143 0.666958
O O8 0.838016 0.041195 0.537236
O O9 0.242777 0.333800 0.614903
O O10 0.953568 0.603511 0.371497
O O11 0.000000 0.750000 0.184617
O O12 0.000000 0.599822 0.250000
#
# Coordination Sequence:
#
# PCOD9509006 Si02
#       7
#     8   4  16   8  16  16  16
#     4  11  20  37  69 102 125 176 228 272 351 404
#     4  10  28  44  72  98 130 188 240 276 334 434
#     4  10  22  45  66  99 144 174 220 296 346 404
#     4  10  26  42  64 102 138 176 216 300 354 394
#     4  11  23  44  70 100 138 183 228 284 342 417
#     4  12  23  42  70  98 137 178 232 292 341 414
#     4  11  24  42  70 100 128 190 242 277 343 423
#
# _framework density 21.694382000000001
#
# number of rings (size 3 to 8) (size 9 to 14) (size 15 to 20)
#    0.571    0.571    4.762    0.571    5.333    0.762 
#   10.286    0.000    0.000    0.000    0.000    0.000 
#    0.000    0.000    0.000    0.000    0.000    0.000 
#
# Total GULP energy -233932.595415 kJ/mol
# GULP energy per Si atom -5569.823700 kJ/mol
# Density = 2.164500 g / cm^3
# Si number density = 21.694382 Si / 1000 Ang^3
#
#
#
# Elastic Constant Matrix: (Units=GPa)
#
#
# Indices 1 2 3 4 5 6 
#
# 1 82.0266 6.4217 26.7739 0.0000 0.0000 0.0000
# 2 6.4217 54.6026 -0.6014 0.0000 0.0000 0.0000
# 3 26.7739 -0.6014 132.6562 0.0000 0.0000 0.0000
# 4 0.0000 0.0000 0.0000 -5.9285 0.0000 0.0000
# 5 0.0000 0.0000 0.0000 0.0000 55.9900 0.0000
# 6 0.0000 0.0000 0.0000 0.0000 0.0000 18.4248
#
#
#
# Elastic Compliance Matrix: (Units=1/GPa)
#
#
# Indices 1 2 3 4 5 6 
#
# 1 0.013186 -0.001580 -0.002668 0.000000 0.000000 0.000000
# 2 -0.001580 0.018504 0.000403 0.000000 0.000000 0.000000
# 3 -0.002668 0.000403 0.008079 0.000000 0.000000 0.000000
# 4 0.000000 0.000000 0.000000 -0.168676 0.000000 0.000000
# 5 0.000000 0.000000 0.000000 0.000000 0.017860 0.000000
# 6 0.000000 0.000000 0.000000 0.000000 0.000000 0.054275
#
#
# Mechanical properties :
#
#
# Convention : Reuss Voigt Hill
#
# Bulk Modulus (GPa) = 31.17461 37.16375 34.16918
# Shear Modulus (GPa) = -130.25094 29.47665 -50.38715
#
# Velocity S-wave (km/s) = -7.75689 3.69008 -4.82455
# Velocity P-wave (km/s) = 8.11324 5.94335 3.90521
#
# Compressibility (1/GPa) = 0.03207739
#
# Stress axis : x y z
#
# Youngs Moduli (GPa) = 75.83871 54.04112 123.78251
#
# Poissons Ratio (x) = 0.08539 0.33031
# Poissons Ratio (y) = 0.11984 -0.04986
# Poissons Ratio (z) = 0.20237 -0.02177
#
# Static dielectric constant tensor:
#      x y z
#    x 1.795520 0.000000 0.000000 
#    y 0.000000 1.874730 0.000000 
#    z 0.000000 0.000000 1.869350 
# 
# From -- ./inp_files/37430.got.cif
#   From: 2010.05.17/outbox.cif.g08.bks.cpg/sg68_19_cif.got.tgz:37430.got - 2010.06.03 18:57:09.
