data_PCOD9509699
_publ_section_title
;
Structure prediction by ZEFSAII (Michael W. Deem and Ramdas Pophale) SiO2 
 PCOD9509699
Probable space group: C C C A
;
_chemical_formula_sum "Si O2"
_cell_formula_units_Z 80
_cell_length_a 14.328306
_cell_length_b 25.003698
_cell_length_c 8.802327
_cell_angle_alpha 90.000000
_cell_angle_beta 90.000000
_cell_angle_gamma 90.000000
_cell_volume 3153.527270
_symmetry_space_group_name_H-M "C C C A"
_symmetry_group_IT_number 68
_space_group.IT_coordinate_system_code '2'
_symmetry_cell_setting 'orthorhombic'
loop_
_space_group_symop_operation_xyz
x,y,z
-x,1/2-y,z
x,1/2-y,1/2-z
-x,y,1/2-z
-x,-y,-z
x,1/2+y,-z
-x,1/2+y,1/2+z
x,-y,1/2+z
1/2+x,1/2+y,z
1/2-x,-y,z
1/2+x,-y,1/2-z
1/2-x,1/2+y,1/2-z
1/2-x,1/2-y,-z
1/2+x,y,-z
1/2-x,y,1/2+z
1/2+x,1/2-y,1/2+z
loop_
_atom_site_type_symbol
_atom_site_label
_atom_site_fract_x
_atom_site_fract_y
_atom_site_fract_z
Si Si1 0.174770 0.678661 0.502299
Si Si2 0.000000 0.917070 0.250000
Si Si3 0.404277 0.597019 0.181772
Si Si4 0.146694 0.012189 0.550718
Si Si5 0.361027 0.611714 0.510487
Si Si6 0.255514 0.750000 0.750000
O O1 0.087896 0.642481 0.552719
O O2 0.260602 0.637794 0.541537
O O3 0.189908 0.726264 0.619971
O O4 0.183750 0.705026 0.337580
O O5 0.927222 0.955588 0.344952
O O6 0.933639 0.879498 0.145845
O O7 0.500000 0.574698 0.250000
O O8 0.368336 0.626799 0.332168
O O9 0.350933 0.548238 0.102152
O O10 0.250000 0.000000 0.616815
O O11 0.123047 0.952408 0.501673
#
# Coordination Sequence:
#
# PCOD9509699 Si02
#       6
#    16   8  16  16  16   8
#     4  11  24  47  77 111 143 207 254 333 407 477
#     4  12  28  44  72 115 160 207 268 336 378 482
#     4  12  26  48  73 114 162 207 257 324 394 483
#     4  12  27  46  71 110 163 213 263 319 395 486
#     4  12  26  43  71 108 156 204 264 313 402 471
#     4  10  24  46  79 107 146 182 276 332 394 484
#
# _framework density 25.368417000000001
#
# number of rings (size 3 to 8) (size 9 to 14) (size 15 to 20)
#    0.000    0.400    6.000    1.800    8.400    1.600 
#    0.000    0.500    0.000    4.200    0.000    0.000 
#    0.000    0.000    0.000    0.000    0.000    0.000 
#
# Total GULP energy -222988.197761 kJ/mol
# GULP energy per Si atom -5574.704944 kJ/mol
# Density = 2.531068 g / cm^3
# Si number density = 25.368417 Si / 1000 Ang^3
#
#
#
# Elastic Constant Matrix: (Units=GPa)
#
#
# Indices 1 2 3 4 5 6 
#
# 1 102.9667 26.2799 56.3077 0.0000 0.0000 0.0000
# 2 26.2799 86.8816 40.3386 0.0000 0.0000 0.0000
# 3 56.3077 40.3386 124.8589 0.0000 0.0000 0.0000
# 4 0.0000 0.0000 0.0000 31.3262 0.0000 0.0000
# 5 0.0000 0.0000 0.0000 0.0000 45.5974 0.0000
# 6 0.0000 0.0000 0.0000 0.0000 0.0000 12.0099
#
#
#
# Elastic Compliance Matrix: (Units=1/GPa)
#
#
# Indices 1 2 3 4 5 6 
#
# 1 0.013040 -0.001428 -0.005419 0.000000 0.000000 0.000000
# 2 -0.001428 0.013698 -0.003781 0.000000 0.000000 0.000000
# 3 -0.005419 -0.003781 0.011675 0.000000 0.000000 0.000000
# 4 0.000000 0.000000 0.000000 0.031922 0.000000 0.000000
# 5 0.000000 0.000000 0.000000 0.000000 0.021931 0.000000
# 6 0.000000 0.000000 0.000000 0.000000 0.000000 0.083264
#
#
# Mechanical properties :
#
#
# Convention : Reuss Voigt Hill
#
# Bulk Modulus (GPa) = 58.29298 62.28438 60.28868
# Shear Modulus (GPa) = 24.69074 30.57213 27.63143
#
# Velocity S-wave (km/s) = 3.12314 3.47526 3.30389
# Velocity P-wave (km/s) = 6.00281 6.38032 6.19444
#
# Compressibility (1/GPa) = 0.01715472
#
# Stress axis : x y z
#
# Youngs Moduli (GPa) = 76.68773 73.00594 85.65636
#
# Poissons Ratio (x) = 0.10427 0.46419
# Poissons Ratio (y) = 0.10953 0.32389
# Poissons Ratio (z) = 0.41559 0.27605
#
# Static dielectric constant tensor:
#      x y z
#    x 2.272160 0.000000 0.000000 
#    y 0.000000 2.029990 0.000000 
#    z 0.000000 0.000000 2.152430 
# 
# From -- ./inp_files/6295.got.cif
#   From: 2010.05.17/outbox.cif.g08.bks.cpg/sg68_4_cif.got.tgz:6295.got - 2010.06.03 18:57:09.
