data_PCOD9509922
_publ_section_title
;
Structure prediction by ZEFSAII (Michael W. Deem and Ramdas Pophale) SiO2 
 PCOD9509922
Probable space group: C C C A
;
_chemical_formula_sum "Si O2"
_cell_formula_units_Z 84
_cell_length_a 8.251316
_cell_length_b 25.623290
_cell_length_c 18.525764
_cell_angle_alpha 90.000000
_cell_angle_beta 90.000000
_cell_angle_gamma 90.000000
_cell_volume 3916.825637
_symmetry_space_group_name_H-M "C C C A"
_symmetry_group_IT_number 68
_space_group.IT_coordinate_system_code '2'
_symmetry_cell_setting 'orthorhombic'
loop_
_space_group_symop_operation_xyz
x,y,z
-x,1/2-y,z
x,1/2-y,1/2-z
-x,y,1/2-z
-x,-y,-z
x,1/2+y,-z
-x,1/2+y,1/2+z
x,-y,1/2+z
1/2+x,1/2+y,z
1/2-x,-y,z
1/2+x,-y,1/2-z
1/2-x,1/2+y,1/2-z
1/2-x,1/2-y,-z
1/2+x,y,-z
1/2-x,y,1/2+z
1/2+x,1/2-y,1/2+z
loop_
_atom_site_type_symbol
_atom_site_label
_atom_site_fract_x
_atom_site_fract_y
_atom_site_fract_z
Si Si1 0.767420 0.710286 0.152989
Si Si2 0.619317 0.538377 0.042611
Si Si3 0.000000 0.250000 0.250000
Si Si4 0.599871 0.328610 0.356391
Si Si5 0.450972 0.809726 0.023220
Si Si6 0.823964 0.602636 0.918911
O O1 0.610564 0.712247 0.202315
O O2 0.822376 0.771286 0.155790
O O3 0.705204 0.691123 0.075250
O O4 0.919847 0.675570 0.176822
O O5 0.750000 0.500000 0.079159
O O6 0.490462 0.569616 0.091375
O O7 0.500000 0.500000 0.000000
O O8 0.718089 0.574183 0.983227
O O9 0.571103 0.329341 0.442721
O O10 0.712786 0.379707 0.350835
O O11 0.500000 0.750000 0.018764
O O12 0.594149 0.843043 0.057220
#
# Coordination Sequence:
#
# PCOD9509922 Si02
#       6
#    16  16   4  16  16  16
#     4  11  23  35  51  74 109 150 192 233 264 331
#     4   9  20  33  44  67 105 159 198 206 258 341
#     4  12  24  42  48  60 104 166 204 222 276 330
#     4  11  21  31  53  82 103 137 187 242 277 309
#     4  12  19  32  52  84 117 135 185 235 272 320
#     4  11  19  29  50  72 106 148 186 224 269 315
#
# _framework density 21.445938000000002
#
# number of rings (size 3 to 8) (size 9 to 14) (size 15 to 20)
#    0.000    1.143    6.667    1.714    0.000    1.524 
#    0.000    0.000    0.000    0.000    0.000    0.000 
#    0.000    0.000    0.000  329.143   51.810    0.000 
#
# Total GULP energy -234056.643139 kJ/mol
# GULP energy per Si atom -5572.777218 kJ/mol
# Density = 2.139713 g / cm^3
# Si number density = 21.445938 Si / 1000 Ang^3
#
#
#
# Elastic Constant Matrix: (Units=GPa)
#
#
# Indices 1 2 3 4 5 6 
#
# 1 163.1632 43.2167 20.1838 0.0000 0.0000 0.0000
# 2 43.2167 84.3756 -6.0600 0.0000 0.0000 0.0000
# 3 20.1838 -6.0600 26.3473 0.0000 0.0000 0.0000
# 4 0.0000 0.0000 0.0000 3.0850 0.0000 0.0000
# 5 0.0000 0.0000 0.0000 0.0000 7.2912 0.0000
# 6 0.0000 0.0000 0.0000 0.0000 0.0000 56.1068
#
#
#
# Elastic Compliance Matrix: (Units=1/GPa)
#
#
# Indices 1 2 3 4 5 6 
#
# 1 0.008326 -0.004802 -0.007483 0.000000 0.000000 0.000000
# 2 -0.004802 0.014820 0.007088 0.000000 0.000000 0.000000
# 3 -0.007483 0.007088 0.045317 0.000000 0.000000 0.000000
# 4 0.000000 0.000000 0.000000 0.324147 0.000000 0.000000
# 5 0.000000 0.000000 0.000000 0.000000 0.137152 0.000000
# 6 0.000000 0.000000 0.000000 0.000000 0.000000 0.017823
#
#
# Mechanical properties :
#
#
# Convention : Reuss Voigt Hill
#
# Bulk Modulus (GPa) = 17.22101 43.17413 30.19757
# Shear Modulus (GPa) = 8.66044 27.73297 18.19670
#
# Velocity S-wave (km/s) = 2.01172 3.59995 2.91605
# Velocity P-wave (km/s) = 3.66653 6.12004 5.04471
#
# Compressibility (1/GPa) = 0.05806860
#
# Stress axis : x y z
#
# Youngs Moduli (GPa) = 120.09873 67.47417 22.06665
#
# Poissons Ratio (x) = 0.32403 0.16513
# Poissons Ratio (y) = 0.57674 -0.15640
# Poissons Ratio (z) = 0.89872 -0.47823
#
# Static dielectric constant tensor:
#      x y z
#    x 1.992070 0.000000 0.000000 
#    y 0.000000 1.868370 0.000000 
#    z 0.000000 0.000000 1.730860 
# 
# From -- ./inp_files/36428.got.cif
#   From: 2010.05.17/outbox.cif.g08.bks.cpg/sg68_19_cif.got.tgz:36428.got - 2010.06.03 18:57:09.
