data_PCOD9509166
_publ_section_title
;
Structure prediction by ZEFSAII (Michael W. Deem and Ramdas Pophale) SiO2 
 PCOD9509166
Probable space group: C C C A
;
_chemical_formula_sum "Si O2"
_cell_formula_units_Z 80
_cell_length_a 16.442938
_cell_length_b 8.454146
_cell_length_c 26.919584
_cell_angle_alpha 90.000000
_cell_angle_beta 90.000000
_cell_angle_gamma 90.000000
_cell_volume 3742.118252
_symmetry_space_group_name_H-M "C C C A"
_symmetry_group_IT_number 68
_space_group.IT_coordinate_system_code '2'
_symmetry_cell_setting 'orthorhombic'
loop_
_space_group_symop_operation_xyz
x,y,z
-x,1/2-y,z
x,1/2-y,1/2-z
-x,y,1/2-z
-x,-y,-z
x,1/2+y,-z
-x,1/2+y,1/2+z
x,-y,1/2+z
1/2+x,1/2+y,z
1/2-x,-y,z
1/2+x,-y,1/2-z
1/2-x,1/2+y,1/2-z
1/2-x,1/2-y,-z
1/2+x,y,-z
1/2-x,y,1/2+z
1/2+x,1/2-y,1/2+z
loop_
_atom_site_type_symbol
_atom_site_label
_atom_site_fract_x
_atom_site_fract_y
_atom_site_fract_z
Si Si1 0.250000 0.000000 0.195036
Si Si2 0.668937 0.219719 0.384523
Si Si3 0.000000 0.750000 0.519044
Si Si4 0.000000 0.250000 0.834436
Si Si5 0.500000 0.007899 0.750000
Si Si6 0.750000 0.500000 0.940786
Si Si7 0.117378 0.506225 0.471634
Si Si8 0.634039 0.750000 0.250000
O O1 0.300687 0.121354 0.161945
O O2 0.192221 0.122623 0.223746
O O3 0.579124 0.282923 0.368897
O O4 0.730631 0.353117 0.404588
O O5 0.664473 0.091727 0.428334
O O6 0.954528 0.874157 0.484798
O O7 0.926968 0.655090 0.545340
O O8 0.021060 0.393930 0.796515
O O9 0.430297 0.123012 0.772333
O O10 0.826544 0.494319 0.979253
#
# Coordination Sequence:
#
# PCOD9509166 Si02
#       8
#     8  16   8   8   8   8  16   8
#     4  12  29  45  76 106 140 176 236 299 361 436
#     4  12  27  45  68 111 137 186 248 292 349 428
#     4  10  23  40  71  88 132 196 234 273 350 415
#     4  11  25  48  73 104 138 192 234 305 340 448
#     4  10  24  52  76  98 144 188 232 280 390 424
#     4  12  27  43  72  94 156 188 234 301 359 410
#     4  11  23  47  64 101 137 198 231 292 356 411
#     4  11  26  50  74 105 140 184 224 289 378 446
#
# _framework density 21.378266
#
# number of rings (size 3 to 8) (size 9 to 14) (size 15 to 20)
#    0.000    0.800    4.000    1.800   11.200    0.000 
#    3.600    0.000    0.000    0.000    0.000    0.000 
#    0.000    0.000    0.000    0.000    0.000    0.000 
#
# Total GULP energy -222766.340755 kJ/mol
# GULP energy per Si atom -5569.158519 kJ/mol
# Density = 2.132961 g / cm^3
# Si number density = 21.378266 Si / 1000 Ang^3
#
#
#
# Elastic Constant Matrix: (Units=GPa)
#
#
# Indices 1 2 3 4 5 6 
#
# 1 107.5264 67.9843 34.6806 0.0000 0.0000 0.0000
# 2 67.9843 152.2448 53.4576 0.0000 0.0000 0.0000
# 3 34.6806 53.4576 63.7316 0.0000 0.0000 0.0000
# 4 0.0000 0.0000 0.0000 8.4797 0.0000 0.0000
# 5 0.0000 0.0000 0.0000 0.0000 -188.4456 0.0000
# 6 0.0000 0.0000 0.0000 0.0000 0.0000 53.1879
#
#
#
# Elastic Compliance Matrix: (Units=1/GPa)
#
#
# Indices 1 2 3 4 5 6 
#
# 1 0.013410 -0.004856 -0.003224 0.000000 0.000000 0.000000
# 2 -0.004856 0.011069 -0.006642 0.000000 0.000000 0.000000
# 3 -0.003224 -0.006642 0.023017 0.000000 0.000000 0.000000
# 4 0.000000 0.000000 0.000000 0.117929 0.000000 0.000000
# 5 0.000000 0.000000 0.000000 0.000000 -0.005307 0.000000
# 6 0.000000 0.000000 0.000000 0.000000 0.000000 0.018801
#
#
# Mechanical properties :
#
#
# Convention : Reuss Voigt Hill
#
# Bulk Modulus (GPa) = 55.39798 70.63867 63.01833
# Shear Modulus (GPa) = 23.32293 -14.19691 4.56301
#
# Velocity S-wave (km/s) = 3.30656 -2.57977 1.46255
# Velocity P-wave (km/s) = 6.36767 4.92345 5.69156
#
# Compressibility (1/GPa) = 0.01805120
#
# Stress axis : x y z
#
# Youngs Moduli (GPa) = 74.56952 90.34115 43.44692
#
# Poissons Ratio (x) = 0.43872 0.14008
# Poissons Ratio (y) = 0.36213 0.28858
# Poissons Ratio (z) = 0.24042 0.60006
#
# Static dielectric constant tensor:
#      x y z
#    x 1.931750 0.000000 0.000000 
#    y 0.000000 1.816790 0.000000 
#    z 0.000000 0.000000 1.761170 
# 
# From -- ./inp_files/49236.got.cif
#   From: 2010.05.17/outbox.cif.g08.bks.cpg/sg68_25_cif.got.tgz:49236.got - 2010.06.03 18:57:09.
