data_PCOD9509568
_publ_section_title
;
Structure prediction by ZEFSAII (Michael W. Deem and Ramdas Pophale) SiO2 
 PCOD9509568
Probable space group: C C C A
;
_chemical_formula_sum "Si O2"
_cell_formula_units_Z 96
_cell_length_a 17.869751
_cell_length_b 23.896871
_cell_length_c 10.830418
_cell_angle_alpha 90.000000
_cell_angle_beta 90.000000
_cell_angle_gamma 90.000000
_cell_volume 4624.925685
_symmetry_space_group_name_H-M "C C C A"
_symmetry_group_IT_number 68
_space_group.IT_coordinate_system_code '2'
_symmetry_cell_setting 'orthorhombic'
loop_
_space_group_symop_operation_xyz
x,y,z
-x,1/2-y,z
x,1/2-y,1/2-z
-x,y,1/2-z
-x,-y,-z
x,1/2+y,-z
-x,1/2+y,1/2+z
x,-y,1/2+z
1/2+x,1/2+y,z
1/2-x,-y,z
1/2+x,-y,1/2-z
1/2-x,1/2+y,1/2-z
1/2-x,1/2-y,-z
1/2+x,y,-z
1/2-x,y,1/2+z
1/2+x,1/2-y,1/2+z
loop_
_atom_site_type_symbol
_atom_site_label
_atom_site_fract_x
_atom_site_fract_y
_atom_site_fract_z
Si Si1 0.062445 0.831751 0.153359
Si Si2 0.345851 0.615580 0.647237
Si Si3 0.055340 0.920338 0.953873
Si Si4 0.098016 0.036263 0.072736
Si Si5 0.808091 0.741335 0.388876
Si Si6 0.798233 0.446191 0.300088
O O1 0.100713 0.880136 0.235861
O O2 0.123022 0.785169 0.115780
O O3 0.000000 0.810652 0.250000
O O4 0.039153 0.864051 0.030241
O O5 0.374852 0.570668 0.548321
O O6 0.340300 0.678687 0.596600
O O7 0.264615 0.600762 0.699839
O O8 0.131795 0.921953 0.876463
O O9 0.978287 0.933984 0.884092
O O10 0.072004 0.973705 0.041842
O O11 0.164939 0.037125 0.170343
O O12 0.774160 0.750000 0.250000
O O13 0.750000 0.750000 0.500000
O O14 0.750000 0.500000 0.347593
#
# Coordination Sequence:
#
# PCOD9509568 Si02
#       6
#    16  16  16  16  16  16
#     4  11  23  45  71 100 133 184 234 290 349 427
#     4  11  24  41  66  99 133 172 231 282 344 413
#     4  11  24  43  66  92 139 178 230 280 347 413
#     4  11  25  41  63  96 139 179 225 279 351 417
#     4  10  24  43  70 101 140 181 236 300 356 417
#     4  12  25  39  65  97 135 183 226 280 347 421
#
# _framework density 20.757090000000002
#
# number of rings (size 3 to 8) (size 9 to 14) (size 15 to 20)
#    0.000    1.000    3.333    2.500    9.333    3.000 
#    0.000    0.000    0.000    0.000    0.000    7.000 
#    0.000    0.000    0.000    0.000    0.000    0.000 
#
# Total GULP energy -267739.361175 kJ/mol
# GULP energy per Si atom -5577.903358 kJ/mol
# Density = 2.070985 g / cm^3
# Si number density = 20.757090 Si / 1000 Ang^3
#
#
#
# Elastic Constant Matrix: (Units=GPa)
#
#
# Indices 1 2 3 4 5 6 
#
# 1 132.4364 21.8947 37.7343 0.0000 0.0000 0.0000
# 2 21.8947 93.6932 29.4625 0.0000 0.0000 0.0000
# 3 37.7343 29.4625 52.9553 0.0000 0.0000 0.0000
# 4 0.0000 0.0000 0.0000 17.3504 0.0000 0.0000
# 5 0.0000 0.0000 0.0000 0.0000 44.1415 0.0000
# 6 0.0000 0.0000 0.0000 0.0000 0.0000 39.3198
#
#
#
# Elastic Compliance Matrix: (Units=1/GPa)
#
#
# Indices 1 2 3 4 5 6 
#
# 1 0.009475 -0.000110 -0.006690 0.000000 0.000000 0.000000
# 2 -0.000110 0.012938 -0.007119 0.000000 0.000000 0.000000
# 3 -0.006690 -0.007119 0.027612 0.000000 0.000000 0.000000
# 4 0.000000 0.000000 0.000000 0.057636 0.000000 0.000000
# 5 0.000000 0.000000 0.000000 0.000000 0.022654 0.000000
# 6 0.000000 0.000000 0.000000 0.000000 0.000000 0.025432
#
#
# Mechanical properties :
#
#
# Convention : Reuss Voigt Hill
#
# Bulk Modulus (GPa) = 45.07591 50.80753 47.94172
# Shear Modulus (GPa) = 26.18036 32.82857 29.50447
#
# Velocity S-wave (km/s) = 3.55529 3.98120 3.77426
# Velocity P-wave (km/s) = 6.21422 6.75748 6.49154
#
# Compressibility (1/GPa) = 0.02218480
#
# Stress axis : x y z
#
# Youngs Moduli (GPa) = 105.53764 77.29360 36.21591
#
# Poissons Ratio (x) = 0.00853 0.24230
# Poissons Ratio (y) = 0.01165 0.25784
# Poissons Ratio (z) = 0.70609 0.55028
#
# Static dielectric constant tensor:
#      x y z
#    x 1.807580 0.000000 0.000000 
#    y 0.000000 1.751720 0.000000 
#    z 0.000000 0.000000 1.763550 
# 
# From -- ./inp_files/14608.got.cif
#   From: 2010.05.17/outbox.cif.g08.bks.cpg/sg68_8_cif.got.tgz:14608.got - 2010.06.03 18:57:09.
