data_PCOD9509099
_publ_section_title
;
Structure prediction by ZEFSAII (Michael W. Deem and Ramdas Pophale) SiO2 
 PCOD9509099
Probable space group: C C C A
;
_chemical_formula_sum "Si O2"
_cell_formula_units_Z 64
_cell_length_a 7.526151
_cell_length_b 18.011826
_cell_length_c 22.749629
_cell_angle_alpha 90.000000
_cell_angle_beta 90.000000
_cell_angle_gamma 90.000000
_cell_volume 3083.933389
_symmetry_space_group_name_H-M "C C C A"
_symmetry_group_IT_number 68
_space_group.IT_coordinate_system_code '2'
_symmetry_cell_setting 'orthorhombic'
loop_
_space_group_symop_operation_xyz
x,y,z
-x,1/2-y,z
x,1/2-y,1/2-z
-x,y,1/2-z
-x,-y,-z
x,1/2+y,-z
-x,1/2+y,1/2+z
x,-y,1/2+z
1/2+x,1/2+y,z
1/2-x,-y,z
1/2+x,-y,1/2-z
1/2-x,1/2+y,1/2-z
1/2-x,1/2-y,-z
1/2+x,y,-z
1/2-x,y,1/2+z
1/2+x,1/2-y,1/2+z
loop_
_atom_site_type_symbol
_atom_site_label
_atom_site_fract_x
_atom_site_fract_y
_atom_site_fract_z
Si Si1 0.000000 0.750000 0.898638
Si Si2 0.250000 0.000000 0.659591
Si Si3 0.920814 0.091786 0.436412
Si Si4 0.250000 0.000000 0.959563
Si Si5 0.812598 0.709659 0.309245
Si Si6 0.500000 0.073930 0.250000
O O1 0.944117 0.820805 0.936709
O O2 0.836710 0.720995 0.858159
O O3 0.292342 0.068364 0.616561
O O4 0.093225 0.023382 0.702087
O O5 0.845665 0.058931 0.497111
O O6 0.102544 0.046095 0.425136
O O7 0.747304 0.750000 0.250000
O O8 0.000000 0.750000 0.326006
O O9 0.866108 0.627891 0.286300
#
# Coordination Sequence:
#
# PCOD9509099 Si02
#       6
#     8   8  16   8  16   8
#     4  12  23  36  70  96 122 168 222 261 338 390
#     4  11  24  37  64  96 130 175 216 253 322 402
#     4  10  23  42  65  95 120 172 214 269 334 384
#     4   9  22  47  66  84 134 157 216 287 324 384
#     4   9  20  39  55  87 133 171 205 266 310 379
#     4  10  23  38  58  93 136 174 218 256 314 391
#
# _framework density 20.752715999999999
#
# number of rings (size 3 to 8) (size 9 to 14) (size 15 to 20)
#    0.000    2.250    0.000    3.375    7.000    1.000 
#    4.500    0.000    0.000    0.000    0.000    0.000 
#    0.000    0.000    0.000    0.000    0.000    0.000 
#
# Total GULP energy -178712.058404 kJ/mol
# GULP energy per Si atom -5584.751825 kJ/mol
# Density = 2.070548 g / cm^3
# Si number density = 20.752716 Si / 1000 Ang^3
#
#
#
# Elastic Constant Matrix: (Units=GPa)
#
#
# Indices 1 2 3 4 5 6 
#
# 1 39.9808 -2.4539 12.5818 0.0000 0.0000 0.0000
# 2 -2.4539 116.2106 24.8621 0.0000 0.0000 0.0000
# 3 12.5818 24.8621 41.7542 0.0000 0.0000 0.0000
# 4 0.0000 0.0000 0.0000 -12.0616 0.0000 0.0000
# 5 0.0000 0.0000 0.0000 0.0000 24.0089 0.0000
# 6 0.0000 0.0000 0.0000 0.0000 0.0000 15.4756
#
#
#
# Elastic Compliance Matrix: (Units=1/GPa)
#
#
# Indices 1 2 3 4 5 6 
#
# 1 0.028398 0.002785 -0.010215 0.000000 0.000000 0.000000
# 2 0.002785 0.010134 -0.006874 0.000000 0.000000 0.000000
# 3 -0.010215 -0.006874 0.031121 0.000000 0.000000 0.000000
# 4 0.000000 0.000000 0.000000 -0.082908 0.000000 0.000000
# 5 0.000000 0.000000 0.000000 0.000000 0.041651 0.000000
# 6 0.000000 0.000000 0.000000 0.000000 0.000000 0.064618
#
#
# Mechanical properties :
#
#
# Convention : Reuss Voigt Hill
#
# Bulk Modulus (GPa) = 24.36354 29.76949 27.06651
# Shear Modulus (GPa) = 36.95381 16.34828 26.65104
#
# Velocity S-wave (km/s) = 4.22438 2.80976 3.58749
# Velocity P-wave (km/s) = 5.96316 4.99023 5.49825
#
# Compressibility (1/GPa) = 0.04104494
#
# Stress axis : x y z
#
# Youngs Moduli (GPa) = 35.21413 98.67343 32.13288
#
# Poissons Ratio (x) = -0.27482 0.32825
# Poissons Ratio (y) = -0.09808 0.22087
# Poissons Ratio (z) = 0.35973 0.67825
#
# Static dielectric constant tensor:
#      x y z
#    x 1.788410 0.000000 0.000000 
#    y 0.000000 2.005290 0.000000 
#    z 0.000000 0.000000 1.702280 
# 
# From -- ./inp_files/32558.got.cif
#   From: 2010.05.17/outbox.cif.g08.bks.cpg/sg68_17_cif.got.tgz:32558.got - 2010.06.03 18:57:09.
