data_PCOD9509589
_publ_section_title
;
Structure prediction by ZEFSAII (Michael W. Deem and Ramdas Pophale) SiO2 
 PCOD9509589
Probable space group: C C C A
;
_chemical_formula_sum "Si O2"
_cell_formula_units_Z 88
_cell_length_a 11.239385
_cell_length_b 29.714290
_cell_length_c 11.045755
_cell_angle_alpha 90.000000
_cell_angle_beta 90.000000
_cell_angle_gamma 90.000000
_cell_volume 3688.954612
_symmetry_space_group_name_H-M "C C C A"
_symmetry_group_IT_number 68
_space_group.IT_coordinate_system_code '2'
_symmetry_cell_setting 'orthorhombic'
loop_
_space_group_symop_operation_xyz
x,y,z
-x,1/2-y,z
x,1/2-y,1/2-z
-x,y,1/2-z
-x,-y,-z
x,1/2+y,-z
-x,1/2+y,1/2+z
x,-y,1/2+z
1/2+x,1/2+y,z
1/2-x,-y,z
1/2+x,-y,1/2-z
1/2-x,1/2+y,1/2-z
1/2-x,1/2-y,-z
1/2+x,y,-z
1/2-x,y,1/2+z
1/2+x,1/2-y,1/2+z
loop_
_atom_site_type_symbol
_atom_site_label
_atom_site_fract_x
_atom_site_fract_y
_atom_site_fract_z
Si Si1 0.500000 0.905220 0.750000
Si Si2 0.621621 0.258010 0.054527
Si Si3 0.342302 0.321360 0.237508
Si Si4 0.569717 0.056887 0.503064
Si Si5 0.374229 0.374438 0.704717
Si Si6 0.813487 0.540641 0.622898
O O1 0.398202 0.869941 0.785268
O O2 0.472783 0.934048 0.632860
O O3 0.500000 0.250000 0.980172
O O4 0.609547 0.217698 0.152811
O O5 0.634492 0.305102 0.126226
O O6 0.750000 0.250000 0.000000
O O7 0.207456 0.331099 0.205938
O O8 0.596266 0.101988 0.578207
O O9 0.450870 0.034972 0.571613
O O10 0.709130 0.042657 0.480022
O O11 0.500000 0.359009 0.750000
O O12 0.325456 0.414364 0.795199
O O13 0.750000 0.500000 0.699443
#
# Coordination Sequence:
#
# PCOD9509589 Si02
#       6
#     8  16  16  16  16  16
#     4  12  22  41  74  96 138 184 232 280 360 431
#     4  11  25  42  65  98 135 177 230 291 354 422
#     4  11  22  43  66  94 131 178 230 277 350 430
#     4  11  25  44  68 108 135 187 235 291 357 425
#     4  10  24  44  67 101 141 177 237 299 354 417
#     4  11  24  45  70 100 141 183 236 294 353 416
#
# _framework density 23.854996
#
# number of rings (size 3 to 8) (size 9 to 14) (size 15 to 20)
#    0.000    1.091    3.636    2.182    2.545    5.091 
#    4.909    1.818    0.000    0.000    0.000    0.000 
#    0.000    0.000    0.000    0.000    0.000    0.000 
#
# Total GULP energy -244987.462783 kJ/mol
# GULP energy per Si atom -5567.896881 kJ/mol
# Density = 2.380070 g / cm^3
# Si number density = 23.854996 Si / 1000 Ang^3
#
#
#
# Elastic Constant Matrix: (Units=GPa)
#
#
# Indices 1 2 3 4 5 6 
#
# 1 161.1385 39.9107 25.0186 0.0000 0.0000 0.0000
# 2 39.9107 65.3691 10.8487 0.0000 0.0000 0.0000
# 3 25.0186 10.8487 62.9734 0.0000 0.0000 0.0000
# 4 0.0000 0.0000 0.0000 13.8157 0.0000 0.0000
# 5 0.0000 0.0000 0.0000 0.0000 31.1358 0.0000
# 6 0.0000 0.0000 0.0000 0.0000 0.0000 -288.5958
#
#
#
# Elastic Compliance Matrix: (Units=1/GPa)
#
#
# Indices 1 2 3 4 5 6 
#
# 1 0.007620 -0.004272 -0.002291 0.000000 0.000000 0.000000
# 2 -0.004272 0.018143 -0.001428 0.000000 0.000000 0.000000
# 3 -0.002291 -0.001428 0.017036 0.000000 0.000000 0.000000
# 4 0.000000 0.000000 0.000000 0.072381 0.000000 0.000000
# 5 0.000000 0.000000 0.000000 0.000000 0.032117 0.000000
# 6 0.000000 0.000000 0.000000 0.000000 0.000000 -0.003465
#
#
# Mechanical properties :
#
#
# Convention : Reuss Voigt Hill
#
# Bulk Modulus (GPa) = 37.29169 49.00412 43.14791
# Shear Modulus (GPa) = 29.62894 -34.48200 -2.42653
#
# Velocity S-wave (km/s) = 3.52809 -3.80608 -1.00966
# Velocity P-wave (km/s) = 5.68006 1.12789 4.09483
#
# Compressibility (1/GPa) = 0.02681562
#
# Stress axis : x y z
#
# Youngs Moduli (GPa) = 131.23981 55.11778 58.69889
#
# Poissons Ratio (x) = 0.23546 0.13449
# Poissons Ratio (y) = 0.56064 0.08385
# Poissons Ratio (z) = 0.30070 0.07873
#
# Static dielectric constant tensor:
#      x y z
#    x 2.408450 0.000000 0.000000 
#    y 0.000000 2.006310 0.000000 
#    z 0.000000 0.000000 1.894160 
# 
# From -- ./inp_files/12040.got.cif
#   From: 2010.05.17/outbox.cif.g08.bks.cpg/sg68_7_cif.got.tgz:12040.got - 2010.06.03 18:57:09.
