data_PCOD9509341
_publ_section_title
;
Structure prediction by ZEFSAII (Michael W. Deem and Ramdas Pophale) SiO2 
 PCOD9509341
Probable space group: C C C A
;
_chemical_formula_sum "Si O2"
_cell_formula_units_Z 48
_cell_length_a 17.644137
_cell_length_b 7.298329
_cell_length_c 14.093764
_cell_angle_alpha 90.000000
_cell_angle_beta 90.000000
_cell_angle_gamma 90.000000
_cell_volume 1814.892279
_symmetry_space_group_name_H-M "C C C A"
_symmetry_group_IT_number 68
_space_group.IT_coordinate_system_code '2'
_symmetry_cell_setting 'orthorhombic'
loop_
_space_group_symop_operation_xyz
x,y,z
-x,1/2-y,z
x,1/2-y,1/2-z
-x,y,1/2-z
-x,-y,-z
x,1/2+y,-z
-x,1/2+y,1/2+z
x,-y,1/2+z
1/2+x,1/2+y,z
1/2-x,-y,z
1/2+x,-y,1/2-z
1/2-x,1/2+y,1/2-z
1/2-x,1/2-y,-z
1/2+x,y,-z
1/2-x,y,1/2+z
1/2+x,1/2-y,1/2+z
loop_
_atom_site_type_symbol
_atom_site_label
_atom_site_fract_x
_atom_site_fract_y
_atom_site_fract_z
Si Si1 0.223066 0.788585 0.855512
Si Si2 0.425248 0.645418 0.054986
Si Si3 0.892369 0.252909 0.639592
O O1 0.193079 0.750000 0.750000
O O2 0.154662 0.749262 0.926457
O O3 0.303639 0.688204 0.864178
O O4 0.250000 0.000000 0.863281
O O5 0.500000 0.750000 0.090081
O O6 0.408979 0.453525 0.104959
O O7 0.432344 0.626433 0.941114
O O8 0.913687 0.250000 0.750000
#
# Coordination Sequence:
#
# PCOD9509341 Si02
#       3
#    16  16  16
#     4   9  20  39  64  96 132 178 232 280 334 403
#     4  11  23  41  67 101 138 179 223 284 353 408
#     4  10  23  44  68  99 137 181 233 282 332 411
#
# _framework density 26.447851
#
# number of rings (size 3 to 8) (size 9 to 14) (size 15 to 20)
#    0.000    2.000    0.000    2.000    0.000    9.333 
#    0.000   15.000    0.000    0.000    0.000    0.000 
#    0.000    0.000    0.000    0.000    0.000    0.000 
#
# Total GULP energy -134313.334412 kJ/mol
# GULP energy per Si atom -5596.388934 kJ/mol
# Density = 2.638765 g / cm^3
# Si number density = 26.447851 Si / 1000 Ang^3
#
#
#
# Elastic Constant Matrix: (Units=GPa)
#
#
# Indices 1 2 3 4 5 6 
#
# 1 196.9387 26.1079 50.4290 0.0000 0.0000 0.0000
# 2 26.1079 104.9108 40.7721 0.0000 0.0000 0.0000
# 3 50.4290 40.7721 203.8523 0.0000 0.0000 0.0000
# 4 0.0000 0.0000 0.0000 42.3013 0.0000 0.0000
# 5 0.0000 0.0000 0.0000 0.0000 -89.0007 0.0000
# 6 0.0000 0.0000 0.0000 0.0000 0.0000 27.2453
#
#
#
# Elastic Compliance Matrix: (Units=1/GPa)
#
#
# Indices 1 2 3 4 5 6 
#
# 1 0.005500 -0.000911 -0.001178 0.000000 0.000000 0.000000
# 2 -0.000911 0.010486 -0.001872 0.000000 0.000000 0.000000
# 3 -0.001178 -0.001872 0.005571 0.000000 0.000000 0.000000
# 4 0.000000 0.000000 0.000000 0.023640 0.000000 0.000000
# 5 0.000000 0.000000 0.000000 0.000000 -0.011236 0.000000
# 6 0.000000 0.000000 0.000000 0.000000 0.000000 0.036704
#
#
# Mechanical properties :
#
#
# Convention : Reuss Voigt Hill
#
# Bulk Modulus (GPa) = 73.33921 82.25773 77.79847
# Shear Modulus (GPa) = 60.14454 22.00204 41.07329
#
# Velocity S-wave (km/s) = 4.77391 2.88740 3.94508
# Velocity P-wave (km/s) = 7.62737 6.50273 7.08739
#
# Compressibility (1/GPa) = 0.01363527
#
# Stress axis : x y z
#
# Youngs Moduli (GPa) = 181.81057 95.36450 179.48620
#
# Poissons Ratio (x) = 0.08686 0.21152
# Poissons Ratio (y) = 0.16559 0.33600
# Poissons Ratio (z) = 0.21426 0.17852
#
# Static dielectric constant tensor:
#      x y z
#    x 2.121790 0.000000 0.000000 
#    y 0.000000 2.137450 0.000000 
#    z 0.000000 0.000000 2.014400 
# 
# From -- ./inp_files/13799.got.cif
#   From: 2010.05.17/outbox.cif.g08.bks.cpg/sg68_7_cif.got.tgz:13799.got - 2010.06.03 18:57:09.
