data_PCOD9509683
_publ_section_title
;
Structure prediction by ZEFSAII (Michael W. Deem and Ramdas Pophale) SiO2 
 PCOD9509683
Probable space group: C C C A
;
_chemical_formula_sum "Si O2"
_cell_formula_units_Z 60
_cell_length_a 17.563187
_cell_length_b 12.729183
_cell_length_c 12.371658
_cell_angle_alpha 90.000000
_cell_angle_beta 90.000000
_cell_angle_gamma 90.000000
_cell_volume 2765.869985
_symmetry_space_group_name_H-M "C C C A"
_symmetry_group_IT_number 68
_space_group.IT_coordinate_system_code '2'
_symmetry_cell_setting 'orthorhombic'
loop_
_space_group_symop_operation_xyz
x,y,z
-x,1/2-y,z
x,1/2-y,1/2-z
-x,y,1/2-z
-x,-y,-z
x,1/2+y,-z
-x,1/2+y,1/2+z
x,-y,1/2+z
1/2+x,1/2+y,z
1/2-x,-y,z
1/2+x,-y,1/2-z
1/2-x,1/2+y,1/2-z
1/2-x,1/2-y,-z
1/2+x,y,-z
1/2-x,y,1/2+z
1/2+x,1/2-y,1/2+z
loop_
_atom_site_type_symbol
_atom_site_label
_atom_site_fract_x
_atom_site_fract_y
_atom_site_fract_z
Si Si1 0.809397 0.818252 0.566572
Si Si2 0.894988 0.917763 0.367789
Si Si3 0.750000 0.500000 0.272731
Si Si4 0.389957 0.750000 0.250000
Si Si5 0.000000 0.429882 0.250000
Si Si6 0.000000 0.750000 0.250000
O O1 0.750000 0.750000 0.500000
O O2 0.863481 0.881989 0.483831
O O3 0.844210 0.726870 0.642962
O O4 0.774117 0.903345 0.649397
O O5 0.821513 0.958138 0.298748
O O6 0.941375 0.819019 0.319808
O O7 0.960329 0.005496 0.345899
O O8 0.437043 0.849233 0.290367
#
# Coordination Sequence:
#
# PCOD9509683 Si02
#       6
#    16  16   8   8   8   4
#     4  12  26  42  76 105 144 189 240 301 374 430
#     4  11  24  47  71 104 141 192 238 299 370 433
#     4  12  24  46  70 108 144 186 248 308 352 454
#     4  11  24  47  65 106 144 183 238 301 352 445
#     4  10  24  46  72  98 148 186 234 300 356 442
#     4  10  24  48  70 104 148 184 248 302 364 446
#
# _framework density 21.692993999999999
#
# number of rings (size 3 to 8) (size 9 to 14) (size 15 to 20)
#    0.000    0.800    2.667    4.000    3.733    3.200 
#    0.000    0.000    0.000    0.000    0.000    0.000 
#    0.000    0.000    0.000    0.000    0.000    0.000 
#
# Total GULP energy -167186.905964 kJ/mol
# GULP energy per Si atom -5572.896865 kJ/mol
# Density = 2.164362 g / cm^3
# Si number density = 21.692994 Si / 1000 Ang^3
#
#
#
# Elastic Constant Matrix: (Units=GPa)
#
#
# Indices 1 2 3 4 5 6 
#
# 1 132.4025 54.8286 88.1935 0.0000 0.0000 0.0000
# 2 54.8286 106.5886 56.6191 0.0000 0.0000 0.0000
# 3 88.1935 56.6191 159.8581 0.0000 0.0000 0.0000
# 4 0.0000 0.0000 0.0000 21.6769 0.0000 0.0000
# 5 0.0000 0.0000 0.0000 0.0000 18.3799 0.0000
# 6 0.0000 0.0000 0.0000 0.0000 0.0000 43.7171
#
#
#
# Elastic Compliance Matrix: (Units=1/GPa)
#
#
# Indices 1 2 3 4 5 6 
#
# 1 0.012934 -0.003526 -0.005887 0.000000 0.000000 0.000000
# 2 -0.003526 0.012517 -0.002488 0.000000 0.000000 0.000000
# 3 -0.005887 -0.002488 0.010385 0.000000 0.000000 0.000000
# 4 0.000000 0.000000 0.000000 0.046132 0.000000 0.000000
# 5 0.000000 0.000000 0.000000 0.000000 0.054407 0.000000
# 6 0.000000 0.000000 0.000000 0.000000 0.000000 0.022874
#
#
# Mechanical properties :
#
#
# Convention : Reuss Voigt Hill
#
# Bulk Modulus (GPa) = 83.09870 88.68129 85.89000
# Shear Modulus (GPa) = 26.72890 30.03528 28.38209
#
# Velocity S-wave (km/s) = 3.51400 3.72501 3.62104
# Velocity P-wave (km/s) = 7.40636 7.71167 7.56055
#
# Compressibility (1/GPa) = 0.01203388
#
# Stress axis : x y z
#
# Youngs Moduli (GPa) = 77.31437 79.88897 96.29702
#
# Poissons Ratio (x) = 0.28171 0.56689
# Poissons Ratio (y) = 0.27263 0.23959
# Poissons Ratio (z) = 0.45514 0.19877
#
# Static dielectric constant tensor:
#      x y z
#    x 1.747100 0.000000 0.000000 
#    y 0.000000 1.845920 0.000000 
#    z 0.000000 0.000000 1.807770 
# 
# From -- ./inp_files/11602.got.cif
#   From: 2010.05.17/outbox.cif.g08.bks.cpg/sg68_6_cif.got.tgz:11602.got - 2010.06.03 18:57:09.
