data_PCOD9509142
_publ_section_title
;
Structure prediction by ZEFSAII (Michael W. Deem and Ramdas Pophale) SiO2 
 PCOD9509142
Probable space group: C C C A
;
_chemical_formula_sum "Si O2"
_cell_formula_units_Z 52
_cell_length_a 18.998574
_cell_length_b 21.844016
_cell_length_c 5.533778
_cell_angle_alpha 90.000000
_cell_angle_beta 90.000000
_cell_angle_gamma 90.000000
_cell_volume 2296.546393
_symmetry_space_group_name_H-M "C C C A"
_symmetry_group_IT_number 68
_space_group.IT_coordinate_system_code '2'
_symmetry_cell_setting 'orthorhombic'
loop_
_space_group_symop_operation_xyz
x,y,z
-x,1/2-y,z
x,1/2-y,1/2-z
-x,y,1/2-z
-x,-y,-z
x,1/2+y,-z
-x,1/2+y,1/2+z
x,-y,1/2+z
1/2+x,1/2+y,z
1/2-x,-y,z
1/2+x,-y,1/2-z
1/2-x,1/2+y,1/2-z
1/2-x,1/2-y,-z
1/2+x,y,-z
1/2-x,y,1/2+z
1/2+x,1/2-y,1/2+z
loop_
_atom_site_type_symbol
_atom_site_label
_atom_site_fract_x
_atom_site_fract_y
_atom_site_fract_z
Si Si1 0.000000 0.250000 0.750000
Si Si2 0.928542 0.661855 0.893872
Si Si3 0.775905 0.179934 0.261864
Si Si4 0.419134 0.020426 0.818743
O O1 0.055041 0.203441 0.622628
O O2 0.859825 0.681729 0.749150
O O3 0.920475 0.589189 0.923402
O O4 0.000000 0.671569 0.750000
O O5 0.747667 0.250000 0.250000
O O6 0.749116 0.150750 0.509514
O O7 0.500000 0.001883 0.750000
O O8 0.387801 0.018005 0.544717
#
# Coordination Sequence:
#
# PCOD9509142 Si02
#       4
#     4  16  16  16
#     4  12  26  36  60 102 128 164 200 266 334 364
#     4  11  25  40  64  94 133 160 211 270 315 374
#     4  10  23  40  61  87 126 172 208 245 308 386
#     4   9  20  37  61  88 119 162 209 256 311 365
#
# _framework density 22.642696999999998
#
# number of rings (size 3 to 8) (size 9 to 14) (size 15 to 20)
#    0.000    1.846    0.000    2.308   21.538    0.000 
#    0.000    0.000    0.000    5.538    0.000    0.000 
#    0.000    0.000    0.000    0.000    0.000    0.000 
#
# Total GULP energy -144828.691962 kJ/mol
# GULP energy per Si atom -5570.334306 kJ/mol
# Density = 2.259116 g / cm^3
# Si number density = 22.642697 Si / 1000 Ang^3
#
#
#
# Elastic Constant Matrix: (Units=GPa)
#
#
# Indices 1 2 3 4 5 6 
#
# 1 92.1700 -6.7039 31.6166 0.0000 0.0000 0.0000
# 2 -6.7039 103.3183 49.0666 0.0000 0.0000 0.0000
# 3 31.6166 49.0666 170.3992 0.0000 0.0000 0.0000
# 4 0.0000 0.0000 0.0000 40.1316 0.0000 0.0000
# 5 0.0000 0.0000 0.0000 0.0000 27.0081 0.0000
# 6 0.0000 0.0000 0.0000 0.0000 0.0000 21.5390
#
#
#
# Elastic Compliance Matrix: (Units=1/GPa)
#
#
# Indices 1 2 3 4 5 6 
#
# 1 0.011976 0.002123 -0.002833 0.000000 0.000000 0.000000
# 2 0.002123 0.011588 -0.003731 0.000000 0.000000 0.000000
# 3 -0.002833 -0.003731 0.007469 0.000000 0.000000 0.000000
# 4 0.000000 0.000000 0.000000 0.024918 0.000000 0.000000
# 5 0.000000 0.000000 0.000000 0.000000 0.037026 0.000000
# 6 0.000000 0.000000 0.000000 0.000000 0.000000 0.046427
#
#
# Mechanical properties :
#
#
# Convention : Reuss Voigt Hill
#
# Bulk Modulus (GPa) = 45.14694 57.09399 51.12047
# Shear Modulus (GPa) = 32.11922 37.19627 34.65775
#
# Velocity S-wave (km/s) = 3.77042 4.05748 3.91658
# Velocity P-wave (km/s) = 6.23994 6.87174 6.56345
#
# Compressibility (1/GPa) = 0.02214989
#
# Stress axis : x y z
#
# Youngs Moduli (GPa) = 83.50192 86.29406 133.89540
#
# Poissons Ratio (x) = -0.18317 0.37936
# Poissons Ratio (y) = -0.17724 0.49952
# Poissons Ratio (z) = 0.23658 0.32194
#
# Static dielectric constant tensor:
#      x y z
#    x 1.814200 0.000000 0.000000 
#    y 0.000000 1.841240 0.000000 
#    z 0.000000 0.000000 2.071400 
# 
# From -- ./inp_files/1285.got.cif
#   From: 2010.05.17/outbox.cif.g08.bks.cpg/sg68_1_cif.got.tgz:1285.got - 2010.06.03 18:57:09.
