data_PCOD9509310
_publ_section_title
;
Structure prediction by ZEFSAII (Michael W. Deem and Ramdas Pophale) SiO2 
 PCOD9509310
Probable space group: C C C A
;
_chemical_formula_sum "Si O2"
_cell_formula_units_Z 80
_cell_length_a 22.002590
_cell_length_b 15.005755
_cell_length_c 10.525031
_cell_angle_alpha 90.000000
_cell_angle_beta 90.000000
_cell_angle_gamma 90.000000
_cell_volume 3475.001859
_symmetry_space_group_name_H-M "C C C A"
_symmetry_group_IT_number 68
_space_group.IT_coordinate_system_code '2'
_symmetry_cell_setting 'orthorhombic'
loop_
_space_group_symop_operation_xyz
x,y,z
-x,1/2-y,z
x,1/2-y,1/2-z
-x,y,1/2-z
-x,-y,-z
x,1/2+y,-z
-x,1/2+y,1/2+z
x,-y,1/2+z
1/2+x,1/2+y,z
1/2-x,-y,z
1/2+x,-y,1/2-z
1/2-x,1/2+y,1/2-z
1/2-x,1/2-y,-z
1/2+x,y,-z
1/2-x,y,1/2+z
1/2+x,1/2-y,1/2+z
loop_
_atom_site_type_symbol
_atom_site_label
_atom_site_fract_x
_atom_site_fract_y
_atom_site_fract_z
Si Si1 0.517619 0.153264 0.980981
Si Si2 0.379534 0.637747 0.285266
Si Si3 0.081939 0.509086 0.604333
Si Si4 0.230622 0.697953 0.627935
Si Si5 0.700205 0.557670 0.013649
O O1 0.500000 0.250000 0.032746
O O2 0.561169 0.174034 0.858605
O O3 0.461722 0.090260 0.938219
O O4 0.552068 0.087013 0.078658
O O5 0.400904 0.538316 0.245795
O O6 0.341099 0.679380 0.166518
O O7 0.328951 0.628832 0.392686
O O8 0.144844 0.503027 0.530117
O O9 0.256024 0.750000 0.750000
O O10 0.250000 0.750000 0.500000
O O11 0.265027 0.604553 0.602879
O O12 0.750000 0.500000 0.085228
#
# Coordination Sequence:
#
# PCOD9509310 Si02
#       5
#    16  16  16  16  16
#     4  10  24  44  75 106 147 198 256 321 390 473
#     4  11  24  41  73 104 149 198 253 311 389 465
#     4  10  23  43  71 110 146 190 257 316 387 464
#     4  12  26  44  68 110 156 199 262 318 384 468
#     4  11  24  42  70 101 147 197 241 312 384 459
#
# _framework density 23.021570000000001
#
# number of rings (size 3 to 8) (size 9 to 14) (size 15 to 20)
#    0.000    1.200    4.000    0.600    5.600    0.800 
#    0.000    0.000    8.800    4.800    0.000    0.000 
#    0.000    0.000    0.000    0.000    0.000    0.000 
#
# Total GULP energy -222923.355546 kJ/mol
# GULP energy per Si atom -5573.083889 kJ/mol
# Density = 2.296917 g / cm^3
# Si number density = 23.021570 Si / 1000 Ang^3
#
#
#
# Elastic Constant Matrix: (Units=GPa)
#
#
# Indices 1 2 3 4 5 6 
#
# 1 141.7049 61.1747 24.8690 0.0000 0.0000 0.0000
# 2 61.1747 150.6757 40.8360 0.0000 0.0000 0.0000
# 3 24.8690 40.8360 79.8987 0.0000 0.0000 0.0000
# 4 0.0000 0.0000 0.0000 36.8885 0.0000 0.0000
# 5 0.0000 0.0000 0.0000 0.0000 36.1065 0.0000
# 6 0.0000 0.0000 0.0000 0.0000 0.0000 37.8446
#
#
#
# Elastic Compliance Matrix: (Units=1/GPa)
#
#
# Indices 1 2 3 4 5 6 
#
# 1 0.008630 -0.003222 -0.001039 0.000000 0.000000 0.000000
# 2 -0.003222 0.008907 -0.003549 0.000000 0.000000 0.000000
# 3 -0.001039 -0.003549 0.014653 0.000000 0.000000 0.000000
# 4 0.000000 0.000000 0.000000 0.027109 0.000000 0.000000
# 5 0.000000 0.000000 0.000000 0.000000 0.027696 0.000000
# 6 0.000000 0.000000 0.000000 0.000000 0.000000 0.026424
#
#
# Mechanical properties :
#
#
# Convention : Reuss Voigt Hill
#
# Bulk Modulus (GPa) = 60.35452 69.55985 64.95718
# Shear Modulus (GPa) = 37.15699 38.52790 37.84245
#
# Velocity S-wave (km/s) = 4.02183 4.09535 4.05876
# Velocity P-wave (km/s) = 6.91666 7.25556 7.08814
#
# Compressibility (1/GPa) = 0.01656877
#
# Stress axis : x y z
#
# Youngs Moduli (GPa) = 115.86950 112.27165 68.24337
#
# Poissons Ratio (x) = 0.36177 0.07093
# Poissons Ratio (y) = 0.37336 0.24222
# Poissons Ratio (z) = 0.12043 0.39849
#
# Static dielectric constant tensor:
#      x y z
#    x 1.922380 0.000000 0.000000 
#    y 0.000000 2.053820 0.000000 
#    z 0.000000 0.000000 1.867250 
# 
# From -- ./inp_files/16218.got.cif
#   From: 2010.05.17/outbox.cif.g08.bks.cpg/sg68_9_cif.got.tgz:16218.got - 2010.06.03 18:57:09.
