data_PCOD9509092
_publ_section_title
;
Structure prediction by ZEFSAII (Michael W. Deem and Ramdas Pophale) SiO2 
 PCOD9509092
Probable space group: C C C A
;
_chemical_formula_sum "Si O2"
_cell_formula_units_Z 104
_cell_length_a 24.700744
_cell_length_b 8.542236
_cell_length_c 24.118192
_cell_angle_alpha 90.000000
_cell_angle_beta 90.000000
_cell_angle_gamma 90.000000
_cell_volume 5088.928494
_symmetry_space_group_name_H-M "C C C A"
_symmetry_group_IT_number 68
_space_group.IT_coordinate_system_code '2'
_symmetry_cell_setting 'orthorhombic'
loop_
_space_group_symop_operation_xyz
x,y,z
-x,1/2-y,z
x,1/2-y,1/2-z
-x,y,1/2-z
-x,-y,-z
x,1/2+y,-z
-x,1/2+y,1/2+z
x,-y,1/2+z
1/2+x,1/2+y,z
1/2-x,-y,z
1/2+x,-y,1/2-z
1/2-x,1/2+y,1/2-z
1/2-x,1/2-y,-z
1/2+x,y,-z
1/2-x,y,1/2+z
1/2+x,1/2-y,1/2+z
loop_
_atom_site_type_symbol
_atom_site_label
_atom_site_fract_x
_atom_site_fract_y
_atom_site_fract_z
Si Si1 0.645741 0.087557 0.939682
Si Si2 0.443791 0.159375 0.474237
Si Si3 0.437613 0.576981 0.227767
Si Si4 0.904970 0.750000 0.250000
Si Si5 0.021771 0.077665 0.391140
Si Si6 0.289134 0.873484 0.469828
Si Si7 0.916776 0.865940 0.372388
O O1 0.674893 0.255599 0.933284
O O2 0.630703 0.992540 0.884159
O O3 0.590345 0.131345 0.971230
O O4 0.677776 0.973279 0.983394
O O5 0.500000 0.250000 0.480454
O O6 0.412603 0.254245 0.426147
O O7 0.453374 0.990823 0.446701
O O8 0.425980 0.750000 0.250000
O O9 0.500000 0.537903 0.250000
O O10 0.397040 0.440696 0.246449
O O11 0.439628 0.582268 0.161710
O O12 0.920052 0.766862 0.316149
O O13 0.000000 0.250000 0.396769
O O14 0.972940 0.959843 0.376222
O O15 0.250000 0.750000 0.500000
O O16 0.250000 0.000000 0.440576
#
# Coordination Sequence:
#
# PCOD9509092 Si02
#       7
#    16  16  16   8  16  16  16
#     4  11  21  40  58  87 129 156 208 258 318 389
#     4  10  23  37  52  81 126 181 215 242 313 383
#     4  11  19  31  50  71  98 153 229 286 301 334
#     4  12  21  36  56  76 120 162 222 268 318 354
#     4  11  21  32  49  77 110 164 229 262 307 355
#     4   9  20  39  66  89 115 147 199 267 329 380
#     4  11  23  34  55  82 118 176 205 266 312 372
#
# _framework density 20.436523000000001
#
# number of rings (size 3 to 8) (size 9 to 14) (size 15 to 20)
#    0.000    1.385    6.154    0.231    2.154    3.077 
#    0.000    0.000    0.000    0.000    0.000    0.000 
#   13.846    0.000    0.000    0.000    0.000    0.000 
#
# Total GULP energy -289501.322540 kJ/mol
# GULP energy per Si atom -5567.333126 kJ/mol
# Density = 2.039001 g / cm^3
# Si number density = 20.436523 Si / 1000 Ang^3
#
#
#
# Elastic Constant Matrix: (Units=GPa)
#
#
# Indices 1 2 3 4 5 6 
#
# 1 41.6742 21.7369 8.0858 0.0000 0.0000 0.0000
# 2 21.7369 147.8796 24.3903 0.0000 0.0000 0.0000
# 3 8.0858 24.3903 76.2800 0.0000 0.0000 0.0000
# 4 0.0000 0.0000 0.0000 35.8929 0.0000 0.0000
# 5 0.0000 0.0000 0.0000 0.0000 -1.1084 0.0000
# 6 0.0000 0.0000 0.0000 0.0000 0.0000 35.4271
#
#
#
# Elastic Compliance Matrix: (Units=1/GPa)
#
#
# Indices 1 2 3 4 5 6 
#
# 1 0.026179 -0.003579 -0.001631 0.000000 0.000000 0.000000
# 2 -0.003579 0.007628 -0.002060 0.000000 0.000000 0.000000
# 3 -0.001631 -0.002060 0.013941 0.000000 0.000000 0.000000
# 4 0.000000 0.000000 0.000000 0.027861 0.000000 0.000000
# 5 0.000000 0.000000 0.000000 0.000000 -0.902204 0.000000
# 6 0.000000 0.000000 0.000000 0.000000 0.000000 0.028227
#
#
# Mechanical properties :
#
#
# Convention : Reuss Voigt Hill
#
# Bulk Modulus (GPa) = 30.11209 41.58441 35.84825
# Shear Modulus (GPa) = -6.47031 28.15036 10.84002
#
# Velocity S-wave (km/s) = -1.78127 3.71543 2.30559
# Velocity P-wave (km/s) = 3.24590 6.22882 4.96659
#
# Compressibility (1/GPa) = 0.03320925
#
# Stress axis : x y z
#
# Youngs Moduli (GPa) = 38.19873 131.09493 71.73079
#
# Poissons Ratio (x) = 0.46920 0.11696
# Poissons Ratio (y) = 0.13672 0.14774
# Poissons Ratio (z) = 0.06229 0.27001
#
# Static dielectric constant tensor:
#      x y z
#    x 1.782560 0.000000 0.000000 
#    y 0.000000 1.835760 0.000000 
#    z 0.000000 0.000000 1.784580 
# 
# From -- ./inp_files/47557.got.cif
#   From: 2010.05.17/outbox.cif.g08.bks.cpg/sg68_24_cif.got.tgz:47557.got - 2010.06.03 18:57:09.
