data_PCOD9509506
_publ_section_title
;
Structure prediction by ZEFSAII (Michael W. Deem and Ramdas Pophale) SiO2 
 PCOD9509506
Probable space group: C C C A
;
_chemical_formula_sum "Si O2"
_cell_formula_units_Z 72
_cell_length_a 7.401220
_cell_length_b 20.380551
_cell_length_c 23.428918
_cell_angle_alpha 90.000000
_cell_angle_beta 90.000000
_cell_angle_gamma 90.000000
_cell_volume 3534.040053
_symmetry_space_group_name_H-M "C C C A"
_symmetry_group_IT_number 68
_space_group.IT_coordinate_system_code '2'
_symmetry_cell_setting 'orthorhombic'
loop_
_space_group_symop_operation_xyz
x,y,z
-x,1/2-y,z
x,1/2-y,1/2-z
-x,y,1/2-z
-x,-y,-z
x,1/2+y,-z
-x,1/2+y,1/2+z
x,-y,1/2+z
1/2+x,1/2+y,z
1/2-x,-y,z
1/2+x,-y,1/2-z
1/2-x,1/2+y,1/2-z
1/2-x,1/2-y,-z
1/2+x,y,-z
1/2-x,y,1/2+z
1/2+x,1/2-y,1/2+z
loop_
_atom_site_type_symbol
_atom_site_label
_atom_site_fract_x
_atom_site_fract_y
_atom_site_fract_z
Si Si1 0.261246 0.635272 0.052985
Si Si2 0.955083 0.820719 0.853507
Si Si3 0.052581 0.028999 0.185177
Si Si4 0.386695 0.816921 0.567458
Si Si5 0.250000 0.000000 0.903910
O O1 0.394058 0.672536 0.096354
O O2 0.310147 0.559405 0.055704
O O3 0.054366 0.634277 0.073678
O O4 0.282416 0.666233 0.990838
O O5 0.960431 0.891188 0.821869
O O6 0.757682 0.816405 0.882331
O O7 0.000000 0.750000 0.824700
O O8 0.000000 0.012763 0.250000
O O9 0.250000 0.000000 0.173778
O O10 0.916117 0.995829 0.140550
O O11 0.500000 0.750000 0.562382
#
# Coordination Sequence:
#
# PCOD9509506 Si02
#       5
#    16  16  16  16   8
#     4  11  22  36  58  89 125 170 208 247 296 371
#     4  11  23  40  62  93 126 163 208 255 309 367
#     4  11  23  45  71  90 117 160 209 264 325 380
#     4  12  21  36  59  86 129 173 204 242 303 368
#     4  10  24  42  60  90 124 158 210 260 308 372
#
# _framework density 20.373284000000002
#
# number of rings (size 3 to 8) (size 9 to 14) (size 15 to 20)
#    0.000    0.889    5.556    2.667    0.000    1.333 
#    2.000    0.000    0.000    0.000    0.000    0.000 
#    0.000    0.000    0.000    0.000    0.000    0.000 
#
# Total GULP energy -200792.295675 kJ/mol
# GULP energy per Si atom -5577.563769 kJ/mol
# Density = 2.032691 g / cm^3
# Si number density = 20.373284 Si / 1000 Ang^3
#
#
#
# Elastic Constant Matrix: (Units=GPa)
#
#
# Indices 1 2 3 4 5 6 
#
# 1 131.6349 -14.9570 10.6610 0.0000 0.0000 0.0000
# 2 -14.9570 55.2894 8.2976 0.0000 0.0000 0.0000
# 3 10.6610 8.2976 34.6282 0.0000 0.0000 0.0000
# 4 0.0000 0.0000 0.0000 -8.8370 0.0000 0.0000
# 5 0.0000 0.0000 0.0000 0.0000 9.4844 0.0000
# 6 0.0000 0.0000 0.0000 0.0000 0.0000 26.2504
#
#
#
# Elastic Compliance Matrix: (Units=1/GPa)
#
#
# Indices 1 2 3 4 5 6 
#
# 1 0.008157 0.002680 -0.003153 0.000000 0.000000 0.000000
# 2 0.002680 0.019642 -0.005532 0.000000 0.000000 0.000000
# 3 -0.003153 -0.005532 0.031175 0.000000 0.000000 0.000000
# 4 0.000000 0.000000 0.000000 -0.113160 0.000000 0.000000
# 5 0.000000 0.000000 0.000000 0.000000 0.105436 0.000000
# 6 0.000000 0.000000 0.000000 0.000000 0.000000 0.038095
#
#
# Mechanical properties :
#
#
# Convention : Reuss Voigt Hill
#
# Bulk Modulus (GPa) = 21.29350 25.50618 23.39984
# Shear Modulus (GPa) = 42.73222 19.88296 31.30759
#
# Velocity S-wave (km/s) = 4.58478 3.12738 3.92433
# Velocity P-wave (km/s) = 6.20494 5.05839 5.66077
#
# Compressibility (1/GPa) = 0.04696268
#
# Stress axis : x y z
#
# Youngs Moduli (GPa) = 122.59941 50.91199 32.07747
#
# Poissons Ratio (x) = -0.13643 0.10115
# Poissons Ratio (y) = -0.32854 0.17744
# Poissons Ratio (z) = 0.38660 0.28162
#
# Static dielectric constant tensor:
#      x y z
#    x 1.593020 0.000000 0.000000 
#    y 0.000000 1.867700 0.000000 
#    z 0.000000 0.000000 1.672030 
# 
# From -- ./inp_files/42933.got.cif
#   From: 2010.05.17/outbox.cif.g08.bks.cpg/sg68_22_cif.got.tgz:42933.got - 2010.06.03 18:57:09.
