data_PCOD9509918
_publ_section_title
;
Structure prediction by ZEFSAII (Michael W. Deem and Ramdas Pophale) SiO2 
 PCOD9509918
Probable space group: C C C A
;
_chemical_formula_sum "Si O2"
_cell_formula_units_Z 64
_cell_length_a 13.316741
_cell_length_b 13.937781
_cell_length_c 15.090793
_cell_angle_alpha 90.000000
_cell_angle_beta 90.000000
_cell_angle_gamma 90.000000
_cell_volume 2800.939005
_symmetry_space_group_name_H-M "C C C A"
_symmetry_group_IT_number 68
_space_group.IT_coordinate_system_code '2'
_symmetry_cell_setting 'orthorhombic'
loop_
_space_group_symop_operation_xyz
x,y,z
-x,1/2-y,z
x,1/2-y,1/2-z
-x,y,1/2-z
-x,-y,-z
x,1/2+y,-z
-x,1/2+y,1/2+z
x,-y,1/2+z
1/2+x,1/2+y,z
1/2-x,-y,z
1/2+x,-y,1/2-z
1/2-x,1/2+y,1/2-z
1/2-x,1/2-y,-z
1/2+x,y,-z
1/2-x,y,1/2+z
1/2+x,1/2-y,1/2+z
loop_
_atom_site_type_symbol
_atom_site_label
_atom_site_fract_x
_atom_site_fract_y
_atom_site_fract_z
Si Si1 0.841174 0.076630 0.599076
Si Si2 0.233838 0.108958 0.229296
Si Si3 0.436338 0.391261 0.623637
Si Si4 0.644586 0.702216 0.072813
O O1 0.819309 0.121003 0.695643
O O2 0.843604 0.151595 0.520745
O O3 0.750000 0.000000 0.586183
O O4 0.934686 0.003174 0.599013
O O5 0.129044 0.114861 0.285663
O O6 0.228768 0.178853 0.146045
O O7 0.250000 0.000000 0.196158
O O8 0.375569 0.314997 0.562974
O O9 0.546599 0.347691 0.617360
#
# Coordination Sequence:
#
# PCOD9509918 Si02
#       4
#    16  16  16  16
#     4   9  20  35  49  77 112 138 177 220 264 326
#     4   9  19  33  48  76 108 137 174 215 263 318
#     4   9  20  33  53  83 106 134 183 227 262 321
#     4  11  18  33  58  77 107 145 174 221 277 310
#
# _framework density 22.84948
#
# number of rings (size 3 to 8) (size 9 to 14) (size 15 to 20)
#    0.000    3.000    0.000    3.000    0.000    6.000 
#    0.000    5.000    0.000    0.000    0.000    0.000 
#    0.000   32.000    0.000    0.000    0.000    0.000 
#
# Total GULP energy -178439.430867 kJ/mol
# GULP energy per Si atom -5576.232215 kJ/mol
# Density = 2.279747 g / cm^3
# Si number density = 22.849480 Si / 1000 Ang^3
#
#
#
# Elastic Constant Matrix: (Units=GPa)
#
#
# Indices 1 2 3 4 5 6 
#
# 1 47.2090 16.0287 1.3896 0.0000 0.0000 0.0000
# 2 16.0287 111.3058 65.3507 0.0000 0.0000 0.0000
# 3 1.3896 65.3507 123.2109 0.0000 0.0000 0.0000
# 4 0.0000 0.0000 0.0000 19.3962 0.0000 0.0000
# 5 0.0000 0.0000 0.0000 0.0000 2.5015 0.0000
# 6 0.0000 0.0000 0.0000 0.0000 0.0000 36.2498
#
#
#
# Elastic Compliance Matrix: (Units=1/GPa)
#
#
# Indices 1 2 3 4 5 6 
#
# 1 0.022654 -0.004520 0.002142 0.000000 0.000000 0.000000
# 2 -0.004520 0.013949 -0.007348 0.000000 0.000000 0.000000
# 3 0.002142 -0.007348 0.011989 0.000000 0.000000 0.000000
# 4 0.000000 0.000000 0.000000 0.051556 0.000000 0.000000
# 5 0.000000 0.000000 0.000000 0.000000 0.399760 0.000000
# 6 0.000000 0.000000 0.000000 0.000000 0.000000 0.027586
#
#
# Mechanical properties :
#
#
# Convention : Reuss Voigt Hill
#
# Bulk Modulus (GPa) = 34.31594 49.69598 42.00596
# Shear Modulus (GPa) = 8.98215 24.89327 16.93771
#
# Velocity S-wave (km/s) = 1.98483 3.30426 2.72559
# Velocity P-wave (km/s) = 4.50595 6.02943 5.32248
#
# Compressibility (1/GPa) = 0.02914097
#
# Stress axis : x y z
#
# Youngs Moduli (GPa) = 44.14245 71.68909 83.40867
#
# Poissons Ratio (x) = 0.32402 -0.17864
# Poissons Ratio (y) = 0.19952 0.61285
# Poissons Ratio (z) = -0.09454 0.52674
#
# Static dielectric constant tensor:
#      x y z
#    x 1.975820 0.000000 0.000000 
#    y 0.000000 1.917450 0.000000 
#    z 0.000000 0.000000 1.844380 
# 
# From -- ./inp_files/21779.got.cif
#   From: 2010.05.17/outbox.cif.g08.bks.cpg/sg68_11_cif.got.tgz:21779.got - 2010.06.03 18:57:09.
