data_PCOD9509090
_publ_section_title
;
Structure prediction by ZEFSAII (Michael W. Deem and Ramdas Pophale) SiO2 
 PCOD9509090
Probable space group: C C C A
;
_chemical_formula_sum "Si O2"
_cell_formula_units_Z 80
_cell_length_a 14.480069
_cell_length_b 11.995591
_cell_length_c 20.982630
_cell_angle_alpha 90.000000
_cell_angle_beta 90.000000
_cell_angle_gamma 90.000000
_cell_volume 3644.619576
_symmetry_space_group_name_H-M "C C C A"
_symmetry_group_IT_number 68
_space_group.IT_coordinate_system_code '2'
_symmetry_cell_setting 'orthorhombic'
loop_
_space_group_symop_operation_xyz
x,y,z
-x,1/2-y,z
x,1/2-y,1/2-z
-x,y,1/2-z
-x,-y,-z
x,1/2+y,-z
-x,1/2+y,1/2+z
x,-y,1/2+z
1/2+x,1/2+y,z
1/2-x,-y,z
1/2+x,-y,1/2-z
1/2-x,1/2+y,1/2-z
1/2-x,1/2-y,-z
1/2+x,y,-z
1/2-x,y,1/2+z
1/2+x,1/2-y,1/2+z
loop_
_atom_site_type_symbol
_atom_site_label
_atom_site_fract_x
_atom_site_fract_y
_atom_site_fract_z
Si Si1 0.443307 0.492433 0.932544
Si Si2 0.599206 0.734799 0.606585
Si Si3 0.220403 0.625706 0.630255
Si Si4 0.459259 0.875661 0.316457
Si Si5 0.348876 0.779401 0.027881
O O1 0.392817 0.605301 0.911203
O O2 0.508701 0.455076 0.874218
O O3 0.366975 0.395787 0.939097
O O4 0.500000 0.500000 0.000000
O O5 0.500000 0.750000 0.640086
O O6 0.688768 0.796434 0.635477
O O7 0.590409 0.786783 0.535493
O O8 0.250000 0.500000 0.612323
O O9 0.151948 0.623256 0.689847
O O10 0.148419 0.681173 0.579336
O O11 0.500000 0.750000 0.325940
O O12 0.500000 0.917227 0.250000
O O13 0.250000 0.750000 0.000000
#
# Coordination Sequence:
#
# PCOD9509090 Si02
#       5
#    16  16  16  16  16
#     4  12  23  41  74 104 151 189 248 309 366 450
#     4  11  23  38  65 105 146 190 239 308 373 432
#     4  11  24  43  69 101 145 193 252 307 371 445
#     4  11  25  49  74 102 144 199 249 302 373 450
#     4  10  23  36  59 104 146 189 234 296 376 431
#
# _framework density 21.950164000000001
#
# number of rings (size 3 to 8) (size 9 to 14) (size 15 to 20)
#    0.000    1.000    4.000    2.400    8.400    2.400 
#    0.000    4.000    0.000    4.200    0.000    0.000 
#    0.000    0.000    0.000    0.000    0.000    0.000 
#
# Total GULP energy -222861.005496 kJ/mol
# GULP energy per Si atom -5571.525137 kJ/mol
# Density = 2.190020 g / cm^3
# Si number density = 21.950164 Si / 1000 Ang^3
#
#
#
# Elastic Constant Matrix: (Units=GPa)
#
#
# Indices 1 2 3 4 5 6 
#
# 1 154.0243 56.2780 47.5367 0.0000 0.0000 0.0000
# 2 56.2780 171.4640 24.8254 0.0000 0.0000 0.0000
# 3 47.5367 24.8254 80.8071 0.0000 0.0000 0.0000
# 4 0.0000 0.0000 0.0000 15.7949 0.0000 0.0000
# 5 0.0000 0.0000 0.0000 0.0000 26.8906 0.0000
# 6 0.0000 0.0000 0.0000 0.0000 0.0000 46.7126
#
#
#
# Elastic Compliance Matrix: (Units=1/GPa)
#
#
# Indices 1 2 3 4 5 6 
#
# 1 0.008661 -0.002203 -0.004418 0.000000 0.000000 0.000000
# 2 -0.002203 0.006664 -0.000751 0.000000 0.000000 0.000000
# 3 -0.004418 -0.000751 0.015205 0.000000 0.000000 0.000000
# 4 0.000000 0.000000 0.000000 0.063311 0.000000 0.000000
# 5 0.000000 0.000000 0.000000 0.000000 0.037188 0.000000
# 6 0.000000 0.000000 0.000000 0.000000 0.000000 0.021407
#
#
# Mechanical properties :
#
#
# Convention : Reuss Voigt Hill
#
# Bulk Modulus (GPa) = 63.35151 73.73063 68.54107
# Shear Modulus (GPa) = 28.99498 36.38999 32.69249
#
# Velocity S-wave (km/s) = 3.63843 4.07608 3.86346
# Velocity P-wave (km/s) = 6.82459 7.47098 7.15509
#
# Compressibility (1/GPa) = 0.01578494
#
# Stress axis : x y z
#
# Youngs Moduli (GPa) = 115.45946 150.06027 65.76738
#
# Poissons Ratio (x) = 0.33059 0.29058
# Poissons Ratio (y) = 0.25436 0.04941
# Poissons Ratio (z) = 0.51013 0.11274
#
# Static dielectric constant tensor:
#      x y z
#    x 1.876390 0.000000 0.000000 
#    y 0.000000 1.833070 0.000000 
#    z 0.000000 0.000000 2.719820 
# 
# From -- ./inp_files/45195.got.cif
#   From: 2010.05.17/outbox.cif.g08.bks.cpg/sg68_23_cif.got.tgz:45195.got - 2010.06.03 18:57:09.
