data_PCOD9509242
_publ_section_title
;
Structure prediction by ZEFSAII (Michael W. Deem and Ramdas Pophale) SiO2 
 PCOD9509242
Probable space group: C C C A
;
_chemical_formula_sum "Si O2"
_cell_formula_units_Z 96
_cell_length_a 20.168375
_cell_length_b 12.814886
_cell_length_c 15.769733
_cell_angle_alpha 90.000000
_cell_angle_beta 90.000000
_cell_angle_gamma 90.000000
_cell_volume 4075.773067
_symmetry_space_group_name_H-M "C C C A"
_symmetry_group_IT_number 68
_space_group.IT_coordinate_system_code '2'
_symmetry_cell_setting 'orthorhombic'
loop_
_space_group_symop_operation_xyz
x,y,z
-x,1/2-y,z
x,1/2-y,1/2-z
-x,y,1/2-z
-x,-y,-z
x,1/2+y,-z
-x,1/2+y,1/2+z
x,-y,1/2+z
1/2+x,1/2+y,z
1/2-x,-y,z
1/2+x,-y,1/2-z
1/2-x,1/2+y,1/2-z
1/2-x,1/2-y,-z
1/2+x,y,-z
1/2-x,y,1/2+z
1/2+x,1/2-y,1/2+z
loop_
_atom_site_type_symbol
_atom_site_label
_atom_site_fract_x
_atom_site_fract_y
_atom_site_fract_z
Si Si1 0.666212 0.580948 0.826854
Si Si2 0.893644 0.259556 0.940129
Si Si3 0.515939 0.582095 0.571796
Si Si4 0.434490 0.053956 0.718159
Si Si5 0.179416 0.837030 0.602126
Si Si6 0.250000 0.000000 0.483535
Si Si7 0.757173 0.250000 0.750000
O O1 0.644812 0.697362 0.859115
O O2 0.610697 0.507123 0.786559
O O3 0.692574 0.522337 0.911642
O O4 0.714881 0.628499 0.755355
O O5 0.915229 0.141279 0.940185
O O6 0.957664 0.334382 0.934916
O O7 0.855910 0.278621 0.025772
O O8 0.500000 0.500000 0.500000
O O9 0.525623 0.529430 0.661547
O O10 0.500000 0.118936 0.750000
O O11 0.379822 0.107320 0.656164
O O12 0.233115 0.908093 0.551279
O O13 0.213468 0.756710 0.665210
#
# Coordination Sequence:
#
# PCOD9509242 Si02
#       7
#    16  16  16  16  16   8   8
#     4  11  23  44  67 105 135 187 241 306 363 436
#     4  10  23  42  68 101 132 181 242 283 355 445
#     4  11  22  42  67  98 139 184 226 286 363 445
#     4  12  24  42  71 104 143 183 229 300 377 431
#     4  11  25  45  67 104 136 192 240 298 366 442
#     4  10  24  46  76  94 138 192 254 290 364 456
#     4  12  26  44  66 102 144 182 244 312 362 420
#
# _framework density 23.553813999999999
#
# number of rings (size 3 to 8) (size 9 to 14) (size 15 to 20)
#    0.000    1.000    3.333    3.000    0.000    5.333 
#    0.000    0.000    0.000    0.000    0.000    0.000 
#    0.000    0.000    0.000    0.000    0.000    0.000 
#
# Total GULP energy -267388.243933 kJ/mol
# GULP energy per Si atom -5570.588415 kJ/mol
# Density = 2.350020 g / cm^3
# Si number density = 23.553814 Si / 1000 Ang^3
#
#
#
# Elastic Constant Matrix: (Units=GPa)
#
#
# Indices 1 2 3 4 5 6 
#
# 1 42.3763 4.7601 -3.4634 0.0000 0.0000 0.0000
# 2 4.7601 36.2796 3.6549 0.0000 0.0000 0.0000
# 3 -3.4634 3.6549 82.4541 0.0000 0.0000 0.0000
# 4 0.0000 0.0000 0.0000 -1.6289 0.0000 0.0000
# 5 0.0000 0.0000 0.0000 0.0000 109.8076 0.0000
# 6 0.0000 0.0000 0.0000 0.0000 0.0000 -125.9885
#
#
#
# Elastic Compliance Matrix: (Units=1/GPa)
#
#
# Indices 1 2 3 4 5 6 
#
# 1 0.024060 -0.003273 0.001156 0.000000 0.000000 0.000000
# 2 -0.003273 0.028133 -0.001384 0.000000 0.000000 0.000000
# 3 0.001156 -0.001384 0.012238 0.000000 0.000000 0.000000
# 4 0.000000 0.000000 0.000000 -0.613904 0.000000 0.000000
# 5 0.000000 0.000000 0.000000 0.000000 0.009107 0.000000
# 6 0.000000 0.000000 0.000000 0.000000 0.000000 -0.007937
#
#
# Mechanical properties :
#
#
# Convention : Reuss Voigt Hill
#
# Bulk Modulus (GPa) = 17.41354 19.00148 18.20751
# Shear Modulus (GPa) = -9.57567 6.84860 -1.36353
#
# Velocity S-wave (km/s) = -2.01848 1.70703 -0.76168
# Velocity P-wave (km/s) = 1.40598 3.45978 2.64072
#
# Compressibility (1/GPa) = 0.05742657
#
# Stress axis : x y z
#
# Youngs Moduli (GPa) = 41.56232 35.54593 81.71358
#
# Poissons Ratio (x) = 0.11635 -0.09444
# Poissons Ratio (y) = 0.13605 0.11313
# Poissons Ratio (z) = -0.04803 0.04921
#
# Static dielectric constant tensor:
#      x y z
#    x 2.112240 0.000000 0.000000 
#    y 0.000000 1.891920 0.000000 
#    z 0.000000 0.000000 1.889110 
# 
# From -- ./inp_files/24495.got.cif
#   From: 2010.05.17/outbox.cif.g08.bks.cpg/sg68_13_cif.got.tgz:24495.got - 2010.06.03 18:57:09.
