data_PCOD9509151
_publ_section_title
;
Structure prediction by ZEFSAII (Michael W. Deem and Ramdas Pophale) SiO2 
 PCOD9509151
Probable space group: C C C A
;
_chemical_formula_sum "Si O2"
_cell_formula_units_Z 72
_cell_length_a 12.059363
_cell_length_b 9.855843
_cell_length_c 30.150709
_cell_angle_alpha 90.000000
_cell_angle_beta 90.000000
_cell_angle_gamma 90.000000
_cell_volume 3583.568199
_symmetry_space_group_name_H-M "C C C A"
_symmetry_group_IT_number 68
_space_group.IT_coordinate_system_code '2'
_symmetry_cell_setting 'orthorhombic'
loop_
_space_group_symop_operation_xyz
x,y,z
-x,1/2-y,z
x,1/2-y,1/2-z
-x,y,1/2-z
-x,-y,-z
x,1/2+y,-z
-x,1/2+y,1/2+z
x,-y,1/2+z
1/2+x,1/2+y,z
1/2-x,-y,z
1/2+x,-y,1/2-z
1/2-x,1/2+y,1/2-z
1/2-x,1/2-y,-z
1/2+x,y,-z
1/2-x,y,1/2+z
1/2+x,1/2-y,1/2+z
loop_
_atom_site_type_symbol
_atom_site_label
_atom_site_fract_x
_atom_site_fract_y
_atom_site_fract_z
Si Si1 0.582740 0.126463 0.996670
Si Si2 0.630576 0.768409 0.589712
Si Si3 0.750000 0.000000 0.427669
Si Si4 0.500000 0.981291 0.250000
Si Si5 0.314789 0.250000 0.750000
Si Si6 0.161768 0.619158 0.185061
O O1 0.500000 0.250000 0.986129
O O2 0.651959 0.162655 0.041558
O O3 0.500000 0.000000 0.000000
O O4 0.666166 0.084517 0.958401
O O5 0.500000 0.750000 0.587036
O O6 0.685114 0.620731 0.596476
O O7 0.651181 0.856446 0.633072
O O8 0.602887 0.877712 0.258876
O O9 0.548332 0.075295 0.210168
O O10 0.228430 0.239446 0.790767
O O11 0.250000 0.500000 0.191375
#
# Coordination Sequence:
#
# PCOD9509151 Si02
#       6
#    16  16   8   8   8  16
#     4  11  23  44  68  96 129 175 225 267 332 395
#     4  11  25  41  63  99 130 166 226 267 327 397
#     4  12  24  46  70  92 136 184 210 288 330 390
#     4   9  20  41  66  86 132 163 205 272 318 388
#     4   9  20  41  62  94 122 165 216 253 330 396
#     4  10  23  40  65  96 125 171 215 265 331 389
#
# _framework density 20.091705000000001
#
# number of rings (size 3 to 8) (size 9 to 14) (size 15 to 20)
#    0.000    1.556    4.444    0.667    4.667    1.778 
#    2.000    0.000    0.000    0.000    0.000    0.000 
#    0.000    0.000    0.000    0.000    0.000    0.000 
#
# Total GULP energy -200549.495156 kJ/mol
# GULP energy per Si atom -5570.819310 kJ/mol
# Density = 2.004598 g / cm^3
# Si number density = 20.091705 Si / 1000 Ang^3
#
#
#
# Elastic Constant Matrix: (Units=GPa)
#
#
# Indices 1 2 3 4 5 6 
#
# 1 73.6662 34.5833 19.3321 0.0000 0.0000 0.0000
# 2 34.5833 100.3337 15.7043 0.0000 0.0000 0.0000
# 3 19.3321 15.7043 59.4612 0.0000 0.0000 0.0000
# 4 0.0000 0.0000 0.0000 34.4577 0.0000 0.0000
# 5 0.0000 0.0000 0.0000 0.0000 -170.3016 0.0000
# 6 0.0000 0.0000 0.0000 0.0000 0.0000 35.3349
#
#
#
# Elastic Compliance Matrix: (Units=1/GPa)
#
#
# Indices 1 2 3 4 5 6 
#
# 1 0.017139 -0.005252 -0.004185 0.000000 0.000000 0.000000
# 2 -0.005252 0.012006 -0.001463 0.000000 0.000000 0.000000
# 3 -0.004185 -0.001463 0.018565 0.000000 0.000000 0.000000
# 4 0.000000 0.000000 0.000000 0.029021 0.000000 0.000000
# 5 0.000000 0.000000 0.000000 0.000000 -0.005872 0.000000
# 6 0.000000 0.000000 0.000000 0.000000 0.000000 0.028301
#
#
# Mechanical properties :
#
#
# Convention : Reuss Voigt Hill
#
# Bulk Modulus (GPa) = 38.59749 41.41119 40.00434
# Shear Modulus (GPa) = 38.58113 -9.17904 14.70104
#
# Velocity S-wave (km/s) = 4.38682 -2.13974 2.70792
# Velocity P-wave (km/s) = 6.70159 3.81460 5.45264
#
# Compressibility (1/GPa) = 0.02590842
#
# Stress axis : x y z
#
# Youngs Moduli (GPa) = 58.34711 83.29034 53.86547
#
# Poissons Ratio (x) = 0.43748 0.22543
# Poissons Ratio (y) = 0.30646 0.07882
# Poissons Ratio (z) = 0.24418 0.12188
#
# Static dielectric constant tensor:
#      x y z
#    x 1.756260 0.000000 0.000000 
#    y 0.000000 1.768240 0.000000 
#    z 0.000000 0.000000 1.811860 
# 
# From -- ./inp_files/50060.got.cif
#   From: 2010.05.17/outbox.cif.g08.bks.cpg/sg68_26_cif.got.tgz:50060.got - 2010.06.03 18:57:09.
