data_PCOD9509396
_publ_section_title
;
Structure prediction by ZEFSAII (Michael W. Deem and Ramdas Pophale) SiO2 
 PCOD9509396
Probable space group: C C C A
;
_chemical_formula_sum "Si O2"
_cell_formula_units_Z 84
_cell_length_a 15.857118
_cell_length_b 9.581408
_cell_length_c 22.003432
_cell_angle_alpha 90.000000
_cell_angle_beta 90.000000
_cell_angle_gamma 90.000000
_cell_volume 3343.058816
_symmetry_space_group_name_H-M "C C C A"
_symmetry_group_IT_number 68
_space_group.IT_coordinate_system_code '2'
_symmetry_cell_setting 'orthorhombic'
loop_
_space_group_symop_operation_xyz
x,y,z
-x,1/2-y,z
x,1/2-y,1/2-z
-x,y,1/2-z
-x,-y,-z
x,1/2+y,-z
-x,1/2+y,1/2+z
x,-y,1/2+z
1/2+x,1/2+y,z
1/2-x,-y,z
1/2+x,-y,1/2-z
1/2-x,1/2+y,1/2-z
1/2-x,1/2-y,-z
1/2+x,y,-z
1/2-x,y,1/2+z
1/2+x,1/2-y,1/2+z
loop_
_atom_site_type_symbol
_atom_site_label
_atom_site_fract_x
_atom_site_fract_y
_atom_site_fract_z
Si Si1 0.091902 0.989686 0.736821
Si Si2 0.665231 0.333978 0.624431
Si Si3 0.950358 0.044456 0.940651
Si Si4 0.812667 0.735666 0.442516
Si Si5 0.115663 0.014727 0.373446
Si Si6 0.000000 0.750000 0.250000
O O1 0.134560 0.009691 0.802435
O O2 0.000000 0.919801 0.750000
O O3 0.143675 0.900358 0.689362
O O4 0.062716 0.144449 0.715572
O O5 0.750000 0.250000 0.500000
O O6 0.763568 0.317226 0.611128
O O7 0.621389 0.432188 0.574964
O O8 0.627376 0.178961 0.617011
O O9 0.902060 0.189014 0.951093
O O10 0.019958 0.030640 0.887897
O O11 0.000000 0.000000 0.000000
O O12 0.829601 0.580538 0.418373
#
# Coordination Sequence:
#
# PCOD9509396 Si02
#       6
#    16  16  16  16  16   4
#     4  10  23  45  83 114 157 205 274 338 415 502
#     4  12  26  49  78 116 165 206 265 346 423 492
#     4  12  26  47  79 115 149 211 275 334 403 495
#     4  12  29  53  78 118 172 219 277 350 428 498
#     4  12  26  47  85 113 156 214 276 333 410 507
#     4   8  20  40  74 116 152 196 274 342 392 494
#
# _framework density 25.12669
#
# number of rings (size 3 to 8) (size 9 to 14) (size 15 to 20)
#    0.571    0.000    1.905    5.143    5.333    3.810 
#    0.000    7.619    0.000    0.000    0.000    0.000 
#    0.000    0.000    0.000    0.000    0.000    0.000 
#
# Total GULP energy -235322.924243 kJ/mol
# GULP energy per Si atom -5602.926768 kJ/mol
# Density = 2.506950 g / cm^3
# Si number density = 25.126690 Si / 1000 Ang^3
#
#
#
# Elastic Constant Matrix: (Units=GPa)
#
#
# Indices 1 2 3 4 5 6 
#
# 1 106.6518 46.2733 26.3780 0.0000 0.0000 0.0000
# 2 46.2733 182.8498 63.7210 0.0000 0.0000 0.0000
# 3 26.3780 63.7210 140.4073 0.0000 0.0000 0.0000
# 4 0.0000 0.0000 0.0000 40.3359 0.0000 0.0000
# 5 0.0000 0.0000 0.0000 0.0000 46.2012 0.0000
# 6 0.0000 0.0000 0.0000 0.0000 0.0000 54.0735
#
#
#
# Elastic Compliance Matrix: (Units=1/GPa)
#
#
# Indices 1 2 3 4 5 6 
#
# 1 0.010632 -0.002369 -0.000922 0.000000 0.000000 0.000000
# 2 -0.002369 0.007024 -0.002743 0.000000 0.000000 0.000000
# 3 -0.000922 -0.002743 0.008540 0.000000 0.000000 0.000000
# 4 0.000000 0.000000 0.000000 0.024792 0.000000 0.000000
# 5 0.000000 0.000000 0.000000 0.000000 0.021644 0.000000
# 6 0.000000 0.000000 0.000000 0.000000 0.000000 0.018493
#
#
# Mechanical properties :
#
#
# Convention : Reuss Voigt Hill
#
# Bulk Modulus (GPa) = 70.77985 78.07261 74.42623
# Shear Modulus (GPa) = 46.33724 47.69122 47.01423
#
# Velocity S-wave (km/s) = 4.29901 4.36137 4.33030
# Velocity P-wave (km/s) = 7.27134 7.51672 7.39504
#
# Compressibility (1/GPa) = 0.01412832
#
# Stress axis : x y z
#
# Youngs Moduli (GPa) = 94.05228 142.36118 117.09415
#
# Poissons Ratio (x) = 0.33730 0.10799
# Poissons Ratio (y) = 0.22284 0.32116
# Poissons Ratio (z) = 0.08674 0.39046
#
# Static dielectric constant tensor:
#      x y z
#    x 1.982260 0.000000 0.000000 
#    y 0.000000 1.993750 0.000000 
#    z 0.000000 0.000000 2.045640 
# 
# From -- ./inp_files/40185.got.cif
#   From: 2010.05.17/outbox.cif.g08.bks.cpg/sg68_21_cif.got.tgz:40185.got - 2010.06.03 18:57:09.
