data_PCOD9509203
_publ_section_title
;
Structure prediction by ZEFSAII (Michael W. Deem and Ramdas Pophale) SiO2 
 PCOD9509203
Probable space group: C C C A
;
_chemical_formula_sum "Si O2"
_cell_formula_units_Z 76
_cell_length_a 10.000863
_cell_length_b 22.266423
_cell_length_c 16.379349
_cell_angle_alpha 90.000000
_cell_angle_beta 90.000000
_cell_angle_gamma 90.000000
_cell_volume 3647.409877
_symmetry_space_group_name_H-M "C C C A"
_symmetry_group_IT_number 68
_space_group.IT_coordinate_system_code '2'
_symmetry_cell_setting 'orthorhombic'
loop_
_space_group_symop_operation_xyz
x,y,z
-x,1/2-y,z
x,1/2-y,1/2-z
-x,y,1/2-z
-x,-y,-z
x,1/2+y,-z
-x,1/2+y,1/2+z
x,-y,1/2+z
1/2+x,1/2+y,z
1/2-x,-y,z
1/2+x,-y,1/2-z
1/2-x,1/2+y,1/2-z
1/2-x,1/2-y,-z
1/2+x,y,-z
1/2-x,y,1/2+z
1/2+x,1/2-y,1/2+z
loop_
_atom_site_type_symbol
_atom_site_label
_atom_site_fract_x
_atom_site_fract_y
_atom_site_fract_z
Si Si1 0.922540 0.441341 0.035633
Si Si2 0.575742 0.333158 0.885961
Si Si3 0.500000 0.750000 0.524381
Si Si4 0.500000 0.250000 0.750000
Si Si5 0.750000 0.500000 0.172255
Si Si6 0.000000 0.933710 0.250000
Si Si7 0.137279 0.640515 0.112860
O O1 0.820137 0.455341 0.108172
O O2 0.024539 0.394717 0.076166
O O3 0.849636 0.406090 0.962332
O O4 0.000000 0.500000 0.000000
O O5 0.476970 0.301539 0.821305
O O6 0.720208 0.344748 0.847031
O O7 0.592632 0.288436 0.963004
O O8 0.422455 0.701986 0.578251
O O9 0.630334 0.472543 0.226096
O O10 0.961842 0.891614 0.174724
#
# Coordination Sequence:
#
# PCOD9509203 Si02
#       7
#    16  16   8   4   8   8  16
#     4  11  23  45  73 101 134 190 239 287 347 439
#     4  10  23  41  70  98 136 181 235 288 349 425
#     4   9  22  44  66 101 128 186 238 289 330 434
#     4  10  24  42  60 104 130 190 224 294 360 412
#     4  12  28  48  68 106 150 186 240 292 360 436
#     4  12  30  42  70 108 145 183 228 304 370 412
#     4  11  24  44  70  98 137 181 233 289 356 418
#
# _framework density 20.836703
#
# number of rings (size 3 to 8) (size 9 to 14) (size 15 to 20)
#    0.000    1.263    2.105    1.895    8.842    2.947 
#    0.000    0.000    0.000    0.000    0.000    0.000 
#    0.000    0.000    0.000    0.000    0.000    0.000 
#
# Total GULP energy -211699.278551 kJ/mol
# GULP energy per Si atom -5571.033646 kJ/mol
# Density = 2.078928 g / cm^3
# Si number density = 20.836703 Si / 1000 Ang^3
#
#
#
# Elastic Constant Matrix: (Units=GPa)
#
#
# Indices 1 2 3 4 5 6 
#
# 1 84.1594 37.0220 19.8499 0.0000 0.0000 0.0000
# 2 37.0220 132.2699 47.7257 0.0000 0.0000 0.0000
# 3 19.8499 47.7257 87.8217 0.0000 0.0000 0.0000
# 4 0.0000 0.0000 0.0000 -62.7518 0.0000 0.0000
# 5 0.0000 0.0000 0.0000 0.0000 31.8764 0.0000
# 6 0.0000 0.0000 0.0000 0.0000 0.0000 -10.1451
#
#
#
# Elastic Compliance Matrix: (Units=1/GPa)
#
#
# Indices 1 2 3 4 5 6 
#
# 1 0.013661 -0.003370 -0.001256 0.000000 0.000000 0.000000
# 2 -0.003370 0.010236 -0.004801 0.000000 0.000000 0.000000
# 3 -0.001256 -0.004801 0.014280 0.000000 0.000000 0.000000
# 4 0.000000 0.000000 0.000000 -0.015936 0.000000 0.000000
# 5 0.000000 0.000000 0.000000 0.000000 0.031371 0.000000
# 6 0.000000 0.000000 0.000000 0.000000 0.000000 -0.098570
#
#
# Mechanical properties :
#
#
# Convention : Reuss Voigt Hill
#
# Bulk Modulus (GPa) = 51.75483 57.04958 54.40220
# Shear Modulus (GPa) = -254.28724 5.10614 -124.59055
#
# Velocity S-wave (km/s) = -11.05907 1.56712 -7.74103
# Velocity P-wave (km/s) = 11.75494 5.54196 7.33025
#
# Compressibility (1/GPa) = 0.01932187
#
# Stress axis : x y z
#
# Youngs Moduli (GPa) = 73.20013 97.69536 70.03031
#
# Poissons Ratio (x) = 0.32928 0.08797
# Poissons Ratio (y) = 0.24672 0.33620
# Poissons Ratio (z) = 0.09195 0.46901
#
# Static dielectric constant tensor:
#      x y z
#    x 1.102860 0.000000 0.000000 
#    y 0.000000 1.751980 0.000000 
#    z 0.000000 0.000000 1.739000 
# 
# From -- ./inp_files/20935.got.cif
#   From: 2010.05.17/outbox.cif.g08.bks.cpg/sg68_11_cif.got.tgz:20935.got - 2010.06.03 18:57:09.
