data_PCOD9509894
_publ_section_title
;
Structure prediction by ZEFSAII (Michael W. Deem and Ramdas Pophale) SiO2 
 PCOD9509894
Probable space group: C C C A
;
_chemical_formula_sum "Si O2"
_cell_formula_units_Z 72
_cell_length_a 25.602929
_cell_length_b 12.606027
_cell_length_c 9.860867
_cell_angle_alpha 90.000000
_cell_angle_beta 90.000000
_cell_angle_gamma 90.000000
_cell_volume 3182.606798
_symmetry_space_group_name_H-M "C C C A"
_symmetry_group_IT_number 68
_space_group.IT_coordinate_system_code '2'
_symmetry_cell_setting 'orthorhombic'
loop_
_space_group_symop_operation_xyz
x,y,z
-x,1/2-y,z
x,1/2-y,1/2-z
-x,y,1/2-z
-x,-y,-z
x,1/2+y,-z
-x,1/2+y,1/2+z
x,-y,1/2+z
1/2+x,1/2+y,z
1/2-x,-y,z
1/2+x,-y,1/2-z
1/2-x,1/2+y,1/2-z
1/2-x,1/2-y,-z
1/2+x,y,-z
1/2-x,y,1/2+z
1/2+x,1/2-y,1/2+z
loop_
_atom_site_type_symbol
_atom_site_label
_atom_site_fract_x
_atom_site_fract_y
_atom_site_fract_z
Si Si1 0.000000 0.004101 0.750000
Si Si2 0.605987 0.250000 0.250000
Si Si3 0.596846 0.375860 0.722331
Si Si4 0.250000 0.500000 0.546223
Si Si5 0.469429 0.845716 0.971061
Si Si6 0.180866 0.944070 0.208812
O O1 0.993387 0.080533 0.880091
O O2 0.048849 0.932832 0.800712
O O3 0.568342 0.209226 0.135030
O O4 0.641097 0.347765 0.204022
O O5 0.603654 0.250000 0.750000
O O6 0.571363 0.394476 0.574905
O O7 0.649193 0.445457 0.731898
O O8 0.211008 0.552784 0.435532
O O9 0.217301 0.430769 0.656580
O O10 0.500000 0.750000 0.042710
#
# Coordination Sequence:
#
# PCOD9509894 Si02
#       6
#     8   8  16   8  16  16
#     4  12  22  44  66 104 148 189 233 278 332 422
#     4  12  23  42  76 102 136 182 238 285 350 418
#     4  12  27  42  68 106 147 187 232 285 347 418
#     4  10  26  52  72 102 138 176 240 300 376 418
#     4  12  22  42  66 104 144 193 232 277 338 415
#     4  11  25  49  73 105 137 183 235 302 359 429
#
# _framework density 22.622964
#
# number of rings (size 3 to 8) (size 9 to 14) (size 15 to 20)
#    0.000    0.444    4.444    3.667    3.111    0.889 
#    8.000    0.000    0.000    0.000    0.000    0.000 
#    0.000    0.000    0.000    0.000    0.000    0.000 
#
# Total GULP energy -200826.013938 kJ/mol
# GULP energy per Si atom -5578.500387 kJ/mol
# Density = 2.257147 g / cm^3
# Si number density = 22.622964 Si / 1000 Ang^3
#
#
#
# Elastic Constant Matrix: (Units=GPa)
#
#
# Indices 1 2 3 4 5 6 
#
# 1 84.1439 33.8788 28.6762 0.0000 0.0000 0.0000
# 2 33.8788 112.7593 42.6105 0.0000 0.0000 0.0000
# 3 28.6762 42.6105 111.8618 0.0000 0.0000 0.0000
# 4 0.0000 0.0000 0.0000 -7.3041 0.0000 0.0000
# 5 0.0000 0.0000 0.0000 0.0000 -51.1306 0.0000
# 6 0.0000 0.0000 0.0000 0.0000 0.0000 -5.1968
#
#
#
# Elastic Compliance Matrix: (Units=1/GPa)
#
#
# Indices 1 2 3 4 5 6 
#
# 1 0.014019 -0.003334 -0.002324 0.000000 0.000000 0.000000
# 2 -0.003334 0.011152 -0.003394 0.000000 0.000000 0.000000
# 3 -0.002324 -0.003394 0.010828 0.000000 0.000000 0.000000
# 4 0.000000 0.000000 0.000000 -0.136909 0.000000 0.000000
# 5 0.000000 0.000000 0.000000 0.000000 -0.019558 0.000000
# 6 0.000000 0.000000 0.000000 0.000000 0.000000 -0.192427
#
#
# Mechanical properties :
#
#
# Convention : Reuss Voigt Hill
#
# Bulk Modulus (GPa) = 55.87607 57.67733 56.77670
# Shear Modulus (GPa) = -17.31141 0.84699 -8.23221
#
# Velocity S-wave (km/s) = -2.76925 0.61254 -1.90965
# Velocity P-wave (km/s) = 3.81149 5.10398 4.50434
#
# Compressibility (1/GPa) = 0.01789675
#
# Stress axis : x y z
#
# Youngs Moduli (GPa) = 71.33359 89.66602 92.35306
#
# Poissons Ratio (x) = 0.29893 0.21461
# Poissons Ratio (y) = 0.23781 0.31341
# Poissons Ratio (z) = 0.16577 0.30429
#
# Static dielectric constant tensor:
#      x y z
#    x 1.899800 0.000000 0.000000 
#    y 0.000000 1.937340 0.000000 
#    z 0.000000 0.000000 1.715110 
# 
# From -- ./inp_files/17531.got.cif
#   From: 2010.05.17/outbox.cif.g08.bks.cpg/sg68_9_cif.got.tgz:17531.got - 2010.06.03 18:57:09.
