data_PCOD9509447
_publ_section_title
;
Structure prediction by ZEFSAII (Michael W. Deem and Ramdas Pophale) SiO2 
 PCOD9509447
Probable space group: C C C A
;
_chemical_formula_sum "Si O2"
_cell_formula_units_Z 56
_cell_length_a 27.571102
_cell_length_b 9.696563
_cell_length_c 8.111747
_cell_angle_alpha 90.000000
_cell_angle_beta 90.000000
_cell_angle_gamma 90.000000
_cell_volume 2168.634414
_symmetry_space_group_name_H-M "C C C A"
_symmetry_group_IT_number 68
_space_group.IT_coordinate_system_code '2'
_symmetry_cell_setting 'orthorhombic'
loop_
_space_group_symop_operation_xyz
x,y,z
-x,1/2-y,z
x,1/2-y,1/2-z
-x,y,1/2-z
-x,-y,-z
x,1/2+y,-z
-x,1/2+y,1/2+z
x,-y,1/2+z
1/2+x,1/2+y,z
1/2-x,-y,z
1/2+x,-y,1/2-z
1/2-x,1/2+y,1/2-z
1/2-x,1/2-y,-z
1/2+x,y,-z
1/2-x,y,1/2+z
1/2+x,1/2-y,1/2+z
loop_
_atom_site_type_symbol
_atom_site_label
_atom_site_fract_x
_atom_site_fract_y
_atom_site_fract_z
Si Si1 0.301843 0.840068 0.584293
Si Si2 0.444954 0.046120 0.311733
Si Si3 0.750000 0.500000 0.816174
Si Si4 0.092584 0.203632 0.500311
O O1 0.299315 0.750000 0.750000
O O2 0.263878 0.875004 0.438730
O O3 0.349692 0.788728 0.490558
O O4 0.295618 0.983391 0.691269
O O5 0.500000 0.054240 0.250000
O O6 0.434627 0.152853 0.462671
O O7 0.430128 0.892667 0.360763
O O8 0.413815 0.111602 0.165976
#
# Coordination Sequence:
#
# PCOD9509447 Si02
#       4
#    16  16   8  16
#     4  11  21  41  64  95 136 176 232 276 348 399
#     4  11  24  44  68 100 133 175 226 284 350 409
#     4  10  24  38  64  98 134 184 226 288 332 416
#     4  11  23  43  69  97 138 178 225 289 337 419
#
# _framework density 25.822704000000002
#
# number of rings (size 3 to 8) (size 9 to 14) (size 15 to 20)
#    0.000    1.143    2.857    5.143    0.000    1.143 
#    0.000    2.857    0.000    0.000    0.000    0.000 
#    0.000    0.000    0.000    0.000    0.000    0.000 
#
# Total GULP energy -156050.899654 kJ/mol
# GULP energy per Si atom -5573.246416 kJ/mol
# Density = 2.576393 g / cm^3
# Si number density = 25.822704 Si / 1000 Ang^3
#
#
#
# Elastic Constant Matrix: (Units=GPa)
#
#
# Indices 1 2 3 4 5 6 
#
# 1 146.5700 34.6572 22.1859 0.0000 0.0000 0.0000
# 2 34.6572 92.8620 18.8279 0.0000 0.0000 0.0000
# 3 22.1859 18.8279 44.2162 0.0000 0.0000 0.0000
# 4 0.0000 0.0000 0.0000 26.7859 0.0000 0.0000
# 5 0.0000 0.0000 0.0000 0.0000 71.1105 0.0000
# 6 0.0000 0.0000 0.0000 0.0000 0.0000 -133.8440
#
#
#
# Elastic Compliance Matrix: (Units=1/GPa)
#
#
# Indices 1 2 3 4 5 6 
#
# 1 0.007816 -0.002322 -0.002933 0.000000 0.000000 0.000000
# 2 -0.002322 0.012476 -0.004147 0.000000 0.000000 0.000000
# 3 -0.002933 -0.004147 0.025854 0.000000 0.000000 0.000000
# 4 0.000000 0.000000 0.000000 0.037333 0.000000 0.000000
# 5 0.000000 0.000000 0.000000 0.000000 0.014063 0.000000
# 6 0.000000 0.000000 0.000000 0.000000 0.000000 -0.007471
#
#
# Mechanical properties :
#
#
# Convention : Reuss Voigt Hill
#
# Bulk Modulus (GPa) = 36.57529 48.33227 42.45378
# Shear Modulus (GPa) = 42.37706 6.67561 24.52634
#
# Velocity S-wave (km/s) = 4.05542 1.60959 3.08522
# Velocity P-wave (km/s) = 6.01027 4.71296 5.40071
#
# Compressibility (1/GPa) = 0.02734086
#
# Stress axis : x y z
#
# Youngs Moduli (GPa) = 127.94722 80.15226 38.67925
#
# Poissons Ratio (x) = 0.18614 0.11344
# Poissons Ratio (y) = 0.29713 0.16042
# Poissons Ratio (z) = 0.37524 0.33242
#
# Static dielectric constant tensor:
#      x y z
#    x 2.105430 0.000000 0.000000 
#    y 0.000000 2.248610 0.000000 
#    z 0.000000 0.000000 2.029290 
# 
# From -- ./inp_files/9303.got.cif
#   From: 2010.05.17/outbox.cif.g08.bks.cpg/sg68_5_cif.got.tgz:9303.got - 2010.06.03 18:57:09.
