data_PCOD9509327
_publ_section_title
;
Structure prediction by ZEFSAII (Michael W. Deem and Ramdas Pophale) SiO2 
 PCOD9509327
Probable space group: C C C A
;
_chemical_formula_sum "Si O2"
_cell_formula_units_Z 64
_cell_length_a 24.104438
_cell_length_b 10.154440
_cell_length_c 11.093098
_cell_angle_alpha 90.000000
_cell_angle_beta 90.000000
_cell_angle_gamma 90.000000
_cell_volume 2715.225088
_symmetry_space_group_name_H-M "C C C A"
_symmetry_group_IT_number 68
_space_group.IT_coordinate_system_code '2'
_symmetry_cell_setting 'orthorhombic'
loop_
_space_group_symop_operation_xyz
x,y,z
-x,1/2-y,z
x,1/2-y,1/2-z
-x,y,1/2-z
-x,-y,-z
x,1/2+y,-z
-x,1/2+y,1/2+z
x,-y,1/2+z
1/2+x,1/2+y,z
1/2-x,-y,z
1/2+x,-y,1/2-z
1/2-x,1/2+y,1/2-z
1/2-x,1/2-y,-z
1/2+x,y,-z
1/2-x,y,1/2+z
1/2+x,1/2-y,1/2+z
loop_
_atom_site_type_symbol
_atom_site_label
_atom_site_fract_x
_atom_site_fract_y
_atom_site_fract_z
Si Si1 0.841165 0.255984 0.971624
Si Si2 0.500000 0.058779 0.250000
Si Si3 0.408956 0.750000 0.750000
Si Si4 0.308670 0.472100 0.651632
Si Si5 0.588660 0.376398 0.679116
O O1 0.870783 0.192297 0.855345
O O2 0.814572 0.388513 0.916835
O O3 0.808967 0.147501 0.052372
O O4 0.886265 0.318781 0.059111
O O5 0.548059 0.147193 0.191444
O O6 0.537114 0.972629 0.338558
O O7 0.250000 0.500000 0.718506
O O8 0.360038 0.434946 0.739392
O O9 0.567014 0.250000 0.750000
#
# Coordination Sequence:
#
# PCOD9509327 Si02
#       5
#    16   8   8  16  16
#     4  11  24  47  69 104 143 186 241 296 360 429
#     4  11  21  44  64 100 135 183 236 284 354 419
#     4  11  24  42  68 100 140 182 234 293 350 429
#     4  11  24  45  72 101 139 185 237 295 359 430
#     4  10  23  44  66 100 138 180 237 293 358 417
#
# _framework density 23.570789999999999
#
# number of rings (size 3 to 8) (size 9 to 14) (size 15 to 20)
#    0.000    1.250    2.500    2.625    0.000    2.000 
#   24.750    0.000    0.000    0.000    0.000    0.000 
#    0.000    0.000    0.000    0.000    0.000    0.000 
#
# Total GULP energy -178347.437982 kJ/mol
# GULP energy per Si atom -5573.357437 kJ/mol
# Density = 2.351714 g / cm^3
# Si number density = 23.570790 Si / 1000 Ang^3
#
#
#
# Elastic Constant Matrix: (Units=GPa)
#
#
# Indices 1 2 3 4 5 6 
#
# 1 47.5318 29.6896 27.7415 0.0000 0.0000 0.0000
# 2 29.6896 119.1780 18.0245 0.0000 0.0000 0.0000
# 3 27.7415 18.0245 86.4176 0.0000 0.0000 0.0000
# 4 0.0000 0.0000 0.0000 28.2230 0.0000 0.0000
# 5 0.0000 0.0000 0.0000 0.0000 -1.4327 0.0000
# 6 0.0000 0.0000 0.0000 0.0000 0.0000 -34.0685
#
#
#
# Elastic Compliance Matrix: (Units=1/GPa)
#
#
# Indices 1 2 3 4 5 6 
#
# 1 0.029695 -0.006150 -0.008250 0.000000 0.000000 0.000000
# 2 -0.006150 0.009938 -0.000099 0.000000 0.000000 0.000000
# 3 -0.008250 -0.000099 0.014241 0.000000 0.000000 0.000000
# 4 0.000000 0.000000 0.000000 0.035432 0.000000 0.000000
# 5 0.000000 0.000000 0.000000 0.000000 -0.697963 0.000000
# 6 0.000000 0.000000 0.000000 0.000000 0.000000 -0.029353
#
#
# Mechanical properties :
#
#
# Convention : Reuss Voigt Hill
#
# Bulk Modulus (GPa) = 40.19824 44.89319 42.54571
# Shear Modulus (GPa) = -8.32333 10.38912 1.03290
#
# Velocity S-wave (km/s) = -1.88119 2.10171 0.66269
# Velocity P-wave (km/s) = 3.51750 4.99770 4.32145
#
# Compressibility (1/GPa) = 0.02487671
#
# Stress axis : x y z
#
# Youngs Moduli (GPa) = 33.67578 100.62611 70.22164
#
# Poissons Ratio (x) = 0.61884 0.57932
# Poissons Ratio (y) = 0.20710 0.00692
# Poissons Ratio (z) = 0.27782 0.00992
#
# Static dielectric constant tensor:
#      x y z
#    x 1.916870 0.000000 0.000000 
#    y 0.000000 1.447860 0.000000 
#    z 0.000000 0.000000 1.855690 
# 
# From -- ./inp_files/16114.got.cif
#   From: 2010.05.17/outbox.cif.g08.bks.cpg/sg68_9_cif.got.tgz:16114.got - 2010.06.03 18:57:09.
