data_PCOD9509537
_publ_section_title
;
Structure prediction by ZEFSAII (Michael W. Deem and Ramdas Pophale) SiO2 
 PCOD9509537
Probable space group: C C C A
;
_chemical_formula_sum "Si O2"
_cell_formula_units_Z 56
_cell_length_a 5.832917
_cell_length_b 14.802518
_cell_length_c 28.700020
_cell_angle_alpha 90.000000
_cell_angle_beta 90.000000
_cell_angle_gamma 90.000000
_cell_volume 2478.013077
_symmetry_space_group_name_H-M "C C C A"
_symmetry_group_IT_number 68
_space_group.IT_coordinate_system_code '2'
_symmetry_cell_setting 'orthorhombic'
loop_
_space_group_symop_operation_xyz
x,y,z
-x,1/2-y,z
x,1/2-y,1/2-z
-x,y,1/2-z
-x,-y,-z
x,1/2+y,-z
-x,1/2+y,1/2+z
x,-y,1/2+z
1/2+x,1/2+y,z
1/2-x,-y,z
1/2+x,-y,1/2-z
1/2-x,1/2+y,1/2-z
1/2-x,1/2-y,-z
1/2+x,y,-z
1/2-x,y,1/2+z
1/2+x,1/2-y,1/2+z
loop_
_atom_site_type_symbol
_atom_site_label
_atom_site_fract_x
_atom_site_fract_y
_atom_site_fract_z
Si Si1 0.842445 0.899210 0.705735
Si Si2 0.000000 0.750000 0.322392
Si Si3 0.125073 0.843864 0.617260
Si Si4 0.273021 0.603017 0.484802
O O1 0.659078 0.818916 0.705156
O O2 0.000000 0.881059 0.750000
O O3 0.970982 0.893281 0.655935
O O4 0.750000 0.000000 0.711074
O O5 0.150025 0.685983 0.355338
O O6 0.182509 0.895779 0.570416
O O7 0.000000 0.750000 0.603951
O O8 0.250000 0.500000 0.502973
O O9 0.514790 0.641882 0.505667
#
# Coordination Sequence:
#
# PCOD9509537 Si02
#       4
#    16   8  16  16
#     4  11  28  47  73 109 141 195 247 300 378 452
#     4  10  26  49  70 102 148 184 242 312 365 450
#     4  10  25  45  70 103 138 191 237 304 373 434
#     4  10  24  42  69 105 143 190 246 305 371 443
#
# _framework density 22.598749000000002
#
# number of rings (size 3 to 8) (size 9 to 14) (size 15 to 20)
#    0.000    1.714    0.000    0.000   16.000    8.571 
#    0.000    0.000    0.000    0.000    0.000    0.000 
#    0.000    0.000    0.000    0.000    0.000    0.000 
#
# Total GULP energy -156489.020480 kJ/mol
# GULP energy per Si atom -5588.893589 kJ/mol
# Density = 2.254731 g / cm^3
# Si number density = 22.598749 Si / 1000 Ang^3
#
#
#
# Elastic Constant Matrix: (Units=GPa)
#
#
# Indices 1 2 3 4 5 6 
#
# 1 178.5937 44.2881 82.2544 0.0000 0.0000 0.0000
# 2 44.2881 67.8226 48.6362 0.0000 0.0000 0.0000
# 3 82.2544 48.6362 134.3455 0.0000 0.0000 0.0000
# 4 0.0000 0.0000 0.0000 42.3292 0.0000 0.0000
# 5 0.0000 0.0000 0.0000 0.0000 37.6520 0.0000
# 6 0.0000 0.0000 0.0000 0.0000 0.0000 3.7249
#
#
#
# Elastic Compliance Matrix: (Units=1/GPa)
#
#
# Indices 1 2 3 4 5 6 
#
# 1 0.008062 -0.002330 -0.004093 0.000000 0.000000 0.000000
# 2 -0.002330 0.020587 -0.006027 0.000000 0.000000 0.000000
# 3 -0.004093 -0.006027 0.012131 0.000000 0.000000 0.000000
# 4 0.000000 0.000000 0.000000 0.023624 0.000000 0.000000
# 5 0.000000 0.000000 0.000000 0.000000 0.026559 0.000000
# 6 0.000000 0.000000 0.000000 0.000000 0.000000 0.268460
#
#
# Mechanical properties :
#
#
# Convention : Reuss Voigt Hill
#
# Bulk Modulus (GPa) = 62.96275 81.23547 72.09911
# Shear Modulus (GPa) = 12.83314 30.44677 21.63996
#
# Velocity S-wave (km/s) = 2.38559 3.67451 3.09782
# Velocity P-wave (km/s) = 5.95900 7.35035 6.69094
#
# Compressibility (1/GPa) = 0.01588241
#
# Stress axis : x y z
#
# Youngs Moduli (GPa) = 124.03969 48.57330 82.43267
#
# Poissons Ratio (x) = 0.11315 0.33737
# Poissons Ratio (y) = 0.28896 0.49681
# Poissons Ratio (z) = 0.50765 0.29274
#
# Static dielectric constant tensor:
#      x y z
#    x 1.895850 0.000000 0.000000 
#    y 0.000000 1.793790 0.000000 
#    z 0.000000 0.000000 1.772030 
# 
# From -- ./inp_files/47998.got.cif
#   From: 2010.05.17/outbox.cif.g08.bks.cpg/sg68_24_cif.got.tgz:47998.got - 2010.06.03 18:57:09.
