data_PCOD9509080
_publ_section_title
;
Structure prediction by ZEFSAII (Michael W. Deem and Ramdas Pophale) SiO2 
 PCOD9509080
Probable space group: C C C A
;
_chemical_formula_sum "Si O2"
_cell_formula_units_Z 96
_cell_length_a 13.740680
_cell_length_b 14.183811
_cell_length_c 23.752596
_cell_angle_alpha 90.000000
_cell_angle_beta 90.000000
_cell_angle_gamma 90.000000
_cell_volume 4629.267141
_symmetry_space_group_name_H-M "C C C A"
_symmetry_group_IT_number 68
_space_group.IT_coordinate_system_code '2'
_symmetry_cell_setting 'orthorhombic'
loop_
_space_group_symop_operation_xyz
x,y,z
-x,1/2-y,z
x,1/2-y,1/2-z
-x,y,1/2-z
-x,-y,-z
x,1/2+y,-z
-x,1/2+y,1/2+z
x,-y,1/2+z
1/2+x,1/2+y,z
1/2-x,-y,z
1/2+x,-y,1/2-z
1/2-x,1/2+y,1/2-z
1/2-x,1/2-y,-z
1/2+x,y,-z
1/2-x,y,1/2+z
1/2+x,1/2-y,1/2+z
loop_
_atom_site_type_symbol
_atom_site_label
_atom_site_fract_x
_atom_site_fract_y
_atom_site_fract_z
Si Si1 0.250000 0.500000 0.565676
Si Si2 0.187911 0.842317 0.019050
Si Si3 0.500000 0.250000 0.428775
Si Si4 0.744255 0.145624 0.359201
Si Si5 0.152778 0.348245 0.642372
Si Si6 0.882153 0.061861 0.756829
Si Si7 0.613171 0.147165 0.767493
O O1 0.193036 0.575769 0.527213
O O2 0.186167 0.436841 0.606738
O O3 0.231433 0.885898 0.076849
O O4 0.081142 0.802403 0.034170
O O5 0.250000 0.750000 0.000000
O O6 0.449095 0.178270 0.385976
O O7 0.719018 0.256154 0.364321
O O8 0.667404 0.096821 0.315394
O O9 0.851268 0.136078 0.332056
O O10 0.150829 0.369769 0.707715
O O11 0.000000 0.063650 0.750000
O O12 0.852306 0.953471 0.743403
O O13 0.653014 0.250000 0.750000
O O14 0.500000 0.150222 0.750000
#
# Coordination Sequence:
#
# PCOD9509080 Si02
#       7
#     8  16   8  16  16  16  16
#     4  12  26  44  72 102 136 192 236 290 358 414
#     4  11  24  48  70 103 140 184 241 291 345 414
#     4  10  22  48  73 102 142 181 234 294 350 418
#     4  11  23  41  70  95 133 180 220 283 346 407
#     4  11  24  42  72 100 139 174 229 293 354 416
#     4  11  23  39  66 103 131 172 227 279 349 419
#     4  10  23  40  58  92 139 174 218 272 337 417
#
# _framework density 20.737622999999999
#
# number of rings (size 3 to 8) (size 9 to 14) (size 15 to 20)
#    0.000    1.167    3.333    4.000    7.000    1.333 
#    0.000    1.667    0.000    0.000    0.000    0.000 
#    0.000    0.000    0.000    0.000    0.000    0.000 
#
# Total GULP energy -267643.329022 kJ/mol
# GULP energy per Si atom -5575.902688 kJ/mol
# Density = 2.069042 g / cm^3
# Si number density = 20.737623 Si / 1000 Ang^3
#
#
#
# Elastic Constant Matrix: (Units=GPa)
#
#
# Indices 1 2 3 4 5 6 
#
# 1 107.2477 26.3909 35.3324 0.0000 0.0000 0.0000
# 2 26.3909 131.4067 27.0456 0.0000 0.0000 0.0000
# 3 35.3324 27.0456 95.0525 0.0000 0.0000 0.0000
# 4 0.0000 0.0000 0.0000 36.6583 0.0000 0.0000
# 5 0.0000 0.0000 0.0000 0.0000 23.5010 0.0000
# 6 0.0000 0.0000 0.0000 0.0000 0.0000 33.6519
#
#
#
# Elastic Compliance Matrix: (Units=1/GPa)
#
#
# Indices 1 2 3 4 5 6 
#
# 1 0.010875 -0.001436 -0.003634 0.000000 0.000000 0.000000
# 2 -0.001436 0.008273 -0.001820 0.000000 0.000000 0.000000
# 3 -0.003634 -0.001820 0.012389 0.000000 0.000000 0.000000
# 4 0.000000 0.000000 0.000000 0.027279 0.000000 0.000000
# 5 0.000000 0.000000 0.000000 0.000000 0.042551 0.000000
# 6 0.000000 0.000000 0.000000 0.000000 0.000000 0.029716
#
#
# Mechanical properties :
#
#
# Convention : Reuss Voigt Hill
#
# Bulk Modulus (GPa) = 56.31598 56.80497 56.56048
# Shear Modulus (GPa) = 33.16046 35.09142 34.12594
#
# Velocity S-wave (km/s) = 4.00315 4.11805 4.06101
# Velocity P-wave (km/s) = 6.97010 7.07551 7.02300
#
# Compressibility (1/GPa) = 0.01775695
#
# Stress axis : x y z
#
# Youngs Moduli (GPa) = 91.95654 120.87517 80.71638
#
# Poissons Ratio (x) = 0.17359 0.29330
# Poissons Ratio (y) = 0.13206 0.14691
# Poissons Ratio (z) = 0.33414 0.22001
#
# Static dielectric constant tensor:
#      x y z
#    x 1.799700 0.000000 0.000000 
#    y 0.000000 1.738200 0.000000 
#    z 0.000000 0.000000 1.785680 
# 
# From -- ./inp_files/38637.got.cif
#   From: 2010.05.17/outbox.cif.g08.bks.cpg/sg68_20_cif.got.tgz:38637.got - 2010.06.03 18:57:09.
