data_PCOD9509348
_publ_section_title
;
Structure prediction by ZEFSAII (Michael W. Deem and Ramdas Pophale) SiO2 
 PCOD9509348
Probable space group: C C C A
;
_chemical_formula_sum "Si O2"
_cell_formula_units_Z 104
_cell_length_a 9.345991
_cell_length_b 26.176439
_cell_length_c 19.455420
_cell_angle_alpha 90.000000
_cell_angle_beta 90.000000
_cell_angle_gamma 90.000000
_cell_volume 4759.666621
_symmetry_space_group_name_H-M "C C C A"
_symmetry_group_IT_number 68
_space_group.IT_coordinate_system_code '2'
_symmetry_cell_setting 'orthorhombic'
loop_
_space_group_symop_operation_xyz
x,y,z
-x,1/2-y,z
x,1/2-y,1/2-z
-x,y,1/2-z
-x,-y,-z
x,1/2+y,-z
-x,1/2+y,1/2+z
x,-y,1/2+z
1/2+x,1/2+y,z
1/2-x,-y,z
1/2+x,-y,1/2-z
1/2-x,1/2+y,1/2-z
1/2-x,1/2-y,-z
1/2+x,y,-z
1/2-x,y,1/2+z
1/2+x,1/2-y,1/2+z
loop_
_atom_site_type_symbol
_atom_site_label
_atom_site_fract_x
_atom_site_fract_y
_atom_site_fract_z
Si Si1 0.000000 0.828041 0.750000
Si Si2 0.034679 0.404184 0.140727
Si Si3 0.000000 0.250000 0.997687
Si Si4 0.141432 0.148423 0.041208
Si Si5 0.584551 0.983899 0.682403
Si Si6 0.759338 0.750000 0.750000
Si Si7 0.145727 0.618268 0.115099
Si Si8 0.617847 0.188377 0.374530
O O1 0.950127 0.866288 0.809023
O O2 0.128490 0.792607 0.776568
O O3 0.015182 0.463104 0.157722
O O4 0.199770 0.387822 0.149971
O O5 0.979894 0.390563 0.065702
O O6 0.105113 0.276407 0.942779
O O7 0.072411 0.205342 0.041425
O O8 0.272733 0.146929 0.094157
O O9 0.176363 0.134608 0.963130
O O10 0.500000 0.966298 0.750000
O O11 0.581449 0.938243 0.627231
O O12 0.750000 0.000000 0.696887
O O13 0.671523 0.722311 0.689290
O O14 0.032647 0.660516 0.141606
#
# Coordination Sequence:
#
# PCOD9509348 Si02
#       8
#     8  16   8  16  16   8  16  16
#     4  11  24  42  66  94 130 178 226 271 328 402
#     4  11  23  44  70  95 134 175 226 270 337 411
#     4  10  24  39  62  93 130 180 218 276 332 386
#     4  11  23  43  68  94 133 182 230 267 330 412
#     4  10  23  44  69  99 130 174 219 279 345 405
#     4  11  26  41  64 100 129 179 224 276 339 401
#     4  10  24  43  67 100 134 174 219 288 340 393
#     4  11  24  43  64  98 133 176 220 284 334 401
#
# _framework density 21.850269000000001
#
# number of rings (size 3 to 8) (size 9 to 14) (size 15 to 20)
#    0.000    1.385    2.308    2.308    6.462    4.615 
#    0.000    1.538    0.000    0.000    0.000    0.000 
#    0.000    0.000    0.000    0.000    0.000    0.000 
#
# Total GULP energy -290228.527757 kJ/mol
# GULP energy per Si atom -5581.317841 kJ/mol
# Density = 2.180054 g / cm^3
# Si number density = 21.850269 Si / 1000 Ang^3
#
#
#
# Elastic Constant Matrix: (Units=GPa)
#
#
# Indices 1 2 3 4 5 6 
#
# 1 55.7284 13.1116 22.3647 0.0000 0.0000 0.0000
# 2 13.1116 93.3781 15.6066 0.0000 0.0000 0.0000
# 3 22.3647 15.6066 40.7955 0.0000 0.0000 0.0000
# 4 0.0000 0.0000 0.0000 -152.0508 0.0000 0.0000
# 5 0.0000 0.0000 0.0000 0.0000 23.0859 0.0000
# 6 0.0000 0.0000 0.0000 0.0000 0.0000 17.1367
#
#
#
# Elastic Compliance Matrix: (Units=1/GPa)
#
#
# Indices 1 2 3 4 5 6 
#
# 1 0.023132 -0.001206 -0.012220 0.000000 0.000000 0.000000
# 2 -0.001206 0.011503 -0.003740 0.000000 0.000000 0.000000
# 3 -0.012220 -0.003740 0.032642 0.000000 0.000000 0.000000
# 4 0.000000 0.000000 0.000000 -0.006577 0.000000 0.000000
# 5 0.000000 0.000000 0.000000 0.000000 0.043316 0.000000
# 6 0.000000 0.000000 0.000000 0.000000 0.000000 0.058354
#
#
# Mechanical properties :
#
#
# Convention : Reuss Voigt Hill
#
# Bulk Modulus (GPa) = 30.35191 32.45198 31.40195
# Shear Modulus (GPa) = 24.07490 -13.11105 5.48193
#
# Velocity S-wave (km/s) = 3.32296 -2.45223 1.58566
# Velocity P-wave (km/s) = 5.35199 2.62037 4.21367
#
# Compressibility (1/GPa) = 0.03294686
#
# Stress axis : x y z
#
# Youngs Moduli (GPa) = 43.23027 86.93013 30.63497
#
# Poissons Ratio (x) = 0.10481 0.37436
# Poissons Ratio (y) = 0.05212 0.11457
# Poissons Ratio (z) = 0.52828 0.32510
#
# Static dielectric constant tensor:
#      x y z
#    x 1.945510 0.000000 0.000000 
#    y 0.000000 1.817090 0.000000 
#    z 0.000000 0.000000 1.825040 
# 
# From -- ./inp_files/36630.got.cif
#   From: 2010.05.17/outbox.cif.g08.bks.cpg/sg68_19_cif.got.tgz:36630.got - 2010.06.03 18:57:09.
