data_PCOD9509066
_publ_section_title
;
Structure prediction by ZEFSAII (Michael W. Deem and Ramdas Pophale) SiO2 
 PCOD9509066
Probable space group: C C C A
;
_chemical_formula_sum "Si O2"
_cell_formula_units_Z 104
_cell_length_a 27.928729
_cell_length_b 9.358447
_cell_length_c 20.452539
_cell_angle_alpha 90.000000
_cell_angle_beta 90.000000
_cell_angle_gamma 90.000000
_cell_volume 5345.670508
_symmetry_space_group_name_H-M "C C C A"
_symmetry_group_IT_number 68
_space_group.IT_coordinate_system_code '2'
_symmetry_cell_setting 'orthorhombic'
loop_
_space_group_symop_operation_xyz
x,y,z
-x,1/2-y,z
x,1/2-y,1/2-z
-x,y,1/2-z
-x,-y,-z
x,1/2+y,-z
-x,1/2+y,1/2+z
x,-y,1/2+z
1/2+x,1/2+y,z
1/2-x,-y,z
1/2+x,-y,1/2-z
1/2-x,1/2+y,1/2-z
1/2-x,1/2-y,-z
1/2+x,y,-z
1/2-x,y,1/2+z
1/2+x,1/2-y,1/2+z
loop_
_atom_site_type_symbol
_atom_site_label
_atom_site_fract_x
_atom_site_fract_y
_atom_site_fract_z
Si Si1 0.587193 0.750000 0.750000
Si Si2 0.115896 0.551544 0.130825
Si Si3 0.370804 0.271861 0.823055
Si Si4 0.536548 0.526483 0.193057
Si Si5 0.280860 0.855493 0.090806
Si Si6 0.515303 0.916149 0.565156
Si Si7 0.712502 0.374145 0.441067
O O1 0.613758 0.659030 0.806758
O O2 0.555640 0.628594 0.715508
O O3 0.114902 0.385782 0.152026
O O4 0.071294 0.581107 0.083211
O O5 0.164288 0.577468 0.091996
O O6 0.351557 0.250000 0.750000
O O7 0.418199 0.370005 0.817661
O O8 0.328426 0.341408 0.866032
O O9 0.500000 0.576281 0.250000
O O10 0.509296 0.498133 0.125768
O O11 0.240441 0.737640 0.103952
O O12 0.250000 0.000000 0.095854
O O13 0.296565 0.824117 0.015493
O O14 0.500000 0.750000 0.561766
O O15 0.500000 0.000000 0.500000
O O16 0.750000 0.500000 0.448780
#
# Coordination Sequence:
#
# PCOD9509066 Si02
#       7
#     8  16  16  16  16  16  16
#     4  12  23  48  72  96 130 190 236 278 343 422
#     4  12  26  45  72 100 141 183 235 288 349 418
#     4  12  26  45  68 108 139 179 234 288 348 412
#     4  12  24  48  73  95 140 188 233 279 348 425
#     4  10  24  44  71 102 136 182 233 278 347 421
#     4  12  28  45  67 107 141 181 235 293 353 415
#     4  10  22  47  71  97 139 185 227 281 350 415
#
# _framework density 19.454996000000001
#
# number of rings (size 3 to 8) (size 9 to 14) (size 15 to 20)
#    0.000    0.615    6.154    0.231    6.462    1.538 
#    4.154    0.000    0.000    0.000    0.000    0.000 
#    0.000    0.000    0.000    0.000    0.000    0.000 
#
# Total GULP energy -290458.699642 kJ/mol
# GULP energy per Si atom -5585.744224 kJ/mol
# Density = 1.941072 g / cm^3
# Si number density = 19.454996 Si / 1000 Ang^3
#
#
#
# Elastic Constant Matrix: (Units=GPa)
#
#
# Indices 1 2 3 4 5 6 
#
# 1 170.1565 69.6412 87.3119 0.0000 0.0000 0.0000
# 2 69.6412 121.9280 35.1180 0.0000 0.0000 0.0000
# 3 87.3119 35.1180 130.3730 0.0000 0.0000 0.0000
# 4 0.0000 0.0000 0.0000 40.7614 0.0000 0.0000
# 5 0.0000 0.0000 0.0000 0.0000 40.2728 0.0000
# 6 0.0000 0.0000 0.0000 0.0000 0.0000 28.4932
#
#
#
# Elastic Compliance Matrix: (Units=1/GPa)
#
#
# Indices 1 2 3 4 5 6 
#
# 1 0.010780 -0.004421 -0.006028 0.000000 0.000000 0.000000
# 2 -0.004421 0.010704 0.000077 0.000000 0.000000 0.000000
# 3 -0.006028 0.000077 0.011687 0.000000 0.000000 0.000000
# 4 0.000000 0.000000 0.000000 0.024533 0.000000 0.000000
# 5 0.000000 0.000000 0.000000 0.000000 0.024831 0.000000
# 6 0.000000 0.000000 0.000000 0.000000 0.000000 0.035096
#
#
# Mechanical properties :
#
#
# Convention : Reuss Voigt Hill
#
# Bulk Modulus (GPa) = 80.47064 89.62219 85.04642
# Shear Modulus (GPa) = 35.08373 37.26457 36.17415
#
# Velocity S-wave (km/s) = 4.25117 4.38130 4.31673
# Velocity P-wave (km/s) = 8.09622 8.47118 8.28582
#
# Compressibility (1/GPa) = 0.01242689
#
# Stress axis : x y z
#
# Youngs Moduli (GPa) = 92.76857 93.42096 85.56686
#
# Poissons Ratio (x) = 0.41298 0.51583
# Poissons Ratio (y) = 0.41009 -0.00660
# Poissons Ratio (z) = 0.55924 -0.00721
#
# Static dielectric constant tensor:
#      x y z
#    x 1.653280 0.000000 0.000000 
#    y 0.000000 1.758190 0.000000 
#    z 0.000000 0.000000 1.710590 
# 
# From -- ./inp_files/41332.got.cif
#   From: 2010.05.17/outbox.cif.g08.bks.cpg/sg68_21_cif.got.tgz:41332.got - 2010.06.03 18:57:09.
