data_PCOD9509491
_publ_section_title
;
Structure prediction by ZEFSAII (Michael W. Deem and Ramdas Pophale) SiO2 
 PCOD9509491
Probable space group: C C C A
;
_chemical_formula_sum "Si O2"
_cell_formula_units_Z 52
_cell_length_a 15.073114
_cell_length_b 9.169803
_cell_length_c 19.155880
_cell_angle_alpha 90.000000
_cell_angle_beta 90.000000
_cell_angle_gamma 90.000000
_cell_volume 2647.677575
_symmetry_space_group_name_H-M "C C C A"
_symmetry_group_IT_number 68
_space_group.IT_coordinate_system_code '2'
_symmetry_cell_setting 'orthorhombic'
loop_
_space_group_symop_operation_xyz
x,y,z
-x,1/2-y,z
x,1/2-y,1/2-z
-x,y,1/2-z
-x,-y,-z
x,1/2+y,-z
-x,1/2+y,1/2+z
x,-y,1/2+z
1/2+x,1/2+y,z
1/2-x,-y,z
1/2+x,-y,1/2-z
1/2-x,1/2+y,1/2-z
1/2-x,1/2-y,-z
1/2+x,y,-z
1/2-x,y,1/2+z
1/2+x,1/2-y,1/2+z
loop_
_atom_site_type_symbol
_atom_site_label
_atom_site_fract_x
_atom_site_fract_y
_atom_site_fract_z
Si Si1 0.500000 0.250000 0.750000
Si Si2 0.164770 0.101043 0.564883
Si Si3 0.156375 0.556868 0.079752
Si Si4 0.516638 0.473888 0.174379
O O1 0.452902 0.362836 0.802077
O O2 0.175361 0.275155 0.559011
O O3 0.091012 0.087209 0.624413
O O4 0.250000 0.000000 0.583117
O O5 0.135180 0.034008 0.490581
O O6 0.250000 0.500000 0.109083
O O7 0.075792 0.533566 0.132765
O O8 0.500000 0.404049 0.250000
#
# Coordination Sequence:
#
# PCOD9509491 Si02
#       4
#     4  16  16  16
#     4   8  24  40  66  88 124 162 208 252 296 376
#     4  11  24  40  65  92 125 161 205 254 304 364
#     4  11  24  40  65  92 125 161 205 254 304 364
#     4  10  24  41  64  88 125 161 204 252 306 360
#
# _framework density 19.639854
#
# number of rings (size 3 to 8) (size 9 to 14) (size 15 to 20)
#    0.923    0.615    0.000    5.538    8.615    3.692 
#    0.000    0.000    0.000    0.000    0.000    0.000 
#    0.000    0.000    0.000    0.000    0.000    0.000 
#
# Total GULP energy -144755.613003 kJ/mol
# GULP energy per Si atom -5567.523577 kJ/mol
# Density = 1.959515 g / cm^3
# Si number density = 19.639854 Si / 1000 Ang^3
#
#
#
# Elastic Constant Matrix: (Units=GPa)
#
#
# Indices 1 2 3 4 5 6 
#
# 1 114.6935 31.5287 103.4314 0.0000 0.0000 0.0000
# 2 31.5287 159.7943 30.1211 0.0000 0.0000 0.0000
# 3 103.4314 30.1211 123.9627 0.0000 0.0000 0.0000
# 4 0.0000 0.0000 0.0000 1.5361 0.0000 0.0000
# 5 0.0000 0.0000 0.0000 0.0000 -29.3556 0.0000
# 6 0.0000 0.0000 0.0000 0.0000 0.0000 21.0614
#
#
#
# Elastic Compliance Matrix: (Units=1/GPa)
#
#
# Indices 1 2 3 4 5 6 
#
# 1 0.035556 -0.001492 -0.029305 0.000000 0.000000 0.000000
# 2 -0.001492 0.006621 -0.000364 0.000000 0.000000 0.000000
# 3 -0.029305 -0.000364 0.032606 0.000000 0.000000 0.000000
# 4 0.000000 0.000000 0.000000 0.650999 0.000000 0.000000
# 5 0.000000 0.000000 0.000000 0.000000 -0.034065 0.000000
# 6 0.000000 0.000000 0.000000 0.000000 0.000000 0.047480
#
#
# Mechanical properties :
#
#
# Convention : Reuss Voigt Hill
#
# Bulk Modulus (GPa) = 80.24018 80.95697 80.59857
# Shear Modulus (GPa) = 6.20599 14.20636 10.20617
#
# Velocity S-wave (km/s) = 1.77954 2.69242 2.28209
# Velocity P-wave (km/s) = 6.72063 7.13973 6.93335
#
# Compressibility (1/GPa) = 0.01246258
#
# Stress axis : x y z
#
# Youngs Moduli (GPa) = 28.12469 151.03437 30.66881
#
# Poissons Ratio (x) = 0.22528 0.89874
# Poissons Ratio (y) = 0.04195 0.01117
# Poissons Ratio (z) = 0.82418 0.05502
#
# Static dielectric constant tensor:
#      x y z
#    x 1.674870 0.000000 0.000000 
#    y 0.000000 1.768910 0.000000 
#    z 0.000000 0.000000 1.665030 
# 
# From -- ./inp_files/12619.got.cif
#   From: 2010.05.17/outbox.cif.g08.bks.cpg/sg68_7_cif.got.tgz:12619.got - 2010.06.03 18:57:09.
