data_PCOD9509669
_publ_section_title
;
Structure prediction by ZEFSAII (Michael W. Deem and Ramdas Pophale) SiO2 
 PCOD9509669
Probable space group: C C C A
;
_chemical_formula_sum "Si O2"
_cell_formula_units_Z 96
_cell_length_a 14.511372
_cell_length_b 14.607208
_cell_length_c 22.637664
_cell_angle_alpha 90.000000
_cell_angle_beta 90.000000
_cell_angle_gamma 90.000000
_cell_volume 4798.519881
_symmetry_space_group_name_H-M "C C C A"
_symmetry_group_IT_number 68
_space_group.IT_coordinate_system_code '2'
_symmetry_cell_setting 'orthorhombic'
loop_
_space_group_symop_operation_xyz
x,y,z
-x,1/2-y,z
x,1/2-y,1/2-z
-x,y,1/2-z
-x,-y,-z
x,1/2+y,-z
-x,1/2+y,1/2+z
x,-y,1/2+z
1/2+x,1/2+y,z
1/2-x,-y,z
1/2+x,-y,1/2-z
1/2-x,1/2+y,1/2-z
1/2-x,1/2-y,-z
1/2+x,y,-z
1/2-x,y,1/2+z
1/2+x,1/2-y,1/2+z
loop_
_atom_site_type_symbol
_atom_site_label
_atom_site_fract_x
_atom_site_fract_y
_atom_site_fract_z
Si Si1 0.554625 0.027365 0.838762
Si Si2 0.250000 0.000000 0.952135
Si Si3 0.000000 0.250000 0.072383
Si Si4 0.419931 0.939632 0.029513
Si Si5 0.155720 0.750000 0.250000
Si Si6 0.289601 0.103747 0.733367
Si Si7 0.636665 0.123385 0.637883
Si Si8 0.500000 0.375851 0.250000
O O1 0.595837 0.022226 0.904112
O O2 0.615335 0.099742 0.802156
O O3 0.449688 0.058177 0.846761
O O4 0.548546 0.937546 0.799080
O O5 0.300652 0.074374 0.910851
O O6 0.172267 0.048809 0.991800
O O7 0.040336 0.163438 0.036552
O O8 0.084692 0.288245 0.111804
O O9 0.500000 0.000000 0.000000
O O10 0.219419 0.681933 0.287743
O O11 0.081387 0.817337 0.280627
O O12 0.308047 0.130847 0.801284
O O13 0.250000 0.000000 0.730442
#
# Coordination Sequence:
#
# PCOD9509669 Si02
#       8
#    16   8   8  16   8  16  16   8
#     4  11  22  44  70  93 140 187 220 285 347 413
#     4  12  24  46  78  90 136 192 228 278 358 410
#     4  10  24  46  71 104 138 177 250 290 340 420
#     4  11  25  47  69 102 138 182 234 290 342 407
#     4  11  26  36  65 108 140 176 227 276 336 439
#     4  12  23  42  68 103 141 179 230 280 356 418
#     4  11  23  43  70  98 134 187 227 281 349 417
#     4  11  22  46  64  99 146 179 222 280 356 419
#
# _framework density 20.006169
#
# number of rings (size 3 to 8) (size 9 to 14) (size 15 to 20)
#    0.000    0.833    7.500    0.000    5.833    0.667 
#    0.000    1.667    3.667    0.000    0.000    0.000 
#    0.000    0.000    0.000    0.000    0.000    0.000 
#
# Total GULP energy -267799.063537 kJ/mol
# GULP energy per Si atom -5579.147157 kJ/mol
# Density = 1.996063 g / cm^3
# Si number density = 20.006169 Si / 1000 Ang^3
#
#
#
# Elastic Constant Matrix: (Units=GPa)
#
#
# Indices 1 2 3 4 5 6 
#
# 1 124.4078 57.5628 47.0289 0.0000 0.0000 0.0000
# 2 57.5628 126.2389 50.2901 0.0000 0.0000 0.0000
# 3 47.0289 50.2901 118.2547 0.0000 0.0000 0.0000
# 4 0.0000 0.0000 0.0000 9.2249 0.0000 0.0000
# 5 0.0000 0.0000 0.0000 0.0000 46.4275 0.0000
# 6 0.0000 0.0000 0.0000 0.0000 0.0000 51.9482
#
#
#
# Elastic Compliance Matrix: (Units=1/GPa)
#
#
# Indices 1 2 3 4 5 6 
#
# 1 0.010840 -0.003884 -0.002660 0.000000 0.000000 0.000000
# 2 -0.003884 0.010929 -0.003103 0.000000 0.000000 0.000000
# 3 -0.002660 -0.003103 0.010834 0.000000 0.000000 0.000000
# 4 0.000000 0.000000 0.000000 0.108402 0.000000 0.000000
# 5 0.000000 0.000000 0.000000 0.000000 0.021539 0.000000
# 6 0.000000 0.000000 0.000000 0.000000 0.000000 0.019250
#
#
# Mechanical properties :
#
#
# Convention : Reuss Voigt Hill
#
# Bulk Modulus (GPa) = 75.13085 75.40722 75.26903
# Shear Modulus (GPa) = 24.32818 35.78807 30.05812
#
# Velocity S-wave (km/s) = 3.49095 4.23407 3.88034
# Velocity P-wave (km/s) = 7.34060 7.85347 7.60136
#
# Compressibility (1/GPa) = 0.01331011
#
# Stress axis : x y z
#
# Youngs Moduli (GPa) = 92.24798 91.50384 92.30477
#
# Poissons Ratio (x) = 0.35536 0.24549
# Poissons Ratio (y) = 0.35825 0.28643
# Poissons Ratio (z) = 0.24534 0.28395
#
# Static dielectric constant tensor:
#      x y z
#    x 1.756220 0.000000 0.000000 
#    y 0.000000 1.754590 0.000000 
#    z 0.000000 0.000000 1.706980 
# 
# From -- ./inp_files/38656.got.cif
#   From: 2010.05.17/outbox.cif.g08.bks.cpg/sg68_20_cif.got.tgz:38656.got - 2010.06.03 18:57:09.
