data_PCOD9509760
_publ_section_title
;
Structure prediction by ZEFSAII (Michael W. Deem and Ramdas Pophale) SiO2 
 PCOD9509760
Probable space group: C C C A
;
_chemical_formula_sum "Si O2"
_cell_formula_units_Z 64
_cell_length_a 26.708317
_cell_length_b 8.434862
_cell_length_c 11.482989
_cell_angle_alpha 90.000000
_cell_angle_beta 90.000000
_cell_angle_gamma 90.000000
_cell_volume 2586.898879
_symmetry_space_group_name_H-M "C C C A"
_symmetry_group_IT_number 68
_space_group.IT_coordinate_system_code '2'
_symmetry_cell_setting 'orthorhombic'
loop_
_space_group_symop_operation_xyz
x,y,z
-x,1/2-y,z
x,1/2-y,1/2-z
-x,y,1/2-z
-x,-y,-z
x,1/2+y,-z
-x,1/2+y,1/2+z
x,-y,1/2+z
1/2+x,1/2+y,z
1/2-x,-y,z
1/2+x,-y,1/2-z
1/2-x,1/2+y,1/2-z
1/2-x,1/2-y,-z
1/2+x,y,-z
1/2-x,y,1/2+z
1/2+x,1/2-y,1/2+z
loop_
_atom_site_type_symbol
_atom_site_label
_atom_site_fract_x
_atom_site_fract_y
_atom_site_fract_z
Si Si1 0.159613 0.999330 0.923494
Si Si2 0.134272 0.250000 0.250000
Si Si3 0.069190 0.022996 0.093056
Si Si4 0.250000 0.000000 0.595002
Si Si5 0.309251 0.250000 0.250000
Si Si6 0.500000 0.250000 0.063003
O O1 0.156683 0.146065 0.835470
O O2 0.166828 0.842334 0.845596
O O3 0.111014 0.968608 0.000628
O O4 0.204905 0.042109 0.008474
O O5 0.098613 0.117757 0.192430
O O6 0.034479 0.145025 0.022430
O O7 0.035335 0.874291 0.130171
O O8 0.273954 0.866148 0.676253
#
# Coordination Sequence:
#
# PCOD9509760 Si02
#       6
#    16   8  16   8   8   8
#     4  12  27  48  77 114 156 198 257 320 377 473
#     4  12  26  48  82 111 160 209 254 313 405 454
#     4  11  24  49  75 114 156 202 257 328 378 465
#     4  12  28  52  76 112 154 198 258 320 376 476
#     4  12  28  47  78 112 154 210 254 304 405 452
#     4  10  24  49  77 108 156 200 260 328 386 442
#
# _framework density 24.740047000000001
#
# number of rings (size 3 to 8) (size 9 to 14) (size 15 to 20)
#    0.000    0.500    2.500    4.500    3.500    7.500 
#    0.000    1.250    0.000    0.000    0.000    0.000 
#    0.000    0.000    0.000    0.000    0.000    0.000 
#
# Total GULP energy -179544.329766 kJ/mol
# GULP energy per Si atom -5610.760305 kJ/mol
# Density = 2.468374 g / cm^3
# Si number density = 24.740047 Si / 1000 Ang^3
#
#
#
# Elastic Constant Matrix: (Units=GPa)
#
#
# Indices 1 2 3 4 5 6 
#
# 1 76.2353 22.7796 22.4278 0.0000 0.0000 0.0000
# 2 22.7796 132.3070 53.3779 0.0000 0.0000 0.0000
# 3 22.4278 53.3779 106.2393 0.0000 0.0000 0.0000
# 4 0.0000 0.0000 0.0000 83.6605 0.0000 0.0000
# 5 0.0000 0.0000 0.0000 0.0000 32.4685 0.0000
# 6 0.0000 0.0000 0.0000 0.0000 0.0000 59.7290
#
#
#
# Elastic Compliance Matrix: (Units=1/GPa)
#
#
# Indices 1 2 3 4 5 6 
#
# 1 0.014236 -0.001553 -0.002225 0.000000 0.000000 0.000000
# 2 -0.001553 0.009649 -0.004520 0.000000 0.000000 0.000000
# 3 -0.002225 -0.004520 0.012153 0.000000 0.000000 0.000000
# 4 0.000000 0.000000 0.000000 0.011953 0.000000 0.000000
# 5 0.000000 0.000000 0.000000 0.000000 0.030799 0.000000
# 6 0.000000 0.000000 0.000000 0.000000 0.000000 0.016742
#
#
# Mechanical properties :
#
#
# Convention : Reuss Voigt Hill
#
# Bulk Modulus (GPa) = 51.43537 56.88358 54.15948
# Shear Modulus (GPa) = 42.15479 49.58471 45.86975
#
# Velocity S-wave (km/s) = 4.13232 4.48172 4.31056
# Velocity P-wave (km/s) = 6.60330 7.05858 6.83473
#
# Compressibility (1/GPa) = 0.01944187
#
# Stress axis : x y z
#
# Youngs Moduli (GPa) = 70.24452 103.63505 82.28129
#
# Poissons Ratio (x) = 0.16099 0.18306
# Poissons Ratio (y) = 0.10912 0.37192
# Poissons Ratio (z) = 0.15628 0.46844
#
# Static dielectric constant tensor:
#      x y z
#    x 1.931840 0.000000 0.000000 
#    y 0.000000 1.964130 0.000000 
#    z 0.000000 0.000000 1.938570 
# 
# From -- ./inp_files/10822.got.cif
#   From: 2010.05.17/outbox.cif.g08.bks.cpg/sg68_6_cif.got.tgz:10822.got - 2010.06.03 18:57:09.
