data_PCOD9509930
_publ_section_title
;
Structure prediction by ZEFSAII (Michael W. Deem and Ramdas Pophale) SiO2 
 PCOD9509930
Probable space group: C C C A
;
_chemical_formula_sum "Si O2"
_cell_formula_units_Z 104
_cell_length_a 18.385787
_cell_length_b 13.704866
_cell_length_c 22.549856
_cell_angle_alpha 90.000000
_cell_angle_beta 90.000000
_cell_angle_gamma 90.000000
_cell_volume 5681.994264
_symmetry_space_group_name_H-M "C C C A"
_symmetry_group_IT_number 68
_space_group.IT_coordinate_system_code '2'
_symmetry_cell_setting 'orthorhombic'
loop_
_space_group_symop_operation_xyz
x,y,z
-x,1/2-y,z
x,1/2-y,1/2-z
-x,y,1/2-z
-x,-y,-z
x,1/2+y,-z
-x,1/2+y,1/2+z
x,-y,1/2+z
1/2+x,1/2+y,z
1/2-x,-y,z
1/2+x,-y,1/2-z
1/2-x,1/2+y,1/2-z
1/2-x,1/2-y,-z
1/2+x,y,-z
1/2-x,y,1/2+z
1/2+x,1/2-y,1/2+z
loop_
_atom_site_type_symbol
_atom_site_label
_atom_site_fract_x
_atom_site_fract_y
_atom_site_fract_z
Si Si1 0.581801 0.086099 0.766706
Si Si2 0.835914 0.967270 0.365505
Si Si3 0.932155 0.057375 0.474280
Si Si4 0.000000 0.250000 0.075004
Si Si5 0.616159 0.223162 0.664475
Si Si6 0.209252 0.399032 0.525966
Si Si7 0.742786 0.209199 0.403339
O O1 0.500000 0.053498 0.750000
O O2 0.622340 0.132598 0.709358
O O3 0.574695 0.184502 0.806142
O O4 0.627103 0.008317 0.805470
O O5 0.823279 0.851651 0.374576
O O6 0.750000 0.000000 0.367584
O O7 0.887337 0.008236 0.419051
O O8 0.873808 0.070810 0.525322
O O9 0.957839 0.165418 0.458125
O O10 0.000000 0.000000 0.500000
O O11 0.063362 0.305203 0.111264
O O12 0.690703 0.271139 0.641480
O O13 0.250000 0.500000 0.534922
O O14 0.231184 0.351981 0.461749
O O15 0.223036 0.315428 0.573045
#
# Coordination Sequence:
#
# PCOD9509930 Si02
#       7
#    16  16  16   8  16  16  16
#     4  11  20  35  63  93 123 151 210 284 328 373
#     4  12  20  43  63  93 124 173 214 257 330 393
#     4  12  25  35  59  91 128 171 211 256 323 397
#     4  12  20  37  56  88 130 160 209 266 326 380
#     4  11  19  35  59  92 121 156 206 280 324 367
#     4  11  22  40  60  92 128 169 213 261 310 392
#     4  11  22  37  68  87 126 168 213 261 319 395
#
# _framework density 18.303432000000001
#
# number of rings (size 3 to 8) (size 9 to 14) (size 15 to 20)
#    0.000    0.615    9.231    0.462    4.308    0.000 
#    0.000    0.769    0.000    0.000    4.000    0.000 
#    0.000    0.000    0.000    0.000    0.000    0.000 
#
# Total GULP energy -289765.217963 kJ/mol
# GULP energy per Si atom -5572.408038 kJ/mol
# Density = 1.826177 g / cm^3
# Si number density = 18.303432 Si / 1000 Ang^3
#
#
#
# Elastic Constant Matrix: (Units=GPa)
#
#
# Indices 1 2 3 4 5 6 
#
# 1 130.7603 69.5557 47.5066 0.0000 0.0000 0.0000
# 2 69.5557 121.0481 48.2050 0.0000 0.0000 0.0000
# 3 47.5066 48.2050 57.9967 0.0000 0.0000 0.0000
# 4 0.0000 0.0000 0.0000 34.7338 0.0000 0.0000
# 5 0.0000 0.0000 0.0000 0.0000 41.8711 0.0000
# 6 0.0000 0.0000 0.0000 0.0000 0.0000 33.8930
#
#
#
# Elastic Compliance Matrix: (Units=1/GPa)
#
#
# Indices 1 2 3 4 5 6 
#
# 1 0.012394 -0.004602 -0.006327 0.000000 0.000000 0.000000
# 2 -0.004602 0.014057 -0.007914 0.000000 0.000000 0.000000
# 3 -0.006327 -0.007914 0.029003 0.000000 0.000000 0.000000
# 4 0.000000 0.000000 0.000000 0.028790 0.000000 0.000000
# 5 0.000000 0.000000 0.000000 0.000000 0.023883 0.000000
# 6 0.000000 0.000000 0.000000 0.000000 0.000000 0.029505
#
#
# Mechanical properties :
#
#
# Convention : Reuss Voigt Hill
#
# Bulk Modulus (GPa) = 56.28264 71.14887 63.71575
# Shear Modulus (GPa) = 27.58723 31.73543 29.66133
#
# Velocity S-wave (km/s) = 3.88650 4.16847 4.02995
# Velocity P-wave (km/s) = 7.13837 7.88191 7.51934
#
# Compressibility (1/GPa) = 0.01776747
#
# Stress axis : x y z
#
# Youngs Moduli (GPa) = 80.68105 71.13700 34.47876
#
# Poissons Ratio (x) = 0.32739 0.21816
# Poissons Ratio (y) = 0.37132 0.27287
# Poissons Ratio (z) = 0.51050 0.56299
#
# Static dielectric constant tensor:
#      x y z
#    x 1.662080 0.000000 0.000000 
#    y 0.000000 1.648500 0.000000 
#    z 0.000000 0.000000 1.713280 
# 
# From -- ./inp_files/51458.got.cif
#   From: 2010.05.17/outbox.cif.g08.bks.cpg/sg68_26_cif.got.tgz:51458.got - 2010.06.03 18:57:09.
