data_PCOD9509067
_publ_section_title
;
Structure prediction by ZEFSAII (Michael W. Deem and Ramdas Pophale) SiO2 
 PCOD9509067
Probable space group: C C C A
;
_chemical_formula_sum "Si O2"
_cell_formula_units_Z 56
_cell_length_a 15.947188
_cell_length_b 10.854442
_cell_length_c 14.489768
_cell_angle_alpha 90.000000
_cell_angle_beta 90.000000
_cell_angle_gamma 90.000000
_cell_volume 2508.147358
_symmetry_space_group_name_H-M "C C C A"
_symmetry_group_IT_number 68
_space_group.IT_coordinate_system_code '2'
_symmetry_cell_setting 'orthorhombic'
loop_
_space_group_symop_operation_xyz
x,y,z
-x,1/2-y,z
x,1/2-y,1/2-z
-x,y,1/2-z
-x,-y,-z
x,1/2+y,-z
-x,1/2+y,1/2+z
x,-y,1/2+z
1/2+x,1/2+y,z
1/2-x,-y,z
1/2+x,-y,1/2-z
1/2-x,1/2+y,1/2-z
1/2-x,1/2-y,-z
1/2+x,y,-z
1/2-x,y,1/2+z
1/2+x,1/2-y,1/2+z
loop_
_atom_site_type_symbol
_atom_site_label
_atom_site_fract_x
_atom_site_fract_y
_atom_site_fract_z
Si Si1 0.726282 0.138092 0.429820
Si Si2 0.892555 0.685361 0.655541
Si Si3 0.000000 0.250000 0.500172
Si Si4 0.542658 0.085661 0.349041
O O1 0.750000 0.250000 0.500000
O O2 0.795285 0.154229 0.350022
O O3 0.634380 0.138815 0.381399
O O4 0.750000 0.000000 0.469014
O O5 0.910631 0.750000 0.750000
O O6 0.922327 0.766161 0.568733
O O7 0.943825 0.559391 0.648038
O O8 0.984666 0.136635 0.568979
O O9 0.500000 0.115881 0.250000
#
# Coordination Sequence:
#
# PCOD9509067 Si02
#       4
#    16  16   8  16
#     4  10  22  47  72 103 141 189 241 298 369 433
#     4  11  24  43  69  98 141 188 237 291 364 434
#     4  12  22  40  68  96 142 178 240 298 348 428
#     4  11  24  43  68 103 141 184 239 296 359 430
#
# _framework density 22.327237
#
# number of rings (size 3 to 8) (size 9 to 14) (size 15 to 20)
#    0.000    1.143    2.857    3.429    0.000    2.286 
#    0.000    1.429    0.000    0.000    0.000    0.000 
#    0.000    0.000    0.000    0.000    0.000    0.000 
#
# Total GULP energy -156130.747691 kJ/mol
# GULP energy per Si atom -5576.098132 kJ/mol
# Density = 2.227642 g / cm^3
# Si number density = 22.327237 Si / 1000 Ang^3
#
#
#
# Elastic Constant Matrix: (Units=GPa)
#
#
# Indices 1 2 3 4 5 6 
#
# 1 114.7650 26.9006 42.4708 0.0000 0.0000 0.0000
# 2 26.9006 141.6849 71.0091 0.0000 0.0000 0.0000
# 3 42.4708 71.0091 186.7071 0.0000 0.0000 0.0000
# 4 0.0000 0.0000 0.0000 43.2566 0.0000 0.0000
# 5 0.0000 0.0000 0.0000 0.0000 25.9997 0.0000
# 6 0.0000 0.0000 0.0000 0.0000 0.0000 23.3613
#
#
#
# Elastic Compliance Matrix: (Units=1/GPa)
#
#
# Indices 1 2 3 4 5 6 
#
# 1 0.009606 -0.000900 -0.001843 0.000000 0.000000 0.000000
# 2 -0.000900 0.008804 -0.003144 0.000000 0.000000 0.000000
# 3 -0.001843 -0.003144 0.006971 0.000000 0.000000 0.000000
# 4 0.000000 0.000000 0.000000 0.023118 0.000000 0.000000
# 5 0.000000 0.000000 0.000000 0.000000 0.038462 0.000000
# 6 0.000000 0.000000 0.000000 0.000000 0.000000 0.042806
#
#
# Mechanical properties :
#
#
# Convention : Reuss Voigt Hill
#
# Bulk Modulus (GPa) = 73.48636 80.43532 76.96084
# Shear Modulus (GPa) = 34.22852 38.70862 36.46857
#
# Velocity S-wave (km/s) = 3.91965 4.16828 4.04588
# Velocity P-wave (km/s) = 7.31230 7.69870 7.50798
#
# Compressibility (1/GPa) = 0.01360797
#
# Stress axis : x y z
#
# Youngs Moduli (GPa) = 104.09674 113.57938 143.45555
#
# Poissons Ratio (x) = 0.10226 0.26436
# Poissons Ratio (y) = 0.09372 0.45098
# Poissons Ratio (z) = 0.19183 0.35706
#
# Static dielectric constant tensor:
#      x y z
#    x 1.950110 0.000000 0.000000 
#    y 0.000000 1.901910 0.000000 
#    z 0.000000 0.000000 1.792610 
# 
# From -- ./inp_files/23064.got.cif
#   From: 2010.05.17/outbox.cif.g08.bks.cpg/sg68_12_cif.got.tgz:23064.got - 2010.06.03 18:57:09.
