data_PCOD9509917
_publ_section_title
;
Structure prediction by ZEFSAII (Michael W. Deem and Ramdas Pophale) SiO2 
 PCOD9509917
Probable space group: C C C A
;
_chemical_formula_sum "Si O2"
_cell_formula_units_Z 88
_cell_length_a 15.668975
_cell_length_b 27.324642
_cell_length_c 9.000530
_cell_angle_alpha 90.000000
_cell_angle_beta 90.000000
_cell_angle_gamma 90.000000
_cell_volume 3853.569110
_symmetry_space_group_name_H-M "C C C A"
_symmetry_group_IT_number 68
_space_group.IT_coordinate_system_code '2'
_symmetry_cell_setting 'orthorhombic'
loop_
_space_group_symop_operation_xyz
x,y,z
-x,1/2-y,z
x,1/2-y,1/2-z
-x,y,1/2-z
-x,-y,-z
x,1/2+y,-z
-x,1/2+y,1/2+z
x,-y,1/2+z
1/2+x,1/2+y,z
1/2-x,-y,z
1/2+x,-y,1/2-z
1/2-x,1/2+y,1/2-z
1/2-x,1/2-y,-z
1/2+x,y,-z
1/2-x,y,1/2+z
1/2+x,1/2-y,1/2+z
loop_
_atom_site_type_symbol
_atom_site_label
_atom_site_fract_x
_atom_site_fract_y
_atom_site_fract_z
Si Si1 0.815908 0.052918 0.325210
Si Si2 0.919473 0.856030 0.831760
Si Si3 0.868421 0.250000 0.250000
Si Si4 0.859424 0.533306 0.007774
Si Si5 0.967403 0.625961 0.088412
Si Si6 0.399599 0.268199 0.416812
O O1 0.839081 0.109678 0.317773
O O2 0.721642 0.047939 0.390346
O O3 0.878289 0.021394 0.433209
O O4 0.829735 0.032185 0.161437
O O5 0.908963 0.803625 0.758166
O O6 0.000000 0.880510 0.750000
O O7 0.950254 0.854876 0.999252
O O8 0.847196 0.252278 0.433425
O O9 0.926965 0.576341 0.026462
O O10 0.903881 0.672552 0.087784
O O11 0.000000 0.614918 0.250000
O O12 0.500000 0.250000 0.433744
O O13 0.371244 0.250000 0.250000
#
# Coordination Sequence:
#
# PCOD9509917 Si02
#       6
#    16  16   8  16  16  16
#     4  11  25  45  65  90 126 175 215 263 329 396
#     4  12  22  39  66  98 127 162 219 262 321 389
#     4  12  19  36  64  90 130 174 199 264 329 388
#     4  11  25  45  65  89 126 172 219 258 333 394
#     4  12  24  37  64  99 125 163 213 276 318 375
#     4  11  18  33  53  90 127 159 208 248 318 393
#
# _framework density 22.835972999999999
#
# number of rings (size 3 to 8) (size 9 to 14) (size 15 to 20)
#    0.000    0.545    7.273    2.727    5.091    1.455 
#    0.000    0.000    2.000    2.182    0.000    0.000 
#    0.000    0.000    0.000    0.000    0.000    0.000 
#
# Total GULP energy -245077.613889 kJ/mol
# GULP energy per Si atom -5569.945770 kJ/mol
# Density = 2.278400 g / cm^3
# Si number density = 22.835973 Si / 1000 Ang^3
#
#
#
# Elastic Constant Matrix: (Units=GPa)
#
#
# Indices 1 2 3 4 5 6 
#
# 1 18.6606 25.4141 19.6707 0.0000 0.0000 0.0000
# 2 25.4141 113.9950 15.8216 0.0000 0.0000 0.0000
# 3 19.6707 15.8216 193.0111 0.0000 0.0000 0.0000
# 4 0.0000 0.0000 0.0000 19.1266 0.0000 0.0000
# 5 0.0000 0.0000 0.0000 0.0000 14.8624 0.0000
# 6 0.0000 0.0000 0.0000 0.0000 0.0000 -33.9081
#
#
#
# Elastic Compliance Matrix: (Units=1/GPa)
#
#
# Indices 1 2 3 4 5 6 
#
# 1 0.085992 -0.018161 -0.007275 0.000000 0.000000 0.000000
# 2 -0.018161 0.012709 0.000809 0.000000 0.000000 0.000000
# 3 -0.007275 0.000809 0.005856 0.000000 0.000000 0.000000
# 4 0.000000 0.000000 0.000000 0.052283 0.000000 0.000000
# 5 0.000000 0.000000 0.000000 0.000000 0.067284 0.000000
# 6 0.000000 0.000000 0.000000 0.000000 0.000000 -0.029492
#
#
# Mechanical properties :
#
#
# Convention : Reuss Voigt Hill
#
# Bulk Modulus (GPa) = 18.08241 49.71994 33.90118
# Shear Modulus (GPa) = 19.06059 17.66687 18.36373
#
# Velocity S-wave (km/s) = 2.89221 2.78446 2.83884
# Velocity P-wave (km/s) = 4.36906 5.67076 5.06193
#
# Compressibility (1/GPa) = 0.05530235
#
# Stress axis : x y z
#
# Youngs Moduli (GPa) = 11.62899 78.68497 170.76010
#
# Poissons Ratio (x) = 1.42902 1.24230
# Poissons Ratio (y) = 0.21120 -0.13817
# Poissons Ratio (z) = 0.08460 -0.06367
#
# Static dielectric constant tensor:
#      x y z
#    x 1.856170 0.000000 0.000000 
#    y 0.000000 1.889690 0.000000 
#    z 0.000000 0.000000 1.940050 
# 
# From -- ./inp_files/6399.got.cif
#   From: 2010.05.17/outbox.cif.g08.bks.cpg/sg68_4_cif.got.tgz:6399.got - 2010.06.03 18:57:09.
