data_PCOD9509630
_publ_section_title
;
Structure prediction by ZEFSAII (Michael W. Deem and Ramdas Pophale) SiO2 
 PCOD9509630
Probable space group: C C C A
;
_chemical_formula_sum "Si O2"
_cell_formula_units_Z 88
_cell_length_a 4.880488
_cell_length_b 30.192308
_cell_length_c 25.316443
_cell_angle_alpha 90.000000
_cell_angle_beta 90.000000
_cell_angle_gamma 90.000000
_cell_volume 3730.458810
_symmetry_space_group_name_H-M "C C C A"
_symmetry_group_IT_number 68
_space_group.IT_coordinate_system_code '2'
_symmetry_cell_setting 'orthorhombic'
loop_
_space_group_symop_operation_xyz
x,y,z
-x,1/2-y,z
x,1/2-y,1/2-z
-x,y,1/2-z
-x,-y,-z
x,1/2+y,-z
-x,1/2+y,1/2+z
x,-y,1/2+z
1/2+x,1/2+y,z
1/2-x,-y,z
1/2+x,-y,1/2-z
1/2-x,1/2+y,1/2-z
1/2-x,1/2-y,-z
1/2+x,y,-z
1/2-x,y,1/2+z
1/2+x,1/2-y,1/2+z
loop_
_atom_site_type_symbol
_atom_site_label
_atom_site_fract_x
_atom_site_fract_y
_atom_site_fract_z
Si Si1 0.500000 0.750000 0.673442
Si Si2 0.000000 0.174113 0.750000
Si Si3 0.553648 0.832010 0.466099
Si Si4 0.237976 0.398178 0.177725
Si Si5 0.000000 0.528092 0.250000
Si Si6 0.233319 0.909253 0.106980
Si Si7 0.250000 0.000000 0.041142
Si Si8 0.500000 0.750000 0.395867
O O1 0.619085 0.709157 0.707716
O O2 0.248721 0.732310 0.639319
O O3 0.795099 0.142302 0.717702
O O4 0.236659 0.830790 0.481413
O O5 0.643635 0.875170 0.434878
O O6 0.616389 0.789136 0.431455
O O7 0.349522 0.441553 0.207272
O O8 0.433534 0.394793 0.126543
O O9 0.929811 0.404880 0.158307
O O10 0.250000 0.500000 0.274076
O O11 0.237772 0.957082 0.079198
O O12 0.500000 0.000000 0.000000
#
# Coordination Sequence:
#
# PCOD9509630 Si02
#       8
#     8   8  16  16   8  16   8   8
#     4  11  24  41  70  95 136 179 224 269 328 395
#     4  10  24  45  66 100 138 178 220 275 330 394
#     4  12  24  42  66  95 134 174 219 278 343 398
#     4  11  25  42  66  97 132 172 218 275 329 395
#     4  11  24  41  64  91 132 167 214 265 334 399
#     4  12  25  43  69  96 130 174 225 277 333 410
#     4  12  26  46  68  96 130 170 222 282 340 398
#     4  12  24  42  66 101 132 175 228 272 330 408
#
# _framework density 23.589592
#
# number of rings (size 3 to 8) (size 9 to 14) (size 15 to 20)
#    0.000    0.545    0.000    8.182    3.818    5.091 
#    0.000    0.000    0.000    0.000    0.000    0.000 
#    0.000    0.000    0.000    0.000    0.000    0.000 
#
# Total GULP energy -246512.902478 kJ/mol
# GULP energy per Si atom -5602.565965 kJ/mol
# Density = 2.353590 g / cm^3
# Si number density = 23.589592 Si / 1000 Ang^3
#
#
#
# Elastic Constant Matrix: (Units=GPa)
#
#
# Indices 1 2 3 4 5 6 
#
# 1 91.6105 9.5187 12.3751 0.0000 0.0000 0.0000
# 2 9.5187 156.5526 47.3625 0.0000 0.0000 0.0000
# 3 12.3751 47.3625 85.9470 0.0000 0.0000 0.0000
# 4 0.0000 0.0000 0.0000 31.7032 0.0000 0.0000
# 5 0.0000 0.0000 0.0000 0.0000 35.6077 0.0000
# 6 0.0000 0.0000 0.0000 0.0000 0.0000 18.9466
#
#
#
# Elastic Compliance Matrix: (Units=1/GPa)
#
#
# Indices 1 2 3 4 5 6 
#
# 1 0.011139 -0.000230 -0.001477 0.000000 0.000000 0.000000
# 2 -0.000230 0.007670 -0.004194 0.000000 0.000000 0.000000
# 3 -0.001477 -0.004194 0.014159 0.000000 0.000000 0.000000
# 4 0.000000 0.000000 0.000000 0.031543 0.000000 0.000000
# 5 0.000000 0.000000 0.000000 0.000000 0.028084 0.000000
# 6 0.000000 0.000000 0.000000 0.000000 0.000000 0.052780
#
#
# Mechanical properties :
#
#
# Convention : Reuss Voigt Hill
#
# Bulk Modulus (GPa) = 47.24510 52.51365 49.87937
# Shear Modulus (GPa) = 30.44471 34.90842 32.67656
#
# Velocity S-wave (km/s) = 3.59639 3.85102 3.72588
# Velocity P-wave (km/s) = 6.10875 6.48718 6.30080
#
# Compressibility (1/GPa) = 0.02116622
#
# Stress axis : x y z
#
# Youngs Moduli (GPa) = 89.77280 130.37165 70.62781
#
# Poissons Ratio (x) = 0.03005 0.10431
# Poissons Ratio (y) = 0.02069 0.29619
# Poissons Ratio (z) = 0.13258 0.54674
#
# Static dielectric constant tensor:
#      x y z
#    x 1.837610 0.000000 0.000000 
#    y 0.000000 1.857320 0.000000 
#    z 0.000000 0.000000 1.999520 
# 
# From -- ./inp_files/42443.got.cif
#   From: 2010.05.17/outbox.cif.g08.bks.cpg/sg68_22_cif.got.tgz:42443.got - 2010.06.03 18:57:09.
