data_PCOD9509304
_publ_section_title
;
Structure prediction by ZEFSAII (Michael W. Deem and Ramdas Pophale) SiO2 
 PCOD9509304
Probable space group: C C C A
;
_chemical_formula_sum "Si O2"
_cell_formula_units_Z 44
_cell_length_a 17.707426
_cell_length_b 11.758091
_cell_length_c 10.004645
_cell_angle_alpha 90.000000
_cell_angle_beta 90.000000
_cell_angle_gamma 90.000000
_cell_volume 2083.022378
_symmetry_space_group_name_H-M "C C C A"
_symmetry_group_IT_number 68
_space_group.IT_coordinate_system_code '2'
_symmetry_cell_setting 'orthorhombic'
loop_
_space_group_symop_operation_xyz
x,y,z
-x,1/2-y,z
x,1/2-y,1/2-z
-x,y,1/2-z
-x,-y,-z
x,1/2+y,-z
-x,1/2+y,1/2+z
x,-y,1/2+z
1/2+x,1/2+y,z
1/2-x,-y,z
1/2+x,-y,1/2-z
1/2-x,1/2+y,1/2-z
1/2-x,1/2-y,-z
1/2+x,y,-z
1/2-x,y,1/2+z
1/2+x,1/2-y,1/2+z
loop_
_atom_site_type_symbol
_atom_site_label
_atom_site_fract_x
_atom_site_fract_y
_atom_site_fract_z
Si Si1 0.250000 0.000000 0.315023
Si Si2 0.108782 0.881604 0.222434
Si Si3 0.596839 0.573095 0.419906
Si Si4 0.500000 0.250000 0.750000
O O1 0.197853 0.914419 0.231155
O O2 0.312037 0.927912 0.397107
O O3 0.095951 0.750000 0.250000
O O4 0.075527 0.956730 0.343239
O O5 0.082900 0.920408 0.076587
O O6 0.553590 0.672547 0.342625
#
# Coordination Sequence:
#
# PCOD9509304 Si02
#       4
#     8  16  16   4
#     4   8  22  40  72 102 138 180 244 286 344 424
#     4  10  23  43  71 102 138 185 241 291 342 421
#     4  10  25  44  68 106 138 189 236 287 359 411
#     4  12  28  44  72 100 156 178 234 298 356 424
#
# _framework density 21.123155000000001
#
# number of rings (size 3 to 8) (size 9 to 14) (size 15 to 20)
#    2.182    0.000    0.000    1.091    7.636    2.909 
#    0.000    0.000    0.000    0.000    0.000    0.000 
#    0.000    0.000    0.000    0.000    0.000    0.000 
#
# Total GULP energy -122600.869663 kJ/mol
# GULP energy per Si atom -5572.766803 kJ/mol
# Density = 2.107508 g / cm^3
# Si number density = 21.123155 Si / 1000 Ang^3
#
#
#
# Elastic Constant Matrix: (Units=GPa)
#
#
# Indices 1 2 3 4 5 6 
#
# 1 160.1780 41.9665 59.3466 0.0000 0.0000 0.0000
# 2 41.9665 179.5673 101.1364 0.0000 0.0000 0.0000
# 3 59.3466 101.1364 202.4884 0.0000 0.0000 0.0000
# 4 0.0000 0.0000 0.0000 24.8182 0.0000 0.0000
# 5 0.0000 0.0000 0.0000 0.0000 13.0576 0.0000
# 6 0.0000 0.0000 0.0000 0.0000 0.0000 -13.4494
#
#
#
# Elastic Compliance Matrix: (Units=1/GPa)
#
#
# Indices 1 2 3 4 5 6 
#
# 1 0.007062 -0.000674 -0.001733 0.000000 0.000000 0.000000
# 2 -0.000674 0.007813 -0.003705 0.000000 0.000000 0.000000
# 3 -0.001733 -0.003705 0.007297 0.000000 0.000000 0.000000
# 4 0.000000 0.000000 0.000000 0.040293 0.000000 0.000000
# 5 0.000000 0.000000 0.000000 0.000000 0.076584 0.000000
# 6 0.000000 0.000000 0.000000 0.000000 0.000000 -0.074353
#
#
# Mechanical properties :
#
#
# Convention : Reuss Voigt Hill
#
# Bulk Modulus (GPa) = 100.52565 105.23697 102.88131
# Shear Modulus (GPa) = 62.31622 27.53756 44.92689
#
# Velocity S-wave (km/s) = 5.43741 3.61455 4.61684
# Velocity P-wave (km/s) = 9.33350 8.20663 8.78814
#
# Compressibility (1/GPa) = 0.00994771
#
# Stress axis : x y z
#
# Youngs Moduli (GPa) = 141.60733 127.98905 137.04557
#
# Poissons Ratio (x) = 0.08632 0.23748
# Poissons Ratio (y) = 0.09550 0.50772
# Poissons Ratio (z) = 0.24539 0.47417
#
# Static dielectric constant tensor:
#      x y z
#    x 1.739840 0.000000 0.000000 
#    y 0.000000 1.713090 0.000000 
#    z 0.000000 0.000000 1.715950 
# 
# From -- ./inp_files/5455.got.cif
#   From: 2010.05.17/outbox.cif.g08.bks.cpg/sg68_3_cif.got.tgz:5455.got - 2010.06.03 18:57:09.
