data_PCOD9509380
_publ_section_title
;
Structure prediction by ZEFSAII (Michael W. Deem and Ramdas Pophale) SiO2 
 PCOD9509380
Probable space group: C C C A
;
_chemical_formula_sum "Si O2"
_cell_formula_units_Z 88
_cell_length_a 14.121722
_cell_length_b 12.028661
_cell_length_c 22.182136
_cell_angle_alpha 90.000000
_cell_angle_beta 90.000000
_cell_angle_gamma 90.000000
_cell_volume 3767.977553
_symmetry_space_group_name_H-M "C C C A"
_symmetry_group_IT_number 68
_space_group.IT_coordinate_system_code '2'
_symmetry_cell_setting 'orthorhombic'
loop_
_space_group_symop_operation_xyz
x,y,z
-x,1/2-y,z
x,1/2-y,1/2-z
-x,y,1/2-z
-x,-y,-z
x,1/2+y,-z
-x,1/2+y,1/2+z
x,-y,1/2+z
1/2+x,1/2+y,z
1/2-x,-y,z
1/2+x,-y,1/2-z
1/2-x,1/2+y,1/2-z
1/2-x,1/2-y,-z
1/2+x,y,-z
1/2-x,y,1/2+z
1/2+x,1/2-y,1/2+z
loop_
_atom_site_type_symbol
_atom_site_label
_atom_site_fract_x
_atom_site_fract_y
_atom_site_fract_z
Si Si1 0.397805 0.802405 0.883869
Si Si2 0.501831 0.470944 0.312815
Si Si3 0.206236 0.388156 0.827067
Si Si4 0.340571 0.250000 0.750000
Si Si5 0.076429 0.833707 0.879746
Si Si6 0.752208 0.373953 0.969186
O O1 0.500000 0.750000 0.899860
O O2 0.314553 0.714251 0.870848
O O3 0.353591 0.875620 0.935826
O O4 0.420292 0.876200 0.824738
O O5 0.500000 0.534972 0.250000
O O6 0.400964 0.413998 0.310161
O O7 0.516510 0.556385 0.365579
O O8 0.250000 0.500000 0.853885
O O9 0.272996 0.350464 0.772410
O O10 0.391450 0.214923 0.813228
O O11 0.165287 0.864432 0.921229
O O12 0.000000 0.750000 0.907758
O O13 0.750000 0.500000 0.998473
O O14 0.750000 0.250000 0.000000
#
# Coordination Sequence:
#
# PCOD9509380 Si02
#       6
#    16  16  16   8  16  16
#     4  10  23  45  70 103 151 192 257 318 393 473
#     4  11  22  38  65 104 152 200 241 301 388 479
#     4  11  22  35  62 103 144 199 249 297 371 469
#     4  12  23  40  67 108 162 196 251 306 393 488
#     4  12  25  45  71 112 158 204 254 322 402 484
#     4  12  28  55  82 111 149 209 276 345 403 463
#
# _framework density 23.354704999999999
#
# number of rings (size 3 to 8) (size 9 to 14) (size 15 to 20)
#    0.000    0.727    3.636    4.636    0.000    4.727 
#    3.273    1.818    0.000    0.000    0.000    0.000 
#    0.000    0.000    0.000    0.000    0.000    0.000 
#
# Total GULP energy -245146.774831 kJ/mol
# GULP energy per Si atom -5571.517610 kJ/mol
# Density = 2.330155 g / cm^3
# Si number density = 23.354705 Si / 1000 Ang^3
#
#
#
# Elastic Constant Matrix: (Units=GPa)
#
#
# Indices 1 2 3 4 5 6 
#
# 1 67.9111 28.1986 22.9766 0.0000 0.0000 0.0000
# 2 28.1986 148.5136 29.6836 0.0000 0.0000 0.0000
# 3 22.9766 29.6836 60.0094 0.0000 0.0000 0.0000
# 4 0.0000 0.0000 0.0000 20.9251 0.0000 0.0000
# 5 0.0000 0.0000 0.0000 0.0000 12.7138 0.0000
# 6 0.0000 0.0000 0.0000 0.0000 0.0000 44.8747
#
#
#
# Elastic Compliance Matrix: (Units=1/GPa)
#
#
# Indices 1 2 3 4 5 6 
#
# 1 0.017545 -0.002207 -0.005626 0.000000 0.000000 0.000000
# 2 -0.002207 0.007750 -0.002988 0.000000 0.000000 0.000000
# 3 -0.005626 -0.002988 0.020296 0.000000 0.000000 0.000000
# 4 0.000000 0.000000 0.000000 0.047789 0.000000 0.000000
# 5 0.000000 0.000000 0.000000 0.000000 0.078655 0.000000
# 6 0.000000 0.000000 0.000000 0.000000 0.000000 0.022284
#
#
# Mechanical properties :
#
#
# Convention : Reuss Voigt Hill
#
# Bulk Modulus (GPa) = 41.75637 48.68352 45.21994
# Shear Modulus (GPa) = 22.32690 28.74108 25.53399
#
# Velocity S-wave (km/s) = 3.09527 3.51184 3.31011
# Velocity P-wave (km/s) = 5.54006 6.11020 5.83210
#
# Compressibility (1/GPa) = 0.02394844
#
# Stress axis : x y z
#
# Youngs Moduli (GPa) = 56.99649 129.03712 49.26977
#
# Poissons Ratio (x) = 0.28476 0.27719
# Poissons Ratio (y) = 0.12578 0.14724
# Poissons Ratio (z) = 0.32067 0.38562
#
# Static dielectric constant tensor:
#      x y z
#    x 1.876680 0.000000 0.000000 
#    y 0.000000 2.174580 0.000000 
#    z 0.000000 0.000000 1.980070 
# 
# From -- ./inp_files/45302.got.cif
#   From: 2010.05.17/outbox.cif.g08.bks.cpg/sg68_23_cif.got.tgz:45302.got - 2010.06.03 18:57:09.
