data_PCOD9509229
_publ_section_title
;
Structure prediction by ZEFSAII (Michael W. Deem and Ramdas Pophale) SiO2 
 PCOD9509229
Probable space group: C C C A
;
_chemical_formula_sum "Si O2"
_cell_formula_units_Z 80
_cell_length_a 9.033136
_cell_length_b 28.338590
_cell_length_c 13.527204
_cell_angle_alpha 90.000000
_cell_angle_beta 90.000000
_cell_angle_gamma 90.000000
_cell_volume 3462.779409
_symmetry_space_group_name_H-M "C C C A"
_symmetry_group_IT_number 68
_space_group.IT_coordinate_system_code '2'
_symmetry_cell_setting 'orthorhombic'
loop_
_space_group_symop_operation_xyz
x,y,z
-x,1/2-y,z
x,1/2-y,1/2-z
-x,y,1/2-z
-x,-y,-z
x,1/2+y,-z
-x,1/2+y,1/2+z
x,-y,1/2+z
1/2+x,1/2+y,z
1/2-x,-y,z
1/2+x,-y,1/2-z
1/2-x,1/2+y,1/2-z
1/2-x,1/2-y,-z
1/2+x,y,-z
1/2-x,y,1/2+z
1/2+x,1/2-y,1/2+z
loop_
_atom_site_type_symbol
_atom_site_label
_atom_site_fract_x
_atom_site_fract_y
_atom_site_fract_z
Si Si1 0.325669 0.451233 0.138553
Si Si2 0.354895 0.862424 0.313622
Si Si3 0.841145 0.453677 0.622734
Si Si4 0.292719 0.348991 0.385452
Si Si5 0.487144 0.805449 0.017720
O O1 0.250000 0.500000 0.110385
O O2 0.220347 0.405818 0.128869
O O3 0.344656 0.453495 0.257722
O O4 0.487912 0.450330 0.090619
O O5 0.500000 0.878632 0.250000
O O6 0.242369 0.842891 0.230599
O O7 0.413095 0.823809 0.390270
O O8 0.750000 0.500000 0.595120
O O9 0.766594 0.404391 0.594441
O O10 0.453880 0.333310 0.421825
O O11 0.177005 0.319182 0.449189
O O12 0.500000 0.750000 0.002839
#
# Coordination Sequence:
#
# PCOD9509229 Si02
#       5
#    16  16  16  16  16
#     4   9  18  30  61  92 126 171 220 264 319 388
#     4   9  21  39  66  94 132 172 221 269 333 393
#     4   9  19  35  57  91 133 170 212 266 327 390
#     4  10  23  42  65  94 132 168 217 274 328 390
#     4  11  24  44  69  93 128 174 219 275 333 389
#
# _framework density 23.102827000000001
#
# number of rings (size 3 to 8) (size 9 to 14) (size 15 to 20)
#    0.000    2.400    0.000    0.600   14.000    3.600 
#    0.000    2.000    0.000    0.000    0.000    0.000 
#    0.000    0.000    0.000    0.000    0.000    0.000 
#
# Total GULP energy -223665.086007 kJ/mol
# GULP energy per Si atom -5591.627150 kJ/mol
# Density = 2.305024 g / cm^3
# Si number density = 23.102827 Si / 1000 Ang^3
#
#
#
# Elastic Constant Matrix: (Units=GPa)
#
#
# Indices 1 2 3 4 5 6 
#
# 1 52.4508 31.8674 20.0157 0.0000 0.0000 0.0000
# 2 31.8674 134.3578 -10.4149 0.0000 0.0000 0.0000
# 3 20.0157 -10.4149 80.9476 0.0000 0.0000 0.0000
# 4 0.0000 0.0000 0.0000 -14.9490 0.0000 0.0000
# 5 0.0000 0.0000 0.0000 0.0000 5.2824 0.0000
# 6 0.0000 0.0000 0.0000 0.0000 0.0000 33.7101
#
#
#
# Elastic Compliance Matrix: (Units=1/GPa)
#
#
# Indices 1 2 3 4 5 6 
#
# 1 0.025918 -0.006711 -0.007272 0.000000 0.000000 0.000000
# 2 -0.006711 0.009255 0.002850 0.000000 0.000000 0.000000
# 3 -0.007272 0.002850 0.014519 0.000000 0.000000 0.000000
# 4 0.000000 0.000000 0.000000 -0.066894 0.000000 0.000000
# 5 0.000000 0.000000 0.000000 0.000000 0.189308 0.000000
# 6 0.000000 0.000000 0.000000 0.000000 0.000000 0.029665
#
#
# Mechanical properties :
#
#
# Convention : Reuss Voigt Hill
#
# Bulk Modulus (GPa) = 36.46142 38.96583 37.71362
# Shear Modulus (GPa) = 21.44281 19.89458 20.66870
#
# Velocity S-wave (km/s) = 3.04986 2.93769 2.99430
# Velocity P-wave (km/s) = 5.31212 5.33006 5.32110
#
# Compressibility (1/GPa) = 0.02742625
#
# Stress axis : x y z
#
# Youngs Moduli (GPa) = 38.58328 108.04398 68.87742
#
# Poissons Ratio (x) = 0.72508 0.50088
# Poissons Ratio (y) = 0.25893 -0.19632
# Poissons Ratio (z) = 0.28058 -0.30795
#
# Static dielectric constant tensor:
#      x y z
#    x 1.907480 0.000000 0.000000 
#    y 0.000000 1.790840 0.000000 
#    z 0.000000 0.000000 1.913730 
# 
# From -- ./inp_files/28318.got.cif
#   From: 2010.05.17/outbox.cif.g08.bks.cpg/sg68_15_cif.got.tgz:28318.got - 2010.06.03 18:57:09.
