data_PCOD9509359
_publ_section_title
;
Structure prediction by ZEFSAII (Michael W. Deem and Ramdas Pophale) SiO2 
 PCOD9509359
Probable space group: C C C A
;
_chemical_formula_sum "Si O2"
_cell_formula_units_Z 48
_cell_length_a 17.391738
_cell_length_b 11.607525
_cell_length_c 9.878997
_cell_angle_alpha 90.000000
_cell_angle_beta 90.000000
_cell_angle_gamma 90.000000
_cell_volume 1994.322852
_symmetry_space_group_name_H-M "C C C A"
_symmetry_group_IT_number 68
_space_group.IT_coordinate_system_code '2'
_symmetry_cell_setting 'orthorhombic'
loop_
_space_group_symop_operation_xyz
x,y,z
-x,1/2-y,z
x,1/2-y,1/2-z
-x,y,1/2-z
-x,-y,-z
x,1/2+y,-z
-x,1/2+y,1/2+z
x,-y,1/2+z
1/2+x,1/2+y,z
1/2-x,-y,z
1/2+x,-y,1/2-z
1/2-x,1/2+y,1/2-z
1/2-x,1/2-y,-z
1/2+x,y,-z
1/2-x,y,1/2+z
1/2+x,1/2-y,1/2+z
loop_
_atom_site_type_symbol
_atom_site_label
_atom_site_fract_x
_atom_site_fract_y
_atom_site_fract_z
Si Si1 0.807112 0.648983 0.455344
Si Si2 0.551055 0.447433 0.379534
Si Si3 0.177272 0.614090 0.749342
O O1 0.750000 0.750000 0.500000
O O2 0.896133 0.662908 0.417007
O O3 0.816618 0.576215 0.594053
O O4 0.760438 0.610931 0.322538
O O5 0.500000 0.423665 0.250000
O O6 0.500000 0.500000 0.500000
O O7 0.614493 0.543231 0.334588
O O8 0.153717 0.750000 0.750000
#
# Coordination Sequence:
#
# PCOD9509359 Si02
#       3
#    16  16  16
#     4  10  23  45  70 103 143 195 250 300 368 457
#     4  12  25  43  71 110 147 191 246 316 383 441
#     4  10  23  44  72 100 144 194 250 307 371 453
#
# _framework density 24.06832
#
# number of rings (size 3 to 8) (size 9 to 14) (size 15 to 20)
#    0.000    1.333    3.333    1.000    4.667    3.333 
#    0.000    0.000    0.000    0.000    0.000    0.000 
#    0.000    0.000    0.000    0.000    0.000    0.000 
#
# Total GULP energy -133895.372136 kJ/mol
# GULP energy per Si atom -5578.973839 kJ/mol
# Density = 2.401354 g / cm^3
# Si number density = 24.068320 Si / 1000 Ang^3
#
#
#
# Elastic Constant Matrix: (Units=GPa)
#
#
# Indices 1 2 3 4 5 6 
#
# 1 207.4171 23.0390 83.0482 0.0000 0.0000 0.0000
# 2 23.0390 44.8527 -24.4687 0.0000 0.0000 0.0000
# 3 83.0482 -24.4687 196.1689 0.0000 0.0000 0.0000
# 4 0.0000 0.0000 0.0000 23.6833 0.0000 0.0000
# 5 0.0000 0.0000 0.0000 0.0000 67.6415 0.0000
# 6 0.0000 0.0000 0.0000 0.0000 0.0000 37.0748
#
#
#
# Elastic Compliance Matrix: (Units=1/GPa)
#
#
# Indices 1 2 3 4 5 6 
#
# 1 0.006869 -0.005488 -0.003593 0.000000 0.000000 0.000000
# 2 -0.005488 0.028308 0.005854 0.000000 0.000000 0.000000
# 3 -0.003593 0.005854 0.007349 0.000000 0.000000 0.000000
# 4 0.000000 0.000000 0.000000 0.042224 0.000000 0.000000
# 5 0.000000 0.000000 0.000000 0.000000 0.014784 0.000000
# 6 0.000000 0.000000 0.000000 0.000000 0.000000 0.026972
#
#
# Mechanical properties :
#
#
# Convention : Reuss Voigt Hill
#
# Bulk Modulus (GPa) = 27.72153 67.96398 47.84275
# Shear Modulus (GPa) = 34.48648 50.13459 42.31053
#
# Velocity S-wave (km/s) = 3.78942 4.56895 4.19732
# Velocity P-wave (km/s) = 5.53977 7.49220 6.58871
#
# Compressibility (1/GPa) = 0.03607304
#
# Stress axis : x y z
#
# Youngs Moduli (GPa) = 145.57453 35.32547 136.07524
#
# Poissons Ratio (x) = 0.19388 0.48888
# Poissons Ratio (y) = 0.79898 -0.79665
# Poissons Ratio (z) = 0.52301 -0.20681
#
# Static dielectric constant tensor:
#      x y z
#    x 1.967700 0.000000 0.000000 
#    y 0.000000 2.143990 0.000000 
#    z 0.000000 0.000000 2.028650 
# 
# From -- ./inp_files/4413.got.cif
#   From: 2010.05.17/outbox.cif.g08.bks.cpg/sg68_3_cif.got.tgz:4413.got - 2010.06.03 18:57:09.
