data_PCOD9509353
_publ_section_title
;
Structure prediction by ZEFSAII (Michael W. Deem and Ramdas Pophale) SiO2 
 PCOD9509353
Probable space group: C C C A
;
_chemical_formula_sum "Si O2"
_cell_formula_units_Z 60
_cell_length_a 13.236796
_cell_length_b 8.008142
_cell_length_c 23.735950
_cell_angle_alpha 90.000000
_cell_angle_beta 90.000000
_cell_angle_gamma 90.000000
_cell_volume 2516.061542
_symmetry_space_group_name_H-M "C C C A"
_symmetry_group_IT_number 68
_space_group.IT_coordinate_system_code '2'
_symmetry_cell_setting 'orthorhombic'
loop_
_space_group_symop_operation_xyz
x,y,z
-x,1/2-y,z
x,1/2-y,1/2-z
-x,y,1/2-z
-x,-y,-z
x,1/2+y,-z
-x,1/2+y,1/2+z
x,-y,1/2+z
1/2+x,1/2+y,z
1/2-x,-y,z
1/2+x,-y,1/2-z
1/2-x,1/2+y,1/2-z
1/2-x,1/2-y,-z
1/2+x,y,-z
1/2-x,y,1/2+z
1/2+x,1/2-y,1/2+z
loop_
_atom_site_type_symbol
_atom_site_label
_atom_site_fract_x
_atom_site_fract_y
_atom_site_fract_z
Si Si1 0.758041 0.250000 0.750000
Si Si2 0.000000 0.250000 0.480157
Si Si3 0.566474 0.418847 0.318283
Si Si4 0.568384 0.540635 0.581539
Si Si5 0.250000 0.500000 0.338915
Si Si6 0.500000 0.250000 0.750000
O O1 0.828672 0.135538 0.709921
O O2 0.702963 0.364624 0.704138
O O3 0.935077 0.359343 0.523561
O O4 0.927281 0.147876 0.439559
O O5 0.500000 0.250000 0.305104
O O6 0.536975 0.435774 0.384269
O O7 0.542921 0.603055 0.292911
O O8 0.661047 0.573701 0.623136
#
# Coordination Sequence:
#
# PCOD9509353 Si02
#       6
#     8   8  16  16   8   4
#     4  12  25  43  64  96 146 184 214 267 338 411
#     4  10  23  44  70  90 118 182 233 278 326 406
#     4  12  21  43  68  95 136 183 223 268 312 423
#     4  11  23  42  68  96 129 171 230 278 338 385
#     4  12  26  40  64 100 138 176 212 284 346 392
#     4  12  20  30  72 100 120 180 232 258 320 378
#
# _framework density 23.846793000000002
#
# number of rings (size 3 to 8) (size 9 to 14) (size 15 to 20)
#    0.000    0.533    6.667    0.800    0.000    7.467 
#    0.000    0.000    0.000    0.000    0.000    0.000 
#    0.000    0.000    0.000    0.000    0.000    0.000 
#
# Total GULP energy -167014.148885 kJ/mol
# GULP energy per Si atom -5567.138296 kJ/mol
# Density = 2.379252 g / cm^3
# Si number density = 23.846793 Si / 1000 Ang^3
#
#
#
# Elastic Constant Matrix: (Units=GPa)
#
#
# Indices 1 2 3 4 5 6 
#
# 1 62.1894 9.4007 14.8338 0.0000 0.0000 0.0000
# 2 9.4007 135.7004 18.4027 0.0000 0.0000 0.0000
# 3 14.8338 18.4027 120.9455 0.0000 0.0000 0.0000
# 4 0.0000 0.0000 0.0000 61.2752 0.0000 0.0000
# 5 0.0000 0.0000 0.0000 0.0000 -13.2621 0.0000
# 6 0.0000 0.0000 0.0000 0.0000 0.0000 34.3333
#
#
#
# Elastic Compliance Matrix: (Units=1/GPa)
#
#
# Indices 1 2 3 4 5 6 
#
# 1 0.016671 -0.000896 -0.001908 0.000000 0.000000 0.000000
# 2 -0.000896 0.007573 -0.001042 0.000000 0.000000 0.000000
# 3 -0.001908 -0.001042 0.008661 0.000000 0.000000 0.000000
# 4 0.000000 0.000000 0.000000 0.016320 0.000000 0.000000
# 5 0.000000 0.000000 0.000000 0.000000 -0.075403 0.000000
# 6 0.000000 0.000000 0.000000 0.000000 0.000000 0.029126
#
#
# Mechanical properties :
#
#
# Convention : Reuss Voigt Hill
#
# Bulk Modulus (GPa) = 39.66579 44.90108 42.28344
# Shear Modulus (GPa) = 262.54527 34.88247 148.71387
#
# Velocity S-wave (km/s) = 10.50408 3.82877 7.90554
# Velocity P-wave (km/s) = 12.79781 6.19805 10.05484
#
# Compressibility (1/GPa) = 0.02521064
#
# Stress axis : x y z
#
# Youngs Moduli (GPa) = 59.98605 132.05497 115.46240
#
# Poissons Ratio (x) = 0.11833 0.22033
# Poissons Ratio (y) = 0.05375 0.12035
# Poissons Ratio (z) = 0.11447 0.13764
#
# Static dielectric constant tensor:
#      x y z
#    x 2.118690 0.000000 0.000000 
#    y 0.000000 2.060420 0.000000 
#    z 0.000000 0.000000 1.842890 
# 
# From -- ./inp_files/44949.got.cif
#   From: 2010.05.17/outbox.cif.g08.bks.cpg/sg68_23_cif.got.tgz:44949.got - 2010.06.03 18:57:09.
