data_PCOD9509071
_publ_section_title
;
Structure prediction by ZEFSAII (Michael W. Deem and Ramdas Pophale) SiO2 
 PCOD9509071
Probable space group: C C C A
;
_chemical_formula_sum "Si O2"
_cell_formula_units_Z 88
_cell_length_a 11.784991
_cell_length_b 27.438903
_cell_length_c 11.476571
_cell_angle_alpha 90.000000
_cell_angle_beta 90.000000
_cell_angle_gamma 90.000000
_cell_volume 3711.146916
_symmetry_space_group_name_H-M "C C C A"
_symmetry_group_IT_number 68
_space_group.IT_coordinate_system_code '2'
_symmetry_cell_setting 'orthorhombic'
loop_
_space_group_symop_operation_xyz
x,y,z
-x,1/2-y,z
x,1/2-y,1/2-z
-x,y,1/2-z
-x,-y,-z
x,1/2+y,-z
-x,1/2+y,1/2+z
x,-y,1/2+z
1/2+x,1/2+y,z
1/2-x,-y,z
1/2+x,-y,1/2-z
1/2-x,1/2+y,1/2-z
1/2-x,1/2-y,-z
1/2+x,y,-z
1/2-x,y,1/2+z
1/2+x,1/2-y,1/2+z
loop_
_atom_site_type_symbol
_atom_site_label
_atom_site_fract_x
_atom_site_fract_y
_atom_site_fract_z
Si Si1 0.000000 0.827947 0.750000
Si Si2 0.065282 0.399185 0.939268
Si Si3 0.000000 0.021893 0.750000
Si Si4 0.584449 0.810500 0.639502
Si Si5 0.179701 0.457284 0.136194
Si Si6 0.000000 0.750000 0.552822
Si Si7 0.742397 0.868865 0.274124
O O1 0.110037 0.858378 0.712342
O O2 0.967703 0.793406 0.640415
O O3 0.182678 0.376322 0.889169
O O4 0.023340 0.442976 0.857972
O O5 0.972951 0.356728 0.925947
O O6 0.095968 0.424476 0.059586
O O7 0.106329 0.987098 0.771674
O O8 0.500000 0.801097 0.750000
O O9 0.592403 0.769226 0.540916
O O10 0.701112 0.825939 0.698769
O O11 0.250000 0.500000 0.070536
O O12 0.257931 0.418491 0.201253
#
# Coordination Sequence:
#
# PCOD9509071 Si02
#       7
#     8  16   8  16  16   8  16
#     4  11  27  48  67 112 144 182 221 298 375 427
#     4  11  23  45  68  99 142 187 233 293 353 413
#     4  12  23  46  63 101 144 175 249 294 331 426
#     4  10  22  47  74 101 134 186 238 290 356 423
#     4  12  25  39  70 104 135 195 236 290 350 409
#     4  11  25  48  74 106 135 171 246 292 352 437
#     4  11  24  47  69  99 151 185 229 286 361 428
#
# _framework density 23.712346
#
# number of rings (size 3 to 8) (size 9 to 14) (size 15 to 20)
#    0.000    0.909    4.545    2.455    5.091    0.727 
#   16.364    0.000    0.000    0.000    0.000    0.000 
#    0.000    0.000    0.000    0.000    0.000    0.000 
#
# Total GULP energy -246054.667559 kJ/mol
# GULP energy per Si atom -5592.151535 kJ/mol
# Density = 2.365838 g / cm^3
# Si number density = 23.712346 Si / 1000 Ang^3
#
#
#
# Elastic Constant Matrix: (Units=GPa)
#
#
# Indices 1 2 3 4 5 6 
#
# 1 104.1333 17.5661 -3.8058 0.0000 0.0000 0.0000
# 2 17.5661 74.6096 29.8557 0.0000 0.0000 0.0000
# 3 -3.8058 29.8557 77.9977 0.0000 0.0000 0.0000
# 4 0.0000 0.0000 0.0000 54.5406 0.0000 0.0000
# 5 0.0000 0.0000 0.0000 0.0000 14.9109 0.0000
# 6 0.0000 0.0000 0.0000 0.0000 0.0000 -14.1242
#
#
#
# Elastic Compliance Matrix: (Units=1/GPa)
#
#
# Indices 1 2 3 4 5 6 
#
# 1 0.010181 -0.003065 0.001670 0.000000 0.000000 0.000000
# 2 -0.003065 0.016750 -0.006561 0.000000 0.000000 0.000000
# 3 0.001670 -0.006561 0.015414 0.000000 0.000000 0.000000
# 4 0.000000 0.000000 0.000000 0.018335 0.000000 0.000000
# 5 0.000000 0.000000 0.000000 0.000000 0.067065 0.000000
# 6 0.000000 0.000000 0.000000 0.000000 0.000000 -0.070800
#
#
# Mechanical properties :
#
#
# Convention : Reuss Voigt Hill
#
# Bulk Modulus (GPa) = 37.83220 38.21915 38.02568
# Shear Modulus (GPa) = 61.22263 25.27375 43.24819
#
# Velocity S-wave (km/s) = 5.08674 3.26827 4.27531
# Velocity P-wave (km/s) = 7.10557 5.51316 6.35941
#
# Compressibility (1/GPa) = 0.02643251
#
# Stress axis : x y z
#
# Youngs Moduli (GPa) = 98.22010 59.70025 64.87664
#
# Poissons Ratio (x) = 0.18300 -0.10835
# Poissons Ratio (y) = 0.30108 0.42567
# Poissons Ratio (z) = -0.16404 0.39171
#
# Static dielectric constant tensor:
#      x y z
#    x 1.937050 0.000000 0.000000 
#    y 0.000000 1.901520 0.000000 
#    z 0.000000 0.000000 1.916920 
# 
# From -- ./inp_files/12096.got.cif
#   From: 2010.05.17/outbox.cif.g08.bks.cpg/sg68_7_cif.got.tgz:12096.got - 2010.06.03 18:57:09.
