data_PCOD9509793
_publ_section_title
;
Structure prediction by ZEFSAII (Michael W. Deem and Ramdas Pophale) SiO2 
 PCOD9509793
Probable space group: C C C A
;
_chemical_formula_sum "Si O2"
_cell_formula_units_Z 88
_cell_length_a 11.505048
_cell_length_b 19.018502
_cell_length_c 14.761154
_cell_angle_alpha 90.000000
_cell_angle_beta 90.000000
_cell_angle_gamma 90.000000
_cell_volume 3229.870074
_symmetry_space_group_name_H-M "C C C A"
_symmetry_group_IT_number 68
_space_group.IT_coordinate_system_code '2'
_symmetry_cell_setting 'orthorhombic'
loop_
_space_group_symop_operation_xyz
x,y,z
-x,1/2-y,z
x,1/2-y,1/2-z
-x,y,1/2-z
-x,-y,-z
x,1/2+y,-z
-x,1/2+y,1/2+z
x,-y,1/2+z
1/2+x,1/2+y,z
1/2-x,-y,z
1/2+x,-y,1/2-z
1/2-x,1/2+y,1/2-z
1/2-x,1/2-y,-z
1/2+x,y,-z
1/2-x,y,1/2+z
1/2+x,1/2-y,1/2+z
loop_
_atom_site_type_symbol
_atom_site_label
_atom_site_fract_x
_atom_site_fract_y
_atom_site_fract_z
Si Si1 0.244425 0.813310 0.812802
Si Si2 0.555755 0.894821 0.653969
Si Si3 0.124412 0.231080 0.046738
Si Si4 0.889888 0.096342 0.320454
Si Si5 0.389934 0.965269 0.548771
Si Si6 0.750000 0.500000 0.893593
O O1 0.284078 0.750000 0.750000
O O2 0.352401 0.836691 0.872802
O O3 0.134922 0.785547 0.867295
O O4 0.210455 0.878395 0.748490
O O5 0.500000 0.883693 0.750000
O O6 0.444334 0.897044 0.591082
O O7 0.637279 0.965842 0.652308
O O8 0.114079 0.154794 0.098290
O O9 0.000000 0.250000 0.003080
O O10 0.250000 0.250000 0.000000
O O11 0.866661 0.022365 0.371566
O O12 0.000000 0.093417 0.250000
O O13 0.500000 0.000000 0.500000
O O14 0.200072 0.053530 0.470106
#
# Coordination Sequence:
#
# PCOD9509793 Si02
#       6
#    16  16  16  16  16   8
#     4  10  25  48  76 113 150 209 270 331 394 497
#     4  11  26  46  74 108 152 204 263 326 412 495
#     4  11  25  48  78 116 156 207 270 333 408 472
#     4  11  23  46  82 105 152 212 273 327 396 499
#     4  10  25  44  68 110 148 195 251 328 404 472
#     4  10  26  46  70 108 158 194 270 334 406 494
#
# _framework density 27.245677000000001
#
# number of rings (size 3 to 8) (size 9 to 14) (size 15 to 20)
#    0.000    1.455    1.818    0.545   15.273    0.364 
#    6.545    0.000    0.000    0.000    0.000    0.000 
#    0.000    0.000    0.000    0.000    0.000    0.000 
#
# Total GULP energy -245653.673050 kJ/mol
# GULP energy per Si atom -5583.038024 kJ/mol
# Density = 2.718366 g / cm^3
# Si number density = 27.245677 Si / 1000 Ang^3
#
#
#
# Elastic Constant Matrix: (Units=GPa)
#
#
# Indices 1 2 3 4 5 6 
#
# 1 149.4830 62.3055 43.4559 0.0000 0.0000 0.0000
# 2 62.3055 94.7622 28.9592 0.0000 0.0000 0.0000
# 3 43.4559 28.9592 57.7721 0.0000 0.0000 0.0000
# 4 0.0000 0.0000 0.0000 29.8391 0.0000 0.0000
# 5 0.0000 0.0000 0.0000 0.0000 72.9693 0.0000
# 6 0.0000 0.0000 0.0000 0.0000 0.0000 37.3810
#
#
#
# Elastic Compliance Matrix: (Units=1/GPa)
#
#
# Indices 1 2 3 4 5 6 
#
# 1 0.010381 -0.005242 -0.005181 0.000000 0.000000 0.000000
# 2 -0.005242 0.015109 -0.003631 0.000000 0.000000 0.000000
# 3 -0.005181 -0.003631 0.023026 0.000000 0.000000 0.000000
# 4 0.000000 0.000000 0.000000 0.033513 0.000000 0.000000
# 5 0.000000 0.000000 0.000000 0.000000 0.013704 0.000000
# 6 0.000000 0.000000 0.000000 0.000000 0.000000 0.026752
#
#
# Mechanical properties :
#
#
# Convention : Reuss Voigt Hill
#
# Bulk Modulus (GPa) = 48.99748 63.49539 56.24643
# Shear Modulus (GPa) = 31.76740 39.19099 35.47920
#
# Velocity S-wave (km/s) = 3.41832 3.79678 3.61251
# Velocity P-wave (km/s) = 5.79677 6.52503 6.17165
#
# Compressibility (1/GPa) = 0.02040921
#
# Stress axis : x y z
#
# Youngs Moduli (GPa) = 96.33271 66.18656 43.42901
#
# Poissons Ratio (x) = 0.34695 0.22499
# Poissons Ratio (y) = 0.50498 0.15767
# Poissons Ratio (z) = 0.49907 0.24029
#
# Static dielectric constant tensor:
#      x y z
#    x 2.007770 0.000000 0.000000 
#    y 0.000000 2.191900 0.000000 
#    z 0.000000 0.000000 7.187140 
# 
# From -- ./inp_files/29632.got.cif
#   From: 2010.05.17/outbox.cif.g08.bks.cpg/sg68_15_cif.got.tgz:29632.got - 2010.06.03 18:57:09.
