data_PCOD9509179
_publ_section_title
;
Structure prediction by ZEFSAII (Michael W. Deem and Ramdas Pophale) SiO2 
 PCOD9509179
Probable space group: C C C A
;
_chemical_formula_sum "Si O2"
_cell_formula_units_Z 64
_cell_length_a 14.627847
_cell_length_b 16.286639
_cell_length_c 11.192029
_cell_angle_alpha 90.000000
_cell_angle_beta 90.000000
_cell_angle_gamma 90.000000
_cell_volume 2666.371792
_symmetry_space_group_name_H-M "C C C A"
_symmetry_group_IT_number 68
_space_group.IT_coordinate_system_code '2'
_symmetry_cell_setting 'orthorhombic'
loop_
_space_group_symop_operation_xyz
x,y,z
-x,1/2-y,z
x,1/2-y,1/2-z
-x,y,1/2-z
-x,-y,-z
x,1/2+y,-z
-x,1/2+y,1/2+z
x,-y,1/2+z
1/2+x,1/2+y,z
1/2-x,-y,z
1/2+x,-y,1/2-z
1/2-x,1/2+y,1/2-z
1/2-x,1/2-y,-z
1/2+x,y,-z
1/2-x,y,1/2+z
1/2+x,1/2-y,1/2+z
loop_
_atom_site_type_symbol
_atom_site_label
_atom_site_fract_x
_atom_site_fract_y
_atom_site_fract_z
Si Si1 0.467344 0.427227 0.910970
Si Si2 0.357850 0.843636 0.490441
Si Si3 0.844069 0.329200 0.913704
Si Si4 0.156372 0.457245 0.787283
O O1 0.418642 0.472271 0.801109
O O2 0.500000 0.500000 0.000000
O O3 0.554829 0.367240 0.911221
O O4 0.385539 0.376518 0.973044
O O5 0.266243 0.826003 0.416109
O O6 0.377646 0.763774 0.571936
O O7 0.333528 0.916823 0.582095
O O8 0.872127 0.385003 0.802088
O O9 0.250000 0.500000 0.746631
#
# Coordination Sequence:
#
# PCOD9509179 Si02
#       4
#    16  16  16  16
#     4  10  23  41  65 101 136 178 237 298 352 417
#     4  10  23  44  69  99 137 188 235 296 363 426
#     4  11  23  43  69  96 143 188 235 292 365 429
#     4  11  23  40  67 100 139 181 239 296 353 425
#
# _framework density 24.002652999999999
#
# number of rings (size 3 to 8) (size 9 to 14) (size 15 to 20)
#    0.000    1.500    2.500    1.500    7.000    4.000 
#    0.000    5.000    0.000    0.000    0.000    0.000 
#    0.000    0.000    0.000    0.000    0.000    0.000 
#
# Total GULP energy -178966.379479 kJ/mol
# GULP energy per Si atom -5592.699359 kJ/mol
# Density = 2.394802 g / cm^3
# Si number density = 24.002653 Si / 1000 Ang^3
#
#
#
# Elastic Constant Matrix: (Units=GPa)
#
#
# Indices 1 2 3 4 5 6 
#
# 1 159.0440 58.3318 24.6605 0.0000 0.0000 0.0000
# 2 58.3318 138.7525 31.4400 0.0000 0.0000 0.0000
# 3 24.6605 31.4400 52.9627 0.0000 0.0000 0.0000
# 4 0.0000 0.0000 0.0000 59.0802 0.0000 0.0000
# 5 0.0000 0.0000 0.0000 0.0000 24.0882 0.0000
# 6 0.0000 0.0000 0.0000 0.0000 0.0000 38.0884
#
#
#
# Elastic Compliance Matrix: (Units=1/GPa)
#
#
# Indices 1 2 3 4 5 6 
#
# 1 0.007595 -0.002763 -0.001896 0.000000 0.000000 0.000000
# 2 -0.002763 0.009333 -0.004253 0.000000 0.000000 0.000000
# 3 -0.001896 -0.004253 0.022289 0.000000 0.000000 0.000000
# 4 0.000000 0.000000 0.000000 0.016926 0.000000 0.000000
# 5 0.000000 0.000000 0.000000 0.000000 0.041514 0.000000
# 6 0.000000 0.000000 0.000000 0.000000 0.000000 0.026255
#
#
# Mechanical properties :
#
#
# Convention : Reuss Voigt Hill
#
# Bulk Modulus (GPa) = 46.74847 64.40265 55.57556
# Shear Modulus (GPa) = 33.58696 40.00649 36.79672
#
# Velocity S-wave (km/s) = 3.74478 4.08702 3.91964
# Velocity P-wave (km/s) = 6.18195 7.01151 6.60976
#
# Compressibility (1/GPa) = 0.02139108
#
# Stress axis : x y z
#
# Youngs Moduli (GPa) = 131.66458 107.15153 44.86532
#
# Poissons Ratio (x) = 0.29610 0.08506
# Poissons Ratio (y) = 0.36384 0.19083
# Poissons Ratio (z) = 0.24964 0.45576
#
# Static dielectric constant tensor:
#      x y z
#    x 2.031800 0.000000 0.000000 
#    y 0.000000 1.910700 0.000000 
#    z 0.000000 0.000000 1.956110 
# 
# From -- ./inp_files/12784.got.cif
#   From: 2010.05.17/outbox.cif.g08.bks.cpg/sg68_7_cif.got.tgz:12784.got - 2010.06.03 18:57:09.
