data_PCOD9509407
_publ_section_title
;
Structure prediction by ZEFSAII (Michael W. Deem and Ramdas Pophale) SiO2 
 PCOD9509407
Probable space group: C C C A
;
_chemical_formula_sum "Si O2"
_cell_formula_units_Z 24
_cell_length_a 13.231317
_cell_length_b 13.197406
_cell_length_c 4.786842
_cell_angle_alpha 90.000000
_cell_angle_beta 90.000000
_cell_angle_gamma 90.000000
_cell_volume 835.873862
_symmetry_space_group_name_H-M "C C C A"
_symmetry_group_IT_number 68
_space_group.IT_coordinate_system_code '2'
_symmetry_cell_setting 'orthorhombic'
loop_
_space_group_symop_operation_xyz
x,y,z
-x,1/2-y,z
x,1/2-y,1/2-z
-x,y,1/2-z
-x,-y,-z
x,1/2+y,-z
-x,1/2+y,1/2+z
x,-y,1/2+z
1/2+x,1/2+y,z
1/2-x,-y,z
1/2+x,-y,1/2-z
1/2-x,1/2+y,1/2-z
1/2-x,1/2-y,-z
1/2+x,y,-z
1/2-x,y,1/2+z
1/2+x,1/2-y,1/2+z
loop_
_atom_site_type_symbol
_atom_site_label
_atom_site_fract_x
_atom_site_fract_y
_atom_site_fract_z
Si Si1 0.500000 0.500000 0.500000
Si Si2 0.675635 0.364273 0.292709
O O1 0.500000 0.590298 0.250000
O O2 0.413586 0.444971 0.249048
O O3 0.638967 0.250000 0.250000
O O4 0.731460 0.378889 0.583035
#
# Coordination Sequence:
#
# PCOD9509407 Si02
#       2
#     8  16
#     4  12  26  42  72 112 150 194 258 332 398 468
#     4  10  23  46  73 102 144 199 254 310 384 475
#
# _framework density 28.712464000000001
#
# number of rings (size 3 to 8) (size 9 to 14) (size 15 to 20)
#    0.000    1.333    0.000    4.000    0.000    9.333 
#    0.000    3.333    0.000    4.000    0.000    0.000 
#    0.000    0.000    0.000    0.000    0.000    0.000 
#
# Total GULP energy -67011.618902 kJ/mol
# GULP energy per Si atom -5584.301575 kJ/mol
# Density = 2.864711 g / cm^3
# Si number density = 28.712464 Si / 1000 Ang^3
#
#
#
# Elastic Constant Matrix: (Units=GPa)
#
#
# Indices 1 2 3 4 5 6 
#
# 1 204.2084 132.1098 -3.4616 0.0000 0.0000 0.0000
# 2 132.1098 217.2317 -4.9686 0.0000 0.0000 0.0000
# 3 -3.4616 -4.9686 279.1802 0.0000 0.0000 0.0000
# 4 0.0000 0.0000 0.0000 34.6679 0.0000 0.0000
# 5 0.0000 0.0000 0.0000 0.0000 -48.8709 0.0000
# 6 0.0000 0.0000 0.0000 0.0000 0.0000 34.7138
#
#
#
# Elastic Compliance Matrix: (Units=1/GPa)
#
#
# Indices 1 2 3 4 5 6 
#
# 1 0.008073 -0.004910 0.000013 0.000000 0.000000 0.000000
# 2 -0.004910 0.007591 0.000074 0.000000 0.000000 0.000000
# 3 0.000013 0.000074 0.003583 0.000000 0.000000 0.000000
# 4 0.000000 0.000000 0.000000 0.028845 0.000000 0.000000
# 5 0.000000 0.000000 0.000000 0.000000 -0.020462 0.000000
# 6 0.000000 0.000000 0.000000 0.000000 0.000000 0.028807
#
#
# Mechanical properties :
#
#
# Convention : Reuss Voigt Hill
#
# Bulk Modulus (GPa) = 104.14072 105.33105 104.73589
# Shear Modulus (GPa) = 72.16722 42.56485 57.36603
#
# Velocity S-wave (km/s) = 5.01887 3.85444 4.47469
# Velocity P-wave (km/s) = 8.36267 7.52153 7.95323
#
# Compressibility (1/GPa) = 0.00960239
#
# Stress axis : x y z
#
# Youngs Moduli (GPa) = 123.86497 131.73843 279.06499
#
# Poissons Ratio (x) = 0.64677 -0.00355
# Poissons Ratio (y) = 0.60812 -0.02071
# Poissons Ratio (z) = -0.00158 -0.00978
#
# Static dielectric constant tensor:
#      x y z
#    x 2.151910 0.000000 0.000000 
#    y 0.000000 2.101330 0.000000 
#    z 0.000000 0.000000 2.576190 
# 
# From -- ./inp_files/122.got.cif
#   From: 2010.05.17/outbox.cif.g08.bks.cpg/sg68_1_cif.got.tgz:122.got - 2010.06.03 18:57:09.
