data_PCOD9509173
_publ_section_title
;
Structure prediction by ZEFSAII (Michael W. Deem and Ramdas Pophale) SiO2 
 PCOD9509173
Probable space group: C C C A
;
_chemical_formula_sum "Si O2"
_cell_formula_units_Z 52
_cell_length_a 13.283683
_cell_length_b 5.059358
_cell_length_c 30.846098
_cell_angle_alpha 90.000000
_cell_angle_beta 90.000000
_cell_angle_gamma 90.000000
_cell_volume 2073.070866
_symmetry_space_group_name_H-M "C C C A"
_symmetry_group_IT_number 68
_space_group.IT_coordinate_system_code '2'
_symmetry_cell_setting 'orthorhombic'
loop_
_space_group_symop_operation_xyz
x,y,z
-x,1/2-y,z
x,1/2-y,1/2-z
-x,y,1/2-z
-x,-y,-z
x,1/2+y,-z
-x,1/2+y,1/2+z
x,-y,1/2+z
1/2+x,1/2+y,z
1/2-x,-y,z
1/2+x,-y,1/2-z
1/2-x,1/2+y,1/2-z
1/2-x,1/2-y,-z
1/2+x,y,-z
1/2-x,y,1/2+z
1/2+x,1/2-y,1/2+z
loop_
_atom_site_type_symbol
_atom_site_label
_atom_site_fract_x
_atom_site_fract_y
_atom_site_fract_z
Si Si1 0.629464 0.959180 0.124175
Si Si2 0.869397 0.539133 0.179476
Si Si3 0.128692 0.951773 0.472308
Si Si4 0.000000 0.750000 0.750000
O O1 0.604822 0.170080 0.161879
O O2 0.750000 0.000000 0.120925
O O3 0.608878 0.664338 0.140194
O O4 0.588292 0.009690 0.076208
O O5 0.750000 0.500000 0.188508
O O6 0.930296 0.435270 0.220356
O O7 0.102710 0.167969 0.508426
O O8 0.250000 0.000000 0.468864
#
# Coordination Sequence:
#
# PCOD9509173 Si02
#       4
#    16  16  16   4
#     4   9  18  35  56  85 127 168 204 257 322 376
#     4  10  23  41  63  91 127 165 210 268 326 390
#     4   9  15  24  46  82 120 158 205 252 296 365
#     4  12  28  46  72 100 124 170 228 278 340 400
#
# _framework density 25.083559000000001
#
# number of rings (size 3 to 8) (size 9 to 14) (size 15 to 20)
#    0.000    2.462    0.000    1.846    0.000   14.769 
#    0.000    0.000    0.000    0.000    0.000   21.538 
#    0.000    0.000    0.000    0.000    0.000    7.077 
#
# Total GULP energy -145696.838627 kJ/mol
# GULP energy per Si atom -5603.724563 kJ/mol
# Density = 2.502647 g / cm^3
# Si number density = 25.083559 Si / 1000 Ang^3
#
#
#
# Elastic Constant Matrix: (Units=GPa)
#
#
# Indices 1 2 3 4 5 6 
#
# 1 98.7177 -25.7597 25.7438 0.0000 0.0000 0.0000
# 2 -25.7597 97.9982 30.0972 0.0000 0.0000 0.0000
# 3 25.7438 30.0972 177.9294 0.0000 0.0000 0.0000
# 4 0.0000 0.0000 0.0000 -79.4303 0.0000 0.0000
# 5 0.0000 0.0000 0.0000 0.0000 19.4636 0.0000
# 6 0.0000 0.0000 0.0000 0.0000 0.0000 29.5067
#
#
#
# Elastic Compliance Matrix: (Units=1/GPa)
#
#
# Indices 1 2 3 4 5 6 
#
# 1 0.011733 0.003803 -0.002341 0.000000 0.000000 0.000000
# 2 0.003803 0.011996 -0.002579 0.000000 0.000000 0.000000
# 3 -0.002341 -0.002579 0.006395 0.000000 0.000000 0.000000
# 4 0.000000 0.000000 0.000000 -0.012590 0.000000 0.000000
# 5 0.000000 0.000000 0.000000 0.000000 0.051378 0.000000
# 6 0.000000 0.000000 0.000000 0.000000 0.000000 0.033891
#
#
# Mechanical properties :
#
#
# Convention : Reuss Voigt Hill
#
# Bulk Modulus (GPa) = 35.85583 48.31198 42.08391
# Shear Modulus (GPa) = 43.73150 16.87893 30.30522
#
# Velocity S-wave (km/s) = 4.17997 2.59686 3.47965
# Velocity P-wave (km/s) = 6.13366 5.31919 5.74089
#
# Compressibility (1/GPa) = 0.02788947
#
# Stress axis : x y z
#
# Youngs Moduli (GPa) = 85.23184 83.36046 156.36723
#
# Poissons Ratio (x) = -0.31702 0.36603
# Poissons Ratio (y) = -0.32413 0.40333
# Poissons Ratio (z) = 0.19951 0.21502
#
# Static dielectric constant tensor:
#      x y z
#    x 2.165970 0.000000 0.000000 
#    y 0.000000 1.978390 0.000000 
#    z 0.000000 0.000000 1.882890 
# 
# From -- ./inp_files/47923.got.cif
#   From: 2010.05.17/outbox.cif.g08.bks.cpg/sg68_24_cif.got.tgz:47923.got - 2010.06.03 18:57:09.
