data_PCOD9509326
_publ_section_title
;
Structure prediction by ZEFSAII (Michael W. Deem and Ramdas Pophale) SiO2 
 PCOD9509326
Probable space group: C C C A
;
_chemical_formula_sum "Si O2"
_cell_formula_units_Z 64
_cell_length_a 9.330495
_cell_length_b 24.644022
_cell_length_c 12.269001
_cell_angle_alpha 90.000000
_cell_angle_beta 90.000000
_cell_angle_gamma 90.000000
_cell_volume 2821.145427
_symmetry_space_group_name_H-M "C C C A"
_symmetry_group_IT_number 68
_space_group.IT_coordinate_system_code '2'
_symmetry_cell_setting 'orthorhombic'
loop_
_space_group_symop_operation_xyz
x,y,z
-x,1/2-y,z
x,1/2-y,1/2-z
-x,y,1/2-z
-x,-y,-z
x,1/2+y,-z
-x,1/2+y,1/2+z
x,-y,1/2+z
1/2+x,1/2+y,z
1/2-x,-y,z
1/2+x,-y,1/2-z
1/2-x,1/2+y,1/2-z
1/2-x,1/2-y,-z
1/2+x,y,-z
1/2-x,y,1/2+z
1/2+x,1/2-y,1/2+z
loop_
_atom_site_type_symbol
_atom_site_label
_atom_site_fract_x
_atom_site_fract_y
_atom_site_fract_z
Si Si1 0.237613 0.058167 0.649534
Si Si2 0.147083 0.651143 0.694047
Si Si3 0.992244 0.092252 0.499773
Si Si4 0.579510 0.802461 0.634427
O O1 0.268033 0.110381 0.724603
O O2 0.084476 0.062212 0.591224
O O3 0.362335 0.060976 0.557473
O O4 0.250000 0.000000 0.707892
O O5 0.099348 0.613434 0.593700
O O6 0.251696 0.699602 0.659328
O O7 0.000000 0.669438 0.750000
O O8 0.935001 0.146578 0.556420
O O9 0.500000 0.750000 0.586924
O O10 0.500000 0.811499 0.750000
#
# Coordination Sequence:
#
# PCOD9509326 Si02
#       4
#    16  16  16  16
#     4  11  23  41  67 100 135 181 224 281 338 400
#     4  10  23  44  65  96 142 175 227 284 336 410
#     4  11  22  43  67  98 137 175 231 279 330 414
#     4  11  23  43  71  97 131 182 223 284 356 397
#
# _framework density 22.68582
#
# number of rings (size 3 to 8) (size 9 to 14) (size 15 to 20)
#    0.000    1.250    5.000    0.750    0.000    2.000 
#   13.500    2.500    0.000    0.000    0.000    0.000 
#    0.000    0.000    0.000    0.000    0.000    0.000 
#
# Total GULP energy -178888.680613 kJ/mol
# GULP energy per Si atom -5590.271269 kJ/mol
# Density = 2.263419 g / cm^3
# Si number density = 22.685820 Si / 1000 Ang^3
#
#
#
# Elastic Constant Matrix: (Units=GPa)
#
#
# Indices 1 2 3 4 5 6 
#
# 1 82.1490 45.4440 -13.0990 0.0000 0.0000 0.0000
# 2 45.4440 92.3740 -9.2219 0.0000 0.0000 0.0000
# 3 -13.0990 -9.2219 30.7939 0.0000 0.0000 0.0000
# 4 0.0000 0.0000 0.0000 17.7942 0.0000 0.0000
# 5 0.0000 0.0000 0.0000 0.0000 23.5131 0.0000
# 6 0.0000 0.0000 0.0000 0.0000 0.0000 966.7890
#
#
#
# Elastic Compliance Matrix: (Units=1/GPa)
#
#
# Indices 1 2 3 4 5 6 
#
# 1 0.017440 -0.008081 0.004999 0.000000 0.000000 0.000000
# 2 -0.008081 0.014903 0.001026 0.000000 0.000000 0.000000
# 3 0.004999 0.001026 0.034908 0.000000 0.000000 0.000000
# 4 0.000000 0.000000 0.000000 0.056198 0.000000 0.000000
# 5 0.000000 0.000000 0.000000 0.000000 0.042529 0.000000
# 6 0.000000 0.000000 0.000000 0.000000 0.000000 0.001034
#
#
# Mechanical properties :
#
#
# Convention : Reuss Voigt Hill
#
# Bulk Modulus (GPa) = 15.83821 27.95144 21.89483
# Shear Modulus (GPa) = 26.01835 213.76551 119.89193
#
# Velocity S-wave (km/s) = 3.39026 9.71768 7.27761
# Velocity P-wave (km/s) = 4.72461 11.75835 8.96049
#
# Compressibility (1/GPa) = 0.06313843
#
# Stress axis : x y z
#
# Youngs Moduli (GPa) = 57.33851 67.09886 28.64714
#
# Poissons Ratio (x) = 0.54221 -0.14320
# Poissons Ratio (y) = 0.46334 -0.02938
# Poissons Ratio (z) = -0.28662 -0.06883
#
# Static dielectric constant tensor:
#      x y z
#    x 1.480000 0.000000 0.000000 
#    y 0.000000 1.849800 0.000000 
#    z 0.000000 0.000000 1.849250 
# 
# From -- ./inp_files/10767.got.cif
#   From: 2010.05.17/outbox.cif.g08.bks.cpg/sg68_6_cif.got.tgz:10767.got - 2010.06.03 18:57:09.
