data_PCOD9509548
_publ_section_title
;
Structure prediction by ZEFSAII (Michael W. Deem and Ramdas Pophale) SiO2 
 PCOD9509548
Probable space group: C C C A
;
_chemical_formula_sum "Si O2"
_cell_formula_units_Z 72
_cell_length_a 16.539679
_cell_length_b 20.705426
_cell_length_c 8.640047
_cell_angle_alpha 90.000000
_cell_angle_beta 90.000000
_cell_angle_gamma 90.000000
_cell_volume 2958.879996
_symmetry_space_group_name_H-M "C C C A"
_symmetry_group_IT_number 68
_space_group.IT_coordinate_system_code '2'
_symmetry_cell_setting 'orthorhombic'
loop_
_space_group_symop_operation_xyz
x,y,z
-x,1/2-y,z
x,1/2-y,1/2-z
-x,y,1/2-z
-x,-y,-z
x,1/2+y,-z
-x,1/2+y,1/2+z
x,-y,1/2+z
1/2+x,1/2+y,z
1/2-x,-y,z
1/2+x,-y,1/2-z
1/2-x,1/2+y,1/2-z
1/2-x,1/2-y,-z
1/2+x,y,-z
1/2-x,y,1/2+z
1/2+x,1/2-y,1/2+z
loop_
_atom_site_type_symbol
_atom_site_label
_atom_site_fract_x
_atom_site_fract_y
_atom_site_fract_z
Si Si1 0.500000 0.750000 0.479737
Si Si2 0.654679 0.906288 0.692369
Si Si3 0.866377 0.250000 0.250000
Si Si4 0.000000 0.665831 0.250000
Si Si5 0.438427 0.967657 0.375616
Si Si6 0.691383 0.363499 0.973855
O O1 0.430850 0.719233 0.372443
O O2 0.458972 0.795827 0.608134
O O3 0.568713 0.873181 0.664407
O O4 0.723192 0.896412 0.567067
O O5 0.624867 0.980591 0.699508
O O6 0.689826 0.867996 0.840561
O O7 0.819099 0.200171 0.136611
O O8 0.500000 0.941490 0.250000
O O9 0.383345 0.910517 0.435987
O O10 0.500000 0.000000 0.500000
#
# Coordination Sequence:
#
# PCOD9509548 Si02
#       6
#     8  16   8   8  16  16
#     4  10  24  42  74 104 146 200 260 312 384 470
#     4  12  27  49  75 112 159 199 266 325 398 466
#     4  11  26  48  72 111 156 202 264 323 396 478
#     4  11  22  48  74 104 146 205 254 322 388 465
#     4  12  26  48  81 113 155 205 260 325 402 473
#     4  12  29  47  74 114 157 205 261 325 396 470
#
# _framework density 24.333531000000001
#
# number of rings (size 3 to 8) (size 9 to 14) (size 15 to 20)
#    0.000    0.444    5.556    0.667    9.333    4.444 
#    0.000    0.000    0.000    0.000    0.000    0.000 
#    0.000    0.000    0.000    0.000    0.000    0.000 
#
# Total GULP energy -200706.277238 kJ/mol
# GULP energy per Si atom -5575.174368 kJ/mol
# Density = 2.427815 g / cm^3
# Si number density = 24.333531 Si / 1000 Ang^3
#
#
#
# Elastic Constant Matrix: (Units=GPa)
#
#
# Indices 1 2 3 4 5 6 
#
# 1 114.6629 7.1916 14.4864 0.0000 0.0000 0.0000
# 2 7.1916 65.8650 15.6673 0.0000 0.0000 0.0000
# 3 14.4864 15.6673 88.7636 0.0000 0.0000 0.0000
# 4 0.0000 0.0000 0.0000 25.6207 0.0000 0.0000
# 5 0.0000 0.0000 0.0000 0.0000 50.7808 0.0000
# 6 0.0000 0.0000 0.0000 0.0000 0.0000 6.0712
#
#
#
# Elastic Compliance Matrix: (Units=1/GPa)
#
#
# Indices 1 2 3 4 5 6 
#
# 1 0.008932 -0.000656 -0.001342 0.000000 0.000000 0.000000
# 2 -0.000656 0.015896 -0.002699 0.000000 0.000000 0.000000
# 3 -0.001342 -0.002699 0.011961 0.000000 0.000000 0.000000
# 4 0.000000 0.000000 0.000000 0.039031 0.000000 0.000000
# 5 0.000000 0.000000 0.000000 0.000000 0.019692 0.000000
# 6 0.000000 0.000000 0.000000 0.000000 0.000000 0.164713
#
#
# Mechanical properties :
#
#
# Convention : Reuss Voigt Hill
#
# Bulk Modulus (GPa) = 36.50172 38.22022 37.36097
# Shear Modulus (GPa) = 17.93719 31.95763 24.94741
#
# Velocity S-wave (km/s) = 2.71798 3.62790 3.20539
# Velocity P-wave (km/s) = 4.98829 5.76973 5.39318
#
# Compressibility (1/GPa) = 0.02739597
#
# Stress axis : x y z
#
# Youngs Moduli (GPa) = 111.95828 62.90838 83.60360
#
# Poissons Ratio (x) = 0.04127 0.11219
# Poissons Ratio (y) = 0.07345 0.22562
# Poissons Ratio (z) = 0.15024 0.16977
#
# Static dielectric constant tensor:
#      x y z
#    x 1.945160 0.000000 0.000000 
#    y 0.000000 2.081940 0.000000 
#    z 0.000000 0.000000 2.605160 
# 
# From -- ./inp_files/6137.got.cif
#   From: 2010.05.17/outbox.cif.g08.bks.cpg/sg68_4_cif.got.tgz:6137.got - 2010.06.03 18:57:09.
