data_PCOD9509069
_publ_section_title
;
Structure prediction by ZEFSAII (Michael W. Deem and Ramdas Pophale) SiO2 
 PCOD9509069
Probable space group: C C C A
;
_chemical_formula_sum "Si O2"
_cell_formula_units_Z 92
_cell_length_a 7.474454
_cell_length_b 21.341206
_cell_length_c 25.919937
_cell_angle_alpha 90.000000
_cell_angle_beta 90.000000
_cell_angle_gamma 90.000000
_cell_volume 4134.589268
_symmetry_space_group_name_H-M "C C C A"
_symmetry_group_IT_number 68
_space_group.IT_coordinate_system_code '2'
_symmetry_cell_setting 'orthorhombic'
loop_
_space_group_symop_operation_xyz
x,y,z
-x,1/2-y,z
x,1/2-y,1/2-z
-x,y,1/2-z
-x,-y,-z
x,1/2+y,-z
-x,1/2+y,1/2+z
x,-y,1/2+z
1/2+x,1/2+y,z
1/2-x,-y,z
1/2+x,-y,1/2-z
1/2-x,1/2+y,1/2-z
1/2-x,1/2-y,-z
1/2+x,y,-z
1/2-x,y,1/2+z
1/2+x,1/2-y,1/2+z
loop_
_atom_site_type_symbol
_atom_site_label
_atom_site_fract_x
_atom_site_fract_y
_atom_site_fract_z
Si Si1 0.750000 0.500000 0.627365
Si Si2 0.000000 0.750000 0.750000
Si Si3 0.127901 0.373973 0.427211
Si Si4 0.975494 0.823239 0.479378
Si Si5 0.412887 0.453224 0.195823
Si Si6 0.121007 0.663327 0.131574
Si Si7 0.223614 0.204605 0.160879
O O1 0.803912 0.558981 0.591552
O O2 0.577344 0.517476 0.662383
O O3 0.869251 0.792387 0.784238
O O4 0.985069 0.370181 0.472416
O O5 0.282226 0.333380 0.454903
O O6 0.092405 0.333453 0.376541
O O7 0.101117 0.839490 0.430285
O O8 0.000000 0.750000 0.493127
O O9 0.500000 0.431278 0.250000
O O10 0.250000 0.500000 0.207791
O O11 0.324459 0.399433 0.160248
O O12 0.235629 0.724159 0.144808
O O13 0.919148 0.673711 0.154828
#
# Coordination Sequence:
#
# PCOD9509069 Si02
#       7
#     8   4  16  16  16  16  16
#     4  12  26  52  66 108 144 186 246 300 348 442
#     4  12  28  34  64 116 136 170 232 300 380 406
#     4  11  25  43  70  98 146 179 239 292 350 441
#     4  11  21  42  73 101 135 188 222 292 366 422
#     4  12  27  49  77 101 141 198 245 296 365 433
#     4  10  22  47  72  94 138 186 235 284 367 426
#     4  10  23  44  64  99 140 179 225 303 350 430
#
# _framework density 22.251303
#
# number of rings (size 3 to 8) (size 9 to 14) (size 15 to 20)
#    0.000    1.043    7.826    0.522    3.652    4.174 
#    4.696    0.000    0.000    0.000    0.000    0.000 
#    0.000    0.000    0.000    0.000    0.000    0.000 
#
# Total GULP energy -256964.876909 kJ/mol
# GULP energy per Si atom -5586.192976 kJ/mol
# Density = 2.220066 g / cm^3
# Si number density = 22.251303 Si / 1000 Ang^3
#
#
#
# Elastic Constant Matrix: (Units=GPa)
#
#
# Indices 1 2 3 4 5 6 
#
# 1 51.6990 14.5107 23.9857 0.0000 0.0000 0.0000
# 2 14.5107 89.0825 53.2705 0.0000 0.0000 0.0000
# 3 23.9857 53.2705 146.9161 0.0000 0.0000 0.0000
# 4 0.0000 0.0000 0.0000 53.0210 0.0000 0.0000
# 5 0.0000 0.0000 0.0000 0.0000 0.0174 0.0000
# 6 0.0000 0.0000 0.0000 0.0000 0.0000 16.5304
#
#
#
# Elastic Compliance Matrix: (Units=1/GPa)
#
#
# Indices 1 2 3 4 5 6 
#
# 1 0.021142 -0.001762 -0.002813 0.000000 0.000000 0.000000
# 2 -0.001762 0.014480 -0.004963 0.000000 0.000000 0.000000
# 3 -0.002813 -0.004963 0.009065 0.000000 0.000000 0.000000
# 4 0.000000 0.000000 0.000000 0.018860 0.000000 0.000000
# 5 0.000000 0.000000 0.000000 0.000000 57.370330 0.000000
# 6 0.000000 0.000000 0.000000 0.000000 0.000000 0.060495
#
#
# Mechanical properties :
#
#
# Convention : Reuss Voigt Hill
#
# Bulk Modulus (GPa) = 39.04286 52.35904 45.70095
# Shear Modulus (GPa) = 0.08692 26.97583 13.53137
#
# Velocity S-wave (km/s) = 0.19786 3.48562 2.46868
# Velocity P-wave (km/s) = 4.19960 6.30724 5.35807
#
# Compressibility (1/GPa) = 0.02561288
#
# Stress axis : x y z
#
# Youngs Moduli (GPa) = 47.29858 69.05974 110.31078
#
# Poissons Ratio (x) = 0.12167 0.31029
# Poissons Ratio (y) = 0.08333 0.54745
# Poissons Ratio (z) = 0.13305 0.34273
#
# Static dielectric constant tensor:
#      x y z
#    x 1.856400 0.000000 0.000000 
#    y 0.000000 1.981760 0.000000 
#    z 0.000000 0.000000 1.903410 
# 
# From -- ./inp_files/43177.got.cif
#   From: 2010.05.17/outbox.cif.g08.bks.cpg/sg68_22_cif.got.tgz:43177.got - 2010.06.03 18:57:09.
