data_PCOD9509376
_publ_section_title
;
Structure prediction by ZEFSAII (Michael W. Deem and Ramdas Pophale) SiO2 
 PCOD9509376
Probable space group: C C C A
;
_chemical_formula_sum "Si O2"
_cell_formula_units_Z 80
_cell_length_a 24.521264
_cell_length_b 7.847299
_cell_length_c 20.337675
_cell_angle_alpha 90.000000
_cell_angle_beta 90.000000
_cell_angle_gamma 90.000000
_cell_volume 3913.491154
_symmetry_space_group_name_H-M "C C C A"
_symmetry_group_IT_number 68
_space_group.IT_coordinate_system_code '2'
_symmetry_cell_setting 'orthorhombic'
loop_
_space_group_symop_operation_xyz
x,y,z
-x,1/2-y,z
x,1/2-y,1/2-z
-x,y,1/2-z
-x,-y,-z
x,1/2+y,-z
-x,1/2+y,1/2+z
x,-y,1/2+z
1/2+x,1/2+y,z
1/2-x,-y,z
1/2+x,-y,1/2-z
1/2-x,1/2+y,1/2-z
1/2-x,1/2-y,-z
1/2+x,y,-z
1/2-x,y,1/2+z
1/2+x,1/2-y,1/2+z
loop_
_atom_site_type_symbol
_atom_site_label
_atom_site_fract_x
_atom_site_fract_y
_atom_site_fract_z
Si Si1 0.500000 0.250000 0.411578
Si Si2 0.130603 0.250000 0.750000
Si Si3 0.542165 0.014283 0.691672
Si Si4 0.106535 0.247487 0.103425
Si Si5 0.313863 0.467411 0.364112
Si Si6 0.395916 0.589458 0.971899
O O1 0.488616 0.090661 0.364634
O O2 0.553847 0.208657 0.452268
O O3 0.090859 0.390212 0.716590
O O4 0.166562 0.148693 0.696576
O O5 0.500000 0.042700 0.750000
O O6 0.566960 0.181696 0.658627
O O7 0.157637 0.154634 0.137616
O O8 0.086055 0.092691 0.057571
O O9 0.116637 0.394638 0.049110
O O10 0.250000 0.500000 0.367826
O O11 0.341070 0.379978 0.429050
#
# Coordination Sequence:
#
# PCOD9509376 Si02
#       6
#     8   8  16  16  16  16
#     4  12  21  44  70  96 143 184 220 284 352 424
#     4  12  23  46  66  96 142 182 235 286 354 420
#     4  12  22  42  67 102 142 183 230 284 350 430
#     4  10  25  44  69 105 138 182 236 289 355 424
#     4  10  25  48  69 103 135 187 241 294 359 413
#     4  10  23  45  67 104 140 177 233 285 350 425
#
# _framework density 20.442105999999999
#
# number of rings (size 3 to 8) (size 9 to 14) (size 15 to 20)
#    1.200    0.000    4.000    1.200    0.000    7.200 
#    3.600    0.000    0.000    0.000    0.000    0.000 
#    0.000    0.000    0.000    0.000    0.000    0.000 
#
# Total GULP energy -223119.714727 kJ/mol
# GULP energy per Si atom -5577.992868 kJ/mol
# Density = 2.039558 g / cm^3
# Si number density = 20.442106 Si / 1000 Ang^3
#
#
#
# Elastic Constant Matrix: (Units=GPa)
#
#
# Indices 1 2 3 4 5 6 
#
# 1 174.3592 64.7723 86.7723 0.0000 0.0000 0.0000
# 2 64.7723 96.6254 42.8084 0.0000 0.0000 0.0000
# 3 86.7723 42.8084 87.7521 0.0000 0.0000 0.0000
# 4 0.0000 0.0000 0.0000 29.5315 0.0000 0.0000
# 5 0.0000 0.0000 0.0000 0.0000 -22.3225 0.0000
# 6 0.0000 0.0000 0.0000 0.0000 0.0000 19.8734
#
#
#
# Elastic Compliance Matrix: (Units=1/GPa)
#
#
# Indices 1 2 3 4 5 6 
#
# 1 0.012209 -0.003617 -0.010308 0.000000 0.000000 0.000000
# 2 -0.003617 0.014275 -0.003387 0.000000 0.000000 0.000000
# 3 -0.010308 -0.003387 0.023241 0.000000 0.000000 0.000000
# 4 0.000000 0.000000 0.000000 0.033862 0.000000 0.000000
# 5 0.000000 0.000000 0.000000 0.000000 -0.044798 0.000000
# 6 0.000000 0.000000 0.000000 0.000000 0.000000 0.050319
#
#
# Mechanical properties :
#
#
# Convention : Reuss Voigt Hill
#
# Bulk Modulus (GPa) = 66.22378 83.04918 74.63648
# Shear Modulus (GPa) = 38.83058 16.37541 27.60300
#
# Velocity S-wave (km/s) = 4.36310 2.83338 3.67863
# Velocity P-wave (km/s) = 7.60581 7.17069 7.39145
#
# Compressibility (1/GPa) = 0.01510032
#
# Stress axis : x y z
#
# Youngs Moduli (GPa) = 81.90635 70.05481 43.02791
#
# Poissons Ratio (x) = 0.25342 0.44353
# Poissons Ratio (y) = 0.29629 0.14571
# Poissons Ratio (z) = 0.84429 0.23724
#
# Static dielectric constant tensor:
#      x y z
#    x 1.653540 0.000000 0.000000 
#    y 0.000000 1.884630 0.000000 
#    z 0.000000 0.000000 1.749600 
# 
# From -- ./inp_files/40688.got.cif
#   From: 2010.05.17/outbox.cif.g08.bks.cpg/sg68_21_cif.got.tgz:40688.got - 2010.06.03 18:57:09.
