data_PCOD9509763
_publ_section_title
;
Structure prediction by ZEFSAII (Michael W. Deem and Ramdas Pophale) SiO2 
 PCOD9509763
Probable space group: C C C A
;
_chemical_formula_sum "Si O2"
_cell_formula_units_Z 84
_cell_length_a 7.985828
_cell_length_b 22.728433
_cell_length_c 19.118205
_cell_angle_alpha 90.000000
_cell_angle_beta 90.000000
_cell_angle_gamma 90.000000
_cell_volume 3470.056617
_symmetry_space_group_name_H-M "C C C A"
_symmetry_group_IT_number 68
_space_group.IT_coordinate_system_code '2'
_symmetry_cell_setting 'orthorhombic'
loop_
_space_group_symop_operation_xyz
x,y,z
-x,1/2-y,z
x,1/2-y,1/2-z
-x,y,1/2-z
-x,-y,-z
x,1/2+y,-z
-x,1/2+y,1/2+z
x,-y,1/2+z
1/2+x,1/2+y,z
1/2-x,-y,z
1/2+x,-y,1/2-z
1/2-x,1/2+y,1/2-z
1/2-x,1/2-y,-z
1/2+x,y,-z
1/2-x,y,1/2+z
1/2+x,1/2-y,1/2+z
loop_
_atom_site_type_symbol
_atom_site_label
_atom_site_fract_x
_atom_site_fract_y
_atom_site_fract_z
Si Si1 0.884423 0.381611 0.948180
Si Si2 0.500000 0.750000 0.750000
Si Si3 0.328598 0.136239 0.214534
Si Si4 0.380753 0.704865 0.031939
Si Si5 0.288774 0.436935 0.669253
Si Si6 0.846445 0.561332 0.599429
O O1 0.867913 0.426529 0.884500
O O2 0.024038 0.334072 0.972568
O O3 0.726430 0.341238 0.926213
O O4 0.853932 0.417355 0.019233
O O5 0.619498 0.795176 0.792129
O O6 0.500000 0.111148 0.250000
O O7 0.201204 0.115167 0.274250
O O8 0.260519 0.108620 0.143784
O O9 0.500000 0.750000 0.072119
O O10 0.250000 0.750000 0.000000
O O11 0.250000 0.500000 0.705073
O O12 0.465633 0.441811 0.629192
O O13 0.750000 0.500000 0.603401
#
# Coordination Sequence:
#
# PCOD9509763 Si02
#       6
#    16   4  16  16  16  16
#     4  11  23  42  66 107 140 183 239 294 359 416
#     4   8  24  52  74 108 128 196 222 296 344 424
#     4  10  24  50  73 102 135 185 234 282 356 422
#     4   9  20  41  61  93 139 186 230 281 344 420
#     4  12  26  44  71 104 143 189 236 295 360 425
#     4  12  26  44  71 104 144 185 237 296 351 424
#
# _framework density 24.207098999999999
#
# number of rings (size 3 to 8) (size 9 to 14) (size 15 to 20)
#    0.571    0.762    1.905    2.857    5.333    1.524 
#   17.143    1.905    0.000    0.000    0.000    0.000 
#    0.000    0.000    0.000    0.000    0.000    0.000 
#
# Total GULP energy -234222.647407 kJ/mol
# GULP energy per Si atom -5576.729700 kJ/mol
# Density = 2.415200 g / cm^3
# Si number density = 24.207099 Si / 1000 Ang^3
#
#
#
# Elastic Constant Matrix: (Units=GPa)
#
#
# Indices 1 2 3 4 5 6 
#
# 1 64.4458 43.9696 12.0813 0.0000 0.0000 0.0000
# 2 43.9696 168.8079 43.1788 0.0000 0.0000 0.0000
# 3 12.0813 43.1788 114.0576 0.0000 0.0000 0.0000
# 4 0.0000 0.0000 0.0000 7.2681 0.0000 0.0000
# 5 0.0000 0.0000 0.0000 0.0000 22.8279 0.0000
# 6 0.0000 0.0000 0.0000 0.0000 0.0000 54.4265
#
#
#
# Elastic Compliance Matrix: (Units=1/GPa)
#
#
# Indices 1 2 3 4 5 6 
#
# 1 0.018873 -0.004877 -0.000153 0.000000 0.000000 0.000000
# 2 -0.004877 0.007819 -0.002444 0.000000 0.000000 0.000000
# 3 -0.000153 -0.002444 0.009709 0.000000 0.000000 0.000000
# 4 0.000000 0.000000 0.000000 0.137588 0.000000 0.000000
# 5 0.000000 0.000000 0.000000 0.000000 0.043806 0.000000
# 6 0.000000 0.000000 0.000000 0.000000 0.000000 0.018373
#
#
# Mechanical properties :
#
#
# Convention : Reuss Voigt Hill
#
# Bulk Modulus (GPa) = 46.61041 60.64118 53.62579
# Shear Modulus (GPa) = 19.35989 33.44328 26.40158
#
# Velocity S-wave (km/s) = 2.83107 3.72095 3.30609
# Velocity P-wave (km/s) = 5.47570 6.60046 6.06421
#
# Compressibility (1/GPa) = 0.02145444
#
# Stress axis : x y z
#
# Youngs Moduli (GPa) = 52.98624 127.89088 102.99987
#
# Poissons Ratio (x) = 0.62369 0.01575
# Poissons Ratio (y) = 0.25840 0.25168
# Poissons Ratio (z) = 0.00810 0.31251
#
# Static dielectric constant tensor:
#      x y z
#    x 2.128700 0.000000 0.000000 
#    y 0.000000 1.967900 0.000000 
#    z 0.000000 0.000000 1.895830 
# 
# From -- ./inp_files/36193.got.cif
#   From: 2010.05.17/outbox.cif.g08.bks.cpg/sg68_19_cif.got.tgz:36193.got - 2010.06.03 18:57:09.
