data_PCOD9509455
_publ_section_title
;
Structure prediction by ZEFSAII (Michael W. Deem and Ramdas Pophale) SiO2 
 PCOD9509455
Probable space group: C C C A
;
_chemical_formula_sum "Si O2"
_cell_formula_units_Z 104
_cell_length_a 7.903100
_cell_length_b 20.798586
_cell_length_c 29.062948
_cell_angle_alpha 90.000000
_cell_angle_beta 90.000000
_cell_angle_gamma 90.000000
_cell_volume 4777.172816
_symmetry_space_group_name_H-M "C C C A"
_symmetry_group_IT_number 68
_space_group.IT_coordinate_system_code '2'
_symmetry_cell_setting 'orthorhombic'
loop_
_space_group_symop_operation_xyz
x,y,z
-x,1/2-y,z
x,1/2-y,1/2-z
-x,y,1/2-z
-x,-y,-z
x,1/2+y,-z
-x,1/2+y,1/2+z
x,-y,1/2+z
1/2+x,1/2+y,z
1/2-x,-y,z
1/2+x,-y,1/2-z
1/2-x,1/2+y,1/2-z
1/2-x,1/2-y,-z
1/2+x,y,-z
1/2-x,y,1/2+z
1/2+x,1/2-y,1/2+z
loop_
_atom_site_type_symbol
_atom_site_label
_atom_site_fract_x
_atom_site_fract_y
_atom_site_fract_z
Si Si1 0.801454 0.172324 0.247681
Si Si2 0.503748 0.828132 0.681196
Si Si3 0.818023 0.143488 0.904204
Si Si4 0.276580 0.220317 0.449251
Si Si5 0.043098 0.884735 0.913481
Si Si6 0.485135 0.594845 0.521195
Si Si7 0.750000 0.500000 0.424870
O O1 0.811849 0.250000 0.250000
O O2 0.661396 0.155381 0.287196
O O3 0.687405 0.155706 0.202559
O O4 0.000000 0.149737 0.250000
O O5 0.500000 0.750000 0.676722
O O6 0.464375 0.862764 0.633236
O O7 0.820653 0.217961 0.919189
O O8 0.631389 0.125600 0.887177
O O9 0.844791 0.099192 0.948987
O O10 0.250000 0.250000 0.500000
O O11 0.131752 0.184010 0.420592
O O12 0.398609 0.161420 0.462246
O O13 0.155774 0.944069 0.896520
O O14 0.013634 0.902745 0.967450
O O15 0.378030 0.537323 0.541529
#
# Coordination Sequence:
#
# PCOD9509455 Si02
#       7
#    16  16  16  16  16  16   8
#     4   8  15  33  56  76 113 162 191 226 285 352
#     4   9  18  33  51  83 120 152 198 234 280 367
#     4  12  22  33  55  85 115 154 195 246 308 365
#     4  11  20  35  52  74 116 156 198 241 310 359
#     4  11  22  37  54  74 105 160 207 259 297 353
#     4  11  21  36  56  73 105 155 200 263 300 347
#     4  10  24  40  50  72  98 144 224 262 296 342
#
# _framework density 21.770199999999999
#
# number of rings (size 3 to 8) (size 9 to 14) (size 15 to 20)
#    0.000    1.692    3.077    4.154    0.000    0.615 
#   16.615    0.000    0.000    0.000    0.000    0.000 
#    0.000    9.846    0.000    8.000    0.000    1.231 
#
# Total GULP energy -289899.995849 kJ/mol
# GULP energy per Si atom -5574.999920 kJ/mol
# Density = 2.172065 g / cm^3
# Si number density = 21.770200 Si / 1000 Ang^3
#
#
#
# Elastic Constant Matrix: (Units=GPa)
#
#
# Indices 1 2 3 4 5 6 
#
# 1 140.9814 35.0182 31.2584 0.0000 0.0000 0.0000
# 2 35.0182 88.6827 6.8448 0.0000 0.0000 0.0000
# 3 31.2584 6.8448 62.1364 0.0000 0.0000 0.0000
# 4 0.0000 0.0000 0.0000 0.9194 0.0000 0.0000
# 5 0.0000 0.0000 0.0000 0.0000 23.1616 0.0000
# 6 0.0000 0.0000 0.0000 0.0000 0.0000 19.6313
#
#
#
# Elastic Compliance Matrix: (Units=1/GPa)
#
#
# Indices 1 2 3 4 5 6 
#
# 1 0.008778 -0.003152 -0.004069 0.000000 0.000000 0.000000
# 2 -0.003152 0.012505 0.000208 0.000000 0.000000 0.000000
# 3 -0.004069 0.000208 0.018118 0.000000 0.000000 0.000000
# 4 0.000000 0.000000 0.000000 1.087629 0.000000 0.000000
# 5 0.000000 0.000000 0.000000 0.000000 0.043175 0.000000
# 6 0.000000 0.000000 0.000000 0.000000 0.000000 0.050939
#
#
# Mechanical properties :
#
#
# Convention : Reuss Voigt Hill
#
# Bulk Modulus (GPa) = 39.40866 48.67148 44.04007
# Shear Modulus (GPa) = 4.02050 23.32106 13.67078
#
# Velocity S-wave (km/s) = 1.36044 3.27653 2.50863
# Velocity P-wave (km/s) = 4.53973 6.05967 5.35391
#
# Compressibility (1/GPa) = 0.02537513
#
# Stress axis : x y z
#
# Youngs Moduli (GPa) = 113.91812 79.96929 55.19518
#
# Poissons Ratio (x) = 0.25208 0.22458
# Poissons Ratio (y) = 0.35910 -0.01150
# Poissons Ratio (z) = 0.46350 -0.01665
#
# Static dielectric constant tensor:
#      x y z
#    x 2.115260 0.000000 0.000000 
#    y 0.000000 1.856170 0.000000 
#    z 0.000000 0.000000 1.846600 
# 
# From -- ./inp_files/54148.got.cif
#   From: 2010.05.17/outbox.cif.g08.bks.cpg/sg68_28_cif.got.tgz:54148.got - 2010.06.03 18:57:09.
