data_PCOD9509281
_publ_section_title
;
Structure prediction by ZEFSAII (Michael W. Deem and Ramdas Pophale) SiO2 
 PCOD9509281
Probable space group: C C C A
;
_chemical_formula_sum "Si O2"
_cell_formula_units_Z 112
_cell_length_a 11.939081
_cell_length_b 14.825222
_cell_length_c 30.986781
_cell_angle_alpha 90.000000
_cell_angle_beta 90.000000
_cell_angle_gamma 90.000000
_cell_volume 5484.645559
_symmetry_space_group_name_H-M "C C C A"
_symmetry_group_IT_number 68
_space_group.IT_coordinate_system_code '2'
_symmetry_cell_setting 'orthorhombic'
loop_
_space_group_symop_operation_xyz
x,y,z
-x,1/2-y,z
x,1/2-y,1/2-z
-x,y,1/2-z
-x,-y,-z
x,1/2+y,-z
-x,1/2+y,1/2+z
x,-y,1/2+z
1/2+x,1/2+y,z
1/2-x,-y,z
1/2+x,-y,1/2-z
1/2-x,1/2+y,1/2-z
1/2-x,1/2-y,-z
1/2+x,y,-z
1/2-x,y,1/2+z
1/2+x,1/2-y,1/2+z
loop_
_atom_site_type_symbol
_atom_site_label
_atom_site_fract_x
_atom_site_fract_y
_atom_site_fract_z
Si Si1 0.703164 0.101929 0.525678
Si Si2 0.367484 0.645839 0.253711
Si Si3 0.376858 0.757613 0.644980
Si Si4 0.022957 0.646465 0.597225
Si Si5 0.691712 0.407245 0.652604
Si Si6 0.784262 0.097955 0.162392
Si Si7 0.124118 0.734965 0.455641
O O1 0.593889 0.103906 0.557393
O O2 0.796221 0.176226 0.541255
O O3 0.672429 0.147624 0.479901
O O4 0.750000 0.000000 0.523381
O O5 0.324112 0.750000 0.250000
O O6 0.500000 0.652948 0.250000
O O7 0.354175 0.593655 0.298685
O O8 0.314370 0.596278 0.212733
O O9 0.500000 0.750000 0.664986
O O10 0.286949 0.831449 0.658460
O O11 0.318510 0.662596 0.652451
O O12 0.389706 0.781562 0.594718
O O13 0.109517 0.638002 0.637013
O O14 0.000000 0.750000 0.585588
O O15 0.904790 0.611838 0.616932
O O16 0.750000 0.500000 0.641104
O O17 0.750000 0.000000 0.145998
O O18 0.000000 0.750000 0.474514
#
# Coordination Sequence:
#
# PCOD9509281 Si02
#       7
#    16  16  16  16  16  16  16
#     4  11  24  42  70 103 136 180 236 283 349 418
#     4  11  21  41  69  99 137 181 234 286 339 408
#     4  11  25  44  65  94 138 181 220 289 356 408
#     4  12  22  43  71 101 136 179 232 282 341 411
#     4  12  26  43  67 104 138 180 232 287 348 411
#     4  12  24  41  69 101 131 181 234 286 337 409
#     4  10  23  43  66  96 138 180 228 294 351 412
#
# _framework density 20.420645
#
# number of rings (size 3 to 8) (size 9 to 14) (size 15 to 20)
#    0.000    0.714    5.714    1.286    2.000    3.429 
#    0.000    1.429    0.000    0.000    0.000    0.000 
#    0.000    0.000    0.000    0.000    0.000    0.000 
#
# Total GULP energy -312365.743370 kJ/mol
# GULP energy per Si atom -5577.959703 kJ/mol
# Density = 2.037417 g / cm^3
# Si number density = 20.420645 Si / 1000 Ang^3
#
#
#
# Elastic Constant Matrix: (Units=GPa)
#
#
# Indices 1 2 3 4 5 6 
#
# 1 123.3768 50.7423 15.3060 0.0000 0.0000 0.0000
# 2 50.7423 122.7351 10.5780 0.0000 0.0000 0.0000
# 3 15.3060 10.5780 73.1827 0.0000 0.0000 0.0000
# 4 0.0000 0.0000 0.0000 0.7428 0.0000 0.0000
# 5 0.0000 0.0000 0.0000 0.0000 -4.0185 0.0000
# 6 0.0000 0.0000 0.0000 0.0000 0.0000 41.3942
#
#
#
# Elastic Compliance Matrix: (Units=1/GPa)
#
#
# Indices 1 2 3 4 5 6 
#
# 1 0.009926 -0.003974 -0.001502 0.000000 0.000000 0.000000
# 2 -0.003974 0.009842 -0.000591 0.000000 0.000000 0.000000
# 3 -0.001502 -0.000591 0.014064 0.000000 0.000000 0.000000
# 4 0.000000 0.000000 0.000000 1.346340 0.000000 0.000000
# 5 0.000000 0.000000 0.000000 0.000000 -0.248849 0.000000
# 6 0.000000 0.000000 0.000000 0.000000 0.000000 0.024158
#
#
# Mechanical properties :
#
#
# Convention : Reuss Voigt Hill
#
# Bulk Modulus (GPa) = 46.08862 52.50523 49.29693
# Shear Modulus (GPa) = 4.25587 23.80158 14.02873
#
# Velocity S-wave (km/s) = 1.44521 3.41774 2.62389
# Velocity P-wave (km/s) = 5.04018 6.42979 5.77692
#
# Compressibility (1/GPa) = 0.02169733
#
# Stress axis : x y z
#
# Youngs Moduli (GPa) = 100.74466 101.60850 71.10375
#
# Poissons Ratio (x) = 0.40382 0.10677
# Poissons Ratio (y) = 0.40039 0.04205
# Poissons Ratio (z) = 0.15127 0.06008
#
# Static dielectric constant tensor:
#      x y z
#    x 1.859500 0.000000 0.000000 
#    y 0.000000 1.560290 0.000000 
#    z 0.000000 0.000000 1.788030 
# 
# From -- ./inp_files/54846.got.cif
#   From: 2010.05.17/outbox.cif.g08.bks.cpg/sg68_28_cif.got.tgz:54846.got - 2010.06.03 18:57:09.
