data_PCOD9509974
_publ_section_title
;
Structure prediction by ZEFSAII (Michael W. Deem and Ramdas Pophale) SiO2 
 PCOD9509974
Probable space group: C C C A
;
_chemical_formula_sum "Si O2"
_cell_formula_units_Z 96
_cell_length_a 14.777493
_cell_length_b 15.599260
_cell_length_c 22.068419
_cell_angle_alpha 90.000000
_cell_angle_beta 90.000000
_cell_angle_gamma 90.000000
_cell_volume 5087.166828
_symmetry_space_group_name_H-M "C C C A"
_symmetry_group_IT_number 68
_space_group.IT_coordinate_system_code '2'
_symmetry_cell_setting 'orthorhombic'
loop_
_space_group_symop_operation_xyz
x,y,z
-x,1/2-y,z
x,1/2-y,1/2-z
-x,y,1/2-z
-x,-y,-z
x,1/2+y,-z
-x,1/2+y,1/2+z
x,-y,1/2+z
1/2+x,1/2+y,z
1/2-x,-y,z
1/2+x,-y,1/2-z
1/2-x,1/2+y,1/2-z
1/2-x,1/2-y,-z
1/2+x,y,-z
1/2-x,y,1/2+z
1/2+x,1/2-y,1/2+z
loop_
_atom_site_type_symbol
_atom_site_label
_atom_site_fract_x
_atom_site_fract_y
_atom_site_fract_z
Si Si1 0.939343 0.671830 0.382938
Si Si2 0.752854 0.253355 0.425015
Si Si3 0.459857 0.593253 0.490758
Si Si4 0.504216 0.007717 0.678457
Si Si5 0.938480 0.672459 0.877789
Si Si6 0.675726 0.570423 0.103620
O O1 0.837180 0.704531 0.395976
O O2 0.972713 0.648412 0.450170
O O3 0.957103 0.581686 0.348476
O O4 0.000000 0.750000 0.357813
O O5 0.750000 0.250000 0.500000
O O6 0.841358 0.303925 0.403546
O O7 0.773762 0.161698 0.392878
O O8 0.500000 0.500000 0.500000
O O9 0.505178 0.643870 0.436415
O O10 0.359989 0.574863 0.465794
O O11 0.500000 0.997202 0.750000
O O12 0.567492 0.089471 0.664380
O O13 0.409321 0.040003 0.646279
O O14 0.000000 0.750000 0.850757
O O15 0.750000 0.500000 0.112578
#
# Coordination Sequence:
#
# PCOD9509974 Si02
#       6
#    16  16  16  16  16  16
#     4  12  24  41  66  99 138 174 217 268 343 405
#     4  12  23  36  66 106 136 168 202 273 351 415
#     4  11  20  36  65  96 133 178 207 268 335 415
#     4  11  26  49  70  87 127 187 234 284 322 378
#     4  11  21  42  65  97 134 163 224 270 334 397
#     4  11  23  41  64  97 132 171 222 271 342 402
#
# _framework density 18.871015
#
# number of rings (size 3 to 8) (size 9 to 14) (size 15 to 20)
#    0.000    0.667    8.333    2.500    2.333    1.333 
#    3.000    0.000    0.000    0.000    0.000    0.000 
#    0.000    0.000    0.000    0.000    0.000    0.000 
#
# Total GULP energy -267226.238743 kJ/mol
# GULP energy per Si atom -5567.213307 kJ/mol
# Density = 1.882806 g / cm^3
# Si number density = 18.871015 Si / 1000 Ang^3
#
#
#
# Elastic Constant Matrix: (Units=GPa)
#
#
# Indices 1 2 3 4 5 6 
#
# 1 94.2718 87.1910 21.0296 0.0000 0.0000 0.0000
# 2 87.1910 148.3073 52.5940 0.0000 0.0000 0.0000
# 3 21.0296 52.5940 90.5147 0.0000 0.0000 0.0000
# 4 0.0000 0.0000 0.0000 5.0076 0.0000 0.0000
# 5 0.0000 0.0000 0.0000 0.0000 11.4154 0.0000
# 6 0.0000 0.0000 0.0000 0.0000 0.0000 57.0213
#
#
#
# Elastic Compliance Matrix: (Units=1/GPa)
#
#
# Indices 1 2 3 4 5 6 
#
# 1 0.024010 -0.015287 0.003305 0.000000 0.000000 0.000000
# 2 -0.015287 0.018226 -0.007039 0.000000 0.000000 0.000000
# 3 0.003305 -0.007039 0.014370 0.000000 0.000000 0.000000
# 4 0.000000 0.000000 0.000000 0.199697 0.000000 0.000000
# 5 0.000000 0.000000 0.000000 0.000000 0.087601 0.000000
# 6 0.000000 0.000000 0.000000 0.000000 0.000000 0.017537
#
#
# Mechanical properties :
#
#
# Convention : Reuss Voigt Hill
#
# Bulk Modulus (GPa) = 53.87072 72.74700 63.30886
# Shear Modulus (GPa) = 12.32523 26.17414 19.24969
#
# Velocity S-wave (km/s) = 2.55841 3.72829 3.19731
# Velocity P-wave (km/s) = 6.11033 7.56087 6.87397
#
# Compressibility (1/GPa) = 0.01856296
#
# Stress axis : x y z
#
# Youngs Moduli (GPa) = 41.65016 54.86543 69.58889
#
# Poissons Ratio (x) = 0.83874 -0.22996
# Poissons Ratio (y) = 0.63672 0.48982
# Poissons Ratio (z) = -0.13763 0.38619
#
# Static dielectric constant tensor:
#      x y z
#    x 1.693620 0.000000 0.000000 
#    y 0.000000 1.710930 0.000000 
#    z 0.000000 0.000000 1.623980 
# 
# From -- ./inp_files/38571.got.cif
#   From: 2010.05.17/outbox.cif.g08.bks.cpg/sg68_20_cif.got.tgz:38571.got - 2010.06.03 18:57:09.
