data_PCOD9509434
_publ_section_title
;
Structure prediction by ZEFSAII (Michael W. Deem and Ramdas Pophale) SiO2 
 PCOD9509434
Probable space group: C C C A
;
_chemical_formula_sum "Si O2"
_cell_formula_units_Z 72
_cell_length_a 8.956105
_cell_length_b 15.582867
_cell_length_c 22.337027
_cell_angle_alpha 90.000000
_cell_angle_beta 90.000000
_cell_angle_gamma 90.000000
_cell_volume 3117.395540
_symmetry_space_group_name_H-M "C C C A"
_symmetry_group_IT_number 68
_space_group.IT_coordinate_system_code '2'
_symmetry_cell_setting 'orthorhombic'
loop_
_space_group_symop_operation_xyz
x,y,z
-x,1/2-y,z
x,1/2-y,1/2-z
-x,y,1/2-z
-x,-y,-z
x,1/2+y,-z
-x,1/2+y,1/2+z
x,-y,1/2+z
1/2+x,1/2+y,z
1/2-x,-y,z
1/2+x,-y,1/2-z
1/2-x,1/2+y,1/2-z
1/2-x,1/2-y,-z
1/2+x,y,-z
1/2-x,y,1/2+z
1/2+x,1/2-y,1/2+z
loop_
_atom_site_type_symbol
_atom_site_label
_atom_site_fract_x
_atom_site_fract_y
_atom_site_fract_z
Si Si1 0.000000 0.750000 0.750000
Si Si2 0.500000 0.250000 0.250000
Si Si3 0.250000 0.000000 0.155491
Si Si4 0.000000 0.750000 0.989063
Si Si5 0.248085 0.819876 0.332046
Si Si6 0.735194 0.665110 0.577451
Si Si7 0.000000 0.470493 0.250000
Si Si8 0.750000 0.000000 0.656562
O O1 0.104278 0.689517 0.709474
O O2 0.607109 0.310334 0.288649
O O3 0.199722 0.924397 0.110035
O O4 0.134201 0.048940 0.200181
O O5 0.101683 0.682596 0.951747
O O6 0.111554 0.806478 0.029461
O O7 0.234193 0.737048 0.371798
O O8 0.260263 0.905942 0.371525
O O9 0.109069 0.509504 0.199921
#
# Coordination Sequence:
#
# PCOD9509434 Si02
#       8
#     4   4   8   8  16  16   8   8
#     4  10  24  36  60  98 136 180 232 260 340 434
#     4  10  24  36  60  98 136 180 232 260 340 434
#     4  11  28  46  75 104 152 189 224 276 363 422
#     4  10  26  52  72 100 132 172 266 312 340 404
#     4  11  24  39  64  97 136 186 219 280 342 420
#     4  11  26  48  73 101 136 185 236 305 355 402
#     4  10  26  42  62 114 148 178 232 270 322 470
#     4  11  24  38  63  92 144 183 224 264 327 416
#
# _framework density 23.096204
#
# number of rings (size 3 to 8) (size 9 to 14) (size 15 to 20)
#    0.000    1.333    0.000    2.667   24.889    0.889 
#    0.000    4.444    0.000    0.000    0.000    0.000 
#    0.000    0.000    0.000    0.000    0.000    0.000 
#
# Total GULP energy -200502.233840 kJ/mol
# GULP energy per Si atom -5569.506496 kJ/mol
# Density = 2.304364 g / cm^3
# Si number density = 23.096204 Si / 1000 Ang^3
#
#
#
# Elastic Constant Matrix: (Units=GPa)
#
#
# Indices 1 2 3 4 5 6 
#
# 1 115.5204 -6.3067 25.5984 0.0000 0.0000 0.0000
# 2 -6.3067 164.1714 21.3190 0.0000 0.0000 0.0000
# 3 25.5984 21.3190 71.4707 0.0000 0.0000 0.0000
# 4 0.0000 0.0000 0.0000 39.3147 0.0000 0.0000
# 5 0.0000 0.0000 0.0000 0.0000 -776.1884 0.0000
# 6 0.0000 0.0000 0.0000 0.0000 0.0000 15.9894
#
#
#
# Elastic Compliance Matrix: (Units=1/GPa)
#
#
# Indices 1 2 3 4 5 6 
#
# 1 0.009513 0.000840 -0.003658 0.000000 0.000000 0.000000
# 2 0.000840 0.006411 -0.002213 0.000000 0.000000 0.000000
# 3 -0.003658 -0.002213 0.015962 0.000000 0.000000 0.000000
# 4 0.000000 0.000000 0.000000 0.025436 0.000000 0.000000
# 5 0.000000 0.000000 0.000000 0.000000 -0.001288 0.000000
# 6 0.000000 0.000000 0.000000 0.000000 0.000000 0.062542
#
#
# Mechanical properties :
#
#
# Convention : Reuss Voigt Hill
#
# Bulk Modulus (GPa) = 45.82034 48.04263 46.93148
# Shear Modulus (GPa) = 36.78872 -123.47340 -43.34234
#
# Velocity S-wave (km/s) = 3.99538 -7.31960 -4.33667
# Velocity P-wave (km/s) = 6.41608 7.11260 2.17061
#
# Compressibility (1/GPa) = 0.02182437
#
# Stress axis : x y z
#
# Youngs Moduli (GPa) = 105.12014 155.98435 62.64838
#
# Poissons Ratio (x) = -0.13110 0.22916
# Poissons Ratio (y) = -0.08835 0.13866
# Poissons Ratio (z) = 0.38452 0.34524
#
# Static dielectric constant tensor:
#      x y z
#    x 1.766490 0.000000 0.000000 
#    y 0.000000 1.898730 0.000000 
#    z 0.000000 0.000000 1.863030 
# 
# From -- ./inp_files/49083.got.cif
#   From: 2010.05.17/outbox.cif.g08.bks.cpg/sg68_25_cif.got.tgz:49083.got - 2010.06.03 18:57:09.
