data_PCOD9509093
_publ_section_title
;
Structure prediction by ZEFSAII (Michael W. Deem and Ramdas Pophale) SiO2 
 PCOD9509093
Probable space group: C C C A
;
_chemical_formula_sum "Si O2"
_cell_formula_units_Z 96
_cell_length_a 25.284150
_cell_length_b 19.783087
_cell_length_c 7.610961
_cell_angle_alpha 90.000000
_cell_angle_beta 90.000000
_cell_angle_gamma 90.000000
_cell_volume 3806.991574
_symmetry_space_group_name_H-M "C C C A"
_symmetry_group_IT_number 68
_space_group.IT_coordinate_system_code '2'
_symmetry_cell_setting 'orthorhombic'
loop_
_space_group_symop_operation_xyz
x,y,z
-x,1/2-y,z
x,1/2-y,1/2-z
-x,y,1/2-z
-x,-y,-z
x,1/2+y,-z
-x,1/2+y,1/2+z
x,-y,1/2+z
1/2+x,1/2+y,z
1/2-x,-y,z
1/2+x,-y,1/2-z
1/2-x,1/2+y,1/2-z
1/2-x,1/2-y,-z
1/2+x,y,-z
1/2-x,y,1/2+z
1/2+x,1/2-y,1/2+z
loop_
_atom_site_type_symbol
_atom_site_label
_atom_site_fract_x
_atom_site_fract_y
_atom_site_fract_z
Si Si1 0.185189 0.891858 0.070693
Si Si2 0.928364 0.073983 0.860769
Si Si3 0.196994 0.400617 0.539032
Si Si4 0.844088 0.751277 0.949905
Si Si5 0.552637 0.328628 0.856666
Si Si6 0.409748 0.928646 0.056341
O O1 0.126164 0.915089 0.026094
O O2 0.189602 0.920452 0.263114
O O3 0.241141 0.908602 0.988491
O O4 0.181275 0.810225 0.057415
O O5 0.921675 0.087379 0.651202
O O6 0.963491 0.126332 0.972077
O O7 0.941260 0.995604 0.887220
O O8 0.174733 0.323407 0.521078
O O9 0.153831 0.441668 0.429470
O O10 0.823582 0.750000 0.750000
O O11 0.906415 0.728738 0.930670
O O12 0.500000 0.311840 0.750000
O O13 0.581110 0.371561 0.701724
#
# Coordination Sequence:
#
# PCOD9509093 Si02
#       6
#    16  16  16  16  16  16
#     4  10  23  37  63  96 128 174 215 259 320 387
#     4  10  23  42  66  95 135 164 216 272 320 390
#     4  11  22  38  62  95 129 175 216 258 323 386
#     4  11  21  40  62  88 128 160 210 270 309 388
#     4  11  25  44  68  95 123 170 218 273 337 383
#     4  11  22  42  65  94 133 172 209 275 325 377
#
# _framework density 25.216761000000002
#
# number of rings (size 3 to 8) (size 9 to 14) (size 15 to 20)
#    0.000    1.333    3.333    2.000    2.333    2.333 
#    0.000    3.333    0.000    0.000    0.000    0.000 
#    0.000    0.000    0.000    0.000    0.000    0.000 
#
# Total GULP energy -267673.878196 kJ/mol
# GULP energy per Si atom -5576.539129 kJ/mol
# Density = 2.515937 g / cm^3
# Si number density = 25.216761 Si / 1000 Ang^3
#
#
#
# Elastic Constant Matrix: (Units=GPa)
#
#
# Indices 1 2 3 4 5 6 
#
# 1 121.7778 -11.4906 40.9216 0.0000 0.0000 0.0000
# 2 -11.4906 88.1326 14.6300 0.0000 0.0000 0.0000
# 3 40.9216 14.6300 110.7534 0.0000 0.0000 0.0000
# 4 0.0000 0.0000 0.0000 18.8705 0.0000 0.0000
# 5 0.0000 0.0000 0.0000 0.0000 24.8825 0.0000
# 6 0.0000 0.0000 0.0000 0.0000 0.0000 -3.5354
#
#
#
# Elastic Compliance Matrix: (Units=1/GPa)
#
#
# Indices 1 2 3 4 5 6 
#
# 1 0.009676 0.001897 -0.003826 0.000000 0.000000 0.000000
# 2 0.001897 0.011973 -0.002282 0.000000 0.000000 0.000000
# 3 -0.003826 -0.002282 0.010744 0.000000 0.000000 0.000000
# 4 0.000000 0.000000 0.000000 0.052993 0.000000 0.000000
# 5 0.000000 0.000000 0.000000 0.000000 0.040189 0.000000
# 6 0.000000 0.000000 0.000000 0.000000 0.000000 -0.282850
#
#
# Mechanical properties :
#
#
# Convention : Reuss Voigt Hill
#
# Bulk Modulus (GPa) = 41.71850 45.42063 43.56957
# Shear Modulus (GPa) = -35.49561 26.48370 -4.50596
#
# Velocity S-wave (km/s) = -3.75590 3.24426 -1.33820
# Velocity P-wave (km/s) = 1.49303 5.66435 3.86366
#
# Compressibility (1/GPa) = 0.02397018
#
# Stress axis : x y z
#
# Youngs Moduli (GPa) = 103.34612 83.52346 93.07433
#
# Poissons Ratio (x) = -0.15841 0.35608
# Poissons Ratio (y) = -0.19601 0.21242
# Poissons Ratio (z) = 0.39538 0.19063
#
# Static dielectric constant tensor:
#      x y z
#    x 2.111620 0.000000 0.000000 
#    y 0.000000 2.135070 0.000000 
#    z 0.000000 0.000000 1.928300 
# 
# From -- ./inp_files/8140.got.cif
#   From: 2010.05.17/outbox.cif.g08.bks.cpg/sg68_5_cif.got.tgz:8140.got - 2010.06.03 18:57:09.
