data_PCOD9509614
_publ_section_title
;
Structure prediction by ZEFSAII (Michael W. Deem and Ramdas Pophale) SiO2 
 PCOD9509614
Probable space group: C C C A
;
_chemical_formula_sum "Si O2"
_cell_formula_units_Z 92
_cell_length_a 8.673484
_cell_length_b 20.756546
_cell_length_c 21.904972
_cell_angle_alpha 90.000000
_cell_angle_beta 90.000000
_cell_angle_gamma 90.000000
_cell_volume 3943.586492
_symmetry_space_group_name_H-M "C C C A"
_symmetry_group_IT_number 68
_space_group.IT_coordinate_system_code '2'
_symmetry_cell_setting 'orthorhombic'
loop_
_space_group_symop_operation_xyz
x,y,z
-x,1/2-y,z
x,1/2-y,1/2-z
-x,y,1/2-z
-x,-y,-z
x,1/2+y,-z
-x,1/2+y,1/2+z
x,-y,1/2+z
1/2+x,1/2+y,z
1/2-x,-y,z
1/2+x,-y,1/2-z
1/2-x,1/2+y,1/2-z
1/2-x,1/2-y,-z
1/2+x,y,-z
1/2-x,y,1/2+z
1/2+x,1/2-y,1/2+z
loop_
_atom_site_type_symbol
_atom_site_label
_atom_site_fract_x
_atom_site_fract_y
_atom_site_fract_z
Si Si1 0.504034 0.906141 0.943660
Si Si2 0.613703 0.855817 0.158144
Si Si3 0.750000 0.000000 0.998042
Si Si4 0.082788 0.536421 0.814735
Si Si5 0.628769 0.796800 0.033272
Si Si6 0.000000 0.750000 0.750000
Si Si7 0.070488 0.409899 0.682783
O O1 0.352876 0.948173 0.963892
O O2 0.500948 0.874911 0.875912
O O3 0.545218 0.847526 0.988930
O O4 0.640364 0.957438 0.955226
O O5 0.454099 0.896817 0.150705
O O6 0.680950 0.834774 0.092995
O O7 0.591805 0.797038 0.204575
O O8 0.749838 0.898547 0.186394
O O9 0.250000 0.500000 0.810915
O O10 0.000000 0.549492 0.750000
O O11 0.969965 0.481584 0.839422
O O12 0.500000 0.750000 0.059911
O O13 0.750000 0.750000 0.000000
O O14 0.000000 0.399023 0.750000
#
# Coordination Sequence:
#
# PCOD9509614 Si02
#       7
#    16  16   8  16  16   4  16
#     4  11  25  46  73 107 150 189 245 313 371 454
#     4  12  26  50  74 108 151 199 256 307 376 445
#     4  10  24  44  72 110 142 190 238 306 390 438
#     4  11  24  42  74 109 149 193 243 309 385 455
#     4  12  27  49  75 104 143 205 259 310 362 440
#     4  12  28  48  78 100 152 200 256 302 364 440
#     4  11  26  45  74 112 150 194 237 311 380 449
#
# _framework density 23.329017
#
# number of rings (size 3 to 8) (size 9 to 14) (size 15 to 20)
#    0.000    0.696    1.739    5.739    8.522    2.783 
#    0.000    2.174    0.000    0.000    0.000    0.000 
#    0.000    0.000    0.000    0.000    0.000    0.000 
#
# Total GULP energy -256630.648844 kJ/mol
# GULP energy per Si atom -5578.927149 kJ/mol
# Density = 2.327592 g / cm^3
# Si number density = 23.329017 Si / 1000 Ang^3
#
#
#
# Elastic Constant Matrix: (Units=GPa)
#
#
# Indices 1 2 3 4 5 6 
#
# 1 140.6160 64.6868 54.2195 0.0000 0.0000 0.0000
# 2 64.6868 111.5904 38.0443 0.0000 0.0000 0.0000
# 3 54.2195 38.0443 175.0688 0.0000 0.0000 0.0000
# 4 0.0000 0.0000 0.0000 31.1610 0.0000 0.0000
# 5 0.0000 0.0000 0.0000 0.0000 7.1767 0.0000
# 6 0.0000 0.0000 0.0000 0.0000 0.0000 46.4735
#
#
#
# Elastic Compliance Matrix: (Units=1/GPa)
#
#
# Indices 1 2 3 4 5 6 
#
# 1 0.010337 -0.005293 -0.002051 0.000000 0.000000 0.000000
# 2 -0.005293 0.012389 -0.001053 0.000000 0.000000 0.000000
# 3 -0.002051 -0.001053 0.006576 0.000000 0.000000 0.000000
# 4 0.000000 0.000000 0.000000 0.032091 0.000000 0.000000
# 5 0.000000 0.000000 0.000000 0.000000 0.139340 0.000000
# 6 0.000000 0.000000 0.000000 0.000000 0.000000 0.021518
#
#
# Mechanical properties :
#
#
# Convention : Reuss Voigt Hill
#
# Bulk Modulus (GPa) = 79.95103 82.35292 81.15197
# Shear Modulus (GPa) = 20.55795 34.98387 27.77091
#
# Velocity S-wave (km/s) = 2.97175 3.87665 3.45396
# Velocity P-wave (km/s) = 6.79121 7.44414 7.12516
#
# Compressibility (1/GPa) = 0.01250766
#
# Stress axis : x y z
#
# Youngs Moduli (GPa) = 96.73553 80.71937 152.06481
#
# Poissons Ratio (x) = 0.42725 0.31193
# Poissons Ratio (y) = 0.51203 0.16011
# Poissons Ratio (z) = 0.19843 0.08499
#
# Static dielectric constant tensor:
#      x y z
#    x 1.937340 0.000000 0.000000 
#    y 0.000000 2.608390 0.000000 
#    z 0.000000 0.000000 2.017220 
# 
# From -- ./inp_files/36326.got.cif
#   From: 2010.05.17/outbox.cif.g08.bks.cpg/sg68_19_cif.got.tgz:36326.got - 2010.06.03 18:57:09.
