data_PCOD9509323
_publ_section_title
;
Structure prediction by ZEFSAII (Michael W. Deem and Ramdas Pophale) SiO2 
 PCOD9509323
Probable space group: C C C A
;
_chemical_formula_sum "Si O2"
_cell_formula_units_Z 88
_cell_length_a 13.371902
_cell_length_b 26.197209
_cell_length_c 11.271461
_cell_angle_alpha 90.000000
_cell_angle_beta 90.000000
_cell_angle_gamma 90.000000
_cell_volume 3948.466182
_symmetry_space_group_name_H-M "C C C A"
_symmetry_group_IT_number 68
_space_group.IT_coordinate_system_code '2'
_symmetry_cell_setting 'orthorhombic'
loop_
_space_group_symop_operation_xyz
x,y,z
-x,1/2-y,z
x,1/2-y,1/2-z
-x,y,1/2-z
-x,-y,-z
x,1/2+y,-z
-x,1/2+y,1/2+z
x,-y,1/2+z
1/2+x,1/2+y,z
1/2-x,-y,z
1/2+x,-y,1/2-z
1/2-x,1/2+y,1/2-z
1/2-x,1/2-y,-z
1/2+x,y,-z
1/2-x,y,1/2+z
1/2+x,1/2-y,1/2+z
loop_
_atom_site_type_symbol
_atom_site_label
_atom_site_fract_x
_atom_site_fract_y
_atom_site_fract_z
Si Si1 0.244448 0.333344 0.521574
Si Si2 0.415017 0.112103 0.327413
Si Si3 0.000000 0.573060 0.750000
Si Si4 0.082536 0.907619 0.986208
Si Si5 0.386648 0.757032 0.109632
Si Si6 0.136769 0.015206 0.657305
O O1 0.182603 0.357978 0.630695
O O2 0.323408 0.374015 0.470845
O O3 0.314862 0.287060 0.561163
O O4 0.162950 0.310250 0.431097
O O5 0.500000 0.141321 0.250000
O O6 0.478713 0.100285 0.445355
O O7 0.389726 0.061184 0.250350
O O8 0.062887 0.602757 0.651654
O O9 0.071995 0.534542 0.819312
O O10 0.115432 0.964217 0.024769
O O11 0.500000 0.750000 0.063664
O O12 0.389076 0.750000 0.250000
O O13 0.250000 0.000000 0.672742
#
# Coordination Sequence:
#
# PCOD9509323 Si02
#       6
#    16  16   8  16  16  16
#     4  11  24  42  72 102 133 179 229 276 361 419
#     4  10  23  44  65 100 139 176 234 292 339 424
#     4  12  24  44  64 100 143 189 232 292 346 400
#     4  11  25  41  68  99 138 182 234 287 347 424
#     4  10  24  46  70  99 140 172 219 288 349 433
#     4  11  24  42  66  94 140 186 236 289 345 407
#
# _framework density 22.287133999999998
#
# number of rings (size 3 to 8) (size 9 to 14) (size 15 to 20)
#    0.000    1.273    2.727    2.727    7.636    3.636 
#    0.000    0.000    0.000    0.000    0.000    0.000 
#    0.000    0.000    0.000    0.000    0.000    0.000 
#
# Total GULP energy -245805.037914 kJ/mol
# GULP energy per Si atom -5586.478134 kJ/mol
# Density = 2.223641 g / cm^3
# Si number density = 22.287134 Si / 1000 Ang^3
#
#
#
# Elastic Constant Matrix: (Units=GPa)
#
#
# Indices 1 2 3 4 5 6 
#
# 1 159.4360 34.3243 25.9379 0.0000 0.0000 0.0000
# 2 34.3243 33.6861 15.6287 0.0000 0.0000 0.0000
# 3 25.9379 15.6287 84.8735 0.0000 0.0000 0.0000
# 4 0.0000 0.0000 0.0000 42.0363 0.0000 0.0000
# 5 0.0000 0.0000 0.0000 0.0000 20.5413 0.0000
# 6 0.0000 0.0000 0.0000 0.0000 0.0000 42.2906
#
#
#
# Elastic Compliance Matrix: (Units=1/GPa)
#
#
# Indices 1 2 3 4 5 6 
#
# 1 0.008119 -0.007787 -0.001047 0.000000 0.000000 0.000000
# 2 -0.007787 0.039927 -0.004973 0.000000 0.000000 0.000000
# 3 -0.001047 -0.004973 0.013018 0.000000 0.000000 0.000000
# 4 0.000000 0.000000 0.000000 0.023789 0.000000 0.000000
# 5 0.000000 0.000000 0.000000 0.000000 0.048683 0.000000
# 6 0.000000 0.000000 0.000000 0.000000 0.000000 0.023646
#
#
# Mechanical properties :
#
#
# Convention : Reuss Voigt Hill
#
# Bulk Modulus (GPa) = 29.89473 47.75303 38.82388
# Shear Modulus (GPa) = 25.51737 34.44728 29.98233
#
# Velocity S-wave (km/s) = 3.38736 3.93569 3.67178
# Velocity P-wave (km/s) = 5.36111 6.49043 5.95261
#
# Compressibility (1/GPa) = 0.03345071
#
# Stress axis : x y z
#
# Youngs Moduli (GPa) = 123.16980 25.04560 76.81695
#
# Poissons Ratio (x) = 0.19502 0.08045
# Poissons Ratio (y) = 0.95910 0.38198
# Poissons Ratio (z) = 0.12900 0.12454
#
# Static dielectric constant tensor:
#      x y z
#    x 1.752610 0.000000 0.000000 
#    y 0.000000 1.854120 0.000000 
#    z 0.000000 0.000000 1.878120 
# 
# From -- ./inp_files/12063.got.cif
#   From: 2010.05.17/outbox.cif.g08.bks.cpg/sg68_7_cif.got.tgz:12063.got - 2010.06.03 18:57:09.
