data_PCOD9509345
_publ_section_title
;
Structure prediction by ZEFSAII (Michael W. Deem and Ramdas Pophale) SiO2 
 PCOD9509345
Probable space group: C C C A
;
_chemical_formula_sum "Si O2"
_cell_formula_units_Z 64
_cell_length_a 10.625069
_cell_length_b 32.869361
_cell_length_c 8.165399
_cell_angle_alpha 90.000000
_cell_angle_beta 90.000000
_cell_angle_gamma 90.000000
_cell_volume 2851.677648
_symmetry_space_group_name_H-M "C C C A"
_symmetry_group_IT_number 68
_space_group.IT_coordinate_system_code '2'
_symmetry_cell_setting 'orthorhombic'
loop_
_space_group_symop_operation_xyz
x,y,z
-x,1/2-y,z
x,1/2-y,1/2-z
-x,y,1/2-z
-x,-y,-z
x,1/2+y,-z
-x,1/2+y,1/2+z
x,-y,1/2+z
1/2+x,1/2+y,z
1/2-x,-y,z
1/2+x,-y,1/2-z
1/2-x,1/2+y,1/2-z
1/2-x,1/2-y,-z
1/2+x,y,-z
1/2-x,y,1/2+z
1/2+x,1/2-y,1/2+z
loop_
_atom_site_type_symbol
_atom_site_label
_atom_site_fract_x
_atom_site_fract_y
_atom_site_fract_z
Si Si1 0.500000 0.547572 0.750000
Si Si2 0.410562 0.075498 0.588503
Si Si3 0.129241 0.335611 0.344549
Si Si4 0.682487 0.781278 0.624861
Si Si5 0.250000 0.000000 0.668384
O O1 0.489808 0.573014 0.580647
O O2 0.624559 0.519311 0.749114
O O3 0.500000 0.070696 0.750000
O O4 0.337516 0.118247 0.608319
O O5 0.310431 0.039083 0.581219
O O6 0.226045 0.311090 0.229256
O O7 0.103424 0.310186 0.508883
O O8 0.000000 0.338402 0.250000
O O9 0.623483 0.750000 0.750000
O O10 0.750000 0.750000 0.500000
#
# Coordination Sequence:
#
# PCOD9509345 Si02
#       5
#     8  16  16  16   8
#     4  12  28  46  76 108 149 206 257 318 386 444
#     4  11  27  46  70 107 148 195 255 310 371 451
#     4  10  23  44  69 103 143 185 240 298 365 443
#     4   9  20  42  70 101 137 180 232 294 363 441
#     4  12  26  48  76 110 152 204 264 312 380 462
#
# _framework density 22.44293
#
# number of rings (size 3 to 8) (size 9 to 14) (size 15 to 20)
#    0.000    1.500    1.250    1.500    7.000    6.500 
#    9.000    3.750    0.000    0.000    0.000    0.000 
#    0.000    0.000    0.000    0.000    0.000    0.000 
#
# Total GULP energy -178407.712813 kJ/mol
# GULP energy per Si atom -5575.241025 kJ/mol
# Density = 2.239185 g / cm^3
# Si number density = 22.442930 Si / 1000 Ang^3
#
#
#
# Elastic Constant Matrix: (Units=GPa)
#
#
# Indices 1 2 3 4 5 6 
#
# 1 84.8806 41.2409 43.5893 0.0000 0.0000 0.0000
# 2 41.2409 193.6441 77.0536 0.0000 0.0000 0.0000
# 3 43.5893 77.0536 158.5203 0.0000 0.0000 0.0000
# 4 0.0000 0.0000 0.0000 7.8196 0.0000 0.0000
# 5 0.0000 0.0000 0.0000 0.0000 21.4250 0.0000
# 6 0.0000 0.0000 0.0000 0.0000 0.0000 129.4773
#
#
#
# Elastic Compliance Matrix: (Units=1/GPa)
#
#
# Indices 1 2 3 4 5 6 
#
# 1 0.014221 -0.001826 -0.003023 0.000000 0.000000 0.000000
# 2 -0.001826 0.006637 -0.002724 0.000000 0.000000 0.000000
# 3 -0.003023 -0.002724 0.008464 0.000000 0.000000 0.000000
# 4 0.000000 0.000000 0.000000 0.127884 0.000000 0.000000
# 5 0.000000 0.000000 0.000000 0.000000 0.046675 0.000000
# 6 0.000000 0.000000 0.000000 0.000000 0.000000 0.007723
#
#
# Mechanical properties :
#
#
# Convention : Reuss Voigt Hill
#
# Bulk Modulus (GPa) = 70.54228 84.53472 77.53850
# Shear Modulus (GPa) = 21.60069 50.08845 35.84457
#
# Velocity S-wave (km/s) = 3.10574 4.72933 4.00076
# Velocity P-wave (km/s) = 6.66040 8.22012 7.48102
#
# Compressibility (1/GPa) = 0.01417590
#
# Stress axis : x y z
#
# Youngs Moduli (GPa) = 70.32002 150.67338 118.15237
#
# Poissons Ratio (x) = 0.27510 0.35716
# Poissons Ratio (y) = 0.12839 0.32185
# Poissons Ratio (z) = 0.21257 0.41044
#
# Static dielectric constant tensor:
#      x y z
#    x 1.776720 0.000000 0.000000 
#    y 0.000000 1.872230 0.000000 
#    z 0.000000 0.000000 1.773280 
# 
# From -- ./inp_files/4105.got.cif
#   From: 2010.05.17/outbox.cif.g08.bks.cpg/sg68_3_cif.got.tgz:4105.got - 2010.06.03 18:57:09.
