data_PCOD9509517
_publ_section_title
;
Structure prediction by ZEFSAII (Michael W. Deem and Ramdas Pophale) SiO2 
 PCOD9509517
Probable space group: C C C A
;
_chemical_formula_sum "Si O2"
_cell_formula_units_Z 108
_cell_length_a 11.387495
_cell_length_b 28.953110
_cell_length_c 13.714157
_cell_angle_alpha 90.000000
_cell_angle_beta 90.000000
_cell_angle_gamma 90.000000
_cell_volume 4521.604127
_symmetry_space_group_name_H-M "C C C A"
_symmetry_group_IT_number 68
_space_group.IT_coordinate_system_code '2'
_symmetry_cell_setting 'orthorhombic'
loop_
_space_group_symop_operation_xyz
x,y,z
-x,1/2-y,z
x,1/2-y,1/2-z
-x,y,1/2-z
-x,-y,-z
x,1/2+y,-z
-x,1/2+y,1/2+z
x,-y,1/2+z
1/2+x,1/2+y,z
1/2-x,-y,z
1/2+x,-y,1/2-z
1/2-x,1/2+y,1/2-z
1/2-x,1/2-y,-z
1/2+x,y,-z
1/2-x,y,1/2+z
1/2+x,1/2-y,1/2+z
loop_
_atom_site_type_symbol
_atom_site_label
_atom_site_fract_x
_atom_site_fract_y
_atom_site_fract_z
Si Si1 0.864292 0.828565 0.833749
Si Si2 0.622515 0.489675 0.810380
Si Si3 0.936871 0.912601 0.142231
Si Si4 0.500000 0.250000 0.549190
Si Si5 0.000000 0.250000 0.750000
Si Si6 0.046713 0.399184 0.073072
Si Si7 0.196856 0.317105 0.662494
Si Si8 0.680489 0.818158 0.985885
O O1 0.817290 0.817820 0.726125
O O2 0.926192 0.783772 0.879737
O O3 0.946136 0.872958 0.860767
O O4 0.740279 0.834525 0.888623
O O5 0.500000 0.489213 0.750000
O O6 0.750000 0.500000 0.757369
O O7 0.619064 0.536926 0.871190
O O8 0.604407 0.443334 0.874252
O O9 0.854132 0.868475 0.152736
O O10 0.000000 0.913767 0.250000
O O11 0.002119 0.907331 0.038064
O O12 0.429374 0.285223 0.481093
O O13 0.905727 0.214361 0.704496
O O14 0.144104 0.361621 0.050011
O O15 0.224296 0.295637 0.556867
#
# Coordination Sequence:
#
# PCOD9509517 Si02
#       8
#    16  16  16   8   4  16  16  16
#     4  11  25  42  71 102 143 200 251 319 388 458
#     4  11  27  49  80 118 156 204 261 328 408 484
#     4  11  23  48  71 106 149 193 252 323 388 479
#     4  10  24  42  64  98 146 188 256 310 388 462
#     4  12  28  42  72 104 152 198 260 306 402 444
#     4  11  25  46  74 109 146 201 254 322 396 473
#     4  12  25  44  69 102 145 195 251 317 379 472
#     4  11  24  42  67 101 143 189 255 309 388 461
#
# _framework density 23.885328000000001
#
# number of rings (size 3 to 8) (size 9 to 14) (size 15 to 20)
#    0.000    0.889    2.222    3.556    4.148    3.556 
#    0.000    1.481    0.000    0.000    0.000    0.000 
#    0.000    0.000    0.000    0.000    0.000    0.000 
#
# Total GULP energy -301356.417846 kJ/mol
# GULP energy per Si atom -5580.674405 kJ/mol
# Density = 2.383096 g / cm^3
# Si number density = 23.885328 Si / 1000 Ang^3
#
#
#
# Elastic Constant Matrix: (Units=GPa)
#
#
# Indices 1 2 3 4 5 6 
#
# 1 93.8392 62.1118 26.5086 0.0000 0.0000 0.0000
# 2 62.1118 175.3338 28.3808 0.0000 0.0000 0.0000
# 3 26.5086 28.3808 83.6338 0.0000 0.0000 0.0000
# 4 0.0000 0.0000 0.0000 3.8378 0.0000 0.0000
# 5 0.0000 0.0000 0.0000 0.0000 46.7179 0.0000
# 6 0.0000 0.0000 0.0000 0.0000 0.0000 -128.6685
#
#
#
# Elastic Compliance Matrix: (Units=1/GPa)
#
#
# Indices 1 2 3 4 5 6 
#
# 1 0.014618 -0.004686 -0.003043 0.000000 0.000000 0.000000
# 2 -0.004686 0.007537 -0.001072 0.000000 0.000000 0.000000
# 3 -0.003043 -0.001072 0.013285 0.000000 0.000000 0.000000
# 4 0.000000 0.000000 0.000000 0.260563 0.000000 0.000000
# 5 0.000000 0.000000 0.000000 0.000000 0.021405 0.000000
# 6 0.000000 0.000000 0.000000 0.000000 0.000000 -0.007772
#
#
# Mechanical properties :
#
#
# Convention : Reuss Voigt Hill
#
# Bulk Modulus (GPa) = 56.06213 65.20103 60.63158
# Shear Modulus (GPa) = 15.00672 0.09783 7.55228
#
# Velocity S-wave (km/s) = 2.50927 0.20260 1.78010
# Velocity P-wave (km/s) = 5.64957 5.23560 5.44652
#
# Compressibility (1/GPa) = 0.01783735
#
# Stress axis : x y z
#
# Youngs Moduli (GPa) = 68.41060 132.68059 75.27080
#
# Poissons Ratio (x) = 0.62170 0.22906
# Poissons Ratio (y) = 0.32055 0.08072
# Poissons Ratio (z) = 0.20818 0.14229
#
# Static dielectric constant tensor:
#      x y z
#    x 2.139180 0.000000 0.000000 
#    y 0.000000 1.916850 0.000000 
#    z 0.000000 0.000000 1.991370 
# 
# From -- ./inp_files/21289.got.cif
#   From: 2010.05.17/outbox.cif.g08.bks.cpg/sg68_11_cif.got.tgz:21289.got - 2010.06.03 18:57:09.
