data_PCOD9509221
_publ_section_title
;
Structure prediction by ZEFSAII (Michael W. Deem and Ramdas Pophale) SiO2 
 PCOD9509221
Probable space group: C C C A
;
_chemical_formula_sum "Si O2"
_cell_formula_units_Z 88
_cell_length_a 5.437868
_cell_length_b 23.417387
_cell_length_c 32.739207
_cell_angle_alpha 90.000000
_cell_angle_beta 90.000000
_cell_angle_gamma 90.000000
_cell_volume 4169.032208
_symmetry_space_group_name_H-M "C C C A"
_symmetry_group_IT_number 68
_space_group.IT_coordinate_system_code '2'
_symmetry_cell_setting 'orthorhombic'
loop_
_space_group_symop_operation_xyz
x,y,z
-x,1/2-y,z
x,1/2-y,1/2-z
-x,y,1/2-z
-x,-y,-z
x,1/2+y,-z
-x,1/2+y,1/2+z
x,-y,1/2+z
1/2+x,1/2+y,z
1/2-x,-y,z
1/2+x,-y,1/2-z
1/2-x,1/2+y,1/2-z
1/2-x,1/2-y,-z
1/2+x,y,-z
1/2-x,y,1/2+z
1/2+x,1/2-y,1/2+z
loop_
_atom_site_type_symbol
_atom_site_label
_atom_site_fract_x
_atom_site_fract_y
_atom_site_fract_z
Si Si1 0.093179 0.688280 0.664156
Si Si2 0.500000 0.250000 0.370200
Si Si3 0.214023 0.635053 0.390961
Si Si4 0.000000 0.933774 0.250000
Si Si5 0.000000 0.860884 0.750000
Si Si6 0.244192 0.567728 0.974704
Si Si7 0.999296 0.467797 0.843479
O O1 0.376363 0.703970 0.660795
O O2 0.008370 0.675872 0.709301
O O3 0.000000 0.750000 0.649494
O O4 0.966466 0.642076 0.635152
O O5 0.624892 0.200684 0.397810
O O6 0.255117 0.603898 0.433470
O O7 0.033445 0.594091 0.364309
O O8 0.748027 0.897862 0.250391
O O9 0.995190 0.965124 0.206189
O O10 0.250000 0.500000 0.965011
O O11 0.494426 0.579387 0.000032
O O12 0.750000 0.500000 0.856516
O O13 0.250000 0.500000 0.855136
#
# Coordination Sequence:
#
# PCOD9509221 Si02
#       7
#    16   8  16   8   8  16  16
#     4  10  23  42  64  99 134 189 240 297 340 415
#     4  10  24  44  73 100 144 180 242 294 352 415
#     4  11  24  45  72 103 140 186 233 291 357 423
#     4  12  24  43  61  93 142 182 234 297 352 414
#     4  12  23  41  68  95 136 191 238 298 350 406
#     4  10  24  46  74 108 142 178 226 287 350 426
#     4  12  26  42  68 100 138 188 239 289 351 423
#
# _framework density 21.108015999999999
#
# number of rings (size 3 to 8) (size 9 to 14) (size 15 to 20)
#    0.000    1.091    1.818    3.545    7.636    2.182 
#    0.000    0.909    0.000    0.000    0.000    0.000 
#    0.000    0.000    0.000    0.000    0.000    0.000 
#
# Total GULP energy -245300.445808 kJ/mol
# GULP energy per Si atom -5575.010132 kJ/mol
# Density = 2.105997 g / cm^3
# Si number density = 21.108016 Si / 1000 Ang^3
#
#
#
# Elastic Constant Matrix: (Units=GPa)
#
#
# Indices 1 2 3 4 5 6 
#
# 1 142.1701 77.7098 50.3281 0.0000 0.0000 0.0000
# 2 77.7098 131.1416 65.2231 0.0000 0.0000 0.0000
# 3 50.3281 65.2231 147.6447 0.0000 0.0000 0.0000
# 4 0.0000 0.0000 0.0000 67.2226 0.0000 0.0000
# 5 0.0000 0.0000 0.0000 0.0000 12.5599 0.0000
# 6 0.0000 0.0000 0.0000 0.0000 0.0000 -25.9238
#
#
#
# Elastic Compliance Matrix: (Units=1/GPa)
#
#
# Indices 1 2 3 4 5 6 
#
# 1 0.010533 -0.005711 -0.001068 0.000000 0.000000 0.000000
# 2 -0.005711 0.012868 -0.003738 0.000000 0.000000 0.000000
# 3 -0.001068 -0.003738 0.008788 0.000000 0.000000 0.000000
# 4 0.000000 0.000000 0.000000 0.014876 0.000000 0.000000
# 5 0.000000 0.000000 0.000000 0.000000 0.079618 0.000000
# 6 0.000000 0.000000 0.000000 0.000000 0.000000 -0.038575
#
#
# Mechanical properties :
#
#
# Convention : Reuss Voigt Hill
#
# Bulk Modulus (GPa) = 89.63007 89.71983 89.67495
# Shear Modulus (GPa) = 44.30213 25.95143 35.12678
#
# Velocity S-wave (km/s) = 4.58627 3.51017 4.08382
# Velocity P-wave (km/s) = 8.40237 7.68282 8.05064
#
# Compressibility (1/GPa) = 0.01115697
#
# Stress axis : x y z
#
# Youngs Moduli (GPa) = 94.93804 77.71013 113.78703
#
# Poissons Ratio (x) = 0.44376 0.12150
# Poissons Ratio (y) = 0.54214 0.42535
# Poissons Ratio (z) = 0.10138 0.29049
#
# Static dielectric constant tensor:
#      x y z
#    x 1.926620 0.000000 0.000000 
#    y 0.000000 1.799110 0.000000 
#    z 0.000000 0.000000 1.721100 
# 
# From -- ./inp_files/53288.got.cif
#   From: 2010.05.17/outbox.cif.g08.bks.cpg/sg68_27_cif.got.tgz:53288.got - 2010.06.03 18:57:09.
