data_PCOD9509926
_publ_section_title
;
Structure prediction by ZEFSAII (Michael W. Deem and Ramdas Pophale) SiO2 
 PCOD9509926
Probable space group: C C C A
;
_chemical_formula_sum "Si O2"
_cell_formula_units_Z 48
_cell_length_a 16.640294
_cell_length_b 12.183054
_cell_length_c 9.189913
_cell_angle_alpha 90.000000
_cell_angle_beta 90.000000
_cell_angle_gamma 90.000000
_cell_volume 1863.067390
_symmetry_space_group_name_H-M "C C C A"
_symmetry_group_IT_number 68
_space_group.IT_coordinate_system_code '2'
_symmetry_cell_setting 'orthorhombic'
loop_
_space_group_symop_operation_xyz
x,y,z
-x,1/2-y,z
x,1/2-y,1/2-z
-x,y,1/2-z
-x,-y,-z
x,1/2+y,-z
-x,1/2+y,1/2+z
x,-y,1/2+z
1/2+x,1/2+y,z
1/2-x,-y,z
1/2+x,-y,1/2-z
1/2-x,1/2+y,1/2-z
1/2-x,1/2-y,-z
1/2+x,y,-z
1/2-x,y,1/2+z
1/2+x,1/2-y,1/2+z
loop_
_atom_site_type_symbol
_atom_site_label
_atom_site_fract_x
_atom_site_fract_y
_atom_site_fract_z
Si Si1 0.913942 0.744000 0.999981
Si Si2 0.372865 0.595148 0.251148
Si Si3 0.295759 0.603757 0.827075
O O1 0.923230 0.649458 0.875506
O O2 0.894975 0.852011 0.905820
O O3 0.000000 0.750000 0.075809
O O4 0.838272 0.702510 0.092079
O O5 0.367917 0.464410 0.252564
O O6 0.279537 0.631246 0.225792
O O7 0.250000 0.500000 0.912529
#
# Coordination Sequence:
#
# PCOD9509926 Si02
#       3
#    16  16  16
#     4  11  19  34  57  84 112 145 188 240 285 330
#     4   8  19  33  53  77 111 151 189 222 281 344
#     4   8  20  32  55  80 111 150 192 225 275 344
#
# _framework density 25.763964000000001
#
# number of rings (size 3 to 8) (size 9 to 14) (size 15 to 20)
#    2.000    0.667    0.000    3.000    4.667    1.333 
#    0.000    0.000    0.000    0.000    0.000    9.333 
#    0.000    0.000    0.000    0.000    0.000    0.000 
#
# Total GULP energy -133669.863829 kJ/mol
# GULP energy per Si atom -5569.577660 kJ/mol
# Density = 2.570532 g / cm^3
# Si number density = 25.763964 Si / 1000 Ang^3
#
#
#
# Elastic Constant Matrix: (Units=GPa)
#
#
# Indices 1 2 3 4 5 6 
#
# 1 140.8751 36.7654 30.3829 0.0000 0.0000 0.0000
# 2 36.7654 49.2076 7.1331 0.0000 0.0000 0.0000
# 3 30.3829 7.1331 64.7324 0.0000 0.0000 0.0000
# 4 0.0000 0.0000 0.0000 12.0668 0.0000 0.0000
# 5 0.0000 0.0000 0.0000 0.0000 25.5220 0.0000
# 6 0.0000 0.0000 0.0000 0.0000 0.0000 18.3161
#
#
#
# Elastic Compliance Matrix: (Units=1/GPa)
#
#
# Indices 1 2 3 4 5 6 
#
# 1 0.009657 -0.006665 -0.003798 0.000000 0.000000 0.000000
# 2 -0.006665 0.025251 0.000346 0.000000 0.000000 0.000000
# 3 -0.003798 0.000346 0.017193 0.000000 0.000000 0.000000
# 4 0.000000 0.000000 0.000000 0.082872 0.000000 0.000000
# 5 0.000000 0.000000 0.000000 0.000000 0.039182 0.000000
# 6 0.000000 0.000000 0.000000 0.000000 0.000000 0.054597
#
#
# Mechanical properties :
#
#
# Convention : Reuss Voigt Hill
#
# Bulk Modulus (GPa) = 31.38068 44.81976 38.10022
# Shear Modulus (GPa) = 19.25977 23.21658 21.23817
#
# Velocity S-wave (km/s) = 2.73710 3.00513 2.87424
# Velocity P-wave (km/s) = 4.71120 5.42910 5.08284
#
# Compressibility (1/GPa) = 0.03186675
#
# Stress axis : x y z
#
# Youngs Moduli (GPa) = 103.55212 39.60175 58.16366
#
# Poissons Ratio (x) = 0.26393 0.22092
# Poissons Ratio (y) = 0.69013 -0.02010
# Poissons Ratio (z) = 0.39331 -0.01368
#
# Static dielectric constant tensor:
#      x y z
#    x 2.047810 0.000000 0.000000 
#    y 0.000000 2.121900 0.000000 
#    z 0.000000 0.000000 2.119320 
# 
# From -- ./inp_files/4433.got.cif
#   From: 2010.05.17/outbox.cif.g08.bks.cpg/sg68_3_cif.got.tgz:4433.got - 2010.06.03 18:57:09.
