data_PCOD9509070
_publ_section_title
;
Structure prediction by ZEFSAII (Michael W. Deem and Ramdas Pophale) SiO2 
 PCOD9509070
Probable space group: C C C A
;
_chemical_formula_sum "Si O2"
_cell_formula_units_Z 60
_cell_length_a 5.888342
_cell_length_b 23.555010
_cell_length_c 18.554300
_cell_angle_alpha 90.000000
_cell_angle_beta 90.000000
_cell_angle_gamma 90.000000
_cell_volume 2573.480569
_symmetry_space_group_name_H-M "C C C A"
_symmetry_group_IT_number 68
_space_group.IT_coordinate_system_code '2'
_symmetry_cell_setting 'orthorhombic'
loop_
_space_group_symop_operation_xyz
x,y,z
-x,1/2-y,z
x,1/2-y,1/2-z
-x,y,1/2-z
-x,-y,-z
x,1/2+y,-z
-x,1/2+y,1/2+z
x,-y,1/2+z
1/2+x,1/2+y,z
1/2-x,-y,z
1/2+x,-y,1/2-z
1/2-x,1/2+y,1/2-z
1/2-x,1/2-y,-z
1/2+x,y,-z
1/2-x,y,1/2+z
1/2+x,1/2-y,1/2+z
loop_
_atom_site_type_symbol
_atom_site_label
_atom_site_fract_x
_atom_site_fract_y
_atom_site_fract_z
Si Si1 0.399491 0.946436 0.176763
Si Si2 0.337524 0.876336 0.970651
Si Si3 0.500000 0.250000 0.250000
Si Si4 0.437579 0.142927 0.172169
Si Si5 0.250000 0.500000 0.066084
O O1 0.500000 0.921672 0.250000
O O2 0.256604 0.896553 0.140460
O O3 0.568904 0.972780 0.120085
O O4 0.250000 0.000000 0.200485
O O5 0.363131 0.859070 0.885968
O O6 0.343564 0.945454 0.975976
O O7 0.584707 0.856813 0.003376
O O8 0.371126 0.206204 0.197323
O O9 0.500000 0.115688 0.250000
#
# Coordination Sequence:
#
# PCOD9509070 Si02
#       5
#    16  16   4  16   8
#     4  12  21  36  65 109 145 189 239 307 375 439
#     4  12  26  44  70 108 153 199 242 300 376 456
#     4   8  24  48  78 100 140 190 266 316 376 414
#     4  10  22  47  73  99 140 189 256 305 367 437
#     4  12  24  38  60 102 158 194 236 286 372 470
#
# _framework density 23.314729
#
# number of rings (size 3 to 8) (size 9 to 14) (size 15 to 20)
#    0.800    0.000    4.000    4.800    0.000    0.000 
#    0.000    2.000    0.000    0.000    0.000    0.000 
#    0.000    0.000    0.000    0.000    0.000    0.000 
#
# Total GULP energy -167371.116587 kJ/mol
# GULP energy per Si atom -5579.037220 kJ/mol
# Density = 2.326166 g / cm^3
# Si number density = 23.314729 Si / 1000 Ang^3
#
#
#
# Elastic Constant Matrix: (Units=GPa)
#
#
# Indices 1 2 3 4 5 6 
#
# 1 112.9302 10.6508 39.5894 0.0000 0.0000 0.0000
# 2 10.6508 94.3982 -16.1783 0.0000 0.0000 0.0000
# 3 39.5894 -16.1783 106.9976 0.0000 0.0000 0.0000
# 4 0.0000 0.0000 0.0000 16.0196 0.0000 0.0000
# 5 0.0000 0.0000 0.0000 0.0000 29.0715 0.0000
# 6 0.0000 0.0000 0.0000 0.0000 0.0000 14.0143
#
#
#
# Elastic Compliance Matrix: (Units=1/GPa)
#
#
# Indices 1 2 3 4 5 6 
#
# 1 0.010496 -0.001899 -0.004171 0.000000 0.000000 0.000000
# 2 -0.001899 0.011219 0.002399 0.000000 0.000000 0.000000
# 3 -0.004171 0.002399 0.011252 0.000000 0.000000 0.000000
# 4 0.000000 0.000000 0.000000 0.062423 0.000000 0.000000
# 5 0.000000 0.000000 0.000000 0.000000 0.034398 0.000000
# 6 0.000000 0.000000 0.000000 0.000000 0.000000 0.071356
#
#
# Mechanical properties :
#
#
# Convention : Reuss Voigt Hill
#
# Bulk Modulus (GPa) = 39.02399 42.49441 40.75920
# Shear Modulus (GPa) = 23.03852 30.50536 26.77194
#
# Velocity S-wave (km/s) = 3.14690 3.62113 3.39231
# Velocity P-wave (km/s) = 5.47524 5.97908 5.73270
#
# Compressibility (1/GPa) = 0.02562527
#
# Stress axis : x y z
#
# Youngs Moduli (GPa) = 95.27193 89.13578 88.87355
#
# Poissons Ratio (x) = 0.16928 0.37067
# Poissons Ratio (y) = 0.18093 -0.21321
# Poissons Ratio (z) = 0.39736 -0.21384
#
# Static dielectric constant tensor:
#      x y z
#    x 2.062870 0.000000 0.000000 
#    y 0.000000 1.879430 0.000000 
#    z 0.000000 0.000000 1.979280 
# 
# From -- ./inp_files/34951.got.cif
#   From: 2010.05.17/outbox.cif.g08.bks.cpg/sg68_18_cif.got.tgz:34951.got - 2010.06.03 18:57:09.
