data_PCOD9509502
_publ_section_title
;
Structure prediction by ZEFSAII (Michael W. Deem and Ramdas Pophale) SiO2 
 PCOD9509502
Probable space group: C C C A
;
_chemical_formula_sum "Si O2"
_cell_formula_units_Z 64
_cell_length_a 20.955607
_cell_length_b 5.345281
_cell_length_c 26.271342
_cell_angle_alpha 90.000000
_cell_angle_beta 90.000000
_cell_angle_gamma 90.000000
_cell_volume 2942.747803
_symmetry_space_group_name_H-M "C C C A"
_symmetry_group_IT_number 68
_space_group.IT_coordinate_system_code '2'
_symmetry_cell_setting 'orthorhombic'
loop_
_space_group_symop_operation_xyz
x,y,z
-x,1/2-y,z
x,1/2-y,1/2-z
-x,y,1/2-z
-x,-y,-z
x,1/2+y,-z
-x,1/2+y,1/2+z
x,-y,1/2+z
1/2+x,1/2+y,z
1/2-x,-y,z
1/2+x,-y,1/2-z
1/2-x,1/2+y,1/2-z
1/2-x,1/2-y,-z
1/2+x,y,-z
1/2-x,y,1/2+z
1/2+x,1/2-y,1/2+z
loop_
_atom_site_type_symbol
_atom_site_label
_atom_site_fract_x
_atom_site_fract_y
_atom_site_fract_z
Si Si1 0.431776 0.873438 0.610123
Si Si2 0.000000 0.750000 0.815964
Si Si3 0.113762 0.435442 0.702613
Si Si4 0.212737 0.250000 0.250000
Si Si5 0.821604 0.473512 0.033044
O O1 0.500000 0.750000 0.592258
O O2 0.393499 0.687340 0.647647
O O3 0.454001 0.093005 0.647441
O O4 0.382448 0.972935 0.568606
O O5 0.954280 0.559822 0.787515
O O6 0.125750 0.250000 0.750000
O O7 0.167636 0.646437 0.705425
O O8 0.250000 0.500000 0.266377
O O9 0.750000 0.500000 0.056683
O O10 0.824829 0.695385 0.990758
#
# Coordination Sequence:
#
# PCOD9509502 Si02
#       5
#    16   8  16   8  16
#     4  10  24  43  69 107 142 184 239 293 356 423
#     4  10  24  41  68 102 144 182 242 286 359 414
#     4  11  24  45  68 100 144 191 233 295 342 422
#     4  12  26  47  64  95 140 184 246 286 342 408
#     4  10  24  48  74 102 139 183 233 291 364 431
#
# _framework density 21.748381999999999
#
# number of rings (size 3 to 8) (size 9 to 14) (size 15 to 20)
#    0.000    1.500    1.250    1.500    7.000   13.000 
#    9.000    0.000    0.000    0.000    0.000    0.000 
#    0.000    0.000    0.000    0.000    0.000    0.000 
#
# Total GULP energy -178646.822635 kJ/mol
# GULP energy per Si atom -5582.713207 kJ/mol
# Density = 2.169888 g / cm^3
# Si number density = 21.748382 Si / 1000 Ang^3
#
#
#
# Elastic Constant Matrix: (Units=GPa)
#
#
# Indices 1 2 3 4 5 6 
#
# 1 156.6195 45.7567 45.5727 0.0000 0.0000 0.0000
# 2 45.7567 98.9474 8.0483 0.0000 0.0000 0.0000
# 3 45.5727 8.0483 22.8198 0.0000 0.0000 0.0000
# 4 0.0000 0.0000 0.0000 17.3638 0.0000 0.0000
# 5 0.0000 0.0000 0.0000 0.0000 -5.2368 0.0000
# 6 0.0000 0.0000 0.0000 0.0000 0.0000 140.7239
#
#
#
# Elastic Compliance Matrix: (Units=1/GPa)
#
#
# Indices 1 2 3 4 5 6 
#
# 1 0.017718 -0.005472 -0.033454 0.000000 0.000000 0.000000
# 2 -0.005472 0.012095 0.006663 0.000000 0.000000 0.000000
# 3 -0.033454 0.006663 0.108282 0.000000 0.000000 0.000000
# 4 0.000000 0.000000 0.000000 0.057591 0.000000 0.000000
# 5 0.000000 0.000000 0.000000 0.000000 -0.190957 0.000000
# 6 0.000000 0.000000 0.000000 0.000000 0.000000 0.007106
#
#
# Mechanical properties :
#
#
# Convention : Reuss Voigt Hill
#
# Bulk Modulus (GPa) = 13.59288 53.01579 33.30433
# Shear Modulus (GPa) = 49.56084 42.50412 46.03248
#
# Velocity S-wave (km/s) = 4.77889 4.42561 4.60564
# Velocity P-wave (km/s) = 6.05921 7.10946 6.60524
#
# Compressibility (1/GPa) = 0.07356795
#
# Stress axis : x y z
#
# Youngs Moduli (GPa) = 56.43948 82.67858 9.23512
#
# Poissons Ratio (x) = 0.45244 0.30895
# Poissons Ratio (y) = 0.30886 -0.06153
# Poissons Ratio (z) = 1.88814 -0.55088
#
# Static dielectric constant tensor:
#      x y z
#    x 1.839640 0.000000 0.000000 
#    y 0.000000 1.853950 0.000000 
#    z 0.000000 0.000000 1.243380 
# 
# From -- ./inp_files/48142.got.cif
#   From: 2010.05.17/outbox.cif.g08.bks.cpg/sg68_25_cif.got.tgz:48142.got - 2010.06.03 18:57:09.
