data_PCOD9509362
_publ_section_title
;
Structure prediction by ZEFSAII (Michael W. Deem and Ramdas Pophale) SiO2 
 PCOD9509362
Probable space group: C C C A
;
_chemical_formula_sum "Si O2"
_cell_formula_units_Z 84
_cell_length_a 14.057239
_cell_length_b 11.604007
_cell_length_c 26.070167
_cell_angle_alpha 90.000000
_cell_angle_beta 90.000000
_cell_angle_gamma 90.000000
_cell_volume 4252.573456
_symmetry_space_group_name_H-M "C C C A"
_symmetry_group_IT_number 68
_space_group.IT_coordinate_system_code '2'
_symmetry_cell_setting 'orthorhombic'
loop_
_space_group_symop_operation_xyz
x,y,z
-x,1/2-y,z
x,1/2-y,1/2-z
-x,y,1/2-z
-x,-y,-z
x,1/2+y,-z
-x,1/2+y,1/2+z
x,-y,1/2+z
1/2+x,1/2+y,z
1/2-x,-y,z
1/2+x,-y,1/2-z
1/2-x,1/2+y,1/2-z
1/2-x,1/2-y,-z
1/2+x,y,-z
1/2-x,y,1/2+z
1/2+x,1/2-y,1/2+z
loop_
_atom_site_type_symbol
_atom_site_label
_atom_site_fract_x
_atom_site_fract_y
_atom_site_fract_z
Si Si1 0.000000 0.250000 0.250000
Si Si2 0.036493 0.066303 0.401990
Si Si3 0.000000 0.250000 0.013401
Si Si4 0.406457 0.309535 0.083149
Si Si5 0.379383 0.919652 0.182033
Si Si6 0.717651 0.196062 0.650223
Si Si7 0.250000 0.000000 0.764225
O O1 0.939454 0.330682 0.214903
O O2 0.122271 0.138780 0.374786
O O3 0.000802 0.141622 0.449351
O O4 0.950047 0.041096 0.362600
O O5 0.073507 0.944738 0.421360
O O6 0.911529 0.253908 0.973683
O O7 0.500000 0.250000 0.109208
O O8 0.308470 0.303409 0.113198
O O9 0.300105 0.831274 0.160945
O O10 0.337702 0.006759 0.224151
O O11 0.739071 0.112580 0.699341
#
# Coordination Sequence:
#
# PCOD9509362 Si02
#       7
#     4  16   8  16  16  16   8
#     4  12  18  40  60  96 128 164 236 270 308 398
#     4  12  21  46  70  94 131 177 225 277 326 406
#     4  10  23  44  72  97 129 174 230 283 332 400
#     4  10  26  42  65  97 137 168 217 279 349 392
#     4  12  24  39  68  98 129 176 228 274 326 404
#     4  12  22  45  64  95 133 178 220 276 333 402
#     4  12  24  38  66  94 134 170 218 272 336 392
#
# _framework density 19.752744
#
# number of rings (size 3 to 8) (size 9 to 14) (size 15 to 20)
#    0.571    0.000    7.619    0.571    2.667    0.762 
#    0.000    0.000    0.000    0.000    0.000    0.000 
#    0.000    0.000    0.000    0.000    0.000    0.000 
#
# Total GULP energy -234071.788639 kJ/mol
# GULP energy per Si atom -5573.137825 kJ/mol
# Density = 1.970779 g / cm^3
# Si number density = 19.752744 Si / 1000 Ang^3
#
#
#
# Elastic Constant Matrix: (Units=GPa)
#
#
# Indices 1 2 3 4 5 6 
#
# 1 91.0488 -3.8315 53.2543 0.0000 0.0000 0.0000
# 2 -3.8315 15.4614 -1.6893 0.0000 0.0000 0.0000
# 3 53.2543 -1.6893 110.7591 0.0000 0.0000 0.0000
# 4 0.0000 0.0000 0.0000 24.8120 0.0000 0.0000
# 5 0.0000 0.0000 0.0000 0.0000 27.7714 0.0000
# 6 0.0000 0.0000 0.0000 0.0000 0.0000 28.3322
#
#
#
# Elastic Compliance Matrix: (Units=1/GPa)
#
#
# Indices 1 2 3 4 5 6 
#
# 1 0.015419 0.003016 -0.007368 0.000000 0.000000 0.000000
# 2 0.003016 0.065375 -0.000453 0.000000 0.000000 0.000000
# 3 -0.007368 -0.000453 0.012564 0.000000 0.000000 0.000000
# 4 0.000000 0.000000 0.000000 0.040303 0.000000 0.000000
# 5 0.000000 0.000000 0.000000 0.000000 0.036008 0.000000
# 6 0.000000 0.000000 0.000000 0.000000 0.000000 0.035296
#
#
# Mechanical properties :
#
#
# Convention : Reuss Voigt Hill
#
# Bulk Modulus (GPa) = 11.94040 34.74847 23.34444
# Shear Modulus (GPa) = 20.61924 27.48550 24.05237
#
# Velocity S-wave (km/s) = 3.23440 3.73430 3.49330
# Velocity P-wave (km/s) = 4.47286 6.01857 5.30234
#
# Compressibility (1/GPa) = 0.08374928
#
# Stress axis : x y z
#
# Youngs Moduli (GPa) = 64.85296 15.29632 79.59083
#
# Poissons Ratio (x) = -0.04614 0.58642
# Poissons Ratio (y) = -0.19560 0.03606
# Poissons Ratio (z) = 0.47783 0.00693
#
# Static dielectric constant tensor:
#      x y z
#    x 1.749330 0.000000 0.000000 
#    y 0.000000 1.716080 0.000000 
#    z 0.000000 0.000000 1.708610 
# 
# From -- ./inp_files/45367.got.cif
#   From: 2010.05.17/outbox.cif.g08.bks.cpg/sg68_23_cif.got.tgz:45367.got - 2010.06.03 18:57:09.
