data_PCOD9509851
_publ_section_title
;
Structure prediction by ZEFSAII (Michael W. Deem and Ramdas Pophale) SiO2 
 PCOD9509851
Probable space group: C C C A
;
_chemical_formula_sum "Si O2"
_cell_formula_units_Z 64
_cell_length_a 20.153977
_cell_length_b 5.880927
_cell_length_c 24.640132
_cell_angle_alpha 90.000000
_cell_angle_beta 90.000000
_cell_angle_gamma 90.000000
_cell_volume 2920.448668
_symmetry_space_group_name_H-M "C C C A"
_symmetry_group_IT_number 68
_space_group.IT_coordinate_system_code '2'
_symmetry_cell_setting 'orthorhombic'
loop_
_space_group_symop_operation_xyz
x,y,z
-x,1/2-y,z
x,1/2-y,1/2-z
-x,y,1/2-z
-x,-y,-z
x,1/2+y,-z
-x,1/2+y,1/2+z
x,-y,1/2+z
1/2+x,1/2+y,z
1/2-x,-y,z
1/2+x,-y,1/2-z
1/2-x,1/2+y,1/2-z
1/2-x,1/2-y,-z
1/2+x,y,-z
1/2-x,y,1/2+z
1/2+x,1/2-y,1/2+z
loop_
_atom_site_type_symbol
_atom_site_label
_atom_site_fract_x
_atom_site_fract_y
_atom_site_fract_z
Si Si1 0.368260 0.499928 0.885666
Si Si2 0.250000 0.500000 0.970655
Si Si3 0.294503 0.183429 0.805977
Si Si4 0.080367 0.619300 0.194523
Si Si5 0.500000 0.250000 0.863789
O O1 0.319089 0.515987 0.936413
O O2 0.319477 0.389346 0.841092
O O3 0.395319 0.726954 0.856334
O O4 0.433005 0.336115 0.894167
O O5 0.250000 0.750000 0.000000
O O6 0.259036 0.250000 0.750000
O O7 0.250000 0.000000 0.837382
O O8 0.360748 0.051357 0.790601
O O9 0.068200 0.750000 0.250000
O O10 0.020904 0.462651 0.173385
#
# Coordination Sequence:
#
# PCOD9509851 Si02
#       5
#    16   8  16  16   8
#     4  11  25  47  72 103 148 196 240 310 371 452
#     4  12  32  56  84 110 138 190 260 336 402 452
#     4  11  22  35  61 102 148 193 238 288 351 442
#     4  11  22  41  64 106 155 204 238 281 356 448
#     4  10  26  41  72 106 156 194 250 292 367 448
#
# _framework density 21.914442000000001
#
# number of rings (size 3 to 8) (size 9 to 14) (size 15 to 20)
#    0.000    1.000    2.500    3.000   10.500    3.000 
#    0.000    1.250    0.000    0.000    0.000    0.000 
#    0.000    0.000    0.000    0.000    0.000    0.000 
#
# Total GULP energy -178664.197971 kJ/mol
# GULP energy per Si atom -5583.256187 kJ/mol
# Density = 2.186456 g / cm^3
# Si number density = 21.914442 Si / 1000 Ang^3
#
#
#
# Elastic Constant Matrix: (Units=GPa)
#
#
# Indices 1 2 3 4 5 6 
#
# 1 143.3387 52.0893 55.9240 0.0000 0.0000 0.0000
# 2 52.0893 144.5859 69.1773 0.0000 0.0000 0.0000
# 3 55.9240 69.1773 96.2867 0.0000 0.0000 0.0000
# 4 0.0000 0.0000 0.0000 29.3075 0.0000 0.0000
# 5 0.0000 0.0000 0.0000 0.0000 32.9996 0.0000
# 6 0.0000 0.0000 0.0000 0.0000 0.0000 67.8347
#
#
#
# Elastic Compliance Matrix: (Units=1/GPa)
#
#
# Indices 1 2 3 4 5 6 
#
# 1 0.009144 -0.001148 -0.004486 0.000000 0.000000 0.000000
# 2 -0.001148 0.010683 -0.007009 0.000000 0.000000 0.000000
# 3 -0.004486 -0.007009 0.018027 0.000000 0.000000 0.000000
# 4 0.000000 0.000000 0.000000 0.034121 0.000000 0.000000
# 5 0.000000 0.000000 0.000000 0.000000 0.030303 0.000000
# 6 0.000000 0.000000 0.000000 0.000000 0.000000 0.014742
#
#
# Mechanical properties :
#
#
# Convention : Reuss Voigt Hill
#
# Bulk Modulus (GPa) = 79.56493 82.06585 80.81539
# Shear Modulus (GPa) = 34.13098 39.82974 36.98036
#
# Velocity S-wave (km/s) = 3.95075 4.26785 4.11236
# Velocity P-wave (km/s) = 7.56288 7.86229 7.71404
#
# Compressibility (1/GPa) = 0.01256835
#
# Stress axis : x y z
#
# Youngs Moduli (GPa) = 109.36259 93.60573 55.47352
#
# Poissons Ratio (x) = 0.10744 0.24887
# Poissons Ratio (y) = 0.12553 0.38879
# Poissons Ratio (z) = 0.49062 0.65605
#
# Static dielectric constant tensor:
#      x y z
#    x 1.864340 0.000000 0.000000 
#    y 0.000000 1.910750 0.000000 
#    z 0.000000 0.000000 1.787890 
# 
# From -- ./inp_files/51598.got.cif
#   From: 2010.05.17/outbox.cif.g08.bks.cpg/sg68_26_cif.got.tgz:51598.got - 2010.06.03 18:57:09.
