data_PCOD9509201
_publ_section_title
;
Structure prediction by ZEFSAII (Michael W. Deem and Ramdas Pophale) SiO2 
 PCOD9509201
Probable space group: C C C A
;
_chemical_formula_sum "Si O2"
_cell_formula_units_Z 64
_cell_length_a 8.253717
_cell_length_b 27.549294
_cell_length_c 11.783280
_cell_angle_alpha 90.000000
_cell_angle_beta 90.000000
_cell_angle_gamma 90.000000
_cell_volume 2679.330238
_symmetry_space_group_name_H-M "C C C A"
_symmetry_group_IT_number 68
_space_group.IT_coordinate_system_code '2'
_symmetry_cell_setting 'orthorhombic'
loop_
_space_group_symop_operation_xyz
x,y,z
-x,1/2-y,z
x,1/2-y,1/2-z
-x,y,1/2-z
-x,-y,-z
x,1/2+y,-z
-x,1/2+y,1/2+z
x,-y,1/2+z
1/2+x,1/2+y,z
1/2-x,-y,z
1/2+x,-y,1/2-z
1/2-x,1/2+y,1/2-z
1/2-x,1/2-y,-z
1/2+x,y,-z
1/2-x,y,1/2+z
1/2+x,1/2-y,1/2+z
loop_
_atom_site_type_symbol
_atom_site_label
_atom_site_fract_x
_atom_site_fract_y
_atom_site_fract_z
Si Si1 0.111645 0.368737 0.658716
Si Si2 0.816317 0.445724 0.201921
Si Si3 0.216556 0.867136 0.043634
Si Si4 0.185349 0.233419 0.125578
O O1 0.189665 0.415292 0.719406
O O2 0.257346 0.349166 0.584678
O O3 0.000000 0.341588 0.750000
O O4 0.972527 0.375421 0.564732
O O5 0.750000 0.500000 0.194085
O O6 0.798236 0.417535 0.082534
O O7 0.000000 0.444035 0.250000
O O8 0.290595 0.824770 0.121522
O O9 0.253405 0.250000 0.250000
O O10 0.000000 0.250000 0.125426
O O11 0.250000 0.250000 0.000000
#
# Coordination Sequence:
#
# PCOD9509201 Si02
#       4
#    16  16  16  16
#     4  10  23  41  70 104 143 191 251 303 387 451
#     4  11  24  43  72 107 149 194 251 313 385 475
#     4  11  23  43  71  99 151 197 250 320 387 460
#     4  11  27  46  74 111 154 198 267 317 396 466
#
# _framework density 23.886566999999999
#
# number of rings (size 3 to 8) (size 9 to 14) (size 15 to 20)
#    0.000    1.250    0.000    5.250   10.500    1.500 
#    0.000    8.750    0.000    0.000    0.000    0.000 
#    0.000    0.000    0.000    0.000    0.000    0.000 
#
# Total GULP energy -178275.764732 kJ/mol
# GULP energy per Si atom -5571.117648 kJ/mol
# Density = 2.383220 g / cm^3
# Si number density = 23.886567 Si / 1000 Ang^3
#
#
#
# Elastic Constant Matrix: (Units=GPa)
#
#
# Indices 1 2 3 4 5 6 
#
# 1 130.2708 18.2594 32.6059 0.0000 0.0000 0.0000
# 2 18.2594 115.4908 15.9747 0.0000 0.0000 0.0000
# 3 32.6059 15.9747 159.5537 0.0000 0.0000 0.0000
# 4 0.0000 0.0000 0.0000 34.2885 0.0000 0.0000
# 5 0.0000 0.0000 0.0000 0.0000 65.7040 0.0000
# 6 0.0000 0.0000 0.0000 0.0000 0.0000 101.3608
#
#
#
# Elastic Compliance Matrix: (Units=1/GPa)
#
#
# Indices 1 2 3 4 5 6 
#
# 1 0.008221 -0.001082 -0.001572 0.000000 0.000000 0.000000
# 2 -0.001082 0.008923 -0.000672 0.000000 0.000000 0.000000
# 3 -0.001572 -0.000672 0.006656 0.000000 0.000000 0.000000
# 4 0.000000 0.000000 0.000000 0.029164 0.000000 0.000000
# 5 0.000000 0.000000 0.000000 0.000000 0.015220 0.000000
# 6 0.000000 0.000000 0.000000 0.000000 0.000000 0.009866
#
#
# Mechanical properties :
#
#
# Convention : Reuss Voigt Hill
#
# Bulk Modulus (GPa) = 58.31730 59.88837 59.10284
# Shear Modulus (GPa) = 55.29840 62.83568 59.06704
#
# Velocity S-wave (km/s) = 4.81671 5.13449 4.97813
# Velocity P-wave (km/s) = 7.44322 7.76383 7.60521
#
# Compressibility (1/GPa) = 0.01714757
#
# Stress axis : x y z
#
# Youngs Moduli (GPa) = 121.63329 112.07232 150.24090
#
# Poissons Ratio (x) = 0.12131 0.23614
# Poissons Ratio (y) = 0.13166 0.10099
# Poissons Ratio (z) = 0.19118 0.07533
#
# Static dielectric constant tensor:
#      x y z
#    x 1.957720 0.000000 0.000000 
#    y 0.000000 1.936660 0.000000 
#    z 0.000000 0.000000 2.383810 
# 
# From -- ./inp_files/10753.got.cif
#   From: 2010.05.17/outbox.cif.g08.bks.cpg/sg68_6_cif.got.tgz:10753.got - 2010.06.03 18:57:09.
