data_PCOD9509591
_publ_section_title
;
Structure prediction by ZEFSAII (Michael W. Deem and Ramdas Pophale) SiO2 
 PCOD9509591
Probable space group: C C C A
;
_chemical_formula_sum "Si O2"
_cell_formula_units_Z 48
_cell_length_a 12.143144
_cell_length_b 10.319559
_cell_length_c 16.958998
_cell_angle_alpha 90.000000
_cell_angle_beta 90.000000
_cell_angle_gamma 90.000000
_cell_volume 2125.164108
_symmetry_space_group_name_H-M "C C C A"
_symmetry_group_IT_number 68
_space_group.IT_coordinate_system_code '2'
_symmetry_cell_setting 'orthorhombic'
loop_
_space_group_symop_operation_xyz
x,y,z
-x,1/2-y,z
x,1/2-y,1/2-z
-x,y,1/2-z
-x,-y,-z
x,1/2+y,-z
-x,1/2+y,1/2+z
x,-y,1/2+z
1/2+x,1/2+y,z
1/2-x,-y,z
1/2+x,-y,1/2-z
1/2-x,1/2+y,1/2-z
1/2-x,1/2-y,-z
1/2+x,y,-z
1/2-x,y,1/2+z
1/2+x,1/2-y,1/2+z
loop_
_atom_site_type_symbol
_atom_site_label
_atom_site_fract_x
_atom_site_fract_y
_atom_site_fract_z
Si Si1 0.870224 0.955577 0.082626
Si Si2 0.201494 0.204276 0.660756
Si Si3 0.098423 0.559581 0.894818
O O1 0.869429 0.806690 0.110308
O O2 0.750000 0.000000 0.108934
O O3 0.878638 0.959349 0.987982
O O4 0.967394 0.046562 0.114996
O O5 0.202044 0.250000 0.750000
O O6 0.327039 0.180974 0.630867
O O7 0.144777 0.065259 0.650729
#
# Coordination Sequence:
#
# PCOD9509591 Si02
#       3
#    16  16  16
#     4  11  23  42  71  98 136 178 232 293 340 414
#     4  11  24  45  68  98 142 181 228 289 356 423
#     4  10  24  44  68 101 133 183 243 276 350 427
#
# _framework density 22.586490000000001
#
# number of rings (size 3 to 8) (size 9 to 14) (size 15 to 20)
#    0.000    1.333    3.333    2.000    4.667    4.000 
#    0.000    1.667    0.000    0.000    0.000    0.000 
#    0.000    0.000    0.000    0.000    0.000    0.000 
#
# Total GULP energy -134099.149795 kJ/mol
# GULP energy per Si atom -5587.464575 kJ/mol
# Density = 2.253508 g / cm^3
# Si number density = 22.586490 Si / 1000 Ang^3
#
#
#
# Elastic Constant Matrix: (Units=GPa)
#
#
# Indices 1 2 3 4 5 6 
#
# 1 188.5833 27.9221 36.3163 0.0000 0.0000 0.0000
# 2 27.9221 48.0158 23.8076 0.0000 0.0000 0.0000
# 3 36.3163 23.8076 89.0373 0.0000 0.0000 0.0000
# 4 0.0000 0.0000 0.0000 34.6673 0.0000 0.0000
# 5 0.0000 0.0000 0.0000 0.0000 -4.1554 0.0000
# 6 0.0000 0.0000 0.0000 0.0000 0.0000 71.1245
#
#
#
# Elastic Compliance Matrix: (Units=1/GPa)
#
#
# Indices 1 2 3 4 5 6 
#
# 1 0.006031 -0.002637 -0.001755 0.000000 0.000000 0.000000
# 2 -0.002637 0.025163 -0.005653 0.000000 0.000000 0.000000
# 3 -0.001755 -0.005653 0.013458 0.000000 0.000000 0.000000
# 4 0.000000 0.000000 0.000000 0.028846 0.000000 0.000000
# 5 0.000000 0.000000 0.000000 0.000000 -0.240652 0.000000
# 6 0.000000 0.000000 0.000000 0.000000 0.000000 0.014060
#
#
# Mechanical properties :
#
#
# Convention : Reuss Voigt Hill
#
# Bulk Modulus (GPa) = 40.71131 55.74761 48.22946
# Shear Modulus (GPa) = -40.05861 36.16664 -1.94598
#
# Velocity S-wave (km/s) = -4.21594 4.00590 -0.92921
# Velocity P-wave (km/s) = 2.37384 6.79204 4.49982
#
# Compressibility (1/GPa) = 0.02456320
#
# Stress axis : x y z
#
# Youngs Moduli (GPa) = 165.80763 39.74126 74.30276
#
# Poissons Ratio (x) = 0.10480 0.13039
# Poissons Ratio (y) = 0.43725 0.42001
# Poissons Ratio (z) = 0.29096 0.22464
#
# Static dielectric constant tensor:
#      x y z
#    x 1.915600 0.000000 0.000000 
#    y 0.000000 1.800730 0.000000 
#    z 0.000000 0.000000 1.771060 
# 
# From -- ./inp_files/21451.got.cif
#   From: 2010.05.17/outbox.cif.g08.bks.cpg/sg68_11_cif.got.tgz:21451.got - 2010.06.03 18:57:09.
