data_PCOD9509862
_publ_section_title
;
Structure prediction by ZEFSAII (Michael W. Deem and Ramdas Pophale) SiO2 
 PCOD9509862
Probable space group: C C C A
;
_chemical_formula_sum "Si O2"
_cell_formula_units_Z 88
_cell_length_a 14.703179
_cell_length_b 26.796945
_cell_length_c 10.429149
_cell_angle_alpha 90.000000
_cell_angle_beta 90.000000
_cell_angle_gamma 90.000000
_cell_volume 4109.087616
_symmetry_space_group_name_H-M "C C C A"
_symmetry_group_IT_number 68
_space_group.IT_coordinate_system_code '2'
_symmetry_cell_setting 'orthorhombic'
loop_
_space_group_symop_operation_xyz
x,y,z
-x,1/2-y,z
x,1/2-y,1/2-z
-x,y,1/2-z
-x,-y,-z
x,1/2+y,-z
-x,1/2+y,1/2+z
x,-y,1/2+z
1/2+x,1/2+y,z
1/2-x,-y,z
1/2+x,-y,1/2-z
1/2-x,1/2+y,1/2-z
1/2-x,1/2-y,-z
1/2+x,y,-z
1/2-x,y,1/2+z
1/2+x,1/2-y,1/2+z
loop_
_atom_site_type_symbol
_atom_site_label
_atom_site_fract_x
_atom_site_fract_y
_atom_site_fract_z
Si Si1 0.189928 0.592828 0.482558
Si Si2 0.884028 0.863700 0.993992
Si Si3 0.838021 0.254278 0.907604
Si Si4 0.054096 0.341420 0.877178
Si Si5 0.602490 0.422145 0.758495
Si Si6 0.750000 0.000000 0.343848
O O1 0.290838 0.608198 0.527037
O O2 0.148077 0.627258 0.369891
O O3 0.126638 0.599434 0.604241
O O4 0.192293 0.536929 0.432580
O O5 0.874905 0.807501 0.044949
O O6 0.979829 0.877727 0.056955
O O7 0.891650 0.877299 0.844521
O O8 0.821865 0.250000 0.750000
O O9 0.909234 0.209926 0.938198
O O10 0.750000 0.250000 0.000000
O O11 0.000000 0.326880 0.750000
O O12 0.500000 0.442686 0.750000
O O13 0.679334 0.464111 0.730027
#
# Coordination Sequence:
#
# PCOD9509862 Si02
#       6
#    16  16  16  16  16   8
#     4  11  25  47  69 103 139 184 237 295 365 422
#     4  11  25  43  70  98 143 186 230 295 351 422
#     4  12  26  44  71 106 144 191 242 292 352 424
#     4  12  25  44  70 103 139 188 238 285 352 429
#     4  11  24  47  71 103 142 181 240 296 364 429
#     4  10  26  44  72 104 138 186 232 304 360 438
#
# _framework density 21.415946999999999
#
# number of rings (size 3 to 8) (size 9 to 14) (size 15 to 20)
#    0.000    0.727    5.455    1.091    7.636    1.455 
#    0.000    0.000    0.000    0.000    0.000    0.000 
#    0.000    0.000    0.000    0.000    0.000    0.000 
#
# Total GULP energy -245087.677647 kJ/mol
# GULP energy per Si atom -5570.174492 kJ/mol
# Density = 2.136720 g / cm^3
# Si number density = 21.415947 Si / 1000 Ang^3
#
#
#
# Elastic Constant Matrix: (Units=GPa)
#
#
# Indices 1 2 3 4 5 6 
#
# 1 123.1991 3.3512 50.2072 0.0000 0.0000 0.0000
# 2 3.3512 83.9563 19.4579 0.0000 0.0000 0.0000
# 3 50.2072 19.4579 51.8234 0.0000 0.0000 0.0000
# 4 0.0000 0.0000 0.0000 -6.1879 0.0000 0.0000
# 5 0.0000 0.0000 0.0000 0.0000 39.3154 0.0000
# 6 0.0000 0.0000 0.0000 0.0000 0.0000 34.1581
#
#
#
# Elastic Compliance Matrix: (Units=1/GPa)
#
#
# Indices 1 2 3 4 5 6 
#
# 1 0.014001 0.002831 -0.014627 0.000000 0.000000 0.000000
# 2 0.002831 0.013619 -0.007856 0.000000 0.000000 0.000000
# 3 -0.014627 -0.007856 0.036417 0.000000 0.000000 0.000000
# 4 0.000000 0.000000 0.000000 -0.161605 0.000000 0.000000
# 5 0.000000 0.000000 0.000000 0.000000 0.025435 0.000000
# 6 0.000000 0.000000 0.000000 0.000000 0.000000 0.029276
#
#
# Mechanical properties :
#
#
# Convention : Reuss Voigt Hill
#
# Bulk Modulus (GPa) = 40.43330 45.00130 42.71730
# Shear Modulus (GPa) = 1065.52354 25.85459 545.68907
#
# Velocity S-wave (km/s) = 22.32975 3.47833 15.97993
# Velocity P-wave (km/s) = 26.14851 6.09839 18.98598
#
# Compressibility (1/GPa) = 0.02473209
#
# Stress axis : x y z
#
# Youngs Moduli (GPa) = 71.42334 73.42824 27.45948
#
# Poissons Ratio (x) = -0.20789 0.40166
# Poissons Ratio (y) = -0.20221 0.21573
# Poissons Ratio (z) = 1.04474 0.57687
#
# Static dielectric constant tensor:
#      x y z
#    x 1.971650 0.000000 0.000000 
#    y 0.000000 1.771880 0.000000 
#    z 0.000000 0.000000 1.968240 
# 
# From -- ./inp_files/13332.got.cif
#   From: 2010.05.17/outbox.cif.g08.bks.cpg/sg68_7_cif.got.tgz:13332.got - 2010.06.03 18:57:09.
