data_PCOD9509240
_publ_section_title
;
Structure prediction by ZEFSAII (Michael W. Deem and Ramdas Pophale) SiO2 
 PCOD9509240
Probable space group: C C C A
;
_chemical_formula_sum "Si O2"
_cell_formula_units_Z 52
_cell_length_a 18.051676
_cell_length_b 10.229710
_cell_length_c 12.598409
_cell_angle_alpha 90.000000
_cell_angle_beta 90.000000
_cell_angle_gamma 90.000000
_cell_volume 2326.465173
_symmetry_space_group_name_H-M "C C C A"
_symmetry_group_IT_number 68
_space_group.IT_coordinate_system_code '2'
_symmetry_cell_setting 'orthorhombic'
loop_
_space_group_symop_operation_xyz
x,y,z
-x,1/2-y,z
x,1/2-y,1/2-z
-x,y,1/2-z
-x,-y,-z
x,1/2+y,-z
-x,1/2+y,1/2+z
x,-y,1/2+z
1/2+x,1/2+y,z
1/2-x,-y,z
1/2+x,-y,1/2-z
1/2-x,1/2+y,1/2-z
1/2-x,1/2-y,-z
1/2+x,y,-z
1/2-x,y,1/2+z
1/2+x,1/2-y,1/2+z
loop_
_atom_site_type_symbol
_atom_site_label
_atom_site_fract_x
_atom_site_fract_y
_atom_site_fract_z
Si Si1 0.933100 0.941596 0.068828
Si Si2 0.000000 0.750000 0.250000
Si Si3 0.812679 0.392180 0.334921
Si Si4 0.194185 0.122323 0.090279
O O1 0.887142 0.066521 0.108337
O O2 0.955942 0.846421 0.167233
O O3 0.873581 0.874014 0.990732
O O4 0.000000 0.000000 0.000000
O O5 0.750000 0.500000 0.340431
O O6 0.834592 0.390726 0.211340
O O7 0.725512 0.767990 0.108389
O O8 0.250000 0.000000 0.072035
#
# Coordination Sequence:
#
# PCOD9509240 Si02
#       4
#    16   4  16  16
#     4  12  25  43  67  98 139 185 235 290 356 425
#     4  12  28  44  68 104 144 192 244 300 360 438
#     4  10  23  42  67  99 136 175 227 289 349 421
#     4  10  23  44  70  99 133 179 228 285 355 424
#
# _framework density 22.351507000000002
#
# number of rings (size 3 to 8) (size 9 to 14) (size 15 to 20)
#    0.000    1.231    0.000    4.615    0.000   12.308 
#    0.000    3.077    0.000    1.846    0.000    0.000 
#    0.000    0.000    0.000    0.000    0.000    0.000 
#
# Total GULP energy -144957.422144 kJ/mol
# GULP energy per Si atom -5575.285467 kJ/mol
# Density = 2.230063 g / cm^3
# Si number density = 22.351507 Si / 1000 Ang^3
#
#
#
# Elastic Constant Matrix: (Units=GPa)
#
#
# Indices 1 2 3 4 5 6 
#
# 1 110.6493 44.5597 63.6301 0.0000 0.0000 0.0000
# 2 44.5597 146.1232 49.8200 0.0000 0.0000 0.0000
# 3 63.6301 49.8200 182.2421 0.0000 0.0000 0.0000
# 4 0.0000 0.0000 0.0000 -36.9136 0.0000 0.0000
# 5 0.0000 0.0000 0.0000 0.0000 44.2094 0.0000
# 6 0.0000 0.0000 0.0000 0.0000 0.0000 21.9742
#
#
#
# Elastic Compliance Matrix: (Units=1/GPa)
#
#
# Indices 1 2 3 4 5 6 
#
# 1 0.012068 -0.002474 -0.003537 0.000000 0.000000 0.000000
# 2 -0.002474 0.008054 -0.001338 0.000000 0.000000 0.000000
# 3 -0.003537 -0.001338 0.007088 0.000000 0.000000 0.000000
# 4 0.000000 0.000000 0.000000 -0.027090 0.000000 0.000000
# 5 0.000000 0.000000 0.000000 0.000000 0.022620 0.000000
# 6 0.000000 0.000000 0.000000 0.000000 0.000000 0.045508
#
#
# Mechanical properties :
#
#
# Convention : Reuss Voigt Hill
#
# Bulk Modulus (GPa) = 79.92554 83.89270 81.90912
# Shear Modulus (GPa) = 57.39442 24.58766 40.99104
#
# Velocity S-wave (km/s) = 5.07285 3.32029 4.28708
# Velocity P-wave (km/s) = 8.37543 7.23284 7.82502
#
# Compressibility (1/GPa) = 0.01251164
#
# Stress axis : x y z
#
# Youngs Moduli (GPa) = 82.86361 124.15924 141.08361
#
# Poissons Ratio (x) = 0.30718 0.49904
# Poissons Ratio (y) = 0.20501 0.18876
# Poissons Ratio (z) = 0.29311 0.16612
#
# Static dielectric constant tensor:
#      x y z
#    x 1.909060 0.000000 0.000000 
#    y 0.000000 1.527230 0.000000 
#    z 0.000000 0.000000 1.919190 
# 
# From -- ./inp_files/13880.got.cif
#   From: 2010.05.17/outbox.cif.g08.bks.cpg/sg68_7_cif.got.tgz:13880.got - 2010.06.03 18:57:09.
