data_PCOD9509957
_publ_section_title
;
Structure prediction by ZEFSAII (Michael W. Deem and Ramdas Pophale) SiO2 
 PCOD9509957
Probable space group: C C C A
;
_chemical_formula_sum "Si O2"
_cell_formula_units_Z 96
_cell_length_a 18.064033
_cell_length_b 16.584346
_cell_length_c 17.208851
_cell_angle_alpha 90.000000
_cell_angle_beta 90.000000
_cell_angle_gamma 90.000000
_cell_volume 5155.430567
_symmetry_space_group_name_H-M "C C C A"
_symmetry_group_IT_number 68
_space_group.IT_coordinate_system_code '2'
_symmetry_cell_setting 'orthorhombic'
loop_
_space_group_symop_operation_xyz
x,y,z
-x,1/2-y,z
x,1/2-y,1/2-z
-x,y,1/2-z
-x,-y,-z
x,1/2+y,-z
-x,1/2+y,1/2+z
x,-y,1/2+z
1/2+x,1/2+y,z
1/2-x,-y,z
1/2+x,-y,1/2-z
1/2-x,1/2+y,1/2-z
1/2-x,1/2-y,-z
1/2+x,y,-z
1/2-x,y,1/2+z
1/2+x,1/2-y,1/2+z
loop_
_atom_site_type_symbol
_atom_site_label
_atom_site_fract_x
_atom_site_fract_y
_atom_site_fract_z
Si Si1 0.716054 0.412394 0.547413
Si Si2 0.129157 0.378149 0.603156
Si Si3 0.065730 0.953012 0.608109
Si Si4 0.148989 0.807525 0.100410
Si Si5 0.472216 0.390307 0.487197
Si Si6 0.419046 0.917872 0.734093
O O1 0.750000 0.500000 0.565168
O O2 0.688531 0.409886 0.458538
O O3 0.641146 0.404433 0.597363
O O4 0.775268 0.344002 0.567159
O O5 0.149816 0.285858 0.620904
O O6 0.121352 0.425359 0.683795
O O7 0.048308 0.380289 0.561526
O O8 0.996361 0.902051 0.576345
O O9 0.065785 0.027694 0.545541
O O10 0.065025 0.998351 0.689647
O O11 0.085134 0.821397 0.035379
O O12 0.124878 0.860932 0.174594
O O13 0.500000 0.880128 0.750000
#
# Coordination Sequence:
#
# PCOD9509957 Si02
#       6
#    16  16  16  16  16  16
#     4  11  21  39  55  74 112 157 194 232 274 351
#     4  11  22  34  54  89 111 146 191 242 292 347
#     4   9  18  34  54  78 109 150 184 223 282 340
#     4  11  21  35  57  81 121 151 184 233 300 349
#     4   9  17  31  57  78 110 143 185 225 276 345
#     4  11  20  33  56  85 115 139 179 242 303 342
#
# _framework density 18.621141000000001
#
# number of rings (size 3 to 8) (size 9 to 14) (size 15 to 20)
#    0.000    1.667    6.667    1.500    0.000    0.667 
#    3.000    0.000    0.000    0.000    0.000    0.000 
#    0.000    0.333    0.000    0.000    0.000    0.000 
#
# Total GULP energy -267657.576940 kJ/mol
# GULP energy per Si atom -5576.199520 kJ/mol
# Density = 1.857876 g / cm^3
# Si number density = 18.621141 Si / 1000 Ang^3
#
#
#
# Elastic Constant Matrix: (Units=GPa)
#
#
# Indices 1 2 3 4 5 6 
#
# 1 87.5228 10.7230 35.5481 0.0000 0.0000 0.0000
# 2 10.7230 26.3914 30.4296 0.0000 0.0000 0.0000
# 3 35.5481 30.4296 101.7575 0.0000 0.0000 0.0000
# 4 0.0000 0.0000 0.0000 19.1238 0.0000 0.0000
# 5 0.0000 0.0000 0.0000 0.0000 28.3060 0.0000
# 6 0.0000 0.0000 0.0000 0.0000 0.0000 21.3855
#
#
#
# Elastic Compliance Matrix: (Units=1/GPa)
#
#
# Indices 1 2 3 4 5 6 
#
# 1 0.013315 -0.000071 -0.004630 0.000000 0.000000 0.000000
# 2 -0.000071 0.057832 -0.017269 0.000000 0.000000 0.000000
# 3 -0.004630 -0.017269 0.016609 0.000000 0.000000 0.000000
# 4 0.000000 0.000000 0.000000 0.052291 0.000000 0.000000
# 5 0.000000 0.000000 0.000000 0.000000 0.035328 0.000000
# 6 0.000000 0.000000 0.000000 0.000000 0.000000 0.046761
#
#
# Mechanical properties :
#
#
# Convention : Reuss Voigt Hill
#
# Bulk Modulus (GPa) = 22.82356 41.00811 31.91584
# Shear Modulus (GPa) = 17.81381 23.02778 20.42080
#
# Velocity S-wave (km/s) = 3.09632 3.52041 3.31516
# Velocity P-wave (km/s) = 5.00663 6.21245 5.64185
#
# Compressibility (1/GPa) = 0.04381437
#
# Stress axis : x y z
#
# Youngs Moduli (GPa) = 75.10386 17.29158 60.20854
#
# Poissons Ratio (x) = 0.00123 0.27877
# Poissons Ratio (y) = 0.00536 1.03975
# Poissons Ratio (z) = 0.34774 0.29861
#
# Static dielectric constant tensor:
#      x y z
#    x 1.668790 0.000000 0.000000 
#    y 0.000000 1.656270 0.000000 
#    z 0.000000 0.000000 1.674840 
# 
# From -- ./inp_files/32024.got.cif
#   From: 2010.05.17/outbox.cif.g08.bks.cpg/sg68_17_cif.got.tgz:32024.got - 2010.06.03 18:57:09.
