data_PCOD9509585
_publ_section_title
;
Structure prediction by ZEFSAII (Michael W. Deem and Ramdas Pophale) SiO2 
 PCOD9509585
Probable space group: C C C A
;
_chemical_formula_sum "Si O2"
_cell_formula_units_Z 96
_cell_length_a 22.381521
_cell_length_b 24.747540
_cell_length_c 8.493382
_cell_angle_alpha 90.000000
_cell_angle_beta 90.000000
_cell_angle_gamma 90.000000
_cell_volume 4704.378855
_symmetry_space_group_name_H-M "C C C A"
_symmetry_group_IT_number 68
_space_group.IT_coordinate_system_code '2'
_symmetry_cell_setting 'orthorhombic'
loop_
_space_group_symop_operation_xyz
x,y,z
-x,1/2-y,z
x,1/2-y,1/2-z
-x,y,1/2-z
-x,-y,-z
x,1/2+y,-z
-x,1/2+y,1/2+z
x,-y,1/2+z
1/2+x,1/2+y,z
1/2-x,-y,z
1/2+x,-y,1/2-z
1/2-x,1/2+y,1/2-z
1/2-x,1/2-y,-z
1/2+x,y,-z
1/2-x,y,1/2+z
1/2+x,1/2-y,1/2+z
loop_
_atom_site_type_symbol
_atom_site_label
_atom_site_fract_x
_atom_site_fract_y
_atom_site_fract_z
Si Si1 0.431441 0.761847 0.939375
Si Si2 0.402042 0.647878 0.983992
Si Si3 0.330921 0.450328 0.426611
Si Si4 0.937708 0.030398 0.519101
Si Si5 0.250000 0.500000 0.665539
Si Si6 0.935825 0.139538 0.327355
Si Si7 0.500000 0.100640 0.250000
O O1 0.500000 0.750000 0.983693
O O2 0.428774 0.750000 0.750000
O O3 0.392268 0.711559 0.994075
O O4 0.417562 0.817228 0.035616
O O5 0.353945 0.610033 0.901745
O O6 0.465123 0.634958 0.886892
O O7 0.399339 0.632205 0.166813
O O8 0.384567 0.488620 0.491177
O O9 0.278348 0.454399 0.554877
O O10 0.302320 0.476057 0.272124
O O11 0.936249 0.079985 0.399073
O O12 0.947909 0.062025 0.682958
O O13 0.000000 0.000000 0.500000
O O14 0.000000 0.155348 0.250000
#
# Coordination Sequence:
#
# PCOD9509585 Si02
#       7
#    16  16  16  16   8  16   8
#     4  11  22  37  55  82 128 177 215 252 313 400
#     4  12  23  36  60  89 127 173 215 260 328 401
#     4  11  23  43  65  93 126 171 225 276 340 387
#     4  12  24  36  60  93 137 168 210 262 338 417
#     4  10  24  44  66  88 124 176 232 288 322 390
#     4  12  22  36  53  86 130 180 214 253 317 401
#     4  12  22  34  53  90 132 173 202 252 328 418
#
# _framework density 20.406518999999999
#
# number of rings (size 3 to 8) (size 9 to 14) (size 15 to 20)
#    0.000    0.500    5.000    4.500    3.500    0.000 
#    0.000    0.000    0.000    0.000    0.000   29.167 
#    0.000    0.000    0.000    0.000    0.000    0.000 
#
# Total GULP energy -267507.805315 kJ/mol
# GULP energy per Si atom -5573.079277 kJ/mol
# Density = 2.036007 g / cm^3
# Si number density = 20.406519 Si / 1000 Ang^3
#
#
#
# Elastic Constant Matrix: (Units=GPa)
#
#
# Indices 1 2 3 4 5 6 
#
# 1 52.4970 15.3790 0.8945 0.0000 0.0000 0.0000
# 2 15.3790 126.7928 18.8940 0.0000 0.0000 0.0000
# 3 0.8945 18.8940 76.6166 0.0000 0.0000 0.0000
# 4 0.0000 0.0000 0.0000 27.2464 0.0000 0.0000
# 5 0.0000 0.0000 0.0000 0.0000 15.1133 0.0000
# 6 0.0000 0.0000 0.0000 0.0000 0.0000 18.7354
#
#
#
# Elastic Compliance Matrix: (Units=1/GPa)
#
#
# Indices 1 2 3 4 5 6 
#
# 1 0.019761 -0.002453 0.000374 0.000000 0.000000 0.000000
# 2 -0.002453 0.008492 -0.002066 0.000000 0.000000 0.000000
# 3 0.000374 -0.002066 0.013557 0.000000 0.000000 0.000000
# 4 0.000000 0.000000 0.000000 0.036702 0.000000 0.000000
# 5 0.000000 0.000000 0.000000 0.000000 0.066167 0.000000
# 6 0.000000 0.000000 0.000000 0.000000 0.000000 0.053375
#
#
# Mechanical properties :
#
#
# Convention : Reuss Voigt Hill
#
# Bulk Modulus (GPa) = 29.83125 36.24906 33.04015
# Shear Modulus (GPa) = 22.98681 26.93494 24.96088
#
# Velocity S-wave (km/s) = 3.35990 3.63701 3.50120
# Velocity P-wave (km/s) = 5.44996 5.95308 5.70707
#
# Compressibility (1/GPa) = 0.03352189
#
# Stress axis : x y z
#
# Youngs Moduli (GPa) = 50.60517 117.75563 73.76260
#
# Poissons Ratio (x) = 0.28881 -0.02760
# Poissons Ratio (y) = 0.12411 0.15236
# Poissons Ratio (z) = -0.01893 0.24323
#
# Static dielectric constant tensor:
#      x y z
#    x 1.730680 0.000000 0.000000 
#    y 0.000000 1.771250 0.000000 
#    z 0.000000 0.000000 1.884040 
# 
# From -- ./inp_files/8174.got.cif
#   From: 2010.05.17/outbox.cif.g08.bks.cpg/sg68_5_cif.got.tgz:8174.got - 2010.06.03 18:57:09.
