data_PCOD9509804
_publ_section_title
;
Structure prediction by ZEFSAII (Michael W. Deem and Ramdas Pophale) SiO2 
 PCOD9509804
Probable space group: C C C A
;
_chemical_formula_sum "Si O2"
_cell_formula_units_Z 56
_cell_length_a 11.710658
_cell_length_b 7.625421
_cell_length_c 29.150133
_cell_angle_alpha 90.000000
_cell_angle_beta 90.000000
_cell_angle_gamma 90.000000
_cell_volume 2603.068907
_symmetry_space_group_name_H-M "C C C A"
_symmetry_group_IT_number 68
_space_group.IT_coordinate_system_code '2'
_symmetry_cell_setting 'orthorhombic'
loop_
_space_group_symop_operation_xyz
x,y,z
-x,1/2-y,z
x,1/2-y,1/2-z
-x,y,1/2-z
-x,-y,-z
x,1/2+y,-z
-x,1/2+y,1/2+z
x,-y,1/2+z
1/2+x,1/2+y,z
1/2-x,-y,z
1/2+x,-y,1/2-z
1/2-x,1/2+y,1/2-z
1/2-x,1/2-y,-z
1/2+x,y,-z
1/2-x,y,1/2+z
1/2+x,1/2-y,1/2+z
loop_
_atom_site_type_symbol
_atom_site_label
_atom_site_fract_x
_atom_site_fract_y
_atom_site_fract_z
Si Si1 0.483570 0.043570 0.946875
Si Si2 0.615561 0.059299 0.272059
Si Si3 0.148379 0.633291 0.374816
Si Si4 0.750000 0.000000 0.602743
O O1 0.500000 0.250000 0.938627
O O2 0.355361 0.023901 0.930670
O O3 0.561103 0.915352 0.915533
O O4 0.500000 0.000000 0.000000
O O5 0.617645 0.250000 0.250000
O O6 0.500000 0.970521 0.250000
O O7 0.593636 0.079189 0.326363
O O8 0.750000 0.000000 0.266790
O O9 0.250000 0.500000 0.383807
O O10 0.207809 0.825449 0.370372
#
# Coordination Sequence:
#
# PCOD9509804 Si02
#       4
#    16  16  16   8
#     4  12  27  46  72 109 146 192 245 301 364 440
#     4  10  25  45  70 104 144 186 244 305 366 445
#     4  11  25  48  72 105 145 194 247 297 368 441
#     4  12  26  44  78  98 148 196 236 308 364 426
#
# _framework density 21.513069999999999
#
# number of rings (size 3 to 8) (size 9 to 14) (size 15 to 20)
#    0.000    0.857    2.857    2.571   12.000    2.857 
#    0.000    0.000    0.000    0.000    0.000    0.000 
#    0.000    0.000    0.000    0.000    0.000    0.000 
#
# Total GULP energy -156030.249625 kJ/mol
# GULP energy per Si atom -5572.508915 kJ/mol
# Density = 2.146410 g / cm^3
# Si number density = 21.513070 Si / 1000 Ang^3
#
#
#
# Elastic Constant Matrix: (Units=GPa)
#
#
# Indices 1 2 3 4 5 6 
#
# 1 162.2985 52.1637 85.9246 0.0000 0.0000 0.0000
# 2 52.1637 123.3476 24.6323 0.0000 0.0000 0.0000
# 3 85.9246 24.6323 155.4835 0.0000 0.0000 0.0000
# 4 0.0000 0.0000 0.0000 27.7893 0.0000 0.0000
# 5 0.0000 0.0000 0.0000 0.0000 9.2349 0.0000
# 6 0.0000 0.0000 0.0000 0.0000 0.0000 39.6173
#
#
#
# Elastic Compliance Matrix: (Units=1/GPa)
#
#
# Indices 1 2 3 4 5 6 
#
# 1 0.009768 -0.003153 -0.004899 0.000000 0.000000 0.000000
# 2 -0.003153 0.009390 0.000255 0.000000 0.000000 0.000000
# 3 -0.004899 0.000255 0.009098 0.000000 0.000000 0.000000
# 4 0.000000 0.000000 0.000000 0.035985 0.000000 0.000000
# 5 0.000000 0.000000 0.000000 0.000000 0.108284 0.000000
# 6 0.000000 0.000000 0.000000 0.000000 0.000000 0.025242
#
#
# Mechanical properties :
#
#
# Convention : Reuss Voigt Hill
#
# Bulk Modulus (GPa) = 78.97165 85.17457 82.07311
# Shear Modulus (GPa) = 22.97987 33.88891 28.43439
#
# Velocity S-wave (km/s) = 3.27185 3.97327 3.63950
# Velocity P-wave (km/s) = 7.14575 7.79276 7.47626
#
# Compressibility (1/GPa) = 0.01266277
#
# Stress axis : x y z
#
# Youngs Moduli (GPa) = 102.37164 106.50092 109.90943
#
# Poissons Ratio (x) = 0.33577 0.53842
# Poissons Ratio (y) = 0.32275 -0.02800
# Poissons Ratio (z) = 0.50150 -0.02713
#
# Static dielectric constant tensor:
#      x y z
#    x 1.736360 0.000000 0.000000 
#    y 0.000000 1.724210 0.000000 
#    z 0.000000 0.000000 1.777790 
# 
# From -- ./inp_files/48714.got.cif
#   From: 2010.05.17/outbox.cif.g08.bks.cpg/sg68_25_cif.got.tgz:48714.got - 2010.06.03 18:57:09.
