data_PCOD9509331
_publ_section_title
;
Structure prediction by ZEFSAII (Michael W. Deem and Ramdas Pophale) SiO2 
 PCOD9509331
Probable space group: C C C A
;
_chemical_formula_sum "Si O2"
_cell_formula_units_Z 104
_cell_length_a 16.565620
_cell_length_b 11.034279
_cell_length_c 25.495587
_cell_angle_alpha 90.000000
_cell_angle_beta 90.000000
_cell_angle_gamma 90.000000
_cell_volume 4660.330008
_symmetry_space_group_name_H-M "C C C A"
_symmetry_group_IT_number 68
_space_group.IT_coordinate_system_code '2'
_symmetry_cell_setting 'orthorhombic'
loop_
_space_group_symop_operation_xyz
x,y,z
-x,1/2-y,z
x,1/2-y,1/2-z
-x,y,1/2-z
-x,-y,-z
x,1/2+y,-z
-x,1/2+y,1/2+z
x,-y,1/2+z
1/2+x,1/2+y,z
1/2-x,-y,z
1/2+x,-y,1/2-z
1/2-x,1/2+y,1/2-z
1/2-x,1/2-y,-z
1/2+x,y,-z
1/2-x,y,1/2+z
1/2+x,1/2-y,1/2+z
loop_
_atom_site_type_symbol
_atom_site_label
_atom_site_fract_x
_atom_site_fract_y
_atom_site_fract_z
Si Si1 0.250000 0.500000 0.030344
Si Si2 0.000000 0.750000 0.430870
Si Si3 0.088099 0.016912 0.226123
Si Si4 0.114552 0.867344 0.905097
Si Si5 0.447408 0.993317 0.608024
Si Si6 0.711549 0.129340 0.694386
Si Si7 0.880659 0.856222 0.982528
Si Si8 0.849336 0.250000 0.750000
O O1 0.176648 0.454522 0.065390
O O2 0.210778 0.611101 0.998264
O O3 0.042111 0.650596 0.394699
O O4 0.062930 0.822968 0.468018
O O5 0.091818 0.029342 0.163323
O O6 0.103260 0.874173 0.239537
O O7 0.000000 0.049069 0.250000
O O8 0.157161 0.095914 0.254835
O O9 0.153464 0.825943 0.850907
O O10 0.105245 0.754892 0.943471
O O11 0.032968 0.938182 0.893450
O O12 0.406840 0.029353 0.552829
O O13 0.786242 0.217865 0.703784
O O14 0.750000 0.000000 0.678570
#
# Coordination Sequence:
#
# PCOD9509331 Si02
#       8
#     8   8  16  16  16  16  16   8
#     4  12  26  44  70 106 138 180 248 286 354 424
#     4  12  24  44  73  94 139 186 232 296 354 406
#     4  11  24  43  71 104 135 182 241 292 338 434
#     4  12  23  44  73 101 139 188 231 287 360 426
#     4  12  26  44  73 104 138 184 243 289 358 420
#     4  10  23  44  66  99 141 180 220 286 359 424
#     4  12  26  46  69 102 142 182 234 302 350 422
#     4  10  25  42  69  94 148 174 228 288 357 402
#
# _framework density 22.316016000000001
#
# number of rings (size 3 to 8) (size 9 to 14) (size 15 to 20)
#    0.000    0.615    5.385    2.077    4.308    2.462 
#    1.385    0.385    0.000    0.000    0.000    0.000 
#    0.000    0.000    0.000    0.000    0.000    0.000 
#
# Total GULP energy -290807.704363 kJ/mol
# GULP energy per Si atom -5592.455853 kJ/mol
# Density = 2.226522 g / cm^3
# Si number density = 22.316016 Si / 1000 Ang^3
#
#
#
# Elastic Constant Matrix: (Units=GPa)
#
#
# Indices 1 2 3 4 5 6 
#
# 1 76.2926 -1.1004 17.8297 0.0000 0.0000 0.0000
# 2 -1.1004 57.6042 -4.0891 0.0000 0.0000 0.0000
# 3 17.8297 -4.0891 84.5292 0.0000 0.0000 0.0000
# 4 0.0000 0.0000 0.0000 26.5143 0.0000 0.0000
# 5 0.0000 0.0000 0.0000 0.0000 56.4380 0.0000
# 6 0.0000 0.0000 0.0000 0.0000 0.0000 25.5500
#
#
#
# Elastic Compliance Matrix: (Units=1/GPa)
#
#
# Indices 1 2 3 4 5 6 
#
# 1 0.013787 0.000057 -0.002905 0.000000 0.000000 0.000000
# 2 0.000057 0.017420 0.000831 0.000000 0.000000 0.000000
# 3 -0.002905 0.000831 0.012483 0.000000 0.000000 0.000000
# 4 0.000000 0.000000 0.000000 0.037715 0.000000 0.000000
# 5 0.000000 0.000000 0.000000 0.000000 0.017719 0.000000
# 6 0.000000 0.000000 0.000000 0.000000 0.000000 0.039139
#
#
# Mechanical properties :
#
#
# Convention : Reuss Voigt Hill
#
# Bulk Modulus (GPa) = 25.21738 27.07849 26.14794
# Shear Modulus (GPa) = 32.15083 35.41952 33.78518
#
# Velocity S-wave (km/s) = 3.79978 3.98826 3.89516
# Velocity P-wave (km/s) = 5.52954 5.77657 5.65440
#
# Compressibility (1/GPa) = 0.03965519
#
# Stress axis : x y z
#
# Youngs Moduli (GPa) = 72.53083 57.40564 80.10743
#
# Poissons Ratio (x) = -0.00328 0.23274
# Poissons Ratio (y) = -0.00414 -0.06654
# Poissons Ratio (z) = 0.21073 -0.04768
#
# Static dielectric constant tensor:
#      x y z
#    x 1.785680 0.000000 0.000000 
#    y 0.000000 1.864290 0.000000 
#    z 0.000000 0.000000 1.826470 
# 
# From -- ./inp_files/51474.got.cif
#   From: 2010.05.17/outbox.cif.g08.bks.cpg/sg68_26_cif.got.tgz:51474.got - 2010.06.03 18:57:09.
