data_PCOD9509975
_publ_section_title
;
Structure prediction by ZEFSAII (Michael W. Deem and Ramdas Pophale) SiO2 
 PCOD9509975
Probable space group: C C C A
;
_chemical_formula_sum "Si O2"
_cell_formula_units_Z 72
_cell_length_a 12.766807
_cell_length_b 17.259743
_cell_length_c 16.440082
_cell_angle_alpha 90.000000
_cell_angle_beta 90.000000
_cell_angle_gamma 90.000000
_cell_volume 3622.601788
_symmetry_space_group_name_H-M "C C C A"
_symmetry_group_IT_number 68
_space_group.IT_coordinate_system_code '2'
_symmetry_cell_setting 'orthorhombic'
loop_
_space_group_symop_operation_xyz
x,y,z
-x,1/2-y,z
x,1/2-y,1/2-z
-x,y,1/2-z
-x,-y,-z
x,1/2+y,-z
-x,1/2+y,1/2+z
x,-y,1/2+z
1/2+x,1/2+y,z
1/2-x,-y,z
1/2+x,-y,1/2-z
1/2-x,1/2+y,1/2-z
1/2-x,1/2-y,-z
1/2+x,y,-z
1/2-x,y,1/2+z
1/2+x,1/2-y,1/2+z
loop_
_atom_site_type_symbol
_atom_site_label
_atom_site_fract_x
_atom_site_fract_y
_atom_site_fract_z
Si Si1 0.444141 0.331159 0.894627
Si Si2 0.005341 0.582153 0.449438
Si Si3 0.162068 0.945803 0.311168
Si Si4 0.224531 0.407776 0.857108
Si Si5 0.000000 0.560860 0.750000
O O1 0.500000 0.250000 0.875213
O O2 0.319933 0.351688 0.885323
O O3 0.495887 0.389732 0.830530
O O4 0.476934 0.353828 0.984836
O O5 0.117451 0.599923 0.408439
O O6 0.000000 0.500000 0.500000
O O7 0.918133 0.583236 0.378326
O O8 0.207838 0.891203 0.240203
O O9 0.250000 0.000000 0.351795
O O10 0.097946 0.005335 0.255072
O O11 0.250000 0.500000 0.868858
#
# Coordination Sequence:
#
# PCOD9509975 Si02
#       5
#    16  16  16  16   8
#     4  12  27  42  63 100 146 185 223 290 373 439
#     4  12  22  37  68 100 136 177 238 300 348 424
#     4  11  20  36  69 103 127 175 244 300 352 399
#     4  11  20  41  66  96 134 175 237 301 343 417
#     4  12  19  42  66  98 131 178 232 290 345 418
#
# _framework density 19.875218
#
# number of rings (size 3 to 8) (size 9 to 14) (size 15 to 20)
#    0.000    0.444   11.111    0.333    3.111    0.889 
#    0.000    0.000    0.000    1.333    0.000    0.000 
#    0.000    0.000    0.000    0.000    0.000    0.000 
#
# Total GULP energy -200621.523215 kJ/mol
# GULP energy per Si atom -5572.820089 kJ/mol
# Density = 1.982998 g / cm^3
# Si number density = 19.875218 Si / 1000 Ang^3
#
#
#
# Elastic Constant Matrix: (Units=GPa)
#
#
# Indices 1 2 3 4 5 6 
#
# 1 139.8575 7.9205 42.7743 0.0000 0.0000 0.0000
# 2 7.9205 31.0477 6.9316 0.0000 0.0000 0.0000
# 3 42.7743 6.9316 117.9393 0.0000 0.0000 0.0000
# 4 0.0000 0.0000 0.0000 33.6012 0.0000 0.0000
# 5 0.0000 0.0000 0.0000 0.0000 36.4314 0.0000
# 6 0.0000 0.0000 0.0000 0.0000 0.0000 24.4583
#
#
#
# Elastic Compliance Matrix: (Units=1/GPa)
#
#
# Indices 1 2 3 4 5 6 
#
# 1 0.008104 -0.001430 -0.002855 0.000000 0.000000 0.000000
# 2 -0.001430 0.032889 -0.001414 0.000000 0.000000 0.000000
# 3 -0.002855 -0.001414 0.009598 0.000000 0.000000 0.000000
# 4 0.000000 0.000000 0.000000 0.029761 0.000000 0.000000
# 5 0.000000 0.000000 0.000000 0.000000 0.027449 0.000000
# 6 0.000000 0.000000 0.000000 0.000000 0.000000 0.040886
#
#
# Mechanical properties :
#
#
# Convention : Reuss Voigt Hill
#
# Bulk Modulus (GPa) = 25.51553 44.89971 35.20762
# Shear Modulus (GPa) = 28.87672 34.31272 31.59472
#
# Velocity S-wave (km/s) = 3.81583 4.15951 3.99137
# Velocity P-wave (km/s) = 5.68153 6.76081 6.24453
#
# Compressibility (1/GPa) = 0.03919181
#
# Stress axis : x y z
#
# Youngs Moduli (GPa) = 123.39007 30.40522 104.19264
#
# Poissons Ratio (x) = 0.04348 0.29750
# Poissons Ratio (y) = 0.17645 0.14736
# Poissons Ratio (z) = 0.35231 0.04300
#
# Static dielectric constant tensor:
#      x y z
#    x 1.737610 0.000000 0.000000 
#    y 0.000000 1.745140 0.000000 
#    z 0.000000 0.000000 1.751480 
# 
# From -- ./inp_files/23361.got.cif
#   From: 2010.05.17/outbox.cif.g08.bks.cpg/sg68_12_cif.got.tgz:23361.got - 2010.06.03 18:57:09.
