data_PCOD9509182
_publ_section_title
;
Structure prediction by ZEFSAII (Michael W. Deem and Ramdas Pophale) SiO2 
 PCOD9509182
Probable space group: C C C A
;
_chemical_formula_sum "Si O2"
_cell_formula_units_Z 96
_cell_length_a 22.101872
_cell_length_b 11.025532
_cell_length_c 17.970796
_cell_angle_alpha 90.000000
_cell_angle_beta 90.000000
_cell_angle_gamma 90.000000
_cell_volume 4379.211572
_symmetry_space_group_name_H-M "C C C A"
_symmetry_group_IT_number 68
_space_group.IT_coordinate_system_code '2'
_symmetry_cell_setting 'orthorhombic'
loop_
_space_group_symop_operation_xyz
x,y,z
-x,1/2-y,z
x,1/2-y,1/2-z
-x,y,1/2-z
-x,-y,-z
x,1/2+y,-z
-x,1/2+y,1/2+z
x,-y,1/2+z
1/2+x,1/2+y,z
1/2-x,-y,z
1/2+x,-y,1/2-z
1/2-x,1/2+y,1/2-z
1/2-x,1/2-y,-z
1/2+x,y,-z
1/2-x,y,1/2+z
1/2+x,1/2-y,1/2+z
loop_
_atom_site_type_symbol
_atom_site_label
_atom_site_fract_x
_atom_site_fract_y
_atom_site_fract_z
Si Si1 0.322892 0.261700 0.414534
Si Si2 0.512599 0.075968 0.898319
Si Si3 0.597936 0.628983 0.299739
Si Si4 0.140447 0.510422 0.841867
Si Si5 0.449231 0.342297 0.049392
Si Si6 0.309707 0.764661 0.408063
O O1 0.329801 0.387247 0.370074
O O2 0.385319 0.187284 0.413855
O O3 0.315644 0.281028 0.503487
O O4 0.259700 0.204953 0.388085
O O5 0.470202 0.119426 0.831073
O O6 0.571386 0.007438 0.869843
O O7 0.467575 0.979937 0.935859
O O8 0.543882 0.165185 0.959182
O O9 0.599691 0.750000 0.250000
O O10 0.629008 0.529635 0.246066
O O11 0.642151 0.650239 0.368560
O O12 0.174118 0.627215 0.879439
O O13 0.500000 0.250000 0.079062
#
# Coordination Sequence:
#
# PCOD9509182 Si02
#       6
#    16  16  16  16  16  16
#     4  11  22  42  68  97 131 176 224 276 322 393
#     4  11  23  38  66  99 130 170 213 271 332 389
#     4  10  24  43  66  98 135 172 217 271 332 400
#     4  11  22  41  66  98 133 172 221 271 330 397
#     4  11  22  39  65  97 132 161 221 275 328 381
#     4  10  23  41  65  97 134 174 223 270 330 386
#
# _framework density 21.921754
#
# number of rings (size 3 to 8) (size 9 to 14) (size 15 to 20)
#    0.000    1.333    3.333    2.000    4.667    2.000 
#    0.000   10.000    0.000    0.000    0.000    0.000 
#    0.000    0.000    0.000    0.000    0.000    0.000 
#
# Total GULP energy -267714.036234 kJ/mol
# GULP energy per Si atom -5577.375755 kJ/mol
# Density = 2.187186 g / cm^3
# Si number density = 21.921754 Si / 1000 Ang^3
#
#
#
# Elastic Constant Matrix: (Units=GPa)
#
#
# Indices 1 2 3 4 5 6 
#
# 1 115.8663 7.4008 -7.5363 0.0000 0.0000 0.0000
# 2 7.4008 36.8097 3.7722 0.0000 0.0000 0.0000
# 3 -7.5363 3.7722 43.0617 0.0000 0.0000 0.0000
# 4 0.0000 0.0000 0.0000 16.8054 0.0000 0.0000
# 5 0.0000 0.0000 0.0000 0.0000 -136.1909 0.0000
# 6 0.0000 0.0000 0.0000 0.0000 0.0000 26.8483
#
#
#
# Elastic Compliance Matrix: (Units=1/GPa)
#
#
# Indices 1 2 3 4 5 6 
#
# 1 0.008868 -0.001960 0.001724 0.000000 0.000000 0.000000
# 2 -0.001960 0.027846 -0.002782 0.000000 0.000000 0.000000
# 3 0.001724 -0.002782 0.023768 0.000000 0.000000 0.000000
# 4 0.000000 0.000000 0.000000 0.059505 0.000000 0.000000
# 5 0.000000 0.000000 0.000000 0.000000 -0.007343 0.000000
# 6 0.000000 0.000000 0.000000 0.000000 0.000000 0.037246
#
#
# Mechanical properties :
#
#
# Convention : Reuss Voigt Hill
#
# Bulk Modulus (GPa) = 18.36710 22.55683 20.46196
# Shear Modulus (GPa) = 28.72327 -5.70071 11.51128
#
# Velocity S-wave (km/s) = 3.62368 -1.61435 2.29401
# Velocity P-wave (km/s) = 5.08967 2.61480 4.04611
#
# Compressibility (1/GPa) = 0.05444518
#
# Stress axis : x y z
#
# Youngs Moduli (GPa) = 112.76612 35.91198 42.07364
#
# Poissons Ratio (x) = 0.07037 -0.07252
# Poissons Ratio (y) = 0.22098 0.11706
# Poissons Ratio (z) = -0.19437 0.09992
#
# Static dielectric constant tensor:
#      x y z
#    x 1.798050 0.000000 0.000000 
#    y 0.000000 1.855540 0.000000 
#    z 0.000000 0.000000 1.882520 
# 
# From -- ./inp_files/40228.got.cif
#   From: 2010.05.17/outbox.cif.g08.bks.cpg/sg68_21_cif.got.tgz:40228.got - 2010.06.03 18:57:09.
