data_PCOD9509321
_publ_section_title
;
Structure prediction by ZEFSAII (Michael W. Deem and Ramdas Pophale) SiO2 
 PCOD9509321
Probable space group: C C C A
;
_chemical_formula_sum "Si O2"
_cell_formula_units_Z 96
_cell_length_a 10.682282
_cell_length_b 16.196773
_cell_length_c 26.299887
_cell_angle_alpha 90.000000
_cell_angle_beta 90.000000
_cell_angle_gamma 90.000000
_cell_volume 4550.366911
_symmetry_space_group_name_H-M "C C C A"
_symmetry_group_IT_number 68
_space_group.IT_coordinate_system_code '2'
_symmetry_cell_setting 'orthorhombic'
loop_
_space_group_symop_operation_xyz
x,y,z
-x,1/2-y,z
x,1/2-y,1/2-z
-x,y,1/2-z
-x,-y,-z
x,1/2+y,-z
-x,1/2+y,1/2+z
x,-y,1/2+z
1/2+x,1/2+y,z
1/2-x,-y,z
1/2+x,-y,1/2-z
1/2-x,1/2+y,1/2-z
1/2-x,1/2-y,-z
1/2+x,y,-z
1/2-x,y,1/2+z
1/2+x,1/2-y,1/2+z
loop_
_atom_site_type_symbol
_atom_site_label
_atom_site_fract_x
_atom_site_fract_y
_atom_site_fract_z
Si Si1 0.500000 0.045427 0.250000
Si Si2 0.500000 0.250000 0.472791
Si Si3 0.743361 0.711236 0.905071
Si Si4 0.750000 0.000000 0.310240
Si Si5 0.328971 0.888419 0.099606
Si Si6 0.431283 0.593706 0.044013
Si Si7 0.378593 0.800911 0.800584
Si Si8 0.750000 0.500000 0.513935
O O1 0.618998 0.002538 0.278396
O O2 0.571862 0.108651 0.212732
O O3 0.379136 0.235630 0.437283
O O4 0.517992 0.166746 0.506737
O O5 0.832401 0.790859 0.903944
O O6 0.809790 0.634993 0.930958
O O7 0.714947 0.694432 0.846503
O O8 0.766192 0.077550 0.349004
O O9 0.466254 0.923625 0.087380
O O10 0.251539 0.922369 0.051633
O O11 0.375286 0.511920 0.018059
O O12 0.500000 0.750000 0.818415
O O13 0.335957 0.750000 0.750000
#
# Coordination Sequence:
#
# PCOD9509321 Si02
#       8
#     8   8  16   8  16  16  16   8
#     4  10  23  44  64  96 127 164 216 282 344 400
#     4  12  22  38  63  92 131 176 224 266 324 400
#     4  12  22  38  68  93 126 173 221 272 330 397
#     4  11  26  42  69  90 132 174 217 278 345 418
#     4  11  23  42  62  93 130 173 222 267 337 394
#     4  12  24  40  60  95 135 173 221 278 329 395
#     4   9  19  38  64  90 116 148 215 271 316 389
#     4  11  24  40  59  90 134 182 217 270 319 410
#
# _framework density 21.097200000000001
#
# number of rings (size 3 to 8) (size 9 to 14) (size 15 to 20)
#    0.000    1.167    4.167    4.000    0.000    2.667 
#    0.000    0.000    0.000    1.000    0.000    0.000 
#    0.000    0.000    0.000    0.000    0.000    0.000 
#
# Total GULP energy -267874.643349 kJ/mol
# GULP energy per Si atom -5580.721736 kJ/mol
# Density = 2.104918 g / cm^3
# Si number density = 21.097200 Si / 1000 Ang^3
#
#
#
# Elastic Constant Matrix: (Units=GPa)
#
#
# Indices 1 2 3 4 5 6 
#
# 1 100.4297 1.2727 51.2355 0.0000 0.0000 0.0000
# 2 1.2727 38.8225 13.7555 0.0000 0.0000 0.0000
# 3 51.2355 13.7555 87.7025 0.0000 0.0000 0.0000
# 4 0.0000 0.0000 0.0000 54.9085 0.0000 0.0000
# 5 0.0000 0.0000 0.0000 0.0000 25.9388 0.0000
# 6 0.0000 0.0000 0.0000 0.0000 0.0000 20.4595
#
#
#
# Elastic Compliance Matrix: (Units=1/GPa)
#
#
# Indices 1 2 3 4 5 6 
#
# 1 0.014440 0.002664 -0.008854 0.000000 0.000000 0.000000
# 2 0.002664 0.027765 -0.005911 0.000000 0.000000 0.000000
# 3 -0.008854 -0.005911 0.017502 0.000000 0.000000 0.000000
# 4 0.000000 0.000000 0.000000 0.018212 0.000000 0.000000
# 5 0.000000 0.000000 0.000000 0.000000 0.038552 0.000000
# 6 0.000000 0.000000 0.000000 0.000000 0.000000 0.048877
#
#
# Mechanical properties :
#
#
# Convention : Reuss Voigt Hill
#
# Bulk Modulus (GPa) = 28.16489 39.94246 34.05368
# Shear Modulus (GPa) = 24.82798 30.97409 27.90104
#
# Velocity S-wave (km/s) = 3.43423 3.83582 3.64056
# Velocity P-wave (km/s) = 5.39484 6.21222 5.81790
#
# Compressibility (1/GPa) = 0.03550520
#
# Stress axis : x y z
#
# Youngs Moduli (GPa) = 69.25053 36.01624 57.13763
#
# Poissons Ratio (x) = -0.09593 0.50588
# Poissons Ratio (y) = -0.18446 0.33773
# Poissons Ratio (z) = 0.61313 0.21289
#
# Static dielectric constant tensor:
#      x y z
#    x 1.782950 0.000000 0.000000 
#    y 0.000000 1.754870 0.000000 
#    z 0.000000 0.000000 1.767190 
# 
# From -- ./inp_files/44491.got.cif
#   From: 2010.05.17/outbox.cif.g08.bks.cpg/sg68_23_cif.got.tgz:44491.got - 2010.06.03 18:57:09.
