data_PCOD9509883
_publ_section_title
;
Structure prediction by ZEFSAII (Michael W. Deem and Ramdas Pophale) SiO2 
 PCOD9509883
Probable space group: C C C A
;
_chemical_formula_sum "Si O2"
_cell_formula_units_Z 92
_cell_length_a 24.662390
_cell_length_b 8.579200
_cell_length_c 21.955810
_cell_angle_alpha 90.000000
_cell_angle_beta 90.000000
_cell_angle_gamma 90.000000
_cell_volume 4645.488800
_symmetry_space_group_name_H-M "C C C A"
_symmetry_group_IT_number 68
_space_group.IT_coordinate_system_code '2'
_symmetry_cell_setting 'orthorhombic'
loop_
_space_group_symop_operation_xyz
x,y,z
-x,1/2-y,z
x,1/2-y,1/2-z
-x,y,1/2-z
-x,-y,-z
x,1/2+y,-z
-x,1/2+y,1/2+z
x,-y,1/2+z
1/2+x,1/2+y,z
1/2-x,-y,z
1/2+x,-y,1/2-z
1/2-x,1/2+y,1/2-z
1/2-x,1/2-y,-z
1/2+x,y,-z
1/2-x,y,1/2+z
1/2+x,1/2-y,1/2+z
loop_
_atom_site_type_symbol
_atom_site_label
_atom_site_fract_x
_atom_site_fract_y
_atom_site_fract_z
Si Si1 0.644190 0.425917 0.069824
Si Si2 0.016458 0.430477 0.935850
Si Si3 0.345249 0.306985 0.181132
Si Si4 0.163892 0.781072 0.936753
Si Si5 0.000000 0.250000 0.250000
Si Si6 0.570549 0.424843 0.850134
Si Si7 0.750000 0.500000 0.871750
O O1 0.579829 0.452143 0.073291
O O2 0.658033 0.327383 0.129872
O O3 0.671894 0.595337 0.066720
O O4 0.653980 0.331427 0.006906
O O5 0.000000 0.250000 0.932890
O O6 0.981032 0.524439 0.888597
O O7 0.000000 0.500000 0.000000
O O8 0.348812 0.250000 0.250000
O O9 0.395827 0.420586 0.167517
O O10 0.291780 0.408200 0.170226
O O11 0.112439 0.827223 0.893197
O O12 0.214832 0.880313 0.912310
O O13 0.042555 0.343397 0.207412
#
# Coordination Sequence:
#
# PCOD9509883 Si02
#       7
#    16  16  16  16   4  16   8
#     4  12  24  42  71 107 136 180 223 286 345 409
#     4  12  23  39  67 101 141 181 220 273 342 406
#     4  11  27  48  69  99 137 180 233 287 343 413
#     4  11  24  44  72 101 139 174 235 291 342 401
#     4  12  28  40  70 100 140 196 224 268 348 410
#     4  11  25  44  63 102 141 182 232 280 328 417
#     4  10  26  50  70  98 134 180 232 296 350 406
#
# _framework density 19.80416
#
# number of rings (size 3 to 8) (size 9 to 14) (size 15 to 20)
#    0.000    0.696    3.478    4.174    6.087    4.870 
#    3.130    0.000    0.000    0.000    0.000    0.000 
#    0.000    0.000    0.000    0.000    0.000    0.000 
#
# Total GULP energy -257208.457282 kJ/mol
# GULP energy per Si atom -5591.488202 kJ/mol
# Density = 1.975908 g / cm^3
# Si number density = 19.804160 Si / 1000 Ang^3
#
#
#
# Elastic Constant Matrix: (Units=GPa)
#
#
# Indices 1 2 3 4 5 6 
#
# 1 19.9362 -7.4227 1.5785 0.0000 0.0000 0.0000
# 2 -7.4227 120.1735 61.6480 0.0000 0.0000 0.0000
# 3 1.5785 61.6480 160.7652 0.0000 0.0000 0.0000
# 4 0.0000 0.0000 0.0000 43.1399 0.0000 0.0000
# 5 0.0000 0.0000 0.0000 0.0000 24.1347 0.0000
# 6 0.0000 0.0000 0.0000 0.0000 0.0000 28.2595
#
#
#
# Elastic Compliance Matrix: (Units=1/GPa)
#
#
# Indices 1 2 3 4 5 6 
#
# 1 0.051940 0.004319 -0.002166 0.000000 0.000000 0.000000
# 2 0.004319 0.010718 -0.004153 0.000000 0.000000 0.000000
# 3 -0.002166 -0.004153 0.007834 0.000000 0.000000 0.000000
# 4 0.000000 0.000000 0.000000 0.023180 0.000000 0.000000
# 5 0.000000 0.000000 0.000000 0.000000 0.041434 0.000000
# 6 0.000000 0.000000 0.000000 0.000000 0.000000 0.035386
#
#
# Mechanical properties :
#
#
# Convention : Reuss Voigt Hill
#
# Bulk Modulus (GPa) = 15.03912 45.83138 30.43525
# Shear Modulus (GPa) = 25.42510 35.44491 30.43500
#
# Velocity S-wave (km/s) = 3.58694 4.23516 3.92446
# Velocity P-wave (km/s) = 4.97647 6.86352 5.99471
#
# Compressibility (1/GPa) = 0.06649325
#
# Stress axis : x y z
#
# Youngs Moduli (GPa) = 19.25303 93.29830 127.65085
#
# Poissons Ratio (x) = -0.40300 0.27654
# Poissons Ratio (y) = -0.08316 0.53007
# Poissons Ratio (z) = 0.04171 0.38742
#
# Static dielectric constant tensor:
#      x y z
#    x 1.668770 0.000000 0.000000 
#    y 0.000000 1.555210 0.000000 
#    z 0.000000 0.000000 1.686680 
# 
# From -- ./inp_files/36331.got.cif
#   From: 2010.05.17/outbox.cif.g08.bks.cpg/sg68_19_cif.got.tgz:36331.got - 2010.06.03 18:57:09.
