data_PCOD9509592
_publ_section_title
;
Structure prediction by ZEFSAII (Michael W. Deem and Ramdas Pophale) SiO2 
 PCOD9509592
Probable space group: C C C A
;
_chemical_formula_sum "Si O2"
_cell_formula_units_Z 80
_cell_length_a 13.935077
_cell_length_b 19.666658
_cell_length_c 12.443458
_cell_angle_alpha 90.000000
_cell_angle_beta 90.000000
_cell_angle_gamma 90.000000
_cell_volume 3410.209223
_symmetry_space_group_name_H-M "C C C A"
_symmetry_group_IT_number 68
_space_group.IT_coordinate_system_code '2'
_symmetry_cell_setting 'orthorhombic'
loop_
_space_group_symop_operation_xyz
x,y,z
-x,1/2-y,z
x,1/2-y,1/2-z
-x,y,1/2-z
-x,-y,-z
x,1/2+y,-z
-x,1/2+y,1/2+z
x,-y,1/2+z
1/2+x,1/2+y,z
1/2-x,-y,z
1/2+x,-y,1/2-z
1/2-x,1/2+y,1/2-z
1/2-x,1/2-y,-z
1/2+x,y,-z
1/2-x,y,1/2+z
1/2+x,1/2-y,1/2+z
loop_
_atom_site_type_symbol
_atom_site_label
_atom_site_fract_x
_atom_site_fract_y
_atom_site_fract_z
Si Si1 0.878678 0.587181 0.952319
Si Si2 0.750000 0.000000 0.704468
Si Si3 0.686215 0.750000 0.250000
Si Si4 0.928506 0.143180 0.397468
Si Si5 0.714646 0.316803 0.441313
Si Si6 0.914613 0.014237 0.834764
O O1 0.830421 0.535680 0.868242
O O2 0.928949 0.550056 0.051229
O O3 0.785229 0.626717 0.988779
O O4 0.955996 0.638017 0.899897
O O5 0.817375 0.043542 0.782508
O O6 0.619207 0.799327 0.322700
O O7 0.755593 0.700014 0.319543
O O8 0.889368 0.160800 0.517369
O O9 0.901671 0.066598 0.359125
O O10 0.750000 0.250000 0.500000
O O11 0.000000 0.023273 0.750000
#
# Coordination Sequence:
#
# PCOD9509592 Si02
#       6
#    16   8   8  16  16  16
#     4  12  26  45  71 105 146 191 242 313 372 449
#     4  12  24  42  72 100 142 192 240 298 370 452
#     4  10  24  45  76 109 140 202 261 302 386 459
#     4  11  24  47  73 106 145 190 247 314 369 457
#     4  10  24  44  68 101 144 185 244 308 366 440
#     4  12  26  45  69 110 147 194 245 303 389 454
#
# _framework density 23.458970999999998
#
# number of rings (size 3 to 8) (size 9 to 14) (size 15 to 20)
#    0.000    0.800    2.000    4.800    2.800    5.600 
#    0.000    0.000    0.000    4.800    0.000    0.000 
#    0.000    0.000    0.000    0.000    0.000    0.000 
#
# Total GULP energy -223442.900042 kJ/mol
# GULP energy per Si atom -5586.072501 kJ/mol
# Density = 2.340558 g / cm^3
# Si number density = 23.458971 Si / 1000 Ang^3
#
#
#
# Elastic Constant Matrix: (Units=GPa)
#
#
# Indices 1 2 3 4 5 6 
#
# 1 113.5868 -14.3382 47.0132 0.0000 0.0000 0.0000
# 2 -14.3382 49.3165 30.7820 0.0000 0.0000 0.0000
# 3 47.0132 30.7820 118.5358 0.0000 0.0000 0.0000
# 4 0.0000 0.0000 0.0000 33.1468 0.0000 0.0000
# 5 0.0000 0.0000 0.0000 0.0000 37.9746 0.0000
# 6 0.0000 0.0000 0.0000 0.0000 0.0000 42.3350
#
#
#
# Elastic Compliance Matrix: (Units=1/GPa)
#
#
# Indices 1 2 3 4 5 6 
#
# 1 0.012839 0.008248 -0.007234 0.000000 0.000000 0.000000
# 2 0.008248 0.029499 -0.010932 0.000000 0.000000 0.000000
# 3 -0.007234 -0.010932 0.014144 0.000000 0.000000 0.000000
# 4 0.000000 0.000000 0.000000 0.030169 0.000000 0.000000
# 5 0.000000 0.000000 0.000000 0.000000 0.026333 0.000000
# 6 0.000000 0.000000 0.000000 0.000000 0.000000 0.023621
#
#
# Mechanical properties :
#
#
# Convention : Reuss Voigt Hill
#
# Bulk Modulus (GPa) = 27.28758 45.37257 36.33008
# Shear Modulus (GPa) = 29.64610 37.22343 33.43477
#
# Velocity S-wave (km/s) = 3.55877 3.98772 3.77934
# Velocity P-wave (km/s) = 5.34264 6.37070 5.87918
#
# Compressibility (1/GPa) = 0.03664670
#
# Stress axis : x y z
#
# Youngs Moduli (GPa) = 77.88624 33.89998 70.70000
#
# Poissons Ratio (x) = -0.27962 0.51146
# Poissons Ratio (y) = -0.64242 0.77287
# Poissons Ratio (z) = 0.56344 0.37059
#
# Static dielectric constant tensor:
#      x y z
#    x 1.876110 0.000000 0.000000 
#    y 0.000000 1.858210 0.000000 
#    z 0.000000 0.000000 1.915170 
# 
# From -- ./inp_files/14357.got.cif
#   From: 2010.05.17/outbox.cif.g08.bks.cpg/sg68_8_cif.got.tgz:14357.got - 2010.06.03 18:57:09.
