data_PCOD9509086
_publ_section_title
;
Structure prediction by ZEFSAII (Michael W. Deem and Ramdas Pophale) SiO2 
 PCOD9509086
Probable space group: C C C A
;
_chemical_formula_sum "Si O2"
_cell_formula_units_Z 104
_cell_length_a 17.969534
_cell_length_b 14.602700
_cell_length_c 21.577710
_cell_angle_alpha 90.000000
_cell_angle_beta 90.000000
_cell_angle_gamma 90.000000
_cell_volume 5662.071247
_symmetry_space_group_name_H-M "C C C A"
_symmetry_group_IT_number 68
_space_group.IT_coordinate_system_code '2'
_symmetry_cell_setting 'orthorhombic'
loop_
_space_group_symop_operation_xyz
x,y,z
-x,1/2-y,z
x,1/2-y,1/2-z
-x,y,1/2-z
-x,-y,-z
x,1/2+y,-z
-x,1/2+y,1/2+z
x,-y,1/2+z
1/2+x,1/2+y,z
1/2-x,-y,z
1/2+x,-y,1/2-z
1/2-x,1/2+y,1/2-z
1/2-x,1/2-y,-z
1/2+x,y,-z
1/2-x,y,1/2+z
1/2+x,1/2-y,1/2+z
loop_
_atom_site_type_symbol
_atom_site_label
_atom_site_fract_x
_atom_site_fract_y
_atom_site_fract_z
Si Si1 0.827502 0.113329 0.104540
Si Si2 0.491695 0.143452 0.862108
Si Si3 0.750000 0.500000 0.001423
Si Si4 0.148268 0.070070 0.107936
Si Si5 0.644823 0.095752 0.299214
Si Si6 0.761116 0.722802 0.679995
Si Si7 0.250000 0.000000 0.295460
Si Si8 0.000000 0.498440 0.750000
O O1 0.914317 0.136939 0.101022
O O2 0.781059 0.199225 0.130581
O O3 0.812369 0.041253 0.159814
O O4 0.795051 0.069353 0.042621
O O5 0.500000 0.250000 0.841492
O O6 0.565850 0.112038 0.898549
O O7 0.486511 0.069596 0.806428
O O8 0.806247 0.443796 0.045213
O O9 0.191822 0.136505 0.155209
O O10 0.147279 0.971700 0.141852
O O11 0.673678 0.195541 0.319261
O O12 0.708259 0.069911 0.249186
O O13 0.568000 0.068375 0.267141
O O14 0.784874 0.750000 0.750000
#
# Coordination Sequence:
#
# PCOD9509086 Si02
#       8
#    16  16   8  16  16  16   8   8
#     4  11  24  37  62  90 120 166 209 263 308 366
#     4  11  22  35  58  97 126 153 210 268 329 367
#     4  11  25  46  62  82 125 177 228 244 296 397
#     4  11  22  39  61  90 123 167 208 253 315 372
#     4  11  19  36  59  88 128 161 199 248 317 383
#     4  12  21  35  65  95 122 152 203 269 317 370
#     4  11  17  36  56  86 123 153 204 236 316 375
#     4  10  23  34  61  88 134 172 186 258 331 395
#
# _framework density 18.367837000000002
#
# number of rings (size 3 to 8) (size 9 to 14) (size 15 to 20)
#    0.000    0.923    7.692    0.231    2.154    1.231 
#    0.000    0.385    0.000    0.000    0.000    0.000 
#    0.000    0.000    0.000    0.000    0.000    0.000 
#
# Total GULP energy -289915.186554 kJ/mol
# GULP energy per Si atom -5575.292049 kJ/mol
# Density = 1.832603 g / cm^3
# Si number density = 18.367837 Si / 1000 Ang^3
#
#
#
# Elastic Constant Matrix: (Units=GPa)
#
#
# Indices 1 2 3 4 5 6 
#
# 1 149.4857 62.5258 71.0258 0.0000 0.0000 0.0000
# 2 62.5258 71.7876 39.4223 0.0000 0.0000 0.0000
# 3 71.0258 39.4223 97.8587 0.0000 0.0000 0.0000
# 4 0.0000 0.0000 0.0000 25.4059 0.0000 0.0000
# 5 0.0000 0.0000 0.0000 0.0000 10.1483 0.0000
# 6 0.0000 0.0000 0.0000 0.0000 0.0000 32.7849
#
#
#
# Elastic Compliance Matrix: (Units=1/GPa)
#
#
# Indices 1 2 3 4 5 6 
#
# 1 0.012926 -0.007841 -0.006223 0.000000 0.000000 0.000000
# 2 -0.007841 0.022643 -0.003431 0.000000 0.000000 0.000000
# 3 -0.006223 -0.003431 0.016118 0.000000 0.000000 0.000000
# 4 0.000000 0.000000 0.000000 0.039361 0.000000 0.000000
# 5 0.000000 0.000000 0.000000 0.000000 0.098539 0.000000
# 6 0.000000 0.000000 0.000000 0.000000 0.000000 0.030502
#
#
# Mechanical properties :
#
#
# Convention : Reuss Voigt Hill
#
# Bulk Modulus (GPa) = 59.88985 73.89775 66.89380
# Shear Modulus (GPa) = 19.18324 23.41169 21.29747
#
# Velocity S-wave (km/s) = 3.23521 3.57403 3.40883
# Velocity P-wave (km/s) = 6.82877 7.57305 7.21052
#
# Compressibility (1/GPa) = 0.01669732
#
# Stress axis : x y z
#
# Youngs Moduli (GPa) = 77.36337 44.16296 62.04408
#
# Poissons Ratio (x) = 0.34628 0.38610
# Poissons Ratio (y) = 0.60660 0.21287
# Poissons Ratio (z) = 0.48143 0.15152
#
# Static dielectric constant tensor:
#      x y z
#    x 1.660640 0.000000 0.000000 
#    y 0.000000 1.705040 0.000000 
#    z 0.000000 0.000000 1.606830 
# 
# From -- ./inp_files/39666.got.cif
#   From: 2010.05.17/outbox.cif.g08.bks.cpg/sg68_20_cif.got.tgz:39666.got - 2010.06.03 18:57:09.
