data_PCOD9509500
_publ_section_title
;
Structure prediction by ZEFSAII (Michael W. Deem and Ramdas Pophale) SiO2 
 PCOD9509500
Probable space group: C C C A
;
_chemical_formula_sum "Si O2"
_cell_formula_units_Z 64
_cell_length_a 10.486749
_cell_length_b 30.619630
_cell_length_c 9.874071
_cell_angle_alpha 90.000000
_cell_angle_beta 90.000000
_cell_angle_gamma 90.000000
_cell_volume 3170.567894
_symmetry_space_group_name_H-M "C C C A"
_symmetry_group_IT_number 68
_space_group.IT_coordinate_system_code '2'
_symmetry_cell_setting 'orthorhombic'
loop_
_space_group_symop_operation_xyz
x,y,z
-x,1/2-y,z
x,1/2-y,1/2-z
-x,y,1/2-z
-x,-y,-z
x,1/2+y,-z
-x,1/2+y,1/2+z
x,-y,1/2+z
1/2+x,1/2+y,z
1/2-x,-y,z
1/2+x,-y,1/2-z
1/2-x,1/2+y,1/2-z
1/2-x,1/2-y,-z
1/2+x,y,-z
1/2-x,y,1/2+z
1/2+x,1/2-y,1/2+z
loop_
_atom_site_type_symbol
_atom_site_label
_atom_site_fract_x
_atom_site_fract_y
_atom_site_fract_z
Si Si1 0.752094 0.953062 0.923661
Si Si2 0.642526 0.232431 0.900356
Si Si3 0.602965 0.631325 0.130108
Si Si4 0.020597 0.927273 0.409489
O O1 0.856642 0.954771 0.043434
O O2 0.750000 0.000000 0.850920
O O3 0.797599 0.908872 0.845761
O O4 0.609298 0.945456 0.972517
O O5 0.500000 0.250000 0.938907
O O6 0.665102 0.250000 0.750000
O O7 0.651623 0.180108 0.886952
O O8 0.750000 0.250000 0.000000
O O9 0.500000 0.630360 0.250000
O O10 0.543076 0.618493 0.984624
O O11 0.000000 0.925767 0.250000
#
# Coordination Sequence:
#
# PCOD9509500 Si02
#       4
#    16  16  16  16
#     4  10  24  41  67  99 143 181 237 291 358 420
#     4  11  25  46  72 103 143 185 240 295 363 432
#     4  10  24  44  73  96 146 185 235 294 367 416
#     4  10  25  41  68 101 136 183 244 288 354 424
#
# _framework density 20.185656999999999
#
# number of rings (size 3 to 8) (size 9 to 14) (size 15 to 20)
#    1.500    0.250    2.500    0.750    7.000    4.500 
#    0.000    0.000    0.000    0.000    0.000    0.000 
#    0.000    0.000    0.000    0.000    0.000    0.000 
#
# Total GULP energy -178178.644163 kJ/mol
# GULP energy per Si atom -5568.082630 kJ/mol
# Density = 2.013971 g / cm^3
# Si number density = 20.185657 Si / 1000 Ang^3
#
#
#
# Elastic Constant Matrix: (Units=GPa)
#
#
# Indices 1 2 3 4 5 6 
#
# 1 151.4393 51.7611 78.0077 0.0000 0.0000 0.0000
# 2 51.7611 205.8455 51.1682 0.0000 0.0000 0.0000
# 3 78.0077 51.1682 85.6084 0.0000 0.0000 0.0000
# 4 0.0000 0.0000 0.0000 -11.6576 0.0000 0.0000
# 5 0.0000 0.0000 0.0000 0.0000 35.4296 0.0000
# 6 0.0000 0.0000 0.0000 0.0000 0.0000 -816.3166
#
#
#
# Elastic Compliance Matrix: (Units=1/GPa)
#
#
# Indices 1 2 3 4 5 6 
#
# 1 0.012468 -0.000365 -0.011142 0.000000 0.000000 0.000000
# 2 -0.000365 0.005716 -0.003084 0.000000 0.000000 0.000000
# 3 -0.011142 -0.003084 0.023677 0.000000 0.000000 0.000000
# 4 0.000000 0.000000 0.000000 -0.085781 0.000000 0.000000
# 5 0.000000 0.000000 0.000000 0.000000 0.028225 0.000000
# 6 0.000000 0.000000 0.000000 0.000000 0.000000 -0.001225
#
#
# Mechanical properties :
#
#
# Convention : Reuss Voigt Hill
#
# Bulk Modulus (GPa) = 78.87398 89.41858 84.14628
# Shear Modulus (GPa) = 303.20933 -141.04517 81.08208
#
# Velocity S-wave (km/s) = 12.26933 -8.36813 6.34471
# Velocity P-wave (km/s) = 15.48787 6.99809 9.76988
#
# Compressibility (1/GPa) = 0.01267845
#
# Stress axis : x y z
#
# Youngs Moduli (GPa) = 80.20691 174.93399 42.23424
#
# Poissons Ratio (x) = 0.06391 0.47059
# Poissons Ratio (y) = 0.02930 0.13024
# Poissons Ratio (z) = 0.89370 0.53946
#
# Static dielectric constant tensor:
#      x y z
#    x 1.742980 0.000000 0.000000 
#    y 0.000000 1.735260 0.000000 
#    z 0.000000 0.000000 1.696660 
# 
# From -- ./inp_files/4063.got.cif
#   From: 2010.05.17/outbox.cif.g08.bks.cpg/sg68_3_cif.got.tgz:4063.got - 2010.06.03 18:57:09.
