data_PCOD9509842
_publ_section_title
;
Structure prediction by ZEFSAII (Michael W. Deem and Ramdas Pophale) SiO2 
 PCOD9509842
Probable space group: C C C A
;
_chemical_formula_sum "Si O2"
_cell_formula_units_Z 56
_cell_length_a 9.350992
_cell_length_b 11.408724
_cell_length_c 18.740889
_cell_angle_alpha 90.000000
_cell_angle_beta 90.000000
_cell_angle_gamma 90.000000
_cell_volume 1999.332141
_symmetry_space_group_name_H-M "C C C A"
_symmetry_group_IT_number 68
_space_group.IT_coordinate_system_code '2'
_symmetry_cell_setting 'orthorhombic'
loop_
_space_group_symop_operation_xyz
x,y,z
-x,1/2-y,z
x,1/2-y,1/2-z
-x,y,1/2-z
-x,-y,-z
x,1/2+y,-z
-x,1/2+y,1/2+z
x,-y,1/2+z
1/2+x,1/2+y,z
1/2-x,-y,z
1/2+x,-y,1/2-z
1/2-x,1/2+y,1/2-z
1/2-x,1/2-y,-z
1/2+x,y,-z
1/2-x,y,1/2+z
1/2+x,1/2-y,1/2+z
loop_
_atom_site_type_symbol
_atom_site_label
_atom_site_fract_x
_atom_site_fract_y
_atom_site_fract_z
Si Si1 0.540553 0.406786 0.849717
Si Si2 0.500000 0.898279 0.750000
Si Si3 0.750000 0.500000 0.628255
Si Si4 0.323695 0.121824 0.991941
Si Si5 0.259519 0.750000 0.250000
O O1 0.750000 0.500000 0.962414
O O2 0.579317 0.530500 0.813169
O O3 0.553374 0.373689 0.932692
O O4 0.638435 0.316068 0.806430
O O5 0.366778 0.831466 0.715174
O O6 0.629327 0.421193 0.665521
O O7 0.655249 0.578853 0.572503
O O8 0.250000 0.250000 0.000000
#
# Coordination Sequence:
#
# PCOD9509842 Si02
#       5
#    16   8   8  16   8
#     4  12  27  55  80 122 176 225 298 373 451 546
#     4  11  28  51  80 122 164 227 300 367 458 540
#     4  10  28  50  80 128 168 238 290 364 466 544
#     4  10  25  49  80 120 164 226 289 364 438 532
#     4  11  28  51  86 118 164 234 290 381 445 542
#
# _framework density 28.009353000000001
#
# number of rings (size 3 to 8) (size 9 to 14) (size 15 to 20)
#    0.857    0.286    0.000    3.429    8.000    4.000 
#    0.000    0.000    0.000    0.000    0.000    0.000 
#    0.000    0.000    0.000    0.000    0.000    0.000 
#
# Total GULP energy -155873.185834 kJ/mol
# GULP energy per Si atom -5566.899494 kJ/mol
# Density = 2.794560 g / cm^3
# Si number density = 28.009353 Si / 1000 Ang^3
#
#
#
# Elastic Constant Matrix: (Units=GPa)
#
#
# Indices 1 2 3 4 5 6 
#
# 1 217.7367 69.7164 46.0485 0.0000 0.0000 0.0000
# 2 69.7164 183.7577 15.3578 0.0000 0.0000 0.0000
# 3 46.0485 15.3578 143.2303 0.0000 0.0000 0.0000
# 4 0.0000 0.0000 0.0000 -6.3585 0.0000 0.0000
# 5 0.0000 0.0000 0.0000 0.0000 22.8232 0.0000
# 6 0.0000 0.0000 0.0000 0.0000 0.0000 73.6607
#
#
#
# Elastic Compliance Matrix: (Units=1/GPa)
#
#
# Indices 1 2 3 4 5 6 
#
# 1 0.005559 -0.001977 -0.001575 0.000000 0.000000 0.000000
# 2 -0.001977 0.006195 -0.000028 0.000000 0.000000 0.000000
# 3 -0.001575 -0.000028 0.007491 0.000000 0.000000 0.000000
# 4 0.000000 0.000000 0.000000 -0.157269 0.000000 0.000000
# 5 0.000000 0.000000 0.000000 0.000000 0.043815 0.000000
# 6 0.000000 0.000000 0.000000 0.000000 0.000000 0.013576
#
#
# Mechanical properties :
#
#
# Convention : Reuss Voigt Hill
#
# Bulk Modulus (GPa) = 82.76330 89.66333 86.21332
# Shear Modulus (GPa) = -72.00091 45.59854 -13.20118
#
# Velocity S-wave (km/s) = -5.07561 4.03920 -2.17333
# Velocity P-wave (km/s) = 2.17635 7.33723 4.95471
#
# Compressibility (1/GPa) = 0.01208265
#
# Stress axis : x y z
#
# Youngs Moduli (GPa) = 179.88954 161.43262 133.48933
#
# Poissons Ratio (x) = 0.31921 0.21027
# Poissons Ratio (y) = 0.35571 0.00380
# Poissons Ratio (z) = 0.28336 0.00460
#
# Static dielectric constant tensor:
#      x y z
#    x 2.220220 0.000000 0.000000 
#    y 0.000000 2.924630 0.000000 
#    z 0.000000 0.000000 2.188760 
# 
# From -- ./inp_files/49950.got.cif
#   From: 2010.05.17/outbox.cif.g08.bks.cpg/sg68_25_cif.got.tgz:49950.got - 2010.06.03 18:57:09.
