data_PCOD9509224
_publ_section_title
;
Structure prediction by ZEFSAII (Michael W. Deem and Ramdas Pophale) SiO2 
 PCOD9509224
Probable space group: C C C A
;
_chemical_formula_sum "Si O2"
_cell_formula_units_Z 52
_cell_length_a 11.776271
_cell_length_b 13.603074
_cell_length_c 14.207945
_cell_angle_alpha 90.000000
_cell_angle_beta 90.000000
_cell_angle_gamma 90.000000
_cell_volume 2276.020236
_symmetry_space_group_name_H-M "C C C A"
_symmetry_group_IT_number 68
_space_group.IT_coordinate_system_code '2'
_symmetry_cell_setting 'orthorhombic'
loop_
_space_group_symop_operation_xyz
x,y,z
-x,1/2-y,z
x,1/2-y,1/2-z
-x,y,1/2-z
-x,-y,-z
x,1/2+y,-z
-x,1/2+y,1/2+z
x,-y,1/2+z
1/2+x,1/2+y,z
1/2-x,-y,z
1/2+x,-y,1/2-z
1/2-x,1/2+y,1/2-z
1/2-x,1/2-y,-z
1/2+x,y,-z
1/2-x,y,1/2+z
1/2+x,1/2-y,1/2+z
loop_
_atom_site_type_symbol
_atom_site_label
_atom_site_fract_x
_atom_site_fract_y
_atom_site_fract_z
Si Si1 0.500000 0.750000 0.750000
Si Si2 0.698731 0.109229 0.284644
Si Si3 0.210542 0.106062 0.937918
Si Si4 0.621803 0.776232 0.405374
O O1 0.416189 0.825884 0.692033
O O2 0.682675 0.102435 0.172096
O O3 0.797358 0.176664 0.327389
O O4 0.750000 0.000000 0.310306
O O5 0.317013 0.179343 0.944394
O O6 0.250000 0.000000 0.969799
O O7 0.115891 0.148858 0.006894
O O8 0.500000 0.750000 0.367412
#
# Coordination Sequence:
#
# PCOD9509224 Si02
#       4
#     4  16  16  16
#     4  12  24  48  74  98 160 186 252 306 372 450
#     4  11  25  45  71 107 141 197 249 303 381 443
#     4  10  23  42  65 102 140 190 245 290 383 442
#     4  11  24  43  69 101 148 183 246 315 367 452
#
# _framework density 22.846896999999998
#
# number of rings (size 3 to 8) (size 9 to 14) (size 15 to 20)
#    0.000    1.231    3.077    0.923    2.154    8.615 
#    0.000    0.000    0.000    0.000    0.000    0.000 
#    0.000    0.000    0.000    0.000    0.000    0.000 
#
# Total GULP energy -144862.249378 kJ/mol
# GULP energy per Si atom -5571.624976 kJ/mol
# Density = 2.279490 g / cm^3
# Si number density = 22.846897 Si / 1000 Ang^3
#
#
#
# Elastic Constant Matrix: (Units=GPa)
#
#
# Indices 1 2 3 4 5 6 
#
# 1 173.2707 64.6257 26.7575 0.0000 0.0000 0.0000
# 2 64.6257 202.6380 23.3717 0.0000 0.0000 0.0000
# 3 26.7575 23.3717 103.5280 0.0000 0.0000 0.0000
# 4 0.0000 0.0000 0.0000 22.2232 0.0000 0.0000
# 5 0.0000 0.0000 0.0000 0.0000 29.8750 0.0000
# 6 0.0000 0.0000 0.0000 0.0000 0.0000 24.1557
#
#
#
# Elastic Compliance Matrix: (Units=1/GPa)
#
#
# Indices 1 2 3 4 5 6 
#
# 1 0.006713 -0.001993 -0.001285 0.000000 0.000000 0.000000
# 2 -0.001993 0.005658 -0.000762 0.000000 0.000000 0.000000
# 3 -0.001285 -0.000762 0.010163 0.000000 0.000000 0.000000
# 4 0.000000 0.000000 0.000000 0.044998 0.000000 0.000000
# 5 0.000000 0.000000 0.000000 0.000000 0.033473 0.000000
# 6 0.000000 0.000000 0.000000 0.000000 0.000000 0.041398
#
#
# Mechanical properties :
#
#
# Convention : Reuss Voigt Hill
#
# Bulk Modulus (GPa) = 69.18309 78.77182 73.97746
# Shear Modulus (GPa) = 32.19529 39.56293 35.87911
#
# Velocity S-wave (km/s) = 3.75797 4.16583 3.96715
# Velocity P-wave (km/s) = 7.01261 7.59551 7.30987
#
# Compressibility (1/GPa) = 0.01445440
#
# Stress axis : x y z
#
# Youngs Moduli (GPa) = 148.96461 176.72995 98.39149
#
# Poissons Ratio (x) = 0.35217 0.12645
# Poissons Ratio (y) = 0.29684 0.07501
# Poissons Ratio (z) = 0.19144 0.13473
#
# Static dielectric constant tensor:
#      x y z
#    x 1.848330 0.000000 0.000000 
#    y 0.000000 1.936140 0.000000 
#    z 0.000000 0.000000 1.891100 
# 
# From -- ./inp_files/20106.got.cif
#   From: 2010.05.17/outbox.cif.g08.bks.cpg/sg68_11_cif.got.tgz:20106.got - 2010.06.03 18:57:09.
