data_PCOD9509474
_publ_section_title
;
Structure prediction by ZEFSAII (Michael W. Deem and Ramdas Pophale) SiO2 
 PCOD9509474
Probable space group: C C C A
;
_chemical_formula_sum "Si O2"
_cell_formula_units_Z 92
_cell_length_a 24.245100
_cell_length_b 9.056579
_cell_length_c 20.118422
_cell_angle_alpha 90.000000
_cell_angle_beta 90.000000
_cell_angle_gamma 90.000000
_cell_volume 4417.556096
_symmetry_space_group_name_H-M "C C C A"
_symmetry_group_IT_number 68
_space_group.IT_coordinate_system_code '2'
_symmetry_cell_setting 'orthorhombic'
loop_
_space_group_symop_operation_xyz
x,y,z
-x,1/2-y,z
x,1/2-y,1/2-z
-x,y,1/2-z
-x,-y,-z
x,1/2+y,-z
-x,1/2+y,1/2+z
x,-y,1/2+z
1/2+x,1/2+y,z
1/2-x,-y,z
1/2+x,-y,1/2-z
1/2-x,1/2+y,1/2-z
1/2-x,1/2-y,-z
1/2+x,y,-z
1/2-x,y,1/2+z
1/2+x,1/2-y,1/2+z
loop_
_atom_site_type_symbol
_atom_site_label
_atom_site_fract_x
_atom_site_fract_y
_atom_site_fract_z
Si Si1 0.303553 0.250000 0.250000
Si Si2 0.073640 0.709844 0.675095
Si Si3 0.250000 0.500000 0.835492
Si Si4 0.000000 0.750000 0.250000
Si Si5 0.859075 0.071262 0.417490
Si Si6 0.000000 0.250000 0.432721
Si Si7 0.899994 0.397130 0.831351
Si Si8 0.603929 0.252285 0.028741
O O1 0.266076 0.365804 0.288024
O O2 0.346667 0.315827 0.197320
O O3 0.057887 0.750000 0.750000
O O4 0.101149 0.848088 0.636969
O O5 0.026477 0.644868 0.624568
O O6 0.112521 0.569083 0.679542
O O7 0.197331 0.534395 0.880934
O O8 0.043368 0.652662 0.206405
O O9 0.850717 0.185575 0.478474
O O10 0.885421 0.919890 0.447222
O O11 0.950025 0.230689 0.483067
O O12 0.903646 0.348728 0.907293
#
# Coordination Sequence:
#
# PCOD9509474 Si02
#       8
#     8  16   8   4  16   8  16  16
#     4  11  26  47  76 106 138 185 238 305 364 426
#     4  11  25  41  67 102 147 186 239 295 345 424
#     4  12  26  50  74 106 138 190 242 304 368 430
#     4  10  26  36  74 102 148 188 232 282 360 436
#     4  11  26  46  72 105 141 189 242 300 358 423
#     4  10  24  40  68 100 136 192 230 278 348 418
#     4  11  24  46  69 106 145 186 232 295 355 432
#     4  11  23  46  70 103 145 186 236 294 350 430
#
# _framework density 20.825996
#
# number of rings (size 3 to 8) (size 9 to 14) (size 15 to 20)
#    0.000    1.043    1.739    3.913    8.522    8.348 
#    0.000    0.000    0.000    0.000    0.000    0.000 
#    0.000    0.000    0.000    0.000    0.000    0.000 
#
# Total GULP energy -256413.286585 kJ/mol
# GULP energy per Si atom -5574.201882 kJ/mol
# Density = 2.077859 g / cm^3
# Si number density = 20.825996 Si / 1000 Ang^3
#
#
#
# Elastic Constant Matrix: (Units=GPa)
#
#
# Indices 1 2 3 4 5 6 
#
# 1 86.1763 42.4471 55.6164 0.0000 0.0000 0.0000
# 2 42.4471 126.7749 71.5568 0.0000 0.0000 0.0000
# 3 55.6164 71.5568 200.4399 0.0000 0.0000 0.0000
# 4 0.0000 0.0000 0.0000 41.9435 0.0000 0.0000
# 5 0.0000 0.0000 0.0000 0.0000 5.8813 0.0000
# 6 0.0000 0.0000 0.0000 0.0000 0.0000 -8.5137
#
#
#
# Elastic Compliance Matrix: (Units=1/GPa)
#
#
# Indices 1 2 3 4 5 6 
#
# 1 0.015220 -0.003397 -0.003011 0.000000 0.000000 0.000000
# 2 -0.003397 0.010637 -0.002855 0.000000 0.000000 0.000000
# 3 -0.003011 -0.002855 0.006844 0.000000 0.000000 0.000000
# 4 0.000000 0.000000 0.000000 0.023842 0.000000 0.000000
# 5 0.000000 0.000000 0.000000 0.000000 0.170031 0.000000
# 6 0.000000 0.000000 0.000000 0.000000 0.000000 -0.117457
#
#
# Mechanical properties :
#
#
# Convention : Reuss Voigt Hill
#
# Bulk Modulus (GPa) = 70.54084 83.62576 77.08330
# Shear Modulus (GPa) = 37.77421 24.11360 30.94390
#
# Velocity S-wave (km/s) = 4.26349 3.40643 3.85883
# Velocity P-wave (km/s) = 7.62769 7.46414 7.54635
#
# Compressibility (1/GPa) = 0.01417618
#
# Stress axis : x y z
#
# Youngs Moduli (GPa) = 65.70229 94.01449 146.12402
#
# Poissons Ratio (x) = 0.31935 0.43991
# Poissons Ratio (y) = 0.22318 0.41715
# Poissons Ratio (z) = 0.19780 0.26839
#
# Static dielectric constant tensor:
#      x y z
#    x 1.813930 0.000000 0.000000 
#    y 0.000000 1.798500 0.000000 
#    z 0.000000 0.000000 1.727750 
# 
# From -- ./inp_files/41312.got.cif
#   From: 2010.05.17/outbox.cif.g08.bks.cpg/sg68_21_cif.got.tgz:41312.got - 2010.06.03 18:57:09.
