data_PCOD9509004
_publ_section_title
;
Structure prediction by ZEFSAII (Michael W. Deem and Ramdas Pophale) SiO2 
 PCOD9509004
Probable space group: C C C A
;
_chemical_formula_sum "Si O2"
_cell_formula_units_Z 112
_cell_length_a 24.478426
_cell_length_b 12.831550
_cell_length_c 17.262661
_cell_angle_alpha 90.000000
_cell_angle_beta 90.000000
_cell_angle_gamma 90.000000
_cell_volume 5422.135309
_symmetry_space_group_name_H-M "C C C A"
_symmetry_group_IT_number 68
_space_group.IT_coordinate_system_code '2'
_symmetry_cell_setting 'orthorhombic'
loop_
_space_group_symop_operation_xyz
x,y,z
-x,1/2-y,z
x,1/2-y,1/2-z
-x,y,1/2-z
-x,-y,-z
x,1/2+y,-z
-x,1/2+y,1/2+z
x,-y,1/2+z
1/2+x,1/2+y,z
1/2-x,-y,z
1/2+x,-y,1/2-z
1/2-x,1/2+y,1/2-z
1/2-x,1/2-y,-z
1/2+x,y,-z
1/2-x,y,1/2+z
1/2+x,1/2-y,1/2+z
loop_
_atom_site_type_symbol
_atom_site_label
_atom_site_fract_x
_atom_site_fract_y
_atom_site_fract_z
Si Si1 0.397197 0.508231 0.905266
Si Si2 0.500030 0.420447 0.659563
Si Si3 0.310809 0.464940 0.122913
Si Si4 0.900727 0.126223 0.057656
Si Si5 0.041831 0.346282 0.634004
Si Si6 0.634344 0.338676 0.492614
Si Si7 0.860337 0.863111 0.257257
O O1 0.439012 0.421648 0.872826
O O2 0.354167 0.433546 0.948386
O O3 0.377154 0.587949 0.839492
O O4 0.420908 0.576264 0.976378
O O5 0.500000 0.394695 0.750000
O O6 0.453309 0.360067 0.612537
O O7 0.486574 0.543012 0.646475
O O8 0.250000 0.500000 0.107494
O O9 0.357891 0.545854 0.096036
O O10 0.322548 0.444678 0.212690
O O11 0.323074 0.357812 0.076431
O O12 0.868535 0.230170 0.035890
O O13 0.076010 0.346777 0.553669
O O14 0.085633 0.345979 0.703938
O O15 0.000000 0.250000 0.637606
O O16 0.833084 0.750000 0.250000
#
# Coordination Sequence:
#
# PCOD9509004 Si02
#       7
#    16  16  16  16  16  16  16
#     4  11  21  36  59  87 130 161 203 260 305 375
#     4  12  21  36  56  86 130 172 207 244 310 381
#     4  10  22  45  66  85 120 162 208 276 335 378
#     4  11  22  40  61  89 126 162 213 263 313 389
#     4  11  21  34  57  88 124 167 205 247 305 375
#     4  10  23  39  60  92 120 164 213 257 319 383
#     4  11  21  39  60  92 123 156 211 260 320 387
#
# _framework density 20.65607
#
# number of rings (size 3 to 8) (size 9 to 14) (size 15 to 20)
#    0.000    1.143    5.714    3.857    2.000    0.571 
#    0.000    7.857    0.000    0.000    0.000    0.000 
#    0.000    0.000    0.000    0.000    0.000    0.000 
#
# Total GULP energy -312493.768366 kJ/mol
# GULP energy per Si atom -5580.245864 kJ/mol
# Density = 2.060906 g / cm^3
# Si number density = 20.656070 Si / 1000 Ang^3
#
#
#
# Elastic Constant Matrix: (Units=GPa)
#
#
# Indices 1 2 3 4 5 6 
#
# 1 57.1207 -0.8616 22.4661 0.0000 0.0000 0.0000
# 2 -0.8616 61.7229 26.7111 0.0000 0.0000 0.0000
# 3 22.4661 26.7111 133.3848 0.0000 0.0000 0.0000
# 4 0.0000 0.0000 0.0000 24.5000 0.0000 0.0000
# 5 0.0000 0.0000 0.0000 0.0000 9.5602 0.0000
# 6 0.0000 0.0000 0.0000 0.0000 0.0000 20.0713
#
#
#
# Elastic Compliance Matrix: (Units=1/GPa)
#
#
# Indices 1 2 3 4 5 6 
#
# 1 0.018930 0.001800 -0.003549 0.000000 0.000000 0.000000
# 2 0.001800 0.017910 -0.003890 0.000000 0.000000 0.000000
# 3 -0.003549 -0.003890 0.008874 0.000000 0.000000 0.000000
# 4 0.000000 0.000000 0.000000 0.040816 0.000000 0.000000
# 5 0.000000 0.000000 0.000000 0.000000 0.104600 0.000000
# 6 0.000000 0.000000 0.000000 0.000000 0.000000 0.049822
#
#
# Mechanical properties :
#
#
# Convention : Reuss Voigt Hill
#
# Bulk Modulus (GPa) = 29.03909 38.76218 33.90063
# Shear Modulus (GPa) = 18.96034 24.42048 21.69041
#
# Velocity S-wave (km/s) = 3.03298 3.44211 3.24400
# Velocity P-wave (km/s) = 5.13364 5.88249 5.52078
#
# Compressibility (1/GPa) = 0.03443634
#
# Stress axis : x y z
#
# Youngs Moduli (GPa) = 52.82697 55.83506 112.69157
#
# Poissons Ratio (x) = -0.10050 0.39992
# Poissons Ratio (y) = -0.09509 0.43834
# Poissons Ratio (z) = 0.18747 0.21718
#
# Static dielectric constant tensor:
#      x y z
#    x 1.792870 0.000000 0.000000 
#    y 0.000000 1.806130 0.000000 
#    z 0.000000 0.000000 1.769470 
# 
# From -- ./inp_files/26083.got.cif
#   From: 2010.05.17/outbox.cif.g08.bks.cpg/sg68_14_cif.got.tgz:26083.got - 2010.06.03 18:57:09.
