data_PCOD9509198
_publ_section_title
;
Structure prediction by ZEFSAII (Michael W. Deem and Ramdas Pophale) SiO2 
 PCOD9509198
Probable space group: C C C A
;
_chemical_formula_sum "Si O2"
_cell_formula_units_Z 88
_cell_length_a 23.805353
_cell_length_b 14.414603
_cell_length_c 10.800634
_cell_angle_alpha 90.000000
_cell_angle_beta 90.000000
_cell_angle_gamma 90.000000
_cell_volume 3706.180452
_symmetry_space_group_name_H-M "C C C A"
_symmetry_group_IT_number 68
_space_group.IT_coordinate_system_code '2'
_symmetry_cell_setting 'orthorhombic'
loop_
_space_group_symop_operation_xyz
x,y,z
-x,1/2-y,z
x,1/2-y,1/2-z
-x,y,1/2-z
-x,-y,-z
x,1/2+y,-z
-x,1/2+y,1/2+z
x,-y,1/2+z
1/2+x,1/2+y,z
1/2-x,-y,z
1/2+x,-y,1/2-z
1/2-x,1/2+y,1/2-z
1/2-x,1/2-y,-z
1/2+x,y,-z
1/2-x,y,1/2+z
1/2+x,1/2-y,1/2+z
loop_
_atom_site_type_symbol
_atom_site_label
_atom_site_fract_x
_atom_site_fract_y
_atom_site_fract_z
Si Si1 0.043370 0.606541 0.133526
Si Si2 0.500000 0.750000 0.072259
Si Si3 0.191401 0.047153 0.254454
Si Si4 0.371714 0.131706 0.176554
Si Si5 0.250447 0.698877 0.371904
Si Si6 0.086503 0.896321 0.909328
O O1 0.096924 0.655420 0.197264
O O2 0.058488 0.499185 0.101547
O O3 0.000000 0.605158 0.250000
O O4 0.027455 0.670542 0.017357
O O5 0.453224 0.686274 0.141942
O O6 0.213914 0.105689 0.137746
O O7 0.149897 0.098069 0.352395
O O8 0.250000 0.000000 0.306279
O O9 0.149348 0.972662 0.199077
O O10 0.314344 0.182543 0.153722
O O11 0.408114 0.129988 0.053530
O O12 0.272856 0.750000 0.250000
O O13 0.250000 0.750000 0.500000
#
# Coordination Sequence:
#
# PCOD9509198 Si02
#       6
#    16   8  16  16  16  16
#     4  11  24  44  69  98 141 188 255 303 376 461
#     4  12  25  42  73 106 142 190 248 318 380 458
#     4   9  22  46  67  96 141 193 239 299 379 460
#     4  10  23  41  69  92 133 190 238 297 378 448
#     4  11  24  42  68 107 144 181 241 314 374 458
#     4  11  24  44  71 104 142 192 247 311 384 456
#
# _framework density 23.744122000000001
#
# number of rings (size 3 to 8) (size 9 to 14) (size 15 to 20)
#    0.000    1.455    1.818    1.909    2.545    6.545 
#    3.273    2.273    0.000    0.000    0.000    0.000 
#    0.000    0.000    0.000    0.000    0.000    0.000 
#
# Total GULP energy -245566.419207 kJ/mol
# GULP energy per Si atom -5581.054982 kJ/mol
# Density = 2.369008 g / cm^3
# Si number density = 23.744122 Si / 1000 Ang^3
#
#
#
# Elastic Constant Matrix: (Units=GPa)
#
#
# Indices 1 2 3 4 5 6 
#
# 1 88.1083 34.4404 13.0555 0.0000 0.0000 0.0000
# 2 34.4404 110.7157 33.3815 0.0000 0.0000 0.0000
# 3 13.0555 33.3815 77.0025 0.0000 0.0000 0.0000
# 4 0.0000 0.0000 0.0000 11.6285 0.0000 0.0000
# 5 0.0000 0.0000 0.0000 0.0000 39.6284 0.0000
# 6 0.0000 0.0000 0.0000 0.0000 0.0000 42.8538
#
#
#
# Elastic Compliance Matrix: (Units=1/GPa)
#
#
# Indices 1 2 3 4 5 6 
#
# 1 0.012939 -0.003869 -0.000516 0.000000 0.000000 0.000000
# 2 -0.003869 0.011547 -0.004350 0.000000 0.000000 0.000000
# 3 -0.000516 -0.004350 0.014960 0.000000 0.000000 0.000000
# 4 0.000000 0.000000 0.000000 0.085995 0.000000 0.000000
# 5 0.000000 0.000000 0.000000 0.000000 0.025234 0.000000
# 6 0.000000 0.000000 0.000000 0.000000 0.000000 0.023335
#
#
# Mechanical properties :
#
#
# Convention : Reuss Voigt Hill
#
# Bulk Modulus (GPa) = 45.50640 48.62015 47.06328
# Shear Modulus (GPa) = 25.15010 31.81876 28.48443
#
# Velocity S-wave (km/s) = 3.25809 3.66467 3.46734
# Velocity P-wave (km/s) = 5.77585 6.19899 5.99116
#
# Compressibility (1/GPa) = 0.02197493
#
# Stress axis : x y z
#
# Youngs Moduli (GPa) = 77.28828 86.60093 66.84560
#
# Poissons Ratio (x) = 0.33507 0.03452
# Poissons Ratio (y) = 0.29904 0.29077
# Poissons Ratio (z) = 0.03991 0.37670
#
# Static dielectric constant tensor:
#      x y z
#    x 1.937390 0.000000 0.000000 
#    y 0.000000 1.908380 0.000000 
#    z 0.000000 0.000000 1.886160 
# 
# From -- ./inp_files/16339.got.cif
#   From: 2010.05.17/outbox.cif.g08.bks.cpg/sg68_9_cif.got.tgz:16339.got - 2010.06.03 18:57:09.
