data_PCOD9509216
_publ_section_title
;
Structure prediction by ZEFSAII (Michael W. Deem and Ramdas Pophale) SiO2 
 PCOD9509216
Probable space group: C C C A
;
_chemical_formula_sum "Si O2"
_cell_formula_units_Z 88
_cell_length_a 7.879490
_cell_length_b 24.406594
_cell_length_c 21.678982
_cell_angle_alpha 90.000000
_cell_angle_beta 90.000000
_cell_angle_gamma 90.000000
_cell_volume 4169.117836
_symmetry_space_group_name_H-M "C C C A"
_symmetry_group_IT_number 68
_space_group.IT_coordinate_system_code '2'
_symmetry_cell_setting 'orthorhombic'
loop_
_space_group_symop_operation_xyz
x,y,z
-x,1/2-y,z
x,1/2-y,1/2-z
-x,y,1/2-z
-x,-y,-z
x,1/2+y,-z
-x,1/2+y,1/2+z
x,-y,1/2+z
1/2+x,1/2+y,z
1/2-x,-y,z
1/2+x,-y,1/2-z
1/2-x,1/2+y,1/2-z
1/2-x,1/2-y,-z
1/2+x,y,-z
1/2-x,y,1/2+z
1/2+x,1/2-y,1/2+z
loop_
_atom_site_type_symbol
_atom_site_label
_atom_site_fract_x
_atom_site_fract_y
_atom_site_fract_z
Si Si1 0.344739 0.599128 0.176401
Si Si2 0.750000 0.500000 0.910248
Si Si3 0.445162 0.188008 0.913918
Si Si4 0.306377 0.368741 0.999721
Si Si5 0.063315 0.935983 0.069926
Si Si6 0.733341 0.436738 0.697870
O O1 0.264469 0.554785 0.130864
O O2 0.366206 0.658055 0.145128
O O3 0.240115 0.598488 0.240083
O O4 0.537353 0.576835 0.183682
O O5 0.557999 0.511102 0.935654
O O6 0.500000 0.250000 0.905040
O O7 0.607844 0.154093 0.938224
O O8 0.312379 0.176611 0.969210
O O9 0.212039 0.425530 0.980648
O O10 0.446273 0.384768 0.050114
O O11 0.148886 0.931710 0.137353
O O12 0.750000 0.500000 0.717542
#
# Coordination Sequence:
#
# PCOD9509216 Si02
#       6
#    16   8  16  16  16  16
#     4  11  23  40  64 101 126 171 230 273 343 399
#     4  12  22  38  64  98 136 172 220 278 338 410
#     4  11  22  43  68  96 129 176 231 282 333 400
#     4  10  23  42  63  96 134 180 225 274 334 406
#     4  11  23  40  63  95 138 173 219 275 336 401
#     4  11  22  40  65  92 135 175 215 275 336 414
#
# _framework density 21.107583000000002
#
# number of rings (size 3 to 8) (size 9 to 14) (size 15 to 20)
#    0.000    1.091    6.364    0.545    0.000    1.455 
#    1.636    1.818    0.000    0.000    0.000    5.091 
#    0.000    0.000    0.000    0.000    0.000    0.000 
#
# Total GULP energy -245286.867164 kJ/mol
# GULP energy per Si atom -5574.701526 kJ/mol
# Density = 2.105954 g / cm^3
# Si number density = 21.107583 Si / 1000 Ang^3
#
#
#
# Elastic Constant Matrix: (Units=GPa)
#
#
# Indices 1 2 3 4 5 6 
#
# 1 78.4621 20.8311 46.7669 0.0000 0.0000 0.0000
# 2 20.8311 89.7127 53.0862 0.0000 0.0000 0.0000
# 3 46.7669 53.0862 137.7475 0.0000 0.0000 0.0000
# 4 0.0000 0.0000 0.0000 18.5485 0.0000 0.0000
# 5 0.0000 0.0000 0.0000 0.0000 34.1340 0.0000
# 6 0.0000 0.0000 0.0000 0.0000 0.0000 23.8580
#
#
#
# Elastic Compliance Matrix: (Units=1/GPa)
#
#
# Indices 1 2 3 4 5 6 
#
# 1 0.016008 -0.000649 -0.005185 0.000000 0.000000 0.000000
# 2 -0.000649 0.014466 -0.005355 0.000000 0.000000 0.000000
# 3 -0.005185 -0.005355 0.011084 0.000000 0.000000 0.000000
# 4 0.000000 0.000000 0.000000 0.053913 0.000000 0.000000
# 5 0.000000 0.000000 0.000000 0.000000 0.029296 0.000000
# 6 0.000000 0.000000 0.000000 0.000000 0.000000 0.041915
#
#
# Mechanical properties :
#
#
# Convention : Reuss Voigt Hill
#
# Bulk Modulus (GPa) = 52.13640 60.81007 56.47324
# Shear Modulus (GPa) = 25.58188 27.65729 26.61958
#
# Velocity S-wave (km/s) = 3.48512 3.62374 3.55510
# Velocity P-wave (km/s) = 6.39912 6.81034 6.60793
#
# Compressibility (1/GPa) = 0.01918046
#
# Stress axis : x y z
#
# Youngs Moduli (GPa) = 62.47039 69.12791 90.22399
#
# Poissons Ratio (x) = 0.04486 0.46778
# Poissons Ratio (y) = 0.04054 0.48312
# Poissons Ratio (z) = 0.32389 0.37016
#
# Static dielectric constant tensor:
#      x y z
#    x 1.945150 0.000000 0.000000 
#    y 0.000000 1.713520 0.000000 
#    z 0.000000 0.000000 1.843720 
# 
# From -- ./inp_files/43117.got.cif
#   From: 2010.05.17/outbox.cif.g08.bks.cpg/sg68_22_cif.got.tgz:43117.got - 2010.06.03 18:57:09.
