data_PCOD9509527
_publ_section_title
;
Structure prediction by ZEFSAII (Michael W. Deem and Ramdas Pophale) SiO2 
 PCOD9509527
Probable space group: C C C A
;
_chemical_formula_sum "Si O2"
_cell_formula_units_Z 48
_cell_length_a 9.467505
_cell_length_b 22.412864
_cell_length_c 9.445821
_cell_angle_alpha 90.000000
_cell_angle_beta 90.000000
_cell_angle_gamma 90.000000
_cell_volume 2004.345615
_symmetry_space_group_name_H-M "C C C A"
_symmetry_group_IT_number 68
_space_group.IT_coordinate_system_code '2'
_symmetry_cell_setting 'orthorhombic'
loop_
_space_group_symop_operation_xyz
x,y,z
-x,1/2-y,z
x,1/2-y,1/2-z
-x,y,1/2-z
-x,-y,-z
x,1/2+y,-z
-x,1/2+y,1/2+z
x,-y,1/2+z
1/2+x,1/2+y,z
1/2-x,-y,z
1/2+x,-y,1/2-z
1/2-x,1/2+y,1/2-z
1/2-x,1/2-y,-z
1/2+x,y,-z
1/2-x,y,1/2+z
1/2+x,1/2-y,1/2+z
loop_
_atom_site_type_symbol
_atom_site_label
_atom_site_fract_x
_atom_site_fract_y
_atom_site_fract_z
Si Si1 0.709997 0.750000 0.250000
Si Si2 0.493706 0.582142 0.095583
Si Si3 0.750000 0.000000 0.991831
Si Si4 0.094231 0.194811 0.959154
O O1 0.786176 0.697090 0.340077
O O2 0.641714 0.715339 0.116599
O O3 0.500000 0.609999 0.250000
O O4 0.347335 0.547131 0.075434
O O5 0.515391 0.632567 0.976850
O O6 0.627899 0.537245 0.087886
O O7 0.000000 0.250000 0.910598
#
# Coordination Sequence:
#
# PCOD9509527 Si02
#       4
#     8  16   8  16
#     4  10  24  42  66 108 146 176 244 280 386 428
#     4  11  24  45  73  99 146 186 246 297 360 432
#     4  10  26  46  66 106 136 194 244 298 358 420
#     4  11  24  43  69 107 137 190 228 303 362 437
#
# _framework density 23.947966000000001
#
# number of rings (size 3 to 8) (size 9 to 14) (size 15 to 20)
#    0.000    1.333    0.000    4.000   14.000    0.000 
#    0.000    0.000    0.000    0.000    0.000    0.000 
#    0.000    0.000    0.000    0.000    0.000    0.000 
#
# Total GULP energy -133939.647764 kJ/mol
# GULP energy per Si atom -5580.818657 kJ/mol
# Density = 2.389346 g / cm^3
# Si number density = 23.947966 Si / 1000 Ang^3
#
#
#
# Elastic Constant Matrix: (Units=GPa)
#
#
# Indices 1 2 3 4 5 6 
#
# 1 116.9527 33.9696 38.5380 0.0000 0.0000 0.0000
# 2 33.9696 108.2162 18.9370 0.0000 0.0000 0.0000
# 3 38.5380 18.9370 125.4177 0.0000 0.0000 0.0000
# 4 0.0000 0.0000 0.0000 26.3829 0.0000 0.0000
# 5 0.0000 0.0000 0.0000 0.0000 17.9313 0.0000
# 6 0.0000 0.0000 0.0000 0.0000 0.0000 47.1015
#
#
#
# Elastic Compliance Matrix: (Units=1/GPa)
#
#
# Indices 1 2 3 4 5 6 
#
# 1 0.010247 -0.002738 -0.002735 0.000000 0.000000 0.000000
# 2 -0.002738 0.010223 -0.000702 0.000000 0.000000 0.000000
# 3 -0.002735 -0.000702 0.008920 0.000000 0.000000 0.000000
# 4 0.000000 0.000000 0.000000 0.037903 0.000000 0.000000
# 5 0.000000 0.000000 0.000000 0.000000 0.055768 0.000000
# 6 0.000000 0.000000 0.000000 0.000000 0.000000 0.021231
#
#
# Mechanical properties :
#
#
# Convention : Reuss Voigt Hill
#
# Bulk Modulus (GPa) = 58.68885 59.27508 58.98196
# Shear Modulus (GPa) = 30.80274 35.55929 33.18101
#
# Velocity S-wave (km/s) = 3.59030 3.85756 3.72633
# Velocity P-wave (km/s) = 6.46120 6.68180 6.57242
#
# Compressibility (1/GPa) = 0.01703901
#
# Stress axis : x y z
#
# Youngs Moduli (GPa) = 97.58915 97.81756 112.10911
#
# Poissons Ratio (x) = 0.26782 0.30665
# Poissons Ratio (y) = 0.26719 0.07873
# Poissons Ratio (z) = 0.26693 0.06870
#
# Static dielectric constant tensor:
#      x y z
#    x 2.324680 0.000000 0.000000 
#    y 0.000000 1.943910 0.000000 
#    z 0.000000 0.000000 1.885960 
# 
# From -- ./inp_files/10494.got.cif
#   From: 2010.05.17/outbox.cif.g08.bks.cpg/sg68_6_cif.got.tgz:10494.got - 2010.06.03 18:57:09.
