data_PCOD9509210
_publ_section_title
;
Structure prediction by ZEFSAII (Michael W. Deem and Ramdas Pophale) SiO2 
 PCOD9509210
Probable space group: C C C A
;
_chemical_formula_sum "Si O2"
_cell_formula_units_Z 64
_cell_length_a 15.263752
_cell_length_b 12.661467
_cell_length_c 13.571305
_cell_angle_alpha 90.000000
_cell_angle_beta 90.000000
_cell_angle_gamma 90.000000
_cell_volume 2622.810656
_symmetry_space_group_name_H-M "C C C A"
_symmetry_group_IT_number 68
_space_group.IT_coordinate_system_code '2'
_symmetry_cell_setting 'orthorhombic'
loop_
_space_group_symop_operation_xyz
x,y,z
-x,1/2-y,z
x,1/2-y,1/2-z
-x,y,1/2-z
-x,-y,-z
x,1/2+y,-z
-x,1/2+y,1/2+z
x,-y,1/2+z
1/2+x,1/2+y,z
1/2-x,-y,z
1/2+x,-y,1/2-z
1/2-x,1/2+y,1/2-z
1/2-x,1/2-y,-z
1/2+x,y,-z
1/2-x,y,1/2+z
1/2+x,1/2-y,1/2+z
loop_
_atom_site_type_symbol
_atom_site_label
_atom_site_fract_x
_atom_site_fract_y
_atom_site_fract_z
Si Si1 0.500000 0.750000 0.486694
Si Si2 0.326709 0.573103 0.607869
Si Si3 0.349844 0.621567 0.390089
Si Si4 0.276174 0.250000 0.250000
Si Si5 0.018145 0.932821 0.139786
O O1 0.423199 0.707424 0.418279
O O2 0.467165 0.842320 0.559640
O O3 0.250000 0.500000 0.647410
O O4 0.304458 0.600191 0.495059
O O5 0.329364 0.679620 0.672126
O O6 0.422774 0.520120 0.608720
O O7 0.284152 0.669472 0.311645
O O8 0.403759 0.517353 0.358262
O O9 0.000000 0.893583 0.250000
#
# Coordination Sequence:
#
# PCOD9509210 Si02
#       5
#     8  16  16   8  16
#     4  10  23  41  74 100 142 186 248 298 350 424
#     4  11  26  47  71 106 150 190 241 308 381 435
#     4  11  27  46  76 101 148 193 249 297 369 449
#     4  12  28  47  73 116 148 196 236 322 377 444
#     4  11  25  45  75 107 139 196 251 298 355 449
#
# _framework density 24.401302999999999
#
# number of rings (size 3 to 8) (size 9 to 14) (size 15 to 20)
#    0.000    1.000    0.000    5.625   17.500    3.000 
#    0.000    0.000    0.000    0.000    0.000    0.000 
#    0.000    0.000    0.000    0.000    0.000    0.000 
#
# Total GULP energy -179314.204873 kJ/mol
# GULP energy per Si atom -5603.568902 kJ/mol
# Density = 2.434576 g / cm^3
# Si number density = 24.401303 Si / 1000 Ang^3
#
#
#
# Elastic Constant Matrix: (Units=GPa)
#
#
# Indices 1 2 3 4 5 6 
#
# 1 75.1035 61.2513 24.8150 0.0000 0.0000 0.0000
# 2 61.2513 80.6326 24.6596 0.0000 0.0000 0.0000
# 3 24.8150 24.6596 122.1321 0.0000 0.0000 0.0000
# 4 0.0000 0.0000 0.0000 7.2890 0.0000 0.0000
# 5 0.0000 0.0000 0.0000 0.0000 12.7116 0.0000
# 6 0.0000 0.0000 0.0000 0.0000 0.0000 28.7122
#
#
#
# Elastic Compliance Matrix: (Units=1/GPa)
#
#
# Indices 1 2 3 4 5 6 
#
# 1 0.035396 -0.026313 -0.001879 0.000000 0.000000 0.000000
# 2 -0.026313 0.032779 -0.001272 0.000000 0.000000 0.000000
# 3 -0.001879 -0.001272 0.008826 0.000000 0.000000 0.000000
# 4 0.000000 0.000000 0.000000 0.137192 0.000000 0.000000
# 5 0.000000 0.000000 0.000000 0.000000 0.078668 0.000000
# 6 0.000000 0.000000 0.000000 0.000000 0.000000 0.034828
#
#
# Mechanical properties :
#
#
# Convention : Reuss Voigt Hill
#
# Bulk Modulus (GPa) = 55.33055 55.48000 55.40527
# Shear Modulus (GPa) = 12.73420 20.88540 16.80980
#
# Velocity S-wave (km/s) = 2.28692 2.92877 2.62752
# Velocity P-wave (km/s) = 5.44957 5.85003 5.65334
#
# Compressibility (1/GPa) = 0.01807320
#
# Stress axis : x y z
#
# Youngs Moduli (GPa) = 28.25198 30.50693 113.29573
#
# Poissons Ratio (x) = 0.80274 0.21287
# Poissons Ratio (y) = 0.74340 0.14412
# Poissons Ratio (z) = 0.05308 0.03881
#
# Static dielectric constant tensor:
#      x y z
#    x 2.015520 0.000000 0.000000 
#    y 0.000000 2.055460 0.000000 
#    z 0.000000 0.000000 1.916000 
# 
# From -- ./inp_files/20499.got.cif
#   From: 2010.05.17/outbox.cif.g08.bks.cpg/sg68_11_cif.got.tgz:20499.got - 2010.06.03 18:57:09.
