data_PCOD9509720
_publ_section_title
;
Structure prediction by ZEFSAII (Michael W. Deem and Ramdas Pophale) SiO2 
 PCOD9509720
Probable space group: C C C A
;
_chemical_formula_sum "Si O2"
_cell_formula_units_Z 112
_cell_length_a 11.514513
_cell_length_b 16.111293
_cell_length_c 25.392428
_cell_angle_alpha 90.000000
_cell_angle_beta 90.000000
_cell_angle_gamma 90.000000
_cell_volume 4710.643085
_symmetry_space_group_name_H-M "C C C A"
_symmetry_group_IT_number 68
_space_group.IT_coordinate_system_code '2'
_symmetry_cell_setting 'orthorhombic'
loop_
_space_group_symop_operation_xyz
x,y,z
-x,1/2-y,z
x,1/2-y,1/2-z
-x,y,1/2-z
-x,-y,-z
x,1/2+y,-z
-x,1/2+y,1/2+z
x,-y,1/2+z
1/2+x,1/2+y,z
1/2-x,-y,z
1/2+x,-y,1/2-z
1/2-x,1/2+y,1/2-z
1/2-x,1/2-y,-z
1/2+x,y,-z
1/2-x,y,1/2+z
1/2+x,1/2-y,1/2+z
loop_
_atom_site_type_symbol
_atom_site_label
_atom_site_fract_x
_atom_site_fract_y
_atom_site_fract_z
Si Si1 0.535643 0.844355 0.403749
Si Si2 0.207951 0.376464 0.309077
Si Si3 0.146285 0.945927 0.369835
Si Si4 0.932875 0.982989 0.297859
Si Si5 0.763528 0.327781 0.538517
Si Si6 0.639235 0.747189 0.853002
Si Si7 0.108519 0.462598 0.030404
O O1 0.500000 0.750000 0.393656
O O2 0.612060 0.875264 0.355160
O O3 0.631028 0.849342 0.449123
O O4 0.427457 0.895816 0.424546
O O5 0.126315 0.433547 0.271528
O O6 0.322819 0.431248 0.317617
O O7 0.270430 0.286786 0.310335
O O8 0.164693 0.849619 0.359043
O O9 0.026420 0.978056 0.344595
O O10 0.250000 0.000000 0.346276
O O11 0.149575 0.961032 0.432791
O O12 0.000000 0.939383 0.250000
O O13 0.750000 0.250000 0.500000
O O14 0.829278 0.296027 0.592025
O O15 0.822202 0.408216 0.512429
O O16 0.500000 0.750000 0.842046
O O17 0.000000 0.500000 0.000000
#
# Coordination Sequence:
#
# PCOD9509720 Si02
#       7
#    16  16  16  16  16  16  16
#     4  11  24  43  68  96 143 205 260 315 373 447
#     4  10  24  47  80 106 144 191 252 297 390 464
#     4  12  27  45  69 109 153 192 254 326 389 453
#     4  11  25  49  82 112 144 192 241 315 395 483
#     4  11  24  39  63  95 143 204 259 313 372 441
#     4  11  23  44  72 102 144 203 251 312 377 450
#     4  12  27  40  63 101 147 201 263 314 373 453
#
# _framework density 23.775946999999999
#
# number of rings (size 3 to 8) (size 9 to 14) (size 15 to 20)
#    0.000    0.857    4.286    1.714   12.000    0.000 
#    0.000    1.429    3.143    0.857    0.000    0.000 
#    0.000    0.000    0.000    0.000    0.000    0.000 
#
# Total GULP energy -312160.537124 kJ/mol
# GULP energy per Si atom -5574.295306 kJ/mol
# Density = 2.372183 g / cm^3
# Si number density = 23.775947 Si / 1000 Ang^3
#
#
#
# Elastic Constant Matrix: (Units=GPa)
#
#
# Indices 1 2 3 4 5 6 
#
# 1 127.7692 52.7558 10.9396 0.0000 0.0000 0.0000
# 2 52.7558 143.2915 14.0976 0.0000 0.0000 0.0000
# 3 10.9396 14.0976 51.2861 0.0000 0.0000 0.0000
# 4 0.0000 0.0000 0.0000 27.5767 0.0000 0.0000
# 5 0.0000 0.0000 0.0000 0.0000 5.2881 0.0000
# 6 0.0000 0.0000 0.0000 0.0000 0.0000 48.9375
#
#
#
# Elastic Compliance Matrix: (Units=1/GPa)
#
#
# Indices 1 2 3 4 5 6 
#
# 1 0.009286 -0.003314 -0.001070 0.000000 0.000000 0.000000
# 2 -0.003314 0.008355 -0.001590 0.000000 0.000000 0.000000
# 3 -0.001070 -0.001590 0.020164 0.000000 0.000000 0.000000
# 4 0.000000 0.000000 0.000000 0.036262 0.000000 0.000000
# 5 0.000000 0.000000 0.000000 0.000000 0.189102 0.000000
# 6 0.000000 0.000000 0.000000 0.000000 0.000000 0.020434
#
#
# Mechanical properties :
#
#
# Convention : Reuss Voigt Hill
#
# Bulk Modulus (GPa) = 38.67233 53.10365 45.88799
# Shear Modulus (GPa) = 16.43812 32.66405 24.55108
#
# Velocity S-wave (km/s) = 2.63226 3.71054 3.21690
# Velocity P-wave (km/s) = 5.05361 6.38287 5.75673
#
# Compressibility (1/GPa) = 0.02585828
#
# Stress axis : x y z
#
# Youngs Moduli (GPa) = 107.68361 119.68566 49.59400
#
# Poissons Ratio (x) = 0.39661 0.05306
# Poissons Ratio (y) = 0.35684 0.07885
# Poissons Ratio (z) = 0.11522 0.19028
#
# Static dielectric constant tensor:
#      x y z
#    x 2.042840 0.000000 0.000000 
#    y 0.000000 1.825920 0.000000 
#    z 0.000000 0.000000 1.971700 
# 
# From -- ./inp_files/54818.got.cif
#   From: 2010.05.17/outbox.cif.g08.bks.cpg/sg68_28_cif.got.tgz:54818.got - 2010.06.03 18:57:09.
