data_PCOD9509561
_publ_section_title
;
Structure prediction by ZEFSAII (Michael W. Deem and Ramdas Pophale) SiO2 
 PCOD9509561
Probable space group: C C C A
;
_chemical_formula_sum "Si O2"
_cell_formula_units_Z 40
_cell_length_a 12.472859
_cell_length_b 21.282097
_cell_length_c 5.665182
_cell_angle_alpha 90.000000
_cell_angle_beta 90.000000
_cell_angle_gamma 90.000000
_cell_volume 1503.814603
_symmetry_space_group_name_H-M "C C C A"
_symmetry_group_IT_number 68
_space_group.IT_coordinate_system_code '2'
_symmetry_cell_setting 'orthorhombic'
loop_
_space_group_symop_operation_xyz
x,y,z
-x,1/2-y,z
x,1/2-y,1/2-z
-x,y,1/2-z
-x,-y,-z
x,1/2+y,-z
-x,1/2+y,1/2+z
x,-y,1/2+z
1/2+x,1/2+y,z
1/2-x,-y,z
1/2+x,-y,1/2-z
1/2-x,1/2+y,1/2-z
1/2-x,1/2-y,-z
1/2+x,y,-z
1/2-x,y,1/2+z
1/2+x,1/2-y,1/2+z
loop_
_atom_site_type_symbol
_atom_site_label
_atom_site_fract_x
_atom_site_fract_y
_atom_site_fract_z
Si Si1 0.291334 0.678771 0.982536
Si Si2 0.373665 0.525479 0.608822
Si Si3 0.500000 0.860015 0.750000
O O1 0.267427 0.651188 0.244930
O O2 0.250000 0.750000 0.000000
O O3 0.417316 0.676637 0.917987
O O4 0.410124 0.493077 0.370275
O O5 0.250000 0.500000 0.615689
O O6 0.419311 0.596370 0.597559
#
# Coordination Sequence:
#
# PCOD9509561 Si02
#       3
#    16  16   8
#     4  10  26  49  74 112 150 190 268 322 375 476
#     4  10  24  43  68 111 159 196 264 316 372 487
#     4  12  26  45  86 106 158 218 245 322 430 422
#
# _framework density 26.599025000000001
#
# number of rings (size 3 to 8) (size 9 to 14) (size 15 to 20)
#    0.000    1.600    0.000    1.200   11.200    8.000 
#    0.000    8.000    0.000    0.000    0.000    0.000 
#    0.000    0.000    0.000    0.000    0.000    0.000 
#
# Total GULP energy -111447.846654 kJ/mol
# GULP energy per Si atom -5572.392333 kJ/mol
# Density = 2.653848 g / cm^3
# Si number density = 26.599025 Si / 1000 Ang^3
#
#
#
# Elastic Constant Matrix: (Units=GPa)
#
#
# Indices 1 2 3 4 5 6 
#
# 1 213.3469 78.5296 106.3679 0.0000 0.0000 0.0000
# 2 78.5296 72.3763 12.0126 0.0000 0.0000 0.0000
# 3 106.3679 12.0126 266.8789 0.0000 0.0000 0.0000
# 4 0.0000 0.0000 0.0000 34.1838 0.0000 0.0000
# 5 0.0000 0.0000 0.0000 0.0000 77.0816 0.0000
# 6 0.0000 0.0000 0.0000 0.0000 0.0000 56.7922
#
#
#
# Elastic Compliance Matrix: (Units=1/GPa)
#
#
# Indices 1 2 3 4 5 6 
#
# 1 0.010498 -0.010777 -0.003699 0.000000 0.000000 0.000000
# 2 -0.010777 0.024983 0.003171 0.000000 0.000000 0.000000
# 3 -0.003699 0.003171 0.005079 0.000000 0.000000 0.000000
# 4 0.000000 0.000000 0.000000 0.029254 0.000000 0.000000
# 5 0.000000 0.000000 0.000000 0.000000 0.012973 0.000000
# 6 0.000000 0.000000 0.000000 0.000000 0.000000 0.017608
#
#
# Mechanical properties :
#
#
# Convention : Reuss Voigt Hill
#
# Bulk Modulus (GPa) = 55.71079 105.15805 80.43442
# Shear Modulus (GPa) = 38.76295 57.32432 48.04364
#
# Velocity S-wave (km/s) = 3.82161 4.64737 4.25457
# Velocity P-wave (km/s) = 6.36106 8.27151 7.37838
#
# Compressibility (1/GPa) = 0.01794984
#
# Stress axis : x y z
#
# Youngs Moduli (GPa) = 95.25399 40.02642 196.90343
#
# Poissons Ratio (x) = 0.43136 0.72837
# Poissons Ratio (y) = 1.02654 -0.62432
# Poissons Ratio (z) = 0.35236 -0.12691
#
# Static dielectric constant tensor:
#      x y z
#    x 2.065120 0.000000 0.000000 
#    y 0.000000 1.766610 0.000000 
#    z 0.000000 0.000000 2.002330 
# 
# From -- ./inp_files/465.got.cif
#   From: 2010.05.17/outbox.cif.g08.bks.cpg/sg68_1_cif.got.tgz:465.got - 2010.06.03 18:57:09.
