data_PCOD9509567
_publ_section_title
;
Structure prediction by ZEFSAII (Michael W. Deem and Ramdas Pophale) SiO2 
 PCOD9509567
Probable space group: C C C A
;
_chemical_formula_sum "Si O2"
_cell_formula_units_Z 64
_cell_length_a 9.934040
_cell_length_b 18.430301
_cell_length_c 15.667069
_cell_angle_alpha 90.000000
_cell_angle_beta 90.000000
_cell_angle_gamma 90.000000
_cell_volume 2868.442104
_symmetry_space_group_name_H-M "C C C A"
_symmetry_group_IT_number 68
_space_group.IT_coordinate_system_code '2'
_symmetry_cell_setting 'orthorhombic'
loop_
_space_group_symop_operation_xyz
x,y,z
-x,1/2-y,z
x,1/2-y,1/2-z
-x,y,1/2-z
-x,-y,-z
x,1/2+y,-z
-x,1/2+y,1/2+z
x,-y,1/2+z
1/2+x,1/2+y,z
1/2-x,-y,z
1/2+x,-y,1/2-z
1/2-x,1/2+y,1/2-z
1/2-x,1/2-y,-z
1/2+x,y,-z
1/2-x,y,1/2+z
1/2+x,1/2-y,1/2+z
loop_
_atom_site_type_symbol
_atom_site_label
_atom_site_fract_x
_atom_site_fract_y
_atom_site_fract_z
Si Si1 0.137232 0.669728 0.713566
Si Si2 0.809289 0.168341 0.010176
Si Si3 0.561413 0.923394 0.530973
Si Si4 0.350046 0.938381 0.778605
O O1 0.135418 0.750000 0.750000
O O2 0.145689 0.664919 0.610716
O O3 0.274117 0.634349 0.746626
O O4 0.000000 0.633777 0.750000
O O5 0.685897 0.115360 0.982881
O O6 0.750000 0.250000 0.000000
O O7 0.942072 0.136829 0.963056
O O8 0.632979 0.940580 0.620006
O O9 0.500000 0.000000 0.500000
O O10 0.500000 0.945621 0.750000
O O11 0.250000 0.000000 0.748118
#
# Coordination Sequence:
#
# PCOD9509567 Si02
#       4
#    16  16  16  16
#     4  10  24  43  69  97 139 180 230 281 350 416
#     4  11  25  42  69 105 135 178 234 285 349 419
#     4  11  24  44  69  96 140 176 228 288 354 418
#     4  11  25  44  66 100 136 181 234 287 350 420
#
# _framework density 22.311761000000001
#
# number of rings (size 3 to 8) (size 9 to 14) (size 15 to 20)
#    0.000    1.250    0.000    5.250   10.500    2.500 
#    0.000    0.000    0.000    0.000    0.000    0.000 
#    0.000    0.000    0.000    0.000    0.000    0.000 
#
# Total GULP energy -178497.973290 kJ/mol
# GULP energy per Si atom -5578.061665 kJ/mol
# Density = 2.226098 g / cm^3
# Si number density = 22.311761 Si / 1000 Ang^3
#
#
#
# Elastic Constant Matrix: (Units=GPa)
#
#
# Indices 1 2 3 4 5 6 
#
# 1 205.0138 61.9345 14.2949 0.0000 0.0000 0.0000
# 2 61.9345 104.8921 14.1783 0.0000 0.0000 0.0000
# 3 14.2949 14.1783 29.6986 0.0000 0.0000 0.0000
# 4 0.0000 0.0000 0.0000 21.4321 0.0000 0.0000
# 5 0.0000 0.0000 0.0000 0.0000 46.1622 0.0000
# 6 0.0000 0.0000 0.0000 0.0000 0.0000 53.3392
#
#
#
# Elastic Compliance Matrix: (Units=1/GPa)
#
#
# Indices 1 2 3 4 5 6 
#
# 1 0.005982 -0.003359 -0.001275 0.000000 0.000000 0.000000
# 2 -0.003359 0.012078 -0.004149 0.000000 0.000000 0.000000
# 3 -0.001275 -0.004149 0.036266 0.000000 0.000000 0.000000
# 4 0.000000 0.000000 0.000000 0.046659 0.000000 0.000000
# 5 0.000000 0.000000 0.000000 0.000000 0.021663 0.000000
# 6 0.000000 0.000000 0.000000 0.000000 0.000000 0.018748
#
#
# Mechanical properties :
#
#
# Convention : Reuss Voigt Hill
#
# Bulk Modulus (GPa) = 27.20488 57.82445 42.51466
# Shear Modulus (GPa) = 29.20286 40.79980 35.00133
#
# Velocity S-wave (km/s) = 3.62174 4.28088 3.96503
# Velocity P-wave (km/s) = 5.45058 7.09982 6.32915
#
# Compressibility (1/GPa) = 0.03675811
#
# Stress axis : x y z
#
# Youngs Moduli (GPa) = 167.18116 82.79464 27.57384
#
# Poissons Ratio (x) = 0.27815 0.03516
# Poissons Ratio (y) = 0.56164 0.11441
# Poissons Ratio (z) = 0.21320 0.34353
#
# Static dielectric constant tensor:
#      x y z
#    x 1.935440 0.000000 0.000000 
#    y 0.000000 1.896060 0.000000 
#    z 0.000000 0.000000 2.100760 
# 
# From -- ./inp_files/20451.got.cif
#   From: 2010.05.17/outbox.cif.g08.bks.cpg/sg68_11_cif.got.tgz:20451.got - 2010.06.03 18:57:09.
