data_PCOD9509717
_publ_section_title
;
Structure prediction by ZEFSAII (Michael W. Deem and Ramdas Pophale) SiO2 
 PCOD9509717
Probable space group: C C C A
;
_chemical_formula_sum "Si O2"
_cell_formula_units_Z 36
_cell_length_a 14.819127
_cell_length_b 4.763080
_cell_length_c 19.076110
_cell_angle_alpha 90.000000
_cell_angle_beta 90.000000
_cell_angle_gamma 90.000000
_cell_volume 1346.481262
_symmetry_space_group_name_H-M "C C C A"
_symmetry_group_IT_number 68
_space_group.IT_coordinate_system_code '2'
_symmetry_cell_setting 'orthorhombic'
loop_
_space_group_symop_operation_xyz
x,y,z
-x,1/2-y,z
x,1/2-y,1/2-z
-x,y,1/2-z
-x,-y,-z
x,1/2+y,-z
-x,1/2+y,1/2+z
x,-y,1/2+z
1/2+x,1/2+y,z
1/2-x,-y,z
1/2+x,-y,1/2-z
1/2-x,1/2+y,1/2-z
1/2-x,1/2-y,-z
1/2+x,y,-z
1/2-x,y,1/2+z
1/2+x,1/2-y,1/2+z
loop_
_atom_site_type_symbol
_atom_site_label
_atom_site_fract_x
_atom_site_fract_y
_atom_site_fract_z
Si Si1 0.250000 0.500000 0.867852
Si Si2 0.874530 0.250000 0.750000
Si Si3 0.500000 0.750000 0.250000
Si Si4 0.599434 0.679056 0.452336
O O1 0.184198 0.339440 0.815420
O O2 0.314260 0.293332 0.911779
O O3 0.930921 0.516055 0.778992
O O4 0.500000 0.750000 0.421084
O O5 0.601924 0.355368 0.474216
#
# Coordination Sequence:
#
# PCOD9509717 Si02
#       4
#     8   8   4  16
#     4  12  26  48  80 116 154 200 264 322 378 470
#     4  11  27  46  76 112 158 204 266 306 403 463
#     4  10  26  54  66 102 162 210 254 310 370 484
#     4  10  24  47  76 113 151 197 255 321 391 451
#
# _framework density 26.736353999999999
#
# number of rings (size 3 to 8) (size 9 to 14) (size 15 to 20)
#    0.000    1.333    0.000    2.667    3.111   10.667 
#   16.000    0.000    0.000    0.000    0.000    0.000 
#    0.000    0.000    0.000    0.000    0.000    0.000 
#
# Total GULP energy -100854.517564 kJ/mol
# GULP energy per Si atom -5603.028754 kJ/mol
# Density = 2.667550 g / cm^3
# Si number density = 26.736354 Si / 1000 Ang^3
#
#
#
# Elastic Constant Matrix: (Units=GPa)
#
#
# Indices 1 2 3 4 5 6 
#
# 1 193.7123 60.0045 62.9623 0.0000 0.0000 0.0000
# 2 60.0045 149.1741 21.6041 0.0000 0.0000 0.0000
# 3 62.9623 21.6041 78.1110 0.0000 0.0000 0.0000
# 4 0.0000 0.0000 0.0000 25.9259 0.0000 0.0000
# 5 0.0000 0.0000 0.0000 0.0000 30.1905 0.0000
# 6 0.0000 0.0000 0.0000 0.0000 0.0000 63.2720
#
#
#
# Elastic Compliance Matrix: (Units=1/GPa)
#
#
# Indices 1 2 3 4 5 6 
#
# 1 0.007675 -0.002283 -0.005555 0.000000 0.000000 0.000000
# 2 -0.002283 0.007662 -0.000279 0.000000 0.000000 0.000000
# 3 -0.005555 -0.000279 0.017357 0.000000 0.000000 0.000000
# 4 0.000000 0.000000 0.000000 0.038571 0.000000 0.000000
# 5 0.000000 0.000000 0.000000 0.000000 0.033123 0.000000
# 6 0.000000 0.000000 0.000000 0.000000 0.000000 0.015805
#
#
# Mechanical properties :
#
#
# Convention : Reuss Voigt Hill
#
# Bulk Modulus (GPa) = 60.75211 78.90438 69.82825
# Shear Modulus (GPa) = 35.23243 42.30611 38.76927
#
# Velocity S-wave (km/s) = 3.63405 3.98218 3.81209
# Velocity P-wave (km/s) = 6.35456 7.12178 6.74908
#
# Compressibility (1/GPa) = 0.01646033
#
# Stress axis : x y z
#
# Youngs Moduli (GPa) = 130.29359 130.51050 57.61260
#
# Poissons Ratio (x) = 0.29792 0.32005
# Poissons Ratio (y) = 0.29742 0.01609
# Poissons Ratio (z) = 0.72380 0.03644
#
# Static dielectric constant tensor:
#      x y z
#    x 2.089460 0.000000 0.000000 
#    y 0.000000 2.020360 0.000000 
#    z 0.000000 0.000000 2.155080 
# 
# From -- ./inp_files/38043.got.cif
#   From: 2010.05.17/outbox.cif.g08.bks.cpg/sg68_20_cif.got.tgz:38043.got - 2010.06.03 18:57:09.
