data_PCOD9509453
_publ_section_title
;
Structure prediction by ZEFSAII (Michael W. Deem and Ramdas Pophale) SiO2 
 PCOD9509453
Probable space group: C C C A
;
_chemical_formula_sum "Si O2"
_cell_formula_units_Z 88
_cell_length_a 28.727986
_cell_length_b 29.509266
_cell_length_c 4.888572
_cell_angle_alpha 90.000000
_cell_angle_beta 90.000000
_cell_angle_gamma 90.000000
_cell_volume 4144.246731
_symmetry_space_group_name_H-M "C C C A"
_symmetry_group_IT_number 68
_space_group.IT_coordinate_system_code '2'
_symmetry_cell_setting 'orthorhombic'
loop_
_space_group_symop_operation_xyz
x,y,z
-x,1/2-y,z
x,1/2-y,1/2-z
-x,y,1/2-z
-x,-y,-z
x,1/2+y,-z
-x,1/2+y,1/2+z
x,-y,1/2+z
1/2+x,1/2+y,z
1/2-x,-y,z
1/2+x,-y,1/2-z
1/2-x,1/2+y,1/2-z
1/2-x,1/2-y,-z
1/2+x,y,-z
1/2-x,y,1/2+z
1/2+x,1/2-y,1/2+z
loop_
_atom_site_type_symbol
_atom_site_label
_atom_site_fract_x
_atom_site_fract_y
_atom_site_fract_z
Si Si1 0.096044 0.666703 0.955270
Si Si2 0.500000 0.861476 0.250000
Si Si3 0.155968 0.750000 0.750000
Si Si4 0.100512 0.528923 0.186536
Si Si5 0.364346 0.118890 0.041609
Si Si6 0.000000 0.928214 0.250000
Si Si7 0.218708 0.682914 0.409129
O O1 0.042621 0.667777 0.864883
O O2 0.123788 0.712117 0.888941
O O3 0.117622 0.626628 0.765319
O O4 0.105183 0.652858 0.266687
O O5 0.487790 0.895604 0.496668
O O6 0.187406 0.723522 0.528538
O O7 0.110071 0.485532 0.377760
O O8 0.128168 0.570473 0.321232
O O9 0.045867 0.542402 0.196180
O O10 0.312012 0.137928 0.051666
O O11 0.264723 0.684328 0.597394
#
# Coordination Sequence:
#
# PCOD9509453 Si02
#       7
#    16   8   8  16  16   8  16
#     4  11  22  39  60  87 124 174 205 249 302 360
#     4  12  20  38  62  80 129 174 211 244 290 368
#     4  10  24  39  64  96 128 156 212 265 310 372
#     4  12  23  38  62  92 124 160 203 258 308 360
#     4  11  23  42  61  88 126 162 202 250 319 381
#     4  12  22  39  58  93 121 162 215 253 302 353
#     4  11  23  41  67  94 122 157 201 261 324 377
#
# _framework density 21.234255000000001
#
# number of rings (size 3 to 8) (size 9 to 14) (size 15 to 20)
#    0.000    0.727    3.636    5.455    0.000    6.182 
#    0.000    0.000    0.000    8.727    0.000    0.000 
#    0.000    0.000    0.000    0.000    0.000    0.000 
#
# Total GULP energy -246235.075638 kJ/mol
# GULP energy per Si atom -5596.251719 kJ/mol
# Density = 2.118593 g / cm^3
# Si number density = 21.234255 Si / 1000 Ang^3
#
#
#
# Elastic Constant Matrix: (Units=GPa)
#
#
# Indices 1 2 3 4 5 6 
#
# 1 65.7137 31.7902 -5.4791 0.0000 0.0000 0.0000
# 2 31.7902 85.5679 -4.9655 0.0000 0.0000 0.0000
# 3 -5.4791 -4.9655 81.3416 0.0000 0.0000 0.0000
# 4 0.0000 0.0000 0.0000 21.1323 0.0000 0.0000
# 5 0.0000 0.0000 0.0000 0.0000 25.5798 0.0000
# 6 0.0000 0.0000 0.0000 0.0000 0.0000 22.8734
#
#
#
# Elastic Compliance Matrix: (Units=1/GPa)
#
#
# Indices 1 2 3 4 5 6 
#
# 1 0.018608 -0.006865 0.000834 0.000000 0.000000 0.000000
# 2 -0.006865 0.014261 0.000408 0.000000 0.000000 0.000000
# 3 0.000834 0.000408 0.012375 0.000000 0.000000 0.000000
# 4 0.000000 0.000000 0.000000 0.047321 0.000000 0.000000
# 5 0.000000 0.000000 0.000000 0.000000 0.039093 0.000000
# 6 0.000000 0.000000 0.000000 0.000000 0.000000 0.043719
#
#
# Mechanical properties :
#
#
# Convention : Reuss Voigt Hill
#
# Bulk Modulus (GPa) = 29.41259 30.59050 30.00155
# Shear Modulus (GPa) = 25.25829 28.00227 26.63028
#
# Velocity S-wave (km/s) = 3.45266 3.63537 3.54520
# Velocity P-wave (km/s) = 5.45675 5.66204 5.56034
#
# Compressibility (1/GPa) = 0.03399904
#
# Stress axis : x y z
#
# Youngs Moduli (GPa) = 53.74000 70.12257 80.80844
#
# Poissons Ratio (x) = 0.48138 -0.06742
# Poissons Ratio (y) = 0.36892 -0.03298
# Poissons Ratio (z) = -0.04484 -0.02862
#
# Static dielectric constant tensor:
#      x y z
#    x 1.781290 0.000000 0.000000 
#    y 0.000000 1.763360 0.000000 
#    z 0.000000 0.000000 1.755080 
# 
# From -- ./inp_files/2791.got.cif
#   From: 2010.05.17/outbox.cif.g08.bks.cpg/sg68_2_cif.got.tgz:2791.got - 2010.06.03 18:57:09.
