data_PCOD9509184
_publ_section_title
;
Structure prediction by ZEFSAII (Michael W. Deem and Ramdas Pophale) SiO2 
 PCOD9509184
Probable space group: C C C A
;
_chemical_formula_sum "Si O2"
_cell_formula_units_Z 68
_cell_length_a 23.355344
_cell_length_b 13.821461
_cell_length_c 8.414032
_cell_angle_alpha 90.000000
_cell_angle_beta 90.000000
_cell_angle_gamma 90.000000
_cell_volume 2716.091400
_symmetry_space_group_name_H-M "C C C A"
_symmetry_group_IT_number 68
_space_group.IT_coordinate_system_code '2'
_symmetry_cell_setting 'orthorhombic'
loop_
_space_group_symop_operation_xyz
x,y,z
-x,1/2-y,z
x,1/2-y,1/2-z
-x,y,1/2-z
-x,-y,-z
x,1/2+y,-z
-x,1/2+y,1/2+z
x,-y,1/2+z
1/2+x,1/2+y,z
1/2-x,-y,z
1/2+x,-y,1/2-z
1/2-x,1/2+y,1/2-z
1/2-x,1/2-y,-z
1/2+x,y,-z
1/2-x,y,1/2+z
1/2+x,1/2-y,1/2+z
loop_
_atom_site_type_symbol
_atom_site_label
_atom_site_fract_x
_atom_site_fract_y
_atom_site_fract_z
Si Si1 0.000000 0.750000 0.750000
Si Si2 0.174301 0.684124 0.989822
Si Si3 0.623057 0.018254 0.822334
Si Si4 0.949613 0.421152 0.464956
Si Si5 0.796303 0.634974 0.144998
O O1 0.029716 0.674138 0.626151
O O2 0.169978 0.799319 0.014364
O O3 0.187323 0.654995 0.171812
O O4 0.123029 0.621935 0.913818
O O5 0.230914 0.663554 0.886276
O O6 0.600979 0.038286 0.647562
O O7 0.684991 0.975789 0.865899
O O8 0.581852 0.927601 0.867364
O O9 0.000000 0.500000 0.500000
#
# Coordination Sequence:
#
# PCOD9509184 Si02
#       5
#     4  16  16  16  16
#     4  12  28  52  78 102 148 188 242 332 400 446
#     4  10  23  42  63 105 143 193 238 298 361 442
#     4  12  24  44  73 100 140 189 244 306 375 457
#     4  12  27  50  73 108 141 186 252 322 391 459
#     4  10  23  41  65  99 149 187 243 292 365 444
#
# _framework density 25.035976000000002
#
# number of rings (size 3 to 8) (size 9 to 14) (size 15 to 20)
#    0.000    0.941    4.706    0.706    6.588    1.882 
#    0.000    1.176    0.000    0.000    0.000    0.000 
#    0.000    0.000    0.000    0.000    0.000    0.000 
#
# Total GULP energy -189354.967169 kJ/mol
# GULP energy per Si atom -5569.263740 kJ/mol
# Density = 2.497899 g / cm^3
# Si number density = 25.035976 Si / 1000 Ang^3
#
#
#
# Elastic Constant Matrix: (Units=GPa)
#
#
# Indices 1 2 3 4 5 6 
#
# 1 75.4592 35.6378 18.4011 0.0000 0.0000 0.0000
# 2 35.6378 141.2459 34.6451 0.0000 0.0000 0.0000
# 3 18.4011 34.6451 98.9444 0.0000 0.0000 0.0000
# 4 0.0000 0.0000 0.0000 37.2788 0.0000 0.0000
# 5 0.0000 0.0000 0.0000 0.0000 41.4239 0.0000
# 6 0.0000 0.0000 0.0000 0.0000 0.0000 42.5745
#
#
#
# Elastic Compliance Matrix: (Units=1/GPa)
#
#
# Indices 1 2 3 4 5 6 
#
# 1 0.015282 -0.003456 -0.001632 0.000000 0.000000 0.000000
# 2 -0.003456 0.008526 -0.002343 0.000000 0.000000 0.000000
# 3 -0.001632 -0.002343 0.011231 0.000000 0.000000 0.000000
# 4 0.000000 0.000000 0.000000 0.026825 0.000000 0.000000
# 5 0.000000 0.000000 0.000000 0.000000 0.024141 0.000000
# 6 0.000000 0.000000 0.000000 0.000000 0.000000 0.023488
#
#
# Mechanical properties :
#
#
# Convention : Reuss Voigt Hill
#
# Bulk Modulus (GPa) = 49.55870 54.77971 52.16921
# Shear Modulus (GPa) = 38.14466 39.38648 38.76557
#
# Velocity S-wave (km/s) = 3.90756 3.97066 3.93923
# Velocity P-wave (km/s) = 6.34008 6.55358 6.44771
#
# Compressibility (1/GPa) = 0.02017809
#
# Stress axis : x y z
#
# Youngs Moduli (GPa) = 65.43572 117.28319 89.04265
#
# Poissons Ratio (x) = 0.40527 0.14533
# Poissons Ratio (y) = 0.22611 0.20861
# Poissons Ratio (z) = 0.10680 0.27478
#
# Static dielectric constant tensor:
#      x y z
#    x 2.170470 0.000000 0.000000 
#    y 0.000000 2.971790 0.000000 
#    z 0.000000 0.000000 1.931230 
# 
# From -- ./inp_files/15243.got.cif
#   From: 2010.05.17/outbox.cif.g08.bks.cpg/sg68_8_cif.got.tgz:15243.got - 2010.06.03 18:57:09.
