data_PCOD9509805
_publ_section_title
;
Structure prediction by ZEFSAII (Michael W. Deem and Ramdas Pophale) SiO2 
 PCOD9509805
Probable space group: C C C A
;
_chemical_formula_sum "Si O2"
_cell_formula_units_Z 96
_cell_length_a 9.798689
_cell_length_b 19.108611
_cell_length_c 21.425261
_cell_angle_alpha 90.000000
_cell_angle_beta 90.000000
_cell_angle_gamma 90.000000
_cell_volume 4011.651652
_symmetry_space_group_name_H-M "C C C A"
_symmetry_group_IT_number 68
_space_group.IT_coordinate_system_code '2'
_symmetry_cell_setting 'orthorhombic'
loop_
_space_group_symop_operation_xyz
x,y,z
-x,1/2-y,z
x,1/2-y,1/2-z
-x,y,1/2-z
-x,-y,-z
x,1/2+y,-z
-x,1/2+y,1/2+z
x,-y,1/2+z
1/2+x,1/2+y,z
1/2-x,-y,z
1/2+x,-y,1/2-z
1/2-x,1/2+y,1/2-z
1/2-x,1/2-y,-z
1/2+x,y,-z
1/2-x,y,1/2+z
1/2+x,1/2-y,1/2+z
loop_
_atom_site_type_symbol
_atom_site_label
_atom_site_fract_x
_atom_site_fract_y
_atom_site_fract_z
Si Si1 0.866311 0.298156 0.582691
Si Si2 0.230930 0.706643 0.193332
Si Si3 0.000000 0.355875 0.250000
Si Si4 0.977137 0.565316 0.628481
Si Si5 0.068004 0.092372 0.873119
Si Si6 0.750000 0.000000 0.953071
Si Si7 0.311360 0.382226 0.535714
O O1 0.772744 0.254380 0.630664
O O2 0.812226 0.321142 0.515171
O O3 0.000000 0.250000 0.573988
O O4 0.925335 0.367896 0.616188
O O5 0.165663 0.750000 0.250000
O O6 0.380352 0.686682 0.216872
O O7 0.147979 0.635709 0.179703
O O8 0.060738 0.403172 0.305115
O O9 0.051044 0.489946 0.637244
O O10 0.077010 0.617391 0.590348
O O11 0.844952 0.549498 0.587651
O O12 0.163635 0.105965 0.933646
O O13 0.656645 0.952383 0.996918
#
# Coordination Sequence:
#
# PCOD9509805 Si02
#       7
#    16  16   8  16  16   8  16
#     4  10  25  45  73 111 150 205 253 310 380 460
#     4  11  27  51  70  99 151 202 259 307 374 464
#     4  12  29  50  72 104 153 204 254 322 386 446
#     4  12  26  46  75 114 149 197 250 328 390 463
#     4  11  23  47  76 110 148 195 253 322 389 450
#     4  12  24  40  76 112 154 188 246 314 398 460
#     4  12  22  46  77 113 157 193 252 320 393 455
#
# _framework density 23.930292999999999
#
# number of rings (size 3 to 8) (size 9 to 14) (size 15 to 20)
#    0.000    0.667    5.000    1.750    2.333    8.333 
#    3.000    0.000    0.000    0.000    0.000    0.000 
#    0.000    0.000    0.000    0.000    0.000    0.000 
#
# Total GULP energy -268785.172926 kJ/mol
# GULP energy per Si atom -5599.691103 kJ/mol
# Density = 2.387583 g / cm^3
# Si number density = 23.930293 Si / 1000 Ang^3
#
#
#
# Elastic Constant Matrix: (Units=GPa)
#
#
# Indices 1 2 3 4 5 6 
#
# 1 106.6990 40.6348 47.4697 0.0000 0.0000 0.0000
# 2 40.6348 107.4295 71.3819 0.0000 0.0000 0.0000
# 3 47.4697 71.3819 148.6314 0.0000 0.0000 0.0000
# 4 0.0000 0.0000 0.0000 55.7964 0.0000 0.0000
# 5 0.0000 0.0000 0.0000 0.0000 40.3852 0.0000
# 6 0.0000 0.0000 0.0000 0.0000 0.0000 29.8872
#
#
#
# Elastic Compliance Matrix: (Units=1/GPa)
#
#
# Indices 1 2 3 4 5 6 
#
# 1 0.011469 -0.002797 -0.002320 0.000000 0.000000 0.000000
# 2 -0.002797 0.014353 -0.006000 0.000000 0.000000 0.000000
# 3 -0.002320 -0.006000 0.010351 0.000000 0.000000 0.000000
# 4 0.000000 0.000000 0.000000 0.017922 0.000000 0.000000
# 5 0.000000 0.000000 0.000000 0.000000 0.024762 0.000000
# 6 0.000000 0.000000 0.000000 0.000000 0.000000 0.033459
#
#
# Mechanical properties :
#
#
# Convention : Reuss Voigt Hill
#
# Bulk Modulus (GPa) = 71.73790 75.74808 73.74299
# Shear Modulus (GPa) = 35.92066 38.76532 37.34299
#
# Velocity S-wave (km/s) = 3.87855 4.02920 3.95459
# Velocity P-wave (km/s) = 7.07817 7.30536 7.19266
#
# Compressibility (1/GPa) = 0.01393963
#
# Stress axis : x y z
#
# Youngs Moduli (GPa) = 87.18865 69.67185 96.61351
#
# Poissons Ratio (x) = 0.19486 0.22413
# Poissons Ratio (y) = 0.24385 0.57968
# Poissons Ratio (z) = 0.20227 0.41803
#
# Static dielectric constant tensor:
#      x y z
#    x 1.938500 0.000000 0.000000 
#    y 0.000000 1.969030 0.000000 
#    z 0.000000 0.000000 1.915690 
# 
# From -- ./inp_files/37697.got.cif
#   From: 2010.05.17/outbox.cif.g08.bks.cpg/sg68_19_cif.got.tgz:37697.got - 2010.06.03 18:57:09.
