data_PCOD9509016
_publ_section_title
;
Structure prediction by ZEFSAII (Michael W. Deem and Ramdas Pophale) SiO2 
 PCOD9509016
Probable space group: C C C A
;
_chemical_formula_sum "Si O2"
_cell_formula_units_Z 116
_cell_length_a 18.137373
_cell_length_b 11.497447
_cell_length_c 23.973846
_cell_angle_alpha 90.000000
_cell_angle_beta 90.000000
_cell_angle_gamma 90.000000
_cell_volume 4999.349650
_symmetry_space_group_name_H-M "C C C A"
_symmetry_group_IT_number 68
_space_group.IT_coordinate_system_code '2'
_symmetry_cell_setting 'orthorhombic'
loop_
_space_group_symop_operation_xyz
x,y,z
-x,1/2-y,z
x,1/2-y,1/2-z
-x,y,1/2-z
-x,-y,-z
x,1/2+y,-z
-x,1/2+y,1/2+z
x,-y,1/2+z
1/2+x,1/2+y,z
1/2-x,-y,z
1/2+x,-y,1/2-z
1/2-x,1/2+y,1/2-z
1/2-x,1/2-y,-z
1/2+x,y,-z
1/2-x,y,1/2+z
1/2+x,1/2-y,1/2+z
loop_
_atom_site_type_symbol
_atom_site_label
_atom_site_fract_x
_atom_site_fract_y
_atom_site_fract_z
Si Si1 0.579986 0.218632 0.586615
Si Si2 0.792007 0.890022 0.928123
Si Si3 0.666797 0.510127 0.950697
Si Si4 0.000000 0.250000 0.750000
Si Si5 0.403929 0.585182 0.826386
Si Si6 0.469438 0.581446 0.189790
Si Si7 0.833820 0.270007 0.887573
Si Si8 0.175580 0.069400 0.783568
O O1 0.500000 0.250000 0.560897
O O2 0.633982 0.327935 0.591658
O O3 0.562961 0.176314 0.649054
O O4 0.621759 0.109377 0.556502
O O5 0.734470 0.782012 0.923132
O O6 0.750000 0.000000 0.899574
O O7 0.817222 0.944957 0.987078
O O8 0.750000 0.500000 0.925427
O O9 0.631789 0.619267 0.918380
O O10 0.047825 0.329389 0.788738
O O11 0.459359 0.480210 0.837151
O O12 0.384253 0.657446 0.880634
O O13 0.335340 0.568708 0.783884
O O14 0.500000 0.617908 0.250000
O O15 0.400616 0.493644 0.198406
O O16 0.817970 0.316973 0.824054
O O17 0.250000 0.000000 0.795088
#
# Coordination Sequence:
#
# PCOD9509016 Si02
#       8
#    16  16  16   4  16  16  16  16
#     4  12  27  49  77 112 154 202 255 314 394 470
#     4  11  28  48  78 110 147 192 254 326 387 453
#     4  11  24  49  79 108 146 200 251 318 400 462
#     4  12  16  40  60 100 154 196 238 296 372 438
#     4  11  22  37  66 105 154 199 252 310 375 453
#     4  10  22  45  70 105 156 213 249 306 390 467
#     4  12  21  40  73 108 138 194 253 314 369 461
#     4  11  20  37  66 103 148 199 259 314 373 458
#
# _framework density 23.203019000000001
#
# number of rings (size 3 to 8) (size 9 to 14) (size 15 to 20)
#    0.000    0.828    6.207    1.655    3.862    1.379 
#    2.483    1.379    0.000    0.000    0.000    0.000 
#    0.000    0.000    0.000    0.000    0.000    0.000 
#
# Total GULP energy -323491.585284 kJ/mol
# GULP energy per Si atom -5577.441126 kJ/mol
# Density = 2.315021 g / cm^3
# Si number density = 23.203019 Si / 1000 Ang^3
#
#
#
# Elastic Constant Matrix: (Units=GPa)
#
#
# Indices 1 2 3 4 5 6 
#
# 1 131.6344 86.3281 54.4902 0.0000 0.0000 0.0000
# 2 86.3281 137.3875 43.2448 0.0000 0.0000 0.0000
# 3 54.4902 43.2448 87.5471 0.0000 0.0000 0.0000
# 4 0.0000 0.0000 0.0000 49.1288 0.0000 0.0000
# 5 0.0000 0.0000 0.0000 0.0000 9.0209 0.0000
# 6 0.0000 0.0000 0.0000 0.0000 0.0000 67.1720
#
#
#
# Elastic Compliance Matrix: (Units=1/GPa)
#
#
# Indices 1 2 3 4 5 6 
#
# 1 0.014860 -0.007609 -0.005490 0.000000 0.000000 0.000000
# 2 -0.007609 0.012515 -0.001446 0.000000 0.000000 0.000000
# 3 -0.005490 -0.001446 0.015554 0.000000 0.000000 0.000000
# 4 0.000000 0.000000 0.000000 0.020355 0.000000 0.000000
# 5 0.000000 0.000000 0.000000 0.000000 0.110854 0.000000
# 6 0.000000 0.000000 0.000000 0.000000 0.000000 0.014887
#
#
# Mechanical properties :
#
#
# Convention : Reuss Voigt Hill
#
# Bulk Modulus (GPa) = 72.26461 80.52168 76.39314
# Shear Modulus (GPa) = 22.44902 36.56474 29.50688
#
# Velocity S-wave (km/s) = 3.11385 3.97402 3.56993
# Velocity P-wave (km/s) = 6.64381 7.47232 7.07021
#
# Compressibility (1/GPa) = 0.01383803
#
# Stress axis : x y z
#
# Youngs Moduli (GPa) = 67.29674 79.90442 64.29267
#
# Poissons Ratio (x) = 0.60799 0.35298
# Poissons Ratio (y) = 0.51206 0.09297
# Poissons Ratio (z) = 0.36947 0.11554
#
# Static dielectric constant tensor:
#      x y z
#    x 1.912160 0.000000 0.000000 
#    y 0.000000 1.942840 0.000000 
#    z 0.000000 0.000000 1.928870 
# 
# From -- ./inp_files/51495.got.cif
#   From: 2010.05.17/outbox.cif.g08.bks.cpg/sg68_26_cif.got.tgz:51495.got - 2010.06.03 18:57:09.
