data_PCOD9509024
_publ_section_title
;
Structure prediction by ZEFSAII (Michael W. Deem and Ramdas Pophale) SiO2 
 PCOD9509024
Probable space group: C C C A
;
_chemical_formula_sum "Si O2"
_cell_formula_units_Z 44
_cell_length_a 9.270238
_cell_length_b 21.311363
_cell_length_c 9.779332
_cell_angle_alpha 90.000000
_cell_angle_beta 90.000000
_cell_angle_gamma 90.000000
_cell_volume 1932.018591
_symmetry_space_group_name_H-M "C C C A"
_symmetry_group_IT_number 68
_space_group.IT_coordinate_system_code '2'
_symmetry_cell_setting 'orthorhombic'
loop_
_space_group_symop_operation_xyz
x,y,z
-x,1/2-y,z
x,1/2-y,1/2-z
-x,y,1/2-z
-x,-y,-z
x,1/2+y,-z
-x,1/2+y,1/2+z
x,-y,1/2+z
1/2+x,1/2+y,z
1/2-x,-y,z
1/2+x,-y,1/2-z
1/2-x,1/2+y,1/2-z
1/2-x,1/2-y,-z
1/2+x,y,-z
1/2-x,y,1/2+z
1/2+x,1/2-y,1/2+z
loop_
_atom_site_type_symbol
_atom_site_label
_atom_site_fract_x
_atom_site_fract_y
_atom_site_fract_z
Si Si1 0.000000 0.642877 0.250000
Si Si2 0.500000 0.750000 0.250000
Si Si3 0.746695 0.925600 0.617265
Si Si4 0.963908 0.352458 0.050435
O O1 0.142214 0.600007 0.236309
O O2 0.003445 0.674644 0.398893
O O3 0.415893 0.796497 0.149186
O O4 0.898780 0.889649 0.611195
O O5 0.658068 0.902795 0.483795
O O6 0.750000 0.000000 0.622541
#
# Coordination Sequence:
#
# PCOD9509024 Si02
#       4
#     8   4  16  16
#     4   8  24  42  68 110 139 179 242 280 380 408
#     4  12  28  44  72  98 158 190 256 288 344 438
#     4  10  22  45  73 109 143 178 238 304 368 428
#     4  10  25  45  68 111 139 199 235 296 358 422
#
# _framework density 22.774107999999998
#
# number of rings (size 3 to 8) (size 9 to 14) (size 15 to 20)
#    2.182    0.000    0.000    1.091    5.091    5.091 
#    0.000    0.000    0.000    0.000    0.000    0.000 
#    0.000    0.000    0.000    0.000    0.000    0.000 
#
# Total GULP energy -122521.912075 kJ/mol
# GULP energy per Si atom -5569.177822 kJ/mol
# Density = 2.272227 g / cm^3
# Si number density = 22.774108 Si / 1000 Ang^3
#
#
#
# Elastic Constant Matrix: (Units=GPa)
#
#
# Indices 1 2 3 4 5 6 
#
# 1 106.1248 25.5472 18.4635 0.0000 0.0000 0.0000
# 2 25.5472 122.5541 59.1155 0.0000 0.0000 0.0000
# 3 18.4635 59.1155 147.5211 0.0000 0.0000 0.0000
# 4 0.0000 0.0000 0.0000 133.9599 0.0000 0.0000
# 5 0.0000 0.0000 0.0000 0.0000 47.8345 0.0000
# 6 0.0000 0.0000 0.0000 0.0000 0.0000 -13.2015
#
#
#
# Elastic Compliance Matrix: (Units=1/GPa)
#
#
# Indices 1 2 3 4 5 6 
#
# 1 0.009952 -0.001827 -0.000513 0.000000 0.000000 0.000000
# 2 -0.001827 0.010450 -0.003959 0.000000 0.000000 0.000000
# 3 -0.000513 -0.003959 0.008429 0.000000 0.000000 0.000000
# 4 0.000000 0.000000 0.000000 0.007465 0.000000 0.000000
# 5 0.000000 0.000000 0.000000 0.000000 0.020905 0.000000
# 6 0.000000 0.000000 0.000000 0.000000 0.000000 -0.075749
#
#
# Mechanical properties :
#
#
# Convention : Reuss Voigt Hill
#
# Bulk Modulus (GPa) = 61.60352 64.71695 63.16024
# Shear Modulus (GPa) = -9302.91513 51.92351 -4625.49581
#
# Velocity S-wave (km/s) = -63.98228 4.78005 -45.11587
# Velocity P-wave (km/s) = 73.69669 7.67748 51.82788
#
# Compressibility (1/GPa) = 0.01623284
#
# Stress axis : x y z
#
# Youngs Moduli (GPa) = 100.48251 95.69234 118.63193
#
# Poissons Ratio (x) = 0.17482 0.06092
# Poissons Ratio (y) = 0.18357 0.46966
# Poissons Ratio (z) = 0.05160 0.37885
#
# Static dielectric constant tensor:
#      x y z
#    x 1.841610 0.000000 0.000000 
#    y 0.000000 1.783210 0.000000 
#    z 0.000000 0.000000 1.959390 
# 
# From -- ./inp_files/10388.got.cif
#   From: 2010.05.17/outbox.cif.g08.bks.cpg/sg68_6_cif.got.tgz:10388.got - 2010.06.03 18:57:09.
