data_PCOD9509040
_publ_section_title
;
Structure prediction by ZEFSAII (Michael W. Deem and Ramdas Pophale) SiO2 
 PCOD9509040
Probable space group: C C C A
;
_chemical_formula_sum "Si O2"
_cell_formula_units_Z 64
_cell_length_a 10.588299
_cell_length_b 27.750864
_cell_length_c 9.146951
_cell_angle_alpha 90.000000
_cell_angle_beta 90.000000
_cell_angle_gamma 90.000000
_cell_volume 2687.689275
_symmetry_space_group_name_H-M "C C C A"
_symmetry_group_IT_number 68
_space_group.IT_coordinate_system_code '2'
_symmetry_cell_setting 'orthorhombic'
loop_
_space_group_symop_operation_xyz
x,y,z
-x,1/2-y,z
x,1/2-y,1/2-z
-x,y,1/2-z
-x,-y,-z
x,1/2+y,-z
-x,1/2+y,1/2+z
x,-y,1/2+z
1/2+x,1/2+y,z
1/2-x,-y,z
1/2+x,-y,1/2-z
1/2-x,1/2+y,1/2-z
1/2-x,1/2-y,-z
1/2+x,y,-z
1/2-x,y,1/2+z
1/2+x,1/2-y,1/2+z
loop_
_atom_site_type_symbol
_atom_site_label
_atom_site_fract_x
_atom_site_fract_y
_atom_site_fract_z
Si Si1 0.870491 0.730264 0.916611
Si Si2 0.500000 0.940797 0.750000
Si Si3 0.750000 0.000000 0.765604
Si Si4 0.657120 0.123700 0.473896
Si Si5 0.853332 0.905015 0.775738
O O1 0.864162 0.750000 0.750000
O O2 0.000000 0.750000 0.982314
O O3 0.750000 0.750000 0.000000
O O4 0.879096 0.673133 0.945540
O O5 0.447189 0.905005 0.621814
O O6 0.618985 0.974983 0.705537
O O7 0.685690 0.044693 0.849095
O O8 0.775732 0.133586 0.367699
O O9 0.697503 0.091481 0.611050
O O10 0.000000 0.898393 0.750000
#
# Coordination Sequence:
#
# PCOD9509040 Si02
#       5
#    16   8   8  16  16
#     4  11  27  49  79 112 150 193 248 320 396 476
#     4  10  24  46  73 110 156 214 261 322 374 472
#     4  10  22  46  68 112 154 218 258 314 386 446
#     4  11  27  46  75 110 151 203 263 315 401 451
#     4  11  26  44  73 105 158 205 262 322 374 467
#
# _framework density 23.812276000000001
#
# number of rings (size 3 to 8) (size 9 to 14) (size 15 to 20)
#    0.000    1.250    1.250    1.500   14.000    7.500 
#    0.000    0.000    0.000    0.000    0.000    0.000 
#    0.000    0.000    0.000    0.000    0.000    0.000 
#
# Total GULP energy -178327.559773 kJ/mol
# GULP energy per Si atom -5572.736243 kJ/mol
# Density = 2.375808 g / cm^3
# Si number density = 23.812276 Si / 1000 Ang^3
#
#
#
# Elastic Constant Matrix: (Units=GPa)
#
#
# Indices 1 2 3 4 5 6 
#
# 1 213.6276 62.6617 52.5769 0.0000 0.0000 0.0000
# 2 62.6617 130.2319 39.4626 0.0000 0.0000 0.0000
# 3 52.5769 39.4626 127.2177 0.0000 0.0000 0.0000
# 4 0.0000 0.0000 0.0000 -146.1389 0.0000 0.0000
# 5 0.0000 0.0000 0.0000 0.0000 43.3340 0.0000
# 6 0.0000 0.0000 0.0000 0.0000 0.0000 37.8624
#
#
#
# Elastic Compliance Matrix: (Units=1/GPa)
#
#
# Indices 1 2 3 4 5 6 
#
# 1 0.005757 -0.002262 -0.001678 0.000000 0.000000 0.000000
# 2 -0.002262 0.009364 -0.001970 0.000000 0.000000 0.000000
# 3 -0.001678 -0.001970 0.009165 0.000000 0.000000 0.000000
# 4 0.000000 0.000000 0.000000 -0.006843 0.000000 0.000000
# 5 0.000000 0.000000 0.000000 0.000000 0.023077 0.000000
# 6 0.000000 0.000000 0.000000 0.000000 0.000000 0.026411
#
#
# Mechanical properties :
#
#
# Convention : Reuss Voigt Hill
#
# Bulk Modulus (GPa) = 80.21031 86.71996 83.46513
# Shear Modulus (GPa) = 60.30919 8.10324 34.20622
#
# Velocity S-wave (km/s) = 5.03805 1.84671 3.79422
# Velocity P-wave (km/s) = 8.22193 6.40659 7.37036
#
# Compressibility (1/GPa) = 0.01246723
#
# Stress axis : x y z
#
# Youngs Moduli (GPa) = 173.68885 106.79438 109.11059
#
# Poissons Ratio (x) = 0.24155 0.18307
# Poissons Ratio (y) = 0.39285 0.21493
# Poissons Ratio (z) = 0.29142 0.21037
#
# Static dielectric constant tensor:
#      x y z
#    x 2.049590 0.000000 0.000000 
#    y 0.000000 2.041640 0.000000 
#    z 0.000000 0.000000 1.979400 
# 
# From -- ./inp_files/4087.got.cif
#   From: 2010.05.17/outbox.cif.g08.bks.cpg/sg68_3_cif.got.tgz:4087.got - 2010.06.03 18:57:09.
