data_PCOD9509909
_publ_section_title
;
Structure prediction by ZEFSAII (Michael W. Deem and Ramdas Pophale) SiO2 
 PCOD9509909
Probable space group: C C C A
;
_chemical_formula_sum "Si O2"
_cell_formula_units_Z 60
_cell_length_a 7.905228
_cell_length_b 27.175778
_cell_length_c 12.277465
_cell_angle_alpha 90.000000
_cell_angle_beta 90.000000
_cell_angle_gamma 90.000000
_cell_volume 2637.576660
_symmetry_space_group_name_H-M "C C C A"
_symmetry_group_IT_number 68
_space_group.IT_coordinate_system_code '2'
_symmetry_cell_setting 'orthorhombic'
loop_
_space_group_symop_operation_xyz
x,y,z
-x,1/2-y,z
x,1/2-y,1/2-z
-x,y,1/2-z
-x,-y,-z
x,1/2+y,-z
-x,1/2+y,1/2+z
x,-y,1/2+z
1/2+x,1/2+y,z
1/2-x,-y,z
1/2+x,-y,1/2-z
1/2-x,1/2+y,1/2-z
1/2-x,1/2-y,-z
1/2+x,y,-z
1/2-x,y,1/2+z
1/2+x,1/2-y,1/2+z
loop_
_atom_site_type_symbol
_atom_site_label
_atom_site_fract_x
_atom_site_fract_y
_atom_site_fract_z
Si Si1 0.501885 0.147065 0.622770
Si Si2 0.500000 0.250000 0.250000
Si Si3 0.664500 0.547074 0.323225
Si Si4 0.873672 0.171019 0.910696
Si Si5 0.500000 0.596113 0.750000
O O1 0.500000 0.160403 0.750000
O O2 0.594951 0.094288 0.611709
O O3 0.307151 0.145857 0.592183
O O4 0.584651 0.183063 0.535072
O O5 0.613322 0.283237 0.170501
O O6 0.500000 0.533402 0.250000
O O7 0.750000 0.500000 0.382012
O O8 0.824636 0.566476 0.252786
O O9 0.000838 0.131424 0.855989
#
# Coordination Sequence:
#
# PCOD9509909 Si02
#       5
#    16   4  16  16   8
#     4  11  24  45  73 107 148 204 245 303 390 439
#     4  10  28  48  80 112 144 194 256 322 378 466
#     4  11  21  39  68 111 147 206 252 304 359 446
#     4  11  24  47  73 106 149 196 250 316 383 451
#     4  11  20  41  72  94 154 194 252 305 376 431
#
# _framework density 22.748154
#
# number of rings (size 3 to 8) (size 9 to 14) (size 15 to 20)
#    0.000    1.067    6.667    1.600    3.733    1.067 
#    0.000    6.667    0.000    0.000    0.000    0.000 
#    0.000    0.000    0.000    0.000    0.000    0.000 
#
# Total GULP energy -167308.021879 kJ/mol
# GULP energy per Si atom -5576.934063 kJ/mol
# Density = 2.269638 g / cm^3
# Si number density = 22.748154 Si / 1000 Ang^3
#
#
#
# Elastic Constant Matrix: (Units=GPa)
#
#
# Indices 1 2 3 4 5 6 
#
# 1 144.4654 46.0636 34.8389 0.0000 0.0000 0.0000
# 2 46.0636 87.4236 39.7659 0.0000 0.0000 0.0000
# 3 34.8389 39.7659 152.6046 0.0000 0.0000 0.0000
# 4 0.0000 0.0000 0.0000 57.5241 0.0000 0.0000
# 5 0.0000 0.0000 0.0000 0.0000 23.5981 0.0000
# 6 0.0000 0.0000 0.0000 0.0000 0.0000 73.5489
#
#
#
# Elastic Compliance Matrix: (Units=1/GPa)
#
#
# Indices 1 2 3 4 5 6 
#
# 1 0.008420 -0.004041 -0.000869 0.000000 0.000000 0.000000
# 2 -0.004041 0.014916 -0.002964 0.000000 0.000000 0.000000
# 3 -0.000869 -0.002964 0.007524 0.000000 0.000000 0.000000
# 4 0.000000 0.000000 0.000000 0.017384 0.000000 0.000000
# 5 0.000000 0.000000 0.000000 0.000000 0.042376 0.000000
# 6 0.000000 0.000000 0.000000 0.000000 0.000000 0.013596
#
#
# Mechanical properties :
#
#
# Convention : Reuss Voigt Hill
#
# Bulk Modulus (GPa) = 66.17824 69.53671 67.85747
# Shear Modulus (GPa) = 39.99889 48.52258 44.26073
#
# Velocity S-wave (km/s) = 4.19780 4.62349 4.41578
# Velocity P-wave (km/s) = 7.25605 7.69003 7.47619
#
# Compressibility (1/GPa) = 0.01511071
#
# Stress axis : x y z
#
# Youngs Moduli (GPa) = 118.76091 67.04089 132.91227
#
# Poissons Ratio (x) = 0.27093 0.11553
# Poissons Ratio (y) = 0.47995 0.39399
# Poissons Ratio (z) = 0.10323 0.19873
#
# Static dielectric constant tensor:
#      x y z
#    x 1.835880 0.000000 0.000000 
#    y 0.000000 1.930170 0.000000 
#    z 0.000000 0.000000 1.865530 
# 
# From -- ./inp_files/10703.got.cif
#   From: 2010.05.17/outbox.cif.g08.bks.cpg/sg68_6_cif.got.tgz:10703.got - 2010.06.03 18:57:09.
