data_PCOD9509632
_publ_section_title
;
Structure prediction by ZEFSAII (Michael W. Deem and Ramdas Pophale) SiO2 
 PCOD9509632
Probable space group: C C C A
;
_chemical_formula_sum "Si O2"
_cell_formula_units_Z 40
_cell_length_a 13.324382
_cell_length_b 5.397790
_cell_length_c 22.877976
_cell_angle_alpha 90.000000
_cell_angle_beta 90.000000
_cell_angle_gamma 90.000000
_cell_volume 1645.434730
_symmetry_space_group_name_H-M "C C C A"
_symmetry_group_IT_number 68
_space_group.IT_coordinate_system_code '2'
_symmetry_cell_setting 'orthorhombic'
loop_
_space_group_symop_operation_xyz
x,y,z
-x,1/2-y,z
x,1/2-y,1/2-z
-x,y,1/2-z
-x,-y,-z
x,1/2+y,-z
-x,1/2+y,1/2+z
x,-y,1/2+z
1/2+x,1/2+y,z
1/2-x,-y,z
1/2+x,-y,1/2-z
1/2-x,1/2+y,1/2-z
1/2-x,1/2-y,-z
1/2+x,y,-z
1/2-x,y,1/2+z
1/2+x,1/2-y,1/2+z
loop_
_atom_site_type_symbol
_atom_site_label
_atom_site_fract_x
_atom_site_fract_y
_atom_site_fract_z
Si Si1 0.870625 0.500518 0.286867
Si Si2 0.000000 0.250000 0.384043
Si Si3 0.291323 0.241625 0.566167
O O1 0.890851 0.750000 0.250000
O O2 0.750000 0.500000 0.297228
O O3 0.946069 0.455281 0.342001
O O4 0.887057 0.250000 0.250000
O O5 0.908537 0.194625 0.427494
O O6 0.250000 0.500000 0.589159
O O7 0.250000 0.250000 0.500000
O O8 0.250000 0.000000 0.598855
#
# Coordination Sequence:
#
# PCOD9509632 Si02
#       3
#    16   8  16
#     4  10  24  45  67 100 142 181 236 297 347 423
#     4  12  25  44  78 104 142 202 237 284 376 428
#     4  10  25  46  69 105 145 185 242 301 350 423
#
# _framework density 24.309683
#
# number of rings (size 3 to 8) (size 9 to 14) (size 15 to 20)
#    0.000    1.600    0.000    1.800    0.000   22.400 
#    0.000    4.000    0.000    0.000    0.000    0.000 
#    0.000    0.000    0.000    0.000    0.000    0.000 
#
# Total GULP energy -111432.118991 kJ/mol
# GULP energy per Si atom -5571.605950 kJ/mol
# Density = 2.425435 g / cm^3
# Si number density = 24.309683 Si / 1000 Ang^3
#
#
#
# Elastic Constant Matrix: (Units=GPa)
#
#
# Indices 1 2 3 4 5 6 
#
# 1 282.4156 52.9416 53.2214 0.0000 0.0000 0.0000
# 2 52.9416 193.7935 26.2442 0.0000 0.0000 0.0000
# 3 53.2214 26.2442 116.1703 0.0000 0.0000 0.0000
# 4 0.0000 0.0000 0.0000 -36.6738 0.0000 0.0000
# 5 0.0000 0.0000 0.0000 0.0000 80.5321 0.0000
# 6 0.0000 0.0000 0.0000 0.0000 0.0000 17.1225
#
#
#
# Elastic Compliance Matrix: (Units=1/GPa)
#
#
# Indices 1 2 3 4 5 6 
#
# 1 0.004014 -0.000874 -0.001641 0.000000 0.000000 0.000000
# 2 -0.000874 0.005513 -0.000845 0.000000 0.000000 0.000000
# 3 -0.001641 -0.000845 0.009551 0.000000 0.000000 0.000000
# 4 0.000000 0.000000 0.000000 -0.027267 0.000000 0.000000
# 5 0.000000 0.000000 0.000000 0.000000 0.012417 0.000000
# 6 0.000000 0.000000 0.000000 0.000000 0.000000 0.058403
#
#
# Mechanical properties :
#
#
# Convention : Reuss Voigt Hill
#
# Bulk Modulus (GPa) = 80.92628 95.24376 88.08502
# Shear Modulus (GPa) = 68.05342 42.86098 55.45720
#
# Velocity S-wave (km/s) = 5.29671 4.20351 4.78146
# Velocity P-wave (km/s) = 8.41242 7.92614 8.17290
#
# Compressibility (1/GPa) = 0.01235692
#
# Stress axis : x y z
#
# Youngs Moduli (GPa) = 249.12085 181.37594 104.70148
#
# Poissons Ratio (x) = 0.15858 0.17187
# Poissons Ratio (y) = 0.21781 0.08847
# Poissons Ratio (z) = 0.40893 0.15326
#
# Static dielectric constant tensor:
#      x y z
#    x 1.690430 0.000000 0.000000 
#    y 0.000000 2.021680 0.000000 
#    z 0.000000 0.000000 2.176530 
# 
# From -- ./inp_files/44816.got.cif
#   From: 2010.05.17/outbox.cif.g08.bks.cpg/sg68_23_cif.got.tgz:44816.got - 2010.06.03 18:57:09.
