data_PCOD9509828
_publ_section_title
;
Structure prediction by ZEFSAII (Michael W. Deem and Ramdas Pophale) SiO2 
 PCOD9509828
Probable space group: C C C A
;
_chemical_formula_sum "Si O2"
_cell_formula_units_Z 64
_cell_length_a 14.442392
_cell_length_b 10.278410
_cell_length_c 17.089717
_cell_angle_alpha 90.000000
_cell_angle_beta 90.000000
_cell_angle_gamma 90.000000
_cell_volume 2536.880073
_symmetry_space_group_name_H-M "C C C A"
_symmetry_group_IT_number 68
_space_group.IT_coordinate_system_code '2'
_symmetry_cell_setting 'orthorhombic'
loop_
_space_group_symop_operation_xyz
x,y,z
-x,1/2-y,z
x,1/2-y,1/2-z
-x,y,1/2-z
-x,-y,-z
x,1/2+y,-z
-x,1/2+y,1/2+z
x,-y,1/2+z
1/2+x,1/2+y,z
1/2-x,-y,z
1/2+x,-y,1/2-z
1/2-x,1/2+y,1/2-z
1/2-x,1/2-y,-z
1/2+x,y,-z
1/2-x,y,1/2+z
1/2+x,1/2-y,1/2+z
loop_
_atom_site_type_symbol
_atom_site_label
_atom_site_fract_x
_atom_site_fract_y
_atom_site_fract_z
Si Si1 0.690225 0.157972 0.436516
Si Si2 0.524411 0.080306 0.339416
Si Si3 0.137471 0.311519 0.335504
Si Si4 0.148086 0.040622 0.412547
O O1 0.763873 0.143556 0.367954
O O2 0.659124 0.042489 0.494296
O O3 0.750000 0.000000 0.119858
O O4 0.594927 0.173161 0.386733
O O5 0.500000 0.114302 0.250000
O O6 0.572803 0.936926 0.335453
O O7 0.429393 0.056408 0.385031
O O8 0.142822 0.250000 0.250000
O O9 0.114561 0.184777 0.388004
O O10 0.250000 0.250000 0.500000
#
# Coordination Sequence:
#
# PCOD9509828 Si02
#       4
#    16  16  16  16
#     4  10  25  48  73 106 152 209 257 332 404 482
#     4  12  24  41  76 112 148 199 267 325 406 480
#     4  11  23  42  71 106 151 194 254 322 401 477
#     4  11  24  43  70 106 150 200 258 320 389 481
#
# _framework density 25.227837999999998
#
# number of rings (size 3 to 8) (size 9 to 14) (size 15 to 20)
#    0.000    1.000    2.500    3.750    3.500    0.000 
#    0.000   12.500    0.000    0.000    0.000    0.000 
#    0.000    0.000    0.000    0.000    0.000    0.000 
#
# Total GULP energy -178625.432365 kJ/mol
# GULP energy per Si atom -5582.044761 kJ/mol
# Density = 2.517042 g / cm^3
# Si number density = 25.227838 Si / 1000 Ang^3
#
#
#
# Elastic Constant Matrix: (Units=GPa)
#
#
# Indices 1 2 3 4 5 6 
#
# 1 227.9004 73.2974 76.8652 0.0000 0.0000 0.0000
# 2 73.2974 193.7297 46.0372 0.0000 0.0000 0.0000
# 3 76.8652 46.0372 134.8175 0.0000 0.0000 0.0000
# 4 0.0000 0.0000 0.0000 -2.0175 0.0000 0.0000
# 5 0.0000 0.0000 0.0000 0.0000 40.6379 0.0000
# 6 0.0000 0.0000 0.0000 0.0000 0.0000 10.5763
#
#
#
# Elastic Compliance Matrix: (Units=1/GPa)
#
#
# Indices 1 2 3 4 5 6 
#
# 1 0.005826 -0.001540 -0.002796 0.000000 0.000000 0.000000
# 2 -0.001540 0.006025 -0.001179 0.000000 0.000000 0.000000
# 3 -0.002796 -0.001179 0.009414 0.000000 0.000000 0.000000
# 4 0.000000 0.000000 0.000000 -0.495658 0.000000 0.000000
# 5 0.000000 0.000000 0.000000 0.000000 0.024608 0.000000
# 6 0.000000 0.000000 0.000000 0.000000 0.000000 0.094551
#
#
# Mechanical properties :
#
#
# Convention : Reuss Voigt Hill
#
# Bulk Modulus (GPa) = 97.70598 105.42748 101.56673
# Shear Modulus (GPa) = -14.67169 33.85585 9.59208
#
# Velocity S-wave (km/s) = -2.41419 3.66731 1.95203
# Velocity P-wave (km/s) = 5.57157 7.73389 6.74001
#
# Compressibility (1/GPa) = 0.01023479
#
# Stress axis : x y z
#
# Youngs Moduli (GPa) = 171.64054 165.98321 106.22252
#
# Poissons Ratio (x) = 0.25560 0.29699
# Poissons Ratio (y) = 0.26431 0.12527
# Poissons Ratio (z) = 0.47989 0.19575
#
# Static dielectric constant tensor:
#      x y z
#    x 2.017620 0.000000 0.000000 
#    y 0.000000 2.247880 0.000000 
#    z 0.000000 0.000000 2.006230 
# 
# From -- ./inp_files/29137.got.cif
#   From: 2010.05.17/outbox.cif.g08.bks.cpg/sg68_15_cif.got.tgz:29137.got - 2010.06.03 18:57:09.
