data_PCOD9509826
_publ_section_title
;
Structure prediction by ZEFSAII (Michael W. Deem and Ramdas Pophale) SiO2 
 PCOD9509826
Probable space group: C C C A
;
_chemical_formula_sum "Si O2"
_cell_formula_units_Z 88
_cell_length_a 27.792010
_cell_length_b 12.086462
_cell_length_c 12.017962
_cell_angle_alpha 90.000000
_cell_angle_beta 90.000000
_cell_angle_gamma 90.000000
_cell_volume 4036.918436
_symmetry_space_group_name_H-M "C C C A"
_symmetry_group_IT_number 68
_space_group.IT_coordinate_system_code '2'
_symmetry_cell_setting 'orthorhombic'
loop_
_space_group_symop_operation_xyz
x,y,z
-x,1/2-y,z
x,1/2-y,1/2-z
-x,y,1/2-z
-x,-y,-z
x,1/2+y,-z
-x,1/2+y,1/2+z
x,-y,1/2+z
1/2+x,1/2+y,z
1/2-x,-y,z
1/2+x,-y,1/2-z
1/2-x,1/2+y,1/2-z
1/2-x,1/2-y,-z
1/2+x,y,-z
1/2-x,y,1/2+z
1/2+x,1/2-y,1/2+z
loop_
_atom_site_type_symbol
_atom_site_label
_atom_site_fract_x
_atom_site_fract_y
_atom_site_fract_z
Si Si1 0.569308 0.332972 0.848859
Si Si2 0.343739 0.163782 0.157980
Si Si3 0.000000 0.496367 0.750000
Si Si4 0.180369 0.799974 0.905286
Si Si5 0.545099 0.177199 0.400102
Si Si6 0.202128 0.563989 0.796912
O O1 0.557140 0.250000 0.750000
O O2 0.543768 0.443386 0.811128
O O3 0.626382 0.330858 0.865139
O O4 0.548673 0.305424 0.968870
O O5 0.324297 0.250000 0.250000
O O6 0.400255 0.193131 0.141437
O O7 0.336886 0.035704 0.195265
O O8 0.318439 0.181302 0.037537
O O9 0.972165 0.438401 0.648294
O O10 0.190103 0.671955 0.871930
O O11 0.210244 0.883183 0.826264
O O12 0.500000 0.250000 0.362000
O O13 0.250000 0.500000 0.832970
#
# Coordination Sequence:
#
# PCOD9509826 Si02
#       6
#    16  16   8  16  16  16
#     4  11  22  42  65  94 136 180 232 279 350 409
#     4  11  26  45  73 105 144 193 243 293 365 430
#     4  12  22  36  64  98 134 184 246 278 342 406
#     4  10  25  48  71 105 148 179 231 306 355 427
#     4  11  24  42  62  98 143 186 233 295 340 418
#     4  11  25  47  76 103 136 185 234 299 371 429
#
# _framework density 21.798805000000002
#
# number of rings (size 3 to 8) (size 9 to 14) (size 15 to 20)
#    0.000    1.091    1.818    4.364    5.091    1.455 
#    6.545    0.000    0.000    0.000    0.000    0.000 
#    0.000    0.000    0.000    0.000    0.000    0.000 
#
# Total GULP energy -245401.974374 kJ/mol
# GULP energy per Si atom -5577.317599 kJ/mol
# Density = 2.174919 g / cm^3
# Si number density = 21.798805 Si / 1000 Ang^3
#
#
#
# Elastic Constant Matrix: (Units=GPa)
#
#
# Indices 1 2 3 4 5 6 
#
# 1 82.5307 17.4771 13.1747 0.0000 0.0000 0.0000
# 2 17.4771 99.2819 63.7679 0.0000 0.0000 0.0000
# 3 13.1747 63.7679 167.3650 0.0000 0.0000 0.0000
# 4 0.0000 0.0000 0.0000 33.5857 0.0000 0.0000
# 5 0.0000 0.0000 0.0000 0.0000 27.4675 0.0000
# 6 0.0000 0.0000 0.0000 0.0000 0.0000 37.2342
#
#
#
# Elastic Compliance Matrix: (Units=1/GPa)
#
#
# Indices 1 2 3 4 5 6 
#
# 1 0.012591 -0.002092 -0.000194 0.000000 0.000000 0.000000
# 2 -0.002092 0.013683 -0.005049 0.000000 0.000000 0.000000
# 3 -0.000194 -0.005049 0.007914 0.000000 0.000000 0.000000
# 4 0.000000 0.000000 0.000000 0.029775 0.000000 0.000000
# 5 0.000000 0.000000 0.000000 0.000000 0.036407 0.000000
# 6 0.000000 0.000000 0.000000 0.000000 0.000000 0.026857
#
#
# Mechanical properties :
#
#
# Convention : Reuss Voigt Hill
#
# Bulk Modulus (GPa) = 51.23339 59.77967 55.50653
# Shear Modulus (GPa) = 33.69231 36.64134 35.16682
#
# Velocity S-wave (km/s) = 3.93568 4.10431 4.02088
# Velocity P-wave (km/s) = 6.64881 7.06706 6.86112
#
# Compressibility (1/GPa) = 0.01951852
#
# Stress axis : x y z
#
# Youngs Moduli (GPa) = 79.42410 73.08142 126.35964
#
# Poissons Ratio (x) = 0.15286 0.02453
# Poissons Ratio (y) = 0.16613 0.63797
# Poissons Ratio (z) = 0.01542 0.36898
#
# Static dielectric constant tensor:
#      x y z
#    x 1.843350 0.000000 0.000000 
#    y 0.000000 1.852450 0.000000 
#    z 0.000000 0.000000 1.779390 
# 
# From -- ./inp_files/17621.got.cif
#   From: 2010.05.17/outbox.cif.g08.bks.cpg/sg68_9_cif.got.tgz:17621.got - 2010.06.03 18:57:09.
