data_PCOD9509283
_publ_section_title
;
Structure prediction by ZEFSAII (Michael W. Deem and Ramdas Pophale) SiO2 
 PCOD9509283
Probable space group: C C C A
;
_chemical_formula_sum "Si O2"
_cell_formula_units_Z 112
_cell_length_a 18.479962
_cell_length_b 13.536451
_cell_length_c 22.167543
_cell_angle_alpha 90.000000
_cell_angle_beta 90.000000
_cell_angle_gamma 90.000000
_cell_volume 5545.279603
_symmetry_space_group_name_H-M "C C C A"
_symmetry_group_IT_number 68
_space_group.IT_coordinate_system_code '2'
_symmetry_cell_setting 'orthorhombic'
loop_
_space_group_symop_operation_xyz
x,y,z
-x,1/2-y,z
x,1/2-y,1/2-z
-x,y,1/2-z
-x,-y,-z
x,1/2+y,-z
-x,1/2+y,1/2+z
x,-y,1/2+z
1/2+x,1/2+y,z
1/2-x,-y,z
1/2+x,-y,1/2-z
1/2-x,1/2+y,1/2-z
1/2-x,1/2-y,-z
1/2+x,y,-z
1/2-x,y,1/2+z
1/2+x,1/2-y,1/2+z
loop_
_atom_site_type_symbol
_atom_site_label
_atom_site_fract_x
_atom_site_fract_y
_atom_site_fract_z
Si Si1 0.810968 0.265519 0.450149
Si Si2 0.065443 0.875717 0.017459
Si Si3 0.217148 0.597058 0.776384
Si Si4 0.073241 0.198676 0.653121
Si Si5 0.937445 0.476618 0.200078
Si Si6 0.071550 0.904125 0.565359
Si Si7 0.773351 0.702372 0.333565
O O1 0.750000 0.250000 0.500000
O O2 0.870758 0.337849 0.476027
O O3 0.857582 0.165889 0.435214
O O4 0.766881 0.314049 0.395767
O O5 0.065348 0.819446 0.081332
O O6 0.082804 0.988148 0.036336
O O7 0.992049 0.864188 0.978477
O O8 0.250000 0.500000 0.807490
O O9 0.132489 0.577439 0.772512
O O10 0.256877 0.615389 0.712915
O O11 0.234932 0.697077 0.810770
O O12 0.142475 0.268492 0.663340
O O13 0.000000 0.250000 0.675019
O O14 0.080787 0.091323 0.684330
O O15 0.952752 0.424262 0.134957
O O16 0.000000 0.472862 0.250000
#
# Coordination Sequence:
#
# PCOD9509283 Si02
#       7
#    16  16  16  16  16  16  16
#     4  12  23  41  68  99 130 171 224 266 334 406
#     4  10  23  43  66  97 132 173 214 278 333 391
#     4  11  24  47  66  92 137 174 224 279 333 390
#     4  11  23  42  69  98 131 169 224 280 334 392
#     4  11  25  42  68  99 129 178 225 268 336 409
#     4  10  23  45  68  93 135 175 217 274 336 395
#     4  11  25  43  68  99 131 179 221 280 335 392
#
# _framework density 20.197358999999999
#
# number of rings (size 3 to 8) (size 9 to 14) (size 15 to 20)
#    0.000    1.143    4.286    1.286    4.000    0.857 
#    2.571    1.429    0.000    0.000    0.000    0.000 
#    0.000    0.000    0.000    0.000    0.000    0.000 
#
# Total GULP energy -312684.168730 kJ/mol
# GULP energy per Si atom -5583.645870 kJ/mol
# Density = 2.015139 g / cm^3
# Si number density = 20.197359 Si / 1000 Ang^3
#
#
#
# Elastic Constant Matrix: (Units=GPa)
#
#
# Indices 1 2 3 4 5 6 
#
# 1 142.1153 32.2584 36.0851 0.0000 0.0000 0.0000
# 2 32.2584 62.0259 20.5009 0.0000 0.0000 0.0000
# 3 36.0851 20.5009 98.0101 0.0000 0.0000 0.0000
# 4 0.0000 0.0000 0.0000 22.3650 0.0000 0.0000
# 5 0.0000 0.0000 0.0000 0.0000 39.2289 0.0000
# 6 0.0000 0.0000 0.0000 0.0000 0.0000 28.2172
#
#
#
# Elastic Compliance Matrix: (Units=1/GPa)
#
#
# Indices 1 2 3 4 5 6 
#
# 1 0.008456 -0.003619 -0.002356 0.000000 0.000000 0.000000
# 2 -0.003619 0.018869 -0.002614 0.000000 0.000000 0.000000
# 3 -0.002356 -0.002614 0.011617 0.000000 0.000000 0.000000
# 4 0.000000 0.000000 0.000000 0.044713 0.000000 0.000000
# 5 0.000000 0.000000 0.000000 0.000000 0.025491 0.000000
# 6 0.000000 0.000000 0.000000 0.000000 0.000000 0.035439
#
#
# Mechanical properties :
#
#
# Convention : Reuss Voigt Hill
#
# Bulk Modulus (GPa) = 45.95009 53.31555 49.63282
# Shear Modulus (GPa) = 29.58234 32.18271 30.88253
#
# Velocity S-wave (km/s) = 3.83124 3.99609 3.91453
# Velocity P-wave (km/s) = 6.50932 6.90986 6.71258
#
# Compressibility (1/GPa) = 0.02176274
#
# Stress axis : x y z
#
# Youngs Moduli (GPa) = 118.25411 52.99809 86.07744
#
# Poissons Ratio (x) = 0.19181 0.20283
# Poissons Ratio (y) = 0.42798 0.22503
# Poissons Ratio (z) = 0.27866 0.13855
#
# Static dielectric constant tensor:
#      x y z
#    x 1.408780 0.000000 0.000000 
#    y 0.000000 1.739210 0.000000 
#    z 0.000000 0.000000 2.174900 
# 
# From -- ./inp_files/45516.got.cif
#   From: 2010.05.17/outbox.cif.g08.bks.cpg/sg68_23_cif.got.tgz:45516.got - 2010.06.03 18:57:09.
