data_PCOD9509551
_publ_section_title
;
Structure prediction by ZEFSAII (Michael W. Deem and Ramdas Pophale) SiO2 
 PCOD9509551
Probable space group: C C C A
;
_chemical_formula_sum "Si O2"
_cell_formula_units_Z 68
_cell_length_a 18.569684
_cell_length_b 9.264131
_cell_length_c 15.873157
_cell_angle_alpha 90.000000
_cell_angle_beta 90.000000
_cell_angle_gamma 90.000000
_cell_volume 2730.690710
_symmetry_space_group_name_H-M "C C C A"
_symmetry_group_IT_number 68
_space_group.IT_coordinate_system_code '2'
_symmetry_cell_setting 'orthorhombic'
loop_
_space_group_symop_operation_xyz
x,y,z
-x,1/2-y,z
x,1/2-y,1/2-z
-x,y,1/2-z
-x,-y,-z
x,1/2+y,-z
-x,1/2+y,1/2+z
x,-y,1/2+z
1/2+x,1/2+y,z
1/2-x,-y,z
1/2+x,-y,1/2-z
1/2-x,1/2+y,1/2-z
1/2-x,1/2-y,-z
1/2+x,y,-z
1/2-x,y,1/2+z
1/2+x,1/2-y,1/2+z
loop_
_atom_site_type_symbol
_atom_site_label
_atom_site_fract_x
_atom_site_fract_y
_atom_site_fract_z
Si Si1 0.000000 0.750000 0.750000
Si Si2 0.287635 0.859269 0.824692
Si Si3 0.000000 0.250000 0.499592
Si Si4 0.401106 0.000063 0.077606
Si Si5 0.250000 0.000000 0.482803
Si Si6 0.924244 0.477601 0.769552
O O1 0.948743 0.637558 0.799219
O O2 0.389556 0.997271 0.677991
O O3 0.255098 0.638605 0.581763
O O4 0.372440 0.894168 0.831274
O O5 0.250000 0.000000 0.788345
O O6 0.054125 0.357290 0.449020
O O7 0.050034 0.137537 0.551321
O O8 0.323398 0.006521 0.034093
O O9 0.776999 0.250000 0.750000
O O10 0.000000 0.404449 0.750000
#
# Coordination Sequence:
#
# PCOD9509551 Si02
#       6
#     4  16   8  16   8  16
#     4   8  22  44  70 112 138 188 238 292 362 448
#     4  10  26  44  69 100 145 190 243 300 374 442
#     4  10  27  44  74 102 147 184 250 294 373 426
#     4  11  25  46  74 107 148 191 244 305 373 444
#     4  10  28  46  74 106 154 192 242 306 388 442
#     4  10  24  42  78 103 140 188 249 295 368 438
#
# _framework density 24.902125999999999
#
# number of rings (size 3 to 8) (size 9 to 14) (size 15 to 20)
#    1.412    0.471    0.000    0.706   13.176    3.294 
#    0.000    0.000    0.000    0.000    0.000    0.000 
#    0.000    0.000    0.000    0.000    0.000    0.000 
#
# Total GULP energy -189856.705474 kJ/mol
# GULP energy per Si atom -5584.020749 kJ/mol
# Density = 2.484545 g / cm^3
# Si number density = 24.902126 Si / 1000 Ang^3
#
#
#
# Elastic Constant Matrix: (Units=GPa)
#
#
# Indices 1 2 3 4 5 6 
#
# 1 167.9335 40.7978 82.2987 0.0000 0.0000 0.0000
# 2 40.7978 137.4575 41.4295 0.0000 0.0000 0.0000
# 3 82.2987 41.4295 132.1615 0.0000 0.0000 0.0000
# 4 0.0000 0.0000 0.0000 269.6801 0.0000 0.0000
# 5 0.0000 0.0000 0.0000 0.0000 15.6468 0.0000
# 6 0.0000 0.0000 0.0000 0.0000 0.0000 21.5176
#
#
#
# Elastic Compliance Matrix: (Units=1/GPa)
#
#
# Indices 1 2 3 4 5 6 
#
# 1 0.008705 -0.001049 -0.005092 0.000000 0.000000 0.000000
# 2 -0.001049 0.008160 -0.001905 0.000000 0.000000 0.000000
# 3 -0.005092 -0.001905 0.011334 0.000000 0.000000 0.000000
# 4 0.000000 0.000000 0.000000 0.003708 0.000000 0.000000
# 5 0.000000 0.000000 0.000000 0.000000 0.063911 0.000000
# 6 0.000000 0.000000 0.000000 0.000000 0.000000 0.046474
#
#
# Mechanical properties :
#
#
# Convention : Reuss Voigt Hill
#
# Bulk Modulus (GPa) = 82.58769 85.17828 83.88299
# Shear Modulus (GPa) = 30.78444 79.57067 55.17756
#
# Velocity S-wave (km/s) = 3.51980 5.65886 4.71231
# Velocity P-wave (km/s) = 7.05376 8.77362 7.96028
#
# Compressibility (1/GPa) = 0.01210834
#
# Stress axis : x y z
#
# Youngs Moduli (GPa) = 114.87761 122.54230 88.22701
#
# Poissons Ratio (x) = 0.12854 0.44924
# Poissons Ratio (y) = 0.12050 0.16806
# Poissons Ratio (z) = 0.58494 0.23343
#
# Static dielectric constant tensor:
#      x y z
#    x 1.986890 0.000000 0.000000 
#    y 0.000000 2.057750 0.000000 
#    z 0.000000 0.000000 1.958130 
# 
# From -- ./inp_files/39229.got.cif
#   From: 2010.05.17/outbox.cif.g08.bks.cpg/sg68_20_cif.got.tgz:39229.got - 2010.06.03 18:57:09.
