data_PCOD9509707
_publ_section_title
;
Structure prediction by ZEFSAII (Michael W. Deem and Ramdas Pophale) SiO2 
 PCOD9509707
Probable space group: C C C A
;
_chemical_formula_sum "Si O2"
_cell_formula_units_Z 116
_cell_length_a 9.369840
_cell_length_b 26.599172
_cell_length_c 23.394952
_cell_angle_alpha 90.000000
_cell_angle_beta 90.000000
_cell_angle_gamma 90.000000
_cell_volume 5830.723554
_symmetry_space_group_name_H-M "C C C A"
_symmetry_group_IT_number 68
_space_group.IT_coordinate_system_code '2'
_symmetry_cell_setting 'orthorhombic'
loop_
_space_group_symop_operation_xyz
x,y,z
-x,1/2-y,z
x,1/2-y,1/2-z
-x,y,1/2-z
-x,-y,-z
x,1/2+y,-z
-x,1/2+y,1/2+z
x,-y,1/2+z
1/2+x,1/2+y,z
1/2-x,-y,z
1/2+x,-y,1/2-z
1/2-x,1/2+y,1/2-z
1/2-x,1/2-y,-z
1/2+x,y,-z
1/2-x,y,1/2+z
1/2+x,1/2-y,1/2+z
loop_
_atom_site_type_symbol
_atom_site_label
_atom_site_fract_x
_atom_site_fract_y
_atom_site_fract_z
Si Si1 0.809369 0.299692 0.471038
Si Si2 0.000000 0.750000 0.750000
Si Si3 0.458396 0.130501 0.487288
Si Si4 0.549101 0.409123 0.613551
Si Si5 0.148948 0.681269 0.656069
Si Si6 0.111636 0.396744 0.875191
Si Si7 0.921911 0.996061 0.309960
Si Si8 0.472994 0.807049 0.817334
O O1 0.750000 0.250000 0.500000
O O2 0.698012 0.346759 0.474786
O O3 0.947774 0.319500 0.503457
O O4 0.848684 0.290601 0.405021
O O5 0.908628 0.785116 0.707874
O O6 0.473332 0.098715 0.545694
O O7 0.527423 0.100828 0.434839
O O8 0.450871 0.367478 0.645429
O O9 0.718692 0.400847 0.619605
O O10 0.525986 0.462995 0.643363
O O11 0.315206 0.672303 0.669373
O O12 0.053719 0.440311 0.834048
O O13 0.081627 0.342730 0.849041
O O14 0.000000 0.004486 0.250000
O O15 0.750000 0.000000 0.302830
O O16 0.500000 0.750000 0.836694
O O17 0.500000 0.808658 0.750000
#
# Coordination Sequence:
#
# PCOD9509707 Si02
#       8
#    16   4  16  16  16  16  16  16
#     4  11  24  40  64  95 133 178 226 277 333 408
#     4  12  28  40  62  96 140 188 230 270 338 420
#     4  11  22  41  64  95 133 170 219 274 342 395
#     4  10  25  44  68  95 135 172 222 285 340 404
#     4  11  27  43  63  97 136 180 230 273 343 406
#     4  11  23  43  69  94 133 170 221 279 336 403
#     4  10  24  47  70  99 127 174 225 278 345 404
#     4  11  25  41  63  94 132 172 222 270 331 398
#
# _framework density 19.894615000000002
#
# number of rings (size 3 to 8) (size 9 to 14) (size 15 to 20)
#    0.000    1.241    2.759    1.655   10.621    2.759 
#    0.000    0.000    0.000    0.000    0.000    0.000 
#    0.000    0.000    0.000    0.000    0.000    0.000 
#
# Total GULP energy -324007.082880 kJ/mol
# GULP energy per Si atom -5586.329015 kJ/mol
# Density = 1.984933 g / cm^3
# Si number density = 19.894615 Si / 1000 Ang^3
#
#
#
# Elastic Constant Matrix: (Units=GPa)
#
#
# Indices 1 2 3 4 5 6 
#
# 1 49.2133 12.9570 1.3198 0.0000 0.0000 0.0000
# 2 12.9570 100.0502 57.0021 0.0000 0.0000 0.0000
# 3 1.3198 57.0021 103.8357 0.0000 0.0000 0.0000
# 4 0.0000 0.0000 0.0000 27.6780 0.0000 0.0000
# 5 0.0000 0.0000 0.0000 0.0000 36.0487 0.0000
# 6 0.0000 0.0000 0.0000 0.0000 0.0000 26.0406
#
#
#
# Elastic Compliance Matrix: (Units=1/GPa)
#
#
# Indices 1 2 3 4 5 6 
#
# 1 0.021267 -0.003784 0.001807 0.000000 0.000000 0.000000
# 2 -0.003784 0.015217 -0.008305 0.000000 0.000000 0.000000
# 3 0.001807 -0.008305 0.014167 0.000000 0.000000 0.000000
# 4 0.000000 0.000000 0.000000 0.036130 0.000000 0.000000
# 5 0.000000 0.000000 0.000000 0.000000 0.027740 0.000000
# 6 0.000000 0.000000 0.000000 0.000000 0.000000 0.038402
#
#
# Mechanical properties :
#
#
# Convention : Reuss Voigt Hill
#
# Bulk Modulus (GPa) = 33.23725 43.96189 38.59957
# Shear Modulus (GPa) = 27.24552 30.07481 28.66017
#
# Velocity S-wave (km/s) = 3.70468 3.89228 3.79964
# Velocity P-wave (km/s) = 5.91967 6.50732 6.22044
#
# Compressibility (1/GPa) = 0.03008672
#
# Stress axis : x y z
#
# Youngs Moduli (GPa) = 47.02031 65.71647 70.58640
#
# Poissons Ratio (x) = 0.24864 -0.12753
# Poissons Ratio (y) = 0.17791 0.58625
# Poissons Ratio (z) = -0.08495 0.54580
#
# Static dielectric constant tensor:
#      x y z
#    x 1.686260 0.000000 0.000000 
#    y 0.000000 1.685720 0.000000 
#    z 0.000000 0.000000 1.703600 
# 
# From -- ./inp_files/43515.got.cif
#   From: 2010.05.17/outbox.cif.g08.bks.cpg/sg68_22_cif.got.tgz:43515.got - 2010.06.03 18:57:09.
