data_PCOD9509223
_publ_section_title
;
Structure prediction by ZEFSAII (Michael W. Deem and Ramdas Pophale) SiO2 
 PCOD9509223
Probable space group: C C C A
;
_chemical_formula_sum "Si O2"
_cell_formula_units_Z 80
_cell_length_a 22.455390
_cell_length_b 15.249469
_cell_length_c 11.107494
_cell_angle_alpha 90.000000
_cell_angle_beta 90.000000
_cell_angle_gamma 90.000000
_cell_volume 3803.569979
_symmetry_space_group_name_H-M "C C C A"
_symmetry_group_IT_number 68
_space_group.IT_coordinate_system_code '2'
_symmetry_cell_setting 'orthorhombic'
loop_
_space_group_symop_operation_xyz
x,y,z
-x,1/2-y,z
x,1/2-y,1/2-z
-x,y,1/2-z
-x,-y,-z
x,1/2+y,-z
-x,1/2+y,1/2+z
x,-y,1/2+z
1/2+x,1/2+y,z
1/2-x,-y,z
1/2+x,-y,1/2-z
1/2-x,1/2+y,1/2-z
1/2-x,1/2-y,-z
1/2+x,y,-z
1/2-x,y,1/2+z
1/2+x,1/2-y,1/2+z
loop_
_atom_site_type_symbol
_atom_site_label
_atom_site_fract_x
_atom_site_fract_y
_atom_site_fract_z
Si Si1 0.276476 0.129285 0.172481
Si Si2 0.318855 0.194731 0.416823
Si Si3 0.938763 0.284407 0.612917
Si Si4 0.037060 0.988788 0.125142
Si Si5 0.168347 0.549316 0.885896
O O1 0.318064 0.148654 0.286390
O O2 0.274724 0.222592 0.105015
O O3 0.211627 0.093769 0.214504
O O4 0.307400 0.049716 0.100959
O O5 0.380795 0.243167 0.446877
O O6 0.313280 0.113307 0.505780
O O7 0.937705 0.250000 0.750000
O O8 0.941621 0.388226 0.619616
O O9 0.000000 0.250000 0.555718
O O10 0.000000 0.001222 0.250000
O O11 0.097630 0.046119 0.129131
O O12 0.000000 0.000000 0.000000
#
# Coordination Sequence:
#
# PCOD9509223 Si02
#       5
#    16  16  16  16  16
#     4  10  23  42  65 101 135 184 237 279 357 425
#     4  11  21  43  69  95 136 187 237 287 344 444
#     4  11  19  37  71  98 125 184 251 280 325 434
#     4  12  26  45  71 108 143 187 242 303 360 421
#     4  11  24  40  67 105 139 173 236 302 353 405
#
# _framework density 21.032872000000001
#
# number of rings (size 3 to 8) (size 9 to 14) (size 15 to 20)
#    0.000    1.000    6.000    1.800    2.800    3.200 
#    0.000    2.000    0.000    4.200    0.000    0.000 
#    0.000    0.000    0.000    0.000    0.000    0.000 
#
# Total GULP energy -222824.500662 kJ/mol
# GULP energy per Si atom -5570.612517 kJ/mol
# Density = 2.098500 g / cm^3
# Si number density = 21.032872 Si / 1000 Ang^3
#
#
#
# Elastic Constant Matrix: (Units=GPa)
#
#
# Indices 1 2 3 4 5 6 
#
# 1 142.3587 41.0157 27.6807 0.0000 0.0000 0.0000
# 2 41.0157 153.2359 49.4507 0.0000 0.0000 0.0000
# 3 27.6807 49.4507 75.3026 0.0000 0.0000 0.0000
# 4 0.0000 0.0000 0.0000 30.3551 0.0000 0.0000
# 5 0.0000 0.0000 0.0000 0.0000 12.2323 0.0000
# 6 0.0000 0.0000 0.0000 0.0000 0.0000 49.7805
#
#
#
# Elastic Compliance Matrix: (Units=1/GPa)
#
#
# Indices 1 2 3 4 5 6 
#
# 1 0.007821 -0.001479 -0.001904 0.000000 0.000000 0.000000
# 2 -0.001479 0.008560 -0.005078 0.000000 0.000000 0.000000
# 3 -0.001904 -0.005078 0.017314 0.000000 0.000000 0.000000
# 4 0.000000 0.000000 0.000000 0.032943 0.000000 0.000000
# 5 0.000000 0.000000 0.000000 0.000000 0.081751 0.000000
# 6 0.000000 0.000000 0.000000 0.000000 0.000000 0.020088
#
#
# Mechanical properties :
#
#
# Convention : Reuss Voigt Hill
#
# Bulk Modulus (GPa) = 59.61503 67.46574 63.54038
# Shear Modulus (GPa) = 26.17937 35.32359 30.75148
#
# Velocity S-wave (km/s) = 3.53184 4.10255 3.82785
# Velocity P-wave (km/s) = 6.71097 7.38832 7.05777
#
# Compressibility (1/GPa) = 0.01677429
#
# Stress axis : x y z
#
# Youngs Moduli (GPa) = 127.86449 116.81612 57.75626
#
# Poissons Ratio (x) = 0.17277 0.10994
# Poissons Ratio (y) = 0.18912 0.29328
# Poissons Ratio (z) = 0.24340 0.59318
#
# Static dielectric constant tensor:
#      x y z
#    x 1.953910 0.000000 0.000000 
#    y 0.000000 1.735550 0.000000 
#    z 0.000000 0.000000 1.791360 
# 
# From -- ./inp_files/16219.got.cif
#   From: 2010.05.17/outbox.cif.g08.bks.cpg/sg68_9_cif.got.tgz:16219.got - 2010.06.03 18:57:09.
