data_PCOD9509593
_publ_section_title
;
Structure prediction by ZEFSAII (Michael W. Deem and Ramdas Pophale) SiO2 
 PCOD9509593
Probable space group: C C C A
;
_chemical_formula_sum "Si O2"
_cell_formula_units_Z 52
_cell_length_a 7.473442
_cell_length_b 17.898502
_cell_length_c 14.392874
_cell_angle_alpha 90.000000
_cell_angle_beta 90.000000
_cell_angle_gamma 90.000000
_cell_volume 1925.240001
_symmetry_space_group_name_H-M "C C C A"
_symmetry_group_IT_number 68
_space_group.IT_coordinate_system_code '2'
_symmetry_cell_setting 'orthorhombic'
loop_
_space_group_symop_operation_xyz
x,y,z
-x,1/2-y,z
x,1/2-y,1/2-z
-x,y,1/2-z
-x,-y,-z
x,1/2+y,-z
-x,1/2+y,1/2+z
x,-y,1/2+z
1/2+x,1/2+y,z
1/2-x,-y,z
1/2+x,-y,1/2-z
1/2-x,1/2+y,1/2-z
1/2-x,1/2-y,-z
1/2+x,y,-z
1/2-x,y,1/2+z
1/2+x,1/2-y,1/2+z
loop_
_atom_site_type_symbol
_atom_site_label
_atom_site_fract_x
_atom_site_fract_y
_atom_site_fract_z
Si Si1 0.981754 0.839401 0.016349
Si Si2 0.182533 0.418952 0.118183
Si Si3 0.000000 0.750000 0.750000
Si Si4 0.190321 0.353506 0.801565
O O1 0.118238 0.869284 0.096353
O O2 0.000000 0.750000 0.002928
O O3 0.795994 0.852980 0.069996
O O4 0.997287 0.896771 0.929567
O O5 0.250000 0.500000 0.090578
O O6 0.219189 0.410900 0.228110
O O7 0.852397 0.794441 0.808897
O O8 0.000000 0.331870 0.750000
#
# Coordination Sequence:
#
# PCOD9509593 Si02
#       4
#    16  16   4  16
#     4  11  24  46  74 103 145 189 244 304 359 429
#     4  11  25  45  71 107 147 189 238 297 378 434
#     4  12  22  40  76 102 128 186 260 280 364 434
#     4  10  24  44  68 102 149 183 238 304 360 426
#
# _framework density 27.009619000000001
#
# number of rings (size 3 to 8) (size 9 to 14) (size 15 to 20)
#    0.000    1.231    0.000    6.000    6.462    2.462 
#    8.308    0.000    0.000    0.000    0.000    0.000 
#    0.000    0.000    0.000    0.000    0.000    0.000 
#
# Total GULP energy -144994.519073 kJ/mol
# GULP energy per Si atom -5576.712272 kJ/mol
# Density = 2.694814 g / cm^3
# Si number density = 27.009619 Si / 1000 Ang^3
#
#
#
# Elastic Constant Matrix: (Units=GPa)
#
#
# Indices 1 2 3 4 5 6 
#
# 1 127.0263 -8.6826 4.5545 0.0000 0.0000 0.0000
# 2 -8.6826 132.7250 34.7854 0.0000 0.0000 0.0000
# 3 4.5545 34.7854 161.4760 0.0000 0.0000 0.0000
# 4 0.0000 0.0000 0.0000 9.0514 0.0000 0.0000
# 5 0.0000 0.0000 0.0000 0.0000 52.8281 0.0000
# 6 0.0000 0.0000 0.0000 0.0000 0.0000 29.0187
#
#
#
# Elastic Compliance Matrix: (Units=1/GPa)
#
#
# Indices 1 2 3 4 5 6 
#
# 1 0.007927 0.000612 -0.000355 0.000000 0.000000 0.000000
# 2 0.000612 0.008032 -0.001748 0.000000 0.000000 0.000000
# 3 -0.000355 -0.001748 0.006579 0.000000 0.000000 0.000000
# 4 0.000000 0.000000 0.000000 0.110480 0.000000 0.000000
# 5 0.000000 0.000000 0.000000 0.000000 0.018929 0.000000
# 6 0.000000 0.000000 0.000000 0.000000 0.000000 0.034461
#
#
# Mechanical properties :
#
#
# Convention : Reuss Voigt Hill
#
# Bulk Modulus (GPa) = 51.13471 53.61577 52.37524
# Shear Modulus (GPa) = 25.52199 44.21764 34.86981
#
# Velocity S-wave (km/s) = 3.07729 4.05051 3.59697
# Velocity P-wave (km/s) = 5.62134 6.46291 6.05676
#
# Compressibility (1/GPa) = 0.01955619
#
# Stress axis : x y z
#
# Youngs Moduli (GPa) = 126.15215 124.49552 151.99030
#
# Poissons Ratio (x) = -0.07615 0.05401
# Poissons Ratio (y) = -0.07717 0.26562
# Poissons Ratio (z) = 0.04483 0.21757
#
# Static dielectric constant tensor:
#      x y z
#    x 2.435330 0.000000 0.000000 
#    y 0.000000 2.128740 0.000000 
#    z 0.000000 0.000000 2.246450 
# 
# From -- ./inp_files/27607.got.cif
#   From: 2010.05.17/outbox.cif.g08.bks.cpg/sg68_14_cif.got.tgz:27607.got - 2010.06.03 18:57:09.
