data_PCOD9509463
_publ_section_title
;
Structure prediction by ZEFSAII (Michael W. Deem and Ramdas Pophale) SiO2 
 PCOD9509463
Probable space group: C C C A
;
_chemical_formula_sum "Si O2"
_cell_formula_units_Z 104
_cell_length_a 15.547989
_cell_length_b 24.443204
_cell_length_c 10.966259
_cell_angle_alpha 90.000000
_cell_angle_beta 90.000000
_cell_angle_gamma 90.000000
_cell_volume 4167.646316
_symmetry_space_group_name_H-M "C C C A"
_symmetry_group_IT_number 68
_space_group.IT_coordinate_system_code '2'
_symmetry_cell_setting 'orthorhombic'
loop_
_space_group_symop_operation_xyz
x,y,z
-x,1/2-y,z
x,1/2-y,1/2-z
-x,y,1/2-z
-x,-y,-z
x,1/2+y,-z
-x,1/2+y,1/2+z
x,-y,1/2+z
1/2+x,1/2+y,z
1/2-x,-y,z
1/2+x,-y,1/2-z
1/2-x,1/2+y,1/2-z
1/2-x,1/2-y,-z
1/2+x,y,-z
1/2-x,y,1/2+z
1/2+x,1/2-y,1/2+z
loop_
_atom_site_type_symbol
_atom_site_label
_atom_site_fract_x
_atom_site_fract_y
_atom_site_fract_z
Si Si1 0.093246 0.570729 0.707203
Si Si2 0.620874 0.084315 0.153043
Si Si3 0.750000 0.500000 0.328458
Si Si4 0.574222 0.909378 0.918655
Si Si5 0.113139 0.190103 0.303624
Si Si6 0.307762 0.294751 0.140066
Si Si7 0.425828 0.785611 0.546772
O O1 0.178731 0.537352 0.739527
O O2 0.097027 0.575547 0.557913
O O3 0.099281 0.632466 0.761198
O O4 0.000000 0.548617 0.750000
O O5 0.526312 0.076905 0.098711
O O6 0.620025 0.068360 0.297283
O O7 0.641921 0.148286 0.139952
O O8 0.692031 0.044015 0.097547
O O9 0.590834 0.844215 0.896706
O O10 0.109978 0.250000 0.250000
O O11 0.209805 0.185944 0.356600
O O12 0.045168 0.194679 0.413262
O O13 0.319605 0.250000 0.250000
O O14 0.347220 0.256916 0.034263
O O15 0.500000 0.750000 0.607495
#
# Coordination Sequence:
#
# PCOD9509463 Si02
#       7
#    16  16   8  16  16  16  16
#     4  11  27  50  72 105 142 185 245 289 356 424
#     4  11  23  45  70 102 137 182 240 285 360 409
#     4  12  28  52  72 102 138 190 240 306 356 414
#     4  10  24  44  72 102 138 183 231 295 348 428
#     4  10  24  40  63  96 140 185 219 275 344 421
#     4  11  20  38  62  99 138 171 221 281 342 416
#     4  11  21  34  63 100 135 176 214 268 352 416
#
# _framework density 24.954134
#
# number of rings (size 3 to 8) (size 9 to 14) (size 15 to 20)
#    0.000    1.231    4.615    0.462    6.462    1.538 
#    2.769    0.000    0.000    0.000    0.000    0.000 
#    0.000    0.000    0.000    0.000    0.000    0.000 
#
# Total GULP energy -289977.570910 kJ/mol
# GULP energy per Si atom -5576.491748 kJ/mol
# Density = 2.489734 g / cm^3
# Si number density = 24.954134 Si / 1000 Ang^3
#
#
#
# Elastic Constant Matrix: (Units=GPa)
#
#
# Indices 1 2 3 4 5 6 
#
# 1 137.8077 53.3202 0.7888 0.0000 0.0000 0.0000
# 2 53.3202 164.7900 14.2789 0.0000 0.0000 0.0000
# 3 0.7888 14.2789 47.9437 0.0000 0.0000 0.0000
# 4 0.0000 0.0000 0.0000 13.1675 0.0000 0.0000
# 5 0.0000 0.0000 0.0000 0.0000 10.4609 0.0000
# 6 0.0000 0.0000 0.0000 0.0000 0.0000 48.4311
#
#
#
# Elastic Compliance Matrix: (Units=1/GPa)
#
#
# Indices 1 2 3 4 5 6 
#
# 1 0.008317 -0.002750 0.000682 0.000000 0.000000 0.000000
# 2 -0.002750 0.007138 -0.002081 0.000000 0.000000 0.000000
# 3 0.000682 -0.002081 0.021466 0.000000 0.000000 0.000000
# 4 0.000000 0.000000 0.000000 0.075944 0.000000 0.000000
# 5 0.000000 0.000000 0.000000 0.000000 0.095594 0.000000
# 6 0.000000 0.000000 0.000000 0.000000 0.000000 0.020648
#
#
# Mechanical properties :
#
#
# Convention : Reuss Voigt Hill
#
# Bulk Modulus (GPa) = 34.93560 54.14637 44.54098
# Shear Modulus (GPa) = 20.24729 33.22213 26.73471
#
# Velocity S-wave (km/s) = 2.85156 3.65269 3.27671
# Velocity P-wave (km/s) = 4.98720 6.28769 5.67482
#
# Compressibility (1/GPa) = 0.02862410
#
# Stress axis : x y z
#
# Youngs Moduli (GPa) = 120.24088 140.08634 46.58466
#
# Poissons Ratio (x) = 0.38525 -0.03178
# Poissons Ratio (y) = 0.33067 0.09693
# Poissons Ratio (z) = -0.08203 0.29149
#
# Static dielectric constant tensor:
#      x y z
#    x 2.007980 0.000000 0.000000 
#    y 0.000000 1.984400 0.000000 
#    z 0.000000 0.000000 2.069430 
# 
# From -- ./inp_files/14779.got.cif
#   From: 2010.05.17/outbox.cif.g08.bks.cpg/sg68_8_cif.got.tgz:14779.got - 2010.06.03 18:57:09.
