data_PCOD9509174
_publ_section_title
;
Structure prediction by ZEFSAII (Michael W. Deem and Ramdas Pophale) SiO2 
 PCOD9509174
Probable space group: C C C A
;
_chemical_formula_sum "Si O2"
_cell_formula_units_Z 88
_cell_length_a 26.312384
_cell_length_b 15.430259
_cell_length_c 10.269407
_cell_angle_alpha 90.000000
_cell_angle_beta 90.000000
_cell_angle_gamma 90.000000
_cell_volume 4169.450101
_symmetry_space_group_name_H-M "C C C A"
_symmetry_group_IT_number 68
_space_group.IT_coordinate_system_code '2'
_symmetry_cell_setting 'orthorhombic'
loop_
_space_group_symop_operation_xyz
x,y,z
-x,1/2-y,z
x,1/2-y,1/2-z
-x,y,1/2-z
-x,-y,-z
x,1/2+y,-z
-x,1/2+y,1/2+z
x,-y,1/2+z
1/2+x,1/2+y,z
1/2-x,-y,z
1/2+x,-y,1/2-z
1/2-x,1/2+y,1/2-z
1/2-x,1/2-y,-z
1/2+x,y,-z
1/2-x,y,1/2+z
1/2+x,1/2-y,1/2+z
loop_
_atom_site_type_symbol
_atom_site_label
_atom_site_fract_x
_atom_site_fract_y
_atom_site_fract_z
Si Si1 0.305562 0.960163 0.864270
Si Si2 0.901416 0.473299 0.501389
Si Si3 0.373070 0.750000 0.250000
Si Si4 0.873021 0.329464 0.681364
Si Si5 0.559227 0.582363 0.245769
Si Si6 0.194919 0.213272 0.002246
O O1 0.339882 0.904903 0.758186
O O2 0.250000 0.000000 0.824829
O O3 0.297453 0.886945 0.971891
O O4 0.344077 0.024220 0.940111
O O5 0.906140 0.383538 0.579330
O O6 0.933494 0.481631 0.369266
O O7 0.918606 0.543664 0.609886
O O8 0.408002 0.832715 0.276161
O O9 0.336734 0.772877 0.131143
O O10 0.903854 0.250000 0.750000
O O11 0.833707 0.267329 0.607935
O O12 0.500000 0.603552 0.250000
O O13 0.250000 0.250000 0.000000
#
# Coordination Sequence:
#
# PCOD9509174 Si02
#       6
#    16  16   8  16  16  16
#     4  11  24  40  67 100 141 184 228 275 346 424
#     4  12  23  46  71 103 140 178 237 296 347 422
#     4  12  25  46  72 100 140 182 229 288 346 422
#     4  10  23  41  63  97 141 181 222 281 344 408
#     4  12  27  48  74 103 136 184 240 301 361 414
#     4  11  24  40  65  97 137 181 226 273 339 414
#
# _framework density 21.105902
#
# number of rings (size 3 to 8) (size 9 to 14) (size 15 to 20)
#    0.000    0.727    5.455    1.909    3.818    2.182 
#    0.000    0.000    0.000    0.000    0.000    0.000 
#    0.000    0.000    0.000    0.000    0.000    0.000 
#
# Total GULP energy -245062.032984 kJ/mol
# GULP energy per Si atom -5569.591659 kJ/mol
# Density = 2.105786 g / cm^3
# Si number density = 21.105902 Si / 1000 Ang^3
#
#
#
# Elastic Constant Matrix: (Units=GPa)
#
#
# Indices 1 2 3 4 5 6 
#
# 1 82.9738 2.6926 16.9728 0.0000 0.0000 0.0000
# 2 2.6926 67.6175 18.4643 0.0000 0.0000 0.0000
# 3 16.9728 18.4643 104.0900 0.0000 0.0000 0.0000
# 4 0.0000 0.0000 0.0000 37.9913 0.0000 0.0000
# 5 0.0000 0.0000 0.0000 0.0000 14.9751 0.0000
# 6 0.0000 0.0000 0.0000 0.0000 0.0000 14.7928
#
#
#
# Elastic Compliance Matrix: (Units=1/GPa)
#
#
# Indices 1 2 3 4 5 6 
#
# 1 0.012468 0.000062 -0.002044 0.000000 0.000000 0.000000
# 2 0.000062 0.015542 -0.002767 0.000000 0.000000 0.000000
# 3 -0.002044 -0.002767 0.010431 0.000000 0.000000 0.000000
# 4 0.000000 0.000000 0.000000 0.026322 0.000000 0.000000
# 5 0.000000 0.000000 0.000000 0.000000 0.066778 0.000000
# 6 0.000000 0.000000 0.000000 0.000000 0.000000 0.067601
#
#
# Mechanical properties :
#
#
# Convention : Reuss Voigt Hill
#
# Bulk Modulus (GPa) = 34.55091 36.77118 35.66104
# Shear Modulus (GPa) = 22.90553 27.98859 25.44706
#
# Velocity S-wave (km/s) = 3.29791 3.64552 3.47606
# Velocity P-wave (km/s) = 5.55945 5.93126 5.74836
#
# Compressibility (1/GPa) = 0.02894280
#
# Stress axis : x y z
#
# Youngs Moduli (GPa) = 80.20465 64.34084 95.86626
#
# Poissons Ratio (x) = -0.00397 0.19595
# Poissons Ratio (y) = -0.00495 0.26527
# Poissons Ratio (z) = 0.16394 0.17804
#
# Static dielectric constant tensor:
#      x y z
#    x 1.717210 0.000000 0.000000 
#    y 0.000000 1.830990 0.000000 
#    z 0.000000 0.000000 1.833150 
# 
# From -- ./inp_files/16335.got.cif
#   From: 2010.05.17/outbox.cif.g08.bks.cpg/sg68_9_cif.got.tgz:16335.got - 2010.06.03 18:57:09.
