data_PCOD9509137
_publ_section_title
;
Structure prediction by ZEFSAII (Michael W. Deem and Ramdas Pophale) SiO2 
 PCOD9509137
Probable space group: C C C A
;
_chemical_formula_sum "Si O2"
_cell_formula_units_Z 68
_cell_length_a 9.944324
_cell_length_b 13.997236
_cell_length_c 27.006763
_cell_angle_alpha 90.000000
_cell_angle_beta 90.000000
_cell_angle_gamma 90.000000
_cell_volume 3759.153710
_symmetry_space_group_name_H-M "C C C A"
_symmetry_group_IT_number 68
_space_group.IT_coordinate_system_code '2'
_symmetry_cell_setting 'orthorhombic'
loop_
_space_group_symop_operation_xyz
x,y,z
-x,1/2-y,z
x,1/2-y,1/2-z
-x,y,1/2-z
-x,-y,-z
x,1/2+y,-z
-x,1/2+y,1/2+z
x,-y,1/2+z
1/2+x,1/2+y,z
1/2-x,-y,z
1/2+x,-y,1/2-z
1/2-x,1/2+y,1/2-z
1/2-x,1/2-y,-z
1/2+x,y,-z
1/2-x,y,1/2+z
1/2+x,1/2-y,1/2+z
loop_
_atom_site_type_symbol
_atom_site_label
_atom_site_fract_x
_atom_site_fract_y
_atom_site_fract_z
Si Si1 0.750000 0.000000 0.636194
Si Si2 0.157360 0.862252 0.043024
Si Si3 0.000000 0.750000 0.750000
Si Si4 0.750000 0.000000 0.873090
Si Si5 0.510373 0.938992 0.303827
Si Si6 0.151454 0.866227 0.451093
O O1 0.866682 0.951446 0.669391
O O2 0.689570 0.919951 0.599313
O O3 0.159330 0.748644 0.052352
O O4 0.002210 0.891466 0.035782
O O5 0.219974 0.912531 0.090541
O O6 0.244781 0.888819 0.995075
O O7 0.055445 0.830413 0.711458
O O8 0.878082 0.982149 0.838978
O O9 0.500000 0.988598 0.250000
#
# Coordination Sequence:
#
# PCOD9509137 Si02
#       6
#     8  16   4   8  16  16
#     4  12  22  40  66  90 122 164 204 252 304 366
#     4  10  23  40  59  90 127 163 204 249 300 363
#     4   8  24  44  64  90 122 152 212 250 320 356
#     4  12  22  40  66  90 122 164 204 252 304 366
#     4  10  24  42  62  91 121 157 204 257 304 367
#     4  10  23  40  59  90 127 163 204 249 300 363
#
# _framework density 18.089179000000001
#
# number of rings (size 3 to 8) (size 9 to 14) (size 15 to 20)
#    0.706    0.941    2.353    1.412    6.588    1.882 
#    0.000    0.000    0.000    2.824    0.000    0.000 
#    0.000    0.000    0.000    0.000    0.000    0.000 
#
# Total GULP energy -189355.507462 kJ/mol
# GULP energy per Si atom -5569.279631 kJ/mol
# Density = 1.804801 g / cm^3
# Si number density = 18.089179 Si / 1000 Ang^3
#
#
#
# Elastic Constant Matrix: (Units=GPa)
#
#
# Indices 1 2 3 4 5 6 
#
# 1 140.4308 21.1250 76.4406 0.0000 0.0000 0.0000
# 2 21.1250 50.6418 33.3845 0.0000 0.0000 0.0000
# 3 76.4406 33.3845 142.1726 0.0000 0.0000 0.0000
# 4 0.0000 0.0000 0.0000 -15.4994 0.0000 0.0000
# 5 0.0000 0.0000 0.0000 0.0000 6.7862 0.0000
# 6 0.0000 0.0000 0.0000 0.0000 0.0000 2.1272
#
#
#
# Elastic Compliance Matrix: (Units=1/GPa)
#
#
# Indices 1 2 3 4 5 6 
#
# 1 0.010091 -0.000749 -0.005250 0.000000 0.000000 0.000000
# 2 -0.000749 0.023419 -0.005097 0.000000 0.000000 0.000000
# 3 -0.005250 -0.005097 0.011053 0.000000 0.000000 0.000000
# 4 0.000000 0.000000 0.000000 -0.064519 0.000000 0.000000
# 5 0.000000 0.000000 0.000000 0.000000 0.147358 0.000000
# 6 0.000000 0.000000 0.000000 0.000000 0.000000 0.470094
#
#
# Mechanical properties :
#
#
# Convention : Reuss Voigt Hill
#
# Bulk Modulus (GPa) = 44.69710 66.12725 55.41218
# Shear Modulus (GPa) = 7.97265 12.16915 10.07090
#
# Velocity S-wave (km/s) = 2.10166 2.59652 2.36209
# Velocity P-wave (km/s) = 5.53645 6.75462 6.17564
#
# Compressibility (1/GPa) = 0.02237282
#
# Stress axis : x y z
#
# Youngs Moduli (GPa) = 99.09613 42.70105 90.47240
#
# Poissons Ratio (x) = 0.03197 0.47497
# Poissons Ratio (y) = 0.07419 0.46110
# Poissons Ratio (z) = 0.52024 0.21763
#
# Static dielectric constant tensor:
#      x y z
#    x 1.625710 0.000000 0.000000 
#    y 0.000000 1.636010 0.000000 
#    z 0.000000 0.000000 1.595870 
# 
# From -- ./inp_files/5132.got.cif
#   From: 2010.05.17/outbox.cif.g08.bks.cpg/sg68_3_cif.got.tgz:5132.got - 2010.06.03 18:57:09.
