data_PCOD9509306
_publ_section_title
;
Structure prediction by ZEFSAII (Michael W. Deem and Ramdas Pophale) SiO2 
 PCOD9509306
Probable space group: C C C A
;
_chemical_formula_sum "Si O2"
_cell_formula_units_Z 48
_cell_length_a 10.262892
_cell_length_b 22.578219
_cell_length_c 9.766476
_cell_angle_alpha 90.000000
_cell_angle_beta 90.000000
_cell_angle_gamma 90.000000
_cell_volume 2263.066559
_symmetry_space_group_name_H-M "C C C A"
_symmetry_group_IT_number 68
_space_group.IT_coordinate_system_code '2'
_symmetry_cell_setting 'orthorhombic'
loop_
_space_group_symop_operation_xyz
x,y,z
-x,1/2-y,z
x,1/2-y,1/2-z
-x,y,1/2-z
-x,-y,-z
x,1/2+y,-z
-x,1/2+y,1/2+z
x,-y,1/2+z
1/2+x,1/2+y,z
1/2-x,-y,z
1/2+x,-y,1/2-z
1/2-x,1/2+y,1/2-z
1/2-x,1/2-y,-z
1/2+x,y,-z
1/2-x,y,1/2+z
1/2+x,1/2-y,1/2+z
loop_
_atom_site_type_symbol
_atom_site_label
_atom_site_fract_x
_atom_site_fract_y
_atom_site_fract_z
Si Si1 0.500000 0.447531 0.750000
Si Si2 0.853865 0.180678 0.786350
Si Si3 0.250000 0.500000 0.640407
Si Si4 0.170314 0.119630 0.430244
O O1 0.374835 0.489616 0.737012
O O2 0.470893 0.403941 0.621590
O O3 0.847708 0.250000 0.750000
O O4 0.744172 0.148915 0.696973
O O5 0.000000 0.159815 0.750000
O O6 0.833213 0.163526 0.943769
O O7 0.249453 0.558499 0.547208
#
# Coordination Sequence:
#
# PCOD9509306 Si02
#       4
#     8  16   8  16
#     4   8  20  42  69 110 151 190 238 290 374 450
#     4  11  26  45  70 100 142 193 258 306 365 429
#     4   8  20  40  70 112 150 190 234 296 374 450
#     4  10  23  43  71 103 146 192 239 301 365 439
#
# _framework density 21.210156999999999
#
# number of rings (size 3 to 8) (size 9 to 14) (size 15 to 20)
#    2.000    0.333    0.000    1.000    7.000    1.333 
#    0.000    5.000    0.000    2.000    0.000    0.000 
#    0.000    0.000    0.000    0.000    0.000    0.000 
#
# Total GULP energy -133635.447263 kJ/mol
# GULP energy per Si atom -5568.143636 kJ/mol
# Density = 2.116188 g / cm^3
# Si number density = 21.210157 Si / 1000 Ang^3
#
#
#
# Elastic Constant Matrix: (Units=GPa)
#
#
# Indices 1 2 3 4 5 6 
#
# 1 109.9983 23.3435 34.8426 0.0000 0.0000 0.0000
# 2 23.3435 89.6124 34.6550 0.0000 0.0000 0.0000
# 3 34.8426 34.6550 111.9643 0.0000 0.0000 0.0000
# 4 0.0000 0.0000 0.0000 164.3524 0.0000 0.0000
# 5 0.0000 0.0000 0.0000 0.0000 32.0958 0.0000
# 6 0.0000 0.0000 0.0000 0.0000 0.0000 26.6792
#
#
#
# Elastic Compliance Matrix: (Units=1/GPa)
#
#
# Indices 1 2 3 4 5 6 
#
# 1 0.010293 -0.001639 -0.002696 0.000000 0.000000 0.000000
# 2 -0.001639 0.012937 -0.003494 0.000000 0.000000 0.000000
# 3 -0.002696 -0.003494 0.010852 0.000000 0.000000 0.000000
# 4 0.000000 0.000000 0.000000 0.006084 0.000000 0.000000
# 5 0.000000 0.000000 0.000000 0.000000 0.031157 0.000000
# 6 0.000000 0.000000 0.000000 0.000000 0.000000 0.037482
#
#
# Mechanical properties :
#
#
# Convention : Reuss Voigt Hill
#
# Bulk Modulus (GPa) = 54.27639 55.25081 54.76360
# Shear Modulus (GPa) = 38.28342 59.20775 48.74558
#
# Velocity S-wave (km/s) = 4.25309 5.28918 4.79917
# Velocity P-wave (km/s) = 7.05434 7.96281 7.52230
#
# Compressibility (1/GPa) = 0.01842422
#
# Stress axis : x y z
#
# Youngs Moduli (GPa) = 97.15596 77.29535 92.14946
#
# Poissons Ratio (x) = 0.12666 0.24842
# Poissons Ratio (y) = 0.15921 0.32201
# Poissons Ratio (z) = 0.26192 0.27010
#
# Static dielectric constant tensor:
#      x y z
#    x 1.796290 0.000000 0.000000 
#    y 0.000000 1.798890 0.000000 
#    z 0.000000 0.000000 1.761470 
# 
# From -- ./inp_files/11614.got.cif
#   From: 2010.05.17/outbox.cif.g08.bks.cpg/sg68_6_cif.got.tgz:11614.got - 2010.06.03 18:57:09.
