data_PCOD9509580
_publ_section_title
;
Structure prediction by ZEFSAII (Michael W. Deem and Ramdas Pophale) SiO2 
 PCOD9509580
Probable space group: C C C A
;
_chemical_formula_sum "Si O2"
_cell_formula_units_Z 120
_cell_length_a 26.687879
_cell_length_b 8.872972
_cell_length_c 25.316823
_cell_angle_alpha 90.000000
_cell_angle_beta 90.000000
_cell_angle_gamma 90.000000
_cell_volume 5995.044019
_symmetry_space_group_name_H-M "C C C A"
_symmetry_group_IT_number 68
_space_group.IT_coordinate_system_code '2'
_symmetry_cell_setting 'orthorhombic'
loop_
_space_group_symop_operation_xyz
x,y,z
-x,1/2-y,z
x,1/2-y,1/2-z
-x,y,1/2-z
-x,-y,-z
x,1/2+y,-z
-x,1/2+y,1/2+z
x,-y,1/2+z
1/2+x,1/2+y,z
1/2-x,-y,z
1/2+x,-y,1/2-z
1/2-x,1/2+y,1/2-z
1/2-x,1/2-y,-z
1/2+x,y,-z
1/2-x,y,1/2+z
1/2+x,1/2-y,1/2+z
loop_
_atom_site_type_symbol
_atom_site_label
_atom_site_fract_x
_atom_site_fract_y
_atom_site_fract_z
Si Si1 0.346709 0.838868 0.076235
Si Si2 0.553935 0.175477 0.545894
Si Si3 0.287791 0.635990 0.526421
Si Si4 0.798649 0.905442 0.645918
Si Si5 0.946403 0.812583 0.069333
Si Si6 0.651463 0.305739 0.366787
Si Si7 0.311255 0.015059 0.177015
Si Si8 0.185391 0.750000 0.750000
O O1 0.401945 0.766661 0.075476
O O2 0.312332 0.702502 0.097997
O O3 0.334003 0.962190 0.120416
O O4 0.330355 0.893639 0.018237
O O5 0.500000 0.250000 0.558580
O O6 0.563400 0.216524 0.484246
O O7 0.553702 0.994018 0.555987
O O8 0.250000 0.500000 0.533380
O O9 0.250000 0.750000 0.500000
O O10 0.314410 0.693411 0.579543
O O11 0.787888 0.815365 0.699001
O O12 0.750000 0.000000 0.637338
O O13 0.843434 0.023265 0.653628
O O14 0.904103 0.779253 0.112254
O O15 0.000000 0.750000 0.087687
O O16 0.672416 0.188931 0.323960
O O17 0.335271 0.903491 0.221309
O O18 0.250000 0.000000 0.178482
#
# Coordination Sequence:
#
# PCOD9509580 Si02
#       8
#    16  16  16  16  16  16  16   8
#     4  11  22  38  58  88 130 173 216 244 309 369
#     4  11  23  40  61  86 125 176 220 264 301 357
#     4  12  23  34  52  82 130 180 205 239 291 363
#     4  11  22  40  61  89 125 158 208 262 307 380
#     4  11  24  40  61  91 123 172 220 265 305 358
#     4  12  23  37  62  91 127 164 211 260 307 370
#     4  11  24  40  62  95 125 166 210 260 307 380
#     4  10  24  44  64  86 123 160 211 256 330 368
#
# _framework density 20.016535000000001
#
# number of rings (size 3 to 8) (size 9 to 14) (size 15 to 20)
#    0.000    0.800    2.667    7.600    3.733    0.533 
#    0.000    0.000    0.000    0.000    0.000   17.733 
#    0.000    0.000    0.000    0.000    0.000    0.000 
#
# Total GULP energy -334514.778800 kJ/mol
# GULP energy per Si atom -5575.246313 kJ/mol
# Density = 1.997098 g / cm^3
# Si number density = 20.016535 Si / 1000 Ang^3
#
#
#
# Elastic Constant Matrix: (Units=GPa)
#
#
# Indices 1 2 3 4 5 6 
#
# 1 103.2200 10.5589 22.9832 0.0000 0.0000 0.0000
# 2 10.5589 93.9629 25.7657 0.0000 0.0000 0.0000
# 3 22.9832 25.7657 80.5441 0.0000 0.0000 0.0000
# 4 0.0000 0.0000 0.0000 40.0361 0.0000 0.0000
# 5 0.0000 0.0000 0.0000 0.0000 -21.2558 0.0000
# 6 0.0000 0.0000 0.0000 0.0000 0.0000 29.8891
#
#
#
# Elastic Compliance Matrix: (Units=1/GPa)
#
#
# Indices 1 2 3 4 5 6 
#
# 1 0.010358 -0.000387 -0.002832 0.000000 0.000000 0.000000
# 2 -0.000387 0.011680 -0.003626 0.000000 0.000000 0.000000
# 3 -0.002832 -0.003626 0.014383 0.000000 0.000000 0.000000
# 4 0.000000 0.000000 0.000000 0.024977 0.000000 0.000000
# 5 0.000000 0.000000 0.000000 0.000000 -0.047046 0.000000
# 6 0.000000 0.000000 0.000000 0.000000 0.000000 0.033457
#
#
# Mechanical properties :
#
#
# Convention : Reuss Voigt Hill
#
# Bulk Modulus (GPa) = 43.99136 44.03805 44.01471
# Shear Modulus (GPa) = 72.38196 24.29517 48.33856
#
# Velocity S-wave (km/s) = 6.01993 3.48768 4.91953
# Velocity P-wave (km/s) = 8.38717 6.18604 7.36925
#
# Compressibility (1/GPa) = 0.02273174
#
# Stress axis : x y z
#
# Youngs Moduli (GPa) = 96.54185 85.61423 69.52413
#
# Poissons Ratio (x) = 0.03317 0.19687
# Poissons Ratio (y) = 0.03741 0.25209
# Poissons Ratio (z) = 0.27338 0.31043
#
# Static dielectric constant tensor:
#      x y z
#    x 1.756900 0.000000 0.000000 
#    y 0.000000 1.689320 0.000000 
#    z 0.000000 0.000000 1.786580 
# 
# From -- ./inp_files/52387.got.cif
#   From: 2010.05.17/outbox.cif.g08.bks.cpg/sg68_27_cif.got.tgz:52387.got - 2010.06.03 18:57:09.
