data_PCOD9509140
_publ_section_title
;
Structure prediction by ZEFSAII (Michael W. Deem and Ramdas Pophale) SiO2 
 PCOD9509140
Probable space group: C C C A
;
_chemical_formula_sum "Si O2"
_cell_formula_units_Z 72
_cell_length_a 12.178360
_cell_length_b 11.053764
_cell_length_c 28.150730
_cell_angle_alpha 90.000000
_cell_angle_beta 90.000000
_cell_angle_gamma 90.000000
_cell_volume 3789.558864
_symmetry_space_group_name_H-M "C C C A"
_symmetry_group_IT_number 68
_space_group.IT_coordinate_system_code '2'
_symmetry_cell_setting 'orthorhombic'
loop_
_space_group_symop_operation_xyz
x,y,z
-x,1/2-y,z
x,1/2-y,1/2-z
-x,y,1/2-z
-x,-y,-z
x,1/2+y,-z
-x,1/2+y,1/2+z
x,-y,1/2+z
1/2+x,1/2+y,z
1/2-x,-y,z
1/2+x,-y,1/2-z
1/2-x,1/2+y,1/2-z
1/2-x,1/2-y,-z
1/2+x,y,-z
1/2-x,y,1/2+z
1/2+x,1/2-y,1/2+z
loop_
_atom_site_type_symbol
_atom_site_label
_atom_site_fract_x
_atom_site_fract_y
_atom_site_fract_z
Si Si1 0.123708 0.808474 0.081110
Si Si2 0.062329 0.120412 0.482411
Si Si3 0.700283 0.621774 0.389631
Si Si4 0.250000 0.500000 0.350725
Si Si5 0.871573 0.217196 0.301862
O O1 0.203833 0.696154 0.085651
O O2 0.000000 0.750000 0.087750
O O3 0.170115 0.912481 0.117156
O O4 0.139431 0.857448 0.027763
O O5 0.112290 0.096680 0.430766
O O6 0.000000 0.250000 0.478032
O O7 0.000000 0.000000 0.500000
O O8 0.750000 0.500000 0.370263
O O9 0.662718 0.699286 0.345513
O O10 0.170848 0.414859 0.318606
O O11 0.823503 0.250000 0.250000
O O12 0.000000 0.250000 0.298459
#
# Coordination Sequence:
#
# PCOD9509140 Si02
#       5
#    16  16  16   8  16
#     4  10  23  40  60  95 131 172 210 258 320 387
#     4  11  24  38  62  94 131 170 214 263 319 398
#     4  11  23  38  65  94 127 167 212 268 323 389
#     4  10  24  42  70  90 134 168 216 270 320 398
#     4  10  24  44  68  95 124 169 217 273 331 380
#
# _framework density 18.999573999999999
#
# number of rings (size 3 to 8) (size 9 to 14) (size 15 to 20)
#    0.000    1.556    0.000    4.000   15.556    0.000 
#    0.000    0.000    0.000    6.000    0.000    0.000 
#    0.000    0.000    0.000    0.000    0.000    0.000 
#
# Total GULP energy -200406.995646 kJ/mol
# GULP energy per Si atom -5566.860990 kJ/mol
# Density = 1.895633 g / cm^3
# Si number density = 18.999574 Si / 1000 Ang^3
#
#
#
# Elastic Constant Matrix: (Units=GPa)
#
#
# Indices 1 2 3 4 5 6 
#
# 1 49.6786 27.5660 29.6692 0.0000 0.0000 0.0000
# 2 27.5660 116.0114 27.7884 0.0000 0.0000 0.0000
# 3 29.6692 27.7884 107.2206 0.0000 0.0000 0.0000
# 4 0.0000 0.0000 0.0000 32.2381 0.0000 0.0000
# 5 0.0000 0.0000 0.0000 0.0000 12.0742 0.0000
# 6 0.0000 0.0000 0.0000 0.0000 0.0000 15.2670
#
#
#
# Elastic Compliance Matrix: (Units=1/GPa)
#
#
# Indices 1 2 3 4 5 6 
#
# 1 0.026429 -0.004828 -0.006062 0.000000 0.000000 0.000000
# 2 -0.004828 0.010072 -0.001275 0.000000 0.000000 0.000000
# 3 -0.006062 -0.001275 0.011334 0.000000 0.000000 0.000000
# 4 0.000000 0.000000 0.000000 0.031019 0.000000 0.000000
# 5 0.000000 0.000000 0.000000 0.000000 0.082821 0.000000
# 6 0.000000 0.000000 0.000000 0.000000 0.000000 0.065501
#
#
# Mechanical properties :
#
#
# Convention : Reuss Voigt Hill
#
# Bulk Modulus (GPa) = 42.54103 49.21755 45.87929
# Shear Modulus (GPa) = 19.27968 24.44165 21.86067
#
# Velocity S-wave (km/s) = 3.18896 3.59058 3.39571
# Velocity P-wave (km/s) = 5.99987 6.56890 6.29082
#
# Compressibility (1/GPa) = 0.02350672
#
# Stress axis : x y z
#
# Youngs Moduli (GPa) = 37.83790 99.28237 88.22796
#
# Poissons Ratio (x) = 0.47931 0.53483
# Poissons Ratio (y) = 0.18267 0.11245
# Poissons Ratio (z) = 0.22937 0.12654
#
# Static dielectric constant tensor:
#      x y z
#    x 1.583820 0.000000 0.000000 
#    y 0.000000 1.667850 0.000000 
#    z 0.000000 0.000000 1.706490 
# 
# From -- ./inp_files/50003.got.cif
#   From: 2010.05.17/outbox.cif.g08.bks.cpg/sg68_26_cif.got.tgz:50003.got - 2010.06.03 18:57:09.
