data_PCOD9509711
_publ_section_title
;
Structure prediction by ZEFSAII (Michael W. Deem and Ramdas Pophale) SiO2 
 PCOD9509711
Probable space group: C C C A
;
_chemical_formula_sum "Si O2"
_cell_formula_units_Z 84
_cell_length_a 5.450620
_cell_length_b 23.768721
_cell_length_c 31.067626
_cell_angle_alpha 90.000000
_cell_angle_beta 90.000000
_cell_angle_gamma 90.000000
_cell_volume 4024.943485
_symmetry_space_group_name_H-M "C C C A"
_symmetry_group_IT_number 68
_space_group.IT_coordinate_system_code '2'
_symmetry_cell_setting 'orthorhombic'
loop_
_space_group_symop_operation_xyz
x,y,z
-x,1/2-y,z
x,1/2-y,1/2-z
-x,y,1/2-z
-x,-y,-z
x,1/2+y,-z
-x,1/2+y,1/2+z
x,-y,1/2+z
1/2+x,1/2+y,z
1/2-x,-y,z
1/2+x,-y,1/2-z
1/2-x,1/2+y,1/2-z
1/2-x,1/2-y,-z
1/2+x,y,-z
1/2-x,y,1/2+z
1/2+x,1/2-y,1/2+z
loop_
_atom_site_type_symbol
_atom_site_label
_atom_site_fract_x
_atom_site_fract_y
_atom_site_fract_z
Si Si1 0.500000 0.250000 0.472466
Si Si2 0.657338 0.827145 0.672377
Si Si3 0.752402 0.935194 0.722031
Si Si4 0.000000 0.750000 0.250000
Si Si5 0.247351 0.932954 0.525523
Si Si6 0.500000 0.250000 0.885102
Si Si7 0.151444 0.339870 0.909986
O O1 0.750000 0.250000 0.500000
O O2 0.526740 0.304726 0.441393
O O3 0.760446 0.887926 0.685296
O O4 0.624212 0.793540 0.716937
O O5 0.814491 0.783339 0.645190
O O6 0.432016 0.839466 0.639753
O O7 0.500000 0.927087 0.750000
O O8 0.000000 0.928456 0.750000
O O9 0.750000 0.000000 0.706466
O O10 0.482229 0.918677 0.495167
O O11 0.291597 0.899514 0.569556
O O12 0.250000 0.000000 0.532067
O O13 0.383133 0.299168 0.912431
#
# Coordination Sequence:
#
# PCOD9509711 Si02
#       7
#     8  16  16   4  16   8  16
#     4  12  24  40  68  96 132 179 219 268 339 409
#     4  12  26  43  69  97 144 185 233 293 350 418
#     4  10  24  47  71  99 132 177 237 291 342 410
#     4  12  22  46  64  98 134 196 240 286 356 420
#     4  10  24  48  76 105 140 186 234 284 348 429
#     4  12  25  43  64 100 144 186 226 294 346 422
#     4  12  25  45  64 105 140 180 230 291 348 413
#
# _framework density 20.869859000000002
#
# number of rings (size 3 to 8) (size 9 to 14) (size 15 to 20)
#    0.000    0.762    4.762    1.714    8.000    0.000 
#    3.429    0.000    0.000    0.000    0.000    0.000 
#    0.000    0.000    0.000    0.000    0.000    0.000 
#
# Total GULP energy -234310.857031 kJ/mol
# GULP energy per Si atom -5578.829929 kJ/mol
# Density = 2.082236 g / cm^3
# Si number density = 20.869859 Si / 1000 Ang^3
#
#
#
# Elastic Constant Matrix: (Units=GPa)
#
#
# Indices 1 2 3 4 5 6 
#
# 1 100.8451 18.0110 32.5465 0.0000 0.0000 0.0000
# 2 18.0110 100.2358 34.2631 0.0000 0.0000 0.0000
# 3 32.5465 34.2631 92.2691 0.0000 0.0000 0.0000
# 4 0.0000 0.0000 0.0000 35.1331 0.0000 0.0000
# 5 0.0000 0.0000 0.0000 0.0000 7.7369 0.0000
# 6 0.0000 0.0000 0.0000 0.0000 0.0000 21.9477
#
#
#
# Elastic Compliance Matrix: (Units=1/GPa)
#
#
# Indices 1 2 3 4 5 6 
#
# 1 0.011241 -0.000761 -0.003682 0.000000 0.000000 0.000000
# 2 -0.000761 0.011478 -0.003994 0.000000 0.000000 0.000000
# 3 -0.003682 -0.003994 0.013620 0.000000 0.000000 0.000000
# 4 0.000000 0.000000 0.000000 0.028463 0.000000 0.000000
# 5 0.000000 0.000000 0.000000 0.000000 0.129251 0.000000
# 6 0.000000 0.000000 0.000000 0.000000 0.000000 0.045563
#
#
# Mechanical properties :
#
#
# Convention : Reuss Voigt Hill
#
# Bulk Modulus (GPa) = 51.37635 51.44346 51.40990
# Shear Modulus (GPa) = 19.01297 26.86551 22.93924
#
# Velocity S-wave (km/s) = 3.02159 3.59177 3.31895
# Velocity P-wave (km/s) = 6.06995 6.47335 6.27489
#
# Compressibility (1/GPa) = 0.01946421
#
# Stress axis : x y z
#
# Youngs Moduli (GPa) = 88.96361 87.11969 73.42217
#
# Poissons Ratio (x) = 0.06630 0.27036
# Poissons Ratio (y) = 0.06771 0.29324
# Poissons Ratio (z) = 0.32759 0.34795
#
# Static dielectric constant tensor:
#      x y z
#    x 1.827910 0.000000 0.000000 
#    y 0.000000 1.867490 0.000000 
#    z 0.000000 0.000000 1.932130 
# 
# From -- ./inp_files/53314.got.cif
#   From: 2010.05.17/outbox.cif.g08.bks.cpg/sg68_27_cif.got.tgz:53314.got - 2010.06.03 18:57:09.
