data_PCOD9509171
_publ_section_title
;
Structure prediction by ZEFSAII (Michael W. Deem and Ramdas Pophale) SiO2 
 PCOD9509171
Probable space group: C C C A
;
_chemical_formula_sum "Si O2"
_cell_formula_units_Z 72
_cell_length_a 9.131433
_cell_length_b 20.515775
_cell_length_c 15.837987
_cell_angle_alpha 90.000000
_cell_angle_beta 90.000000
_cell_angle_gamma 90.000000
_cell_volume 2967.063537
_symmetry_space_group_name_H-M "C C C A"
_symmetry_group_IT_number 68
_space_group.IT_coordinate_system_code '2'
_symmetry_cell_setting 'orthorhombic'
loop_
_space_group_symop_operation_xyz
x,y,z
-x,1/2-y,z
x,1/2-y,1/2-z
-x,y,1/2-z
-x,-y,-z
x,1/2+y,-z
-x,1/2+y,1/2+z
x,-y,1/2+z
1/2+x,1/2+y,z
1/2-x,-y,z
1/2+x,-y,1/2-z
1/2-x,1/2+y,1/2-z
1/2-x,1/2-y,-z
1/2+x,y,-z
1/2-x,y,1/2+z
1/2+x,1/2-y,1/2+z
loop_
_atom_site_type_symbol
_atom_site_label
_atom_site_fract_x
_atom_site_fract_y
_atom_site_fract_z
Si Si1 0.470980 0.100673 0.945011
Si Si2 0.031558 0.393924 0.637462
Si Si3 0.250000 0.000000 0.364644
Si Si4 0.292117 0.650344 0.321396
Si Si5 0.288183 0.300349 0.636867
O O1 0.603987 0.105177 0.878455
O O2 0.386291 0.169770 0.937015
O O3 0.350282 0.049251 0.916547
O O4 0.516427 0.086211 0.039555
O O5 0.872750 0.376982 0.673430
O O6 0.130905 0.451696 0.678249
O O7 0.124151 0.327211 0.633633
O O8 0.295503 0.723348 0.359356
O O9 0.340617 0.664928 0.224784
#
# Coordination Sequence:
#
# PCOD9509171 Si02
#       5
#    16  16   8  16  16
#     4  11  23  40  64  91 122 163 209 254 300 361
#     4  11  23  40  64  91 122 163 209 254 300 361
#     4  10  24  44  60  88 126 160 208 260 308 350
#     4  11  22  40  66  92 128 165 195 247 316 371
#     4  10  23  41  61  95 132 159 194 248 316 374
#
# _framework density 24.266417000000001
#
# number of rings (size 3 to 8) (size 9 to 14) (size 15 to 20)
#    0.000    1.333    0.000    6.000    0.000    9.778 
#    0.000   17.778    0.000    2.667    0.000    0.000 
#    0.000    0.000    0.000    0.000    0.000    0.000 
#
# Total GULP energy -201337.727753 kJ/mol
# GULP energy per Si atom -5592.714660 kJ/mol
# Density = 2.421119 g / cm^3
# Si number density = 24.266417 Si / 1000 Ang^3
#
#
#
# Elastic Constant Matrix: (Units=GPa)
#
#
# Indices 1 2 3 4 5 6 
#
# 1 147.8672 34.9020 30.6429 0.0000 0.0000 0.0000
# 2 34.9020 101.4661 24.4873 0.0000 0.0000 0.0000
# 3 30.6429 24.4873 45.9661 0.0000 0.0000 0.0000
# 4 0.0000 0.0000 0.0000 17.9441 0.0000 0.0000
# 5 0.0000 0.0000 0.0000 0.0000 28.8188 0.0000
# 6 0.0000 0.0000 0.0000 0.0000 0.0000 41.9809
#
#
#
# Elastic Compliance Matrix: (Units=1/GPa)
#
#
# Indices 1 2 3 4 5 6 
#
# 1 0.008095 -0.001701 -0.004490 0.000000 0.000000 0.000000
# 2 -0.001701 0.011667 -0.005081 0.000000 0.000000 0.000000
# 3 -0.004490 -0.005081 0.027456 0.000000 0.000000 0.000000
# 4 0.000000 0.000000 0.000000 0.055729 0.000000 0.000000
# 5 0.000000 0.000000 0.000000 0.000000 0.034700 0.000000
# 6 0.000000 0.000000 0.000000 0.000000 0.000000 0.023820
#
#
# Mechanical properties :
#
#
# Convention : Reuss Voigt Hill
#
# Bulk Modulus (GPa) = 40.53134 52.81821 46.67478
# Shear Modulus (GPa) = 26.00987 31.43325 28.72156
#
# Velocity S-wave (km/s) = 3.27746 3.60299 3.44407
# Velocity P-wave (km/s) = 5.57326 6.25475 5.92381
#
# Compressibility (1/GPa) = 0.02467226
#
# Stress axis : x y z
#
# Youngs Moduli (GPa) = 123.53611 85.71287 36.42248
#
# Poissons Ratio (x) = 0.14578 0.16355
# Poissons Ratio (y) = 0.21011 0.18508
# Poissons Ratio (z) = 0.55471 0.43554
#
# Static dielectric constant tensor:
#      x y z
#    x 1.937460 0.000000 0.000000 
#    y 0.000000 1.895390 0.000000 
#    z 0.000000 0.000000 1.956490 
# 
# From -- ./inp_files/28124.got.cif
#   From: 2010.05.17/outbox.cif.g08.bks.cpg/sg68_15_cif.got.tgz:28124.got - 2010.06.03 18:57:09.
