data_PCOD9509273
_publ_section_title
;
Structure prediction by ZEFSAII (Michael W. Deem and Ramdas Pophale) SiO2 
 PCOD9509273
Probable space group: C C C A
;
_chemical_formula_sum "Si O2"
_cell_formula_units_Z 92
_cell_length_a 26.471413
_cell_length_b 18.975225
_cell_length_c 9.346082
_cell_angle_alpha 90.000000
_cell_angle_beta 90.000000
_cell_angle_gamma 90.000000
_cell_volume 4694.546501
_symmetry_space_group_name_H-M "C C C A"
_symmetry_group_IT_number 68
_space_group.IT_coordinate_system_code '2'
_symmetry_cell_setting 'orthorhombic'
loop_
_space_group_symop_operation_xyz
x,y,z
-x,1/2-y,z
x,1/2-y,1/2-z
-x,y,1/2-z
-x,-y,-z
x,1/2+y,-z
-x,1/2+y,1/2+z
x,-y,1/2+z
1/2+x,1/2+y,z
1/2-x,-y,z
1/2+x,-y,1/2-z
1/2-x,1/2+y,1/2-z
1/2-x,1/2-y,-z
1/2+x,y,-z
1/2-x,y,1/2+z
1/2+x,1/2-y,1/2+z
loop_
_atom_site_type_symbol
_atom_site_label
_atom_site_fract_x
_atom_site_fract_y
_atom_site_fract_z
Si Si1 0.417289 0.338120 0.916448
Si Si2 0.966265 0.043348 0.611978
Si Si3 0.808477 0.991421 0.977993
Si Si4 0.751711 0.750000 0.750000
Si Si5 0.187556 0.824034 0.496769
Si Si6 0.500000 0.750000 0.250000
Si Si7 0.128773 0.544835 0.719138
O O1 0.370401 0.298085 0.989659
O O2 0.462440 0.294630 0.848743
O O3 0.390251 0.382875 0.789138
O O4 0.441826 0.391243 0.030015
O O5 0.000000 0.061715 0.750000
O O6 0.920142 0.994102 0.660005
O O7 0.000000 0.000000 0.500000
O O8 0.814488 0.908941 0.020128
O O9 0.845654 0.000212 0.844998
O O10 0.750000 0.000000 0.941774
O O11 0.828058 0.044979 0.098554
O O12 0.784660 0.699839 0.644307
O O13 0.717249 0.793162 0.638374
#
# Coordination Sequence:
#
# PCOD9509273 Si02
#       7
#    16  16  16   8  16   4  16
#     4  11  24  43  66  93 130 169 223 265 323 389
#     4  12  21  39  66  96 128 166 210 266 336 385
#     4  11  24  37  65 100 132 166 210 266 333 387
#     4  10  23  44  66  88 132 180 215 262 314 390
#     4  10  23  43  65  94 129 172 221 260 322 389
#     4  12  26  48  66  92 128 180 232 266 316 402
#     4  11  21  41  62  96 133 160 208 270 323 392
#
# _framework density 19.597207000000001
#
# number of rings (size 3 to 8) (size 9 to 14) (size 15 to 20)
#    0.000    1.043    5.217    2.087    7.304    0.000 
#    3.130    0.000    0.000    0.000    0.000    0.000 
#    0.000    0.000    0.000    0.000    0.000    0.000 
#
# Total GULP energy -256854.114092 kJ/mol
# GULP energy per Si atom -5583.785089 kJ/mol
# Density = 1.955260 g / cm^3
# Si number density = 19.597207 Si / 1000 Ang^3
#
#
#
# Elastic Constant Matrix: (Units=GPa)
#
#
# Indices 1 2 3 4 5 6 
#
# 1 157.9229 40.2630 62.3814 0.0000 0.0000 0.0000
# 2 40.2630 32.5074 25.0506 0.0000 0.0000 0.0000
# 3 62.3814 25.0506 119.8497 0.0000 0.0000 0.0000
# 4 0.0000 0.0000 0.0000 13.2764 0.0000 0.0000
# 5 0.0000 0.0000 0.0000 0.0000 19.3253 0.0000
# 6 0.0000 0.0000 0.0000 0.0000 0.0000 41.7371
#
#
#
# Elastic Compliance Matrix: (Units=1/GPa)
#
#
# Indices 1 2 3 4 5 6 
#
# 1 0.010175 -0.010158 -0.003173 0.000000 0.000000 0.000000
# 2 -0.010158 0.046809 -0.004497 0.000000 0.000000 0.000000
# 3 -0.003173 -0.004497 0.010935 0.000000 0.000000 0.000000
# 4 0.000000 0.000000 0.000000 0.075322 0.000000 0.000000
# 5 0.000000 0.000000 0.000000 0.000000 0.051746 0.000000
# 6 0.000000 0.000000 0.000000 0.000000 0.000000 0.023960
#
#
# Mechanical properties :
#
#
# Convention : Reuss Voigt Hill
#
# Bulk Modulus (GPa) = 30.99419 62.85222 46.92321
# Shear Modulus (GPa) = 18.84262 27.04009 22.94136
#
# Velocity S-wave (km/s) = 3.10416 3.71859 3.42518
# Velocity P-wave (km/s) = 5.35703 7.11188 6.29589
#
# Compressibility (1/GPa) = 0.03226411
#
# Stress axis : x y z
#
# Youngs Moduli (GPa) = 98.27648 21.36357 91.44726
#
# Poissons Ratio (x) = 0.21701 0.29017
# Poissons Ratio (y) = 0.99827 0.41121
# Poissons Ratio (z) = 0.31184 0.09607
#
# Static dielectric constant tensor:
#      x y z
#    x 1.681150 0.000000 0.000000 
#    y 0.000000 1.864420 0.000000 
#    z 0.000000 0.000000 1.744020 
# 
# From -- ./inp_files/7325.got.cif
#   From: 2010.05.17/outbox.cif.g08.bks.cpg/sg68_4_cif.got.tgz:7325.got - 2010.06.03 18:57:09.
