data_PCOD9509450
_publ_section_title
;
Structure prediction by ZEFSAII (Michael W. Deem and Ramdas Pophale) SiO2 
 PCOD9509450
Probable space group: C C C A
;
_chemical_formula_sum "Si O2"
_cell_formula_units_Z 56
_cell_length_a 21.525089
_cell_length_b 11.665169
_cell_length_c 8.738393
_cell_angle_alpha 90.000000
_cell_angle_beta 90.000000
_cell_angle_gamma 90.000000
_cell_volume 2194.156312
_symmetry_space_group_name_H-M "C C C A"
_symmetry_group_IT_number 68
_space_group.IT_coordinate_system_code '2'
_symmetry_cell_setting 'orthorhombic'
loop_
_space_group_symop_operation_xyz
x,y,z
-x,1/2-y,z
x,1/2-y,1/2-z
-x,y,1/2-z
-x,-y,-z
x,1/2+y,-z
-x,1/2+y,1/2+z
x,-y,1/2+z
1/2+x,1/2+y,z
1/2-x,-y,z
1/2+x,-y,1/2-z
1/2-x,1/2+y,1/2-z
1/2-x,1/2-y,-z
1/2+x,y,-z
1/2-x,y,1/2+z
1/2+x,1/2-y,1/2+z
loop_
_atom_site_type_symbol
_atom_site_label
_atom_site_fract_x
_atom_site_fract_y
_atom_site_fract_z
Si Si1 0.250000 0.500000 0.102421
Si Si2 0.431998 0.558610 0.757109
Si Si3 0.671415 0.383902 0.662046
Si Si4 0.570108 0.251007 0.992766
O O1 0.300709 0.444956 0.989351
O O2 0.273207 0.603190 0.214089
O O3 0.500000 0.504546 0.750000
O O4 0.380612 0.463673 0.761746
O O5 0.424718 0.632671 0.911303
O O6 0.429948 0.648073 0.617985
O O7 0.632155 0.225526 0.896816
O O8 0.500000 0.250000 0.924667
#
# Coordination Sequence:
#
# PCOD9509450 Si02
#       4
#     8  16  16  16
#     4  10  24  38  66  98 134 182 220 254 332 396
#     4   9  19  37  65  94 128 168 215 278 340 381
#     4  11  20  43  64  95 132 177 217 271 321 399
#     4   9  19  37  63  95 129 168 219 274 336 392
#
# _framework density 25.522338999999999
#
# number of rings (size 3 to 8) (size 9 to 14) (size 15 to 20)
#    0.000    2.286    2.857    1.714    0.000    4.571 
#    0.000   10.000    0.000    0.000    0.000    0.000 
#    0.000    0.000    0.000    0.000    0.000    0.000 
#
# Total GULP energy -156639.025886 kJ/mol
# GULP energy per Si atom -5594.250924 kJ/mol
# Density = 2.546425 g / cm^3
# Si number density = 25.522339 Si / 1000 Ang^3
#
#
#
# Elastic Constant Matrix: (Units=GPa)
#
#
# Indices 1 2 3 4 5 6 
#
# 1 124.8208 33.6851 58.5328 0.0000 0.0000 0.0000
# 2 33.6851 86.2634 26.6817 0.0000 0.0000 0.0000
# 3 58.5328 26.6817 147.6221 0.0000 0.0000 0.0000
# 4 0.0000 0.0000 0.0000 44.6040 0.0000 0.0000
# 5 0.0000 0.0000 0.0000 0.0000 -27.7093 0.0000
# 6 0.0000 0.0000 0.0000 0.0000 0.0000 33.3999
#
#
#
# Elastic Compliance Matrix: (Units=1/GPa)
#
#
# Indices 1 2 3 4 5 6 
#
# 1 0.010520 -0.002985 -0.003632 0.000000 0.000000 0.000000
# 2 -0.002985 0.013126 -0.001189 0.000000 0.000000 0.000000
# 3 -0.003632 -0.001189 0.008429 0.000000 0.000000 0.000000
# 4 0.000000 0.000000 0.000000 0.022420 0.000000 0.000000
# 5 0.000000 0.000000 0.000000 0.000000 -0.036089 0.000000
# 6 0.000000 0.000000 0.000000 0.000000 0.000000 0.029940
#
#
# Mechanical properties :
#
#
# Convention : Reuss Voigt Hill
#
# Bulk Modulus (GPa) = 60.73907 66.27840 63.50873
# Shear Modulus (GPa) = 72.00045 26.04603 49.02324
#
# Velocity S-wave (km/s) = 5.31714 3.19802 4.38744
# Velocity P-wave (km/s) = 7.84513 6.29775 7.11364
#
# Compressibility (1/GPa) = 0.01646387
#
# Stress axis : x y z
#
# Youngs Moduli (GPa) = 95.05691 76.18682 118.63861
#
# Poissons Ratio (x) = 0.22739 0.43087
# Poissons Ratio (y) = 0.28371 0.14105
# Poissons Ratio (z) = 0.34523 0.09058
#
# Static dielectric constant tensor:
#      x y z
#    x 2.013970 0.000000 0.000000 
#    y 0.000000 2.031080 0.000000 
#    z 0.000000 0.000000 2.039210 
# 
# From -- ./inp_files/16052.got.cif
#   From: 2010.05.17/outbox.cif.g08.bks.cpg/sg68_9_cif.got.tgz:16052.got - 2010.06.03 18:57:09.
