data_PCOD9509654
_publ_section_title
;
Structure prediction by ZEFSAII (Michael W. Deem and Ramdas Pophale) SiO2 
 PCOD9509654
Probable space group: C C C A
;
_chemical_formula_sum "Si O2"
_cell_formula_units_Z 80
_cell_length_a 16.093899
_cell_length_b 23.904616
_cell_length_c 9.123761
_cell_angle_alpha 90.000000
_cell_angle_beta 90.000000
_cell_angle_gamma 90.000000
_cell_volume 3510.079423
_symmetry_space_group_name_H-M "C C C A"
_symmetry_group_IT_number 68
_space_group.IT_coordinate_system_code '2'
_symmetry_cell_setting 'orthorhombic'
loop_
_space_group_symop_operation_xyz
x,y,z
-x,1/2-y,z
x,1/2-y,1/2-z
-x,y,1/2-z
-x,-y,-z
x,1/2+y,-z
-x,1/2+y,1/2+z
x,-y,1/2+z
1/2+x,1/2+y,z
1/2-x,-y,z
1/2+x,-y,1/2-z
1/2-x,1/2+y,1/2-z
1/2-x,1/2-y,-z
1/2+x,y,-z
1/2-x,y,1/2+z
1/2+x,1/2-y,1/2+z
loop_
_atom_site_type_symbol
_atom_site_label
_atom_site_fract_x
_atom_site_fract_y
_atom_site_fract_z
Si Si1 0.678053 0.281839 0.098044
Si Si2 0.500000 0.483599 0.250000
Si Si3 0.782325 0.114145 0.312522
Si Si4 0.750000 0.000000 0.152771
Si Si5 0.587904 0.307306 0.828374
Si Si6 0.894287 0.545270 0.509597
O O1 0.663842 0.250000 0.250000
O O2 0.713467 0.342337 0.141339
O O3 0.750000 0.250000 0.000000
O O4 0.596334 0.291426 0.998470
O O5 0.542638 0.447354 0.376522
O O6 0.438314 0.523157 0.343641
O O7 0.845419 0.144551 0.201853
O O8 0.839226 0.098360 0.451799
O O9 0.748539 0.056057 0.248467
O O10 0.830759 0.001201 0.050728
O O11 0.616012 0.250000 0.750000
O O12 0.500000 0.321109 0.750000
#
# Coordination Sequence:
#
# PCOD9509654 Si02
#       6
#    16   8  16   8  16  16
#     4  12  23  49  80 109 146 198 257 318 382 455
#     4  10  24  46  66  92 155 201 248 294 388 444
#     4  12  24  44  75 110 148 197 253 310 376 450
#     4  12  26  44  70 110 146 190 260 306 362 462
#     4  11  25  47  76 110 153 194 249 320 394 452
#     4  11  24  44  66 100 143 200 245 310 367 457
#
# _framework density 22.791506999999999
#
# number of rings (size 3 to 8) (size 9 to 14) (size 15 to 20)
#    0.000    0.600    6.000    1.800    1.400    0.000 
#    3.600    2.000    0.000    0.000    0.000    0.000 
#    0.000    0.000    0.000    0.000    0.000    0.000 
#
# Total GULP energy -223681.811799 kJ/mol
# GULP energy per Si atom -5592.045295 kJ/mol
# Density = 2.273963 g / cm^3
# Si number density = 22.791507 Si / 1000 Ang^3
#
#
#
# Elastic Constant Matrix: (Units=GPa)
#
#
# Indices 1 2 3 4 5 6 
#
# 1 87.1487 29.2681 63.0520 0.0000 0.0000 0.0000
# 2 29.2681 131.9748 51.6743 0.0000 0.0000 0.0000
# 3 63.0520 51.6743 173.8628 0.0000 0.0000 0.0000
# 4 0.0000 0.0000 0.0000 34.5712 0.0000 0.0000
# 5 0.0000 0.0000 0.0000 0.0000 46.5495 0.0000
# 6 0.0000 0.0000 0.0000 0.0000 0.0000 10.8938
#
#
#
# Elastic Compliance Matrix: (Units=1/GPa)
#
#
# Indices 1 2 3 4 5 6 
#
# 1 0.015790 -0.001426 -0.005303 0.000000 0.000000 0.000000
# 2 -0.001426 0.008704 -0.002070 0.000000 0.000000 0.000000
# 3 -0.005303 -0.002070 0.008290 0.000000 0.000000 0.000000
# 4 0.000000 0.000000 0.000000 0.028926 0.000000 0.000000
# 5 0.000000 0.000000 0.000000 0.000000 0.021482 0.000000
# 6 0.000000 0.000000 0.000000 0.000000 0.000000 0.091795
#
#
# Mechanical properties :
#
#
# Convention : Reuss Voigt Hill
#
# Bulk Modulus (GPa) = 65.84364 75.66389 70.75377
# Shear Modulus (GPa) = 25.29784 35.00238 30.15011
#
# Velocity S-wave (km/s) = 3.33523 3.92313 3.64107
# Velocity P-wave (km/s) = 6.61695 7.33428 6.98483
#
# Compressibility (1/GPa) = 0.01518750
#
# Stress axis : x y z
#
# Youngs Moduli (GPa) = 63.33215 114.89216 120.62945
#
# Poissons Ratio (x) = 0.16378 0.63964
# Poissons Ratio (y) = 0.09028 0.24969
# Poissons Ratio (z) = 0.33582 0.23782
#
# Static dielectric constant tensor:
#      x y z
#    x 1.929080 0.000000 0.000000 
#    y 0.000000 1.848310 0.000000 
#    z 0.000000 0.000000 1.905830 
# 
# From -- ./inp_files/6292.got.cif
#   From: 2010.05.17/outbox.cif.g08.bks.cpg/sg68_4_cif.got.tgz:6292.got - 2010.06.03 18:57:09.
