data_PCOD9509572
_publ_section_title
;
Structure prediction by ZEFSAII (Michael W. Deem and Ramdas Pophale) SiO2 
 PCOD9509572
Probable space group: C C C A
;
_chemical_formula_sum "Si O2"
_cell_formula_units_Z 52
_cell_length_a 10.010541
_cell_length_b 18.686934
_cell_length_c 12.030906
_cell_angle_alpha 90.000000
_cell_angle_beta 90.000000
_cell_angle_gamma 90.000000
_cell_volume 2250.577299
_symmetry_space_group_name_H-M "C C C A"
_symmetry_group_IT_number 68
_space_group.IT_coordinate_system_code '2'
_symmetry_cell_setting 'orthorhombic'
loop_
_space_group_symop_operation_xyz
x,y,z
-x,1/2-y,z
x,1/2-y,1/2-z
-x,y,1/2-z
-x,-y,-z
x,1/2+y,-z
-x,1/2+y,1/2+z
x,-y,1/2+z
1/2+x,1/2+y,z
1/2-x,-y,z
1/2+x,-y,1/2-z
1/2-x,1/2+y,1/2-z
1/2-x,1/2-y,-z
1/2+x,y,-z
1/2-x,y,1/2+z
1/2+x,1/2-y,1/2+z
loop_
_atom_site_type_symbol
_atom_site_label
_atom_site_fract_x
_atom_site_fract_y
_atom_site_fract_z
Si Si1 0.108575 0.486859 0.666365
Si Si2 0.500000 0.250000 0.250000
Si Si3 0.335850 0.338985 0.067734
Si Si4 0.534481 0.351350 0.877637
O O1 0.250000 0.500000 0.727303
O O2 0.143930 0.424663 0.581505
O O3 0.052029 0.561716 0.621628
O O4 0.000000 0.457176 0.750000
O O5 0.408166 0.298000 0.168808
O O6 0.178010 0.325305 0.076672
O O7 0.414726 0.324692 0.954548
O O8 0.500000 0.333471 0.750000
#
# Coordination Sequence:
#
# PCOD9509572 Si02
#       4
#    16   4  16  16
#     4   9  18  36  66 101 135 171 222 287 343 404
#     4  12  28  44  72  96 136 200 230 264 336 412
#     4  11  24  44  67  99 141 181 230 278 338 408
#     4  10  24  43  71 105 133 175 229 291 348 395
#
# _framework density 23.105183
#
# number of rings (size 3 to 8) (size 9 to 14) (size 15 to 20)
#    0.000    1.846    1.538    0.923    4.308    3.692 
#    0.000    4.615    0.000    0.000    0.000    0.000 
#    0.000    0.000    0.000    0.000    0.000    0.000 
#
# Total GULP energy -145309.117088 kJ/mol
# GULP energy per Si atom -5588.812196 kJ/mol
# Density = 2.305259 g / cm^3
# Si number density = 23.105183 Si / 1000 Ang^3
#
#
#
# Elastic Constant Matrix: (Units=GPa)
#
#
# Indices 1 2 3 4 5 6 
#
# 1 186.0229 33.4559 108.3380 0.0000 0.0000 0.0000
# 2 33.4559 130.4728 26.7727 0.0000 0.0000 0.0000
# 3 108.3380 26.7727 164.0520 0.0000 0.0000 0.0000
# 4 0.0000 0.0000 0.0000 5.0857 0.0000 0.0000
# 5 0.0000 0.0000 0.0000 0.0000 39.7288 0.0000
# 6 0.0000 0.0000 0.0000 0.0000 0.0000 19.4382
#
#
#
# Elastic Compliance Matrix: (Units=1/GPa)
#
#
# Indices 1 2 3 4 5 6 
#
# 1 0.008889 -0.001112 -0.005688 0.000000 0.000000 0.000000
# 2 -0.001112 0.008069 -0.000583 0.000000 0.000000 0.000000
# 3 -0.005688 -0.000583 0.009947 0.000000 0.000000 0.000000
# 4 0.000000 0.000000 0.000000 0.196632 0.000000 0.000000
# 5 0.000000 0.000000 0.000000 0.000000 0.025171 0.000000
# 6 0.000000 0.000000 0.000000 0.000000 0.000000 0.051445
#
#
# Mechanical properties :
#
#
# Convention : Reuss Voigt Hill
#
# Bulk Modulus (GPa) = 82.37846 90.85344 86.61595
# Shear Modulus (GPa) = 15.67573 33.64927 24.66250
#
# Velocity S-wave (km/s) = 2.60753 3.82036 3.27065
# Velocity P-wave (km/s) = 6.69304 7.67250 7.19944
#
# Compressibility (1/GPa) = 0.01213910
#
# Stress axis : x y z
#
# Youngs Moduli (GPa) = 112.50421 123.92965 100.53014
#
# Poissons Ratio (x) = 0.13780 0.57186
# Poissons Ratio (y) = 0.12510 0.05856
# Poissons Ratio (z) = 0.63997 0.07219
#
# Static dielectric constant tensor:
#      x y z
#    x 1.851540 0.000000 0.000000 
#    y 0.000000 1.888090 0.000000 
#    z 0.000000 0.000000 1.828860 
# 
# From -- ./inp_files/18952.got.cif
#   From: 2010.05.17/outbox.cif.g08.bks.cpg/sg68_10_cif.got.tgz:18952.got - 2010.06.03 18:57:09.
