data_PCOD9509623
_publ_section_title
;
Structure prediction by ZEFSAII (Michael W. Deem and Ramdas Pophale) SiO2 
 PCOD9509623
Probable space group: C C C A
;
_chemical_formula_sum "Si O2"
_cell_formula_units_Z 88
_cell_length_a 12.221548
_cell_length_b 24.112500
_cell_length_c 13.427878
_cell_angle_alpha 90.000000
_cell_angle_beta 90.000000
_cell_angle_gamma 90.000000
_cell_volume 3957.089246
_symmetry_space_group_name_H-M "C C C A"
_symmetry_group_IT_number 68
_space_group.IT_coordinate_system_code '2'
_symmetry_cell_setting 'orthorhombic'
loop_
_space_group_symop_operation_xyz
x,y,z
-x,1/2-y,z
x,1/2-y,1/2-z
-x,y,1/2-z
-x,-y,-z
x,1/2+y,-z
-x,1/2+y,1/2+z
x,-y,1/2+z
1/2+x,1/2+y,z
1/2-x,-y,z
1/2+x,-y,1/2-z
1/2-x,1/2+y,1/2-z
1/2-x,1/2-y,-z
1/2+x,y,-z
1/2-x,y,1/2+z
1/2+x,1/2-y,1/2+z
loop_
_atom_site_type_symbol
_atom_site_label
_atom_site_fract_x
_atom_site_fract_y
_atom_site_fract_z
Si Si1 0.143474 0.826151 0.949041
Si Si2 0.840011 0.810069 0.199580
Si Si3 0.464115 0.583726 0.426463
Si Si4 0.500000 0.250000 0.071361
Si Si5 0.721420 0.897175 0.867599
Si Si6 0.015121 0.537646 0.366152
O O1 0.234372 0.814143 0.869087
O O2 0.043004 0.864004 0.910783
O O3 0.201005 0.860827 0.035179
O O4 0.095598 0.771768 0.001123
O O5 0.833653 0.750000 0.250000
O O6 0.952267 0.801211 0.136501
O O7 0.825670 0.860479 0.276398
O O8 0.349898 0.590987 0.369166
O O9 0.514908 0.526096 0.387040
O O10 0.454717 0.573498 0.547189
O O11 0.644352 0.950670 0.881391
O O12 0.000000 0.550628 0.250000
#
# Coordination Sequence:
#
# PCOD9509623 Si02
#       6
#    16  16  16   8  16  16
#     4  11  26  43  71  97 141 183 226 299 355 420
#     4  12  27  43  70 104 136 187 239 290 355 437
#     4  10  24  48  65 104 143 175 236 298 355 425
#     4  12  25  48  69  98 144 186 243 292 351 436
#     4  11  25  43  71 103 137 183 237 290 361 423
#     4  10  24  44  75  99 136 188 239 286 359 432
#
# _framework density 22.238567
#
# number of rings (size 3 to 8) (size 9 to 14) (size 15 to 20)
#    0.000    1.091    1.818    2.455   12.727    0.000 
#    0.000    1.818    0.000    0.000    0.000    0.000 
#    0.000    0.000    0.000    0.000    0.000    0.000 
#
# Total GULP energy -245914.444273 kJ/mol
# GULP energy per Si atom -5588.964643 kJ/mol
# Density = 2.218795 g / cm^3
# Si number density = 22.238567 Si / 1000 Ang^3
#
#
#
# Elastic Constant Matrix: (Units=GPa)
#
#
# Indices 1 2 3 4 5 6 
#
# 1 71.3058 17.5339 22.3491 0.0000 0.0000 0.0000
# 2 17.5339 65.4425 17.8808 0.0000 0.0000 0.0000
# 3 22.3491 17.8808 85.3407 0.0000 0.0000 0.0000
# 4 0.0000 0.0000 0.0000 1.7641 0.0000 0.0000
# 5 0.0000 0.0000 0.0000 0.0000 2.6843 0.0000
# 6 0.0000 0.0000 0.0000 0.0000 0.0000 31.0049
#
#
#
# Elastic Compliance Matrix: (Units=1/GPa)
#
#
# Indices 1 2 3 4 5 6 
#
# 1 0.015930 -0.003318 -0.003476 0.000000 0.000000 0.000000
# 2 -0.003318 0.016900 -0.002672 0.000000 0.000000 0.000000
# 3 -0.003476 -0.002672 0.013188 0.000000 0.000000 0.000000
# 4 0.000000 0.000000 0.000000 0.566866 0.000000 0.000000
# 5 0.000000 0.000000 0.000000 0.000000 0.372538 0.000000
# 6 0.000000 0.000000 0.000000 0.000000 0.000000 0.032253
#
#
# Mechanical properties :
#
#
# Convention : Reuss Voigt Hill
#
# Bulk Modulus (GPa) = 36.92173 37.51293 37.21733
# Shear Modulus (GPa) = 4.78178 18.04568 11.41373
#
# Velocity S-wave (km/s) = 1.46795 2.85170 2.26794
# Velocity P-wave (km/s) = 4.41722 5.26763 4.86106
#
# Compressibility (1/GPa) = 0.02708432
#
# Stress axis : x y z
#
# Youngs Moduli (GPa) = 62.77610 59.17281 75.82670
#
# Poissons Ratio (x) = 0.19634 0.26361
# Poissons Ratio (y) = 0.20830 0.20260
# Poissons Ratio (z) = 0.21824 0.15810
#
# Static dielectric constant tensor:
#      x y z
#    x 1.872660 0.000000 0.000000 
#    y 0.000000 1.773220 0.000000 
#    z 0.000000 0.000000 1.852050 
# 
# From -- ./inp_files/12042.got.cif
#   From: 2010.05.17/outbox.cif.g08.bks.cpg/sg68_7_cif.got.tgz:12042.got - 2010.06.03 18:57:09.
