data_PCOD9509642
_publ_section_title
;
Structure prediction by ZEFSAII (Michael W. Deem and Ramdas Pophale) SiO2 
 PCOD9509642
Probable space group: C C C A
;
_chemical_formula_sum "Si O2"
_cell_formula_units_Z 88
_cell_length_a 16.281924
_cell_length_b 21.766882
_cell_length_c 11.211561
_cell_angle_alpha 90.000000
_cell_angle_beta 90.000000
_cell_angle_gamma 90.000000
_cell_volume 3973.452543
_symmetry_space_group_name_H-M "C C C A"
_symmetry_group_IT_number 68
_space_group.IT_coordinate_system_code '2'
_symmetry_cell_setting 'orthorhombic'
loop_
_space_group_symop_operation_xyz
x,y,z
-x,1/2-y,z
x,1/2-y,1/2-z
-x,y,1/2-z
-x,-y,-z
x,1/2+y,-z
-x,1/2+y,1/2+z
x,-y,1/2+z
1/2+x,1/2+y,z
1/2-x,-y,z
1/2+x,-y,1/2-z
1/2-x,1/2+y,1/2-z
1/2-x,1/2-y,-z
1/2+x,y,-z
1/2-x,y,1/2+z
1/2+x,1/2-y,1/2+z
loop_
_atom_site_type_symbol
_atom_site_label
_atom_site_fract_x
_atom_site_fract_y
_atom_site_fract_z
Si Si1 0.805879 0.325139 0.846314
Si Si2 0.790368 0.935124 0.971544
Si Si3 0.870641 0.878921 0.371944
Si Si4 0.157507 0.250000 0.250000
Si Si5 0.909024 0.235287 0.001432
Si Si6 0.046342 0.992288 0.627750
O O1 0.803175 0.388167 0.920180
O O2 0.870538 0.334722 0.740935
O O3 0.719707 0.304206 0.789695
O O4 0.838161 0.270903 0.930066
O O5 0.750000 0.000000 0.011867
O O6 0.721851 0.903271 0.889630
O O7 0.874194 0.950497 0.902214
O O8 0.895365 0.837519 0.484592
O O9 0.923898 0.938381 0.348685
O O10 0.101908 0.259833 0.364913
O O11 0.000000 0.250000 0.957427
O O12 0.000000 0.971920 0.750000
O O13 0.000000 0.000000 0.500000
#
# Coordination Sequence:
#
# PCOD9509642 Si02
#       6
#    16  16  16   8  16  16
#     4  12  23  45  75 103 144 188 255 302 373 463
#     4  10  24  45  71 104 146 198 245 306 371 462
#     4  11  24  44  71 102 142 195 248 299 374 468
#     4  12  23  48  71 102 146 198 246 310 377 466
#     4  12  27  44  70 110 147 192 243 314 387 439
#     4  11  26  48  71 106 149 194 250 318 386 448
#
# _framework density 22.146986999999999
#
# number of rings (size 3 to 8) (size 9 to 14) (size 15 to 20)
#    0.000    0.727    3.636    3.000    5.091    5.818 
#    3.273    0.000    0.000    0.000    0.000    0.000 
#    0.000    0.000    0.000    0.000    0.000    0.000 
#
# Total GULP energy -245904.372374 kJ/mol
# GULP energy per Si atom -5588.735736 kJ/mol
# Density = 2.209658 g / cm^3
# Si number density = 22.146987 Si / 1000 Ang^3
#
#
#
# Elastic Constant Matrix: (Units=GPa)
#
#
# Indices 1 2 3 4 5 6 
#
# 1 109.6376 30.0956 25.8503 0.0000 0.0000 0.0000
# 2 30.0956 95.4532 21.1209 0.0000 0.0000 0.0000
# 3 25.8503 21.1209 91.3258 0.0000 0.0000 0.0000
# 4 0.0000 0.0000 0.0000 38.1084 0.0000 0.0000
# 5 0.0000 0.0000 0.0000 0.0000 65.0491 0.0000
# 6 0.0000 0.0000 0.0000 0.0000 0.0000 10.9970
#
#
#
# Elastic Compliance Matrix: (Units=1/GPa)
#
#
# Indices 1 2 3 4 5 6 
#
# 1 0.010428 -0.002777 -0.002309 0.000000 0.000000 0.000000
# 2 -0.002777 0.011781 -0.001939 0.000000 0.000000 0.000000
# 3 -0.002309 -0.001939 0.012052 0.000000 0.000000 0.000000
# 4 0.000000 0.000000 0.000000 0.026241 0.000000 0.000000
# 5 0.000000 0.000000 0.000000 0.000000 0.015373 0.000000
# 6 0.000000 0.000000 0.000000 0.000000 0.000000 0.090934
#
#
# Mechanical properties :
#
#
# Convention : Reuss Voigt Hill
#
# Bulk Modulus (GPa) = 49.47849 50.06112 49.76980
# Shear Modulus (GPa) = 26.65325 37.45422 32.05374
#
# Velocity S-wave (km/s) = 3.47287 4.11684 3.80849
# Velocity P-wave (km/s) = 6.20246 6.72688 6.46999
#
# Compressibility (1/GPa) = 0.02021080
#
# Stress axis : x y z
#
# Youngs Moduli (GPa) = 95.89841 84.88408 82.97486
#
# Poissons Ratio (x) = 0.23570 0.19163
# Poissons Ratio (y) = 0.26629 0.16085
# Poissons Ratio (z) = 0.22147 0.16455
#
# Static dielectric constant tensor:
#      x y z
#    x 1.777590 0.000000 0.000000 
#    y 0.000000 1.806920 0.000000 
#    z 0.000000 0.000000 1.877740 
# 
# From -- ./inp_files/13326.got.cif
#   From: 2010.05.17/outbox.cif.g08.bks.cpg/sg68_7_cif.got.tgz:13326.got - 2010.06.03 18:57:09.
