data_PCOD9509078
_publ_section_title
;
Structure prediction by ZEFSAII (Michael W. Deem and Ramdas Pophale) SiO2 
 PCOD9509078
Probable space group: C C C A
;
_chemical_formula_sum "Si O2"
_cell_formula_units_Z 88
_cell_length_a 10.239866
_cell_length_b 26.750748
_cell_length_c 13.971312
_cell_angle_alpha 90.000000
_cell_angle_beta 90.000000
_cell_angle_gamma 90.000000
_cell_volume 3827.078715
_symmetry_space_group_name_H-M "C C C A"
_symmetry_group_IT_number 68
_space_group.IT_coordinate_system_code '2'
_symmetry_cell_setting 'orthorhombic'
loop_
_space_group_symop_operation_xyz
x,y,z
-x,1/2-y,z
x,1/2-y,1/2-z
-x,y,1/2-z
-x,-y,-z
x,1/2+y,-z
-x,1/2+y,1/2+z
x,-y,1/2+z
1/2+x,1/2+y,z
1/2-x,-y,z
1/2+x,-y,1/2-z
1/2-x,1/2+y,1/2-z
1/2-x,1/2-y,-z
1/2+x,y,-z
1/2-x,y,1/2+z
1/2+x,1/2-y,1/2+z
loop_
_atom_site_type_symbol
_atom_site_label
_atom_site_fract_x
_atom_site_fract_y
_atom_site_fract_z
Si Si1 0.500000 0.014654 0.250000
Si Si2 0.790330 0.411121 0.667635
Si Si3 0.869222 0.840060 0.184301
Si Si4 0.998726 0.421526 0.351070
Si Si5 0.303020 0.250000 0.750000
Si Si6 0.000000 0.750000 0.909281
Si Si7 0.942701 0.848460 0.481118
O O1 0.596532 0.048371 0.312996
O O2 0.434015 0.974715 0.323361
O O3 0.785753 0.385037 0.771934
O O4 0.653022 0.432063 0.632916
O O5 0.835512 0.367837 0.594154
O O6 0.787112 0.790652 0.199625
O O7 0.000000 0.836432 0.250000
O O8 0.921512 0.848797 0.078376
O O9 0.000000 0.392092 0.250000
O O10 0.944346 0.389046 0.435434
O O11 0.392977 0.271975 0.835166
O O12 0.064149 0.793327 0.973648
#
# Coordination Sequence:
#
# PCOD9509078 Si02
#       7
#     8  16  16  16   8   8  16
#     4  10  22  48  70 100 134 184 226 288 360 420
#     4  11  22  47  69 101 140 181 231 292 345 428
#     4  10  23  42  70  93 134 180 237 277 345 405
#     4  10  26  42  72 101 140 178 232 284 362 411
#     4  11  25  42  68  92 147 189 226 286 348 405
#     4  11  28  42  63 108 142 184 231 278 353 418
#     4  11  25  44  68 105 139 179 237 285 346 419
#
# _framework density 22.994039999999998
#
# number of rings (size 3 to 8) (size 9 to 14) (size 15 to 20)
#    0.545    0.909    2.727    1.909   12.727    1.455 
#    0.000    0.000    0.000    0.000    0.000    0.000 
#    0.000    0.000    0.000    0.000    0.000    0.000 
#
# Total GULP energy -245620.758614 kJ/mol
# GULP energy per Si atom -5582.289969 kJ/mol
# Density = 2.294170 g / cm^3
# Si number density = 22.994040 Si / 1000 Ang^3
#
#
#
# Elastic Constant Matrix: (Units=GPa)
#
#
# Indices 1 2 3 4 5 6 
#
# 1 49.9706 -0.0367 6.0795 0.0000 0.0000 0.0000
# 2 -0.0367 89.8350 24.3509 0.0000 0.0000 0.0000
# 3 6.0795 24.3509 108.6695 0.0000 0.0000 0.0000
# 4 0.0000 0.0000 0.0000 33.5143 0.0000 0.0000
# 5 0.0000 0.0000 0.0000 0.0000 22.0362 0.0000
# 6 0.0000 0.0000 0.0000 0.0000 0.0000 32.6328
#
#
#
# Elastic Compliance Matrix: (Units=1/GPa)
#
#
# Indices 1 2 3 4 5 6 
#
# 1 0.020158 0.000334 -0.001203 0.000000 0.000000 0.000000
# 2 0.000334 0.011857 -0.002676 0.000000 0.000000 0.000000
# 3 -0.001203 -0.002676 0.009869 0.000000 0.000000 0.000000
# 4 0.000000 0.000000 0.000000 0.029838 0.000000 0.000000
# 5 0.000000 0.000000 0.000000 0.000000 0.045380 0.000000
# 6 0.000000 0.000000 0.000000 0.000000 0.000000 0.030644
#
#
# Mechanical properties :
#
#
# Convention : Reuss Voigt Hill
#
# Bulk Modulus (GPa) = 28.73874 34.36248 31.55061
# Shear Modulus (GPa) = 30.04212 32.17543 31.10877
#
# Velocity S-wave (km/s) = 3.61850 3.74477 3.68218
# Velocity P-wave (km/s) = 5.47572 5.80295 5.64171
#
# Compressibility (1/GPa) = 0.03479624
#
# Stress axis : x y z
#
# Youngs Moduli (GPa) = 49.60725 84.33892 101.32681
#
# Poissons Ratio (x) = -0.02819 0.12186
# Poissons Ratio (y) = -0.01658 0.27111
# Poissons Ratio (z) = 0.05966 0.22566
#
# Static dielectric constant tensor:
#      x y z
#    x 1.952410 0.000000 0.000000 
#    y 0.000000 1.854990 0.000000 
#    z 0.000000 0.000000 1.882470 
# 
# From -- ./inp_files/21166.got.cif
#   From: 2010.05.17/outbox.cif.g08.bks.cpg/sg68_11_cif.got.tgz:21166.got - 2010.06.03 18:57:09.
