data_PCOD9509470
_publ_section_title
;
Structure prediction by ZEFSAII (Michael W. Deem and Ramdas Pophale) SiO2 
 PCOD9509470
Probable space group: C C C A
;
_chemical_formula_sum "Si O2"
_cell_formula_units_Z 64
_cell_length_a 17.429765
_cell_length_b 15.693234
_cell_length_c 10.483541
_cell_angle_alpha 90.000000
_cell_angle_beta 90.000000
_cell_angle_gamma 90.000000
_cell_volume 2867.556477
_symmetry_space_group_name_H-M "C C C A"
_symmetry_group_IT_number 68
_space_group.IT_coordinate_system_code '2'
_symmetry_cell_setting 'orthorhombic'
loop_
_space_group_symop_operation_xyz
x,y,z
-x,1/2-y,z
x,1/2-y,1/2-z
-x,y,1/2-z
-x,-y,-z
x,1/2+y,-z
-x,1/2+y,1/2+z
x,-y,1/2+z
1/2+x,1/2+y,z
1/2-x,-y,z
1/2+x,-y,1/2-z
1/2-x,1/2+y,1/2-z
1/2-x,1/2-y,-z
1/2+x,y,-z
1/2-x,y,1/2+z
1/2+x,1/2-y,1/2+z
loop_
_atom_site_type_symbol
_atom_site_label
_atom_site_fract_x
_atom_site_fract_y
_atom_site_fract_z
Si Si1 0.408763 0.938416 0.407624
Si Si2 0.016783 0.115878 0.890087
Si Si3 0.318771 0.403320 0.039227
Si Si4 0.707675 0.649265 0.236334
O O1 0.448420 0.876312 0.508972
O O2 0.371541 0.892414 0.287249
O O3 0.469084 0.013141 0.374564
O O4 0.341998 0.997130 0.469865
O O5 0.098708 0.144308 0.945690
O O6 0.000000 0.150179 0.750000
O O7 0.272523 0.385777 0.168113
O O8 0.279345 0.373470 0.910395
O O9 0.704176 0.750000 0.250000
#
# Coordination Sequence:
#
# PCOD9509470 Si02
#       4
#    16  16  16  16
#     4   9  21  38  69  90 130 164 230 269 328 386
#     4   9  19  38  68  93 123 161 233 281 315 377
#     4  10  24  40  65  94 125 178 224 265 334 401
#     4  12  25  42  64  97 140 172 212 278 344 408
#
# _framework density 22.318655
#
# number of rings (size 3 to 8) (size 9 to 14) (size 15 to 20)
#    1.500    0.500    0.000    3.000    3.500    2.000 
#    0.000    2.500    0.000    0.000    0.000    0.000 
#    0.000    0.000    0.000    0.000    0.000    0.000 
#
# Total GULP energy -178515.533921 kJ/mol
# GULP energy per Si atom -5578.610435 kJ/mol
# Density = 2.226786 g / cm^3
# Si number density = 22.318655 Si / 1000 Ang^3
#
#
#
# Elastic Constant Matrix: (Units=GPa)
#
#
# Indices 1 2 3 4 5 6 
#
# 1 62.5170 17.2809 47.9619 0.0000 0.0000 0.0000
# 2 17.2809 44.4162 18.8327 0.0000 0.0000 0.0000
# 3 47.9619 18.8327 155.2046 0.0000 0.0000 0.0000
# 4 0.0000 0.0000 0.0000 6.5034 0.0000 0.0000
# 5 0.0000 0.0000 0.0000 0.0000 44.5357 0.0000
# 6 0.0000 0.0000 0.0000 0.0000 0.0000 -4.7482
#
#
#
# Elastic Compliance Matrix: (Units=1/GPa)
#
#
# Indices 1 2 3 4 5 6 
#
# 1 0.022433 -0.006103 -0.006192 0.000000 0.000000 0.000000
# 2 -0.006103 0.025396 -0.001196 0.000000 0.000000 0.000000
# 3 -0.006192 -0.001196 0.008502 0.000000 0.000000 0.000000
# 4 0.000000 0.000000 0.000000 0.153766 0.000000 0.000000
# 5 0.000000 0.000000 0.000000 0.000000 0.022454 0.000000
# 6 0.000000 0.000000 0.000000 0.000000 0.000000 -0.210607
#
#
# Mechanical properties :
#
#
# Convention : Reuss Voigt Hill
#
# Bulk Modulus (GPa) = 34.07164 47.80987 40.94076
# Shear Modulus (GPa) = 85.17089 21.12901 53.14995
#
# Velocity S-wave (km/s) = 6.18419 3.08018 4.88527
# Velocity P-wave (km/s) = 8.14195 5.84106 7.08553
#
# Compressibility (1/GPa) = 0.02934993
#
# Stress axis : x y z
#
# Youngs Moduli (GPa) = 44.57779 39.37696 117.62502
#
# Poissons Ratio (x) = 0.24030 0.72830
# Poissons Ratio (y) = 0.27204 0.14065
# Poissons Ratio (z) = 0.27601 0.04708
#
# Static dielectric constant tensor:
#      x y z
#    x 1.892170 0.000000 0.000000 
#    y 0.000000 1.821690 0.000000 
#    z 0.000000 0.000000 1.794420 
# 
# From -- ./inp_files/6891.got.cif
#   From: 2010.05.17/outbox.cif.g08.bks.cpg/sg68_4_cif.got.tgz:6891.got - 2010.06.03 18:57:09.
