data_PCOD9509996
_publ_section_title
;
Structure prediction by ZEFSAII (Michael W. Deem and Ramdas Pophale) SiO2 
 PCOD9509996
Probable space group: C C C A
;
_chemical_formula_sum "Si O2"
_cell_formula_units_Z 116
_cell_length_a 12.471897
_cell_length_b 18.890344
_cell_length_c 24.329384
_cell_angle_alpha 90.000000
_cell_angle_beta 90.000000
_cell_angle_gamma 90.000000
_cell_volume 5731.964543
_symmetry_space_group_name_H-M "C C C A"
_symmetry_group_IT_number 68
_space_group.IT_coordinate_system_code '2'
_symmetry_cell_setting 'orthorhombic'
loop_
_space_group_symop_operation_xyz
x,y,z
-x,1/2-y,z
x,1/2-y,1/2-z
-x,y,1/2-z
-x,-y,-z
x,1/2+y,-z
-x,1/2+y,1/2+z
x,-y,1/2+z
1/2+x,1/2+y,z
1/2-x,-y,z
1/2+x,-y,1/2-z
1/2-x,1/2+y,1/2-z
1/2-x,1/2-y,-z
1/2+x,y,-z
1/2-x,y,1/2+z
1/2+x,1/2-y,1/2+z
loop_
_atom_site_type_symbol
_atom_site_label
_atom_site_fract_x
_atom_site_fract_y
_atom_site_fract_z
Si Si1 0.404090 0.798451 0.954134
Si Si2 0.723896 0.083372 0.199005
Si Si3 0.384233 0.172821 0.656250
Si Si4 0.586431 0.907917 0.116122
Si Si5 0.500000 0.750000 0.250000
Si Si6 0.040573 0.071777 0.885728
Si Si7 0.340857 0.222275 0.934422
Si Si8 0.191747 0.576857 0.327082
O O1 0.500000 0.750000 0.931761
O O2 0.439806 0.877859 0.938416
O O3 0.287039 0.781771 0.930444
O O4 0.383240 0.772568 0.016818
O O5 0.828464 0.109761 0.165209
O O6 0.622336 0.099432 0.160961
O O7 0.692555 0.098312 0.262125
O O8 0.750000 0.000000 0.199969
O O9 0.470902 0.116380 0.636305
O O10 0.421991 0.198916 0.715498
O O11 0.385279 0.242733 0.620052
O O12 0.270026 0.136105 0.648606
O O13 0.618612 0.858597 0.064562
O O14 0.578715 0.991087 0.103517
O O15 0.921774 0.073720 0.858758
O O16 0.250000 0.500000 0.330759
#
# Coordination Sequence:
#
# PCOD9509996 Si02
#       8
#    16  16  16  16   4  16  16  16
#     4  11  24  44  69  95 129 181 224 275 353 401
#     4   9  20  35  61  95 133 173 219 270 330 395
#     4  12  23  39  62  96 138 173 226 278 334 398
#     4  11  20  41  68  95 134 174 231 282 331 404
#     4  12  24  36  68 100 134 188 230 280 326 414
#     4  11  22  41  68  97 132 178 228 280 332 415
#     4  11  24  44  68  93 134 175 224 288 338 401
#     4  11  22  38  61  97 140 178 213 274 344 399
#
# _framework density 20.237390999999999
#
# number of rings (size 3 to 8) (size 9 to 14) (size 15 to 20)
#    0.000    1.103    4.138    2.897    0.000    0.000 
#    0.000    2.759    3.034    0.828    0.000    0.000 
#    0.000    0.000    0.000    0.000    0.000    0.000 
#
# Total GULP energy -323336.260818 kJ/mol
# GULP energy per Si atom -5574.763118 kJ/mol
# Density = 2.019133 g / cm^3
# Si number density = 20.237391 Si / 1000 Ang^3
#
#
#
# Elastic Constant Matrix: (Units=GPa)
#
#
# Indices 1 2 3 4 5 6 
#
# 1 154.2286 46.6011 41.3661 0.0000 0.0000 0.0000
# 2 46.6011 122.8134 48.2177 0.0000 0.0000 0.0000
# 3 41.3661 48.2177 69.4858 0.0000 0.0000 0.0000
# 4 0.0000 0.0000 0.0000 93.7362 0.0000 0.0000
# 5 0.0000 0.0000 0.0000 0.0000 32.4330 0.0000
# 6 0.0000 0.0000 0.0000 0.0000 0.0000 32.3142
#
#
#
# Elastic Compliance Matrix: (Units=1/GPa)
#
#
# Indices 1 2 3 4 5 6 
#
# 1 0.007935 -0.001589 -0.003621 0.000000 0.000000 0.000000
# 2 -0.001589 0.011510 -0.007041 0.000000 0.000000 0.000000
# 3 -0.003621 -0.007041 0.021433 0.000000 0.000000 0.000000
# 4 0.000000 0.000000 0.000000 0.010668 0.000000 0.000000
# 5 0.000000 0.000000 0.000000 0.000000 0.030833 0.000000
# 6 0.000000 0.000000 0.000000 0.000000 0.000000 0.030946
#
#
# Mechanical properties :
#
#
# Convention : Reuss Voigt Hill
#
# Bulk Modulus (GPa) = 61.06670 68.76641 64.91656
# Shear Modulus (GPa) = 34.89521 45.71953 40.30737
#
# Velocity S-wave (km/s) = 4.15697 4.75822 4.46772
# Velocity P-wave (km/s) = 7.29940 8.01506 7.66558
#
# Compressibility (1/GPa) = 0.01637554
#
# Stress axis : x y z
#
# Youngs Moduli (GPa) = 126.01828 86.88289 46.65731
#
# Poissons Ratio (x) = 0.13809 0.16895
# Poissons Ratio (y) = 0.20028 0.32850
# Poissons Ratio (z) = 0.45634 0.61172
#
# Static dielectric constant tensor:
#      x y z
#    x 1.731590 0.000000 0.000000 
#    y 0.000000 1.725830 0.000000 
#    z 0.000000 0.000000 1.769300 
# 
# From -- ./inp_files/50362.got.cif
#   From: 2010.05.17/outbox.cif.g08.bks.cpg/sg68_26_cif.got.tgz:50362.got - 2010.06.03 18:57:09.
