data_PCOD9509560
_publ_section_title
;
Structure prediction by ZEFSAII (Michael W. Deem and Ramdas Pophale) SiO2 
 PCOD9509560
Probable space group: C C C A
;
_chemical_formula_sum "Si O2"
_cell_formula_units_Z 72
_cell_length_a 27.900938
_cell_length_b 19.951119
_cell_length_c 5.571094
_cell_angle_alpha 90.000000
_cell_angle_beta 90.000000
_cell_angle_gamma 90.000000
_cell_volume 3101.176964
_symmetry_space_group_name_H-M "C C C A"
_symmetry_group_IT_number 68
_space_group.IT_coordinate_system_code '2'
_symmetry_cell_setting 'orthorhombic'
loop_
_space_group_symop_operation_xyz
x,y,z
-x,1/2-y,z
x,1/2-y,1/2-z
-x,y,1/2-z
-x,-y,-z
x,1/2+y,-z
-x,1/2+y,1/2+z
x,-y,1/2+z
1/2+x,1/2+y,z
1/2-x,-y,z
1/2+x,-y,1/2-z
1/2-x,1/2+y,1/2-z
1/2-x,1/2-y,-z
1/2+x,y,-z
1/2-x,y,1/2+z
1/2+x,1/2-y,1/2+z
loop_
_atom_site_type_symbol
_atom_site_label
_atom_site_fract_x
_atom_site_fract_y
_atom_site_fract_z
Si Si1 0.597147 0.250000 0.250000
Si Si2 0.553086 0.540092 0.754655
Si Si3 0.450309 0.674813 0.146243
Si Si4 0.127368 0.874613 0.509322
Si Si5 0.731421 0.922640 0.363185
O O1 0.561681 0.196336 0.376536
O O2 0.630216 0.297596 0.415364
O O3 0.500000 0.574049 0.750000
O O4 0.553970 0.506199 0.493315
O O5 0.600344 0.583051 0.805071
O O6 0.448383 0.750000 0.250000
O O7 0.500000 0.646597 0.250000
O O8 0.408271 0.631900 0.264266
O O9 0.175698 0.911405 0.582388
O O10 0.742822 0.893189 0.100384
O O11 0.750000 0.000000 0.348377
#
# Coordination Sequence:
#
# PCOD9509560 Si02
#       5
#     8  16  16  16  16
#     4  10  24  43  68 106 150 198 242 294 371 446
#     4  10  25  42  64 101 144 189 237 294 365 435
#     4   9  21  39  65 102 144 191 238 281 351 438
#     4  11  25  41  75 100 149 187 248 303 375 434
#     4  10  25  46  73 104 132 178 248 311 372 428
#
# _framework density 23.216992000000001
#
# number of rings (size 3 to 8) (size 9 to 14) (size 15 to 20)
#    0.000    2.000    0.000    0.000   15.556    7.111 
#    0.000    1.111    0.000    0.000    0.000    0.000 
#    0.000    0.000    0.000    0.000    0.000    0.000 
#
# Total GULP energy -200608.388129 kJ/mol
# GULP energy per Si atom -5572.455226 kJ/mol
# Density = 2.316415 g / cm^3
# Si number density = 23.216992 Si / 1000 Ang^3
#
#
#
# Elastic Constant Matrix: (Units=GPa)
#
#
# Indices 1 2 3 4 5 6 
#
# 1 111.3902 34.8380 -9.9343 0.0000 0.0000 0.0000
# 2 34.8380 56.8290 19.9173 0.0000 0.0000 0.0000
# 3 -9.9343 19.9173 107.3147 0.0000 0.0000 0.0000
# 4 0.0000 0.0000 0.0000 41.0397 0.0000 0.0000
# 5 0.0000 0.0000 0.0000 0.0000 21.1714 0.0000
# 6 0.0000 0.0000 0.0000 0.0000 0.0000 38.3092
#
#
#
# Elastic Compliance Matrix: (Units=1/GPa)
#
#
# Indices 1 2 3 4 5 6 
#
# 1 0.011745 -0.008108 0.002592 0.000000 0.000000 0.000000
# 2 -0.008108 0.024419 -0.005283 0.000000 0.000000 0.000000
# 3 0.002592 -0.005283 0.010539 0.000000 0.000000 0.000000
# 4 0.000000 0.000000 0.000000 0.024367 0.000000 0.000000
# 5 0.000000 0.000000 0.000000 0.000000 0.047233 0.000000
# 6 0.000000 0.000000 0.000000 0.000000 0.000000 0.026103
#
#
# Mechanical properties :
#
#
# Convention : Reuss Voigt Hill
#
# Bulk Modulus (GPa) = 39.83362 40.57510 40.20436
# Shear Modulus (GPa) = 28.67445 35.48493 32.07969
#
# Velocity S-wave (km/s) = 3.51816 3.91372 3.72120
# Velocity P-wave (km/s) = 5.80496 6.15933 5.98477
#
# Compressibility (1/GPa) = 0.02510442
#
# Stress axis : x y z
#
# Youngs Moduli (GPa) = 85.14595 40.95218 94.88766
#
# Poissons Ratio (x) = 0.33205 -0.24596
# Poissons Ratio (y) = 0.69038 0.50126
# Poissons Ratio (z) = -0.22070 0.21634
#
# Static dielectric constant tensor:
#      x y z
#    x 1.839660 0.000000 0.000000 
#    y 0.000000 1.974920 0.000000 
#    z 0.000000 0.000000 2.088320 
# 
# From -- ./inp_files/2336.got.cif
#   From: 2010.05.17/outbox.cif.g08.bks.cpg/sg68_2_cif.got.tgz:2336.got - 2010.06.03 18:57:09.
