data_PCOD9509689
_publ_section_title
;
Structure prediction by ZEFSAII (Michael W. Deem and Ramdas Pophale) SiO2 
 PCOD9509689
Probable space group: C C C A
;
_chemical_formula_sum "Si O2"
_cell_formula_units_Z 72
_cell_length_a 8.538810
_cell_length_b 13.585529
_cell_length_c 29.600445
_cell_angle_alpha 90.000000
_cell_angle_beta 90.000000
_cell_angle_gamma 90.000000
_cell_volume 3433.777448
_symmetry_space_group_name_H-M "C C C A"
_symmetry_group_IT_number 68
_space_group.IT_coordinate_system_code '2'
_symmetry_cell_setting 'orthorhombic'
loop_
_space_group_symop_operation_xyz
x,y,z
-x,1/2-y,z
x,1/2-y,1/2-z
-x,y,1/2-z
-x,-y,-z
x,1/2+y,-z
-x,1/2+y,1/2+z
x,-y,1/2+z
1/2+x,1/2+y,z
1/2-x,-y,z
1/2+x,-y,1/2-z
1/2-x,1/2+y,1/2-z
1/2-x,1/2-y,-z
1/2+x,y,-z
1/2-x,y,1/2+z
1/2+x,1/2-y,1/2+z
loop_
_atom_site_type_symbol
_atom_site_label
_atom_site_fract_x
_atom_site_fract_y
_atom_site_fract_z
Si Si1 0.819583 0.245164 0.804654
Si Si2 0.250000 0.000000 0.987885
Si Si3 0.884659 0.073953 0.208925
Si Si4 0.865382 0.082071 0.359167
Si Si5 0.481737 0.362827 0.953859
O O1 0.823988 0.250000 0.750000
O O2 0.707329 0.337098 0.814523
O O3 0.733040 0.151854 0.825661
O O4 0.000000 0.250000 0.820179
O O5 0.362583 0.071211 0.959190
O O6 0.146479 0.074800 0.018053
O O7 0.000000 0.103265 0.250000
O O8 0.998679 0.031717 0.170655
O O9 0.750000 0.000000 0.225484
O O10 0.932329 0.139895 0.401580
O O11 0.750000 0.000000 0.377597
O O12 0.500000 0.250000 0.970272
#
# Coordination Sequence:
#
# PCOD9509689 Si02
#       5
#    16   8  16  16  16
#     4  11  24  42  65  93 129 179 231 283 345 412
#     4  10  24  46  76 108 140 190 234 286 370 430
#     4  12  25  40  64  93 129 180 227 286 345 408
#     4  12  25  45  67 101 139 180 233 291 344 420
#     4  11  23  46  74 108 145 184 233 294 356 430
#
# _framework density 20.968163000000001
#
# number of rings (size 3 to 8) (size 9 to 14) (size 15 to 20)
#    0.000    0.667    3.333    4.667    4.667    0.000 
#    4.000    1.111    0.000    0.000    0.000    0.000 
#    0.000    0.000    0.000    0.000    0.000    0.000 
#
# Total GULP energy -201093.027710 kJ/mol
# GULP energy per Si atom -5585.917436 kJ/mol
# Density = 2.092044 g / cm^3
# Si number density = 20.968163 Si / 1000 Ang^3
#
#
#
# Elastic Constant Matrix: (Units=GPa)
#
#
# Indices 1 2 3 4 5 6 
#
# 1 146.7753 58.7167 34.7871 0.0000 0.0000 0.0000
# 2 58.7167 132.3037 22.5451 0.0000 0.0000 0.0000
# 3 34.7871 22.5451 58.4301 0.0000 0.0000 0.0000
# 4 0.0000 0.0000 0.0000 13.0591 0.0000 0.0000
# 5 0.0000 0.0000 0.0000 0.0000 7.5637 0.0000
# 6 0.0000 0.0000 0.0000 0.0000 0.0000 29.9573
#
#
#
# Elastic Compliance Matrix: (Units=1/GPa)
#
#
# Indices 1 2 3 4 5 6 
#
# 1 0.009135 -0.003348 -0.004147 0.000000 0.000000 0.000000
# 2 -0.003348 0.009317 -0.001602 0.000000 0.000000 0.000000
# 3 -0.004147 -0.001602 0.020202 0.000000 0.000000 0.000000
# 4 0.000000 0.000000 0.000000 0.076575 0.000000 0.000000
# 5 0.000000 0.000000 0.000000 0.000000 0.132210 0.000000
# 6 0.000000 0.000000 0.000000 0.000000 0.000000 0.033381
#
#
# Mechanical properties :
#
#
# Convention : Reuss Voigt Hill
#
# Bulk Modulus (GPa) = 48.87440 63.28967 56.08204
# Shear Modulus (GPa) = 16.34881 24.88003 20.61442
#
# Velocity S-wave (km/s) = 2.79533 3.44839 3.13889
# Velocity P-wave (km/s) = 5.81188 6.79002 6.31990
#
# Compressibility (1/GPa) = 0.02046061
#
# Stress axis : x y z
#
# Youngs Moduli (GPa) = 109.46664 107.33075 49.50100
#
# Poissons Ratio (x) = 0.35929 0.20529
# Poissons Ratio (y) = 0.36644 0.07930
# Poissons Ratio (z) = 0.45397 0.17194
#
# Static dielectric constant tensor:
#      x y z
#    x 1.776400 0.000000 0.000000 
#    y 0.000000 1.779850 0.000000 
#    z 0.000000 0.000000 1.728560 
# 
# From -- ./inp_files/48935.got.cif
#   From: 2010.05.17/outbox.cif.g08.bks.cpg/sg68_25_cif.got.tgz:48935.got - 2010.06.03 18:57:09.
