data_PCOD9509775
_publ_section_title
;
Structure prediction by ZEFSAII (Michael W. Deem and Ramdas Pophale) SiO2 
 PCOD9509775
Probable space group: C C C A
;
_chemical_formula_sum "Si O2"
_cell_formula_units_Z 104
_cell_length_a 18.244739
_cell_length_b 14.665520
_cell_length_c 17.943443
_cell_angle_alpha 90.000000
_cell_angle_beta 90.000000
_cell_angle_gamma 90.000000
_cell_volume 4801.101648
_symmetry_space_group_name_H-M "C C C A"
_symmetry_group_IT_number 68
_space_group.IT_coordinate_system_code '2'
_symmetry_cell_setting 'orthorhombic'
loop_
_space_group_symop_operation_xyz
x,y,z
-x,1/2-y,z
x,1/2-y,1/2-z
-x,y,1/2-z
-x,-y,-z
x,1/2+y,-z
-x,1/2+y,1/2+z
x,-y,1/2+z
1/2+x,1/2+y,z
1/2-x,-y,z
1/2+x,-y,1/2-z
1/2-x,1/2+y,1/2-z
1/2-x,1/2-y,-z
1/2+x,y,-z
1/2-x,y,1/2+z
1/2+x,1/2-y,1/2+z
loop_
_atom_site_type_symbol
_atom_site_label
_atom_site_fract_x
_atom_site_fract_y
_atom_site_fract_z
Si Si1 0.671512 0.477758 0.384523
Si Si2 0.342898 0.859509 0.737518
Si Si3 0.000000 0.940658 0.250000
Si Si4 0.500000 0.750000 0.454638
Si Si5 0.853593 0.683829 0.476276
Si Si6 0.257956 0.691591 0.381701
Si Si7 0.946267 0.605249 0.841168
Si Si8 0.132535 0.250000 0.250000
O O1 0.750000 0.500000 0.418024
O O2 0.682615 0.424046 0.305881
O O3 0.625849 0.408666 0.434708
O O4 0.629888 0.572082 0.376446
O O5 0.335349 0.750000 0.750000
O O6 0.428631 0.882369 0.730867
O O7 0.293294 0.877232 0.664970
O O8 0.017170 0.011129 0.316430
O O9 0.573803 0.760753 0.502298
O O10 0.508383 0.664278 0.399140
O O11 0.798738 0.737661 0.420640
O O12 0.808404 0.659797 0.550471
O O13 0.315041 0.730806 0.320405
O O14 0.919862 0.665796 0.771027
#
# Coordination Sequence:
#
# PCOD9509775 Si02
#       8
#    16  16   8   8  16  16  16   8
#     4  11  24  45  68 103 142 176 228 302 358 404
#     4  11  21  43  73  98 134 186 237 286 352 426
#     4  10  25  39  64 108 140 166 236 299 361 396
#     4  12  26  47  72 101 140 200 240 274 368 449
#     4  11  25  43  67 103 142 186 235 284 358 436
#     4  11  22  41  72 103 132 187 241 288 342 433
#     4  11  24  43  71  99 139 183 231 303 349 413
#     4  12  20  45  82  97 134 182 252 296 344 425
#
# _framework density 21.661695000000002
#
# number of rings (size 3 to 8) (size 9 to 14) (size 15 to 20)
#    0.000    0.923    3.846    3.000    2.154    3.077 
#    2.769    0.000    0.000    0.000    0.000    0.000 
#    0.000    0.000    0.000    0.000    0.000    0.000 
#
# Total GULP energy -290529.863385 kJ/mol
# GULP energy per Si atom -5587.112757 kJ/mol
# Density = 2.161239 g / cm^3
# Si number density = 21.661695 Si / 1000 Ang^3
#
#
#
# Elastic Constant Matrix: (Units=GPa)
#
#
# Indices 1 2 3 4 5 6 
#
# 1 98.9678 15.8147 28.6879 0.0000 0.0000 0.0000
# 2 15.8147 58.5133 16.3946 0.0000 0.0000 0.0000
# 3 28.6879 16.3946 114.7395 0.0000 0.0000 0.0000
# 4 0.0000 0.0000 0.0000 6.4242 0.0000 0.0000
# 5 0.0000 0.0000 0.0000 0.0000 29.9272 0.0000
# 6 0.0000 0.0000 0.0000 0.0000 0.0000 27.7328
#
#
#
# Elastic Compliance Matrix: (Units=1/GPa)
#
#
# Indices 1 2 3 4 5 6 
#
# 1 0.011192 -0.002334 -0.002465 0.000000 0.000000 0.000000
# 2 -0.002334 0.018290 -0.002030 0.000000 0.000000 0.000000
# 3 -0.002465 -0.002030 0.009622 0.000000 0.000000 0.000000
# 4 0.000000 0.000000 0.000000 0.155662 0.000000 0.000000
# 5 0.000000 0.000000 0.000000 0.000000 0.033414 0.000000
# 6 0.000000 0.000000 0.000000 0.000000 0.000000 0.036058
#
#
# Mechanical properties :
#
#
# Convention : Reuss Voigt Hill
#
# Bulk Modulus (GPa) = 39.29927 43.77944 41.53935
# Shear Modulus (GPa) = 17.45950 26.90507 22.18229
#
# Velocity S-wave (km/s) = 2.84211 3.52811 3.20352
# Velocity P-wave (km/s) = 5.38069 6.07051 5.73598
#
# Compressibility (1/GPa) = 0.02544577
#
# Stress axis : x y z
#
# Youngs Moduli (GPa) = 89.35155 54.67549 103.93237
#
# Poissons Ratio (x) = 0.12763 0.25616
# Poissons Ratio (y) = 0.20857 0.21095
# Poissons Ratio (z) = 0.22022 0.11097
#
# Static dielectric constant tensor:
#      x y z
#    x 1.809060 0.000000 0.000000 
#    y 0.000000 1.780130 0.000000 
#    z 0.000000 0.000000 1.821730 
# 
# From -- ./inp_files/33054.got.cif
#   From: 2010.05.17/outbox.cif.g08.bks.cpg/sg68_17_cif.got.tgz:33054.got - 2010.06.03 18:57:09.
