data_PCOD9509598
_publ_section_title
;
Structure prediction by ZEFSAII (Michael W. Deem and Ramdas Pophale) SiO2 
 PCOD9509598
Probable space group: C C C A
;
_chemical_formula_sum "Si O2"
_cell_formula_units_Z 40
_cell_length_a 9.608763
_cell_length_b 18.164668
_cell_length_c 8.833968
_cell_angle_alpha 90.000000
_cell_angle_beta 90.000000
_cell_angle_gamma 90.000000
_cell_volume 1541.880684
_symmetry_space_group_name_H-M "C C C A"
_symmetry_group_IT_number 68
_space_group.IT_coordinate_system_code '2'
_symmetry_cell_setting 'orthorhombic'
loop_
_space_group_symop_operation_xyz
x,y,z
-x,1/2-y,z
x,1/2-y,1/2-z
-x,y,1/2-z
-x,-y,-z
x,1/2+y,-z
-x,1/2+y,1/2+z
x,-y,1/2+z
1/2+x,1/2+y,z
1/2-x,-y,z
1/2+x,-y,1/2-z
1/2-x,1/2+y,1/2-z
1/2-x,1/2-y,-z
1/2+x,y,-z
1/2-x,y,1/2+z
1/2+x,1/2-y,1/2+z
loop_
_atom_site_type_symbol
_atom_site_label
_atom_site_fract_x
_atom_site_fract_y
_atom_site_fract_z
Si Si1 0.000000 0.486207 0.750000
Si Si2 0.392743 0.603220 0.009716
Si Si3 0.851502 0.300099 0.903414
O O1 0.893991 0.433658 0.656864
O O2 0.942885 0.540999 0.875861
O O3 0.248833 0.628609 0.084087
O O4 0.506860 0.669355 0.982320
O O5 0.863201 0.250000 0.750000
O O6 0.750000 0.250000 0.000000
#
# Coordination Sequence:
#
# PCOD9509598 Si02
#       3
#     8  16  16
#     4  10  24  44  70 100 140 182 240 298 364 432
#     4  11  25  44  70 102 139 187 238 300 362 431
#     4  12  26  45  70 103 144 188 241 298 365 442
#
# _framework density 25.942346000000001
#
# number of rings (size 3 to 8) (size 9 to 14) (size 15 to 20)
#    0.000    0.800    0.000    6.000    0.000   12.800 
#    0.000    0.000    0.000    0.000    0.000    0.000 
#    0.000    0.000    0.000    0.000    0.000    0.000 
#
# Total GULP energy -111499.111917 kJ/mol
# GULP energy per Si atom -5574.955596 kJ/mol
# Density = 2.588330 g / cm^3
# Si number density = 25.942346 Si / 1000 Ang^3
#
#
#
# Elastic Constant Matrix: (Units=GPa)
#
#
# Indices 1 2 3 4 5 6 
#
# 1 186.7257 54.3960 80.4542 0.0000 0.0000 0.0000
# 2 54.3960 111.2612 68.4266 0.0000 0.0000 0.0000
# 3 80.4542 68.4266 198.7007 0.0000 0.0000 0.0000
# 4 0.0000 0.0000 0.0000 83.4110 0.0000 0.0000
# 5 0.0000 0.0000 0.0000 0.0000 46.8050 0.0000
# 6 0.0000 0.0000 0.0000 0.0000 0.0000 90.9025
#
#
#
# Elastic Compliance Matrix: (Units=1/GPa)
#
#
# Indices 1 2 3 4 5 6 
#
# 1 0.006848 -0.002084 -0.002055 0.000000 0.000000 0.000000
# 2 -0.002084 0.012037 -0.003301 0.000000 0.000000 0.000000
# 3 -0.002055 -0.003301 0.007002 0.000000 0.000000 0.000000
# 4 0.000000 0.000000 0.000000 0.011989 0.000000 0.000000
# 5 0.000000 0.000000 0.000000 0.000000 0.021365 0.000000
# 6 0.000000 0.000000 0.000000 0.000000 0.000000 0.011001
#
#
# Mechanical properties :
#
#
# Convention : Reuss Voigt Hill
#
# Bulk Modulus (GPa) = 90.86169 100.36017 95.61093
# Shear Modulus (GPa) = 56.31167 63.78443 60.04805
#
# Velocity S-wave (km/s) = 4.66407 4.96391 4.81632
# Velocity P-wave (km/s) = 8.00658 8.46308 8.23799
#
# Compressibility (1/GPa) = 0.01100574
#
# Stress axis : x y z
#
# Youngs Moduli (GPa) = 146.02676 83.07596 142.82273
#
# Poissons Ratio (x) = 0.17314 0.29351
# Poissons Ratio (y) = 0.30434 0.47151
# Poissons Ratio (z) = 0.30009 0.27426
#
# Static dielectric constant tensor:
#      x y z
#    x 2.195910 0.000000 0.000000 
#    y 0.000000 2.312720 0.000000 
#    z 0.000000 0.000000 2.060990 
# 
# From -- ./inp_files/3233.got.cif
#   From: 2010.05.17/outbox.cif.g08.bks.cpg/sg68_2_cif.got.tgz:3233.got - 2010.06.03 18:57:09.
