data_PCOD9509451
_publ_section_title
;
Structure prediction by ZEFSAII (Michael W. Deem and Ramdas Pophale) SiO2 
 PCOD9509451
Probable space group: C C C A
;
_chemical_formula_sum "Si O2"
_cell_formula_units_Z 60
_cell_length_a 10.932630
_cell_length_b 8.168368
_cell_length_c 28.656428
_cell_angle_alpha 90.000000
_cell_angle_beta 90.000000
_cell_angle_gamma 90.000000
_cell_volume 2559.069027
_symmetry_space_group_name_H-M "C C C A"
_symmetry_group_IT_number 68
_space_group.IT_coordinate_system_code '2'
_symmetry_cell_setting 'orthorhombic'
loop_
_space_group_symop_operation_xyz
x,y,z
-x,1/2-y,z
x,1/2-y,1/2-z
-x,y,1/2-z
-x,-y,-z
x,1/2+y,-z
-x,1/2+y,1/2+z
x,-y,1/2+z
1/2+x,1/2+y,z
1/2-x,-y,z
1/2+x,-y,1/2-z
1/2-x,1/2+y,1/2-z
1/2-x,1/2-y,-z
1/2+x,y,-z
1/2-x,y,1/2+z
1/2+x,1/2-y,1/2+z
loop_
_atom_site_type_symbol
_atom_site_label
_atom_site_fract_x
_atom_site_fract_y
_atom_site_fract_z
Si Si1 0.500000 0.250000 0.250000
Si Si2 0.750000 0.000000 0.491136
Si Si3 0.360809 0.797251 0.434787
Si Si4 0.615123 0.975849 0.314659
Si Si5 0.351501 0.117950 0.832053
O O1 0.413255 0.376754 0.278729
O O2 0.710002 0.851289 0.458949
O O3 0.853563 0.943601 0.527822
O O4 0.500000 0.750000 0.427333
O O5 0.307309 0.834373 0.383932
O O6 0.628344 0.782609 0.302468
O O7 0.482671 0.970189 0.340010
O O8 0.750000 0.000000 0.336794
O O9 0.250000 0.000000 0.810576
#
# Coordination Sequence:
#
# PCOD9509451 Si02
#       5
#     4   8  16  16  16
#     4  12  28  50  76 110 144 186 244 308 368 452
#     4  10  24  38  66  98 138 188 244 298 368 408
#     4  11  21  42  63  97 139 184 240 303 352 425
#     4  11  26  48  74 105 140 185 238 293 372 443
#     4  11  24  44  71 105 146 187 242 301 363 438
#
# _framework density 23.446026
#
# number of rings (size 3 to 8) (size 9 to 14) (size 15 to 20)
#    0.000    1.067    4.000    2.400    1.867    7.467 
#    0.000    0.000    0.000    0.000    0.000    0.000 
#    0.000    0.000    0.000    0.000    0.000    0.000 
#
# Total GULP energy -167186.613972 kJ/mol
# GULP energy per Si atom -5572.887132 kJ/mol
# Density = 2.339266 g / cm^3
# Si number density = 23.446026 Si / 1000 Ang^3
#
#
#
# Elastic Constant Matrix: (Units=GPa)
#
#
# Indices 1 2 3 4 5 6 
#
# 1 115.2462 44.4520 -0.7537 0.0000 0.0000 0.0000
# 2 44.4520 140.2305 62.7651 0.0000 0.0000 0.0000
# 3 -0.7537 62.7651 101.3804 0.0000 0.0000 0.0000
# 4 0.0000 0.0000 0.0000 50.8591 0.0000 0.0000
# 5 0.0000 0.0000 0.0000 0.0000 34.0885 0.0000
# 6 0.0000 0.0000 0.0000 0.0000 0.0000 50.1227
#
#
#
# Elastic Compliance Matrix: (Units=1/GPa)
#
#
# Indices 1 2 3 4 5 6 
#
# 1 0.010489 -0.004648 0.002955 0.000000 0.000000 0.000000
# 2 -0.004648 0.011924 -0.007417 0.000000 0.000000 0.000000
# 3 0.002955 -0.007417 0.014478 0.000000 0.000000 0.000000
# 4 0.000000 0.000000 0.000000 0.019662 0.000000 0.000000
# 5 0.000000 0.000000 0.000000 0.000000 0.029335 0.000000
# 6 0.000000 0.000000 0.000000 0.000000 0.000000 0.019951
#
#
# Mechanical properties :
#
#
# Convention : Reuss Voigt Hill
#
# Bulk Modulus (GPa) = 53.55468 63.30929 58.43199
# Shear Modulus (GPa) = 38.37834 43.70698 41.04266
#
# Velocity S-wave (km/s) = 4.05023 4.32227 4.18846
# Velocity P-wave (km/s) = 6.69057 7.20903 6.95463
#
# Compressibility (1/GPa) = 0.01867250
#
# Stress axis : x y z
#
# Youngs Moduli (GPa) = 95.33693 83.86392 69.07227
#
# Poissons Ratio (x) = 0.38978 -0.20414
# Poissons Ratio (y) = 0.44311 0.51230
# Poissons Ratio (z) = -0.28176 0.62200
#
# Static dielectric constant tensor:
#      x y z
#    x 1.935700 0.000000 0.000000 
#    y 0.000000 1.994190 0.000000 
#    z 0.000000 0.000000 1.877610 
# 
# From -- ./inp_files/49925.got.cif
#   From: 2010.05.17/outbox.cif.g08.bks.cpg/sg68_25_cif.got.tgz:49925.got - 2010.06.03 18:57:09.
