data_PCOD9509637
_publ_section_title
;
Structure prediction by ZEFSAII (Michael W. Deem and Ramdas Pophale) SiO2 
 PCOD9509637
Probable space group: C C C A
;
_chemical_formula_sum "Si O2"
_cell_formula_units_Z 68
_cell_length_a 8.690949
_cell_length_b 12.235516
_cell_length_c 31.507459
_cell_angle_alpha 90.000000
_cell_angle_beta 90.000000
_cell_angle_gamma 90.000000
_cell_volume 3350.447912
_symmetry_space_group_name_H-M "C C C A"
_symmetry_group_IT_number 68
_space_group.IT_coordinate_system_code '2'
_symmetry_cell_setting 'orthorhombic'
loop_
_space_group_symop_operation_xyz
x,y,z
-x,1/2-y,z
x,1/2-y,1/2-z
-x,y,1/2-z
-x,-y,-z
x,1/2+y,-z
-x,1/2+y,1/2+z
x,-y,1/2+z
1/2+x,1/2+y,z
1/2-x,-y,z
1/2+x,-y,1/2-z
1/2-x,1/2+y,1/2-z
1/2-x,1/2-y,-z
1/2+x,y,-z
1/2-x,y,1/2+z
1/2+x,1/2-y,1/2+z
loop_
_atom_site_type_symbol
_atom_site_label
_atom_site_fract_x
_atom_site_fract_y
_atom_site_fract_z
Si Si1 0.824569 0.738510 0.045875
Si Si2 0.000000 0.750000 0.250000
Si Si3 0.386853 0.651443 0.104498
Si Si4 0.598234 0.944391 0.884636
Si Si5 0.829848 0.381973 0.821342
O O1 0.753769 0.838407 0.072362
O O2 0.830900 0.633379 0.078242
O O3 0.000000 0.750000 0.036272
O O4 0.750000 0.750000 0.000000
O O5 0.888049 0.822371 0.220445
O O6 0.500000 0.750000 0.094136
O O7 0.484672 0.541647 0.100280
O O8 0.305601 0.670947 0.150027
O O9 0.485087 0.886922 0.850688
O O10 0.750000 0.000000 0.864313
O O11 0.750000 0.500000 0.812805
#
# Coordination Sequence:
#
# PCOD9509637 Si02
#       5
#    16   4  16  16  16
#     4  12  25  42  62  97 135 172 227 288 337 394
#     4  12  24  44  74  98 144 180 210 292 368 382
#     4  11  22  43  68  96 127 180 229 266 337 410
#     4  11  23  42  71  93 128 179 225 273 335 407
#     4  10  24  45  68 101 133 177 226 276 337 426
#
# _framework density 20.295793
#
# number of rings (size 3 to 8) (size 9 to 14) (size 15 to 20)
#    0.000    0.941    4.706    2.118    0.000    1.882 
#    4.235    0.000    0.000    0.000    0.000    0.000 
#    0.000    0.000    0.000    0.000    0.000    0.000 
#
# Total GULP energy -189365.401120 kJ/mol
# GULP energy per Si atom -5569.570621 kJ/mol
# Density = 2.024960 g / cm^3
# Si number density = 20.295793 Si / 1000 Ang^3
#
#
#
# Elastic Constant Matrix: (Units=GPa)
#
#
# Indices 1 2 3 4 5 6 
#
# 1 143.0616 29.7922 37.9673 0.0000 0.0000 0.0000
# 2 29.7922 66.7396 37.9806 0.0000 0.0000 0.0000
# 3 37.9673 37.9806 109.4891 0.0000 0.0000 0.0000
# 4 0.0000 0.0000 0.0000 -36.8959 0.0000 0.0000
# 5 0.0000 0.0000 0.0000 0.0000 38.4414 0.0000
# 6 0.0000 0.0000 0.0000 0.0000 0.0000 32.9999
#
#
#
# Elastic Compliance Matrix: (Units=1/GPa)
#
#
# Indices 1 2 3 4 5 6 
#
# 1 0.008017 -0.002488 -0.001917 0.000000 0.000000 0.000000
# 2 -0.002488 0.019441 -0.005881 0.000000 0.000000 0.000000
# 3 -0.001917 -0.005881 0.011838 0.000000 0.000000 0.000000
# 4 0.000000 0.000000 0.000000 -0.027103 0.000000 0.000000
# 5 0.000000 0.000000 0.000000 0.000000 0.026014 0.000000
# 6 0.000000 0.000000 0.000000 0.000000 0.000000 0.030303
#
#
# Mechanical properties :
#
#
# Convention : Reuss Voigt Hill
#
# Bulk Modulus (GPa) = 53.40690 58.97449 56.19070
# Shear Modulus (GPa) = 52.45330 21.14575 36.79952
#
# Velocity S-wave (km/s) = 5.08926 3.23132 4.26274
# Velocity P-wave (km/s) = 7.80419 6.56067 7.20930
#
# Compressibility (1/GPa) = 0.01872417
#
# Stress axis : x y z
#
# Youngs Moduli (GPa) = 124.73784 51.43757 84.47220
#
# Poissons Ratio (x) = 0.12796 0.16193
# Poissons Ratio (y) = 0.31031 0.49680
# Poissons Ratio (z) = 0.23912 0.30252
#
# Static dielectric constant tensor:
#      x y z
#    x 1.704540 0.000000 0.000000 
#    y 0.000000 1.806630 0.000000 
#    z 0.000000 0.000000 1.727700 
# 
# From -- ./inp_files/48841.got.cif
#   From: 2010.05.17/outbox.cif.g08.bks.cpg/sg68_25_cif.got.tgz:48841.got - 2010.06.03 18:57:09.
