data_PCOD9509972
_publ_section_title
;
Structure prediction by ZEFSAII (Michael W. Deem and Ramdas Pophale) SiO2 
 PCOD9509972
Probable space group: C C C A
;
_chemical_formula_sum "Si O2"
_cell_formula_units_Z 88
_cell_length_a 18.991721
_cell_length_b 13.494686
_cell_length_c 14.877779
_cell_angle_alpha 90.000000
_cell_angle_beta 90.000000
_cell_angle_gamma 90.000000
_cell_volume 3812.985981
_symmetry_space_group_name_H-M "C C C A"
_symmetry_group_IT_number 68
_space_group.IT_coordinate_system_code '2'
_symmetry_cell_setting 'orthorhombic'
loop_
_space_group_symop_operation_xyz
x,y,z
-x,1/2-y,z
x,1/2-y,1/2-z
-x,y,1/2-z
-x,-y,-z
x,1/2+y,-z
-x,1/2+y,1/2+z
x,-y,1/2+z
1/2+x,1/2+y,z
1/2-x,-y,z
1/2+x,-y,1/2-z
1/2-x,1/2+y,1/2-z
1/2-x,1/2-y,-z
1/2+x,y,-z
1/2-x,y,1/2+z
1/2+x,1/2-y,1/2+z
loop_
_atom_site_type_symbol
_atom_site_label
_atom_site_fract_x
_atom_site_fract_y
_atom_site_fract_z
Si Si1 0.181540 0.058151 0.517571
Si Si2 0.329636 0.467147 0.784306
Si Si3 0.708688 0.750000 0.250000
Si Si4 0.172878 0.243679 0.895233
Si Si5 0.410673 0.958922 0.885974
Si Si6 0.033628 0.845209 0.151287
O O1 0.164765 0.003780 0.612747
O O2 0.117449 0.043930 0.450437
O O3 0.250000 0.000000 0.482270
O O4 0.195394 0.174817 0.530800
O O5 0.250000 0.500000 0.757694
O O6 0.333057 0.348517 0.776529
O O7 0.384646 0.514323 0.714807
O O8 0.761184 0.775774 0.168242
O O9 0.132675 0.141126 0.914397
O O10 0.114247 0.312924 0.844452
O O11 0.494145 0.938989 0.891089
O O12 0.000000 0.750000 0.101441
O O13 0.000000 0.846276 0.250000
#
# Coordination Sequence:
#
# PCOD9509972 Si02
#       6
#    16  16   8  16  16  16
#     4  11  23  37  55  89 119 155 202 240 304 365
#     4  11  21  37  58  88 124 160 195 248 310 359
#     4  12  20  36  63  90 127 158 198 256 308 372
#     4  11  20  36  60  83 120 156 197 257 301 351
#     4  11  23  38  61  87 122 157 204 247 303 370
#     4   9  18  34  59  89 112 152 204 252 297 343
#
# _framework density 23.079025000000001
#
# number of rings (size 3 to 8) (size 9 to 14) (size 15 to 20)
#    0.000    1.273    5.455    3.818    0.000    2.909 
#    0.000    0.000    0.000    0.000    0.000    4.455 
#    0.000    0.000    0.000    0.000    0.000    0.000 
#
# Total GULP energy -245561.113406 kJ/mol
# GULP energy per Si atom -5580.934396 kJ/mol
# Density = 2.302650 g / cm^3
# Si number density = 23.079025 Si / 1000 Ang^3
#
#
#
# Elastic Constant Matrix: (Units=GPa)
#
#
# Indices 1 2 3 4 5 6 
#
# 1 58.2040 -4.1505 11.7242 0.0000 0.0000 0.0000
# 2 -4.1505 96.8220 2.6032 0.0000 0.0000 0.0000
# 3 11.7242 2.6032 58.9159 0.0000 0.0000 0.0000
# 4 0.0000 0.0000 0.0000 -0.7894 0.0000 0.0000
# 5 0.0000 0.0000 0.0000 0.0000 7.9697 0.0000
# 6 0.0000 0.0000 0.0000 0.0000 0.0000 26.2339
#
#
#
# Elastic Compliance Matrix: (Units=1/GPa)
#
#
# Indices 1 2 3 4 5 6 
#
# 1 0.017971 0.000868 -0.003615 0.000000 0.000000 0.000000
# 2 0.000868 0.010382 -0.000631 0.000000 0.000000 0.000000
# 3 -0.003615 -0.000631 0.017721 0.000000 0.000000 0.000000
# 4 0.000000 0.000000 0.000000 -1.266776 0.000000 0.000000
# 5 0.000000 0.000000 0.000000 0.000000 0.125475 0.000000
# 6 0.000000 0.000000 0.000000 0.000000 0.000000 0.038119
#
#
# Mechanical properties :
#
#
# Convention : Reuss Voigt Hill
#
# Bulk Modulus (GPa) = 25.43422 26.03285 25.73354
# Shear Modulus (GPa) = -4.82046 20.26717 7.72336
#
# Velocity S-wave (km/s) = -1.44679 2.96660 1.83132
# Velocity P-wave (km/s) = 2.87289 4.79986 3.95551
#
# Compressibility (1/GPa) = 0.03931711
#
# Stress axis : x y z
#
# Youngs Moduli (GPa) = 55.64558 96.31689 56.43171
#
# Poissons Ratio (x) = -0.08356 0.20397
# Poissons Ratio (y) = -0.04827 0.03563
# Poissons Ratio (z) = 0.20113 0.06081
#
# Static dielectric constant tensor:
#      x y z
#    x 1.962640 0.000000 0.000000 
#    y 0.000000 1.974280 0.000000 
#    z 0.000000 0.000000 1.934700 
# 
# From -- ./inp_files/25245.got.cif
#   From: 2010.05.17/outbox.cif.g08.bks.cpg/sg68_13_cif.got.tgz:25245.got - 2010.06.03 18:57:09.
