data_PCOD9509384
_publ_section_title
;
Structure prediction by ZEFSAII (Michael W. Deem and Ramdas Pophale) SiO2 
 PCOD9509384
Probable space group: C C C A
;
_chemical_formula_sum "Si O2"
_cell_formula_units_Z 68
_cell_length_a 21.322270
_cell_length_b 9.943226
_cell_length_c 12.877202
_cell_angle_alpha 90.000000
_cell_angle_beta 90.000000
_cell_angle_gamma 90.000000
_cell_volume 2730.123275
_symmetry_space_group_name_H-M "C C C A"
_symmetry_group_IT_number 68
_space_group.IT_coordinate_system_code '2'
_symmetry_cell_setting 'orthorhombic'
loop_
_space_group_symop_operation_xyz
x,y,z
-x,1/2-y,z
x,1/2-y,1/2-z
-x,y,1/2-z
-x,-y,-z
x,1/2+y,-z
-x,1/2+y,1/2+z
x,-y,1/2+z
1/2+x,1/2+y,z
1/2-x,-y,z
1/2+x,-y,1/2-z
1/2-x,1/2+y,1/2-z
1/2-x,1/2-y,-z
1/2+x,y,-z
1/2-x,y,1/2+z
1/2+x,1/2-y,1/2+z
loop_
_atom_site_type_symbol
_atom_site_label
_atom_site_fract_x
_atom_site_fract_y
_atom_site_fract_z
Si Si1 0.500000 0.750000 0.750000
Si Si2 0.676984 0.345861 0.907357
Si Si3 0.102469 0.442186 0.738871
Si Si4 0.062863 0.816304 0.635282
Si Si5 0.281561 0.863806 0.637993
O O1 0.548573 0.848409 0.690293
O O2 0.641153 0.461735 0.841374
O O3 0.624349 0.230598 0.924370
O O4 0.736030 0.265844 0.857387
O O5 0.701696 0.390955 0.017916
O O6 0.067426 0.530268 0.829323
O O7 0.153520 0.360586 0.802950
O O8 0.068226 0.750000 0.750000
O O9 0.000000 0.750000 0.590082
O O10 0.250000 0.000000 0.678809
#
# Coordination Sequence:
#
# PCOD9509384 Si02
#       5
#     4  16  16  16  16
#     4  12  28  48  70 108 148 182 262 306 356 448
#     4  10  23  45  71 105 149 191 239 300 370 445
#     4  11  24  46  71 101 145 193 236 309 368 429
#     4   9  17  38  68  96 133 190 240 282 356 439
#     4  11  24  43  71 111 145 187 246 300 362 447
#
# _framework density 24.907298999999998
#
# number of rings (size 3 to 8) (size 9 to 14) (size 15 to 20)
#    0.000    1.647    2.353    2.824    0.000    6.588 
#    2.118    2.353    0.000    0.000    0.000    0.000 
#    0.000    0.000    0.000    0.000    0.000    0.000 
#
# Total GULP energy -189789.709274 kJ/mol
# GULP energy per Si atom -5582.050273 kJ/mol
# Density = 2.485061 g / cm^3
# Si number density = 24.907299 Si / 1000 Ang^3
#
#
#
# Elastic Constant Matrix: (Units=GPa)
#
#
# Indices 1 2 3 4 5 6 
#
# 1 189.2581 91.4254 40.2472 0.0000 0.0000 0.0000
# 2 91.4254 134.7736 40.8772 0.0000 0.0000 0.0000
# 3 40.2472 40.8772 63.9840 0.0000 0.0000 0.0000
# 4 0.0000 0.0000 0.0000 23.5931 0.0000 0.0000
# 5 0.0000 0.0000 0.0000 0.0000 1266.6671 0.0000
# 6 0.0000 0.0000 0.0000 0.0000 0.0000 61.1156
#
#
#
# Elastic Compliance Matrix: (Units=1/GPa)
#
#
# Indices 1 2 3 4 5 6 
#
# 1 0.008051 -0.004869 -0.001954 0.000000 0.000000 0.000000
# 2 -0.004869 0.012148 -0.004698 0.000000 0.000000 0.000000
# 3 -0.001954 -0.004698 0.019859 0.000000 0.000000 0.000000
# 4 0.000000 0.000000 0.000000 0.042385 0.000000 0.000000
# 5 0.000000 0.000000 0.000000 0.000000 0.000789 0.000000
# 6 0.000000 0.000000 0.000000 0.000000 0.000000 0.016362
#
#
# Mechanical properties :
#
#
# Convention : Reuss Voigt Hill
#
# Bulk Modulus (GPa) = 58.76611 81.45725 70.11168
# Shear Modulus (GPa) = 38.96813 284.63956 161.80385
#
# Velocity S-wave (km/s) = 3.95970 10.70176 8.06867
# Velocity P-wave (km/s) = 6.67464 13.61906 10.72449
#
# Compressibility (1/GPa) = 0.01701661
#
# Stress axis : x y z
#
# Youngs Moduli (GPa) = 124.20095 82.31878 50.35431
#
# Poissons Ratio (x) = 0.40083 0.09838
# Poissons Ratio (y) = 0.60477 0.23657
# Poissons Ratio (z) = 0.24266 0.38674
#
# Static dielectric constant tensor:
#      x y z
#    x 2.054060 0.000000 0.000000 
#    y 0.000000 2.355440 0.000000 
#    z 0.000000 0.000000 1.979810 
# 
# From -- ./inp_files/24247.got.cif
#   From: 2010.05.17/outbox.cif.g08.bks.cpg/sg68_13_cif.got.tgz:24247.got - 2010.06.03 18:57:09.
