data_PCOD9509235
_publ_section_title
;
Structure prediction by ZEFSAII (Michael W. Deem and Ramdas Pophale) SiO2 
 PCOD9509235
Probable space group: C C C A
;
_chemical_formula_sum "Si O2"
_cell_formula_units_Z 96
_cell_length_a 13.922543
_cell_length_b 21.281716
_cell_length_c 14.152431
_cell_angle_alpha 90.000000
_cell_angle_beta 90.000000
_cell_angle_gamma 90.000000
_cell_volume 4193.303121
_symmetry_space_group_name_H-M "C C C A"
_symmetry_group_IT_number 68
_space_group.IT_coordinate_system_code '2'
_symmetry_cell_setting 'orthorhombic'
loop_
_space_group_symop_operation_xyz
x,y,z
-x,1/2-y,z
x,1/2-y,1/2-z
-x,y,1/2-z
-x,-y,-z
x,1/2+y,-z
-x,1/2+y,1/2+z
x,-y,1/2+z
1/2+x,1/2+y,z
1/2-x,-y,z
1/2+x,-y,1/2-z
1/2-x,1/2+y,1/2-z
1/2-x,1/2-y,-z
1/2+x,y,-z
1/2-x,y,1/2+z
1/2+x,1/2-y,1/2+z
loop_
_atom_site_type_symbol
_atom_site_label
_atom_site_fract_x
_atom_site_fract_y
_atom_site_fract_z
Si Si1 0.595009 0.654327 0.191074
Si Si2 0.698671 0.106823 0.468245
Si Si3 0.501312 0.575608 0.020512
Si Si4 0.635685 0.362020 0.380417
Si Si5 0.735206 0.733679 0.608973
Si Si6 0.233307 0.432203 0.769662
O O1 0.500000 0.671778 0.250000
O O2 0.558771 0.606207 0.108718
O O3 0.660668 0.713198 0.152801
O O4 0.674771 0.613050 0.245281
O O5 0.609567 0.091410 0.532304
O O6 0.787387 0.115784 0.538960
O O7 0.680587 0.168621 0.403866
O O8 0.715728 0.060370 0.381477
O O9 0.500000 0.500000 0.000000
O O10 0.538221 0.617726 0.931872
O O11 0.671177 0.291259 0.353987
O O12 0.646407 0.401676 0.286241
O O13 0.750000 0.750000 0.500000
O O14 0.250000 0.500000 0.726715
#
# Coordination Sequence:
#
# PCOD9509235 Si02
#       6
#    16  16  16  16  16  16
#     4  11  23  43  70 107 135 182 246 312 357 436
#     4  10  23  42  66  96 133 187 227 289 361 431
#     4  12  25  41  68 101 141 187 244 289 364 447
#     4  11  24  44  69  98 137 187 226 300 364 427
#     4   9  19  46  67  94 140 180 224 284 371 425
#     4  11  24  42  65  94 141 184 226 294 373 432
#
# _framework density 22.893647000000001
#
# number of rings (size 3 to 8) (size 9 to 14) (size 15 to 20)
#    0.000    1.333    5.000    2.000    4.667    4.000 
#    0.000    8.333    0.000    4.000    0.000    0.000 
#    0.000    0.000    0.000    0.000    0.000    0.000 
#
# Total GULP energy -267344.882892 kJ/mol
# GULP energy per Si atom -5569.685060 kJ/mol
# Density = 2.284154 g / cm^3
# Si number density = 22.893647 Si / 1000 Ang^3
#
#
#
# Elastic Constant Matrix: (Units=GPa)
#
#
# Indices 1 2 3 4 5 6 
#
# 1 89.8793 5.0671 12.1192 0.0000 0.0000 0.0000
# 2 5.0671 97.3209 26.2781 0.0000 0.0000 0.0000
# 3 12.1192 26.2781 80.3110 0.0000 0.0000 0.0000
# 4 0.0000 0.0000 0.0000 8.5089 0.0000 0.0000
# 5 0.0000 0.0000 0.0000 0.0000 47.2007 0.0000
# 6 0.0000 0.0000 0.0000 0.0000 0.0000 9.3733
#
#
#
# Elastic Compliance Matrix: (Units=1/GPa)
#
#
# Indices 1 2 3 4 5 6 
#
# 1 0.011359 -0.000141 -0.001668 0.000000 0.000000 0.000000
# 2 -0.000141 0.011273 -0.003667 0.000000 0.000000 0.000000
# 3 -0.001668 -0.003667 0.013903 0.000000 0.000000 0.000000
# 4 0.000000 0.000000 0.000000 0.117524 0.000000 0.000000
# 5 0.000000 0.000000 0.000000 0.000000 0.021186 0.000000
# 6 0.000000 0.000000 0.000000 0.000000 0.000000 0.106686
#
#
# Mechanical properties :
#
#
# Convention : Reuss Voigt Hill
#
# Bulk Modulus (GPa) = 39.08922 39.38224 39.23573
# Shear Modulus (GPa) = 16.58861 27.95301 22.27081
#
# Velocity S-wave (km/s) = 2.69475 3.49806 3.12235
# Velocity P-wave (km/s) = 5.17625 5.79266 5.49311
#
# Compressibility (1/GPa) = 0.02558250
#
# Stress axis : x y z
#
# Youngs Moduli (GPa) = 88.03678 88.70879 71.92573
#
# Poissons Ratio (x) = 0.01251 0.11997
# Poissons Ratio (y) = 0.01242 0.26377
# Poissons Ratio (z) = 0.14684 0.32532
#
# Static dielectric constant tensor:
#      x y z
#    x 4.494910 0.000000 0.000000 
#    y 0.000000 1.844740 0.000000 
#    z 0.000000 0.000000 1.720850 
# 
# From -- ./inp_files/22375.got.cif
#   From: 2010.05.17/outbox.cif.g08.bks.cpg/sg68_12_cif.got.tgz:22375.got - 2010.06.03 18:57:09.
