data_PCOD9509726
_publ_section_title
;
Structure prediction by ZEFSAII (Michael W. Deem and Ramdas Pophale) SiO2 
 PCOD9509726
Probable space group: C C C A
;
_chemical_formula_sum "Si O2"
_cell_formula_units_Z 100
_cell_length_a 8.619017
_cell_length_b 22.322887
_cell_length_c 21.238853
_cell_angle_alpha 90.000000
_cell_angle_beta 90.000000
_cell_angle_gamma 90.000000
_cell_volume 4086.383831
_symmetry_space_group_name_H-M "C C C A"
_symmetry_group_IT_number 68
_space_group.IT_coordinate_system_code '2'
_symmetry_cell_setting 'orthorhombic'
loop_
_space_group_symop_operation_xyz
x,y,z
-x,1/2-y,z
x,1/2-y,1/2-z
-x,y,1/2-z
-x,-y,-z
x,1/2+y,-z
-x,1/2+y,1/2+z
x,-y,1/2+z
1/2+x,1/2+y,z
1/2-x,-y,z
1/2+x,-y,1/2-z
1/2-x,1/2+y,1/2-z
1/2-x,1/2-y,-z
1/2+x,y,-z
1/2-x,y,1/2+z
1/2+x,1/2-y,1/2+z
loop_
_atom_site_type_symbol
_atom_site_label
_atom_site_fract_x
_atom_site_fract_y
_atom_site_fract_z
Si Si1 0.965949 0.181737 0.945861
Si Si2 0.685869 0.565933 0.260863
Si Si3 0.295096 0.148527 0.653846
Si Si4 0.500000 0.750000 0.331221
Si Si5 0.283655 0.827046 0.846227
Si Si6 0.750000 0.000000 0.526737
Si Si7 0.000000 0.750000 0.250000
Si Si8 0.010815 0.584005 0.950869
O O1 0.116849 0.161853 0.907622
O O2 0.000000 0.250000 0.966797
O O3 0.829568 0.178010 0.893386
O O4 0.946153 0.134427 0.001348
O O5 0.500000 0.564827 0.250000
O O6 0.750000 0.500000 0.270303
O O7 0.766226 0.597347 0.199748
O O8 0.729471 0.611837 0.315343
O O9 0.388751 0.197477 0.696507
O O10 0.414366 0.116305 0.607870
O O11 0.365963 0.787623 0.364364
O O12 0.392096 0.790625 0.795769
O O13 0.645665 0.955546 0.484039
O O14 0.873023 0.961318 0.565072
#
# Coordination Sequence:
#
# PCOD9509726 Si02
#       8
#    16  16  16   8  16   8   4  16
#     4  12  26  47  74 114 153 192 244 309 382 449
#     4  12  30  50  72 109 148 195 251 308 368 441
#     4  12  27  48  74 108 151 195 241 314 376 448
#     4  12  24  45  75 106 143 184 248 295 378 440
#     4  12  25  47  74 111 146 200 243 307 372 453
#     4  10  24  48  70 100 142 194 254 288 364 438
#     4  12  24  42  78 104 150 190 256 290 374 454
#     4  11  26  47  74 108 144 200 246 310 368 444
#
# _framework density 24.471513999999999
#
# number of rings (size 3 to 8) (size 9 to 14) (size 15 to 20)
#    0.000    0.320    5.600    1.920    7.840    1.280 
#    2.880    0.000    0.000    0.000    0.000    0.000 
#    0.000    0.000    0.000    0.000    0.000    0.000 
#
# Total GULP energy -279968.423676 kJ/mol
# GULP energy per Si atom -5599.368474 kJ/mol
# Density = 2.441582 g / cm^3
# Si number density = 24.471514 Si / 1000 Ang^3
#
#
#
# Elastic Constant Matrix: (Units=GPa)
#
#
# Indices 1 2 3 4 5 6 
#
# 1 114.2187 67.7506 18.9292 0.0000 0.0000 0.0000
# 2 67.7506 185.8350 43.2035 0.0000 0.0000 0.0000
# 3 18.9292 43.2035 66.6101 0.0000 0.0000 0.0000
# 4 0.0000 0.0000 0.0000 13.3454 0.0000 0.0000
# 5 0.0000 0.0000 0.0000 0.0000 23.5288 0.0000
# 6 0.0000 0.0000 0.0000 0.0000 0.0000 61.4792
#
#
#
# Elastic Compliance Matrix: (Units=1/GPa)
#
#
# Indices 1 2 3 4 5 6 
#
# 1 0.011193 -0.003935 -0.000629 0.000000 0.000000 0.000000
# 2 -0.003935 0.007720 -0.003889 0.000000 0.000000 0.000000
# 3 -0.000629 -0.003889 0.017714 0.000000 0.000000 0.000000
# 4 0.000000 0.000000 0.000000 0.074932 0.000000 0.000000
# 5 0.000000 0.000000 0.000000 0.000000 0.042501 0.000000
# 6 0.000000 0.000000 0.000000 0.000000 0.000000 0.016266
#
#
# Mechanical properties :
#
#
# Convention : Reuss Voigt Hill
#
# Bulk Modulus (GPa) = 50.70482 69.60337 60.15410
# Shear Modulus (GPa) = 25.79923 35.45605 30.62764
#
# Velocity S-wave (km/s) = 3.25045 3.81053 3.54158
# Velocity P-wave (km/s) = 5.90357 6.91842 6.43105
#
# Compressibility (1/GPa) = 0.01972199
#
# Stress axis : x y z
#
# Youngs Moduli (GPa) = 89.33999 129.53968 56.45317
#
# Poissons Ratio (x) = 0.50968 0.03550
# Poissons Ratio (y) = 0.35151 0.21954
# Poissons Ratio (z) = 0.05619 0.50376
#
# Static dielectric constant tensor:
#      x y z
#    x 1.947380 0.000000 0.000000 
#    y 0.000000 1.913200 0.000000 
#    z 0.000000 0.000000 1.945960 
# 
# From -- ./inp_files/49480.got.cif
#   From: 2010.05.17/outbox.cif.g08.bks.cpg/sg68_25_cif.got.tgz:49480.got - 2010.06.03 18:57:09.
