data_PCOD9509275
_publ_section_title
;
Structure prediction by ZEFSAII (Michael W. Deem and Ramdas Pophale) SiO2 
 PCOD9509275
Probable space group: C C C A
;
_chemical_formula_sum "Si O2"
_cell_formula_units_Z 88
_cell_length_a 27.072957
_cell_length_b 10.725225
_cell_length_c 13.566780
_cell_angle_alpha 90.000000
_cell_angle_beta 90.000000
_cell_angle_gamma 90.000000
_cell_volume 3939.298474
_symmetry_space_group_name_H-M "C C C A"
_symmetry_group_IT_number 68
_space_group.IT_coordinate_system_code '2'
_symmetry_cell_setting 'orthorhombic'
loop_
_space_group_symop_operation_xyz
x,y,z
-x,1/2-y,z
x,1/2-y,1/2-z
-x,y,1/2-z
-x,-y,-z
x,1/2+y,-z
-x,1/2+y,1/2+z
x,-y,1/2+z
1/2+x,1/2+y,z
1/2-x,-y,z
1/2+x,-y,1/2-z
1/2-x,1/2+y,1/2-z
1/2-x,1/2-y,-z
1/2+x,y,-z
1/2-x,y,1/2+z
1/2+x,1/2-y,1/2+z
loop_
_atom_site_type_symbol
_atom_site_label
_atom_site_fract_x
_atom_site_fract_y
_atom_site_fract_z
Si Si1 0.319951 0.134387 0.805860
Si Si2 0.346587 0.375884 0.303136
Si Si3 0.500000 0.750000 0.974765
Si Si4 0.279793 0.119884 0.013930
Si Si5 0.052116 0.399892 0.697264
Si Si6 0.927809 0.819934 0.650401
O O1 0.293750 0.250000 0.750000
O O2 0.369249 0.204001 0.849120
O O3 0.330092 0.011499 0.739611
O O4 0.294444 0.085449 0.903326
O O5 0.326565 0.250000 0.250000
O O6 0.327128 0.365450 0.414486
O O7 0.405364 0.368447 0.278137
O O8 0.536081 0.673868 0.900956
O O9 0.540631 0.797673 0.053346
O O10 0.250000 0.000000 0.054741
O O11 0.250000 0.250000 0.000000
O O12 0.068729 0.534198 0.664595
O O13 0.000000 0.406764 0.750000
O O14 0.945870 0.750000 0.750000
#
# Coordination Sequence:
#
# PCOD9509275 Si02
#       6
#    16  16   8  16  16  16
#     4  10  24  46  70 101 141 184 236 291 360 429
#     4  11  25  45  69 102 143 182 230 299 355 424
#     4  12  22  38  68 102 146 180 248 282 354 424
#     4  12  27  46  74 105 134 184 239 294 371 430
#     4  11  24  41  65 102 138 187 232 284 354 418
#     4  10  23  43  65  98 141 191 231 288 350 429
#
# _framework density 22.339003000000002
#
# number of rings (size 3 to 8) (size 9 to 14) (size 15 to 20)
#    0.000    1.091    0.000    5.455    5.091    4.364 
#   13.091    0.000    0.000    0.000    0.000    0.000 
#    0.000    0.000    0.000    0.000    0.000    0.000 
#
# Total GULP energy -244986.833670 kJ/mol
# GULP energy per Si atom -5567.882583 kJ/mol
# Density = 2.228816 g / cm^3
# Si number density = 22.339003 Si / 1000 Ang^3
#
#
#
# Elastic Constant Matrix: (Units=GPa)
#
#
# Indices 1 2 3 4 5 6 
#
# 1 126.6066 62.3897 90.4819 0.0000 0.0000 0.0000
# 2 62.3897 230.3908 124.1951 0.0000 0.0000 0.0000
# 3 90.4819 124.1951 196.1329 0.0000 0.0000 0.0000
# 4 0.0000 0.0000 0.0000 20.0989 0.0000 0.0000
# 5 0.0000 0.0000 0.0000 0.0000 29.8519 0.0000
# 6 0.0000 0.0000 0.0000 0.0000 0.0000 14.6422
#
#
#
# Elastic Compliance Matrix: (Units=1/GPa)
#
#
# Indices 1 2 3 4 5 6 
#
# 1 0.011807 -0.000396 -0.005196 0.000000 0.000000 0.000000
# 2 -0.000396 0.006603 -0.003998 0.000000 0.000000 0.000000
# 3 -0.005196 -0.003998 0.010028 0.000000 0.000000 0.000000
# 4 0.000000 0.000000 0.000000 0.049754 0.000000 0.000000
# 5 0.000000 0.000000 0.000000 0.000000 0.033499 0.000000
# 6 0.000000 0.000000 0.000000 0.000000 0.000000 0.068296
#
#
# Mechanical properties :
#
#
# Convention : Reuss Voigt Hill
#
# Bulk Modulus (GPa) = 108.03431 123.02931 115.53181
# Shear Modulus (GPa) = 24.72144 31.32285 28.02215
#
# Velocity S-wave (km/s) = 3.33024 3.74860 3.54560
# Velocity P-wave (km/s) = 7.95322 8.59822 8.28200
#
# Compressibility (1/GPa) = 0.00925632
#
# Stress axis : x y z
#
# Youngs Moduli (GPa) = 84.69360 151.44224 99.72561
#
# Poissons Ratio (x) = 0.06003 0.51818
# Poissons Ratio (y) = 0.03357 0.39874
# Poissons Ratio (z) = 0.44007 0.60552
#
# Static dielectric constant tensor:
#      x y z
#    x 1.916290 0.000000 0.000000 
#    y 0.000000 1.846000 0.000000 
#    z 0.000000 0.000000 1.797240 
# 
# From -- ./inp_files/17629.got.cif
#   From: 2010.05.17/outbox.cif.g08.bks.cpg/sg68_9_cif.got.tgz:17629.got - 2010.06.03 18:57:09.
