data_PCOD9509339
_publ_section_title
;
Structure prediction by ZEFSAII (Michael W. Deem and Ramdas Pophale) SiO2 
 PCOD9509339
Probable space group: C C C A
;
_chemical_formula_sum "Si O2"
_cell_formula_units_Z 64
_cell_length_a 10.859083
_cell_length_b 9.139870
_cell_length_c 30.542160
_cell_angle_alpha 90.000000
_cell_angle_beta 90.000000
_cell_angle_gamma 90.000000
_cell_volume 3031.327917
_symmetry_space_group_name_H-M "C C C A"
_symmetry_group_IT_number 68
_space_group.IT_coordinate_system_code '2'
_symmetry_cell_setting 'orthorhombic'
loop_
_space_group_symop_operation_xyz
x,y,z
-x,1/2-y,z
x,1/2-y,1/2-z
-x,y,1/2-z
-x,-y,-z
x,1/2+y,-z
-x,1/2+y,1/2+z
x,-y,1/2+z
1/2+x,1/2+y,z
1/2-x,-y,z
1/2+x,-y,1/2-z
1/2-x,1/2+y,1/2-z
1/2-x,1/2-y,-z
1/2+x,y,-z
1/2-x,y,1/2+z
1/2+x,1/2-y,1/2+z
loop_
_atom_site_type_symbol
_atom_site_label
_atom_site_fract_x
_atom_site_fract_y
_atom_site_fract_z
Si Si1 0.000000 0.250000 0.554504
Si Si2 0.000000 0.250000 0.402540
Si Si3 0.394090 0.540715 0.871868
Si Si4 0.623699 0.408035 0.227955
Si Si5 0.659231 0.634476 0.019081
O O1 0.077284 0.151485 0.588465
O O2 0.059125 0.368257 0.520546
O O3 0.012388 0.399800 0.374685
O O4 0.106668 0.291981 0.437170
O O5 0.250000 0.500000 0.874897
O O6 0.404973 0.607967 0.823596
O O7 0.641786 0.250000 0.250000
O O8 0.500000 0.474391 0.250000
O O9 0.750000 0.500000 0.232927
O O10 0.750000 0.500000 0.025621
O O11 0.750000 0.750000 0.000000
#
# Coordination Sequence:
#
# PCOD9509339 Si02
#       5
#     8   8  16  16  16
#     4  11  22  38  63  88 120 172 219 264 324 375
#     4  11  22  38  59  86 124 164 207 258 312 369
#     4  11  24  42  64  93 127 161 209 268 320 386
#     4  10  23  44  68  96 130 165 208 264 328 401
#     4  11  22  37  57  85 124 168 216 264 311 368
#
# _framework density 21.112859
#
# number of rings (size 3 to 8) (size 9 to 14) (size 15 to 20)
#    0.000    1.250    0.000    6.750    0.000    8.500 
#    0.000    5.000    0.000    0.000    0.000    0.000 
#    0.000    0.000    0.000    0.000    0.000    0.000 
#
# Total GULP energy -178196.375963 kJ/mol
# GULP energy per Si atom -5568.636749 kJ/mol
# Density = 2.106481 g / cm^3
# Si number density = 21.112859 Si / 1000 Ang^3
#
#
#
# Elastic Constant Matrix: (Units=GPa)
#
#
# Indices 1 2 3 4 5 6 
#
# 1 119.0940 56.3505 58.7625 0.0000 0.0000 0.0000
# 2 56.3505 141.1407 62.2586 0.0000 0.0000 0.0000
# 3 58.7625 62.2586 182.0115 0.0000 0.0000 0.0000
# 4 0.0000 0.0000 0.0000 22.1577 0.0000 0.0000
# 5 0.0000 0.0000 0.0000 0.0000 -92.1972 0.0000
# 6 0.0000 0.0000 0.0000 0.0000 0.0000 47.4951
#
#
#
# Elastic Compliance Matrix: (Units=1/GPa)
#
#
# Indices 1 2 3 4 5 6 
#
# 1 0.011216 -0.003393 -0.002461 0.000000 0.000000 0.000000
# 2 -0.003393 0.009370 -0.002110 0.000000 0.000000 0.000000
# 3 -0.002461 -0.002110 0.007010 0.000000 0.000000 0.000000
# 4 0.000000 0.000000 0.000000 0.045131 0.000000 0.000000
# 5 0.000000 0.000000 0.000000 0.000000 -0.010846 0.000000
# 6 0.000000 0.000000 0.000000 0.000000 0.000000 0.021055
#
#
# Mechanical properties :
#
#
# Convention : Reuss Voigt Hill
#
# Bulk Modulus (GPa) = 85.68693 88.55440 87.12067
# Shear Modulus (GPa) = 48.66050 13.14943 30.90496
#
# Velocity S-wave (km/s) = 4.80602 2.49834 3.83011
# Velocity P-wave (km/s) = 8.45402 7.09624 7.80471
#
# Compressibility (1/GPa) = 0.01167039
#
# Stress axis : x y z
#
# Youngs Moduli (GPa) = 89.15759 106.71990 142.64754
#
# Poissons Ratio (x) = 0.36206 0.35101
# Poissons Ratio (y) = 0.30248 0.30097
# Poissons Ratio (z) = 0.21939 0.22517
#
# Static dielectric constant tensor:
#      x y z
#    x 1.802850 0.000000 0.000000 
#    y 0.000000 1.778820 0.000000 
#    z 0.000000 0.000000 0.239880 
# 
# From -- ./inp_files/54414.got.cif
#   From: 2010.05.17/outbox.cif.g08.bks.cpg/sg68_28_cif.got.tgz:54414.got - 2010.06.03 18:57:09.
