data_PCOD9509398
_publ_section_title
;
Structure prediction by ZEFSAII (Michael W. Deem and Ramdas Pophale) SiO2 
 PCOD9509398
Probable space group: C C C A
;
_chemical_formula_sum "Si O2"
_cell_formula_units_Z 100
_cell_length_a 9.198657
_cell_length_b 25.058911
_cell_length_c 21.802722
_cell_angle_alpha 90.000000
_cell_angle_beta 90.000000
_cell_angle_gamma 90.000000
_cell_volume 5025.708974
_symmetry_space_group_name_H-M "C C C A"
_symmetry_group_IT_number 68
_space_group.IT_coordinate_system_code '2'
_symmetry_cell_setting 'orthorhombic'
loop_
_space_group_symop_operation_xyz
x,y,z
-x,1/2-y,z
x,1/2-y,1/2-z
-x,y,1/2-z
-x,-y,-z
x,1/2+y,-z
-x,1/2+y,1/2+z
x,-y,1/2+z
1/2+x,1/2+y,z
1/2-x,-y,z
1/2+x,-y,1/2-z
1/2-x,1/2+y,1/2-z
1/2-x,1/2-y,-z
1/2+x,y,-z
1/2-x,y,1/2+z
1/2+x,1/2-y,1/2+z
loop_
_atom_site_type_symbol
_atom_site_label
_atom_site_fract_x
_atom_site_fract_y
_atom_site_fract_z
Si Si1 0.210476 0.886691 0.080792
Si Si2 0.574374 0.934417 0.629954
Si Si3 0.446967 0.531095 0.439977
Si Si4 0.972309 0.662965 0.652696
Si Si5 0.000000 0.573103 0.750000
Si Si6 0.750000 0.000000 0.728594
Si Si7 0.329231 0.627215 0.058305
Si Si8 0.500000 0.250000 0.750000
O O1 0.285359 0.944620 0.065628
O O2 0.326482 0.852666 0.117805
O O3 0.067977 0.897050 0.122220
O O4 0.187283 0.860265 0.013748
O O5 0.689489 0.904307 0.585207
O O6 0.507872 0.991566 0.610752
O O7 0.664861 0.954347 0.689063
O O8 0.500000 0.500000 0.500000
O O9 0.542958 0.584028 0.440675
O O10 0.024983 0.612106 0.692862
O O11 0.104972 0.672166 0.604275
O O12 0.931571 0.708829 0.701228
O O13 0.133727 0.534509 0.764983
#
# Coordination Sequence:
#
# PCOD9509398 Si02
#       8
#    16  16  16  16   8   8  16   4
#     4  11  22  32  58  92 134 166 206 269 312 376
#     4  12  20  31  49  83 127 182 213 249 293 353
#     4  11  18  28  45  83 136 190 223 216 280 369
#     4  10  23  46  67  95 112 163 222 274 329 401
#     4  11  24  41  56  84 130 171 238 261 302 376
#     4  12  24  36  52  82 126 184 222 266 298 356
#     4  11  19  35  55  91 135 163 202 264 304 386
#     4  10  24  52  88  78 108 160 228 282 352 406
#
# _framework density 19.897690000000001
#
# number of rings (size 3 to 8) (size 9 to 14) (size 15 to 20)
#    0.000    0.960    6.400    2.400    2.240    0.000 
#    0.000    0.800    0.000    1.920    0.000    0.000 
#    0.000    0.000    0.000    0.000    0.000    0.000 
#
# Total GULP energy -278374.067644 kJ/mol
# GULP energy per Si atom -5567.481353 kJ/mol
# Density = 1.985240 g / cm^3
# Si number density = 19.897690 Si / 1000 Ang^3
#
#
#
# Elastic Constant Matrix: (Units=GPa)
#
#
# Indices 1 2 3 4 5 6 
#
# 1 93.8636 21.0703 20.2968 0.0000 0.0000 0.0000
# 2 21.0703 48.1803 34.8728 0.0000 0.0000 0.0000
# 3 20.2968 34.8728 88.6123 0.0000 0.0000 0.0000
# 4 0.0000 0.0000 0.0000 32.5421 0.0000 0.0000
# 5 0.0000 0.0000 0.0000 0.0000 32.1850 0.0000
# 6 0.0000 0.0000 0.0000 0.0000 0.0000 3.5030
#
#
#
# Elastic Compliance Matrix: (Units=1/GPa)
#
#
# Indices 1 2 3 4 5 6 
#
# 1 0.011870 -0.004507 -0.000945 0.000000 0.000000 0.000000
# 2 -0.004507 0.030733 -0.011063 0.000000 0.000000 0.000000
# 3 -0.000945 -0.011063 0.015855 0.000000 0.000000 0.000000
# 4 0.000000 0.000000 0.000000 0.030729 0.000000 0.000000
# 5 0.000000 0.000000 0.000000 0.000000 0.031070 0.000000
# 6 0.000000 0.000000 0.000000 0.000000 0.000000 0.285473
#
#
# Mechanical properties :
#
#
# Convention : Reuss Voigt Hill
#
# Bulk Modulus (GPa) = 39.32485 42.57066 40.94776
# Shear Modulus (GPa) = 11.17976 23.94042 17.56009
#
# Velocity S-wave (km/s) = 2.37293 3.47245 2.97395
# Velocity P-wave (km/s) = 5.22630 6.12523 5.69353
#
# Compressibility (1/GPa) = 0.02542921
#
# Stress axis : x y z
#
# Youngs Moduli (GPa) = 84.24732 32.53786 63.07058
#
# Poissons Ratio (x) = 0.14664 0.05961
# Poissons Ratio (y) = 0.37969 0.69773
# Poissons Ratio (z) = 0.07963 0.35996
#
# Static dielectric constant tensor:
#      x y z
#    x 1.846970 0.000000 0.000000 
#    y 0.000000 1.741080 0.000000 
#    z 0.000000 0.000000 1.846690 
# 
# From -- ./inp_files/36616.got.cif
#   From: 2010.05.17/outbox.cif.g08.bks.cpg/sg68_19_cif.got.tgz:36616.got - 2010.06.03 18:57:09.
