data_PCOD9509005
_publ_section_title
;
Structure prediction by ZEFSAII (Michael W. Deem and Ramdas Pophale) SiO2 
 PCOD9509005
Probable space group: C C C A
;
_chemical_formula_sum "Si O2"
_cell_formula_units_Z 88
_cell_length_a 12.748694
_cell_length_b 18.996335
_cell_length_c 17.508236
_cell_angle_alpha 90.000000
_cell_angle_beta 90.000000
_cell_angle_gamma 90.000000
_cell_volume 4240.117667
_symmetry_space_group_name_H-M "C C C A"
_symmetry_group_IT_number 68
_space_group.IT_coordinate_system_code '2'
_symmetry_cell_setting 'orthorhombic'
loop_
_space_group_symop_operation_xyz
x,y,z
-x,1/2-y,z
x,1/2-y,1/2-z
-x,y,1/2-z
-x,-y,-z
x,1/2+y,-z
-x,1/2+y,1/2+z
x,-y,1/2+z
1/2+x,1/2+y,z
1/2-x,-y,z
1/2+x,-y,1/2-z
1/2-x,1/2+y,1/2-z
1/2-x,1/2-y,-z
1/2+x,y,-z
1/2-x,y,1/2+z
1/2+x,1/2-y,1/2+z
loop_
_atom_site_type_symbol
_atom_site_label
_atom_site_fract_x
_atom_site_fract_y
_atom_site_fract_z
Si Si1 0.861147 0.962282 0.423487
Si Si2 0.000000 0.250000 0.947814
Si Si3 0.819304 0.688840 0.359179
Si Si4 0.043206 0.412602 0.332000
Si Si5 0.273317 0.348457 0.309946
Si Si6 0.882179 0.355279 0.446269
O O1 0.839747 0.901643 0.361223
O O2 0.894496 0.923604 0.500456
O O3 0.750000 0.000000 0.438105
O O4 0.934589 0.020813 0.386067
O O5 0.065737 0.195776 0.895805
O O6 0.081643 0.290056 0.001994
O O7 0.785636 0.769451 0.341373
O O8 0.811413 0.650530 0.277675
O O9 0.736057 0.655114 0.417172
O O10 0.152793 0.372463 0.317907
O O11 0.000000 0.435233 0.250000
O O12 0.959070 0.363304 0.374256
#
# Coordination Sequence:
#
# PCOD9509005 Si02
#       6
#    16   8  16  16  16  16
#     4  10  24  43  66  92 139 174 219 280 323 400
#     4  12  26  39  71 102 136 170 216 284 349 398
#     4  11  24  43  69  98 134 173 218 285 337 399
#     4  11  23  44  67  98 130 185 226 268 331 400
#     4  10  22  45  66  97 136 173 225 275 335 394
#     4  12  24  44  67 103 133 173 223 274 340 400
#
# _framework density 20.754142000000002
#
# number of rings (size 3 to 8) (size 9 to 14) (size 15 to 20)
#    0.000    1.091    3.636    2.182    5.091    2.909 
#    3.273    0.000    0.000    0.000    0.000    0.000 
#    0.000    0.000    0.000    0.000    0.000    0.000 
#
# Total GULP energy -246088.295852 kJ/mol
# GULP energy per Si atom -5592.915815 kJ/mol
# Density = 2.070690 g / cm^3
# Si number density = 20.754142 Si / 1000 Ang^3
#
#
#
# Elastic Constant Matrix: (Units=GPa)
#
#
# Indices 1 2 3 4 5 6 
#
# 1 84.4470 -5.7008 42.5007 0.0000 0.0000 0.0000
# 2 -5.7008 30.7515 12.8461 0.0000 0.0000 0.0000
# 3 42.5007 12.8461 116.8241 0.0000 0.0000 0.0000
# 4 0.0000 0.0000 0.0000 12.6011 0.0000 0.0000
# 5 0.0000 0.0000 0.0000 0.0000 31.7597 0.0000
# 6 0.0000 0.0000 0.0000 0.0000 0.0000 18.6678
#
#
#
# Elastic Compliance Matrix: (Units=1/GPa)
#
#
# Indices 1 2 3 4 5 6 
#
# 1 0.015310 0.005414 -0.006165 0.000000 0.000000 0.000000
# 2 0.005414 0.035999 -0.005928 0.000000 0.000000 0.000000
# 3 -0.006165 -0.005928 0.011455 0.000000 0.000000 0.000000
# 4 0.000000 0.000000 0.000000 0.079358 0.000000 0.000000
# 5 0.000000 0.000000 0.000000 0.000000 0.031486 0.000000
# 6 0.000000 0.000000 0.000000 0.000000 0.000000 0.053568
#
#
# Mechanical properties :
#
#
# Convention : Reuss Voigt Hill
#
# Bulk Modulus (GPa) = 20.24110 36.81274 28.52692
# Shear Modulus (GPa) = 19.45502 24.76414 22.10958
#
# Velocity S-wave (km/s) = 3.06503 3.45804 3.26745
# Velocity P-wave (km/s) = 4.72227 5.80690 5.29244
#
# Compressibility (1/GPa) = 0.04940443
#
# Stress axis : x y z
#
# Youngs Moduli (GPa) = 65.31694 27.77880 87.30143
#
# Poissons Ratio (x) = -0.15038 0.53822
# Poissons Ratio (y) = -0.35360 0.51751
# Poissons Ratio (z) = 0.40268 0.16467
#
# Static dielectric constant tensor:
#      x y z
#    x 1.721690 0.000000 0.000000 
#    y 0.000000 1.721640 0.000000 
#    z 0.000000 0.000000 1.728630 
# 
# From -- ./inp_files/29646.got.cif
#   From: 2010.05.17/outbox.cif.g08.bks.cpg/sg68_15_cif.got.tgz:29646.got - 2010.06.03 18:57:09.
