data_PCOD9509061
_publ_section_title
;
Structure prediction by ZEFSAII (Michael W. Deem and Ramdas Pophale) SiO2 
 PCOD9509061
Probable space group: C C C A
;
_chemical_formula_sum "Si O2"
_cell_formula_units_Z 116
_cell_length_a 16.577817
_cell_length_b 10.897395
_cell_length_c 30.373513
_cell_angle_alpha 90.000000
_cell_angle_beta 90.000000
_cell_angle_gamma 90.000000
_cell_volume 5487.127601
_symmetry_space_group_name_H-M "C C C A"
_symmetry_group_IT_number 68
_space_group.IT_coordinate_system_code '2'
_symmetry_cell_setting 'orthorhombic'
loop_
_space_group_symop_operation_xyz
x,y,z
-x,1/2-y,z
x,1/2-y,1/2-z
-x,y,1/2-z
-x,-y,-z
x,1/2+y,-z
-x,1/2+y,1/2+z
x,-y,1/2+z
1/2+x,1/2+y,z
1/2-x,-y,z
1/2+x,-y,1/2-z
1/2-x,1/2+y,1/2-z
1/2-x,1/2-y,-z
1/2+x,y,-z
1/2-x,y,1/2+z
1/2+x,1/2-y,1/2+z
loop_
_atom_site_type_symbol
_atom_site_label
_atom_site_fract_x
_atom_site_fract_y
_atom_site_fract_z
Si Si1 0.500000 0.250000 0.750000
Si Si2 0.803942 0.821193 0.203212
Si Si3 0.801498 0.883094 0.547811
Si Si4 0.455839 0.618378 0.478241
Si Si5 0.121804 0.908670 0.805226
Si Si6 0.451709 0.558164 0.101691
Si Si7 0.844369 0.271720 0.536187
Si Si8 0.914008 0.778267 0.122915
O O1 0.563946 0.343076 0.771469
O O2 0.810563 0.750000 0.250000
O O3 0.709449 0.842943 0.191969
O O4 0.846434 0.762748 0.160016
O O5 0.851304 0.951820 0.206051
O O6 0.882433 0.873373 0.574561
O O7 0.828531 0.881855 0.496999
O O8 0.741590 0.770559 0.554609
O O9 0.750000 0.000000 0.561499
O O10 0.500000 0.750000 0.485877
O O11 0.500000 0.500000 0.500000
O O12 0.467272 0.588462 0.425947
O O13 0.375788 0.656838 0.505701
O O14 0.065589 0.903562 0.848679
O O15 0.424839 0.415534 0.103395
O O16 0.898975 0.298014 0.578264
O O17 0.000000 0.750000 0.143944
#
# Coordination Sequence:
#
# PCOD9509061 Si02
#       8
#     4  16  16  16  16  16  16  16
#     4  12  24  44  70 108 142 164 216 302 332 432
#     4  10  22  46  74  97 135 182 223 286 363 429
#     4  11  21  37  58  83 122 173 223 270 326 402
#     4  12  23  39  61  92 132 180 224 283 337 396
#     4  10  24  42  72 106 134 174 229 280 360 423
#     4  11  23  39  65  93 130 176 223 279 335 417
#     4  11  23  35  57  88 125 171 225 278 329 396
#     4  11  23  38  63  97 132 173 230 290 334 418
#
# _framework density 21.140387
#
# number of rings (size 3 to 8) (size 9 to 14) (size 15 to 20)
#    0.000    1.103    4.828    1.241    2.897    2.483 
#    0.000    0.000    3.034    0.000    0.000    0.000 
#    0.000    0.000    0.000    0.000    0.000    0.000 
#
# Total GULP energy -323146.395963 kJ/mol
# GULP energy per Si atom -5571.489586 kJ/mol
# Density = 2.109227 g / cm^3
# Si number density = 21.140387 Si / 1000 Ang^3
#
#
#
# Elastic Constant Matrix: (Units=GPa)
#
#
# Indices 1 2 3 4 5 6 
#
# 1 88.8923 11.9466 24.5157 0.0000 0.0000 0.0000
# 2 11.9466 50.4290 13.9071 0.0000 0.0000 0.0000
# 3 24.5157 13.9071 94.3821 0.0000 0.0000 0.0000
# 4 0.0000 0.0000 0.0000 17.4864 0.0000 0.0000
# 5 0.0000 0.0000 0.0000 0.0000 40.0906 0.0000
# 6 0.0000 0.0000 0.0000 0.0000 0.0000 26.3075
#
#
#
# Elastic Compliance Matrix: (Units=1/GPa)
#
#
# Indices 1 2 3 4 5 6 
#
# 1 0.012332 -0.002124 -0.002890 0.000000 0.000000 0.000000
# 2 -0.002124 0.021036 -0.002548 0.000000 0.000000 0.000000
# 3 -0.002890 -0.002548 0.011721 0.000000 0.000000 0.000000
# 4 0.000000 0.000000 0.000000 0.057187 0.000000 0.000000
# 5 0.000000 0.000000 0.000000 0.000000 0.024943 0.000000
# 6 0.000000 0.000000 0.000000 0.000000 0.000000 0.038012
#
#
# Mechanical properties :
#
#
# Convention : Reuss Voigt Hill
#
# Bulk Modulus (GPa) = 33.37295 37.16027 35.26661
# Shear Modulus (GPa) = 26.26809 28.99918 27.63363
#
# Velocity S-wave (km/s) = 3.52881 3.70772 3.61937
# Velocity P-wave (km/s) = 5.69421 5.99547 5.84678
#
# Compressibility (1/GPa) = 0.02996439
#
# Stress axis : x y z
#
# Youngs Moduli (GPa) = 81.08863 47.53813 85.31419
#
# Poissons Ratio (x) = 0.10099 0.24658
# Poissons Ratio (y) = 0.17227 0.21736
# Poissons Ratio (z) = 0.23437 0.12112
#
# Static dielectric constant tensor:
#      x y z
#    x 1.908430 0.000000 0.000000 
#    y 0.000000 1.817190 0.000000 
#    z 0.000000 0.000000 1.805450 
# 
# From -- ./inp_files/55670.got.cif
#   From: 2010.05.17/outbox.cif.g08.bks.cpg/sg68_28_cif.got.tgz:55670.got - 2010.06.03 18:57:09.
