data_PCOD9509477
_publ_section_title
;
Structure prediction by ZEFSAII (Michael W. Deem and Ramdas Pophale) SiO2 
 PCOD9509477
Probable space group: C C C A
;
_chemical_formula_sum "Si O2"
_cell_formula_units_Z 56
_cell_length_a 25.200159
_cell_length_b 9.801467
_cell_length_c 10.853439
_cell_angle_alpha 90.000000
_cell_angle_beta 90.000000
_cell_angle_gamma 90.000000
_cell_volume 2680.783444
_symmetry_space_group_name_H-M "C C C A"
_symmetry_group_IT_number 68
_space_group.IT_coordinate_system_code '2'
_symmetry_cell_setting 'orthorhombic'
loop_
_space_group_symop_operation_xyz
x,y,z
-x,1/2-y,z
x,1/2-y,1/2-z
-x,y,1/2-z
-x,-y,-z
x,1/2+y,-z
-x,1/2+y,1/2+z
x,-y,1/2+z
1/2+x,1/2+y,z
1/2-x,-y,z
1/2+x,-y,1/2-z
1/2-x,1/2+y,1/2-z
1/2-x,1/2-y,-z
1/2+x,y,-z
1/2-x,y,1/2+z
1/2+x,1/2-y,1/2+z
loop_
_atom_site_type_symbol
_atom_site_label
_atom_site_fract_x
_atom_site_fract_y
_atom_site_fract_z
Si Si1 0.214075 0.250000 0.750000
Si Si2 0.854277 0.937767 0.401304
Si Si3 0.817844 0.260909 0.112492
Si Si4 0.519915 0.592497 0.613958
O O1 0.177441 0.122898 0.716212
O O2 0.255525 0.232559 0.861868
O O3 0.840836 0.843988 0.517191
O O4 0.916671 0.923753 0.381173
O O5 0.831870 0.087030 0.427778
O O6 0.842245 0.250000 0.250000
O O7 0.500000 0.750000 0.596508
O O8 0.500000 0.549357 0.750000
O O9 0.500000 0.500000 0.500000
#
# Coordination Sequence:
#
# PCOD9509477 Si02
#       4
#     8  16  16  16
#     4  10  24  40  69 100 143 182 238 278 362 432
#     4  12  24  46  72  97 149 188 233 309 354 431
#     4  10  27  41  69 104 139 185 243 281 370 433
#     4  11  26  46  72 108 140 190 246 300 368 436
#
# _framework density 20.889415
#
# number of rings (size 3 to 8) (size 9 to 14) (size 15 to 20)
#    0.857    0.286    0.000    5.143    8.000    0.571 
#    0.000    0.000    0.000    0.000    0.000    0.000 
#    0.000    0.000    0.000    0.000    0.000    0.000 
#
# Total GULP energy -156436.193978 kJ/mol
# GULP energy per Si atom -5587.006928 kJ/mol
# Density = 2.084187 g / cm^3
# Si number density = 20.889415 Si / 1000 Ang^3
#
#
#
# Elastic Constant Matrix: (Units=GPa)
#
#
# Indices 1 2 3 4 5 6 
#
# 1 205.0232 57.1076 83.0995 0.0000 0.0000 0.0000
# 2 57.1076 164.8748 91.7277 0.0000 0.0000 0.0000
# 3 83.0995 91.7277 154.0521 0.0000 0.0000 0.0000
# 4 0.0000 0.0000 0.0000 51.5627 0.0000 0.0000
# 5 0.0000 0.0000 0.0000 0.0000 10.6853 0.0000
# 6 0.0000 0.0000 0.0000 0.0000 0.0000 62.3834
#
#
#
# Elastic Compliance Matrix: (Units=1/GPa)
#
#
# Indices 1 2 3 4 5 6 
#
# 1 0.006263 -0.000433 -0.003120 0.000000 0.000000 0.000000
# 2 -0.000433 0.009100 -0.005185 0.000000 0.000000 0.000000
# 3 -0.003120 -0.005185 0.011262 0.000000 0.000000 0.000000
# 4 0.000000 0.000000 0.000000 0.019394 0.000000 0.000000
# 5 0.000000 0.000000 0.000000 0.000000 0.093587 0.000000
# 6 0.000000 0.000000 0.000000 0.000000 0.000000 0.016030
#
#
# Mechanical properties :
#
#
# Convention : Reuss Voigt Hill
#
# Bulk Modulus (GPa) = 109.31604 109.75774 109.53689
# Shear Modulus (GPa) = 28.38326 44.39396 36.38861
#
# Velocity S-wave (km/s) = 3.69011 4.61498 4.17821
# Velocity P-wave (km/s) = 8.40240 9.00298 8.70787
#
# Compressibility (1/GPa) = 0.00914779
#
# Stress axis : x y z
#
# Youngs Moduli (GPa) = 159.66954 109.89401 88.79748
#
# Poissons Ratio (x) = 0.04761 0.27708
# Poissons Ratio (y) = 0.06918 0.46037
# Poissons Ratio (z) = 0.49823 0.56975
#
# Static dielectric constant tensor:
#      x y z
#    x 1.737750 0.000000 0.000000 
#    y 0.000000 1.697930 0.000000 
#    z 0.000000 0.000000 1.795800 
# 
# From -- ./inp_files/16839.got.cif
#   From: 2010.05.17/outbox.cif.g08.bks.cpg/sg68_9_cif.got.tgz:16839.got - 2010.06.03 18:57:09.
