data_PCOD9509749
_publ_section_title
;
Structure prediction by ZEFSAII (Michael W. Deem and Ramdas Pophale) SiO2 
 PCOD9509749
Probable space group: C C C A
;
_chemical_formula_sum "Si O2"
_cell_formula_units_Z 104
_cell_length_a 27.581762
_cell_length_b 9.219441
_cell_length_c 19.952655
_cell_angle_alpha 90.000000
_cell_angle_beta 90.000000
_cell_angle_gamma 90.000000
_cell_volume 5073.729263
_symmetry_space_group_name_H-M "C C C A"
_symmetry_group_IT_number 68
_space_group.IT_coordinate_system_code '2'
_symmetry_cell_setting 'orthorhombic'
loop_
_space_group_symop_operation_xyz
x,y,z
-x,1/2-y,z
x,1/2-y,1/2-z
-x,y,1/2-z
-x,-y,-z
x,1/2+y,-z
-x,1/2+y,1/2+z
x,-y,1/2+z
1/2+x,1/2+y,z
1/2-x,-y,z
1/2+x,-y,1/2-z
1/2-x,1/2+y,1/2-z
1/2-x,1/2-y,-z
1/2+x,y,-z
1/2-x,y,1/2+z
1/2+x,1/2-y,1/2+z
loop_
_atom_site_type_symbol
_atom_site_label
_atom_site_fract_x
_atom_site_fract_y
_atom_site_fract_z
Si Si1 0.598261 0.150620 0.189683
Si Si2 0.684682 0.752707 0.052442
Si Si3 0.623590 0.182791 0.677994
Si Si4 0.099407 0.178524 0.554872
Si Si5 0.750000 0.000000 0.995087
Si Si6 0.552734 0.085857 0.874544
Si Si7 0.500000 0.565279 0.750000
Si Si8 0.500000 0.750000 0.479141
O O1 0.618368 0.250000 0.250000
O O2 0.608665 0.220868 0.118643
O O3 0.616541 0.987260 0.187485
O O4 0.540443 0.142990 0.204105
O O5 0.665127 0.777016 0.126336
O O6 0.724072 0.876392 0.037918
O O7 0.640979 0.789362 0.999862
O O8 0.709108 0.594252 0.043886
O O9 0.632147 0.250000 0.750000
O O10 0.576520 0.261626 0.646227
O O11 0.047687 0.219545 0.522255
O O12 0.091506 0.018974 0.588182
O O13 0.531747 0.020099 0.805713
O O14 0.511790 0.116357 0.929580
#
# Coordination Sequence:
#
# PCOD9509749 Si02
#       8
#    16  16  16  16   8  16   8   8
#     4  12  25  41  60  91 137 195 241 286 335 400
#     4  11  24  46  76 106 135 175 229 290 364 426
#     4  12  24  44  68  99 136 179 235 283 346 422
#     4  12  25  42  67  99 145 183 235 290 344 416
#     4  10  24  48  78 104 132 170 224 298 368 430
#     4  12  25  40  61  94 140 198 239 289 334 407
#     4  12  23  41  60  86 144 198 254 274 334 404
#     4  12  26  37  61 104 140 188 234 288 340 406
#
# _framework density 20.497743
#
# number of rings (size 3 to 8) (size 9 to 14) (size 15 to 20)
#    0.000    0.308    4.615    4.385    2.154    0.615 
#    0.000    0.769    0.000    3.692    0.000    0.000 
#    0.000    0.000    0.000    0.000    0.000    0.000 
#
# Total GULP energy -290669.373394 kJ/mol
# GULP energy per Si atom -5589.795642 kJ/mol
# Density = 2.045109 g / cm^3
# Si number density = 20.497743 Si / 1000 Ang^3
#
#
#
# Elastic Constant Matrix: (Units=GPa)
#
#
# Indices 1 2 3 4 5 6 
#
# 1 68.4262 22.1929 37.2932 0.0000 0.0000 0.0000
# 2 22.1929 134.2871 49.1854 0.0000 0.0000 0.0000
# 3 37.2932 49.1854 146.4079 0.0000 0.0000 0.0000
# 4 0.0000 0.0000 0.0000 640.2875 0.0000 0.0000
# 5 0.0000 0.0000 0.0000 0.0000 0.5600 0.0000
# 6 0.0000 0.0000 0.0000 0.0000 0.0000 20.5502
#
#
#
# Elastic Compliance Matrix: (Units=1/GPa)
#
#
# Indices 1 2 3 4 5 6 
#
# 1 0.017202 -0.001412 -0.003907 0.000000 0.000000 0.000000
# 2 -0.001412 0.008607 -0.002532 0.000000 0.000000 0.000000
# 3 -0.003907 -0.002532 0.008676 0.000000 0.000000 0.000000
# 4 0.000000 0.000000 0.000000 0.001562 0.000000 0.000000
# 5 0.000000 0.000000 0.000000 0.000000 1.785870 0.000000
# 6 0.000000 0.000000 0.000000 0.000000 0.000000 0.048661
#
#
# Mechanical properties :
#
#
# Convention : Reuss Voigt Hill
#
# Bulk Modulus (GPa) = 53.23947 62.94050 58.08999
# Shear Modulus (GPa) = 2.64195 148.30951 75.47573
#
# Velocity S-wave (km/s) = 1.13653 8.51535 6.07465
# Velocity P-wave (km/s) = 5.26801 11.28956 8.80926
#
# Compressibility (1/GPa) = 0.01878306
#
# Stress axis : x y z
#
# Youngs Moduli (GPa) = 58.13374 116.17837 115.25814
#
# Poissons Ratio (x) = 0.16401 0.45036
# Poissons Ratio (y) = 0.08207 0.29184
# Poissons Ratio (z) = 0.22715 0.29417
#
# Static dielectric constant tensor:
#      x y z
#    x 1.752000 0.000000 0.000000 
#    y 0.000000 1.839370 0.000000 
#    z 0.000000 0.000000 1.705890 
# 
# From -- ./inp_files/36618.got.cif
#   From: 2010.05.17/outbox.cif.g08.bks.cpg/sg68_19_cif.got.tgz:36618.got - 2010.06.03 18:57:09.
