data_PCOD9509496
_publ_section_title
;
Structure prediction by ZEFSAII (Michael W. Deem and Ramdas Pophale) SiO2 
 PCOD9509496
Probable space group: C C C A
;
_chemical_formula_sum "Si O2"
_cell_formula_units_Z 64
_cell_length_a 9.080708
_cell_length_b 22.833626
_cell_length_c 13.701446
_cell_angle_alpha 90.000000
_cell_angle_beta 90.000000
_cell_angle_gamma 90.000000
_cell_volume 2840.933039
_symmetry_space_group_name_H-M "C C C A"
_symmetry_group_IT_number 68
_space_group.IT_coordinate_system_code '2'
_symmetry_cell_setting 'orthorhombic'
loop_
_space_group_symop_operation_xyz
x,y,z
-x,1/2-y,z
x,1/2-y,1/2-z
-x,y,1/2-z
-x,-y,-z
x,1/2+y,-z
-x,1/2+y,1/2+z
x,-y,1/2+z
1/2+x,1/2+y,z
1/2-x,-y,z
1/2+x,-y,1/2-z
1/2-x,1/2+y,1/2-z
1/2-x,1/2-y,-z
1/2+x,y,-z
1/2-x,y,1/2+z
1/2+x,1/2-y,1/2+z
loop_
_atom_site_type_symbol
_atom_site_label
_atom_site_fract_x
_atom_site_fract_y
_atom_site_fract_z
Si Si1 0.163184 0.922026 0.328026
Si Si2 0.557222 0.047113 0.590670
Si Si3 0.475535 0.314620 0.367166
Si Si4 0.280415 0.087212 0.104147
O O1 0.338140 0.914151 0.340968
O O2 0.091584 0.867165 0.384933
O O3 0.150794 0.927509 0.210815
O O4 0.101928 0.982004 0.373921
O O5 0.632276 0.057349 0.485015
O O6 0.388259 0.066300 0.598635
O O7 0.500000 0.250000 0.408618
O O8 0.500000 0.309622 0.250000
O O9 0.319888 0.343396 0.398136
#
# Coordination Sequence:
#
# PCOD9509496 Si02
#       4
#    16  16  16  16
#     4  10  24  41  65  96 130 169 211 265 322 379
#     4  11  25  41  65  99 131 166 212 261 327 388
#     4   9  20  42  68  91 123 171 218 260 314 376
#     4  11  24  43  65  96 134 169 210 266 320 382
#
# _framework density 22.527811
#
# number of rings (size 3 to 8) (size 9 to 14) (size 15 to 20)
#    0.000    1.750    0.000    2.250    0.000   28.000 
#    0.000    6.250    0.000    6.000    0.000    0.000 
#    0.000    2.000    0.000    0.000    0.000    0.000 
#
# Total GULP energy -178431.945764 kJ/mol
# GULP energy per Si atom -5575.998305 kJ/mol
# Density = 2.247654 g / cm^3
# Si number density = 22.527811 Si / 1000 Ang^3
#
#
#
# Elastic Constant Matrix: (Units=GPa)
#
#
# Indices 1 2 3 4 5 6 
#
# 1 186.2526 93.1908 34.5541 0.0000 0.0000 0.0000
# 2 93.1908 193.2927 35.3225 0.0000 0.0000 0.0000
# 3 34.5541 35.3225 126.0831 0.0000 0.0000 0.0000
# 4 0.0000 0.0000 0.0000 56.8348 0.0000 0.0000
# 5 0.0000 0.0000 0.0000 0.0000 42.2058 0.0000
# 6 0.0000 0.0000 0.0000 0.0000 0.0000 21.9008
#
#
#
# Elastic Compliance Matrix: (Units=1/GPa)
#
#
# Indices 1 2 3 4 5 6 
#
# 1 0.007207 -0.003282 -0.001056 0.000000 0.000000 0.000000
# 2 -0.003282 0.006947 -0.001047 0.000000 0.000000 0.000000
# 3 -0.001056 -0.001047 0.008514 0.000000 0.000000 0.000000
# 4 0.000000 0.000000 0.000000 0.017595 0.000000 0.000000
# 5 0.000000 0.000000 0.000000 0.000000 0.023693 0.000000
# 6 0.000000 0.000000 0.000000 0.000000 0.000000 0.045660
#
#
# Mechanical properties :
#
#
# Convention : Reuss Voigt Hill
#
# Bulk Modulus (GPa) = 84.03901 92.41812 88.22857
# Shear Modulus (GPa) = 40.20867 47.02570 43.61718
#
# Velocity S-wave (km/s) = 4.22933 4.57382 4.40494
# Velocity P-wave (km/s) = 7.82529 8.30700 8.06974
#
# Compressibility (1/GPa) = 0.01189924
#
# Stress axis : x y z
#
# Youngs Moduli (GPa) = 138.75607 143.94759 117.45523
#
# Poissons Ratio (x) = 0.47239 0.12400
# Poissons Ratio (y) = 0.45535 0.12296
# Poissons Ratio (z) = 0.14649 0.15069
#
# Static dielectric constant tensor:
#      x y z
#    x 1.982940 0.000000 0.000000 
#    y 0.000000 1.911010 0.000000 
#    z 0.000000 0.000000 1.966060 
# 
# From -- ./inp_files/20607.got.cif
#   From: 2010.05.17/outbox.cif.g08.bks.cpg/sg68_11_cif.got.tgz:20607.got - 2010.06.03 18:57:09.
