data_PCOD9509028
_publ_section_title
;
Structure prediction by ZEFSAII (Michael W. Deem and Ramdas Pophale) SiO2 
 PCOD9509028
Probable space group: C C C A
;
_chemical_formula_sum "Si O2"
_cell_formula_units_Z 80
_cell_length_a 15.886514
_cell_length_b 8.373081
_cell_length_c 25.373222
_cell_angle_alpha 90.000000
_cell_angle_beta 90.000000
_cell_angle_gamma 90.000000
_cell_volume 3375.122356
_symmetry_space_group_name_H-M "C C C A"
_symmetry_group_IT_number 68
_space_group.IT_coordinate_system_code '2'
_symmetry_cell_setting 'orthorhombic'
loop_
_space_group_symop_operation_xyz
x,y,z
-x,1/2-y,z
x,1/2-y,1/2-z
-x,y,1/2-z
-x,-y,-z
x,1/2+y,-z
-x,1/2+y,1/2+z
x,-y,1/2+z
1/2+x,1/2+y,z
1/2-x,-y,z
1/2+x,-y,1/2-z
1/2-x,1/2+y,1/2-z
1/2-x,1/2-y,-z
1/2+x,y,-z
1/2-x,y,1/2+z
1/2+x,1/2-y,1/2+z
loop_
_atom_site_type_symbol
_atom_site_label
_atom_site_fract_x
_atom_site_fract_y
_atom_site_fract_z
Si Si1 0.415270 0.850836 0.562934
Si Si2 0.156224 0.457065 0.522816
Si Si3 0.526559 0.076295 0.321698
Si Si4 0.087539 0.840886 0.879984
Si Si5 0.674745 0.374106 0.703145
O O1 0.500000 0.750000 0.551754
O O2 0.346770 0.721043 0.545628
O O3 0.402457 0.006404 0.527416
O O4 0.420357 0.893454 0.624065
O O5 0.250000 0.500000 0.507402
O O6 0.125208 0.575002 0.569067
O O7 0.500000 0.250000 0.303614
O O8 0.444942 0.978086 0.339985
O O9 0.588251 0.972465 0.285792
O O10 0.152450 0.727701 0.849280
O O11 0.000000 0.750000 0.892133
O O12 0.692792 0.250000 0.750000
O O13 0.750000 0.500000 0.696876
#
# Coordination Sequence:
#
# PCOD9509028 Si02
#       5
#    16  16  16  16  16
#     4  11  23  41  65  98 143 196 240 287 338 414
#     4  12  25  38  63 103 146 188 243 288 351 401
#     4  10  22  45  74 104 139 185 239 286 349 418
#     4  10  23  44  70 100 137 185 237 288 344 413
#     4  11  28  49  75 104 140 177 226 293 372 429
#
# _framework density 23.702843999999999
#
# number of rings (size 3 to 8) (size 9 to 14) (size 15 to 20)
#    0.000    1.200    4.000    1.800    8.400    6.800 
#    0.000    1.000    0.000    0.000    0.000    0.000 
#    0.000    0.000    0.000    0.000    0.000    0.000 
#
# Total GULP energy -223983.206597 kJ/mol
# GULP energy per Si atom -5599.580165 kJ/mol
# Density = 2.364890 g / cm^3
# Si number density = 23.702844 Si / 1000 Ang^3
#
#
#
# Elastic Constant Matrix: (Units=GPa)
#
#
# Indices 1 2 3 4 5 6 
#
# 1 77.7654 25.3891 26.3914 0.0000 0.0000 0.0000
# 2 25.3891 136.0006 47.4854 0.0000 0.0000 0.0000
# 3 26.3914 47.4854 130.1839 0.0000 0.0000 0.0000
# 4 0.0000 0.0000 0.0000 34.3509 0.0000 0.0000
# 5 0.0000 0.0000 0.0000 0.0000 22.4259 0.0000
# 6 0.0000 0.0000 0.0000 0.0000 0.0000 45.3370
#
#
#
# Elastic Compliance Matrix: (Units=1/GPa)
#
#
# Indices 1 2 3 4 5 6 
#
# 1 0.014220 -0.001889 -0.002194 0.000000 0.000000 0.000000
# 2 -0.001889 0.008677 -0.002782 0.000000 0.000000 0.000000
# 3 -0.002194 -0.002782 0.009141 0.000000 0.000000 0.000000
# 4 0.000000 0.000000 0.000000 0.029111 0.000000 0.000000
# 5 0.000000 0.000000 0.000000 0.000000 0.044591 0.000000
# 6 0.000000 0.000000 0.000000 0.000000 0.000000 0.022057
#
#
# Mechanical properties :
#
#
# Convention : Reuss Voigt Hill
#
# Bulk Modulus (GPa) = 54.61826 60.27576 57.44701
# Shear Modulus (GPa) = 33.86841 36.73502 35.30171
#
# Velocity S-wave (km/s) = 3.78415 3.94104 3.86339
# Velocity P-wave (km/s) = 6.49507 6.79662 6.64756
#
# Compressibility (1/GPa) = 0.01830890
#
# Stress axis : x y z
#
# Youngs Moduli (GPa) = 70.32169 115.24892 109.39763
#
# Poissons Ratio (x) = 0.21767 0.24001
# Poissons Ratio (y) = 0.13282 0.30435
# Poissons Ratio (z) = 0.15428 0.32063
#
# Static dielectric constant tensor:
#      x y z
#    x 1.894340 0.000000 0.000000 
#    y 0.000000 1.950510 0.000000 
#    z 0.000000 0.000000 1.885650 
# 
# From -- ./inp_files/51307.got.cif
#   From: 2010.05.17/outbox.cif.g08.bks.cpg/sg68_26_cif.got.tgz:51307.got - 2010.06.03 18:57:09.
