data_PCOD9509103
_publ_section_title
;
Structure prediction by ZEFSAII (Michael W. Deem and Ramdas Pophale) SiO2 
 PCOD9509103
Probable space group: C C C A
;
_chemical_formula_sum "Si O2"
_cell_formula_units_Z 104
_cell_length_a 9.022470
_cell_length_b 20.224692
_cell_length_c 27.086671
_cell_angle_alpha 90.000000
_cell_angle_beta 90.000000
_cell_angle_gamma 90.000000
_cell_volume 4942.685710
_symmetry_space_group_name_H-M "C C C A"
_symmetry_group_IT_number 68
_space_group.IT_coordinate_system_code '2'
_symmetry_cell_setting 'orthorhombic'
loop_
_space_group_symop_operation_xyz
x,y,z
-x,1/2-y,z
x,1/2-y,1/2-z
-x,y,1/2-z
-x,-y,-z
x,1/2+y,-z
-x,1/2+y,1/2+z
x,-y,1/2+z
1/2+x,1/2+y,z
1/2-x,-y,z
1/2+x,-y,1/2-z
1/2-x,1/2+y,1/2-z
1/2-x,1/2-y,-z
1/2+x,y,-z
1/2-x,y,1/2+z
1/2+x,1/2-y,1/2+z
loop_
_atom_site_type_symbol
_atom_site_label
_atom_site_fract_x
_atom_site_fract_y
_atom_site_fract_z
Si Si1 0.750678 0.712186 0.080785
Si Si2 0.975240 0.903739 0.412860
Si Si3 0.023226 0.400037 0.307439
Si Si4 0.705831 0.926889 0.109817
Si Si5 0.003692 0.127792 0.025121
Si Si6 0.500000 0.750000 0.973272
Si Si7 0.250000 0.500000 0.859622
Si Si8 0.500000 0.750000 0.344647
O O1 0.877300 0.661170 0.098774
O O2 0.652659 0.659639 0.048392
O O3 0.855475 0.768542 0.057102
O O4 0.642339 0.747075 0.119237
O O5 0.009014 0.909982 0.472411
O O6 0.876305 0.964816 0.393170
O O7 0.132364 0.895395 0.386461
O O8 0.164821 0.441980 0.328528
O O9 0.000000 0.413410 0.250000
O O10 0.884042 0.424537 0.339581
O O11 0.020182 0.319860 0.316159
O O12 0.593429 0.902516 0.067824
O O13 0.750000 0.000000 0.094868
O O14 0.929076 0.195285 0.007403
#
# Coordination Sequence:
#
# PCOD9509103 Si02
#       8
#    16  16  16  16  16   8   8   8
#     4  11  23  40  67 103 147 197 239 299 352 439
#     4  11  24  41  67 105 147 193 240 291 351 437
#     4  12  29  51  81 108 140 190 252 317 388 444
#     4  12  26  45  69 107 145 194 250 302 364 442
#     4  11  23  41  65 104 151 203 241 290 355 441
#     4  10  23  38  63 102 144 204 249 286 351 444
#     4  12  24  50  74 104 146 190 244 304 366 444
#     4  12  24  48  77 106 146 190 247 316 382 440
#
# _framework density 21.041191999999999
#
# number of rings (size 3 to 8) (size 9 to 14) (size 15 to 20)
#    0.000    0.615    4.615    3.000    6.462    1.846 
#    0.000    0.000    0.000    0.000    0.000    0.000 
#    0.000    0.000    0.000    0.000    0.000    0.000 
#
# Total GULP energy -289786.703511 kJ/mol
# GULP energy per Si atom -5572.821221 kJ/mol
# Density = 2.099330 g / cm^3
# Si number density = 21.041192 Si / 1000 Ang^3
#
#
#
# Elastic Constant Matrix: (Units=GPa)
#
#
# Indices 1 2 3 4 5 6 
#
# 1 177.3659 48.1577 74.2160 0.0000 0.0000 0.0000
# 2 48.1577 107.6383 37.6512 0.0000 0.0000 0.0000
# 3 74.2160 37.6512 141.0436 0.0000 0.0000 0.0000
# 4 0.0000 0.0000 0.0000 486.0400 0.0000 0.0000
# 5 0.0000 0.0000 0.0000 0.0000 18.6170 0.0000
# 6 0.0000 0.0000 0.0000 0.0000 0.0000 50.2257
#
#
#
# Elastic Compliance Matrix: (Units=1/GPa)
#
#
# Indices 1 2 3 4 5 6 
#
# 1 0.007688 -0.002233 -0.003449 0.000000 0.000000 0.000000
# 2 -0.002233 0.010896 -0.001734 0.000000 0.000000 0.000000
# 3 -0.003449 -0.001734 0.009368 0.000000 0.000000 0.000000
# 4 0.000000 0.000000 0.000000 0.002057 0.000000 0.000000
# 5 0.000000 0.000000 0.000000 0.000000 0.053714 0.000000
# 6 0.000000 0.000000 0.000000 0.000000 0.000000 0.019910
#
#
# Mechanical properties :
#
#
# Convention : Reuss Voigt Hill
#
# Bulk Modulus (GPa) = 76.22113 82.89974 79.56044
# Shear Modulus (GPa) = 40.70421 128.71140 84.70781
#
# Velocity S-wave (km/s) = 4.40307 7.82968 6.35181
# Velocity P-wave (km/s) = 7.88370 11.01013 9.57538
#
# Compressibility (1/GPa) = 0.01311972
#
# Stress axis : x y z
#
# Youngs Moduli (GPa) = 130.08039 91.77824 106.75036
#
# Poissons Ratio (x) = 0.20494 0.36819
# Poissons Ratio (y) = 0.29047 0.18507
# Poissons Ratio (z) = 0.44865 0.15911
#
# Static dielectric constant tensor:
#      x y z
#    x 1.842880 0.000000 0.000000 
#    y 0.000000 1.942150 0.000000 
#    z 0.000000 0.000000 1.799540 
# 
# From -- ./inp_files/49456.got.cif
#   From: 2010.05.17/outbox.cif.g08.bks.cpg/sg68_25_cif.got.tgz:49456.got - 2010.06.03 18:57:09.
