data_PCOD9509834
_publ_section_title
;
Structure prediction by ZEFSAII (Michael W. Deem and Ramdas Pophale) SiO2 
 PCOD9509834
Probable space group: C C C A
;
_chemical_formula_sum "Si O2"
_cell_formula_units_Z 112
_cell_length_a 13.092837
_cell_length_b 14.051739
_cell_length_c 28.490777
_cell_angle_alpha 90.000000
_cell_angle_beta 90.000000
_cell_angle_gamma 90.000000
_cell_volume 5241.651335
_symmetry_space_group_name_H-M "C C C A"
_symmetry_group_IT_number 68
_space_group.IT_coordinate_system_code '2'
_symmetry_cell_setting 'orthorhombic'
loop_
_space_group_symop_operation_xyz
x,y,z
-x,1/2-y,z
x,1/2-y,1/2-z
-x,y,1/2-z
-x,-y,-z
x,1/2+y,-z
-x,1/2+y,1/2+z
x,-y,1/2+z
1/2+x,1/2+y,z
1/2-x,-y,z
1/2+x,-y,1/2-z
1/2-x,1/2+y,1/2-z
1/2-x,1/2-y,-z
1/2+x,y,-z
1/2-x,y,1/2+z
1/2+x,1/2-y,1/2+z
loop_
_atom_site_type_symbol
_atom_site_label
_atom_site_fract_x
_atom_site_fract_y
_atom_site_fract_z
Si Si1 0.089668 0.047522 0.862234
Si Si2 0.448016 0.147524 0.202076
Si Si3 0.528297 0.860129 0.457652
Si Si4 0.093516 0.318271 0.354307
Si Si5 0.867707 0.524115 0.465512
Si Si6 0.702604 0.857278 0.166466
Si Si7 0.721155 0.109859 0.771719
O O1 0.090280 0.067596 0.917207
O O2 0.181720 0.108510 0.839796
O O3 0.984447 0.077337 0.838579
O O4 0.127070 0.939926 0.852165
O O5 0.500000 0.250000 0.193656
O O6 0.500000 0.110200 0.250000
O O7 0.327567 0.155154 0.210218
O O8 0.500000 0.750000 0.465342
O O9 0.563462 0.867270 0.403179
O O10 0.613458 0.904437 0.491705
O O11 0.431227 0.926265 0.469681
O O12 0.181164 0.238455 0.361969
O O13 0.135979 0.381326 0.311951
O O14 0.000000 0.250000 0.339085
O O15 0.750000 0.500000 0.459098
O O16 0.686353 0.846262 0.222220
O O17 0.750000 0.000000 0.762314
#
# Coordination Sequence:
#
# PCOD9509834 Si02
#       7
#    16  16  16  16  16  16  16
#     4  11  21  40  66  95 129 184 226 272 338 414
#     4  11  23  39  62  90 137 180 224 281 335 391
#     4  10  25  49  69 105 136 175 230 292 362 420
#     4  11  26  44  69  95 139 180 226 287 344 409
#     4  11  24  45  76  99 137 178 229 294 355 428
#     4  11  21  41  64  98 135 179 235 268 334 417
#     4  12  25  41  65 101 138 181 231 279 334 404
#
# _framework density 21.367311000000001
#
# number of rings (size 3 to 8) (size 9 to 14) (size 15 to 20)
#    0.000    1.000    4.286    3.000    6.000    2.857 
#    2.571    0.000    0.000    0.000    0.000    0.000 
#    0.000    0.000    0.000    0.000    0.000    0.000 
#
# Total GULP energy -313177.867214 kJ/mol
# GULP energy per Si atom -5592.461915 kJ/mol
# Density = 2.131868 g / cm^3
# Si number density = 21.367311 Si / 1000 Ang^3
#
#
#
# Elastic Constant Matrix: (Units=GPa)
#
#
# Indices 1 2 3 4 5 6 
#
# 1 65.0028 9.2553 46.2913 0.0000 0.0000 0.0000
# 2 9.2553 53.0997 26.4415 0.0000 0.0000 0.0000
# 3 46.2913 26.4415 118.2018 0.0000 0.0000 0.0000
# 4 0.0000 0.0000 0.0000 31.2442 0.0000 0.0000
# 5 0.0000 0.0000 0.0000 0.0000 32.9597 0.0000
# 6 0.0000 0.0000 0.0000 0.0000 0.0000 23.9425
#
#
#
# Elastic Compliance Matrix: (Units=1/GPa)
#
#
# Indices 1 2 3 4 5 6 
#
# 1 0.021346 0.000498 -0.008471 0.000000 0.000000 0.000000
# 2 0.000498 0.021205 -0.004938 0.000000 0.000000 0.000000
# 3 -0.008471 -0.004938 0.012882 0.000000 0.000000 0.000000
# 4 0.000000 0.000000 0.000000 0.032006 0.000000 0.000000
# 5 0.000000 0.000000 0.000000 0.000000 0.030340 0.000000
# 6 0.000000 0.000000 0.000000 0.000000 0.000000 0.041767
#
#
# Mechanical properties :
#
#
# Convention : Reuss Voigt Hill
#
# Bulk Modulus (GPa) = 33.77300 44.47561 39.12431
# Shear Modulus (GPa) = 25.60971 27.91703 26.76337
#
# Velocity S-wave (km/s) = 3.46576 3.61852 3.54296
# Velocity P-wave (km/s) = 5.64407 6.19017 5.92342
#
# Compressibility (1/GPa) = 0.02960945
#
# Stress axis : x y z
#
# Youngs Moduli (GPa) = 46.84816 47.15899 77.62626
#
# Poissons Ratio (x) = -0.02347 0.65756
# Poissons Ratio (y) = -0.02331 0.38335
# Poissons Ratio (z) = 0.39684 0.23289
#
# Static dielectric constant tensor:
#      x y z
#    x 1.793860 0.000000 0.000000 
#    y 0.000000 1.840760 0.000000 
#    z 0.000000 0.000000 1.756800 
# 
# From -- ./inp_files/45546.got.cif
#   From: 2010.05.17/outbox.cif.g08.bks.cpg/sg68_23_cif.got.tgz:45546.got - 2010.06.03 18:57:09.
