data_PCOD9509329
_publ_section_title
;
Structure prediction by ZEFSAII (Michael W. Deem and Ramdas Pophale) SiO2 
 PCOD9509329
Probable space group: C C C A
;
_chemical_formula_sum "Si O2"
_cell_formula_units_Z 48
_cell_length_a 8.835869
_cell_length_b 17.425453
_cell_length_c 12.957082
_cell_angle_alpha 90.000000
_cell_angle_beta 90.000000
_cell_angle_gamma 90.000000
_cell_volume 1994.989217
_symmetry_space_group_name_H-M "C C C A"
_symmetry_group_IT_number 68
_space_group.IT_coordinate_system_code '2'
_symmetry_cell_setting 'orthorhombic'
loop_
_space_group_symop_operation_xyz
x,y,z
-x,1/2-y,z
x,1/2-y,1/2-z
-x,y,1/2-z
-x,-y,-z
x,1/2+y,-z
-x,1/2+y,1/2+z
x,-y,1/2+z
1/2+x,1/2+y,z
1/2-x,-y,z
1/2+x,-y,1/2-z
1/2-x,1/2+y,1/2-z
1/2-x,1/2-y,-z
1/2+x,y,-z
1/2-x,y,1/2+z
1/2+x,1/2-y,1/2+z
loop_
_atom_site_type_symbol
_atom_site_label
_atom_site_fract_x
_atom_site_fract_y
_atom_site_fract_z
Si Si1 0.049402 0.397552 0.132490
Si Si2 0.222147 0.160122 0.006366
Si Si3 0.392769 0.551961 0.833913
O O1 0.945420 0.352564 0.050336
O O2 0.002737 0.486405 0.118936
O O3 0.000000 0.377128 0.250000
O O4 0.220316 0.377203 0.101172
O O5 0.319911 0.112570 0.090186
O O6 0.250000 0.250000 0.000000
O O7 0.500000 0.590063 0.750000
O O8 0.250000 0.500000 0.794321
#
# Coordination Sequence:
#
# PCOD9509329 Si02
#       3
#    16  16  16
#     4  10  23  44  66  91 129 175 226 278 324 390
#     4  11  23  39  62  95 133 170 210 271 345 401
#     4   9  20  40  67  96 126 172 229 279 325 389
#
# _framework density 24.060282000000001
#
# number of rings (size 3 to 8) (size 9 to 14) (size 15 to 20)
#    0.000    2.000    0.000    2.000    0.000   10.667 
#    0.000   11.667    0.000    0.000    0.000    2.333 
#    0.000    0.000    0.000    0.000    0.000    0.000 
#
# Total GULP energy -134082.836887 kJ/mol
# GULP energy per Si atom -5586.784870 kJ/mol
# Density = 2.400552 g / cm^3
# Si number density = 24.060282 Si / 1000 Ang^3
#
#
#
# Elastic Constant Matrix: (Units=GPa)
#
#
# Indices 1 2 3 4 5 6 
#
# 1 101.8712 42.6405 71.5551 0.0000 0.0000 0.0000
# 2 42.6405 97.7646 -6.8771 0.0000 0.0000 0.0000
# 3 71.5551 -6.8771 102.0089 0.0000 0.0000 0.0000
# 4 0.0000 0.0000 0.0000 -13.0958 0.0000 0.0000
# 5 0.0000 0.0000 0.0000 0.0000 59.0317 0.0000
# 6 0.0000 0.0000 0.0000 0.0000 0.0000 35.5154
#
#
#
# Elastic Compliance Matrix: (Units=1/GPa)
#
#
# Indices 1 2 3 4 5 6 
#
# 1 0.035058 -0.017102 -0.025745 0.000000 0.000000 0.000000
# 2 -0.017102 0.018620 0.013251 0.000000 0.000000 0.000000
# 3 -0.025745 0.013251 0.028755 0.000000 0.000000 0.000000
# 4 0.000000 0.000000 0.000000 -0.076360 0.000000 0.000000
# 5 0.000000 0.000000 0.000000 0.000000 0.016940 0.000000
# 6 0.000000 0.000000 0.000000 0.000000 0.000000 0.028157
#
#
# Mechanical properties :
#
#
# Convention : Reuss Voigt Hill
#
# Bulk Modulus (GPa) = 43.02341 57.36464 50.19403
# Shear Modulus (GPa) = 42.33470 29.24532 35.79001
#
# Velocity S-wave (km/s) = 4.19922 3.49019 3.86101
# Velocity P-wave (km/s) = 6.43674 6.33527 6.38621
#
# Compressibility (1/GPa) = 0.02324316
#
# Stress axis : x y z
#
# Youngs Moduli (GPa) = 28.52439 53.70646 34.77634
#
# Poissons Ratio (x) = 0.91846 0.89530
# Poissons Ratio (y) = 0.48781 -0.46083
# Poissons Ratio (z) = 0.73435 -0.71168
#
# Static dielectric constant tensor:
#      x y z
#    x 2.129830 0.000000 0.000000 
#    y 0.000000 1.842770 0.000000 
#    z 0.000000 0.000000 2.016680 
# 
# From -- ./inp_files/18752.got.cif
#   From: 2010.05.17/outbox.cif.g08.bks.cpg/sg68_10_cif.got.tgz:18752.got - 2010.06.03 18:57:09.
