data_PCOD9509062
_publ_section_title
;
Structure prediction by ZEFSAII (Michael W. Deem and Ramdas Pophale) SiO2 
 PCOD9509062
Probable space group: C C C A
;
_chemical_formula_sum "Si O2"
_cell_formula_units_Z 56
_cell_length_a 14.457086
_cell_length_b 18.468539
_cell_length_c 8.779237
_cell_angle_alpha 90.000000
_cell_angle_beta 90.000000
_cell_angle_gamma 90.000000
_cell_volume 2344.067311
_symmetry_space_group_name_H-M "C C C A"
_symmetry_group_IT_number 68
_space_group.IT_coordinate_system_code '2'
_symmetry_cell_setting 'orthorhombic'
loop_
_space_group_symop_operation_xyz
x,y,z
-x,1/2-y,z
x,1/2-y,1/2-z
-x,y,1/2-z
-x,-y,-z
x,1/2+y,-z
-x,1/2+y,1/2+z
x,-y,1/2+z
1/2+x,1/2+y,z
1/2-x,-y,z
1/2+x,-y,1/2-z
1/2-x,1/2+y,1/2-z
1/2-x,1/2-y,-z
1/2+x,y,-z
1/2-x,y,1/2+z
1/2+x,1/2-y,1/2+z
loop_
_atom_site_type_symbol
_atom_site_label
_atom_site_fract_x
_atom_site_fract_y
_atom_site_fract_z
Si Si1 0.000000 0.250000 0.250000
Si Si2 0.043233 0.396738 0.098260
Si Si3 0.282495 0.081309 0.094440
Si Si4 0.379242 0.867711 0.903032
Si Si5 0.500000 0.750000 0.750000
O O1 0.050773 0.310209 0.143813
O O2 0.142056 0.419673 0.040082
O O3 0.000000 0.430908 0.250000
O O4 0.967299 0.411123 0.968028
O O5 0.196715 0.130513 0.037313
O O6 0.250000 0.000000 0.115816
O O7 0.330346 0.893991 0.749783
O O8 0.430314 0.794732 0.855246
#
# Coordination Sequence:
#
# PCOD9509062 Si02
#       5
#     4  16  16  16   4
#     4   8  22  42  80 112 146 190 246 312 390 464
#     4  10  22  46  78 114 151 199 244 319 386 448
#     4  12  27  48  74 114 152 204 263 307 380 461
#     4  12  26  49  77 113 151 204 251 324 381 449
#     4  12  26  50  76 108 152 196 262 308 406 444
#
# _framework density 23.890098999999999
#
# number of rings (size 3 to 8) (size 9 to 14) (size 15 to 20)
#    0.857    0.000    2.857    3.429    0.000    3.429 
#    2.571    1.429    0.000    0.000    0.000    0.000 
#    0.000    0.000    0.000    0.000    0.000    0.000 
#
# Total GULP energy -156473.398269 kJ/mol
# GULP energy per Si atom -5588.335652 kJ/mol
# Density = 2.383572 g / cm^3
# Si number density = 23.890099 Si / 1000 Ang^3
#
#
#
# Elastic Constant Matrix: (Units=GPa)
#
#
# Indices 1 2 3 4 5 6 
#
# 1 155.0233 56.8053 46.8195 0.0000 0.0000 0.0000
# 2 56.8053 91.5722 66.2881 0.0000 0.0000 0.0000
# 3 46.8195 66.2881 111.2326 0.0000 0.0000 0.0000
# 4 0.0000 0.0000 0.0000 -5.8599 0.0000 0.0000
# 5 0.0000 0.0000 0.0000 0.0000 56.3262 0.0000
# 6 0.0000 0.0000 0.0000 0.0000 0.0000 81.7864
#
#
#
# Elastic Compliance Matrix: (Units=1/GPa)
#
#
# Indices 1 2 3 4 5 6 
#
# 1 0.008384 -0.004654 -0.000755 0.000000 0.000000 0.000000
# 2 -0.004654 0.021789 -0.011026 0.000000 0.000000 0.000000
# 3 -0.000755 -0.011026 0.015879 0.000000 0.000000 0.000000
# 4 0.000000 0.000000 0.000000 -0.170651 0.000000 0.000000
# 5 0.000000 0.000000 0.000000 0.000000 0.017754 0.000000
# 6 0.000000 0.000000 0.000000 0.000000 0.000000 0.012227
#
#
# Mechanical properties :
#
#
# Convention : Reuss Voigt Hill
#
# Bulk Modulus (GPa) = 75.86626 77.51710 76.69168
# Shear Modulus (GPa) = -87.17883 38.97822 -24.10030
#
# Velocity S-wave (km/s) = -6.04738 4.04364 -3.17961
# Velocity P-wave (km/s) = 4.11531 7.37016 4.32339
#
# Compressibility (1/GPa) = 0.01318109
#
# Stress axis : x y z
#
# Youngs Moduli (GPa) = 119.27162 45.89450 62.97622
#
# Poissons Ratio (x) = 0.21360 0.04757
# Poissons Ratio (y) = 0.55511 0.69438
# Poissons Ratio (z) = 0.09010 0.50603
#
# Static dielectric constant tensor:
#      x y z
#    x 1.847140 0.000000 0.000000 
#    y 0.000000 1.977630 0.000000 
#    z 0.000000 0.000000 2.299880 
# 
# From -- ./inp_files/21880.got.cif
#   From: 2010.05.17/outbox.cif.g08.bks.cpg/sg68_11_cif.got.tgz:21880.got - 2010.06.03 18:57:09.
