data_PCOD9509293
_publ_section_title
;
Structure prediction by ZEFSAII (Michael W. Deem and Ramdas Pophale) SiO2 
 PCOD9509293
Probable space group: C C C A
;
_chemical_formula_sum "Si O2"
_cell_formula_units_Z 88
_cell_length_a 21.374519
_cell_length_b 7.468478
_cell_length_c 25.553512
_cell_angle_alpha 90.000000
_cell_angle_beta 90.000000
_cell_angle_gamma 90.000000
_cell_volume 4079.238080
_symmetry_space_group_name_H-M "C C C A"
_symmetry_group_IT_number 68
_space_group.IT_coordinate_system_code '2'
_symmetry_cell_setting 'orthorhombic'
loop_
_space_group_symop_operation_xyz
x,y,z
-x,1/2-y,z
x,1/2-y,1/2-z
-x,y,1/2-z
-x,-y,-z
x,1/2+y,-z
-x,1/2+y,1/2+z
x,-y,1/2+z
1/2+x,1/2+y,z
1/2-x,-y,z
1/2+x,-y,1/2-z
1/2-x,1/2+y,1/2-z
1/2-x,1/2-y,-z
1/2+x,y,-z
1/2-x,y,1/2+z
1/2+x,1/2-y,1/2+z
loop_
_atom_site_type_symbol
_atom_site_label
_atom_site_fract_x
_atom_site_fract_y
_atom_site_fract_z
Si Si1 0.993637 0.033984 0.417107
Si Si2 0.609266 0.750000 0.750000
Si Si3 0.357894 0.618153 0.445016
Si Si4 0.375843 0.038799 0.440971
Si Si5 0.500000 0.250000 0.328802
Si Si6 0.250000 0.000000 0.133198
Si Si7 0.693697 0.638861 0.835497
O O1 0.049253 0.946687 0.451514
O O2 0.000000 0.250000 0.413034
O O3 0.922002 0.008096 0.434203
O O4 0.008442 0.926277 0.364067
O O5 0.560076 0.694623 0.705385
O O6 0.653027 0.615191 0.782843
O O7 0.367169 0.827226 0.434190
O O8 0.341817 0.600089 0.506300
O O9 0.305594 0.555889 0.405368
O O10 0.348540 0.126661 0.388350
O O11 0.275585 0.165013 0.166447
O O12 0.750000 0.500000 0.840324
#
# Coordination Sequence:
#
# PCOD9509293 Si02
#       7
#    16   8  16  16   8   8  16
#     4  10  23  43  68 103 137 174 225 278 330 398
#     4  11  26  46  72  98 122 175 232 284 356 391
#     4  11  24  39  68 105 142 188 220 265 337 410
#     4  11  23  43  67 101 143 180 227 276 328 405
#     4  11  22  46  74  94 130 174 222 292 343 396
#     4  12  26  44  68 100 140 184 226 268 342 414
#     4  12  26  48  68  98 137 176 230 291 338 410
#
# _framework density 21.572655000000001
#
# number of rings (size 3 to 8) (size 9 to 14) (size 15 to 20)
#    0.000    0.909    3.636    2.727    5.091    1.455 
#    0.000    3.636    0.000    0.000    0.000    0.000 
#    0.000    0.000    0.000    0.000    0.000    0.000 
#
# Total GULP energy -245580.166761 kJ/mol
# GULP energy per Si atom -5581.367426 kJ/mol
# Density = 2.152355 g / cm^3
# Si number density = 21.572655 Si / 1000 Ang^3
#
#
#
# Elastic Constant Matrix: (Units=GPa)
#
#
# Indices 1 2 3 4 5 6 
#
# 1 99.7887 8.3870 20.6879 0.0000 0.0000 0.0000
# 2 8.3870 61.6168 -0.3251 0.0000 0.0000 0.0000
# 3 20.6879 -0.3251 78.3879 0.0000 0.0000 0.0000
# 4 0.0000 0.0000 0.0000 21.6005 0.0000 0.0000
# 5 0.0000 0.0000 0.0000 0.0000 15.0905 0.0000
# 6 0.0000 0.0000 0.0000 0.0000 0.0000 23.4036
#
#
#
# Elastic Compliance Matrix: (Units=1/GPa)
#
#
# Indices 1 2 3 4 5 6 
#
# 1 0.010734 -0.001476 -0.002839 0.000000 0.000000 0.000000
# 2 -0.001476 0.016433 0.000458 0.000000 0.000000 0.000000
# 3 -0.002839 0.000458 0.013508 0.000000 0.000000 0.000000
# 4 0.000000 0.000000 0.000000 0.046295 0.000000 0.000000
# 5 0.000000 0.000000 0.000000 0.000000 0.066267 0.000000
# 6 0.000000 0.000000 0.000000 0.000000 0.000000 0.042728
#
#
# Mechanical properties :
#
#
# Convention : Reuss Voigt Hill
#
# Bulk Modulus (GPa) = 30.33968 33.03256 31.68612
# Shear Modulus (GPa) = 23.29195 26.08850 24.69023
#
# Velocity S-wave (km/s) = 3.28944 3.48132 3.38674
# Velocity P-wave (km/s) = 5.34057 5.61292 5.47844
#
# Compressibility (1/GPa) = 0.03296013
#
# Stress axis : x y z
#
# Youngs Moduli (GPa) = 93.16374 60.85443 74.02907
#
# Poissons Ratio (x) = 0.08982 0.21016
# Poissons Ratio (y) = 0.13751 -0.03388
# Poissons Ratio (z) = 0.26449 -0.02785
#
# Static dielectric constant tensor:
#      x y z
#    x 1.871120 0.000000 0.000000 
#    y 0.000000 1.738480 0.000000 
#    z 0.000000 0.000000 1.764160 
# 
# From -- ./inp_files/46518.got.cif
#   From: 2010.05.17/outbox.cif.g08.bks.cpg/sg68_24_cif.got.tgz:46518.got - 2010.06.03 18:57:09.
