data_PCOD9509356
_publ_section_title
;
Structure prediction by ZEFSAII (Michael W. Deem and Ramdas Pophale) SiO2 
 PCOD9509356
Probable space group: C C C A
;
_chemical_formula_sum "Si O2"
_cell_formula_units_Z 60
_cell_length_a 11.279247
_cell_length_b 8.264061
_cell_length_c 27.153715
_cell_angle_alpha 90.000000
_cell_angle_beta 90.000000
_cell_angle_gamma 90.000000
_cell_volume 2531.062543
_symmetry_space_group_name_H-M "C C C A"
_symmetry_group_IT_number 68
_space_group.IT_coordinate_system_code '2'
_symmetry_cell_setting 'orthorhombic'
loop_
_space_group_symop_operation_xyz
x,y,z
-x,1/2-y,z
x,1/2-y,1/2-z
-x,y,1/2-z
-x,-y,-z
x,1/2+y,-z
-x,1/2+y,1/2+z
x,-y,1/2+z
1/2+x,1/2+y,z
1/2-x,-y,z
1/2+x,-y,1/2-z
1/2-x,1/2+y,1/2-z
1/2-x,1/2-y,-z
1/2+x,y,-z
1/2-x,y,1/2+z
1/2+x,1/2-y,1/2+z
loop_
_atom_site_type_symbol
_atom_site_label
_atom_site_fract_x
_atom_site_fract_y
_atom_site_fract_z
Si Si1 0.900507 0.888429 0.635702
Si Si2 0.000000 0.250000 0.750000
Si Si3 0.159765 0.761860 0.335672
Si Si4 0.129738 0.746473 0.969084
Si Si5 0.250000 0.000000 0.589442
O O1 0.792415 0.832200 0.670858
O O2 0.867545 0.869911 0.577425
O O3 0.000000 0.750000 0.643030
O O4 0.914107 0.078785 0.647039
O O5 0.903832 0.319175 0.711056
O O6 0.186376 0.633041 0.377653
O O7 0.145430 0.573710 0.942860
O O8 0.000000 0.750000 0.993266
O O9 0.250000 0.750000 0.000000
#
# Coordination Sequence:
#
# PCOD9509356 Si02
#       5
#    16   4  16  16   8
#     4   9  21  48  74  99 148 199 238 306 381 444
#     4  12  28  40  72 108 144 180 254 318 352 456
#     4  10  24  45  69 108 139 192 250 301 382 438
#     4  10  23  44  71 110 144 195 250 300 364 451
#     4  10  24  46  74 100 154 200 234 308 380 450
#
# _framework density 23.705459999999999
#
# number of rings (size 3 to 8) (size 9 to 14) (size 15 to 20)
#    0.000    2.133    0.000    0.000   11.200    7.467 
#    9.600    0.000    0.000    0.000    0.000    0.000 
#    0.000    0.000    0.000    0.000    0.000    0.000 
#
# Total GULP energy -167004.226850 kJ/mol
# GULP energy per Si atom -5566.807562 kJ/mol
# Density = 2.365151 g / cm^3
# Si number density = 23.705460 Si / 1000 Ang^3
#
#
#
# Elastic Constant Matrix: (Units=GPa)
#
#
# Indices 1 2 3 4 5 6 
#
# 1 197.3371 46.1529 71.8915 0.0000 0.0000 0.0000
# 2 46.1529 134.7343 24.5016 0.0000 0.0000 0.0000
# 3 71.8915 24.5016 65.2338 0.0000 0.0000 0.0000
# 4 0.0000 0.0000 0.0000 4.2759 0.0000 0.0000
# 5 0.0000 0.0000 0.0000 0.0000 45.4646 0.0000
# 6 0.0000 0.0000 0.0000 0.0000 0.0000 37.5612
#
#
#
# Elastic Compliance Matrix: (Units=1/GPa)
#
#
# Indices 1 2 3 4 5 6 
#
# 1 0.008682 -0.001324 -0.009070 0.000000 0.000000 0.000000
# 2 -0.001324 0.008168 -0.001608 0.000000 0.000000 0.000000
# 3 -0.009070 -0.001608 0.025929 0.000000 0.000000 0.000000
# 4 0.000000 0.000000 0.000000 0.233867 0.000000 0.000000
# 5 0.000000 0.000000 0.000000 0.000000 0.021995 0.000000
# 6 0.000000 0.000000 0.000000 0.000000 0.000000 0.026623
#
#
# Mechanical properties :
#
#
# Convention : Reuss Voigt Hill
#
# Bulk Modulus (GPa) = 53.26711 75.82190 64.54451
# Shear Modulus (GPa) = 14.06358 34.44430 24.25394
#
# Velocity S-wave (km/s) = 2.43834 3.81597 3.20212
# Velocity P-wave (km/s) = 5.51784 7.17426 6.39986
#
# Compressibility (1/GPa) = 0.01877331
#
# Stress axis : x y z
#
# Youngs Moduli (GPa) = 115.18689 122.42642 38.56630
#
# Poissons Ratio (x) = 0.16215 0.34980
# Poissons Ratio (y) = 0.15256 0.06203
# Poissons Ratio (z) = 1.04476 0.19690
#
# Static dielectric constant tensor:
#      x y z
#    x 2.020560 0.000000 0.000000 
#    y 0.000000 1.955400 0.000000 
#    z 0.000000 0.000000 1.940600 
# 
# From -- ./inp_files/54363.got.cif
#   From: 2010.05.17/outbox.cif.g08.bks.cpg/sg68_28_cif.got.tgz:54363.got - 2010.06.03 18:57:09.
