data_PCOD9509044
_publ_section_title
;
Structure prediction by ZEFSAII (Michael W. Deem and Ramdas Pophale) SiO2 
 PCOD9509044
Probable space group: C C C A
;
_chemical_formula_sum "Si O2"
_cell_formula_units_Z 64
_cell_length_a 11.011692
_cell_length_b 28.337703
_cell_length_c 9.435688
_cell_angle_alpha 90.000000
_cell_angle_beta 90.000000
_cell_angle_gamma 90.000000
_cell_volume 2944.369239
_symmetry_space_group_name_H-M "C C C A"
_symmetry_group_IT_number 68
_space_group.IT_coordinate_system_code '2'
_symmetry_cell_setting 'orthorhombic'
loop_
_space_group_symop_operation_xyz
x,y,z
-x,1/2-y,z
x,1/2-y,1/2-z
-x,y,1/2-z
-x,-y,-z
x,1/2+y,-z
-x,1/2+y,1/2+z
x,-y,1/2+z
1/2+x,1/2+y,z
1/2-x,-y,z
1/2+x,-y,1/2-z
1/2-x,1/2+y,1/2-z
1/2-x,1/2-y,-z
1/2+x,y,-z
1/2-x,y,1/2+z
1/2+x,1/2-y,1/2+z
loop_
_atom_site_type_symbol
_atom_site_label
_atom_site_fract_x
_atom_site_fract_y
_atom_site_fract_z
Si Si1 0.244329 0.555773 0.711829
Si Si2 0.347019 0.708228 0.000712
Si Si3 0.500000 0.250000 0.750000
Si Si4 0.693682 0.114360 0.968577
Si Si5 0.500000 0.250000 0.250000
Si Si6 0.000000 0.104382 0.250000
O O1 0.250000 0.500000 0.702539
O O2 0.332481 0.584899 0.609213
O O3 0.105740 0.572693 0.679615
O O4 0.261924 0.576471 0.868666
O O5 0.421641 0.717705 0.144036
O O6 0.276502 0.659097 0.000831
O O7 0.250000 0.750000 0.000000
O O8 0.424375 0.716874 0.857766
O O9 0.576046 0.129126 0.875866
#
# Coordination Sequence:
#
# PCOD9509044 Si02
#       6
#    16  16   4  16   4   8
#     4  10  22  46  69 101 142 181 236 291 348 420
#     4  11  25  44  73 100 145 183 236 289 355 420
#     4  10  26  44  72 108 146 182 234 298 358 412
#     4  10  24  44  69 102 139 184 233 290 348 424
#     4  10  26  46  66 104 138 182 232 278 356 420
#     4   8  24  43  69 101 142 174 240 280 353 406
#
# _framework density 21.736404
#
# number of rings (size 3 to 8) (size 9 to 14) (size 15 to 20)
#    1.500    0.500    0.000    1.500    7.000    7.000 
#    0.000    0.000    0.000    0.000    0.000    0.000 
#    0.000    0.000    0.000    0.000    0.000    0.000 
#
# Total GULP energy -178537.142776 kJ/mol
# GULP energy per Si atom -5579.285712 kJ/mol
# Density = 2.168693 g / cm^3
# Si number density = 21.736404 Si / 1000 Ang^3
#
#
#
# Elastic Constant Matrix: (Units=GPa)
#
#
# Indices 1 2 3 4 5 6 
#
# 1 88.2565 45.9077 38.6035 0.0000 0.0000 0.0000
# 2 45.9077 149.0789 19.0053 0.0000 0.0000 0.0000
# 3 38.6035 19.0053 94.5591 0.0000 0.0000 0.0000
# 4 0.0000 0.0000 0.0000 26.4781 0.0000 0.0000
# 5 0.0000 0.0000 0.0000 0.0000 26.9405 0.0000
# 6 0.0000 0.0000 0.0000 0.0000 0.0000 31.1950
#
#
#
# Elastic Compliance Matrix: (Units=1/GPa)
#
#
# Indices 1 2 3 4 5 6 
#
# 1 0.016006 -0.004204 -0.005689 0.000000 0.000000 0.000000
# 2 -0.004204 0.007988 0.000111 0.000000 0.000000 0.000000
# 3 -0.005689 0.000111 0.012876 0.000000 0.000000 0.000000
# 4 0.000000 0.000000 0.000000 0.037767 0.000000 0.000000
# 5 0.000000 0.000000 0.000000 0.000000 0.037119 0.000000
# 6 0.000000 0.000000 0.000000 0.000000 0.000000 0.032056
#
#
# Mechanical properties :
#
#
# Convention : Reuss Voigt Hill
#
# Bulk Modulus (GPa) = 57.78689 59.88084 58.83386
# Shear Modulus (GPa) = 29.56043 32.14793 30.85418
#
# Velocity S-wave (km/s) = 3.69175 3.84994 3.77167
# Velocity P-wave (km/s) = 6.69440 6.88267 6.78919
#
# Compressibility (1/GPa) = 0.01730496
#
# Stress axis : x y z
#
# Youngs Moduli (GPa) = 62.47789 125.18459 77.66466
#
# Poissons Ratio (x) = 0.52621 0.44187
# Poissons Ratio (y) = 0.26263 -0.00858
# Poissons Ratio (z) = 0.35546 -0.01384
#
# Static dielectric constant tensor:
#      x y z
#    x 1.840970 0.000000 0.000000 
#    y 0.000000 1.761500 0.000000 
#    z 0.000000 0.000000 1.826580 
# 
# From -- ./inp_files/4127.got.cif
#   From: 2010.05.17/outbox.cif.g08.bks.cpg/sg68_3_cif.got.tgz:4127.got - 2010.06.03 18:57:09.
