data_PCOD9509238
_publ_section_title
;
Structure prediction by ZEFSAII (Michael W. Deem and Ramdas Pophale) SiO2 
 PCOD9509238
Probable space group: C C C A
;
_chemical_formula_sum "Si O2"
_cell_formula_units_Z 88
_cell_length_a 28.609768
_cell_length_b 8.077100
_cell_length_c 17.407703
_cell_angle_alpha 90.000000
_cell_angle_beta 90.000000
_cell_angle_gamma 90.000000
_cell_volume 4022.640893
_symmetry_space_group_name_H-M "C C C A"
_symmetry_group_IT_number 68
_space_group.IT_coordinate_system_code '2'
_symmetry_cell_setting 'orthorhombic'
loop_
_space_group_symop_operation_xyz
x,y,z
-x,1/2-y,z
x,1/2-y,1/2-z
-x,y,1/2-z
-x,-y,-z
x,1/2+y,-z
-x,1/2+y,1/2+z
x,-y,1/2+z
1/2+x,1/2+y,z
1/2-x,-y,z
1/2+x,-y,1/2-z
1/2-x,1/2+y,1/2-z
1/2-x,1/2-y,-z
1/2+x,y,-z
1/2-x,y,1/2+z
1/2+x,1/2-y,1/2+z
loop_
_atom_site_type_symbol
_atom_site_label
_atom_site_fract_x
_atom_site_fract_y
_atom_site_fract_z
Si Si1 0.117124 0.250000 0.250000
Si Si2 0.691733 0.250025 0.612425
Si Si3 0.948305 0.438300 0.778619
Si Si4 0.389493 0.195546 0.396041
Si Si5 0.250000 0.000000 0.290368
Si Si6 0.655878 0.530858 0.524277
Si Si7 0.177340 0.750000 0.250000
O O1 0.148976 0.240600 0.326376
O O2 0.085776 0.416515 0.250030
O O3 0.690820 0.437089 0.581737
O O4 0.732248 0.152401 0.657116
O O5 0.683451 0.149750 0.533638
O O6 0.940420 0.250000 0.750000
O O7 0.935568 0.400939 0.867539
O O8 0.000000 0.482128 0.750000
O O9 0.368271 0.093216 0.465445
O O10 0.385945 0.381064 0.428353
O O11 0.353679 0.204771 0.324052
O O12 0.290927 0.085167 0.241760
#
# Coordination Sequence:
#
# PCOD9509238 Si02
#       7
#     8  16  16  16   8  16   8
#     4  12  22  44  72  99 136 185 232 278 350 416
#     4  11  24  42  64  95 132 184 224 283 341 408
#     4  11  23  40  71 107 134 168 233 286 334 410
#     4  11  22  45  68 101 128 186 222 277 350 417
#     4  12  26  40  60 100 132 172 244 288 332 390
#     4  10  23  42  67  96 136 179 223 275 354 416
#     4  12  25  42  65  93 130 177 233 282 331 406
#
# _framework density 21.876176999999998
#
# number of rings (size 3 to 8) (size 9 to 14) (size 15 to 20)
#    0.000    0.909    4.545    1.909    5.091    0.727 
#    0.000    0.000    0.000   19.636    0.000    0.000 
#    0.000    0.000    0.000    0.000    0.000    0.000 
#
# Total GULP energy -245303.223123 kJ/mol
# GULP energy per Si atom -5575.073253 kJ/mol
# Density = 2.182639 g / cm^3
# Si number density = 21.876177 Si / 1000 Ang^3
#
#
#
# Elastic Constant Matrix: (Units=GPa)
#
#
# Indices 1 2 3 4 5 6 
#
# 1 87.1693 29.3513 58.0267 0.0000 0.0000 0.0000
# 2 29.3513 85.1334 64.3728 0.0000 0.0000 0.0000
# 3 58.0267 64.3728 118.0484 0.0000 0.0000 0.0000
# 4 0.0000 0.0000 0.0000 49.7102 0.0000 0.0000
# 5 0.0000 0.0000 0.0000 0.0000 25.3647 0.0000
# 6 0.0000 0.0000 0.0000 0.0000 0.0000 27.7833
#
#
#
# Elastic Compliance Matrix: (Units=1/GPa)
#
#
# Indices 1 2 3 4 5 6 
#
# 1 0.017082 0.000782 -0.008823 0.000000 0.000000 0.000000
# 2 0.000782 0.020024 -0.011304 0.000000 0.000000 0.000000
# 3 -0.008823 -0.011304 0.018972 0.000000 0.000000 0.000000
# 4 0.000000 0.000000 0.000000 0.020117 0.000000 0.000000
# 5 0.000000 0.000000 0.000000 0.000000 0.039425 0.000000
# 6 0.000000 0.000000 0.000000 0.000000 0.000000 0.035993
#
#
# Mechanical properties :
#
#
# Convention : Reuss Voigt Hill
#
# Bulk Modulus (GPa) = 57.50884 65.98365 61.74624
# Shear Modulus (GPa) = 25.49751 29.81164 27.65458
#
# Velocity S-wave (km/s) = 3.41770 3.69554 3.55933
# Velocity P-wave (km/s) = 6.47454 6.95968 6.72149
#
# Compressibility (1/GPa) = 0.01738863
#
# Stress axis : x y z
#
# Youngs Moduli (GPa) = 58.54128 49.94080 52.70885
#
# Poissons Ratio (x) = -0.03907 0.46506
# Poissons Ratio (y) = -0.04580 0.59580
# Poissons Ratio (z) = 0.51652 0.56451
#
# Static dielectric constant tensor:
#      x y z
#    x 1.849620 0.000000 0.000000 
#    y 0.000000 1.935500 0.000000 
#    z 0.000000 0.000000 1.860380 
# 
# From -- ./inp_files/34382.got.cif
#   From: 2010.05.17/outbox.cif.g08.bks.cpg/sg68_18_cif.got.tgz:34382.got - 2010.06.03 18:57:09.
