data_PCOD9509058
_publ_section_title
;
Structure prediction by ZEFSAII (Michael W. Deem and Ramdas Pophale) SiO2 
 PCOD9509058
Probable space group: C C C A
;
_chemical_formula_sum "Si O2"
_cell_formula_units_Z 60
_cell_length_a 10.612274
_cell_length_b 11.540036
_cell_length_c 19.562449
_cell_angle_alpha 90.000000
_cell_angle_beta 90.000000
_cell_angle_gamma 90.000000
_cell_volume 2395.735349
_symmetry_space_group_name_H-M "C C C A"
_symmetry_group_IT_number 68
_space_group.IT_coordinate_system_code '2'
_symmetry_cell_setting 'orthorhombic'
loop_
_space_group_symop_operation_xyz
x,y,z
-x,1/2-y,z
x,1/2-y,1/2-z
-x,y,1/2-z
-x,-y,-z
x,1/2+y,-z
-x,1/2+y,1/2+z
x,-y,1/2+z
1/2+x,1/2+y,z
1/2-x,-y,z
1/2+x,-y,1/2-z
1/2-x,1/2+y,1/2-z
1/2-x,1/2-y,-z
1/2+x,y,-z
1/2-x,y,1/2+z
1/2+x,1/2-y,1/2+z
loop_
_atom_site_type_symbol
_atom_site_label
_atom_site_fract_x
_atom_site_fract_y
_atom_site_fract_z
Si Si1 0.926349 0.900439 0.645811
Si Si2 0.567084 0.366653 0.146183
Si Si3 0.750000 0.500000 0.748968
Si Si4 0.500000 0.250000 0.750000
Si Si5 0.625671 0.579430 0.498991
O O1 0.888858 0.851559 0.572283
O O2 0.038814 0.840895 0.689240
O O3 0.813979 0.905785 0.699956
O O4 0.962017 0.034018 0.637070
O O5 0.500000 0.250000 0.167949
O O6 0.660213 0.423321 0.200827
O O7 0.627826 0.352156 0.070536
O O8 0.500000 0.500000 0.500000
O O9 0.750000 0.500000 0.495418
#
# Coordination Sequence:
#
# PCOD9509058 Si02
#       5
#    16  16   8   4  16
#     4  11  25  44  68 106 145 200 256 321 398 481
#     4  11  25  47  73 111 154 201 267 334 401 488
#     4  12  22  46  74 104 150 198 260 322 402 468
#     4  12  24  44  66  96 154 196 250 322 404 478
#     4  10  22  46  73 106 153 201 267 329 400 486
#
# _framework density 25.044502000000001
#
# number of rings (size 3 to 8) (size 9 to 14) (size 15 to 20)
#    0.000    1.067    5.333    0.000    1.867    4.267 
#    0.000    5.333    0.000    0.000    0.000    0.000 
#    0.000    0.000    0.000    0.000    0.000    0.000 
#
# Total GULP energy -167236.402021 kJ/mol
# GULP energy per Si atom -5574.546734 kJ/mol
# Density = 2.498750 g / cm^3
# Si number density = 25.044502 Si / 1000 Ang^3
#
#
#
# Elastic Constant Matrix: (Units=GPa)
#
#
# Indices 1 2 3 4 5 6 
#
# 1 110.2277 13.6000 49.8848 0.0000 0.0000 0.0000
# 2 13.6000 102.2959 37.9403 0.0000 0.0000 0.0000
# 3 49.8848 37.9403 256.1349 0.0000 0.0000 0.0000
# 4 0.0000 0.0000 0.0000 55.4698 0.0000 0.0000
# 5 0.0000 0.0000 0.0000 0.0000 28.7346 0.0000
# 6 0.0000 0.0000 0.0000 0.0000 0.0000 24.6789
#
#
#
# Elastic Compliance Matrix: (Units=1/GPa)
#
#
# Indices 1 2 3 4 5 6 
#
# 1 0.009989 -0.000642 -0.001850 0.000000 0.000000 0.000000
# 2 -0.000642 0.010385 -0.001413 0.000000 0.000000 0.000000
# 3 -0.001850 -0.001413 0.004474 0.000000 0.000000 0.000000
# 4 0.000000 0.000000 0.000000 0.018028 0.000000 0.000000
# 5 0.000000 0.000000 0.000000 0.000000 0.034801 0.000000
# 6 0.000000 0.000000 0.000000 0.000000 0.000000 0.040520
#
#
# Mechanical properties :
#
#
# Convention : Reuss Voigt Hill
#
# Bulk Modulus (GPa) = 58.69599 74.61207 66.65403
# Shear Modulus (GPa) = 37.96886 46.25891 42.11389
#
# Velocity S-wave (km/s) = 3.89788 4.30242 4.10513
# Velocity P-wave (km/s) = 6.61404 7.38495 7.01010
#
# Compressibility (1/GPa) = 0.01703694
#
# Stress axis : x y z
#
# Youngs Moduli (GPa) = 100.11311 96.29223 223.51790
#
# Poissons Ratio (x) = 0.06179 0.41359
# Poissons Ratio (y) = 0.06424 0.31590
# Poissons Ratio (z) = 0.18524 0.13609
#
# Static dielectric constant tensor:
#      x y z
#    x 2.123830 0.000000 0.000000 
#    y 0.000000 1.988970 0.000000 
#    z 0.000000 0.000000 2.069060 
# 
# From -- ./inp_files/37062.got.cif
#   From: 2010.05.17/outbox.cif.g08.bks.cpg/sg68_19_cif.got.tgz:37062.got - 2010.06.03 18:57:09.
