data_PCOD9509111
_publ_section_title
;
Structure prediction by ZEFSAII (Michael W. Deem and Ramdas Pophale) SiO2 
 PCOD9509111
Probable space group: C C C A
;
_chemical_formula_sum "Si O2"
_cell_formula_units_Z 104
_cell_length_a 21.015501
_cell_length_b 13.774367
_cell_length_c 19.893297
_cell_angle_alpha 90.000000
_cell_angle_beta 90.000000
_cell_angle_gamma 90.000000
_cell_volume 5758.616594
_symmetry_space_group_name_H-M "C C C A"
_symmetry_group_IT_number 68
_space_group.IT_coordinate_system_code '2'
_symmetry_cell_setting 'orthorhombic'
loop_
_space_group_symop_operation_xyz
x,y,z
-x,1/2-y,z
x,1/2-y,1/2-z
-x,y,1/2-z
-x,-y,-z
x,1/2+y,-z
-x,1/2+y,1/2+z
x,-y,1/2+z
1/2+x,1/2+y,z
1/2-x,-y,z
1/2+x,-y,1/2-z
1/2-x,1/2+y,1/2-z
1/2-x,1/2-y,-z
1/2+x,y,-z
1/2-x,y,1/2+z
1/2+x,1/2-y,1/2+z
loop_
_atom_site_type_symbol
_atom_site_label
_atom_site_fract_x
_atom_site_fract_y
_atom_site_fract_z
Si Si1 0.678220 0.034580 0.220289
Si Si2 0.857544 0.412961 0.400242
Si Si3 0.192432 0.076607 0.544070
Si Si4 0.221469 0.217198 0.117267
Si Si5 0.801639 0.250000 0.750000
Si Si6 0.122912 0.047687 0.149323
Si Si7 0.508090 0.635026 0.330845
O O1 0.665113 0.148752 0.230162
O O2 0.750000 0.000000 0.238342
O O3 0.668176 0.002510 0.143682
O O4 0.634994 0.974359 0.272196
O O5 0.853333 0.428172 0.479842
O O6 0.810193 0.321558 0.391622
O O7 0.925642 0.391493 0.366474
O O8 0.228403 0.177114 0.562144
O O9 0.250000 0.000000 0.533649
O O10 0.151781 0.042443 0.608332
O O11 0.258519 0.221366 0.187123
O O12 0.165385 0.138795 0.125787
O O13 0.049902 0.074032 0.137683
O O14 0.500000 0.750000 0.341604
O O15 0.500000 0.620490 0.250000
#
# Coordination Sequence:
#
# PCOD9509111 Si02
#       7
#    16  16  16  16   8  16  16
#     4  12  21  35  59  91 121 156 206 253 309 371
#     4  12  23  38  60  91 123 165 208 249 312 385
#     4  10  23  39  58  90 132 166 196 251 318 378
#     4  11  20  35  62  93 126 157 199 256 312 371
#     4  12  22  34  60  94 122 158 200 258 314 364
#     4  11  20  40  59  87 123 162 201 248 315 367
#     4  11  23  37  62  91 118 154 207 266 302 357
#
# _framework density 18.059892000000001
#
# number of rings (size 3 to 8) (size 9 to 14) (size 15 to 20)
#    0.000    0.769    7.692    1.385    0.000    0.615 
#    0.000    0.000    0.000    1.846    0.000    0.000 
#    0.000    0.000    0.000    0.000    0.000    0.000 
#
# Total GULP energy -289986.693817 kJ/mol
# GULP energy per Si atom -5576.667189 kJ/mol
# Density = 1.801879 g / cm^3
# Si number density = 18.059892 Si / 1000 Ang^3
#
#
#
# Elastic Constant Matrix: (Units=GPa)
#
#
# Indices 1 2 3 4 5 6 
#
# 1 92.1249 17.8073 26.5352 0.0000 0.0000 0.0000
# 2 17.8073 66.6931 2.0942 0.0000 0.0000 0.0000
# 3 26.5352 2.0942 88.3626 0.0000 0.0000 0.0000
# 4 0.0000 0.0000 0.0000 14.2899 0.0000 0.0000
# 5 0.0000 0.0000 0.0000 0.0000 29.7062 0.0000
# 6 0.0000 0.0000 0.0000 0.0000 0.0000 20.7860
#
#
#
# Elastic Compliance Matrix: (Units=1/GPa)
#
#
# Indices 1 2 3 4 5 6 
#
# 1 0.012543 -0.003233 -0.003690 0.000000 0.000000 0.000000
# 2 -0.003233 0.015839 0.000595 0.000000 0.000000 0.000000
# 3 -0.003690 0.000595 0.012411 0.000000 0.000000 0.000000
# 4 0.000000 0.000000 0.000000 0.069979 0.000000 0.000000
# 5 0.000000 0.000000 0.000000 0.000000 0.033663 0.000000
# 6 0.000000 0.000000 0.000000 0.000000 0.000000 0.048109
#
#
# Mechanical properties :
#
#
# Convention : Reuss Voigt Hill
#
# Bulk Modulus (GPa) = 35.54008 37.78376 36.66192
# Shear Modulus (GPa) = 23.30156 26.33934 24.82045
#
# Velocity S-wave (km/s) = 3.59589 3.82310 3.71123
# Velocity P-wave (km/s) = 6.07966 6.36042 6.22162
#
# Compressibility (1/GPa) = 0.02813725
#
# Stress axis : x y z
#
# Youngs Moduli (GPa) = 79.72843 63.13698 80.57393
#
# Poissons Ratio (x) = 0.20412 0.29731
# Poissons Ratio (y) = 0.25776 -0.04798
# Poissons Ratio (z) = 0.29419 -0.03760
#
# Static dielectric constant tensor:
#      x y z
#    x 1.605220 0.000000 0.000000 
#    y 0.000000 1.195980 0.000000 
#    z 0.000000 0.000000 1.614600 
# 
# From -- ./inp_files/31122.got.cif
#   From: 2010.05.17/outbox.cif.g08.bks.cpg/sg68_16_cif.got.tgz:31122.got - 2010.06.03 18:57:09.
