data_PCOD9509043
_publ_section_title
;
Structure prediction by ZEFSAII (Michael W. Deem and Ramdas Pophale) SiO2 
 PCOD9509043
Probable space group: C C C A
;
_chemical_formula_sum "Si O2"
_cell_formula_units_Z 104
_cell_length_a 19.724973
_cell_length_b 24.718956
_cell_length_c 9.625418
_cell_angle_alpha 90.000000
_cell_angle_beta 90.000000
_cell_angle_gamma 90.000000
_cell_volume 4693.168428
_symmetry_space_group_name_H-M "C C C A"
_symmetry_group_IT_number 68
_space_group.IT_coordinate_system_code '2'
_symmetry_cell_setting 'orthorhombic'
loop_
_space_group_symop_operation_xyz
x,y,z
-x,1/2-y,z
x,1/2-y,1/2-z
-x,y,1/2-z
-x,-y,-z
x,1/2+y,-z
-x,1/2+y,1/2+z
x,-y,1/2+z
1/2+x,1/2+y,z
1/2-x,-y,z
1/2+x,-y,1/2-z
1/2-x,1/2+y,1/2-z
1/2-x,1/2-y,-z
1/2+x,y,-z
1/2-x,y,1/2+z
1/2+x,1/2-y,1/2+z
loop_
_atom_site_type_symbol
_atom_site_label
_atom_site_fract_x
_atom_site_fract_y
_atom_site_fract_z
Si Si1 0.678765 0.031331 0.884643
Si Si2 0.824939 0.156267 0.961776
Si Si3 0.922441 0.754502 0.083260
Si Si4 0.371980 0.350843 0.902564
Si Si5 0.500000 0.096431 0.750000
Si Si6 0.247256 0.688857 0.718780
Si Si7 0.115942 0.546610 0.586647
O O1 0.669675 0.093623 0.932527
O O2 0.660747 0.031377 0.721629
O O3 0.750000 0.000000 0.908158
O O4 0.622940 0.998775 0.971351
O O5 0.880146 0.203461 0.970255
O O6 0.798611 0.151386 0.804365
O O7 0.762967 0.176505 0.058247
O O8 0.853381 0.101184 0.021665
O O9 0.922488 0.750000 0.250000
O O10 0.000000 0.750000 0.034997
O O11 0.890215 0.810073 0.026645
O O12 0.442313 0.369345 0.829432
O O13 0.326088 0.319962 0.789286
O O14 0.541421 0.059933 0.641417
O O15 0.268724 0.750000 0.750000
#
# Coordination Sequence:
#
# PCOD9509043 Si02
#       7
#    16  16  16  16   8  16  16
#     4  11  24  46  68 102 140 180 241 294 369 428
#     4  12  25  45  68 106 141 183 236 296 359 441
#     4  11  26  46  70 105 147 191 241 300 370 442
#     4  11  24  43  71 100 139 189 235 295 361 440
#     4  10  22  46  69 100 134 178 255 286 362 434
#     4  12  24  41  68 104 137 182 227 285 365 424
#     4  11  25  43  71 101 134 190 231 306 351 428
#
# _framework density 22.159870000000002
#
# number of rings (size 3 to 8) (size 9 to 14) (size 15 to 20)
#    0.000    0.769    4.615    3.231    2.154    3.692 
#    0.000    1.538    0.000    0.000    0.000    0.000 
#    0.000    0.000    0.000    0.000    0.000    0.000 
#
# Total GULP energy -291082.453114 kJ/mol
# GULP energy per Si atom -5597.739483 kJ/mol
# Density = 2.210943 g / cm^3
# Si number density = 22.159870 Si / 1000 Ang^3
#
#
#
# Elastic Constant Matrix: (Units=GPa)
#
#
# Indices 1 2 3 4 5 6 
#
# 1 124.5243 24.6542 21.9295 0.0000 0.0000 0.0000
# 2 24.6542 117.2868 45.6561 0.0000 0.0000 0.0000
# 3 21.9295 45.6561 93.5575 0.0000 0.0000 0.0000
# 4 0.0000 0.0000 0.0000 46.0639 0.0000 0.0000
# 5 0.0000 0.0000 0.0000 0.0000 36.3408 0.0000
# 6 0.0000 0.0000 0.0000 0.0000 0.000027853.8329
#
#
#
# Elastic Compliance Matrix: (Units=1/GPa)
#
#
# Indices 1 2 3 4 5 6 
#
# 1 0.008523 -0.001252 -0.001387 0.000000 0.000000 0.000000
# 2 -0.001252 0.010709 -0.004933 0.000000 0.000000 0.000000
# 3 -0.001387 -0.004933 0.013421 0.000000 0.000000 0.000000
# 4 0.000000 0.000000 0.000000 0.021709 0.000000 0.000000
# 5 0.000000 0.000000 0.000000 0.000000 0.027517 0.000000
# 6 0.000000 0.000000 0.000000 0.000000 0.000000 0.000036
#
#
# Mechanical properties :
#
#
# Convention : Reuss Voigt Hill
#
# Bulk Modulus (GPa) = 57.10928 57.76091 57.43510
# Shear Modulus (GPa) = 48.59349 5603.45611 2826.02480
#
# Velocity S-wave (km/s) = 4.68788 50.34024 35.74994
# Velocity P-wave (km/s) = 7.42489 58.35216 41.59389
#
# Compressibility (1/GPa) = 0.01751029
#
# Stress axis : x y z
#
# Youngs Moduli (GPa) = 117.33508 93.37596 74.51062
#
# Poissons Ratio (x) = 0.11687 0.10334
# Poissons Ratio (y) = 0.14686 0.36755
# Poissons Ratio (z) = 0.16273 0.46061
#
# Static dielectric constant tensor:
#      x y z
#    x 1.842350 0.000000 0.000000 
#    y 0.000000 1.792480 0.000000 
#    z 0.000000 0.000000 1.811210 
# 
# From -- ./inp_files/7401.got.cif
#   From: 2010.05.17/outbox.cif.g08.bks.cpg/sg68_4_cif.got.tgz:7401.got - 2010.06.03 18:57:09.
