data_PCOD9509555
_publ_section_title
;
Structure prediction by ZEFSAII (Michael W. Deem and Ramdas Pophale) SiO2 
 PCOD9509555
Probable space group: C C C A
;
_chemical_formula_sum "Si O2"
_cell_formula_units_Z 92
_cell_length_a 8.951746
_cell_length_b 22.513753
_cell_length_c 18.054261
_cell_angle_alpha 90.000000
_cell_angle_beta 90.000000
_cell_angle_gamma 90.000000
_cell_volume 3638.608791
_symmetry_space_group_name_H-M "C C C A"
_symmetry_group_IT_number 68
_space_group.IT_coordinate_system_code '2'
_symmetry_cell_setting 'orthorhombic'
loop_
_space_group_symop_operation_xyz
x,y,z
-x,1/2-y,z
x,1/2-y,1/2-z
-x,y,1/2-z
-x,-y,-z
x,1/2+y,-z
-x,1/2+y,1/2+z
x,-y,1/2+z
1/2+x,1/2+y,z
1/2-x,-y,z
1/2+x,-y,1/2-z
1/2-x,1/2+y,1/2-z
1/2-x,1/2-y,-z
1/2+x,y,-z
1/2-x,y,1/2+z
1/2+x,1/2-y,1/2+z
loop_
_atom_site_type_symbol
_atom_site_label
_atom_site_fract_x
_atom_site_fract_y
_atom_site_fract_z
Si Si1 0.809088 0.707573 0.106057
Si Si2 0.921335 0.897262 0.946232
Si Si3 0.816266 0.329929 0.379263
Si Si4 0.000000 0.152229 0.250000
Si Si5 0.262025 0.937746 0.182178
Si Si6 0.000000 0.250000 0.750000
Si Si7 0.526509 0.384310 0.393755
O O1 0.684558 0.658635 0.080144
O O2 0.742925 0.770496 0.083213
O O3 0.955154 0.676736 0.072668
O O4 0.881127 0.718524 0.190958
O O5 0.087595 0.876585 0.925635
O O6 0.858916 0.948315 0.892940
O O7 0.918760 0.915547 0.031572
O O8 0.926943 0.310731 0.314587
O O9 0.670705 0.363982 0.349286
O O10 0.133309 0.109568 0.222928
O O11 0.100503 0.913970 0.156009
O O12 0.250000 0.000000 0.223752
#
# Coordination Sequence:
#
# PCOD9509555 Si02
#       7
#    16  16  16   8  16   4  16
#     4  11  24  38  63  92 134 184 219 275 324 401
#     4  10  24  43  63  98 133 171 227 283 338 399
#     4  11  22  39  61  95 129 180 216 270 334 396
#     4  10  26  42  64 100 138 167 229 280 332 410
#     4  10  24  46  70  97 129 176 222 286 352 396
#     4  12  24  40  56 100 132 182 254 250 324 402
#     4  11  23  42  66  96 130 173 227 277 333 406
#
# _framework density 25.284389999999998
#
# number of rings (size 3 to 8) (size 9 to 14) (size 15 to 20)
#    0.000    1.391    1.739    2.609    7.304    6.957 
#    0.000    4.348    0.000    0.000    0.000    0.000 
#    0.000    0.000    0.000    0.000    0.000    0.000 
#
# Total GULP energy -256361.323617 kJ/mol
# GULP energy per Si atom -5573.072253 kJ/mol
# Density = 2.522684 g / cm^3
# Si number density = 25.284390 Si / 1000 Ang^3
#
#
#
# Elastic Constant Matrix: (Units=GPa)
#
#
# Indices 1 2 3 4 5 6 
#
# 1 165.7538 35.4226 28.4548 0.0000 0.0000 0.0000
# 2 35.4226 62.9522 -9.6088 0.0000 0.0000 0.0000
# 3 28.4548 -9.6088 71.4157 0.0000 0.0000 0.0000
# 4 0.0000 0.0000 0.0000 16.2524 0.0000 0.0000
# 5 0.0000 0.0000 0.0000 0.0000 36.9956 0.0000
# 6 0.0000 0.0000 0.0000 0.0000 0.0000 22.4711
#
#
#
# Elastic Compliance Matrix: (Units=1/GPa)
#
#
# Indices 1 2 3 4 5 6 
#
# 1 0.007726 -0.004918 -0.003740 0.000000 0.000000 0.000000
# 2 -0.004918 0.019349 0.004563 0.000000 0.000000 0.000000
# 3 -0.003740 0.004563 0.016107 0.000000 0.000000 0.000000
# 4 0.000000 0.000000 0.000000 0.061529 0.000000 0.000000
# 5 0.000000 0.000000 0.000000 0.000000 0.027030 0.000000
# 6 0.000000 0.000000 0.000000 0.000000 0.000000 0.044502
#
#
# Mechanical properties :
#
#
# Convention : Reuss Voigt Hill
#
# Bulk Modulus (GPa) = 28.57882 45.40655 36.99269
# Shear Modulus (GPa) = 25.49750 31.53403 28.51577
#
# Velocity S-wave (km/s) = 3.17902 3.53537 3.36192
# Velocity P-wave (km/s) = 4.98020 5.88748 5.45274
#
# Compressibility (1/GPa) = 0.03499094
#
# Stress axis : x y z
#
# Youngs Moduli (GPa) = 129.42993 51.68214 62.08606
#
# Poissons Ratio (x) = 0.25419 0.23221
# Poissons Ratio (y) = 0.63658 -0.28330
# Poissons Ratio (z) = 0.48409 -0.23583
#
# Static dielectric constant tensor:
#      x y z
#    x 1.982980 0.000000 0.000000 
#    y 0.000000 2.033030 0.000000 
#    z 0.000000 0.000000 2.118060 
# 
# From -- ./inp_files/36325.got.cif
#   From: 2010.05.17/outbox.cif.g08.bks.cpg/sg68_19_cif.got.tgz:36325.got - 2010.06.03 18:57:09.
