data_PCOD9509962
_publ_section_title
;
Structure prediction by ZEFSAII (Michael W. Deem and Ramdas Pophale) SiO2 
 PCOD9509962
Probable space group: C C C A
;
_chemical_formula_sum "Si O2"
_cell_formula_units_Z 92
_cell_length_a 24.120768
_cell_length_b 22.429022
_cell_length_c 9.005335
_cell_angle_alpha 90.000000
_cell_angle_beta 90.000000
_cell_angle_gamma 90.000000
_cell_volume 4871.933388
_symmetry_space_group_name_H-M "C C C A"
_symmetry_group_IT_number 68
_space_group.IT_coordinate_system_code '2'
_symmetry_cell_setting 'orthorhombic'
loop_
_space_group_symop_operation_xyz
x,y,z
-x,1/2-y,z
x,1/2-y,1/2-z
-x,y,1/2-z
-x,-y,-z
x,1/2+y,-z
-x,1/2+y,1/2+z
x,-y,1/2+z
1/2+x,1/2+y,z
1/2-x,-y,z
1/2+x,-y,1/2-z
1/2-x,1/2+y,1/2-z
1/2-x,1/2-y,-z
1/2+x,y,-z
1/2-x,y,1/2+z
1/2+x,1/2-y,1/2+z
loop_
_atom_site_type_symbol
_atom_site_label
_atom_site_fract_x
_atom_site_fract_y
_atom_site_fract_z
Si Si1 0.443275 0.832035 0.987284
Si Si2 0.379987 0.645926 0.034412
Si Si3 0.000000 0.750000 0.250000
Si Si4 0.072731 0.750000 0.750000
Si Si5 0.849354 0.679810 0.287135
Si Si6 0.517404 0.938496 0.078346
Si Si7 0.270764 0.703791 0.128334
O O1 0.464743 0.791192 0.855711
O O2 0.379138 0.838598 0.940725
O O3 0.453322 0.798572 0.141112
O O4 0.478746 0.890811 0.995180
O O5 0.402765 0.704967 0.121030
O O6 0.419989 0.589943 0.072248
O O7 0.315276 0.654465 0.079523
O O8 0.377675 0.649685 0.855444
O O9 0.854012 0.750000 0.250000
O O10 0.783529 0.672065 0.305045
O O11 0.500000 0.942029 0.250000
O O12 0.500000 0.000000 0.000000
O O13 0.295326 0.750000 0.250000
O O14 0.250000 0.750000 0.000000
#
# Coordination Sequence:
#
# PCOD9509962 Si02
#       7
#    16  16   4   8  16  16  16
#     4  12  23  39  62  95 135 171 216 281 339 429
#     4  12  23  40  64  97 140 178 218 281 340 423
#     4  12  24  34  62 100 138 174 208 266 378 410
#     4  12  20  35  61  98 129 158 216 267 358 418
#     4  11  21  36  58 101 143 174 204 258 350 423
#     4  12  30  48  67  93 126 187 247 289 337 392
#     4  11  20  34  60 100 147 177 208 259 349 437
#
# _framework density 18.883675
#
# number of rings (size 3 to 8) (size 9 to 14) (size 15 to 20)
#    0.000    0.348    8.696    2.087    3.652    0.696 
#    0.000    0.000    0.000    1.043    0.000    0.000 
#    0.000    0.000    0.000    0.000    0.000    0.000 
#
# Total GULP energy -256251.924519 kJ/mol
# GULP energy per Si atom -5570.694011 kJ/mol
# Density = 1.884069 g / cm^3
# Si number density = 18.883675 Si / 1000 Ang^3
#
#
#
# Elastic Constant Matrix: (Units=GPa)
#
#
# Indices 1 2 3 4 5 6 
#
# 1 115.4954 54.1528 43.7312 0.0000 0.0000 0.0000
# 2 54.1528 98.3156 40.1307 0.0000 0.0000 0.0000
# 3 43.7312 40.1307 112.7290 0.0000 0.0000 0.0000
# 4 0.0000 0.0000 0.0000 14.3982 0.0000 0.0000
# 5 0.0000 0.0000 0.0000 0.0000 30.6401 0.0000
# 6 0.0000 0.0000 0.0000 0.0000 0.0000 14.4442
#
#
#
# Elastic Compliance Matrix: (Units=1/GPa)
#
#
# Indices 1 2 3 4 5 6 
#
# 1 0.012374 -0.005682 -0.002778 0.000000 0.000000 0.000000
# 2 -0.005682 0.014510 -0.002961 0.000000 0.000000 0.000000
# 3 -0.002778 -0.002961 0.011002 0.000000 0.000000 0.000000
# 4 0.000000 0.000000 0.000000 0.069453 0.000000 0.000000
# 5 0.000000 0.000000 0.000000 0.000000 0.032637 0.000000
# 6 0.000000 0.000000 0.000000 0.000000 0.000000 0.069232
#
#
# Mechanical properties :
#
#
# Convention : Reuss Voigt Hill
#
# Bulk Modulus (GPa) = 66.46753 66.95215 66.70984
# Shear Modulus (GPa) = 21.09125 24.46485 22.77805
#
# Velocity S-wave (km/s) = 3.34564 3.60329 3.47685
# Velocity P-wave (km/s) = 7.08514 7.26936 7.17784
#
# Compressibility (1/GPa) = 0.01504494
#
# Stress axis : x y z
#
# Youngs Moduli (GPa) = 80.81322 68.91941 90.88862
#
# Poissons Ratio (x) = 0.39160 0.25245
# Poissons Ratio (y) = 0.45918 0.26913
# Poissons Ratio (z) = 0.22447 0.20408
#
# Static dielectric constant tensor:
#      x y z
#    x 1.859400 0.000000 0.000000 
#    y 0.000000 1.615880 0.000000 
#    z 0.000000 0.000000 1.683630 
# 
# From -- ./inp_files/8974.got.cif
#   From: 2010.05.17/outbox.cif.g08.bks.cpg/sg68_5_cif.got.tgz:8974.got - 2010.06.03 18:57:09.
