data_PCOD9509543
_publ_section_title
;
Structure prediction by ZEFSAII (Michael W. Deem and Ramdas Pophale) SiO2 
 PCOD9509543
Probable space group: C C C A
;
_chemical_formula_sum "Si O2"
_cell_formula_units_Z 44
_cell_length_a 22.083552
_cell_length_b 12.570125
_cell_length_c 7.496127
_cell_angle_alpha 90.000000
_cell_angle_beta 90.000000
_cell_angle_gamma 90.000000
_cell_volume 2080.872450
_symmetry_space_group_name_H-M "C C C A"
_symmetry_group_IT_number 68
_space_group.IT_coordinate_system_code '2'
_symmetry_cell_setting 'orthorhombic'
loop_
_space_group_symop_operation_xyz
x,y,z
-x,1/2-y,z
x,1/2-y,1/2-z
-x,y,1/2-z
-x,-y,-z
x,1/2+y,-z
-x,1/2+y,1/2+z
x,-y,1/2+z
1/2+x,1/2+y,z
1/2-x,-y,z
1/2+x,-y,1/2-z
1/2-x,1/2+y,1/2-z
1/2-x,1/2-y,-z
1/2+x,y,-z
1/2-x,y,1/2+z
1/2+x,1/2-y,1/2+z
loop_
_atom_site_type_symbol
_atom_site_label
_atom_site_fract_x
_atom_site_fract_y
_atom_site_fract_z
Si Si1 0.500000 0.250000 0.750000
Si Si2 0.169355 0.373893 0.800443
Si Si3 0.535669 0.603279 0.568575
Si Si4 0.750000 0.500000 0.456423
O O1 0.463381 0.320681 0.606252
O O2 0.165643 0.250000 0.750000
O O3 0.104395 0.411152 0.870344
O O4 0.192576 0.451018 0.644638
O O5 0.222544 0.399477 0.939831
O O6 0.500000 0.637892 0.750000
O O7 0.500000 0.500000 0.500000
#
# Coordination Sequence:
#
# PCOD9509543 Si02
#       4
#     4  16  16   8
#     4  12  26  44  72 104 140 188 230 292 382 428
#     4  11  23  45  68 101 144 182 238 293 358 430
#     4  12  25  46  72 106 143 185 238 297 364 438
#     4  10  24  42  72 102 134 194 234 294 348 430
#
# _framework density 21.144978999999999
#
# number of rings (size 3 to 8) (size 9 to 14) (size 15 to 20)
#    0.000    0.727    1.818    6.000    0.000    0.000 
#    9.818    0.000    0.000    0.000    0.000    0.000 
#    0.000    0.000    0.000    0.000    0.000    0.000 
#
# Total GULP energy -122614.473819 kJ/mol
# GULP energy per Si atom -5573.385174 kJ/mol
# Density = 2.109685 g / cm^3
# Si number density = 21.144979 Si / 1000 Ang^3
#
#
#
# Elastic Constant Matrix: (Units=GPa)
#
#
# Indices 1 2 3 4 5 6 
#
# 1 174.7694 52.4337 64.2288 0.0000 0.0000 0.0000
# 2 52.4337 131.7648 44.4487 0.0000 0.0000 0.0000
# 3 64.2288 44.4487 133.6471 0.0000 0.0000 0.0000
# 4 0.0000 0.0000 0.0000 -21.5037 0.0000 0.0000
# 5 0.0000 0.0000 0.0000 0.0000-1765.1655 0.0000
# 6 0.0000 0.0000 0.0000 0.0000 0.0000 16.1812
#
#
#
# Elastic Compliance Matrix: (Units=1/GPa)
#
#
# Indices 1 2 3 4 5 6 
#
# 1 0.007372 -0.001958 -0.002892 0.000000 0.000000 0.000000
# 2 -0.001958 0.009068 -0.002075 0.000000 0.000000 0.000000
# 3 -0.002892 -0.002075 0.009562 0.000000 0.000000 0.000000
# 4 0.000000 0.000000 0.000000 -0.046504 0.000000 0.000000
# 5 0.000000 0.000000 0.000000 0.000000 -0.000567 0.000000
# 6 0.000000 0.000000 0.000000 0.000000 0.000000 0.061800
#
#
# Mechanical properties :
#
#
# Convention : Reuss Voigt Hill
#
# Bulk Modulus (GPa) = 82.28309 84.71150 83.49730
# Shear Modulus (GPa) = 85.27600 -335.49293 -125.10847
#
# Velocity S-wave (km/s) = 6.35742 -12.60982 -7.70035
# Velocity P-wave (km/s) = 9.63780 13.10957 6.28386
#
# Compressibility (1/GPa) = 0.01215317
#
# Stress axis : x y z
#
# Youngs Moduli (GPa) = 135.64865 110.27264 104.57886
#
# Poissons Ratio (x) = 0.21593 0.30240
# Poissons Ratio (y) = 0.26562 0.21700
# Poissons Ratio (z) = 0.39225 0.22881
#
# Static dielectric constant tensor:
#      x y z
#    x 1.613760 0.000000 0.000000 
#    y 0.000000 1.692810 0.000000 
#    z 0.000000 0.000000 1.878830 
# 
# From -- ./inp_files/5445.got.cif
#   From: 2010.05.17/outbox.cif.g08.bks.cpg/sg68_3_cif.got.tgz:5445.got - 2010.06.03 18:57:09.
