data_PCOD9509369
_publ_section_title
;
Structure prediction by ZEFSAII (Michael W. Deem and Ramdas Pophale) SiO2 
 PCOD9509369
Probable space group: C C C A
;
_chemical_formula_sum "Si O2"
_cell_formula_units_Z 48
_cell_length_a 15.606867
_cell_length_b 13.999691
_cell_length_c 11.638275
_cell_angle_alpha 90.000000
_cell_angle_beta 90.000000
_cell_angle_gamma 90.000000
_cell_volume 2542.862015
_symmetry_space_group_name_H-M "C C C A"
_symmetry_group_IT_number 68
_space_group.IT_coordinate_system_code '2'
_symmetry_cell_setting 'orthorhombic'
loop_
_space_group_symop_operation_xyz
x,y,z
-x,1/2-y,z
x,1/2-y,1/2-z
-x,y,1/2-z
-x,-y,-z
x,1/2+y,-z
-x,1/2+y,1/2+z
x,-y,1/2+z
1/2+x,1/2+y,z
1/2-x,-y,z
1/2+x,-y,1/2-z
1/2-x,1/2+y,1/2-z
1/2-x,1/2-y,-z
1/2+x,y,-z
1/2-x,y,1/2+z
1/2+x,1/2-y,1/2+z
loop_
_atom_site_type_symbol
_atom_site_label
_atom_site_fract_x
_atom_site_fract_y
_atom_site_fract_z
Si Si1 0.622441 0.341390 0.175235
Si Si2 0.931997 0.834390 0.589099
Si Si3 0.288136 0.250000 0.750000
Si Si4 0.000000 0.495525 0.250000
O O1 0.591517 0.250000 0.250000
O O2 0.724724 0.325420 0.187081
O O3 0.581182 0.436235 0.227476
O O4 0.592667 0.339463 0.044037
O O5 0.848296 0.805944 0.661788
O O6 0.000000 0.750000 0.604493
O O7 0.975725 0.928141 0.642865
#
# Coordination Sequence:
#
# PCOD9509369 Si02
#       4
#    16  16   8   8
#     4  10  25  42  68  95 136 170 217 267 331 379
#     4  12  22  45  69  94 135 174 218 266 323 397
#     4  10  23  45  64 100 128 174 216 265 333 372
#     4  12  22  42  66 104 124 174 224 260 330 386
#
# _framework density 18.876367999999999
#
# number of rings (size 3 to 8) (size 9 to 14) (size 15 to 20)
#    1.000    0.000    3.333    4.500    0.000    1.333 
#    0.000    3.333    0.000    0.000    0.000    0.000 
#    0.000    0.000    0.000    0.000    0.000    0.000 
#
# Total GULP energy -133888.912057 kJ/mol
# GULP energy per Si atom -5578.704669 kJ/mol
# Density = 1.883341 g / cm^3
# Si number density = 18.876368 Si / 1000 Ang^3
#
#
#
# Elastic Constant Matrix: (Units=GPa)
#
#
# Indices 1 2 3 4 5 6 
#
# 1 106.3953 49.4784 25.7871 0.0000 0.0000 0.0000
# 2 49.4784 135.2029 64.6031 0.0000 0.0000 0.0000
# 3 25.7871 64.6031 138.8745 0.0000 0.0000 0.0000
# 4 0.0000 0.0000 0.0000 5.7641 0.0000 0.0000
# 5 0.0000 0.0000 0.0000 0.0000 22.7638 0.0000
# 6 0.0000 0.0000 0.0000 0.0000 0.0000 -80.3547
#
#
#
# Elastic Compliance Matrix: (Units=1/GPa)
#
#
# Indices 1 2 3 4 5 6 
#
# 1 0.011332 -0.004039 -0.000225 0.000000 0.000000 0.000000
# 2 -0.004039 0.010950 -0.004344 0.000000 0.000000 0.000000
# 3 -0.000225 -0.004344 0.009263 0.000000 0.000000 0.000000
# 4 0.000000 0.000000 0.000000 0.173488 0.000000 0.000000
# 5 0.000000 0.000000 0.000000 0.000000 0.043929 0.000000
# 6 0.000000 0.000000 0.000000 0.000000 0.000000 -0.012445
#
#
# Mechanical properties :
#
#
# Convention : Reuss Voigt Hill
#
# Bulk Modulus (GPa) = 69.79032 73.35666 71.57349
# Shear Modulus (GPa) = 19.34158 5.67492 12.50825
#
# Velocity S-wave (km/s) = 3.20448 1.73577 2.57697
# Velocity P-wave (km/s) = 7.12350 6.55463 6.84498
#
# Compressibility (1/GPa) = 0.01432863
#
# Stress axis : x y z
#
# Youngs Moduli (GPa) = 88.24578 91.32305 107.95360
#
# Poissons Ratio (x) = 0.36890 0.02430
# Poissons Ratio (y) = 0.35647 0.46893
# Poissons Ratio (z) = 0.01986 0.39669
#
# Static dielectric constant tensor:
#      x y z
#    x 1.669160 0.000000 0.000000 
#    y 0.000000 1.633840 0.000000 
#    z 0.000000 0.000000 1.704450 
# 
# From -- ./inp_files/11276.got.cif
#   From: 2010.05.17/outbox.cif.g08.bks.cpg/sg68_6_cif.got.tgz:11276.got - 2010.06.03 18:57:09.
