data_PCOD9509779
_publ_section_title
;
Structure prediction by ZEFSAII (Michael W. Deem and Ramdas Pophale) SiO2 
 PCOD9509779
Probable space group: C C C A
;
_chemical_formula_sum "Si O2"
_cell_formula_units_Z 44
_cell_length_a 8.948875
_cell_length_b 18.371618
_cell_length_c 11.821232
_cell_angle_alpha 90.000000
_cell_angle_beta 90.000000
_cell_angle_gamma 90.000000
_cell_volume 1943.473347
_symmetry_space_group_name_H-M "C C C A"
_symmetry_group_IT_number 68
_space_group.IT_coordinate_system_code '2'
_symmetry_cell_setting 'orthorhombic'
loop_
_space_group_symop_operation_xyz
x,y,z
-x,1/2-y,z
x,1/2-y,1/2-z
-x,y,1/2-z
-x,-y,-z
x,1/2+y,-z
-x,1/2+y,1/2+z
x,-y,1/2+z
1/2+x,1/2+y,z
1/2-x,-y,z
1/2+x,-y,1/2-z
1/2-x,1/2+y,1/2-z
1/2-x,1/2-y,-z
1/2+x,y,-z
1/2-x,y,1/2+z
1/2+x,1/2-y,1/2+z
loop_
_atom_site_type_symbol
_atom_site_label
_atom_site_fract_x
_atom_site_fract_y
_atom_site_fract_z
Si Si1 0.014228 0.623428 0.130363
Si Si2 0.000000 0.750000 0.750000
Si Si3 0.000000 0.484788 0.250000
Si Si4 0.168047 0.133934 0.099640
O O1 0.079858 0.544458 0.168803
O O2 0.843247 0.618972 0.091756
O O3 0.000000 0.664839 0.250000
O O4 0.110027 0.649466 0.026441
O O5 0.890570 0.799228 0.825517
O O6 0.905424 0.434771 0.165515
#
# Coordination Sequence:
#
# PCOD9509779 Si02
#       4
#    16   4   8  16
#     4  10  25  40  70 103 131 176 220 283 338 390
#     4  10  28  44  72  92 136 186 222 280 324 406
#     4   9  22  39  70 101 138 171 216 278 338 389
#     4  11  23  46  66 100 139 176 229 269 338 400
#
# _framework density 22.639879000000001
#
# number of rings (size 3 to 8) (size 9 to 14) (size 15 to 20)
#    1.091    0.727    0.000    2.182   10.182    1.455 
#    0.000    0.000    0.000    0.000    0.000    0.000 
#    0.000    0.000    0.000    0.000    0.000    0.000 
#
# Total GULP energy -122676.050930 kJ/mol
# GULP energy per Si atom -5576.184133 kJ/mol
# Density = 2.258835 g / cm^3
# Si number density = 22.639879 Si / 1000 Ang^3
#
#
#
# Elastic Constant Matrix: (Units=GPa)
#
#
# Indices 1 2 3 4 5 6 
#
# 1 62.7516 -15.6944 46.0652 0.0000 0.0000 0.0000
# 2 -15.6944 92.9890 31.0346 0.0000 0.0000 0.0000
# 3 46.0652 31.0346 189.1606 0.0000 0.0000 0.0000
# 4 0.0000 0.0000 0.0000 18.9333 0.0000 0.0000
# 5 0.0000 0.0000 0.0000 0.0000 31.7386 0.0000
# 6 0.0000 0.0000 0.0000 0.0000 0.0000 -55.2817
#
#
#
# Elastic Compliance Matrix: (Units=1/GPa)
#
#
# Indices 1 2 3 4 5 6 
#
# 1 0.022035 0.005829 -0.006322 0.000000 0.000000 0.000000
# 2 0.005829 0.012919 -0.003539 0.000000 0.000000 0.000000
# 3 -0.006322 -0.003539 0.007407 0.000000 0.000000 0.000000
# 4 0.000000 0.000000 0.000000 0.052817 0.000000 0.000000
# 5 0.000000 0.000000 0.000000 0.000000 0.031507 0.000000
# 6 0.000000 0.000000 0.000000 0.000000 0.000000 -0.018089
#
#
# Mechanical properties :
#
#
# Convention : Reuss Voigt Hill
#
# Bulk Modulus (GPa) = 29.15806 51.96801 40.56303
# Shear Modulus (GPa) = 39.03425 17.97775 28.50600
#
# Velocity S-wave (km/s) = 4.15678 2.82099 3.55224
# Velocity P-wave (km/s) = 5.99545 5.79782 5.89746
#
# Compressibility (1/GPa) = 0.03429584
#
# Stress axis : x y z
#
# Youngs Moduli (GPa) = 45.38253 77.40594 135.01099
#
# Poissons Ratio (x) = -0.45120 0.85359
# Poissons Ratio (y) = -0.26454 0.47781
# Poissons Ratio (z) = 0.28693 0.27394
#
# Static dielectric constant tensor:
#      x y z
#    x 1.822010 0.000000 0.000000 
#    y 0.000000 1.885380 0.000000 
#    z 0.000000 0.000000 1.880260 
# 
# From -- ./inp_files/10379.got.cif
#   From: 2010.05.17/outbox.cif.g08.bks.cpg/sg68_6_cif.got.tgz:10379.got - 2010.06.03 18:57:09.
