data_PCOD9509159
_publ_section_title
;
Structure prediction by ZEFSAII (Michael W. Deem and Ramdas Pophale) SiO2 
 PCOD9509159
Probable space group: C C C A
;
_chemical_formula_sum "Si O2"
_cell_formula_units_Z 88
_cell_length_a 28.950803
_cell_length_b 8.165376
_cell_length_c 17.578742
_cell_angle_alpha 90.000000
_cell_angle_beta 90.000000
_cell_angle_gamma 90.000000
_cell_volume 4155.512511
_symmetry_space_group_name_H-M "C C C A"
_symmetry_group_IT_number 68
_space_group.IT_coordinate_system_code '2'
_symmetry_cell_setting 'orthorhombic'
loop_
_space_group_symop_operation_xyz
x,y,z
-x,1/2-y,z
x,1/2-y,1/2-z
-x,y,1/2-z
-x,-y,-z
x,1/2+y,-z
-x,1/2+y,1/2+z
x,-y,1/2+z
1/2+x,1/2+y,z
1/2-x,-y,z
1/2+x,-y,1/2-z
1/2-x,1/2+y,1/2-z
1/2-x,1/2-y,-z
1/2+x,y,-z
1/2-x,y,1/2+z
1/2+x,1/2-y,1/2+z
loop_
_atom_site_type_symbol
_atom_site_label
_atom_site_fract_x
_atom_site_fract_y
_atom_site_fract_z
Si Si1 0.115873 0.250000 0.250000
Si Si2 0.687162 0.184712 0.614449
Si Si3 0.949635 0.437992 0.721050
Si Si4 0.389963 0.319081 0.396406
Si Si5 0.250000 0.000000 0.286410
Si Si6 0.653954 0.419484 0.494869
Si Si7 0.173969 0.750000 0.250000
O O1 0.147473 0.236825 0.325718
O O2 0.085521 0.417360 0.254075
O O3 0.732162 0.153194 0.663700
O O4 0.687997 0.303319 0.542225
O O5 0.676944 0.010945 0.575333
O O6 0.944858 0.250000 0.750000
O O7 0.936966 0.401451 0.633183
O O8 0.000000 0.490048 0.750000
O O9 0.389849 0.172865 0.457321
O O10 0.362530 0.454607 0.442565
O O11 0.358944 0.262914 0.324090
O O12 0.205543 0.915835 0.247199
#
# Coordination Sequence:
#
# PCOD9509159 Si02
#       7
#     8  16  16  16   8  16   8
#     4  12  22  44  74  99 138 185 238 286 360 428
#     4  11  23  42  63  94 132 185 228 287 346 417
#     4  11  23  40  72 107 134 169 235 294 344 423
#     4  11  21  45  66 100 128 186 225 283 352 426
#     4  12  26  40  62 100 134 180 248 304 340 398
#     4  10  23  40  67  95 134 184 227 272 366 426
#     4  12  25  42  67  93 134 179 239 292 343 412
#
# _framework density 21.176691000000002
#
# number of rings (size 3 to 8) (size 9 to 14) (size 15 to 20)
#    0.000    0.909    4.545    3.000    2.545    0.727 
#    0.000    0.000    0.000   19.636    0.000    0.000 
#    0.000    0.000    0.000    0.000    0.000    0.000 
#
# Total GULP energy -245120.668415 kJ/mol
# GULP energy per Si atom -5570.924282 kJ/mol
# Density = 2.112849 g / cm^3
# Si number density = 21.176691 Si / 1000 Ang^3
#
#
#
# Elastic Constant Matrix: (Units=GPa)
#
#
# Indices 1 2 3 4 5 6 
#
# 1 77.6566 18.2056 27.2467 0.0000 0.0000 0.0000
# 2 18.2056 84.0363 29.9913 0.0000 0.0000 0.0000
# 3 27.2467 29.9913 97.2088 0.0000 0.0000 0.0000
# 4 0.0000 0.0000 0.0000 32.0512 0.0000 0.0000
# 5 0.0000 0.0000 0.0000 0.0000 16.4493 0.0000
# 6 0.0000 0.0000 0.0000 0.0000 0.0000 26.6529
#
#
#
# Elastic Compliance Matrix: (Units=1/GPa)
#
#
# Indices 1 2 3 4 5 6 
#
# 1 0.014549 -0.001906 -0.003490 0.000000 0.000000 0.000000
# 2 -0.001906 0.013622 -0.003668 0.000000 0.000000 0.000000
# 3 -0.003490 -0.003668 0.012397 0.000000 0.000000 0.000000
# 4 0.000000 0.000000 0.000000 0.031200 0.000000 0.000000
# 5 0.000000 0.000000 0.000000 0.000000 0.060793 0.000000
# 6 0.000000 0.000000 0.000000 0.000000 0.000000 0.037519
#
#
# Mechanical properties :
#
#
# Convention : Reuss Voigt Hill
#
# Bulk Modulus (GPa) = 44.56601 45.53211 45.04906
# Shear Modulus (GPa) = 25.55087 27.26120 26.40604
#
# Velocity S-wave (km/s) = 3.47732 3.59182 3.53503
# Velocity P-wave (km/s) = 6.10023 6.22489 6.16288
#
# Compressibility (1/GPa) = 0.02243863
#
# Stress axis : x y z
#
# Youngs Moduli (GPa) = 68.73548 73.41177 80.66458
#
# Poissons Ratio (x) = 0.13995 0.28149
# Poissons Ratio (y) = 0.13104 0.29590
# Poissons Ratio (z) = 0.23986 0.26930
#
# Static dielectric constant tensor:
#      x y z
#    x 1.773940 0.000000 0.000000 
#    y 0.000000 1.884260 0.000000 
#    z 0.000000 0.000000 1.822150 
# 
# From -- ./inp_files/34383.got.cif
#   From: 2010.05.17/outbox.cif.g08.bks.cpg/sg68_18_cif.got.tgz:34383.got - 2010.06.03 18:57:09.
