data_PCOD9509108
_publ_section_title
;
Structure prediction by ZEFSAII (Michael W. Deem and Ramdas Pophale) SiO2 
 PCOD9509108
Probable space group: C C C A
;
_chemical_formula_sum "Si O2"
_cell_formula_units_Z 112
_cell_length_a 28.043669
_cell_length_b 13.843936
_cell_length_c 14.526431
_cell_angle_alpha 90.000000
_cell_angle_beta 90.000000
_cell_angle_gamma 90.000000
_cell_volume 5639.665436
_symmetry_space_group_name_H-M "C C C A"
_symmetry_group_IT_number 68
_space_group.IT_coordinate_system_code '2'
_symmetry_cell_setting 'orthorhombic'
loop_
_space_group_symop_operation_xyz
x,y,z
-x,1/2-y,z
x,1/2-y,1/2-z
-x,y,1/2-z
-x,-y,-z
x,1/2+y,-z
-x,1/2+y,1/2+z
x,-y,1/2+z
1/2+x,1/2+y,z
1/2-x,-y,z
1/2+x,-y,1/2-z
1/2-x,1/2+y,1/2-z
1/2-x,1/2-y,-z
1/2+x,y,-z
1/2-x,y,1/2+z
1/2+x,1/2-y,1/2+z
loop_
_atom_site_type_symbol
_atom_site_label
_atom_site_fract_x
_atom_site_fract_y
_atom_site_fract_z
Si Si1 0.352819 0.616442 0.073133
Si Si2 0.857289 0.060781 0.432891
Si Si3 0.785949 0.782319 0.858038
Si Si4 0.679425 0.320960 0.164998
Si Si5 0.548870 0.161192 0.194032
Si Si6 0.125271 0.992199 0.250000
Si Si7 0.403190 0.260649 0.033112
O O1 0.310319 0.694466 0.085422
O O2 0.358576 0.565716 0.171960
O O3 0.344960 0.532336 0.996198
O O4 0.400304 0.679451 0.046703
O O5 0.814625 0.120404 0.384248
O O6 0.882186 0.139478 0.496610
O O7 0.891832 0.035652 0.347208
O O8 0.789867 0.750000 0.750000
O O9 0.731108 0.806302 0.879539
O O10 0.680418 0.250000 0.250000
O O11 0.667845 0.424273 0.210864
O O12 0.636641 0.287000 0.099843
O O13 0.570926 0.250000 0.250000
O O14 0.500000 0.141834 0.250000
O O15 0.584379 0.072700 0.204427
O O16 0.550736 0.205881 0.091294
#
# Coordination Sequence:
#
# PCOD9509108 Si02
#       7
#    16  16  16  16  16  16  16
#     4  11  22  39  65  89 131 174 220 264 326 385
#     4  11  22  38  63  89 127 169 218 263 320 391
#     4  10  23  39  55  91 128 173 218 268 317 374
#     4  11  20  39  59  81 128 165 219 271 307 375
#     4  11  21  39  70  94 120 155 211 266 332 392
#     4  12  21  41  63  92 122 174 208 271 332 382
#     4  11  21  40  61  93 124 170 212 271 328 390
#
# _framework density 19.859334
#
# number of rings (size 3 to 8) (size 9 to 14) (size 15 to 20)
#    0.000    1.000    7.143    0.000    0.000    2.857 
#    2.571    3.571    3.143    0.000    0.000    4.000 
#    0.000    0.000    0.000    0.000    0.000    0.000 
#
# Total GULP energy -311789.843406 kJ/mol
# GULP energy per Si atom -5567.675775 kJ/mol
# Density = 1.981413 g / cm^3
# Si number density = 19.859334 Si / 1000 Ang^3
#
#
#
# Elastic Constant Matrix: (Units=GPa)
#
#
# Indices 1 2 3 4 5 6 
#
# 1 83.1691 38.6464 31.6291 0.0000 0.0000 0.0000
# 2 38.6464 133.8218 48.1540 0.0000 0.0000 0.0000
# 3 31.6291 48.1540 114.6943 0.0000 0.0000 0.0000
# 4 0.0000 0.0000 0.0000 42.0595 0.0000 0.0000
# 5 0.0000 0.0000 0.0000 0.0000 21.3901 0.0000
# 6 0.0000 0.0000 0.0000 0.0000 0.0000 10.8885
#
#
#
# Elastic Compliance Matrix: (Units=1/GPa)
#
#
# Indices 1 2 3 4 5 6 
#
# 1 0.014539 -0.003246 -0.002646 0.000000 0.000000 0.000000
# 2 -0.003246 0.009527 -0.003105 0.000000 0.000000 0.000000
# 3 -0.002646 -0.003105 0.010752 0.000000 0.000000 0.000000
# 4 0.000000 0.000000 0.000000 0.023776 0.000000 0.000000
# 5 0.000000 0.000000 0.000000 0.000000 0.046751 0.000000
# 6 0.000000 0.000000 0.000000 0.000000 0.000000 0.091840
#
#
# Mechanical properties :
#
#
# Convention : Reuss Voigt Hill
#
# Bulk Modulus (GPa) = 59.44185 63.17157 61.30671
# Shear Modulus (GPa) = 22.64621 29.08465 25.86543
#
# Velocity S-wave (km/s) = 3.38054 3.83107 3.61284
# Velocity P-wave (km/s) = 6.72561 7.17273 6.95277
#
# Compressibility (1/GPa) = 0.01682316
#
# Stress axis : x y z
#
# Youngs Moduli (GPa) = 68.78252 104.96095 93.00478
#
# Poissons Ratio (x) = 0.34074 0.24612
# Poissons Ratio (y) = 0.22329 0.28876
# Poissons Ratio (z) = 0.18202 0.32588
#
# Static dielectric constant tensor:
#      x y z
#    x 1.715270 0.000000 0.000000 
#    y 0.000000 1.778850 0.000000 
#    z 0.000000 0.000000 1.818160 
# 
# From -- ./inp_files/26500.got.cif
#   From: 2010.05.17/outbox.cif.g08.bks.cpg/sg68_14_cif.got.tgz:26500.got - 2010.06.03 18:57:09.
