data_PCOD9509890
_publ_section_title
;
Structure prediction by ZEFSAII (Michael W. Deem and Ramdas Pophale) SiO2 
 PCOD9509890
Probable space group: C C C A
;
_chemical_formula_sum "Si O2"
_cell_formula_units_Z 104
_cell_length_a 27.248939
_cell_length_b 8.970741
_cell_length_c 18.772442
_cell_angle_alpha 90.000000
_cell_angle_beta 90.000000
_cell_angle_gamma 90.000000
_cell_volume 4588.795312
_symmetry_space_group_name_H-M "C C C A"
_symmetry_group_IT_number 68
_space_group.IT_coordinate_system_code '2'
_symmetry_cell_setting 'orthorhombic'
loop_
_space_group_symop_operation_xyz
x,y,z
-x,1/2-y,z
x,1/2-y,1/2-z
-x,y,1/2-z
-x,-y,-z
x,1/2+y,-z
-x,1/2+y,1/2+z
x,-y,1/2+z
1/2+x,1/2+y,z
1/2-x,-y,z
1/2+x,-y,1/2-z
1/2-x,1/2+y,1/2-z
1/2-x,1/2-y,-z
1/2+x,y,-z
1/2-x,y,1/2+z
1/2+x,1/2-y,1/2+z
loop_
_atom_site_type_symbol
_atom_site_label
_atom_site_fract_x
_atom_site_fract_y
_atom_site_fract_z
Si Si1 0.380215 0.955393 0.294479
Si Si2 0.159174 0.476586 0.982486
Si Si3 0.840004 0.750000 0.250000
Si Si4 0.000000 0.750000 0.017380
Si Si5 0.560716 0.017571 0.574267
Si Si6 0.774241 0.177541 0.866677
Si Si7 0.339155 0.337096 0.851290
Si Si8 0.250000 0.500000 0.588679
O O1 0.428723 0.941558 0.343063
O O2 0.373204 0.909078 0.211232
O O3 0.343308 0.837719 0.332300
O O4 0.369210 0.131825 0.297164
O O5 0.186575 0.355774 0.930277
O O6 0.143436 0.610016 0.928704
O O7 0.111639 0.458794 0.031246
O O8 0.203745 0.499587 0.036020
O O9 0.804773 0.649039 0.203378
O O10 0.038001 0.648588 0.063469
O O11 0.974367 0.632953 0.965051
O O12 0.718512 0.116527 0.860966
O O13 0.761028 0.352742 0.867609
#
# Coordination Sequence:
#
# PCOD9509890 Si02
#       8
#    16  16   8   8  16  16  16   8
#     4  11  25  42  70  98 139 191 246 292 363 431
#     4  12  24  40  70 102 152 191 248 293 359 432
#     4  12  24  40  62  97 136 196 242 291 342 422
#     4  10  26  50  80 108 138 170 246 320 398 438
#     4  11  25  47  79 109 135 185 236 314 379 451
#     4  12  24  39  60  99 152 206 249 287 334 416
#     4  11  23  43  63  99 151 205 238 282 339 436
#     4  12  26  40  64 108 152 204 252 294 338 438
#
# _framework density 22.663902
#
# number of rings (size 3 to 8) (size 9 to 14) (size 15 to 20)
#    0.000    0.615    3.077    5.077    6.462    1.231 
#    0.000    0.000    0.000   22.615    0.000    0.000 
#    0.000    0.000    0.000    0.000    0.000    0.000 
#
# Total GULP energy -289655.355255 kJ/mol
# GULP energy per Si atom -5570.295293 kJ/mol
# Density = 2.261232 g / cm^3
# Si number density = 22.663902 Si / 1000 Ang^3
#
#
#
# Elastic Constant Matrix: (Units=GPa)
#
#
# Indices 1 2 3 4 5 6 
#
# 1 81.7930 23.8425 35.1067 0.0000 0.0000 0.0000
# 2 23.8425 91.6961 6.6565 0.0000 0.0000 0.0000
# 3 35.1067 6.6565 85.4474 0.0000 0.0000 0.0000
# 4 0.0000 0.0000 0.0000 42.9976 0.0000 0.0000
# 5 0.0000 0.0000 0.0000 0.0000 30.3934 0.0000
# 6 0.0000 0.0000 0.0000 0.0000 0.0000 29.0945
#
#
#
# Elastic Compliance Matrix: (Units=1/GPa)
#
#
# Indices 1 2 3 4 5 6 
#
# 1 0.016004 -0.003705 -0.006287 0.000000 0.000000 0.000000
# 2 -0.003705 0.011825 0.000601 0.000000 0.000000 0.000000
# 3 -0.006287 0.000601 0.014239 0.000000 0.000000 0.000000
# 4 0.000000 0.000000 0.000000 0.023257 0.000000 0.000000
# 5 0.000000 0.000000 0.000000 0.000000 0.032902 0.000000
# 6 0.000000 0.000000 0.000000 0.000000 0.000000 0.034371
#
#
# Mechanical properties :
#
#
# Convention : Reuss Voigt Hill
#
# Bulk Modulus (GPa) = 42.94197 43.34976 43.14587
# Shear Modulus (GPa) = 31.41827 33.38581 32.40204
#
# Velocity S-wave (km/s) = 3.72730 3.84224 3.78521
# Velocity P-wave (km/s) = 6.12472 6.23318 6.17918
#
# Compressibility (1/GPa) = 0.02328724
#
# Stress axis : x y z
#
# Youngs Moduli (GPa) = 62.48268 84.56421 70.22812
#
# Poissons Ratio (x) = 0.31331 0.44152
# Poissons Ratio (y) = 0.23150 -0.04221
# Poissons Ratio (z) = 0.39282 -0.05083
#
# Static dielectric constant tensor:
#      x y z
#    x 1.861060 0.000000 0.000000 
#    y 0.000000 2.048670 0.000000 
#    z 0.000000 0.000000 1.884260 
# 
# From -- ./inp_files/41595.got.cif
#   From: 2010.05.17/outbox.cif.g08.bks.cpg/sg68_21_cif.got.tgz:41595.got - 2010.06.03 18:57:09.
