data_PCOD9509443
_publ_section_title
;
Structure prediction by ZEFSAII (Michael W. Deem and Ramdas Pophale) SiO2 
 PCOD9509443
Probable space group: C C C A
;
_chemical_formula_sum "Si O2"
_cell_formula_units_Z 60
_cell_length_a 9.872512
_cell_length_b 9.395516
_cell_length_c 28.433330
_cell_angle_alpha 90.000000
_cell_angle_beta 90.000000
_cell_angle_gamma 90.000000
_cell_volume 2637.400185
_symmetry_space_group_name_H-M "C C C A"
_symmetry_group_IT_number 68
_space_group.IT_coordinate_system_code '2'
_symmetry_cell_setting 'orthorhombic'
loop_
_space_group_symop_operation_xyz
x,y,z
-x,1/2-y,z
x,1/2-y,1/2-z
-x,y,1/2-z
-x,-y,-z
x,1/2+y,-z
-x,1/2+y,1/2+z
x,-y,1/2+z
1/2+x,1/2+y,z
1/2-x,-y,z
1/2+x,-y,1/2-z
1/2-x,1/2+y,1/2-z
1/2-x,1/2-y,-z
1/2+x,y,-z
1/2-x,y,1/2+z
1/2+x,1/2-y,1/2+z
loop_
_atom_site_type_symbol
_atom_site_label
_atom_site_fract_x
_atom_site_fract_y
_atom_site_fract_z
Si Si1 0.198334 0.736886 0.437525
Si Si2 0.500000 0.250000 0.148755
Si Si3 0.595623 0.461749 0.826755
Si Si4 0.500000 0.250000 0.750000
Si Si5 0.000000 0.750000 0.904831
Si Si6 0.750000 0.000000 0.504326
O O1 0.361168 0.728086 0.432459
O O2 0.162535 0.603631 0.470687
O O3 0.171444 0.888134 0.462478
O O4 0.125884 0.731695 0.387353
O O5 0.481190 0.389919 0.179645
O O6 0.750000 0.500000 0.837149
O O7 0.586058 0.353165 0.783545
O O8 0.527917 0.383815 0.870998
#
# Coordination Sequence:
#
# PCOD9509443 Si02
#       6
#    16   8  16   4   8   8
#     4  11  23  40  63  98 134 188 234 288 335 398
#     4  12  24  42  74  99 134 186 236 275 338 408
#     4  11  24  47  71 106 135 178 218 279 336 415
#     4  10  28  46  72 104 144 166 212 276 348 410
#     4  11  22  44  70  96 142 180 236 284 330 400
#     4  10  24  38  60  94 144 182 232 296 346 374
#
# _framework density 22.749675
#
# number of rings (size 3 to 8) (size 9 to 14) (size 15 to 20)
#    0.000    1.067    2.667    3.200    0.000    9.067 
#    0.000    0.000    0.000    0.000    0.000    0.000 
#    0.000    0.000    0.000    0.000    0.000    0.000 
#
# Total GULP energy -167832.806911 kJ/mol
# GULP energy per Si atom -5594.426897 kJ/mol
# Density = 2.269790 g / cm^3
# Si number density = 22.749675 Si / 1000 Ang^3
#
#
#
# Elastic Constant Matrix: (Units=GPa)
#
#
# Indices 1 2 3 4 5 6 
#
# 1 121.3319 29.3844 22.9466 0.0000 0.0000 0.0000
# 2 29.3844 199.7061 47.9648 0.0000 0.0000 0.0000
# 3 22.9466 47.9648 72.4441 0.0000 0.0000 0.0000
# 4 0.0000 0.0000 0.0000 48.0665 0.0000 0.0000
# 5 0.0000 0.0000 0.0000 0.0000 6.9325 0.0000
# 6 0.0000 0.0000 0.0000 0.0000 0.0000 20.2337
#
#
#
# Elastic Compliance Matrix: (Units=1/GPa)
#
#
# Indices 1 2 3 4 5 6 
#
# 1 0.008860 -0.000749 -0.002311 0.000000 0.000000 0.000000
# 2 -0.000749 0.006017 -0.003747 0.000000 0.000000 0.000000
# 3 -0.002311 -0.003747 0.017017 0.000000 0.000000 0.000000
# 4 0.000000 0.000000 0.000000 0.020805 0.000000 0.000000
# 5 0.000000 0.000000 0.000000 0.000000 0.144248 0.000000
# 6 0.000000 0.000000 0.000000 0.000000 0.000000 0.049422
#
#
# Mechanical properties :
#
#
# Convention : Reuss Voigt Hill
#
# Bulk Modulus (GPa) = 54.70058 66.00816 60.35437
# Shear Modulus (GPa) = 18.79167 34.59230 26.69198
#
# Velocity S-wave (km/s) = 2.87717 3.90367 3.42905
# Velocity P-wave (km/s) = 5.92742 7.02824 6.50117
#
# Compressibility (1/GPa) = 0.01828134
#
# Stress axis : x y z
#
# Youngs Moduli (GPa) = 112.86441 166.18323 58.76646
#
# Poissons Ratio (x) = 0.12442 0.13579
# Poissons Ratio (y) = 0.08450 0.22020
# Poissons Ratio (z) = 0.26080 0.62268
#
# Static dielectric constant tensor:
#      x y z
#    x 1.831930 0.000000 0.000000 
#    y 0.000000 1.839390 0.000000 
#    z 0.000000 0.000000 1.839540 
# 
# From -- ./inp_files/53751.got.cif
#   From: 2010.05.17/outbox.cif.g08.bks.cpg/sg68_27_cif.got.tgz:53751.got - 2010.06.03 18:57:09.
