data_PCOD9509485
_publ_section_title
;
Structure prediction by ZEFSAII (Michael W. Deem and Ramdas Pophale) SiO2 
 PCOD9509485
Probable space group: C C C A
;
_chemical_formula_sum "Si O2"
_cell_formula_units_Z 68
_cell_length_a 23.778377
_cell_length_b 7.819425
_cell_length_c 14.664585
_cell_angle_alpha 90.000000
_cell_angle_beta 90.000000
_cell_angle_gamma 90.000000
_cell_volume 2726.633737
_symmetry_space_group_name_H-M "C C C A"
_symmetry_group_IT_number 68
_space_group.IT_coordinate_system_code '2'
_symmetry_cell_setting 'orthorhombic'
loop_
_space_group_symop_operation_xyz
x,y,z
-x,1/2-y,z
x,1/2-y,1/2-z
-x,y,1/2-z
-x,-y,-z
x,1/2+y,-z
-x,1/2+y,1/2+z
x,-y,1/2+z
1/2+x,1/2+y,z
1/2-x,-y,z
1/2+x,-y,1/2-z
1/2-x,1/2+y,1/2-z
1/2-x,1/2-y,-z
1/2+x,y,-z
1/2-x,y,1/2+z
1/2+x,1/2-y,1/2+z
loop_
_atom_site_type_symbol
_atom_site_label
_atom_site_fract_x
_atom_site_fract_y
_atom_site_fract_z
Si Si1 0.091554 0.428617 0.374770
Si Si2 0.956167 0.384427 0.941467
Si Si3 0.819987 0.750000 0.750000
Si Si4 0.750000 0.000000 0.126414
Si Si5 0.856753 0.701086 0.355600
Si Si6 0.500000 0.750000 0.250000
O O1 0.082943 0.338386 0.471819
O O2 0.142463 0.352335 0.319531
O O3 0.111540 0.624985 0.388359
O O4 0.037086 0.374054 0.314899
O O5 0.909272 0.433575 0.866417
O O6 0.000000 0.250000 0.900201
O O7 0.000000 0.500000 0.000000
O O8 0.783716 0.626091 0.810007
O O9 0.697892 0.123756 0.091280
O O10 0.842766 0.750000 0.250000
#
# Coordination Sequence:
#
# PCOD9509485 Si02
#       6
#    16  16   8   8  16   4
#     4  11  24  43  71 110 148 196 249 310 389 451
#     4  12  27  46  70 108 155 189 243 313 381 455
#     4  11  22  43  72 100 145 186 257 312 384 436
#     4  12  24  46  74 108 146 200 266 326 364 460
#     4  12  27  47  76 109 145 205 258 309 380 456
#     4  10  24  40  78 112 158 202 250 316 386 462
#
# _framework density 24.939174999999999
#
# number of rings (size 3 to 8) (size 9 to 14) (size 15 to 20)
#    0.000    0.471    7.059    0.000    6.588    0.471 
#    0.000    5.882    0.000    0.000    0.000    0.000 
#    0.000    0.000    0.000    0.000    0.000    0.000 
#
# Total GULP energy -189400.944625 kJ/mol
# GULP energy per Si atom -5570.616018 kJ/mol
# Density = 2.488241 g / cm^3
# Si number density = 24.939175 Si / 1000 Ang^3
#
#
#
# Elastic Constant Matrix: (Units=GPa)
#
#
# Indices 1 2 3 4 5 6 
#
# 1 206.0610 58.0956 28.1764 0.0000 0.0000 0.0000
# 2 58.0956 111.5636 22.5538 0.0000 0.0000 0.0000
# 3 28.1764 22.5538 63.7152 0.0000 0.0000 0.0000
# 4 0.0000 0.0000 0.0000 40.5298 0.0000 0.0000
# 5 0.0000 0.0000 0.0000 0.0000 36.4810 0.0000
# 6 0.0000 0.0000 0.0000 0.0000 0.0000 33.7794
#
#
#
# Elastic Compliance Matrix: (Units=1/GPa)
#
#
# Indices 1 2 3 4 5 6 
#
# 1 0.005840 -0.002713 -0.001622 0.000000 0.000000 0.000000
# 2 -0.002713 0.010915 -0.002664 0.000000 0.000000 0.000000
# 3 -0.001622 -0.002664 0.017355 0.000000 0.000000 0.000000
# 4 0.000000 0.000000 0.000000 0.024673 0.000000 0.000000
# 5 0.000000 0.000000 0.000000 0.000000 0.027412 0.000000
# 6 0.000000 0.000000 0.000000 0.000000 0.000000 0.029604
#
#
# Mechanical properties :
#
#
# Convention : Reuss Voigt Hill
#
# Bulk Modulus (GPa) = 49.72236 66.55459 58.13848
# Shear Modulus (GPa) = 36.63009 40.32564 38.47787
#
# Velocity S-wave (km/s) = 3.83662 4.02551 3.93220
# Velocity P-wave (km/s) = 6.29340 6.95349 6.63166
#
# Compressibility (1/GPa) = 0.02011167
#
# Stress axis : x y z
#
# Youngs Moduli (GPa) = 171.24405 91.61880 57.61993
#
# Poissons Ratio (x) = 0.24856 0.09346
# Poissons Ratio (y) = 0.46458 0.15349
# Poissons Ratio (z) = 0.27777 0.24406
#
# Static dielectric constant tensor:
#      x y z
#    x 2.059900 0.000000 0.000000 
#    y 0.000000 2.377430 0.000000 
#    z 0.000000 0.000000 2.287800 
# 
# From -- ./inp_files/32618.got.cif
#   From: 2010.05.17/outbox.cif.g08.bks.cpg/sg68_17_cif.got.tgz:32618.got - 2010.06.03 18:57:09.
