data_PCOD9509347
_publ_section_title
;
Structure prediction by ZEFSAII (Michael W. Deem and Ramdas Pophale) SiO2 
 PCOD9509347
Probable space group: C C C A
;
_chemical_formula_sum "Si O2"
_cell_formula_units_Z 80
_cell_length_a 14.614679
_cell_length_b 26.482296
_cell_length_c 7.788906
_cell_angle_alpha 90.000000
_cell_angle_beta 90.000000
_cell_angle_gamma 90.000000
_cell_volume 3014.542277
_symmetry_space_group_name_H-M "C C C A"
_symmetry_group_IT_number 68
_space_group.IT_coordinate_system_code '2'
_symmetry_cell_setting 'orthorhombic'
loop_
_space_group_symop_operation_xyz
x,y,z
-x,1/2-y,z
x,1/2-y,1/2-z
-x,y,1/2-z
-x,-y,-z
x,1/2+y,-z
-x,1/2+y,1/2+z
x,-y,1/2+z
1/2+x,1/2+y,z
1/2-x,-y,z
1/2+x,-y,1/2-z
1/2-x,1/2+y,1/2-z
1/2-x,1/2-y,-z
1/2+x,y,-z
1/2-x,y,1/2+z
1/2+x,1/2-y,1/2+z
loop_
_atom_site_type_symbol
_atom_site_label
_atom_site_fract_x
_atom_site_fract_y
_atom_site_fract_z
Si Si1 0.390779 0.389371 0.914330
Si Si2 0.045757 0.052107 0.565129
Si Si3 0.218267 0.599195 0.267533
Si Si4 0.002332 0.190668 0.546729
Si Si5 0.311718 0.289177 0.397314
O O1 0.493720 0.409575 0.939504
O O2 0.330144 0.402200 0.083851
O O3 0.419011 0.331054 0.937643
O O4 0.325668 0.415049 0.774251
O O5 0.151604 0.065887 0.608127
O O6 0.000000 0.059571 0.750000
O O7 0.000000 0.000000 0.500000
O O8 0.227054 0.659179 0.315048
O O9 0.107682 0.184469 0.491947
O O10 0.000000 0.250000 0.538263
O O11 0.000000 0.173405 0.750000
O O12 0.346687 0.250000 0.250000
O O13 0.250000 0.250000 0.500000
#
# Coordination Sequence:
#
# PCOD9509347 Si02
#       5
#    16  16  16  16  16
#     4  11  22  41  65  93 131 169 222 276 327 401
#     4  10  23  44  69  94 129 171 225 278 341 405
#     4  11  22  40  64  96 129 173 218 273 330 394
#     4  11  17  34  60  88 119 176 217 250 309 391
#     4  12  22  36  63  96 132 173 223 265 319 395
#
# _framework density 26.538027
#
# number of rings (size 3 to 8) (size 9 to 14) (size 15 to 20)
#    0.000    1.000    6.000    3.000    0.000    2.400 
#    0.000    4.000    0.000    4.200    0.000    0.000 
#    0.000    0.000    0.000    0.000    0.000    0.000 
#
# Total GULP energy -222808.212397 kJ/mol
# GULP energy per Si atom -5570.205310 kJ/mol
# Density = 2.647762 g / cm^3
# Si number density = 26.538027 Si / 1000 Ang^3
#
#
#
# Elastic Constant Matrix: (Units=GPa)
#
#
# Indices 1 2 3 4 5 6 
#
# 1 176.5525 7.8612 25.2380 0.0000 0.0000 0.0000
# 2 7.8612 92.9286 1.4929 0.0000 0.0000 0.0000
# 3 25.2380 1.4929 83.2439 0.0000 0.0000 0.0000
# 4 0.0000 0.0000 0.0000 18.8024 0.0000 0.0000
# 5 0.0000 0.0000 0.0000 0.0000 33.6461 0.0000
# 6 0.0000 0.0000 0.0000 0.0000 0.0000 26.6751
#
#
#
# Elastic Compliance Matrix: (Units=1/GPa)
#
#
# Indices 1 2 3 4 5 6 
#
# 1 0.005941 -0.000474 -0.001793 0.000000 0.000000 0.000000
# 2 -0.000474 0.010802 -0.000050 0.000000 0.000000 0.000000
# 3 -0.001793 -0.000050 0.012557 0.000000 0.000000 0.000000
# 4 0.000000 0.000000 0.000000 0.053185 0.000000 0.000000
# 5 0.000000 0.000000 0.000000 0.000000 0.029721 0.000000
# 6 0.000000 0.000000 0.000000 0.000000 0.000000 0.037488
#
#
# Mechanical properties :
#
#
# Convention : Reuss Voigt Hill
#
# Bulk Modulus (GPa) = 40.53968 46.87877 43.70923
# Shear Modulus (GPa) = 30.75968 37.03357 33.89662
#
# Velocity S-wave (km/s) = 3.40822 3.73968 3.57779
# Velocity P-wave (km/s) = 5.54952 6.02910 5.79427
#
# Compressibility (1/GPa) = 0.02466719
#
# Stress axis : x y z
#
# Youngs Moduli (GPa) = 168.30998 92.57687 79.63470
#
# Poissons Ratio (x) = 0.04386 0.14277
# Poissons Ratio (y) = 0.07975 0.00399
# Poissons Ratio (z) = 0.30175 0.00464
#
# Static dielectric constant tensor:
#      x y z
#    x 2.581260 0.000000 0.000000 
#    y 0.000000 2.346220 0.000000 
#    z 0.000000 0.000000 4.534630 
# 
# From -- ./inp_files/13404.got.cif
#   From: 2010.05.17/outbox.cif.g08.bks.cpg/sg68_7_cif.got.tgz:13404.got - 2010.06.03 18:57:09.
