data_PCOD9509219
_publ_section_title
;
Structure prediction by ZEFSAII (Michael W. Deem and Ramdas Pophale) SiO2 
 PCOD9509219
Probable space group: C C C A
;
_chemical_formula_sum "Si O2"
_cell_formula_units_Z 80
_cell_length_a 23.257586
_cell_length_b 16.432461
_cell_length_c 8.665980
_cell_angle_alpha 90.000000
_cell_angle_beta 90.000000
_cell_angle_gamma 90.000000
_cell_volume 3311.958819
_symmetry_space_group_name_H-M "C C C A"
_symmetry_group_IT_number 68
_space_group.IT_coordinate_system_code '2'
_symmetry_cell_setting 'orthorhombic'
loop_
_space_group_symop_operation_xyz
x,y,z
-x,1/2-y,z
x,1/2-y,1/2-z
-x,y,1/2-z
-x,-y,-z
x,1/2+y,-z
-x,1/2+y,1/2+z
x,-y,1/2+z
1/2+x,1/2+y,z
1/2-x,-y,z
1/2+x,-y,1/2-z
1/2-x,1/2+y,1/2-z
1/2-x,1/2-y,-z
1/2+x,y,-z
1/2-x,y,1/2+z
1/2+x,1/2-y,1/2+z
loop_
_atom_site_type_symbol
_atom_site_label
_atom_site_fract_x
_atom_site_fract_y
_atom_site_fract_z
Si Si1 0.699812 0.684385 0.962950
Si Si2 0.560717 0.494481 0.176344
Si Si3 0.404304 0.325034 0.835672
Si Si4 0.130404 0.934454 0.920275
Si Si5 0.272441 0.918609 0.672434
O O1 0.705860 0.650073 0.790469
O O2 0.750000 0.750000 0.000000
O O3 0.635184 0.702564 0.020482
O O4 0.717825 0.612247 0.077259
O O5 0.500000 0.475340 0.250000
O O6 0.561862 0.591007 0.128461
O O7 0.575549 0.437050 0.034174
O O8 0.613048 0.492962 0.302195
O O9 0.435044 0.250000 0.750000
O O10 0.365066 0.357731 0.691605
O O11 0.182106 0.937210 0.038060
O O12 0.250000 0.000000 0.755184
#
# Coordination Sequence:
#
# PCOD9509219 Si02
#       5
#    16  16  16  16  16
#     4  12  25  41  64  91 138 180 212 260 327 396
#     4  10  23  43  70  97 130 169 219 276 338 394
#     4  10  23  42  64  96 130 170 221 263 328 389
#     4  10  24  39  68  97 130 170 221 271 331 394
#     4  12  25  38  61  96 130 171 223 265 316 388
#
# _framework density 24.154892
#
# number of rings (size 3 to 8) (size 9 to 14) (size 15 to 20)
#    1.200    0.000    0.000    6.600    8.400    0.400 
#    0.000    0.000    0.000    0.000    0.000    0.000 
#    0.000    0.000    0.000    0.000    0.000    0.000 
#
# Total GULP energy -223045.842257 kJ/mol
# GULP energy per Si atom -5576.146056 kJ/mol
# Density = 2.409991 g / cm^3
# Si number density = 24.154892 Si / 1000 Ang^3
#
#
#
# Elastic Constant Matrix: (Units=GPa)
#
#
# Indices 1 2 3 4 5 6 
#
# 1 65.8636 -2.4929 20.4484 0.0000 0.0000 0.0000
# 2 -2.4929 49.8293 6.7319 0.0000 0.0000 0.0000
# 3 20.4484 6.7319 122.0631 0.0000 0.0000 0.0000
# 4 0.0000 0.0000 0.0000 26.9495 0.0000 0.0000
# 5 0.0000 0.0000 0.0000 0.0000 41.7724 0.0000
# 6 0.0000 0.0000 0.0000 0.0000 0.0000 20.0350
#
#
#
# Elastic Compliance Matrix: (Units=1/GPa)
#
#
# Indices 1 2 3 4 5 6 
#
# 1 0.016084 0.001177 -0.002759 0.000000 0.000000 0.000000
# 2 0.001177 0.020305 -0.001317 0.000000 0.000000 0.000000
# 3 -0.002759 -0.001317 0.008727 0.000000 0.000000 0.000000
# 4 0.000000 0.000000 0.000000 0.037106 0.000000 0.000000
# 5 0.000000 0.000000 0.000000 0.000000 0.023939 0.000000
# 6 0.000000 0.000000 0.000000 0.000000 0.000000 0.049913
#
#
# Mechanical properties :
#
#
# Convention : Reuss Voigt Hill
#
# Bulk Modulus (GPa) = 25.43314 31.90343 28.66828
# Shear Modulus (GPa) = 28.57478 31.95597 30.26537
#
# Velocity S-wave (km/s) = 3.44318 3.64120 3.54357
# Velocity P-wave (km/s) = 5.13414 5.56006 5.35134
#
# Compressibility (1/GPa) = 0.03931878
#
# Stress axis : x y z
#
# Youngs Moduli (GPa) = 62.17297 49.24806 114.58176
#
# Poissons Ratio (x) = -0.05799 0.31618
# Poissons Ratio (y) = -0.07321 0.15092
# Poissons Ratio (z) = 0.17156 0.06487
#
# Static dielectric constant tensor:
#      x y z
#    x 1.952040 0.000000 0.000000 
#    y 0.000000 2.030450 0.000000 
#    z 0.000000 0.000000 1.940430 
# 
# From -- ./inp_files/8786.got.cif
#   From: 2010.05.17/outbox.cif.g08.bks.cpg/sg68_5_cif.got.tgz:8786.got - 2010.06.03 18:57:09.
