data_PCOD9509533
_publ_section_title
;
Structure prediction by ZEFSAII (Michael W. Deem and Ramdas Pophale) SiO2 
 PCOD9509533
Probable space group: C C C A
;
_chemical_formula_sum "Si O2"
_cell_formula_units_Z 56
_cell_length_a 19.820966
_cell_length_b 8.486653
_cell_length_c 13.606033
_cell_angle_alpha 90.000000
_cell_angle_beta 90.000000
_cell_angle_gamma 90.000000
_cell_volume 2288.720617
_symmetry_space_group_name_H-M "C C C A"
_symmetry_group_IT_number 68
_space_group.IT_coordinate_system_code '2'
_symmetry_cell_setting 'orthorhombic'
loop_
_space_group_symop_operation_xyz
x,y,z
-x,1/2-y,z
x,1/2-y,1/2-z
-x,y,1/2-z
-x,-y,-z
x,1/2+y,-z
-x,1/2+y,1/2+z
x,-y,1/2+z
1/2+x,1/2+y,z
1/2-x,-y,z
1/2+x,-y,1/2-z
1/2-x,1/2+y,1/2-z
1/2-x,1/2-y,-z
1/2+x,y,-z
1/2-x,y,1/2+z
1/2+x,1/2-y,1/2+z
loop_
_atom_site_type_symbol
_atom_site_label
_atom_site_fract_x
_atom_site_fract_y
_atom_site_fract_z
Si Si1 0.363685 0.522561 0.587685
Si Si2 0.568090 0.655149 0.559655
Si Si3 0.250000 0.000000 0.561576
Si Si4 0.138383 0.912929 0.701824
O O1 0.377554 0.704307 0.566497
O O2 0.428393 0.423048 0.548600
O O3 0.306749 0.451623 0.516703
O O4 0.345877 0.511141 0.700707
O O5 0.500000 0.750000 0.580973
O O6 0.586926 0.515408 0.635752
O O7 0.205704 0.891811 0.635442
O O8 0.114093 0.750000 0.750000
#
# Coordination Sequence:
#
# PCOD9509533 Si02
#       4
#    16  16   8  16
#     4  11  23  42  70 102 141 192 241 297 369 436
#     4  11  25  47  72 104 146 192 244 302 365 438
#     4  10  24  42  68 102 144 184 236 300 362 430
#     4  11  25  43  69 107 145 190 247 303 366 439
#
# _framework density 24.467818999999999
#
# number of rings (size 3 to 8) (size 9 to 14) (size 15 to 20)
#    0.000    1.143    0.000    6.000    0.000   17.143 
#    0.000    1.429    0.000    1.714    0.000    0.000 
#    0.000    0.000    0.000    0.000    0.000    0.000 
#
# Total GULP energy -156208.910664 kJ/mol
# GULP energy per Si atom -5578.889667 kJ/mol
# Density = 2.441213 g / cm^3
# Si number density = 24.467819 Si / 1000 Ang^3
#
#
#
# Elastic Constant Matrix: (Units=GPa)
#
#
# Indices 1 2 3 4 5 6 
#
# 1 110.8920 51.7834 48.3698 0.0000 0.0000 0.0000
# 2 51.7834 116.7203 15.6473 0.0000 0.0000 0.0000
# 3 48.3698 15.6473 150.8304 0.0000 0.0000 0.0000
# 4 0.0000 0.0000 0.0000 53.9933 0.0000 0.0000
# 5 0.0000 0.0000 0.0000 0.0000 16.0048 0.0000
# 6 0.0000 0.0000 0.0000 0.0000 0.0000 1.3005
#
#
#
# Elastic Compliance Matrix: (Units=1/GPa)
#
#
# Indices 1 2 3 4 5 6 
#
# 1 0.013093 -0.005320 -0.003647 0.000000 0.000000 0.000000
# 2 -0.005320 0.010850 0.000580 0.000000 0.000000 0.000000
# 3 -0.003647 0.000580 0.007739 0.000000 0.000000 0.000000
# 4 0.000000 0.000000 0.000000 0.018521 0.000000 0.000000
# 5 0.000000 0.000000 0.000000 0.000000 0.062481 0.000000
# 6 0.000000 0.000000 0.000000 0.000000 0.000000 0.768956
#
#
# Mechanical properties :
#
#
# Convention : Reuss Voigt Hill
#
# Bulk Modulus (GPa) = 67.07152 67.78263 67.42708
# Shear Modulus (GPa) = 5.53476 31.76919 18.65198
#
# Velocity S-wave (km/s) = 1.50565 3.60725 2.76399
# Velocity P-wave (km/s) = 5.52216 6.71659 6.14845
#
# Compressibility (1/GPa) = 0.01490946
#
# Stress axis : x y z
#
# Youngs Moduli (GPa) = 76.37882 92.16766 129.21157
#
# Poissons Ratio (x) = 0.49031 0.47121
# Poissons Ratio (y) = 0.40631 -0.07500
# Poissons Ratio (z) = 0.27854 -0.05350
#
# Static dielectric constant tensor:
#      x y z
#    x 2.173550 0.000000 0.000000 
#    y 0.000000 2.036570 0.000000 
#    z 0.000000 0.000000 1.909350 
# 
# From -- ./inp_files/24138.got.cif
#   From: 2010.05.17/outbox.cif.g08.bks.cpg/sg68_13_cif.got.tgz:24138.got - 2010.06.03 18:57:09.
