data_PCOD9509925
_publ_section_title
;
Structure prediction by ZEFSAII (Michael W. Deem and Ramdas Pophale) SiO2 
 PCOD9509925
Probable space group: C C C A
;
_chemical_formula_sum "Si O2"
_cell_formula_units_Z 112
_cell_length_a 14.744374
_cell_length_b 13.768811
_cell_length_c 27.776433
_cell_angle_alpha 90.000000
_cell_angle_beta 90.000000
_cell_angle_gamma 90.000000
_cell_volume 5638.963074
_symmetry_space_group_name_H-M "C C C A"
_symmetry_group_IT_number 68
_space_group.IT_coordinate_system_code '2'
_symmetry_cell_setting 'orthorhombic'
loop_
_space_group_symop_operation_xyz
x,y,z
-x,1/2-y,z
x,1/2-y,1/2-z
-x,y,1/2-z
-x,-y,-z
x,1/2+y,-z
-x,1/2+y,1/2+z
x,-y,1/2+z
1/2+x,1/2+y,z
1/2-x,-y,z
1/2+x,-y,1/2-z
1/2-x,1/2+y,1/2-z
1/2-x,1/2-y,-z
1/2+x,y,-z
1/2-x,y,1/2+z
1/2+x,1/2-y,1/2+z
loop_
_atom_site_type_symbol
_atom_site_label
_atom_site_fract_x
_atom_site_fract_y
_atom_site_fract_z
Si Si1 0.848961 0.738808 0.196237
Si Si2 0.997347 0.586515 0.305945
Si Si3 0.087644 0.649895 0.442371
Si Si4 0.902583 0.744170 0.542941
Si Si5 0.732491 0.708910 0.894586
Si Si6 0.854581 0.971685 0.994891
Si Si7 0.579481 0.940156 0.596983
O O1 0.815709 0.750000 0.250000
O O2 0.904956 0.639307 0.186650
O O3 0.767171 0.758193 0.160297
O O4 0.924261 0.824925 0.192393
O O5 0.000000 0.549454 0.250000
O O6 0.962525 0.522561 0.352005
O O7 0.082327 0.691172 0.495825
O O8 0.165169 0.711514 0.417623
O O9 0.114495 0.538349 0.450636
O O10 0.992050 0.645723 0.415654
O O11 0.824254 0.787288 0.576214
O O12 0.870739 0.639277 0.522006
O O13 0.000000 0.750000 0.568543
O O14 0.678638 0.607338 0.896373
O O15 0.750000 0.000000 0.003411
O O16 0.909212 0.991874 0.044875
#
# Coordination Sequence:
#
# PCOD9509925 Si02
#       7
#    16  16  16  16  16  16  16
#     4   8  14  25  46  78 109 134 173 224 281 341
#     4   8  14  25  46  77 109 138 171 215 284 347
#     4  12  21  36  55  81 116 152 184 232 283 341
#     4  12  24  39  54  75 113 155 197 237 277 338
#     4  11  19  33  55  77 112 148 181 229 285 339
#     4  12  24  37  53  80 117 158 198 228 275 345
#     4  11  20  33  53  81 115 149 179 227 291 335
#
# _framework density 19.861806999999999
#
# number of rings (size 3 to 8) (size 9 to 14) (size 15 to 20)
#    0.000    1.429    5.714    3.000    0.000    0.000 
#    0.000    0.000    0.000    0.429    0.000    9.000 
#    0.000    0.000    0.000    0.000    0.000    0.000 
#
# Total GULP energy -312047.661895 kJ/mol
# GULP energy per Si atom -5572.279677 kJ/mol
# Density = 1.981660 g / cm^3
# Si number density = 19.861807 Si / 1000 Ang^3
#
#
#
# Elastic Constant Matrix: (Units=GPa)
#
#
# Indices 1 2 3 4 5 6 
#
# 1 105.7983 -1.2868 36.9540 0.0000 0.0000 0.0000
# 2 -1.2868 35.5152 -3.2680 0.0000 0.0000 0.0000
# 3 36.9540 -3.2680 114.0619 0.0000 0.0000 0.0000
# 4 0.0000 0.0000 0.0000 10.7320 0.0000 0.0000
# 5 0.0000 0.0000 0.0000 0.0000 19.3482 0.0000
# 6 0.0000 0.0000 0.0000 0.0000 0.0000 11.2798
#
#
#
# Elastic Compliance Matrix: (Units=1/GPa)
#
#
# Indices 1 2 3 4 5 6 
#
# 1 0.010658 0.000069 -0.003451 0.000000 0.000000 0.000000
# 2 0.000069 0.028232 0.000787 0.000000 0.000000 0.000000
# 3 -0.003451 0.000787 0.009908 0.000000 0.000000 0.000000
# 4 0.000000 0.000000 0.000000 0.093180 0.000000 0.000000
# 5 0.000000 0.000000 0.000000 0.000000 0.051684 0.000000
# 6 0.000000 0.000000 0.000000 0.000000 0.000000 0.088654
#
#
# Mechanical properties :
#
#
# Convention : Reuss Voigt Hill
#
# Bulk Modulus (GPa) = 22.93256 35.57487 29.25371
# Shear Modulus (GPa) = 16.55395 23.13708 19.84552
#
# Velocity S-wave (km/s) = 2.89010 3.41677 3.16441
# Velocity P-wave (km/s) = 4.76529 5.78929 5.30207
#
# Compressibility (1/GPa) = 0.04360613
#
# Stress axis : x y z
#
# Youngs Moduli (GPa) = 93.82448 35.42104 100.93064
#
# Poissons Ratio (x) = -0.00243 0.34832
# Poissons Ratio (y) = -0.00644 -0.07939
# Poissons Ratio (z) = 0.32380 -0.02786
#
# Static dielectric constant tensor:
#      x y z
#    x 1.737670 0.000000 0.000000 
#    y 0.000000 1.758550 0.000000 
#    z 0.000000 0.000000 1.783110 
# 
# From -- ./inp_files/51006.got.cif
#   From: 2010.05.17/outbox.cif.g08.bks.cpg/sg68_26_cif.got.tgz:51006.got - 2010.06.03 18:57:09.
