data_PCOD9509811
_publ_section_title
;
Structure prediction by ZEFSAII (Michael W. Deem and Ramdas Pophale) SiO2 
 PCOD9509811
Probable space group: C C C A
;
_chemical_formula_sum "Si O2"
_cell_formula_units_Z 60
_cell_length_a 5.650493
_cell_length_b 20.205439
_cell_length_c 22.773128
_cell_angle_alpha 90.000000
_cell_angle_beta 90.000000
_cell_angle_gamma 90.000000
_cell_volume 2600.023774
_symmetry_space_group_name_H-M "C C C A"
_symmetry_group_IT_number 68
_space_group.IT_coordinate_system_code '2'
_symmetry_cell_setting 'orthorhombic'
loop_
_space_group_symop_operation_xyz
x,y,z
-x,1/2-y,z
x,1/2-y,1/2-z
-x,y,1/2-z
-x,-y,-z
x,1/2+y,-z
-x,1/2+y,1/2+z
x,-y,1/2+z
1/2+x,1/2+y,z
1/2-x,-y,z
1/2+x,-y,1/2-z
1/2-x,1/2+y,1/2-z
1/2-x,1/2-y,-z
1/2+x,y,-z
1/2-x,y,1/2+z
1/2+x,1/2-y,1/2+z
loop_
_atom_site_type_symbol
_atom_site_label
_atom_site_fract_x
_atom_site_fract_y
_atom_site_fract_z
Si Si1 0.500000 0.537605 0.250000
Si Si2 0.000000 0.250000 0.250000
Si Si3 0.604188 0.819869 0.814053
Si Si4 0.025055 0.676040 0.534994
Si Si5 0.339706 0.573541 0.374947
O O1 0.250000 0.500000 0.248761
O O2 0.483481 0.570384 0.313906
O O3 0.859334 0.296632 0.206696
O O4 0.500000 0.750000 0.835871
O O5 0.500000 0.839009 0.750000
O O6 0.615159 0.879342 0.858912
O O7 0.787843 0.672727 0.493558
O O8 0.988731 0.614272 0.578080
O O9 0.000000 0.750000 0.562621
O O10 0.250000 0.500000 0.390984
#
# Coordination Sequence:
#
# PCOD9509811 Si02
#       5
#     8   4  16  16  16
#     4  10  25  46  67 106 161 199 234 284 373 452
#     4   8  16  36  56  94 124 194 236 284 326 428
#     4   9  20  38  63  94 142 186 242 285 350 432
#     4  10  25  51  77 105 140 189 253 316 372 433
#     4  11  25  43  73 109 150 198 238 306 371 448
#
# _framework density 23.076712000000001
#
# number of rings (size 3 to 8) (size 9 to 14) (size 15 to 20)
#    0.000    2.400    0.000    0.800    9.333    8.533 
#    4.800    0.000    0.000    0.000    0.000    0.000 
#    0.000    0.000    0.000    0.000    0.000    0.000 
#
# Total GULP energy -167242.735685 kJ/mol
# GULP energy per Si atom -5574.757856 kJ/mol
# Density = 2.302419 g / cm^3
# Si number density = 23.076712 Si / 1000 Ang^3
#
#
#
# Elastic Constant Matrix: (Units=GPa)
#
#
# Indices 1 2 3 4 5 6 
#
# 1 95.0907 38.7551 14.9088 0.0000 0.0000 0.0000
# 2 38.7551 188.0200 40.0539 0.0000 0.0000 0.0000
# 3 14.9088 40.0539 53.6499 0.0000 0.0000 0.0000
# 4 0.0000 0.0000 0.0000 47.6044 0.0000 0.0000
# 5 0.0000 0.0000 0.0000 0.0000 45.8132 0.0000
# 6 0.0000 0.0000 0.0000 0.0000 0.0000 57.7824
#
#
#
# Elastic Compliance Matrix: (Units=1/GPa)
#
#
# Indices 1 2 3 4 5 6 
#
# 1 0.011612 -0.002029 -0.001712 0.000000 0.000000 0.000000
# 2 -0.002029 0.006679 -0.004423 0.000000 0.000000 0.000000
# 3 -0.001712 -0.004423 0.022417 0.000000 0.000000 0.000000
# 4 0.000000 0.000000 0.000000 0.021006 0.000000 0.000000
# 5 0.000000 0.000000 0.000000 0.000000 0.021828 0.000000
# 6 0.000000 0.000000 0.000000 0.000000 0.000000 0.017306
#
#
# Mechanical properties :
#
#
# Convention : Reuss Voigt Hill
#
# Bulk Modulus (GPa) = 41.01634 58.24404 49.63019
# Shear Modulus (GPa) = 39.90375 46.44285 43.17330
#
# Velocity S-wave (km/s) = 4.16285 4.49100 4.33004
# Velocity P-wave (km/s) = 6.39674 7.22401 6.82292
#
# Compressibility (1/GPa) = 0.02438053
#
# Stress axis : x y z
#
# Youngs Moduli (GPa) = 86.12142 149.72594 44.60912
#
# Poissons Ratio (x) = 0.30374 0.07638
# Poissons Ratio (y) = 0.17471 0.19729
# Poissons Ratio (z) = 0.14746 0.66217
#
# Static dielectric constant tensor:
#      x y z
#    x 2.244420 0.000000 0.000000 
#    y 0.000000 1.828650 0.000000 
#    z 0.000000 0.000000 1.901950 
# 
# From -- ./inp_files/42058.got.cif
#   From: 2010.05.17/outbox.cif.g08.bks.cpg/sg68_22_cif.got.tgz:42058.got - 2010.06.03 18:57:09.
