data_PCOD9509911
_publ_section_title
;
Structure prediction by ZEFSAII (Michael W. Deem and Ramdas Pophale) SiO2 
 PCOD9509911
Probable space group: C C C A
;
_chemical_formula_sum "Si O2"
_cell_formula_units_Z 60
_cell_length_a 5.319443
_cell_length_b 18.747130
_cell_length_c 24.484255
_cell_angle_alpha 90.000000
_cell_angle_beta 90.000000
_cell_angle_gamma 90.000000
_cell_volume 2441.674933
_symmetry_space_group_name_H-M "C C C A"
_symmetry_group_IT_number 68
_space_group.IT_coordinate_system_code '2'
_symmetry_cell_setting 'orthorhombic'
loop_
_space_group_symop_operation_xyz
x,y,z
-x,1/2-y,z
x,1/2-y,1/2-z
-x,y,1/2-z
-x,-y,-z
x,1/2+y,-z
-x,1/2+y,1/2+z
x,-y,1/2+z
1/2+x,1/2+y,z
1/2-x,-y,z
1/2+x,-y,1/2-z
1/2-x,1/2+y,1/2-z
1/2-x,1/2-y,-z
1/2+x,y,-z
1/2-x,y,1/2+z
1/2+x,1/2-y,1/2+z
loop_
_atom_site_type_symbol
_atom_site_label
_atom_site_fract_x
_atom_site_fract_y
_atom_site_fract_z
Si Si1 0.725048 0.667197 0.652677
Si Si2 0.472481 0.392544 0.986003
Si Si3 0.000000 0.750000 0.250000
Si Si4 0.210863 0.916882 0.867831
Si Si5 0.500000 0.250000 0.055250
O O1 0.675875 0.707951 0.708366
O O2 0.475377 0.620259 0.643454
O O3 0.709936 0.719852 0.598819
O O4 0.977017 0.622091 0.660590
O O5 0.621836 0.403605 0.929934
O O6 0.194146 0.423388 0.975722
O O7 0.426795 0.314811 0.014553
O O8 0.250000 0.000000 0.856964
#
# Coordination Sequence:
#
# PCOD9509911 Si02
#       5
#    16  16   4  16   8
#     4  11  26  45  74 102 139 181 234 319 366 431
#     4  12  23  37  64  99 142 199 237 286 343 423
#     4  10  28  50  84 114 128 166 252 318 408 432
#     4  12  26  45  67 103 150 196 237 278 354 443
#     4  11  22  39  64  98 142 181 240 295 362 392
#
# _framework density 24.573295999999999
#
# number of rings (size 3 to 8) (size 9 to 14) (size 15 to 20)
#    0.000    0.533    5.333    1.600    0.000    7.467 
#    0.000    2.667    0.000    0.000    0.000    0.000 
#    0.000    0.000    0.000    0.000    0.000    0.000 
#
# Total GULP energy -167478.742813 kJ/mol
# GULP energy per Si atom -5582.624760 kJ/mol
# Density = 2.451737 g / cm^3
# Si number density = 24.573296 Si / 1000 Ang^3
#
#
#
# Elastic Constant Matrix: (Units=GPa)
#
#
# Indices 1 2 3 4 5 6 
#
# 1 155.2323 21.4260 1.2449 0.0000 0.0000 0.0000
# 2 21.4260 121.8431 31.2159 0.0000 0.0000 0.0000
# 3 1.2449 31.2159 120.0903 0.0000 0.0000 0.0000
# 4 0.0000 0.0000 0.0000 -20.5331 0.0000 0.0000
# 5 0.0000 0.0000 0.0000 0.0000 20.3398 0.0000
# 6 0.0000 0.0000 0.0000 0.0000 0.0000 -7.2444
#
#
#
# Elastic Compliance Matrix: (Units=1/GPa)
#
#
# Indices 1 2 3 4 5 6 
#
# 1 0.006609 -0.001226 0.000250 0.000000 0.000000 0.000000
# 2 -0.001226 0.009020 -0.002332 0.000000 0.000000 0.000000
# 3 0.000250 -0.002332 0.008931 0.000000 0.000000 0.000000
# 4 0.000000 0.000000 0.000000 -0.048702 0.000000 0.000000
# 5 0.000000 0.000000 0.000000 0.000000 0.049165 0.000000
# 6 0.000000 0.000000 0.000000 0.000000 0.000000 -0.138039
#
#
# Mechanical properties :
#
#
# Convention : Reuss Voigt Hill
#
# Bulk Modulus (GPa) = 55.72878 56.10437 55.91657
# Shear Modulus (GPa) = -49.79199 21.39772 -14.19713
#
# Velocity S-wave (km/s) = -4.50629 2.95408 -2.40624
# Velocity P-wave (km/s) = 2.08511 5.87507 3.88386
#
# Compressibility (1/GPa) = 0.01794405
#
# Stress axis : x y z
#
# Youngs Moduli (GPa) = 151.30386 110.86007 111.97391
#
# Poissons Ratio (x) = 0.13595 -0.02802
# Poissons Ratio (y) = 0.18555 0.26113
# Poissons Ratio (z) = -0.03786 0.25853
#
# Static dielectric constant tensor:
#      x y z
#    x 3.221230 0.000000 0.000000 
#    y 0.000000 2.414890 0.000000 
#    z 0.000000 0.000000 2.029930 
# 
# From -- ./inp_files/42068.got.cif
#   From: 2010.05.17/outbox.cif.g08.bks.cpg/sg68_22_cif.got.tgz:42068.got - 2010.06.03 18:57:09.
