data_PCOD9509928
_publ_section_title
;
Structure prediction by ZEFSAII (Michael W. Deem and Ramdas Pophale) SiO2 
 PCOD9509928
Probable space group: C C C A
;
_chemical_formula_sum "Si O2"
_cell_formula_units_Z 96
_cell_length_a 14.918122
_cell_length_b 21.697604
_cell_length_c 13.564257
_cell_angle_alpha 90.000000
_cell_angle_beta 90.000000
_cell_angle_gamma 90.000000
_cell_volume 4390.580486
_symmetry_space_group_name_H-M "C C C A"
_symmetry_group_IT_number 68
_space_group.IT_coordinate_system_code '2'
_symmetry_cell_setting 'orthorhombic'
loop_
_space_group_symop_operation_xyz
x,y,z
-x,1/2-y,z
x,1/2-y,1/2-z
-x,y,1/2-z
-x,-y,-z
x,1/2+y,-z
-x,1/2+y,1/2+z
x,-y,1/2+z
1/2+x,1/2+y,z
1/2-x,-y,z
1/2+x,-y,1/2-z
1/2-x,1/2+y,1/2-z
1/2-x,1/2-y,-z
1/2+x,y,-z
1/2-x,y,1/2+z
1/2+x,1/2-y,1/2+z
loop_
_atom_site_type_symbol
_atom_site_label
_atom_site_fract_x
_atom_site_fract_y
_atom_site_fract_z
Si Si1 0.104011 0.976347 0.285933
Si Si2 0.852357 0.100527 0.900689
Si Si3 0.595551 0.379202 0.804936
Si Si4 0.394427 0.981203 0.000375
Si Si5 0.335957 0.135300 0.607953
Si Si6 0.011087 0.320989 0.001867
O O1 0.152853 0.935729 0.203342
O O2 0.121182 0.950053 0.395207
O O3 0.000000 0.974870 0.250000
O O4 0.124783 0.048879 0.306946
O O5 0.766882 0.142898 0.918927
O O6 0.944660 0.137729 0.915973
O O7 0.846739 0.045515 0.979819
O O8 0.500000 0.381238 0.750000
O O9 0.655819 0.346936 0.722481
O O10 0.575476 0.342153 0.905364
O O11 0.364870 0.936475 0.088595
O O12 0.500000 0.000000 0.000000
O O13 0.411496 0.165067 0.540843
O O14 0.000000 0.250000 0.975817
#
# Coordination Sequence:
#
# PCOD9509928 Si02
#       6
#    16  16  16  16  16  16
#     4  11  19  34  62  92 133 172 220 278 348 416
#     4  12  24  39  64 100 138 179 222 291 353 409
#     4   9  18  35  60  91 124 168 221 282 333 397
#     4  12  19  38  65  96 136 179 217 274 359 429
#     4  11  23  39  61 100 136 169 232 285 348 416
#     4  11  24  45  71  95 135 192 238 285 339 408
#
# _framework density 21.864991
#
# number of rings (size 3 to 8) (size 9 to 14) (size 15 to 20)
#    0.000    1.000    6.667    1.500    0.000    5.000 
#    3.000    0.000    0.000    8.500    0.000    0.000 
#    0.000    0.000    0.000    0.000    0.000    0.000 
#
# Total GULP energy -267494.862592 kJ/mol
# GULP energy per Si atom -5572.809637 kJ/mol
# Density = 2.181523 g / cm^3
# Si number density = 21.864991 Si / 1000 Ang^3
#
#
#
# Elastic Constant Matrix: (Units=GPa)
#
#
# Indices 1 2 3 4 5 6 
#
# 1 65.0182 -11.1131 6.3336 0.0000 0.0000 0.0000
# 2 -11.1131 61.0058 7.4899 0.0000 0.0000 0.0000
# 3 6.3336 7.4899 131.0083 0.0000 0.0000 0.0000
# 4 0.0000 0.0000 0.0000 8.8736 0.0000 0.0000
# 5 0.0000 0.0000 0.0000 0.0000 22.8164 0.0000
# 6 0.0000 0.0000 0.0000 0.0000 0.0000 10.6714
#
#
#
# Elastic Compliance Matrix: (Units=1/GPa)
#
#
# Indices 1 2 3 4 5 6 
#
# 1 0.015990 0.003029 -0.000946 0.000000 0.000000 0.000000
# 2 0.003029 0.017082 -0.001123 0.000000 0.000000 0.000000
# 3 -0.000946 -0.001123 0.007743 0.000000 0.000000 0.000000
# 4 0.000000 0.000000 0.000000 0.112694 0.000000 0.000000
# 5 0.000000 0.000000 0.000000 0.000000 0.043828 0.000000
# 6 0.000000 0.000000 0.000000 0.000000 0.000000 0.093708
#
#
# Mechanical properties :
#
#
# Convention : Reuss Voigt Hill
#
# Bulk Modulus (GPa) = 23.40038 29.16146 26.28092
# Shear Modulus (GPa) = 16.48150 25.42708 20.95429
#
# Velocity S-wave (km/s) = 2.74849 3.41385 3.09908
# Velocity P-wave (km/s) = 4.56045 5.37635 4.98512
#
# Compressibility (1/GPa) = 0.04273436
#
# Stress axis : x y z
#
# Youngs Moduli (GPa) = 62.53828 58.54278 129.14804
#
# Poissons Ratio (x) = -0.17733 0.12220
# Poissons Ratio (y) = -0.18943 0.14503
# Poissons Ratio (z) = 0.05917 0.06574
#
# Static dielectric constant tensor:
#      x y z
#    x 1.881480 0.000000 0.000000 
#    y 0.000000 1.847920 0.000000 
#    z 0.000000 0.000000 1.892410 
# 
# From -- ./inp_files/22349.got.cif
#   From: 2010.05.17/outbox.cif.g08.bks.cpg/sg68_12_cif.got.tgz:22349.got - 2010.06.03 18:57:09.
