data_PCOD9509037
_publ_section_title
;
Structure prediction by ZEFSAII (Michael W. Deem and Ramdas Pophale) SiO2 
 PCOD9509037
Probable space group: C C C A
;
_chemical_formula_sum "Si O2"
_cell_formula_units_Z 72
_cell_length_a 17.564046
_cell_length_b 8.927195
_cell_length_c 21.129949
_cell_angle_alpha 90.000000
_cell_angle_beta 90.000000
_cell_angle_gamma 90.000000
_cell_volume 3313.126636
_symmetry_space_group_name_H-M "C C C A"
_symmetry_group_IT_number 68
_space_group.IT_coordinate_system_code '2'
_symmetry_cell_setting 'orthorhombic'
loop_
_space_group_symop_operation_xyz
x,y,z
-x,1/2-y,z
x,1/2-y,1/2-z
-x,y,1/2-z
-x,-y,-z
x,1/2+y,-z
-x,1/2+y,1/2+z
x,-y,1/2+z
1/2+x,1/2+y,z
1/2-x,-y,z
1/2+x,-y,1/2-z
1/2-x,1/2+y,1/2-z
1/2-x,1/2-y,-z
1/2+x,y,-z
1/2-x,y,1/2+z
1/2+x,1/2-y,1/2+z
loop_
_atom_site_type_symbol
_atom_site_label
_atom_site_fract_x
_atom_site_fract_y
_atom_site_fract_z
Si Si1 0.679349 0.169013 0.806086
Si Si2 0.580378 0.550246 0.284759
Si Si3 0.054454 0.952661 0.419333
Si Si4 0.750000 0.000000 0.918349
Si Si5 0.102226 0.355076 0.973941
O O1 0.727549 0.250000 0.750000
O O2 0.642507 0.025250 0.770677
O O3 0.610574 0.289685 0.812625
O O4 0.717046 0.125646 0.870681
O O5 0.500000 0.557853 0.250000
O O6 0.575096 0.446666 0.345836
O O7 0.078956 0.104209 0.454669
O O8 0.095939 0.819160 0.457370
O O9 0.964433 0.929685 0.430775
O O10 0.683116 0.925496 0.958166
#
# Coordination Sequence:
#
# PCOD9509037 Si02
#       5
#    16  16  16   8  16
#     4   8  21  35  57  94 122 175 199 272 319 391
#     4   9  18  39  67  92 120 170 223 264 326 389
#     4  10  22  46  64  96 129 169 235 268 330 405
#     4  12  22  42  60  96 142 166 228 266 352 408
#     4  10  25  40  67  95 129 182 207 288 336 389
#
# _framework density 21.731739000000001
#
# number of rings (size 3 to 8) (size 9 to 14) (size 15 to 20)
#    1.333    0.889    0.000    2.667    3.111    2.667 
#   12.000    6.667    0.000    0.000    0.000    0.000 
#    0.000    0.000    0.000    0.000    0.000    0.000 
#
# Total GULP energy -200503.789696 kJ/mol
# GULP energy per Si atom -5569.549714 kJ/mol
# Density = 2.168228 g / cm^3
# Si number density = 21.731739 Si / 1000 Ang^3
#
#
#
# Elastic Constant Matrix: (Units=GPa)
#
#
# Indices 1 2 3 4 5 6 
#
# 1 80.9535 19.9410 14.9678 0.0000 0.0000 0.0000
# 2 19.9410 56.7004 16.0490 0.0000 0.0000 0.0000
# 3 14.9678 16.0490 64.9204 0.0000 0.0000 0.0000
# 4 0.0000 0.0000 0.0000 24.4197 0.0000 0.0000
# 5 0.0000 0.0000 0.0000 0.0000 25.7738 0.0000
# 6 0.0000 0.0000 0.0000 0.0000 0.0000 20.9449
#
#
#
# Elastic Compliance Matrix: (Units=1/GPa)
#
#
# Indices 1 2 3 4 5 6 
#
# 1 0.013793 -0.004248 -0.002130 0.000000 0.000000 0.000000
# 2 -0.004248 0.020272 -0.004032 0.000000 0.000000 0.000000
# 3 -0.002130 -0.004032 0.016891 0.000000 0.000000 0.000000
# 4 0.000000 0.000000 0.000000 0.040950 0.000000 0.000000
# 5 0.000000 0.000000 0.000000 0.000000 0.038799 0.000000
# 6 0.000000 0.000000 0.000000 0.000000 0.000000 0.047744
#
#
# Mechanical properties :
#
#
# Convention : Reuss Voigt Hill
#
# Bulk Modulus (GPa) = 33.18259 33.83220 33.50739
# Shear Modulus (GPa) = 23.88742 24.33546 24.11144
#
# Velocity S-wave (km/s) = 3.31901 3.34999 3.33453
# Velocity P-wave (km/s) = 5.47632 5.52857 5.50251
#
# Compressibility (1/GPa) = 0.03013628
#
# Stress axis : x y z
#
# Youngs Moduli (GPa) = 72.50069 49.32958 59.20207
#
# Poissons Ratio (x) = 0.20955 0.12609
# Poissons Ratio (y) = 0.30798 0.23870
# Poissons Ratio (z) = 0.15442 0.19890
#
# Static dielectric constant tensor:
#      x y z
#    x 1.801400 0.000000 0.000000 
#    y 0.000000 1.852860 0.000000 
#    z 0.000000 0.000000 1.798640 
# 
# From -- ./inp_files/46378.got.cif
#   From: 2010.05.17/outbox.cif.g08.bks.cpg/sg68_24_cif.got.tgz:46378.got - 2010.06.03 18:57:09.
