data_PCOD9509768
_publ_section_title
;
Structure prediction by ZEFSAII (Michael W. Deem and Ramdas Pophale) SiO2 
 PCOD9509768
Probable space group: C C C A
;
_chemical_formula_sum "Si O2"
_cell_formula_units_Z 44
_cell_length_a 5.036643
_cell_length_b 13.720430
_cell_length_c 24.294050
_cell_angle_alpha 90.000000
_cell_angle_beta 90.000000
_cell_angle_gamma 90.000000
_cell_volume 1678.838083
_symmetry_space_group_name_H-M "C C C A"
_symmetry_group_IT_number 68
_space_group.IT_coordinate_system_code '2'
_symmetry_cell_setting 'orthorhombic'
loop_
_space_group_symop_operation_xyz
x,y,z
-x,1/2-y,z
x,1/2-y,1/2-z
-x,y,1/2-z
-x,-y,-z
x,1/2+y,-z
-x,1/2+y,1/2+z
x,-y,1/2+z
1/2+x,1/2+y,z
1/2-x,-y,z
1/2+x,-y,1/2-z
1/2-x,1/2+y,1/2-z
1/2-x,1/2-y,-z
1/2+x,y,-z
1/2-x,y,1/2+z
1/2+x,1/2-y,1/2+z
loop_
_atom_site_type_symbol
_atom_site_label
_atom_site_fract_x
_atom_site_fract_y
_atom_site_fract_z
Si Si1 0.250000 0.000000 0.622634
Si Si2 0.971436 0.135406 0.534823
Si Si3 0.000000 0.750000 0.250000
Si Si4 0.897761 0.851391 0.686890
O O1 0.082784 0.073345 0.584530
O O2 0.469588 0.059332 0.657076
O O3 0.170197 0.115267 0.483364
O O4 0.000000 0.250000 0.546848
O O5 0.903837 0.670430 0.296787
O O6 0.000000 0.750000 0.660165
O O7 0.000000 0.850573 0.750000
#
# Coordination Sequence:
#
# PCOD9509768 Si02
#       4
#     8  16   4  16
#     4  12  24  48  84 120 148 206 278 316 404 472
#     4  10  24  51  78 115 162 202 256 339 409 480
#     4   8  18  52  80  94 176 220 252 332 414 448
#     4   9  22  50  70 110 159 208 252 328 384 473
#
# _framework density 26.208600000000001
#
# number of rings (size 3 to 8) (size 9 to 14) (size 15 to 20)
#    0.000    2.545    0.000    1.091    0.000    4.364 
#   52.364    3.636    0.000    0.000    0.000    0.000 
#    0.000    0.000    0.000    0.000    0.000    0.000 
#
# Total GULP energy -122864.256352 kJ/mol
# GULP energy per Si atom -5584.738925 kJ/mol
# Density = 2.614895 g / cm^3
# Si number density = 26.208600 Si / 1000 Ang^3
#
#
#
# Elastic Constant Matrix: (Units=GPa)
#
#
# Indices 1 2 3 4 5 6 
#
# 1 87.8821 49.9605 30.3042 0.0000 0.0000 0.0000
# 2 49.9605 188.8270 93.7009 0.0000 0.0000 0.0000
# 3 30.3042 93.7009 110.1397 0.0000 0.0000 0.0000
# 4 0.0000 0.0000 0.0000 35.4255 0.0000 0.0000
# 5 0.0000 0.0000 0.0000 0.0000 27.9380 0.0000
# 6 0.0000 0.0000 0.0000 0.0000 0.0000 47.2053
#
#
#
# Elastic Compliance Matrix: (Units=1/GPa)
#
#
# Indices 1 2 3 4 5 6 
#
# 1 0.013480 -0.002987 -0.001168 0.000000 0.000000 0.000000
# 2 -0.002987 0.009827 -0.007538 0.000000 0.000000 0.000000
# 3 -0.001168 -0.007538 0.015814 0.000000 0.000000 0.000000
# 4 0.000000 0.000000 0.000000 0.028228 0.000000 0.000000
# 5 0.000000 0.000000 0.000000 0.000000 0.035794 0.000000
# 6 0.000000 0.000000 0.000000 0.000000 0.000000 0.021184
#
#
# Mechanical properties :
#
#
# Convention : Reuss Voigt Hill
#
# Bulk Modulus (GPa) = 63.55502 81.64221 72.59862
# Shear Modulus (GPa) = 32.68892 36.30598 34.49745
#
# Velocity S-wave (km/s) = 3.53549 3.72596 3.63197
# Velocity P-wave (km/s) = 6.40067 7.05187 6.73415
#
# Compressibility (1/GPa) = 0.01573440
#
# Stress axis : x y z
#
# Youngs Moduli (GPa) = 74.18588 101.76135 63.23583
#
# Poissons Ratio (x) = 0.30397 0.07383
# Poissons Ratio (y) = 0.22160 0.47669
# Poissons Ratio (z) = 0.08662 0.76711
#
# Static dielectric constant tensor:
#      x y z
#    x -1.614650 0.000000 0.000000 
#    y 0.000000 1.992030 0.000000 
#    z 0.000000 0.000000 1.986080 
# 
# From -- ./inp_files/47802.got.cif
#   From: 2010.05.17/outbox.cif.g08.bks.cpg/sg68_24_cif.got.tgz:47802.got - 2010.06.03 18:57:09.
