data_PCOD9509101
_publ_section_title
;
Structure prediction by ZEFSAII (Michael W. Deem and Ramdas Pophale) SiO2 
 PCOD9509101
Probable space group: C C C A
;
_chemical_formula_sum "Si O2"
_cell_formula_units_Z 56
_cell_length_a 14.492256
_cell_length_b 5.055525
_cell_length_c 32.006240
_cell_angle_alpha 90.000000
_cell_angle_beta 90.000000
_cell_angle_gamma 90.000000
_cell_volume 2344.967980
_symmetry_space_group_name_H-M "C C C A"
_symmetry_group_IT_number 68
_space_group.IT_coordinate_system_code '2'
_symmetry_cell_setting 'orthorhombic'
loop_
_space_group_symop_operation_xyz
x,y,z
-x,1/2-y,z
x,1/2-y,1/2-z
-x,y,1/2-z
-x,-y,-z
x,1/2+y,-z
-x,1/2+y,1/2+z
x,-y,1/2+z
1/2+x,1/2+y,z
1/2-x,-y,z
1/2+x,-y,1/2-z
1/2-x,1/2+y,1/2-z
1/2-x,1/2-y,-z
1/2+x,y,-z
1/2-x,y,1/2+z
1/2+x,1/2-y,1/2+z
loop_
_atom_site_type_symbol
_atom_site_label
_atom_site_fract_x
_atom_site_fract_y
_atom_site_fract_z
Si Si1 0.604201 0.445055 0.482973
Si Si2 0.412711 0.097791 0.660912
Si Si3 0.250000 0.000000 0.223083
Si Si4 0.141679 0.575235 0.110566
O O1 0.500000 0.500000 0.500000
O O2 0.648268 0.732540 0.486315
O O3 0.612904 0.345651 0.436011
O O4 0.500000 0.250000 0.681921
O O5 0.401370 0.293596 0.621806
O O6 0.330090 0.114622 0.693825
O O7 0.397941 0.799840 0.642233
O O8 0.284451 0.250000 0.250000
O O9 0.250000 0.500000 0.113859
#
# Coordination Sequence:
#
# PCOD9509101 Si02
#       4
#    16  16   8  16
#     4  10  23  38  60  97 141 192 255 310 392 424
#     4  12  27  47  78 117 147 203 256 302 401 482
#     4  12  26  52  84 114 162 192 244 336 398 474
#     4  12  24  45  73 104 155 199 260 326 380 467
#
# _framework density 23.880924
#
# number of rings (size 3 to 8) (size 9 to 14) (size 15 to 20)
#    0.000    0.571    2.857    4.286   12.000    1.714 
#    0.000    1.429    0.000    0.000    0.000    0.000 
#    0.000    0.000    0.000    0.000    0.000    0.000 
#
# Total GULP energy -156074.647045 kJ/mol
# GULP energy per Si atom -5574.094537 kJ/mol
# Density = 2.382657 g / cm^3
# Si number density = 23.880924 Si / 1000 Ang^3
#
#
#
# Elastic Constant Matrix: (Units=GPa)
#
#
# Indices 1 2 3 4 5 6 
#
# 1 177.3669 22.1193 23.9884 0.0000 0.0000 0.0000
# 2 22.1193 146.8497 12.2884 0.0000 0.0000 0.0000
# 3 23.9884 12.2884 76.3230 0.0000 0.0000 0.0000
# 4 0.0000 0.0000 0.0000 233.8778 0.0000 0.0000
# 5 0.0000 0.0000 0.0000 0.0000 70.0717 0.0000
# 6 0.0000 0.0000 0.0000 0.0000 0.0000 30.0306
#
#
#
# Elastic Compliance Matrix: (Units=1/GPa)
#
#
# Indices 1 2 3 4 5 6 
#
# 1 0.005969 -0.000752 -0.001755 0.000000 0.000000 0.000000
# 2 -0.000752 0.006997 -0.000890 0.000000 0.000000 0.000000
# 3 -0.001755 -0.000890 0.013797 0.000000 0.000000 0.000000
# 4 0.000000 0.000000 0.000000 0.004276 0.000000 0.000000
# 5 0.000000 0.000000 0.000000 0.000000 0.014271 0.000000
# 6 0.000000 0.000000 0.000000 0.000000 0.000000 0.033299
#
#
# Mechanical properties :
#
#
# Convention : Reuss Voigt Hill
#
# Bulk Modulus (GPa) = 50.07786 57.48130 53.77958
# Shear Modulus (GPa) = 54.31166 89.60559 71.95863
#
# Velocity S-wave (km/s) = 4.77410 6.13215 5.49524
# Velocity P-wave (km/s) = 7.16971 8.61742 7.92669
#
# Compressibility (1/GPa) = 0.01996891
#
# Stress axis : x y z
#
# Youngs Moduli (GPa) = 167.52655 142.90853 72.47878
#
# Poissons Ratio (x) = 0.10750 0.12720
# Poissons Ratio (y) = 0.12602 0.06452
# Poissons Ratio (z) = 0.29401 0.12722
#
# Static dielectric constant tensor:
#      x y z
#    x 2.910940 0.000000 0.000000 
#    y 0.000000 2.782660 0.000000 
#    z 0.000000 0.000000 1.835030 
# 
# From -- ./inp_files/55036.got.cif
#   From: 2010.05.17/outbox.cif.g08.bks.cpg/sg68_28_cif.got.tgz:55036.got - 2010.06.03 18:57:09.
