data_PCOD9509466
_publ_section_title
;
Structure prediction by ZEFSAII (Michael W. Deem and Ramdas Pophale) SiO2 
 PCOD9509466
Probable space group: C C C A
;
_chemical_formula_sum "Si O2"
_cell_formula_units_Z 36
_cell_length_a 4.674123
_cell_length_b 19.131806
_cell_length_c 16.278302
_cell_angle_alpha 90.000000
_cell_angle_beta 90.000000
_cell_angle_gamma 90.000000
_cell_volume 1455.677625
_symmetry_space_group_name_H-M "C C C A"
_symmetry_group_IT_number 68
_space_group.IT_coordinate_system_code '2'
_symmetry_cell_setting 'orthorhombic'
loop_
_space_group_symop_operation_xyz
x,y,z
-x,1/2-y,z
x,1/2-y,1/2-z
-x,y,1/2-z
-x,-y,-z
x,1/2+y,-z
-x,1/2+y,1/2+z
x,-y,1/2+z
1/2+x,1/2+y,z
1/2-x,-y,z
1/2+x,-y,1/2-z
1/2-x,1/2+y,1/2-z
1/2-x,1/2-y,-z
1/2+x,y,-z
1/2-x,y,1/2+z
1/2+x,1/2-y,1/2+z
loop_
_atom_site_type_symbol
_atom_site_label
_atom_site_fract_x
_atom_site_fract_y
_atom_site_fract_z
Si Si1 0.710744 0.110610 0.555705
Si Si2 0.500000 0.750000 0.750000
Si Si3 0.750000 0.500000 0.308777
Si Si4 0.500000 0.250000 0.635026
O O1 0.531898 0.097181 0.473130
O O2 0.643592 0.189293 0.582545
O O3 0.641000 0.060895 0.631477
O O4 0.261651 0.783452 0.689032
O O5 0.500000 0.473092 0.250000
#
# Coordination Sequence:
#
# PCOD9509466 Si02
#       4
#    16   4   8   8
#     4  12  25  46  72 104 144 187 238 297 360 426
#     4  10  24  40  64 108 148 178 226 300 356 408
#     4  12  28  46  72 104 144 192 246 292 356 428
#     4  11  24  41  74 103 147 180 244 290 369 421
#
# _framework density 24.730751999999999
#
# number of rings (size 3 to 8) (size 9 to 14) (size 15 to 20)
#    0.000    0.444    0.000    8.000    9.333    0.000 
#    0.000    0.000    0.000    0.000    0.000    0.000 
#    0.000    0.000    0.000    0.000    0.000    0.000 
#
# Total GULP energy -100668.901797 kJ/mol
# GULP energy per Si atom -5592.716766 kJ/mol
# Density = 2.467446 g / cm^3
# Si number density = 24.730752 Si / 1000 Ang^3
#
#
#
# Elastic Constant Matrix: (Units=GPa)
#
#
# Indices 1 2 3 4 5 6 
#
# 1 108.2248 1.9853 30.1063 0.0000 0.0000 0.0000
# 2 1.9853 106.3290 43.4506 0.0000 0.0000 0.0000
# 3 30.1063 43.4506 116.3293 0.0000 0.0000 0.0000
# 4 0.0000 0.0000 0.0000 -122.8292 0.0000 0.0000
# 5 0.0000 0.0000 0.0000 0.0000 192.0401 0.0000
# 6 0.0000 0.0000 0.0000 0.0000 0.0000 19.0479
#
#
#
# Elastic Compliance Matrix: (Units=1/GPa)
#
#
# Indices 1 2 3 4 5 6 
#
# 1 0.010052 0.001033 -0.002987 0.000000 0.000000 0.000000
# 2 0.001033 0.011205 -0.004453 0.000000 0.000000 0.000000
# 3 -0.002987 -0.004453 0.011033 0.000000 0.000000 0.000000
# 4 0.000000 0.000000 0.000000 -0.008141 0.000000 0.000000
# 5 0.000000 0.000000 0.000000 0.000000 0.005207 0.000000
# 6 0.000000 0.000000 0.000000 0.000000 0.000000 0.052499
#
#
# Mechanical properties :
#
#
# Convention : Reuss Voigt Hill
#
# Bulk Modulus (GPa) = 51.34558 53.55195 52.44877
# Shear Modulus (GPa) = 49.42647 34.67449 42.05048
#
# Velocity S-wave (km/s) = 4.47540 3.74850 4.12798
# Velocity P-wave (km/s) = 6.89293 6.35893 6.63131
#
# Compressibility (1/GPa) = 0.01947587
#
# Stress axis : x y z
#
# Youngs Moduli (GPa) = 99.48157 89.24592 90.64110
#
# Poissons Ratio (x) = -0.09220 0.27078
# Poissons Ratio (y) = -0.10277 0.40359
# Poissons Ratio (z) = 0.29719 0.39737
#
# Static dielectric constant tensor:
#      x y z
#    x 1.940750 0.000000 0.000000 
#    y 0.000000 1.941930 0.000000 
#    z 0.000000 0.000000 1.950980 
# 
# From -- ./inp_files/18073.got.cif
#   From: 2010.05.17/outbox.cif.g08.bks.cpg/sg68_10_cif.got.tgz:18073.got - 2010.06.03 18:57:09.
