data_PCOD9509608
_publ_section_title
;
Structure prediction by ZEFSAII (Michael W. Deem and Ramdas Pophale) SiO2 
 PCOD9509608
Probable space group: C C C A
;
_chemical_formula_sum "Si O2"
_cell_formula_units_Z 60
_cell_length_a 27.275687
_cell_length_b 9.911839
_cell_length_c 9.322724
_cell_angle_alpha 90.000000
_cell_angle_beta 90.000000
_cell_angle_gamma 90.000000
_cell_volume 2520.419113
_symmetry_space_group_name_H-M "C C C A"
_symmetry_group_IT_number 68
_space_group.IT_coordinate_system_code '2'
_symmetry_cell_setting 'orthorhombic'
loop_
_space_group_symop_operation_xyz
x,y,z
-x,1/2-y,z
x,1/2-y,1/2-z
-x,y,1/2-z
-x,-y,-z
x,1/2+y,-z
-x,1/2+y,1/2+z
x,-y,1/2+z
1/2+x,1/2+y,z
1/2-x,-y,z
1/2+x,-y,1/2-z
1/2-x,1/2+y,1/2-z
1/2-x,1/2-y,-z
1/2+x,y,-z
1/2-x,y,1/2+z
1/2+x,1/2-y,1/2+z
loop_
_atom_site_type_symbol
_atom_site_label
_atom_site_fract_x
_atom_site_fract_y
_atom_site_fract_z
Si Si1 0.053308 0.954428 0.950223
Si Si2 0.000000 0.750000 0.750000
Si Si3 0.385937 0.729314 0.591872
Si Si4 0.750000 0.500000 0.319429
Si Si5 0.793728 0.842474 0.943438
O O1 0.038255 0.850058 0.827003
O O2 0.084026 0.088842 0.914158
O O3 0.080350 0.859966 0.065985
O O4 0.000000 0.000000 0.000000
O O5 0.362567 0.750000 0.750000
O O6 0.345846 0.725485 0.465270
O O7 0.792103 0.544718 0.430919
O O8 0.777120 0.399134 0.209196
O O9 0.750000 0.750000 0.000000
#
# Coordination Sequence:
#
# PCOD9509608 Si02
#       5
#    16   4  16   8  16
#     4  12  26  49  73 108 145 190 246 308 369 437
#     4  12  24  48  76 100 152 192 242 306 376 440
#     4  12  28  46  78 107 147 194 248 303 375 442
#     4  10  24  44  72 100 156 188 242 306 366 432
#     4  11  25  46  71 107 148 193 245 303 368 440
#
# _framework density 23.805561999999998
#
# number of rings (size 3 to 8) (size 9 to 14) (size 15 to 20)
#    0.000    0.533    2.667    4.000   11.200    1.067 
#    0.000    0.000    0.000    0.000    0.000    0.000 
#    0.000    0.000    0.000    0.000    0.000    0.000 
#
# Total GULP energy -167652.436148 kJ/mol
# GULP energy per Si atom -5588.414538 kJ/mol
# Density = 2.375138 g / cm^3
# Si number density = 23.805562 Si / 1000 Ang^3
#
#
#
# Elastic Constant Matrix: (Units=GPa)
#
#
# Indices 1 2 3 4 5 6 
#
# 1 93.6796 22.9447 -11.5931 0.0000 0.0000 0.0000
# 2 22.9447 128.5783 17.3277 0.0000 0.0000 0.0000
# 3 -11.5931 17.3277 69.0574 0.0000 0.0000 0.0000
# 4 0.0000 0.0000 0.0000 54.5671 0.0000 0.0000
# 5 0.0000 0.0000 0.0000 0.0000 28.4132 0.0000
# 6 0.0000 0.0000 0.0000 0.0000 0.0000 36.5750
#
#
#
# Elastic Compliance Matrix: (Units=1/GPa)
#
#
# Indices 1 2 3 4 5 6 
#
# 1 0.011580 -0.002410 0.002549 0.000000 0.000000 0.000000
# 2 -0.002410 0.008551 -0.002550 0.000000 0.000000 0.000000
# 3 0.002549 -0.002550 0.015548 0.000000 0.000000 0.000000
# 4 0.000000 0.000000 0.000000 0.018326 0.000000 0.000000
# 5 0.000000 0.000000 0.000000 0.000000 0.035195 0.000000
# 6 0.000000 0.000000 0.000000 0.000000 0.000000 0.027341
#
#
# Mechanical properties :
#
#
# Convention : Reuss Voigt Hill
#
# Bulk Modulus (GPa) = 32.40741 38.74155 35.57448
# Shear Modulus (GPa) = 37.97933 41.42013 39.69973
#
# Velocity S-wave (km/s) = 3.99858 4.17578 4.08814
# Velocity P-wave (km/s) = 5.91279 6.28959 6.10410
#
# Compressibility (1/GPa) = 0.03085714
#
# Stress axis : x y z
#
# Youngs Moduli (GPa) = 86.35297 116.94401 64.31493
#
# Poissons Ratio (x) = 0.28183 -0.16393
# Poissons Ratio (y) = 0.20811 0.16402
# Poissons Ratio (z) = -0.22010 0.29823
#
# Static dielectric constant tensor:
#      x y z
#    x 1.909740 0.000000 0.000000 
#    y 0.000000 2.154900 0.000000 
#    z 0.000000 0.000000 1.891070 
# 
# From -- ./inp_files/9310.got.cif
#   From: 2010.05.17/outbox.cif.g08.bks.cpg/sg68_5_cif.got.tgz:9310.got - 2010.06.03 18:57:09.
