data_PCOD9509989
_publ_section_title
;
Structure prediction by ZEFSAII (Michael W. Deem and Ramdas Pophale) SiO2 
 PCOD9509989
Probable space group: C C C A
;
_chemical_formula_sum "Si O2"
_cell_formula_units_Z 88
_cell_length_a 21.824150
_cell_length_b 12.590023
_cell_length_c 14.955041
_cell_angle_alpha 90.000000
_cell_angle_beta 90.000000
_cell_angle_gamma 90.000000
_cell_volume 4109.145027
_symmetry_space_group_name_H-M "C C C A"
_symmetry_group_IT_number 68
_space_group.IT_coordinate_system_code '2'
_symmetry_cell_setting 'orthorhombic'
loop_
_space_group_symop_operation_xyz
x,y,z
-x,1/2-y,z
x,1/2-y,1/2-z
-x,y,1/2-z
-x,-y,-z
x,1/2+y,-z
-x,1/2+y,1/2+z
x,-y,1/2+z
1/2+x,1/2+y,z
1/2-x,-y,z
1/2+x,-y,1/2-z
1/2-x,1/2+y,1/2-z
1/2-x,1/2-y,-z
1/2+x,y,-z
1/2-x,y,1/2+z
1/2+x,1/2-y,1/2+z
loop_
_atom_site_type_symbol
_atom_site_label
_atom_site_fract_x
_atom_site_fract_y
_atom_site_fract_z
Si Si1 0.932678 0.015101 0.415850
Si Si2 0.250000 0.500000 0.598807
Si Si3 0.926736 0.769382 0.853389
Si Si4 0.532429 0.135081 0.100982
Si Si5 0.842821 0.154749 0.998915
Si Si6 0.333897 0.317128 0.160766
O O1 0.905547 0.108835 0.359658
O O2 0.953060 0.083102 0.503891
O O3 0.886883 0.924554 0.445290
O O4 0.986568 0.954647 0.363757
O O5 0.210312 0.581734 0.539350
O O6 0.294474 0.575990 0.655252
O O7 0.918255 0.750000 0.750000
O O8 0.884861 0.703262 0.921794
O O9 0.000000 0.750000 0.872669
O O10 0.500000 0.250000 0.093275
O O11 0.594584 0.151306 0.154434
O O12 0.822689 0.245733 0.928804
O O13 0.321853 0.250000 0.250000
#
# Coordination Sequence:
#
# PCOD9509989 Si02
#       6
#    16   8  16  16  16  16
#     4  11  20  39  72  99 146 195 226 295 373 430
#     4  12  28  50  78  98 144 200 254 298 366 434
#     4  11  24  41  66 108 148 187 238 295 364 443
#     4  11  20  40  71 106 147 183 234 294 368 435
#     4  12  24  48  73 104 145 193 247 302 364 435
#     4  12  28  48  74 110 147 194 248 309 364 439
#
# _framework density 21.415645999999999
#
# number of rings (size 3 to 8) (size 9 to 14) (size 15 to 20)
#    0.000    0.545    5.455    3.273    0.000    3.273 
#    3.273    0.000    0.000    0.000    0.000    0.000 
#    0.000    0.000    0.000    0.000    0.000    0.000 
#
# Total GULP energy -245867.657187 kJ/mol
# GULP energy per Si atom -5587.901300 kJ/mol
# Density = 2.136690 g / cm^3
# Si number density = 21.415646 Si / 1000 Ang^3
#
#
#
# Elastic Constant Matrix: (Units=GPa)
#
#
# Indices 1 2 3 4 5 6 
#
# 1 99.8599 62.3274 35.2936 0.0000 0.0000 0.0000
# 2 62.3274 133.4410 30.8745 0.0000 0.0000 0.0000
# 3 35.2936 30.8745 88.8384 0.0000 0.0000 0.0000
# 4 0.0000 0.0000 0.0000 9.0465 0.0000 0.0000
# 5 0.0000 0.0000 0.0000 0.0000 -10.4077 0.0000
# 6 0.0000 0.0000 0.0000 0.0000 0.0000 70.9682
#
#
#
# Elastic Compliance Matrix: (Units=1/GPa)
#
#
# Indices 1 2 3 4 5 6 
#
# 1 0.015287 -0.006237 -0.003906 0.000000 0.000000 0.000000
# 2 -0.006237 0.010694 -0.001239 0.000000 0.000000 0.000000
# 3 -0.003906 -0.001239 0.013239 0.000000 0.000000 0.000000
# 4 0.000000 0.000000 0.000000 0.110540 0.000000 0.000000
# 5 0.000000 0.000000 0.000000 0.000000 -0.096083 0.000000
# 6 0.000000 0.000000 0.000000 0.000000 0.000000 0.014091
#
#
# Mechanical properties :
#
#
# Convention : Reuss Voigt Hill
#
# Bulk Modulus (GPa) = 60.76447 64.34781 62.55614
# Shear Modulus (GPa) = 52.07532 26.83098 39.45315
#
# Velocity S-wave (km/s) = 4.93652 3.54343 4.29681
# Velocity P-wave (km/s) = 7.80563 6.84496 7.34103
#
# Compressibility (1/GPa) = 0.01645699
#
# Stress axis : x y z
#
# Youngs Moduli (GPa) = 65.41524 93.51473 75.53676
#
# Poissons Ratio (x) = 0.58321 0.29503
# Poissons Ratio (y) = 0.40796 0.09357
# Poissons Ratio (z) = 0.25550 0.11584
#
# Static dielectric constant tensor:
#      x y z
#    x 1.823490 0.000000 0.000000 
#    y 0.000000 1.759520 0.000000 
#    z 0.000000 0.000000 1.894910 
# 
# From -- ./inp_files/25281.got.cif
#   From: 2010.05.17/outbox.cif.g08.bks.cpg/sg68_13_cif.got.tgz:25281.got - 2010.06.03 18:57:09.
