data_PCOD9509636
_publ_section_title
;
Structure prediction by ZEFSAII (Michael W. Deem and Ramdas Pophale) SiO2 
 PCOD9509636
Probable space group: C C C A
;
_chemical_formula_sum "Si O2"
_cell_formula_units_Z 40
_cell_length_a 13.204288
_cell_length_b 12.294415
_cell_length_c 9.382467
_cell_angle_alpha 90.000000
_cell_angle_beta 90.000000
_cell_angle_gamma 90.000000
_cell_volume 1523.140277
_symmetry_space_group_name_H-M "C C C A"
_symmetry_group_IT_number 68
_space_group.IT_coordinate_system_code '2'
_symmetry_cell_setting 'orthorhombic'
loop_
_space_group_symop_operation_xyz
x,y,z
-x,1/2-y,z
x,1/2-y,1/2-z
-x,y,1/2-z
-x,-y,-z
x,1/2+y,-z
-x,1/2+y,1/2+z
x,-y,1/2+z
1/2+x,1/2+y,z
1/2-x,-y,z
1/2+x,-y,1/2-z
1/2-x,1/2+y,1/2-z
1/2-x,1/2-y,-z
1/2+x,y,-z
1/2-x,y,1/2+z
1/2+x,1/2-y,1/2+z
loop_
_atom_site_type_symbol
_atom_site_label
_atom_site_fract_x
_atom_site_fract_y
_atom_site_fract_z
Si Si1 0.500000 0.006677 0.250000
Si Si2 0.612879 0.817072 0.897430
Si Si3 0.665605 0.344312 0.641485
O O1 0.471572 0.088739 0.119949
O O2 0.596758 0.927680 0.268422
O O3 0.608541 0.750000 0.750000
O O4 0.722497 0.877085 0.913569
O O5 0.610028 0.724978 0.018351
O O6 0.691336 0.250000 0.750000
#
# Coordination Sequence:
#
# PCOD9509636 Si02
#       3
#     8  16  16
#     4  12  24  42  76 106 136 192 260 306 364 446
#     4  10  24  45  67  99 144 189 239 303 372 443
#     4  10  24  45  67  99 144 189 239 303 372 443
#
# _framework density 26.261534999999999
#
# number of rings (size 3 to 8) (size 9 to 14) (size 15 to 20)
#    0.000    1.600    0.000    2.400    0.000   12.800 
#    0.000   12.000    0.000    7.200    0.000    0.000 
#    0.000    0.000    0.000    0.000    0.000    0.000 
#
# Total GULP energy -111389.835223 kJ/mol
# GULP energy per Si atom -5569.491761 kJ/mol
# Density = 2.620176 g / cm^3
# Si number density = 26.261535 Si / 1000 Ang^3
#
#
#
# Elastic Constant Matrix: (Units=GPa)
#
#
# Indices 1 2 3 4 5 6 
#
# 1 220.4892 101.6151 25.6054 0.0000 0.0000 0.0000
# 2 101.6151 128.9413 22.5358 0.0000 0.0000 0.0000
# 3 25.6054 22.5358 90.6673 0.0000 0.0000 0.0000
# 4 0.0000 0.0000 0.0000 21.6778 0.0000 0.0000
# 5 0.0000 0.0000 0.0000 0.0000 -217.9628 0.0000
# 6 0.0000 0.0000 0.0000 0.0000 0.0000 -36.2318
#
#
#
# Elastic Compliance Matrix: (Units=1/GPa)
#
#
# Indices 1 2 3 4 5 6 
#
# 1 0.007158 -0.005528 -0.000648 0.000000 0.000000 0.000000
# 2 -0.005528 0.012377 -0.001515 0.000000 0.000000 0.000000
# 3 -0.000648 -0.001515 0.011589 0.000000 0.000000 0.000000
# 4 0.000000 0.000000 0.000000 0.046130 0.000000 0.000000
# 5 0.000000 0.000000 0.000000 0.000000 -0.004588 0.000000
# 6 0.000000 0.000000 0.000000 0.000000 0.000000 -0.027600
#
#
# Mechanical properties :
#
#
# Convention : Reuss Voigt Hill
#
# Bulk Modulus (GPa) = 63.52275 82.17894 72.85084
# Shear Modulus (GPa) = 76.10966 -27.14725 24.48120
#
# Velocity S-wave (km/s) = 5.38928 -3.21865 3.05652
# Velocity P-wave (km/s) = 7.93516 4.18897 6.34485
#
# Compressibility (1/GPa) = 0.01574239
#
# Stress axis : x y z
#
# Youngs Moduli (GPa) = 139.69939 80.79658 86.29024
#
# Poissons Ratio (x) = 0.44665 0.05588
# Poissons Ratio (y) = 0.77226 0.13074
# Poissons Ratio (z) = 0.09046 0.12242
#
# Static dielectric constant tensor:
#      x y z
#    x 2.250720 0.000000 0.000000 
#    y 0.000000 2.062180 0.000000 
#    z 0.000000 0.000000 2.074270 
# 
# From -- ./inp_files/4291.got.cif
#   From: 2010.05.17/outbox.cif.g08.bks.cpg/sg68_3_cif.got.tgz:4291.got - 2010.06.03 18:57:09.
