data_PCOD9509220
_publ_section_title
;
Structure prediction by ZEFSAII (Michael W. Deem and Ramdas Pophale) SiO2 
 PCOD9509220
Probable space group: C C C A
;
_chemical_formula_sum "Si O2"
_cell_formula_units_Z 96
_cell_length_a 12.161821
_cell_length_b 16.737762
_cell_length_c 22.922549
_cell_angle_alpha 90.000000
_cell_angle_beta 90.000000
_cell_angle_gamma 90.000000
_cell_volume 4666.152249
_symmetry_space_group_name_H-M "C C C A"
_symmetry_group_IT_number 68
_space_group.IT_coordinate_system_code '2'
_symmetry_cell_setting 'orthorhombic'
loop_
_space_group_symop_operation_xyz
x,y,z
-x,1/2-y,z
x,1/2-y,1/2-z
-x,y,1/2-z
-x,-y,-z
x,1/2+y,-z
-x,1/2+y,1/2+z
x,-y,1/2+z
1/2+x,1/2+y,z
1/2-x,-y,z
1/2+x,-y,1/2-z
1/2-x,1/2+y,1/2-z
1/2-x,1/2-y,-z
1/2+x,y,-z
1/2-x,y,1/2+z
1/2+x,1/2-y,1/2+z
loop_
_atom_site_type_symbol
_atom_site_label
_atom_site_fract_x
_atom_site_fract_y
_atom_site_fract_z
Si Si1 0.192148 0.769409 0.187865
Si Si2 0.500000 0.442891 0.750000
Si Si3 0.000000 0.750000 0.094023
Si Si4 0.460554 0.917783 0.563328
Si Si5 0.912377 0.321718 0.349254
Si Si6 0.143526 0.947783 0.949085
Si Si7 0.842402 0.946045 0.320233
O O1 0.138841 0.750000 0.250000
O O2 0.107213 0.754365 0.135523
O O3 0.302858 0.719665 0.176968
O O4 0.215699 0.863406 0.195317
O O5 0.462833 0.385173 0.697097
O O6 0.598387 0.502252 0.729632
O O7 0.989544 0.829771 0.055917
O O8 0.360873 0.922984 0.517247
O O9 0.429133 0.923631 0.630815
O O10 0.543256 0.990352 0.555747
O O11 0.878306 0.373202 0.406313
O O12 0.000000 0.250000 0.360333
O O13 0.250000 0.000000 0.933952
O O14 0.750000 0.000000 0.349051
#
# Coordination Sequence:
#
# PCOD9509220 Si02
#       7
#    16   8   8  16  16  16  16
#     4  11  24  39  65  95 138 175 220 283 339 407
#     4  12  25  44  67 100 136 182 232 279 342 414
#     4  10  23  42  64  98 134 177 232 280 344 412
#     4  10  23  44  66  97 134 174 231 284 341 418
#     4  12  25  44  68 102 140 179 231 286 347 421
#     4  11  24  44  71  97 134 177 230 287 348 411
#     4  11  23  41  65  95 131 180 222 277 342 407
#
# _framework density 20.573696000000002
#
# number of rings (size 3 to 8) (size 9 to 14) (size 15 to 20)
#    0.000    1.000    1.667    5.000    5.833    2.000 
#    3.000    4.167    0.000    0.000    0.000    0.000 
#    0.000    0.000    0.000    0.000    0.000    0.000 
#
# Total GULP energy -267812.201928 kJ/mol
# GULP energy per Si atom -5579.420873 kJ/mol
# Density = 2.052687 g / cm^3
# Si number density = 20.573696 Si / 1000 Ang^3
#
#
#
# Elastic Constant Matrix: (Units=GPa)
#
#
# Indices 1 2 3 4 5 6 
#
# 1 57.9465 19.3247 2.4426 0.0000 0.0000 0.0000
# 2 19.3247 140.8622 32.2370 0.0000 0.0000 0.0000
# 3 2.4426 32.2370 63.8280 0.0000 0.0000 0.0000
# 4 0.0000 0.0000 0.0000 34.1180 0.0000 0.0000
# 5 0.0000 0.0000 0.0000 0.0000 125.5252 0.0000
# 6 0.0000 0.0000 0.0000 0.0000 0.0000 24.4328
#
#
#
# Elastic Compliance Matrix: (Units=1/GPa)
#
#
# Indices 1 2 3 4 5 6 
#
# 1 0.018107 -0.002629 0.000635 0.000000 0.000000 0.000000
# 2 -0.002629 0.008409 -0.004146 0.000000 0.000000 0.000000
# 3 0.000635 -0.004146 0.017737 0.000000 0.000000 0.000000
# 4 0.000000 0.000000 0.000000 0.029310 0.000000 0.000000
# 5 0.000000 0.000000 0.000000 0.000000 0.007967 0.000000
# 6 0.000000 0.000000 0.000000 0.000000 0.000000 0.040929
#
#
# Mechanical properties :
#
#
# Convention : Reuss Voigt Hill
#
# Bulk Modulus (GPa) = 31.27759 41.18280 36.23020
# Shear Modulus (GPa) = 34.38862 50.72404 42.55633
#
# Velocity S-wave (km/s) = 4.09281 4.97075 4.55299
# Velocity P-wave (km/s) = 6.12948 7.28046 6.72962
#
# Compressibility (1/GPa) = 0.03197177
#
# Stress axis : x y z
#
# Youngs Moduli (GPa) = 55.22598 118.92339 56.37948
#
# Poissons Ratio (x) = 0.31271 -0.03581
# Poissons Ratio (y) = 0.14522 0.23377
# Poissons Ratio (z) = -0.03507 0.49309
#
# Static dielectric constant tensor:
#      x y z
#    x 1.738620 0.000000 0.000000 
#    y 0.000000 1.756510 0.000000 
#    z 0.000000 0.000000 1.790250 
# 
# From -- ./inp_files/44467.got.cif
#   From: 2010.05.17/outbox.cif.g08.bks.cpg/sg68_23_cif.got.tgz:44467.got - 2010.06.03 18:57:09.
