data_PCOD9509872
_publ_section_title
;
Structure prediction by ZEFSAII (Michael W. Deem and Ramdas Pophale) SiO2 
 PCOD9509872
Probable space group: C C C A
;
_chemical_formula_sum "Si O2"
_cell_formula_units_Z 60
_cell_length_a 30.417940
_cell_length_b 9.392533
_cell_length_c 9.283836
_cell_angle_alpha 90.000000
_cell_angle_beta 90.000000
_cell_angle_gamma 90.000000
_cell_volume 2652.405920
_symmetry_space_group_name_H-M "C C C A"
_symmetry_group_IT_number 68
_space_group.IT_coordinate_system_code '2'
_symmetry_cell_setting 'orthorhombic'
loop_
_space_group_symop_operation_xyz
x,y,z
-x,1/2-y,z
x,1/2-y,1/2-z
-x,y,1/2-z
-x,-y,-z
x,1/2+y,-z
-x,1/2+y,1/2+z
x,-y,1/2+z
1/2+x,1/2+y,z
1/2-x,-y,z
1/2+x,-y,1/2-z
1/2-x,1/2+y,1/2-z
1/2-x,1/2-y,-z
1/2+x,y,-z
1/2-x,y,1/2+z
1/2+x,1/2-y,1/2+z
loop_
_atom_site_type_symbol
_atom_site_label
_atom_site_fract_x
_atom_site_fract_y
_atom_site_fract_z
Si Si1 0.415556 0.250000 0.750000
Si Si2 0.126821 0.610520 0.004993
Si Si3 0.574082 0.443434 0.208921
Si Si4 0.000000 0.250000 0.750000
Si Si5 0.724519 0.148892 0.111899
O O1 0.384610 0.233598 0.610177
O O2 0.441495 0.397063 0.748748
O O3 0.097444 0.618533 0.148753
O O4 0.177153 0.608140 0.047596
O O5 0.110378 0.474755 0.911836
O O6 0.532638 0.351171 0.162135
O O7 0.718420 0.250000 0.250000
O O8 0.750000 0.000000 0.142098
O O9 0.750000 0.250000 0.000000
#
# Coordination Sequence:
#
# PCOD9509872 Si02
#       5
#     8  16  16   4  16
#     4   8  24  47  74 103 140 214 249 306 386 483
#     4  10  26  49  79 105 155 212 256 317 409 473
#     4  10  26  46  76 107 153 195 263 325 394 480
#     4  12  28  42  76 128 140 198 266 334 404 466
#     4  12  31  48  79 121 163 208 270 336 389 481
#
# _framework density 22.620972999999999
#
# number of rings (size 3 to 8) (size 9 to 14) (size 15 to 20)
#    1.600    0.000    0.000    0.800   18.667    1.600 
#    0.000    0.000    0.000    0.000    0.000    0.000 
#    0.000    0.000    0.000    0.000    0.000    0.000 
#
# Total GULP energy -167421.863648 kJ/mol
# GULP energy per Si atom -5580.728788 kJ/mol
# Density = 2.256949 g / cm^3
# Si number density = 22.620973 Si / 1000 Ang^3
#
#
#
# Elastic Constant Matrix: (Units=GPa)
#
#
# Indices 1 2 3 4 5 6 
#
# 1 160.6584 89.6320 62.2242 0.0000 0.0000 0.0000
# 2 89.6320 163.5977 52.8242 0.0000 0.0000 0.0000
# 3 62.2242 52.8242 152.5454 0.0000 0.0000 0.0000
# 4 0.0000 0.0000 0.0000 35.9757 0.0000 0.0000
# 5 0.0000 0.0000 0.0000 0.0000 4.8317 0.0000
# 6 0.0000 0.0000 0.0000 0.0000 0.0000 -48.7172
#
#
#
# Elastic Compliance Matrix: (Units=1/GPa)
#
#
# Indices 1 2 3 4 5 6 
#
# 1 0.009674 -0.004533 -0.002376 0.000000 0.000000 0.000000
# 2 -0.004533 0.009006 -0.001270 0.000000 0.000000 0.000000
# 3 -0.002376 -0.001270 0.007964 0.000000 0.000000 0.000000
# 4 0.000000 0.000000 0.000000 0.027797 0.000000 0.000000
# 5 0.000000 0.000000 0.000000 0.000000 0.206967 0.000000
# 6 0.000000 0.000000 0.000000 0.000000 0.000000 -0.020527
#
#
# Mechanical properties :
#
#
# Convention : Reuss Voigt Hill
#
# Bulk Modulus (GPa) = 97.21473 98.46246 97.83860
# Shear Modulus (GPa) = 19.18157 16.55944 17.87050
#
# Velocity S-wave (km/s) = 2.91513 2.70856 2.81374
# Velocity P-wave (km/s) = 7.37559 7.30775 7.34175
#
# Compressibility (1/GPa) = 0.01028651
#
# Stress axis : x y z
#
# Youngs Moduli (GPa) = 103.37479 111.03852 125.55852
#
# Poissons Ratio (x) = 0.50330 0.29837
# Poissons Ratio (y) = 0.46856 0.15942
# Poissons Ratio (z) = 0.24565 0.14099
#
# Static dielectric constant tensor:
#      x y z
#    x 1.780440 0.000000 0.000000 
#    y 0.000000 1.951000 0.000000 
#    z 0.000000 0.000000 1.848820 
# 
# From -- ./inp_files/8532.got.cif
#   From: 2010.05.17/outbox.cif.g08.bks.cpg/sg68_5_cif.got.tgz:8532.got - 2010.06.03 18:57:09.
