data_PCOD9509952
_publ_section_title
;
Structure prediction by ZEFSAII (Michael W. Deem and Ramdas Pophale) SiO2 
 PCOD9509952
Probable space group: C C C A
;
_chemical_formula_sum "Si O2"
_cell_formula_units_Z 108
_cell_length_a 21.477062
_cell_length_b 19.364492
_cell_length_c 12.678210
_cell_angle_alpha 90.000000
_cell_angle_beta 90.000000
_cell_angle_gamma 90.000000
_cell_volume 5272.771125
_symmetry_space_group_name_H-M "C C C A"
_symmetry_group_IT_number 68
_space_group.IT_coordinate_system_code '2'
_symmetry_cell_setting 'orthorhombic'
loop_
_space_group_symop_operation_xyz
x,y,z
-x,1/2-y,z
x,1/2-y,1/2-z
-x,y,1/2-z
-x,-y,-z
x,1/2+y,-z
-x,1/2+y,1/2+z
x,-y,1/2+z
1/2+x,1/2+y,z
1/2-x,-y,z
1/2+x,-y,1/2-z
1/2-x,1/2+y,1/2-z
1/2-x,1/2-y,-z
1/2+x,y,-z
1/2-x,y,1/2+z
1/2+x,1/2-y,1/2+z
loop_
_atom_site_type_symbol
_atom_site_label
_atom_site_fract_x
_atom_site_fract_y
_atom_site_fract_z
Si Si1 0.140197 0.423193 0.325319
Si Si2 0.356289 0.064623 0.059623
Si Si3 0.000000 0.750000 0.750000
Si Si4 0.667772 0.277965 0.588873
Si Si5 0.090694 0.647263 0.630769
Si Si6 0.279575 0.095120 0.255618
Si Si7 0.250000 0.500000 0.075249
Si Si8 0.699101 0.735202 0.858314
O O1 0.122679 0.488574 0.397838
O O2 0.133989 0.348165 0.379767
O O3 0.103008 0.412553 0.216757
O O4 0.214031 0.427215 0.296868
O O5 0.400944 0.109927 0.983587
O O6 0.293084 0.049787 0.993140
O O7 0.332078 0.101233 0.166426
O O8 0.033844 0.695419 0.670145
O O9 0.643361 0.207279 0.638865
O O10 0.661363 0.268364 0.464174
O O11 0.741034 0.283488 0.617932
O O12 0.271594 0.162115 0.327196
O O13 0.295978 0.039977 0.346044
O O14 0.663760 0.750000 0.750000
#
# Coordination Sequence:
#
# PCOD9509952 Si02
#       8
#    16  16   4  16  16  16   8  16
#     4  12  20  36  58  92 133 171 211 258 320 400
#     4  12  23  35  59  97 141 181 210 252 332 405
#     4  12  28  52  76  88 110 164 250 312 344 354
#     4  11  21  34  57  85 124 171 221 259 313 381
#     4  12  24  45  68  91 124 171 228 292 331 386
#     4  12  20  31  49  88 144 182 205 234 311 411
#     4  12  18  32  50  86 144 190 200 230 296 414
#     4  11  20  29  48  83 126 167 209 247 298 394
#
# _framework density 20.482589999999998
#
# number of rings (size 3 to 8) (size 9 to 14) (size 15 to 20)
#    0.000    0.296    8.889    1.778    2.074    0.000 
#    0.000    0.741    0.000    0.000    0.000    3.630 
#    0.000    0.000    0.000    0.000    0.000    0.000 
#
# Total GULP energy -300831.085282 kJ/mol
# GULP energy per Si atom -5570.946024 kJ/mol
# Density = 2.043597 g / cm^3
# Si number density = 20.482590 Si / 1000 Ang^3
#
#
#
# Elastic Constant Matrix: (Units=GPa)
#
#
# Indices 1 2 3 4 5 6 
#
# 1 27.6126 17.7894 21.1315 0.0000 0.0000 0.0000
# 2 17.7894 118.7879 40.5263 0.0000 0.0000 0.0000
# 3 21.1315 40.5263 104.7857 0.0000 0.0000 0.0000
# 4 0.0000 0.0000 0.0000 48.2555 0.0000 0.0000
# 5 0.0000 0.0000 0.0000 0.0000 12.4661 0.0000
# 6 0.0000 0.0000 0.0000 0.0000 0.0000 17.1105
#
#
#
# Elastic Compliance Matrix: (Units=1/GPa)
#
#
# Indices 1 2 3 4 5 6 
#
# 1 0.044535 -0.004153 -0.007375 0.000000 0.000000 0.000000
# 2 -0.004153 0.010085 -0.003063 0.000000 0.000000 0.000000
# 3 -0.007375 -0.003063 0.012215 0.000000 0.000000 0.000000
# 4 0.000000 0.000000 0.000000 0.020723 0.000000 0.000000
# 5 0.000000 0.000000 0.000000 0.000000 0.080217 0.000000
# 6 0.000000 0.000000 0.000000 0.000000 0.000000 0.058444
#
#
# Mechanical properties :
#
#
# Convention : Reuss Voigt Hill
#
# Bulk Modulus (GPa) = 26.55820 45.56452 36.06136
# Shear Modulus (GPa) = 18.66000 27.01569 22.83784
#
# Velocity S-wave (km/s) = 3.02158 3.63569 3.34277
# Velocity P-wave (km/s) = 5.01674 6.31808 5.70464
#
# Compressibility (1/GPa) = 0.03765315
#
# Stress axis : x y z
#
# Youngs Moduli (GPa) = 22.45428 99.15373 81.86578
#
# Poissons Ratio (x) = 0.41183 0.60374
# Poissons Ratio (y) = 0.09326 0.25075
# Poissons Ratio (z) = 0.16559 0.30370
#
# Static dielectric constant tensor:
#      x y z
#    x 1.719660 0.000000 0.000000 
#    y 0.000000 1.853930 0.000000 
#    z 0.000000 0.000000 1.772880 
# 
# From -- ./inp_files/17308.got.cif
#   From: 2010.05.17/outbox.cif.g08.bks.cpg/sg68_9_cif.got.tgz:17308.got - 2010.06.03 18:57:09.
