data_PCOD9509847
_publ_section_title
;
Structure prediction by ZEFSAII (Michael W. Deem and Ramdas Pophale) SiO2 
 PCOD9509847
Probable space group: C C C A
;
_chemical_formula_sum "Si O2"
_cell_formula_units_Z 40
_cell_length_a 16.080473
_cell_length_b 9.670757
_cell_length_c 10.043789
_cell_angle_alpha 90.000000
_cell_angle_beta 90.000000
_cell_angle_gamma 90.000000
_cell_volume 1561.913111
_symmetry_space_group_name_H-M "C C C A"
_symmetry_group_IT_number 68
_space_group.IT_coordinate_system_code '2'
_symmetry_cell_setting 'orthorhombic'
loop_
_space_group_symop_operation_xyz
x,y,z
-x,1/2-y,z
x,1/2-y,1/2-z
-x,y,1/2-z
-x,-y,-z
x,1/2+y,-z
-x,1/2+y,1/2+z
x,-y,1/2+z
1/2+x,1/2+y,z
1/2-x,-y,z
1/2+x,-y,1/2-z
1/2-x,1/2+y,1/2-z
1/2-x,1/2-y,-z
1/2+x,y,-z
1/2-x,y,1/2+z
1/2+x,1/2-y,1/2+z
loop_
_atom_site_type_symbol
_atom_site_label
_atom_site_fract_x
_atom_site_fract_y
_atom_site_fract_z
Si Si1 0.275703 0.250000 0.250000
Si Si2 0.078210 0.354834 0.910727
Si Si3 0.887024 0.598602 0.792168
O O1 0.337625 0.229676 0.125596
O O2 0.211626 0.374152 0.224204
O O3 0.082196 0.477861 0.803325
O O4 0.000000 0.250000 0.903315
O O5 0.086968 0.420947 0.055840
O O6 0.918269 0.750000 0.750000
#
# Coordination Sequence:
#
# PCOD9509847 Si02
#       3
#     8  16  16
#     4  10  25  52  85 126 166 224 278 342 411 520
#     4  12  27  54  86 130 171 218 281 355 421 489
#     4  10  28  52  87 123 172 220 285 332 425 504
#
# _framework density 25.609615999999999
#
# number of rings (size 3 to 8) (size 9 to 14) (size 15 to 20)
#    1.200    0.000    0.000    3.000    5.600    5.600 
#    7.200    2.000    0.000    0.000    0.000    0.000 
#    0.000    0.000    0.000    0.000    0.000    0.000 
#
# Total GULP energy -112008.552240 kJ/mol
# GULP energy per Si atom -5600.427612 kJ/mol
# Density = 2.555133 g / cm^3
# Si number density = 25.609616 Si / 1000 Ang^3
#
#
#
# Elastic Constant Matrix: (Units=GPa)
#
#
# Indices 1 2 3 4 5 6 
#
# 1 257.0626 101.2320 86.9663 0.0000 0.0000 0.0000
# 2 101.2320 203.7264 110.2258 0.0000 0.0000 0.0000
# 3 86.9663 110.2258 254.3207 0.0000 0.0000 0.0000
# 4 0.0000 0.0000 0.0000 63.6841 0.0000 0.0000
# 5 0.0000 0.0000 0.0000 0.0000 38.2254 0.0000
# 6 0.0000 0.0000 0.0000 0.0000 0.0000 49.6924
#
#
#
# Elastic Compliance Matrix: (Units=1/GPa)
#
#
# Indices 1 2 3 4 5 6 
#
# 1 0.004964 -0.002023 -0.000821 0.000000 0.000000 0.000000
# 2 -0.002023 0.007236 -0.002445 0.000000 0.000000 0.000000
# 3 -0.000821 -0.002445 0.005272 0.000000 0.000000 0.000000
# 4 0.000000 0.000000 0.000000 0.015703 0.000000 0.000000
# 5 0.000000 0.000000 0.000000 0.000000 0.026161 0.000000
# 6 0.000000 0.000000 0.000000 0.000000 0.000000 0.020124
#
#
# Mechanical properties :
#
#
# Convention : Reuss Voigt Hill
#
# Bulk Modulus (GPa) = 145.00133 145.77309 145.38721
# Shear Modulus (GPa) = 54.15058 58.09941 56.12499
#
# Velocity S-wave (km/s) = 4.60332 4.76821 4.68649
# Velocity P-wave (km/s) = 9.21937 9.34662 9.28321
#
# Compressibility (1/GPa) = 0.00689649
#
# Stress axis : x y z
#
# Youngs Moduli (GPa) = 201.43612 138.19302 189.67007
#
# Poissons Ratio (x) = 0.27951 0.15571
# Poissons Ratio (y) = 0.40743 0.46368
# Poissons Ratio (z) = 0.16537 0.33783
#
# Static dielectric constant tensor:
#      x y z
#    x 2.098170 0.000000 0.000000 
#    y 0.000000 2.044050 0.000000 
#    z 0.000000 0.000000 1.951500 
# 
# From -- ./inp_files/13720.got.cif
#   From: 2010.05.17/outbox.cif.g08.bks.cpg/sg68_7_cif.got.tgz:13720.got - 2010.06.03 18:57:09.
