data_PCOD9509135
_publ_section_title
;
Structure prediction by ZEFSAII (Michael W. Deem and Ramdas Pophale) SiO2 
 PCOD9509135
Probable space group: C C C A
;
_chemical_formula_sum "Si O2"
_cell_formula_units_Z 96
_cell_length_a 16.764038
_cell_length_b 11.757127
_cell_length_c 20.860896
_cell_angle_alpha 90.000000
_cell_angle_beta 90.000000
_cell_angle_gamma 90.000000
_cell_volume 4111.618429
_symmetry_space_group_name_H-M "C C C A"
_symmetry_group_IT_number 68
_space_group.IT_coordinate_system_code '2'
_symmetry_cell_setting 'orthorhombic'
loop_
_space_group_symop_operation_xyz
x,y,z
-x,1/2-y,z
x,1/2-y,1/2-z
-x,y,1/2-z
-x,-y,-z
x,1/2+y,-z
-x,1/2+y,1/2+z
x,-y,1/2+z
1/2+x,1/2+y,z
1/2-x,-y,z
1/2+x,-y,1/2-z
1/2-x,1/2+y,1/2-z
1/2-x,1/2-y,-z
1/2+x,y,-z
1/2-x,y,1/2+z
1/2+x,1/2-y,1/2+z
loop_
_atom_site_type_symbol
_atom_site_label
_atom_site_fract_x
_atom_site_fract_y
_atom_site_fract_z
Si Si1 0.796645 0.887547 0.577803
Si Si2 0.057023 0.044165 0.093082
Si Si3 0.158236 0.502033 0.308914
Si Si4 0.087457 0.981241 0.323600
Si Si5 0.683590 0.256824 0.323264
Si Si6 0.058002 0.165056 0.500169
O O1 0.740349 0.806269 0.620832
O O2 0.854061 0.815865 0.529780
O O3 0.750000 0.000000 0.549173
O O4 0.855549 0.951057 0.627639
O O5 0.135957 0.078206 0.131531
O O6 0.999737 0.996046 0.148608
O O7 0.071771 0.948479 0.040659
O O8 0.005521 0.136284 0.056152
O O9 0.250000 0.500000 0.288700
O O10 0.106524 0.473744 0.246939
O O11 0.150166 0.631243 0.334897
O O12 0.113941 0.850275 0.320214
O O13 0.719022 0.250000 0.250000
O O14 0.000000 0.250000 0.539904
#
# Coordination Sequence:
#
# PCOD9509135 Si02
#       6
#    16  16  16  16  16  16
#     4   9  18  37  62  84 115 158 200 244 303 360
#     4  10  23  40  59  83 116 152 199 241 294 349
#     4  11  22  34  57  91 123 146 183 246 300 358
#     4   9  18  37  61  84 113 150 191 240 301 357
#     4   9  18  32  56  88 114 150 187 235 296 359
#     4  10  23  41  62  81 114 163 206 249 286 351
#
# _framework density 23.348469999999999
#
# number of rings (size 3 to 8) (size 9 to 14) (size 15 to 20)
#    0.000    2.333    0.000    3.000    4.667    0.667 
#    0.000    3.333    0.000    0.000    0.000    0.000 
#    0.000    0.000    0.000    0.000    0.000    0.000 
#
# Total GULP energy -267579.060247 kJ/mol
# GULP energy per Si atom -5574.563755 kJ/mol
# Density = 2.329533 g / cm^3
# Si number density = 23.348470 Si / 1000 Ang^3
#
#
#
# Elastic Constant Matrix: (Units=GPa)
#
#
# Indices 1 2 3 4 5 6 
#
# 1 45.4259 -8.5771 23.2149 0.0000 0.0000 0.0000
# 2 -8.5771 36.0387 -0.6944 0.0000 0.0000 0.0000
# 3 23.2149 -0.6944 51.2834 0.0000 0.0000 0.0000
# 4 0.0000 0.0000 0.0000 10.2982 0.0000 0.0000
# 5 0.0000 0.0000 0.0000 0.0000 -17.4143 0.0000
# 6 0.0000 0.0000 0.0000 0.0000 0.0000 19.7630
#
#
#
# Elastic Compliance Matrix: (Units=1/GPa)
#
#
# Indices 1 2 3 4 5 6 
#
# 1 0.030283 0.006945 -0.013614 0.000000 0.000000 0.000000
# 2 0.006945 0.029348 -0.002746 0.000000 0.000000 0.000000
# 3 -0.013614 -0.002746 0.025625 0.000000 0.000000 0.000000
# 4 0.000000 0.000000 0.000000 0.097104 0.000000 0.000000
# 5 0.000000 0.000000 0.000000 0.000000 -0.057424 0.000000
# 6 0.000000 0.000000 0.000000 0.000000 0.000000 0.050600
#
#
# Mechanical properties :
#
#
# Convention : Reuss Voigt Hill
#
# Bulk Modulus (GPa) = 15.05476 17.84830 16.45153
# Shear Modulus (GPa) = 23.09379 10.44970 16.77175
#
# Velocity S-wave (km/s) = 3.14840 2.11784 2.68306
# Velocity P-wave (km/s) = 4.43603 3.69341 4.08164
#
# Compressibility (1/GPa) = 0.06642417
#
# Stress axis : x y z
#
# Youngs Moduli (GPa) = 33.02209 34.07403 39.02408
#
# Poissons Ratio (x) = -0.23664 0.53129
# Poissons Ratio (y) = -0.22933 0.10717
# Poissons Ratio (z) = 0.44957 0.09358
#
# Static dielectric constant tensor:
#      x y z
#    x 1.935350 0.000000 0.000000 
#    y 0.000000 2.097950 0.000000 
#    z 0.000000 0.000000 1.906350 
# 
# From -- ./inp_files/45995.got.cif
#   From: 2010.05.17/outbox.cif.g08.bks.cpg/sg68_23_cif.got.tgz:45995.got - 2010.06.03 18:57:09.
