data_PCOD9509234
_publ_section_title
;
Structure prediction by ZEFSAII (Michael W. Deem and Ramdas Pophale) SiO2 
 PCOD9509234
Probable space group: C C C A
;
_chemical_formula_sum "Si O2"
_cell_formula_units_Z 96
_cell_length_a 13.073801
_cell_length_b 15.304879
_cell_length_c 21.595181
_cell_angle_alpha 90.000000
_cell_angle_beta 90.000000
_cell_angle_gamma 90.000000
_cell_volume 4321.043307
_symmetry_space_group_name_H-M "C C C A"
_symmetry_group_IT_number 68
_space_group.IT_coordinate_system_code '2'
_symmetry_cell_setting 'orthorhombic'
loop_
_space_group_symop_operation_xyz
x,y,z
-x,1/2-y,z
x,1/2-y,1/2-z
-x,y,1/2-z
-x,-y,-z
x,1/2+y,-z
-x,1/2+y,1/2+z
x,-y,1/2+z
1/2+x,1/2+y,z
1/2-x,-y,z
1/2+x,-y,1/2-z
1/2-x,1/2+y,1/2-z
1/2-x,1/2-y,-z
1/2+x,y,-z
1/2-x,y,1/2+z
1/2+x,1/2-y,1/2+z
loop_
_atom_site_type_symbol
_atom_site_label
_atom_site_fract_x
_atom_site_fract_y
_atom_site_fract_z
Si Si1 0.999934 0.994403 0.120220
Si Si2 0.700907 0.094558 0.075884
Si Si3 0.139336 0.637838 0.682508
Si Si4 0.300967 0.326215 0.813560
Si Si5 0.672043 0.419880 0.556544
Si Si6 0.435926 0.670253 0.813539
O O1 0.949416 0.072396 0.160505
O O2 0.059005 0.038687 0.063246
O O3 0.910289 0.928968 0.100296
O O4 0.071085 0.925963 0.156345
O O5 0.771169 0.131737 0.130350
O O6 0.750000 0.000000 0.064537
O O7 0.691196 0.133656 0.006857
O O8 0.173309 0.616045 0.752854
O O9 0.125187 0.741821 0.685591
O O10 0.313568 0.368753 0.880009
O O11 0.181460 0.300672 0.806518
O O12 0.750000 0.500000 0.559064
O O13 0.500000 0.750000 0.845548
O O14 0.500000 0.657907 0.750000
#
# Coordination Sequence:
#
# PCOD9509234 Si02
#       6
#    16  16  16  16  16  16
#     4  11  22  39  66  92 126 174 221 262 334 394
#     4   9  20  40  64  92 127 171 218 268 325 389
#     4  10  23  42  66  94 131 173 212 268 333 398
#     4  11  23  42  64  96 136 165 215 275 328 389
#     4  11  23  39  62  95 131 170 219 274 318 386
#     4  11  22  38  63  96 128 165 222 277 323 389
#
# _framework density 22.216856
#
# number of rings (size 3 to 8) (size 9 to 14) (size 15 to 20)
#    0.000    1.500    1.667    4.500    2.333    3.333 
#    0.000    1.667    3.667    0.000    0.000    0.000 
#    0.000    0.000    0.000    0.000    0.000    0.000 
#
# Total GULP energy -267530.608244 kJ/mol
# GULP energy per Si atom -5573.554338 kJ/mol
# Density = 2.216629 g / cm^3
# Si number density = 22.216856 Si / 1000 Ang^3
#
#
#
# Elastic Constant Matrix: (Units=GPa)
#
#
# Indices 1 2 3 4 5 6 
#
# 1 86.5103 24.2561 13.7595 0.0000 0.0000 0.0000
# 2 24.2561 73.5560 50.1332 0.0000 0.0000 0.0000
# 3 13.7595 50.1332 156.3361 0.0000 0.0000 0.0000
# 4 0.0000 0.0000 0.0000 43.8890 0.0000 0.0000
# 5 0.0000 0.0000 0.0000 0.0000 -27.6891 0.0000
# 6 0.0000 0.0000 0.0000 0.0000 0.0000 28.1866
#
#
#
# Elastic Compliance Matrix: (Units=1/GPa)
#
#
# Indices 1 2 3 4 5 6 
#
# 1 0.012747 -0.004401 0.000289 0.000000 0.000000 0.000000
# 2 -0.004401 0.018917 -0.005679 0.000000 0.000000 0.000000
# 3 0.000289 -0.005679 0.008192 0.000000 0.000000 0.000000
# 4 0.000000 0.000000 0.000000 0.022785 0.000000 0.000000
# 5 0.000000 0.000000 0.000000 0.000000 -0.036115 0.000000
# 6 0.000000 0.000000 0.000000 0.000000 0.000000 0.035478
#
#
# Mechanical properties :
#
#
# Convention : Reuss Voigt Hill
#
# Bulk Modulus (GPa) = 49.32056 54.74441 52.03248
# Shear Modulus (GPa) = 56.59795 24.09421 40.34608
#
# Velocity S-wave (km/s) = 5.05277 3.29675 4.26609
# Velocity P-wave (km/s) = 7.50257 6.25986 6.90921
#
# Compressibility (1/GPa) = 0.02027552
#
# Stress axis : x y z
#
# Youngs Moduli (GPa) = 78.44863 52.86309 122.06915
#
# Poissons Ratio (x) = 0.23264 -0.03532
# Poissons Ratio (y) = 0.34523 0.69321
# Poissons Ratio (z) = -0.02270 0.30020
#
# Static dielectric constant tensor:
#      x y z
#    x 1.698780 0.000000 0.000000 
#    y 0.000000 1.839290 0.000000 
#    z 0.000000 0.000000 1.926270 
# 
# From -- ./inp_files/38556.got.cif
#   From: 2010.05.17/outbox.cif.g08.bks.cpg/sg68_20_cif.got.tgz:38556.got - 2010.06.03 18:57:09.
