data_PCOD9509929
_publ_section_title
;
Structure prediction by ZEFSAII (Michael W. Deem and Ramdas Pophale) SiO2 
 PCOD9509929
Probable space group: C C C A
;
_chemical_formula_sum "Si O2"
_cell_formula_units_Z 96
_cell_length_a 8.692475
_cell_length_b 25.389346
_cell_length_c 21.854475
_cell_angle_alpha 90.000000
_cell_angle_beta 90.000000
_cell_angle_gamma 90.000000
_cell_volume 4823.200796
_symmetry_space_group_name_H-M "C C C A"
_symmetry_group_IT_number 68
_space_group.IT_coordinate_system_code '2'
_symmetry_cell_setting 'orthorhombic'
loop_
_space_group_symop_operation_xyz
x,y,z
-x,1/2-y,z
x,1/2-y,1/2-z
-x,y,1/2-z
-x,-y,-z
x,1/2+y,-z
-x,1/2+y,1/2+z
x,-y,1/2+z
1/2+x,1/2+y,z
1/2-x,-y,z
1/2+x,-y,1/2-z
1/2-x,1/2+y,1/2-z
1/2-x,1/2-y,-z
1/2+x,y,-z
1/2-x,y,1/2+z
1/2+x,1/2-y,1/2+z
loop_
_atom_site_type_symbol
_atom_site_label
_atom_site_fract_x
_atom_site_fract_y
_atom_site_fract_z
Si Si1 0.770352 0.877912 0.512203
Si Si2 0.849611 0.955079 0.606965
Si Si3 0.143835 0.550392 0.295198
Si Si4 0.090257 0.469272 0.936242
Si Si5 0.028958 0.811675 0.568826
Si Si6 0.069676 0.376647 0.315360
O O1 0.732068 0.919945 0.566075
O O2 0.879095 0.912511 0.467175
O O3 0.647797 0.844694 0.473865
O O4 0.867833 0.836720 0.550412
O O5 0.959261 0.920293 0.650380
O O6 0.750000 0.000000 0.639173
O O7 0.958151 0.985731 0.557793
O O8 0.250000 0.500000 0.278653
O O9 0.081685 0.540491 0.363237
O O10 0.264188 0.598187 0.302116
O O11 0.000000 0.557642 0.250000
O O12 0.250000 0.500000 0.947103
O O13 0.073814 0.828330 0.637527
O O14 0.000000 0.750000 0.560374
O O15 0.000000 0.362900 0.250000
#
# Coordination Sequence:
#
# PCOD9509929 Si02
#       6
#    16  16  16  16  16  16
#     4  11  21  40  62  90 122 158 205 253 308 376
#     4  11  22  34  58  93 129 168 198 238 296 374
#     4  11  22  36  59  86 130 171 205 244 291 367
#     4  11  19  35  56  88 130 170 194 241 298 368
#     4  11  24  44  66  88 114 157 209 276 324 361
#     4  11  24  41  59  89 125 162 212 251 308 372
#
# _framework density 19.903794999999999
#
# number of rings (size 3 to 8) (size 9 to 14) (size 15 to 20)
#    0.000    1.000    5.000    4.000    2.333    0.333 
#    0.000    0.000    0.000    0.000    0.000    1.167 
#    0.000    0.000    0.000    0.000    0.000    0.000 
#
# Total GULP energy -267768.175372 kJ/mol
# GULP energy per Si atom -5578.503654 kJ/mol
# Density = 1.985849 g / cm^3
# Si number density = 19.903795 Si / 1000 Ang^3
#
#
#
# Elastic Constant Matrix: (Units=GPa)
#
#
# Indices 1 2 3 4 5 6 
#
# 1 75.1085 35.4297 24.2407 0.0000 0.0000 0.0000
# 2 35.4297 116.9303 42.7147 0.0000 0.0000 0.0000
# 3 24.2407 42.7147 92.9961 0.0000 0.0000 0.0000
# 4 0.0000 0.0000 0.0000 4.5036 0.0000 0.0000
# 5 0.0000 0.0000 0.0000 0.0000 42.9896 0.0000
# 6 0.0000 0.0000 0.0000 0.0000 0.0000 21.9888
#
#
#
# Elastic Compliance Matrix: (Units=1/GPa)
#
#
# Indices 1 2 3 4 5 6 
#
# 1 0.015943 -0.003980 -0.002327 0.000000 0.000000 0.000000
# 2 -0.003980 0.011270 -0.004139 0.000000 0.000000 0.000000
# 3 -0.002327 -0.004139 0.013261 0.000000 0.000000 0.000000
# 4 0.000000 0.000000 0.000000 0.222044 0.000000 0.000000
# 5 0.000000 0.000000 0.000000 0.000000 0.023261 0.000000
# 6 0.000000 0.000000 0.000000 0.000000 0.000000 0.045478
#
#
# Mechanical properties :
#
#
# Convention : Reuss Voigt Hill
#
# Bulk Modulus (GPa) = 51.07211 54.42278 52.74744
# Shear Modulus (GPa) = 13.94010 26.07304 20.00657
#
# Velocity S-wave (km/s) = 2.64933 3.62325 3.17387
# Velocity P-wave (km/s) = 5.92231 6.70121 6.32377
#
# Compressibility (1/GPa) = 0.01958016
#
# Stress axis : x y z
#
# Youngs Moduli (GPa) = 62.72398 88.72982 75.40942
#
# Poissons Ratio (x) = 0.35319 0.17551
# Poissons Ratio (y) = 0.24967 0.31212
# Poissons Ratio (z) = 0.14599 0.36725
#
# Static dielectric constant tensor:
#      x y z
#    x 1.761460 0.000000 0.000000 
#    y 0.000000 1.776850 0.000000 
#    z 0.000000 0.000000 1.760010 
# 
# From -- ./inp_files/36463.got.cif
#   From: 2010.05.17/outbox.cif.g08.bks.cpg/sg68_19_cif.got.tgz:36463.got - 2010.06.03 18:57:09.
