data_PCOD9509063
_publ_section_title
;
Structure prediction by ZEFSAII (Michael W. Deem and Ramdas Pophale) SiO2 
 PCOD9509063
Probable space group: C C C A
;
_chemical_formula_sum "Si O2"
_cell_formula_units_Z 56
_cell_length_a 18.680195
_cell_length_b 8.378073
_cell_length_c 14.319447
_cell_angle_alpha 90.000000
_cell_angle_beta 90.000000
_cell_angle_gamma 90.000000
_cell_volume 2241.051268
_symmetry_space_group_name_H-M "C C C A"
_symmetry_group_IT_number 68
_space_group.IT_coordinate_system_code '2'
_symmetry_cell_setting 'orthorhombic'
loop_
_space_group_symop_operation_xyz
x,y,z
-x,1/2-y,z
x,1/2-y,1/2-z
-x,y,1/2-z
-x,-y,-z
x,1/2+y,-z
-x,1/2+y,1/2+z
x,-y,1/2+z
1/2+x,1/2+y,z
1/2-x,-y,z
1/2+x,-y,1/2-z
1/2-x,1/2+y,1/2-z
1/2-x,1/2-y,-z
1/2+x,y,-z
1/2-x,y,1/2+z
1/2+x,1/2-y,1/2+z
loop_
_atom_site_type_symbol
_atom_site_label
_atom_site_fract_x
_atom_site_fract_y
_atom_site_fract_z
Si Si1 0.500000 0.536247 0.250000
Si Si2 0.879946 0.422564 0.868757
Si Si3 0.817960 0.635534 0.029459
Si Si4 0.844395 0.910377 0.800817
O O1 0.459890 0.442734 0.168208
O O2 0.568713 0.615236 0.198025
O O3 0.868916 0.257918 0.918511
O O4 0.834407 0.447892 0.774403
O O5 0.852498 0.563213 0.936281
O O6 0.818291 0.482901 0.101558
O O7 0.750000 0.750000 0.000000
O O8 0.815752 0.750000 0.750000
#
# Coordination Sequence:
#
# PCOD9509063 Si02
#       4
#     8  16  16  16
#     4   8  23  45  82 114 152 200 270 330 444 456
#     4  10  24  46  75 113 156 203 265 341 405 483
#     4  12  25  46  76 117 162 217 276 322 406 497
#     4  10  22  46  78 116 159 204 264 342 417 479
#
# _framework density 24.988271999999998
#
# number of rings (size 3 to 8) (size 9 to 14) (size 15 to 20)
#    1.714    0.000    0.000    3.857    0.000    3.429 
#    0.000   17.143    0.000    0.000    0.000    0.000 
#    0.000    0.000    0.000    0.000    0.000    0.000 
#
# Total GULP energy -155924.523835 kJ/mol
# GULP energy per Si atom -5568.732994 kJ/mol
# Density = 2.493140 g / cm^3
# Si number density = 24.988272 Si / 1000 Ang^3
#
#
#
# Elastic Constant Matrix: (Units=GPa)
#
#
# Indices 1 2 3 4 5 6 
#
# 1 156.7106 65.5745 52.1170 0.0000 0.0000 0.0000
# 2 65.5745 153.5521 68.6804 0.0000 0.0000 0.0000
# 3 52.1170 68.6804 185.6987 0.0000 0.0000 0.0000
# 4 0.0000 0.0000 0.0000 46.4938 0.0000 0.0000
# 5 0.0000 0.0000 0.0000 0.0000 67.4811 0.0000
# 6 0.0000 0.0000 0.0000 0.0000 0.0000 33.9635
#
#
#
# Elastic Compliance Matrix: (Units=1/GPa)
#
#
# Indices 1 2 3 4 5 6 
#
# 1 0.007977 -0.002882 -0.001173 0.000000 0.000000 0.000000
# 2 -0.002882 0.008845 -0.002462 0.000000 0.000000 0.000000
# 3 -0.001173 -0.002462 0.006625 0.000000 0.000000 0.000000
# 4 0.000000 0.000000 0.000000 0.021508 0.000000 0.000000
# 5 0.000000 0.000000 0.000000 0.000000 0.014819 0.000000
# 6 0.000000 0.000000 0.000000 0.000000 0.000000 0.029443
#
#
# Mechanical properties :
#
#
# Convention : Reuss Voigt Hill
#
# Bulk Modulus (GPa) = 96.04127 96.52283 96.28205
# Shear Modulus (GPa) = 47.29359 50.22698 48.76029
#
# Velocity S-wave (km/s) = 4.35516 4.48819 4.42217
# Velocity P-wave (km/s) = 7.98798 8.09751 8.04293
#
# Compressibility (1/GPa) = 0.01041219
#
# Stress axis : x y z
#
# Youngs Moduli (GPa) = 125.35655 113.06381 150.94516
#
# Poissons Ratio (x) = 0.32586 0.17705
# Poissons Ratio (y) = 0.36129 0.37167
# Poissons Ratio (z) = 0.14703 0.27840
#
# Static dielectric constant tensor:
#      x y z
#    x 0.610710 0.000000 0.000000 
#    y 0.000000 2.045660 0.000000 
#    z 0.000000 0.000000 1.870920 
# 
# From -- ./inp_files/24133.got.cif
#   From: 2010.05.17/outbox.cif.g08.bks.cpg/sg68_13_cif.got.tgz:24133.got - 2010.06.03 18:57:09.
