data_PCOD9509284
_publ_section_title
;
Structure prediction by ZEFSAII (Michael W. Deem and Ramdas Pophale) SiO2 
 PCOD9509284
Probable space group: C C C A
;
_chemical_formula_sum "Si O2"
_cell_formula_units_Z 116
_cell_length_a 29.442950
_cell_length_b 15.764393
_cell_length_c 10.770970
_cell_angle_alpha 90.000000
_cell_angle_beta 90.000000
_cell_angle_gamma 90.000000
_cell_volume 4999.348255
_symmetry_space_group_name_H-M "C C C A"
_symmetry_group_IT_number 68
_space_group.IT_coordinate_system_code '2'
_symmetry_cell_setting 'orthorhombic'
loop_
_space_group_symop_operation_xyz
x,y,z
-x,1/2-y,z
x,1/2-y,1/2-z
-x,y,1/2-z
-x,-y,-z
x,1/2+y,-z
-x,1/2+y,1/2+z
x,-y,1/2+z
1/2+x,1/2+y,z
1/2-x,-y,z
1/2+x,-y,1/2-z
1/2-x,1/2+y,1/2-z
1/2-x,1/2-y,-z
1/2+x,y,-z
1/2-x,y,1/2+z
1/2+x,1/2-y,1/2+z
loop_
_atom_site_type_symbol
_atom_site_label
_atom_site_fract_x
_atom_site_fract_y
_atom_site_fract_z
Si Si1 0.547176 0.405777 0.607246
Si Si2 0.817540 0.426075 0.597411
Si Si3 0.603887 0.209730 0.387866
Si Si4 0.516993 0.097289 0.376824
Si Si5 0.370490 0.688638 0.366214
Si Si6 0.725115 0.835788 0.464038
Si Si7 0.000000 0.750000 0.750000
Si Si8 0.302120 0.471978 0.140191
O O1 0.525242 0.402570 0.470634
O O2 0.532057 0.499873 0.648558
O O3 0.600355 0.397155 0.635181
O O4 0.527987 0.319006 0.669599
O O5 0.851254 0.348117 0.610503
O O6 0.764839 0.396024 0.588376
O O7 0.825929 0.474669 0.468505
O O8 0.822708 0.477477 0.724449
O O9 0.598926 0.250000 0.250000
O O10 0.560248 0.151320 0.420262
O O11 0.612342 0.272268 0.502980
O O12 0.500000 0.136897 0.250000
O O13 0.380278 0.750000 0.250000
O O14 0.316445 0.676881 0.371282
O O15 0.750000 0.750000 0.500000
O O16 0.702087 0.877131 0.585960
O O17 0.250000 0.500000 0.149128
#
# Coordination Sequence:
#
# PCOD9509284 Si02
#       8
#    16  16  16  16  16  16   4  16
#     4  11  25  46  77 110 147 191 241 309 382 447
#     4  11  25  46  72 102 150 196 253 309 373 447
#     4  12  27  48  72 112 149 202 255 310 382 453
#     4  11  26  49  76 109 150 196 251 309 381 458
#     4  12  27  44  73 113 144 197 250 308 378 447
#     4  11  24  43  70 104 150 192 248 303 373 448
#     4  12  20  48  74 104 150 184 224 302 376 448
#     4  10  23  43  66  99 136 198 246 304 372 430
#
# _framework density 23.203023999999999
#
# number of rings (size 3 to 8) (size 9 to 14) (size 15 to 20)
#    0.000    0.828    2.759    3.724    3.862    2.483 
#    2.483    0.000    0.000    0.000    0.000    0.000 
#    0.000    0.000    0.000    0.000    0.000    0.000 
#
# Total GULP energy -324254.440615 kJ/mol
# GULP energy per Si atom -5590.593804 kJ/mol
# Density = 2.315021 g / cm^3
# Si number density = 23.203024 Si / 1000 Ang^3
#
#
#
# Elastic Constant Matrix: (Units=GPa)
#
#
# Indices 1 2 3 4 5 6 
#
# 1 120.0407 30.2931 26.9717 0.0000 0.0000 0.0000
# 2 30.2931 96.8636 32.6518 0.0000 0.0000 0.0000
# 3 26.9717 32.6518 124.4282 0.0000 0.0000 0.0000
# 4 0.0000 0.0000 0.0000 26.0249 0.0000 0.0000
# 5 0.0000 0.0000 0.0000 0.0000 24.1813 0.0000
# 6 0.0000 0.0000 0.0000 0.0000 0.0000 9.6775
#
#
#
# Elastic Compliance Matrix: (Units=1/GPa)
#
#
# Indices 1 2 3 4 5 6 
#
# 1 0.009252 -0.002432 -0.001367 0.000000 0.000000 0.000000
# 2 -0.002432 0.011965 -0.002613 0.000000 0.000000 0.000000
# 3 -0.001367 -0.002613 0.009019 0.000000 0.000000 0.000000
# 4 0.000000 0.000000 0.000000 0.038425 0.000000 0.000000
# 5 0.000000 0.000000 0.000000 0.000000 0.041354 0.000000
# 6 0.000000 0.000000 0.000000 0.000000 0.000000 0.103333
#
#
# Mechanical properties :
#
#
# Convention : Reuss Voigt Hill
#
# Bulk Modulus (GPa) = 57.43457 57.90731 57.67094
# Shear Modulus (GPa) = 21.55401 28.73779 25.14590
#
# Velocity S-wave (km/s) = 3.05114 3.52310 3.29558
# Velocity P-wave (km/s) = 6.10077 6.44675 6.27615
#
# Compressibility (1/GPa) = 0.01741112
#
# Stress axis : x y z
#
# Youngs Moduli (GPa) = 108.09020 83.57572 110.88102
#
# Poissons Ratio (x) = 0.20330 0.15158
# Poissons Ratio (y) = 0.26293 0.28968
# Poissons Ratio (z) = 0.14777 0.21835
#
# Static dielectric constant tensor:
#      x y z
#    x 1.508110 0.000000 0.000000 
#    y 0.000000 1.989160 0.000000 
#    z 0.000000 0.000000 1.786530 
# 
# From -- ./inp_files/17226.got.cif
#   From: 2010.05.17/outbox.cif.g08.bks.cpg/sg68_9_cif.got.tgz:17226.got - 2010.06.03 18:57:09.
