data_PCOD9509230
_publ_section_title
;
Structure prediction by ZEFSAII (Michael W. Deem and Ramdas Pophale) SiO2 
 PCOD9509230
Probable space group: C C C A
;
_chemical_formula_sum "Si O2"
_cell_formula_units_Z 44
_cell_length_a 14.835707
_cell_length_b 23.792743
_cell_length_c 5.140559
_cell_angle_alpha 90.000000
_cell_angle_beta 90.000000
_cell_angle_gamma 90.000000
_cell_volume 1814.525639
_symmetry_space_group_name_H-M "C C C A"
_symmetry_group_IT_number 68
_space_group.IT_coordinate_system_code '2'
_symmetry_cell_setting 'orthorhombic'
loop_
_space_group_symop_operation_xyz
x,y,z
-x,1/2-y,z
x,1/2-y,1/2-z
-x,y,1/2-z
-x,-y,-z
x,1/2+y,-z
-x,1/2+y,1/2+z
x,-y,1/2+z
1/2+x,1/2+y,z
1/2-x,-y,z
1/2+x,-y,1/2-z
1/2-x,1/2+y,1/2-z
1/2-x,1/2-y,-z
1/2+x,y,-z
1/2-x,y,1/2+z
1/2+x,1/2-y,1/2+z
loop_
_atom_site_type_symbol
_atom_site_label
_atom_site_fract_x
_atom_site_fract_y
_atom_site_fract_z
Si Si1 0.000000 0.250000 0.750000
Si Si2 0.614987 0.750000 0.250000
Si Si3 0.307048 0.631111 0.337376
Si Si4 0.101287 0.524693 0.975743
O O1 0.065236 0.225241 0.517133
O O2 0.666355 0.803795 0.357127
O O3 0.231355 0.619974 0.552848
O O4 0.389723 0.589549 0.401779
O O5 0.145319 0.511576 0.249404
O O6 0.000000 0.500000 0.000000
#
# Coordination Sequence:
#
# PCOD9509230 Si02
#       4
#     4   8  16  16
#     4  10  24  40  68  96 132 182 228 280 344 414
#     4  11  24  45  68 103 140 179 236 294 354 432
#     4  12  25  42  69 101 141 187 233 294 365 427
#     4  10  23  42  65  94 133 181 232 288 347 414
#
# _framework density 24.248763
#
# number of rings (size 3 to 8) (size 9 to 14) (size 15 to 20)
#    0.000    1.091    0.000    5.455    0.000   13.091 
#    0.000    0.000    0.000    0.000    0.000    0.000 
#    0.000    0.000    0.000    0.000    0.000    0.000 
#
# Total GULP energy -122499.288673 kJ/mol
# GULP energy per Si atom -5568.149485 kJ/mol
# Density = 2.419357 g / cm^3
# Si number density = 24.248763 Si / 1000 Ang^3
#
#
#
# Elastic Constant Matrix: (Units=GPa)
#
#
# Indices 1 2 3 4 5 6 
#
# 1 80.4001 48.5051 17.4291 0.0000 0.0000 0.0000
# 2 48.5051 176.5508 24.7883 0.0000 0.0000 0.0000
# 3 17.4291 24.7883 210.2438 0.0000 0.0000 0.0000
# 4 0.0000 0.0000 0.0000 33.3537 0.0000 0.0000
# 5 0.0000 0.0000 0.0000 0.0000 14.2076 0.0000
# 6 0.0000 0.0000 0.0000 0.0000 0.0000 -67.9764
#
#
#
# Elastic Compliance Matrix: (Units=1/GPa)
#
#
# Indices 1 2 3 4 5 6 
#
# 1 0.015031 -0.004021 -0.000772 0.000000 0.000000 0.000000
# 2 -0.004021 0.006835 -0.000473 0.000000 0.000000 0.000000
# 3 -0.000772 -0.000473 0.004876 0.000000 0.000000 0.000000
# 4 0.000000 0.000000 0.000000 0.029982 0.000000 0.000000
# 5 0.000000 0.000000 0.000000 0.000000 0.070385 0.000000
# 6 0.000000 0.000000 0.000000 0.000000 0.000000 -0.014711
#
#
# Mechanical properties :
#
#
# Convention : Reuss Voigt Hill
#
# Bulk Modulus (GPa) = 61.68653 72.07109 66.87881
# Shear Modulus (GPa) = 38.96112 21.01512 29.98812
#
# Velocity S-wave (km/s) = 4.01275 2.94708 3.52047
# Velocity P-wave (km/s) = 6.85301 6.43168 6.64568
#
# Compressibility (1/GPa) = 0.01621100
#
# Stress axis : x y z
#
# Youngs Moduli (GPa) = 66.52858 146.30101 205.08229
#
# Poissons Ratio (x) = 0.58831 0.15832
# Poissons Ratio (y) = 0.26753 0.09691
# Poissons Ratio (z) = 0.05136 0.06913
#
# Static dielectric constant tensor:
#      x y z
#    x 1.996380 0.000000 0.000000 
#    y 0.000000 1.940330 0.000000 
#    z 0.000000 0.000000 2.100600 
# 
# From -- ./inp_files/853.got.cif
#   From: 2010.05.17/outbox.cif.g08.bks.cpg/sg68_1_cif.got.tgz:853.got - 2010.06.03 18:57:09.
