data_PCOD9509300
_publ_section_title
;
Structure prediction by ZEFSAII (Michael W. Deem and Ramdas Pophale) SiO2 
 PCOD9509300
Probable space group: C C C A
;
_chemical_formula_sum "Si O2"
_cell_formula_units_Z 52
_cell_length_a 10.424106
_cell_length_b 27.173916
_cell_length_c 8.268949
_cell_angle_alpha 90.000000
_cell_angle_beta 90.000000
_cell_angle_gamma 90.000000
_cell_volume 2342.293757
_symmetry_space_group_name_H-M "C C C A"
_symmetry_group_IT_number 68
_space_group.IT_coordinate_system_code '2'
_symmetry_cell_setting 'orthorhombic'
loop_
_space_group_symop_operation_xyz
x,y,z
-x,1/2-y,z
x,1/2-y,1/2-z
-x,y,1/2-z
-x,-y,-z
x,1/2+y,-z
-x,1/2+y,1/2+z
x,-y,1/2+z
1/2+x,1/2+y,z
1/2-x,-y,z
1/2+x,-y,1/2-z
1/2-x,1/2+y,1/2-z
1/2-x,1/2-y,-z
1/2+x,y,-z
1/2-x,y,1/2+z
1/2+x,1/2-y,1/2+z
loop_
_atom_site_type_symbol
_atom_site_label
_atom_site_fract_x
_atom_site_fract_y
_atom_site_fract_z
Si Si1 0.500000 0.250000 0.750000
Si Si2 0.625959 0.966268 0.965663
Si Si3 0.196027 0.600309 0.178341
Si Si4 0.611366 0.844544 0.369103
O O1 0.418135 0.213581 0.635000
O O2 0.623060 0.934583 0.802409
O O3 0.750000 0.000000 0.939715
O O4 0.682760 0.930470 0.105529
O O5 0.500000 0.000000 0.000000
O O6 0.254575 0.644590 0.282779
O O7 0.115430 0.624109 0.032832
O O8 0.500000 0.863277 0.250000
#
# Coordination Sequence:
#
# PCOD9509300 Si02
#       4
#     4  16  16  16
#     4   8  20  40  72  98 134 176 224 310 348 450
#     4  11  26  44  67 102 136 186 239 286 344 421
#     4  10  23  43  69  94 137 188 222 296 356 414
#     4   9  21  44  66  98 132 176 229 289 358 432
#
# _framework density 22.200461000000001
#
# number of rings (size 3 to 8) (size 9 to 14) (size 15 to 20)
#    0.923    1.231    0.000    0.923    8.615    4.923 
#    5.538    1.538    0.000    7.385    0.000    0.000 
#    0.000    0.000    0.000    0.000    0.000    0.000 
#
# Total GULP energy -144937.936420 kJ/mol
# GULP energy per Si atom -5574.536016 kJ/mol
# Density = 2.214993 g / cm^3
# Si number density = 22.200461 Si / 1000 Ang^3
#
#
#
# Elastic Constant Matrix: (Units=GPa)
#
#
# Indices 1 2 3 4 5 6 
#
# 1 144.6525 83.8976 59.5874 0.0000 0.0000 0.0000
# 2 83.8976 172.6309 78.4530 0.0000 0.0000 0.0000
# 3 59.5874 78.4530 137.7817 0.0000 0.0000 0.0000
# 4 0.0000 0.0000 0.0000 23.9074 0.0000 0.0000
# 5 0.0000 0.0000 0.0000 0.0000 31.9313 0.0000
# 6 0.0000 0.0000 0.0000 0.0000 0.0000 33.0807
#
#
#
# Elastic Compliance Matrix: (Units=1/GPa)
#
#
# Indices 1 2 3 4 5 6 
#
# 1 0.010063 -0.003930 -0.002115 0.000000 0.000000 0.000000
# 2 -0.003930 0.009350 -0.003624 0.000000 0.000000 0.000000
# 3 -0.002115 -0.003624 0.010236 0.000000 0.000000 0.000000
# 4 0.000000 0.000000 0.000000 0.041828 0.000000 0.000000
# 5 0.000000 0.000000 0.000000 0.000000 0.031317 0.000000
# 6 0.000000 0.000000 0.000000 0.000000 0.000000 0.030229
#
#
# Mechanical properties :
#
#
# Convention : Reuss Voigt Hill
#
# Bulk Modulus (GPa) = 96.97452 99.88232 98.42842
# Shear Modulus (GPa) = 32.09292 33.32569 32.70930
#
# Velocity S-wave (km/s) = 3.80623 3.87864 3.84260
# Velocity P-wave (km/s) = 7.94309 8.07138 8.00749
#
# Compressibility (1/GPa) = 0.01031199
#
# Stress axis : x y z
#
# Youngs Moduli (GPa) = 99.36953 106.95703 97.69516
#
# Poissons Ratio (x) = 0.42032 0.20658
# Poissons Ratio (y) = 0.39050 0.35406
# Poissons Ratio (z) = 0.21012 0.38762
#
# Static dielectric constant tensor:
#      x y z
#    x 1.928140 0.000000 0.000000 
#    y 0.000000 1.913270 0.000000 
#    z 0.000000 0.000000 1.890700 
# 
# From -- ./inp_files/3820.got.cif
#   From: 2010.05.17/outbox.cif.g08.bks.cpg/sg68_2_cif.got.tgz:3820.got - 2010.06.03 18:57:09.
