data_PCOD9509248
_publ_section_title
;
Structure prediction by ZEFSAII (Michael W. Deem and Ramdas Pophale) SiO2 
 PCOD9509248
Probable space group: C C C A
;
_chemical_formula_sum "Si O2"
_cell_formula_units_Z 72
_cell_length_a 24.145642
_cell_length_b 14.901638
_cell_length_c 9.430908
_cell_angle_alpha 90.000000
_cell_angle_beta 90.000000
_cell_angle_gamma 90.000000
_cell_volume 3393.331389
_symmetry_space_group_name_H-M "C C C A"
_symmetry_group_IT_number 68
_space_group.IT_coordinate_system_code '2'
_symmetry_cell_setting 'orthorhombic'
loop_
_space_group_symop_operation_xyz
x,y,z
-x,1/2-y,z
x,1/2-y,1/2-z
-x,y,1/2-z
-x,-y,-z
x,1/2+y,-z
-x,1/2+y,1/2+z
x,-y,1/2+z
1/2+x,1/2+y,z
1/2-x,-y,z
1/2+x,-y,1/2-z
1/2-x,1/2+y,1/2-z
1/2-x,1/2-y,-z
1/2+x,y,-z
1/2-x,y,1/2+z
1/2+x,1/2-y,1/2+z
loop_
_atom_site_type_symbol
_atom_site_label
_atom_site_fract_x
_atom_site_fract_y
_atom_site_fract_z
Si Si1 0.690905 0.608391 0.439786
Si Si2 0.554612 0.586606 0.158701
Si Si3 0.602677 0.047469 0.131101
Si Si4 0.632592 0.250000 0.750000
Si Si5 0.796363 0.645290 0.264184
O O1 0.645060 0.531850 0.415316
O O2 0.666760 0.702099 0.376306
O O3 0.748187 0.599538 0.355089
O O4 0.703151 0.608593 0.605350
O O5 0.500000 0.609270 0.250000
O O6 0.575045 0.493888 0.229608
O O7 0.596418 0.668766 0.187398
O O8 0.557913 0.570211 0.990017
O O9 0.643684 0.128613 0.166716
O O10 0.785030 0.750000 0.250000
#
# Coordination Sequence:
#
# PCOD9509248 Si02
#       5
#    16  16  16   8  16
#     4  11  24  40  62  98 133 176 211 261 327 405
#     4  11  23  44  68  92 123 171 222 278 331 384
#     4  11  24  41  65  94 132 166 221 269 326 396
#     4  10  23  42  68  96 130 166 223 268 334 396
#     4  12  24  39  64  95 137 174 214 260 328 396
#
# _framework density 21.218086
#
# number of rings (size 3 to 8) (size 9 to 14) (size 15 to 20)
#    0.000    0.889    3.333    3.667    6.222    1.778 
#    0.000    0.000    0.000    0.000    0.000    0.000 
#    0.000    0.000    0.000    0.000    0.000    0.000 
#
# Total GULP energy -201119.617172 kJ/mol
# GULP energy per Si atom -5586.656033 kJ/mol
# Density = 2.116979 g / cm^3
# Si number density = 21.218086 Si / 1000 Ang^3
#
#
#
# Elastic Constant Matrix: (Units=GPa)
#
#
# Indices 1 2 3 4 5 6 
#
# 1 77.6843 5.4547 27.5707 0.0000 0.0000 0.0000
# 2 5.4547 58.9548 -4.1563 0.0000 0.0000 0.0000
# 3 27.5707 -4.1563 110.1180 0.0000 0.0000 0.0000
# 4 0.0000 0.0000 0.0000 12.3543 0.0000 0.0000
# 5 0.0000 0.0000 0.0000 0.0000 42.9591 0.0000
# 6 0.0000 0.0000 0.0000 0.0000 0.0000 32.0222
#
#
#
# Elastic Compliance Matrix: (Units=1/GPa)
#
#
# Indices 1 2 3 4 5 6 
#
# 1 0.014273 -0.001577 -0.003633 0.000000 0.000000 0.000000
# 2 -0.001577 0.017182 0.001043 0.000000 0.000000 0.000000
# 3 -0.003633 0.001043 0.010030 0.000000 0.000000 0.000000
# 4 0.000000 0.000000 0.000000 0.080943 0.000000 0.000000
# 5 0.000000 0.000000 0.000000 0.000000 0.023278 0.000000
# 6 0.000000 0.000000 0.000000 0.000000 0.000000 0.031228
#
#
# Mechanical properties :
#
#
# Convention : Reuss Voigt Hill
#
# Bulk Modulus (GPa) = 30.16452 33.83282 31.99867
# Shear Modulus (GPa) = 25.46896 31.99300 28.73098
#
# Velocity S-wave (km/s) = 3.46835 3.88728 3.68377
# Velocity P-wave (km/s) = 5.50333 6.01064 5.76257
#
# Compressibility (1/GPa) = 0.03315153
#
# Stress axis : x y z
#
# Youngs Moduli (GPa) = 70.06372 58.20192 99.69929
#
# Poissons Ratio (x) = 0.09177 0.36221
# Poissons Ratio (y) = 0.11047 -0.10401
# Poissons Ratio (z) = 0.25454 -0.06072
#
# Static dielectric constant tensor:
#      x y z
#    x 1.795340 0.000000 0.000000 
#    y 0.000000 1.748600 0.000000 
#    z 0.000000 0.000000 1.785680 
# 
# From -- ./inp_files/5185.got.cif
#   From: 2010.05.17/outbox.cif.g08.bks.cpg/sg68_3_cif.got.tgz:5185.got - 2010.06.03 18:57:09.
