data_PCOD9509672
_publ_section_title
;
Structure prediction by ZEFSAII (Michael W. Deem and Ramdas Pophale) SiO2 
 PCOD9509672
Probable space group: C C C A
;
_chemical_formula_sum "Si O2"
_cell_formula_units_Z 64
_cell_length_a 21.078327
_cell_length_b 7.412911
_cell_length_c 18.082716
_cell_angle_alpha 90.000000
_cell_angle_beta 90.000000
_cell_angle_gamma 90.000000
_cell_volume 2825.456238
_symmetry_space_group_name_H-M "C C C A"
_symmetry_group_IT_number 68
_space_group.IT_coordinate_system_code '2'
_symmetry_cell_setting 'orthorhombic'
loop_
_space_group_symop_operation_xyz
x,y,z
-x,1/2-y,z
x,1/2-y,1/2-z
-x,y,1/2-z
-x,-y,-z
x,1/2+y,-z
-x,1/2+y,1/2+z
x,-y,1/2+z
1/2+x,1/2+y,z
1/2-x,-y,z
1/2+x,-y,1/2-z
1/2-x,1/2+y,1/2-z
1/2-x,1/2-y,-z
1/2+x,y,-z
1/2-x,y,1/2+z
1/2+x,1/2-y,1/2+z
loop_
_atom_site_type_symbol
_atom_site_label
_atom_site_fract_x
_atom_site_fract_y
_atom_site_fract_z
Si Si1 0.063278 0.517788 0.048511
Si Si2 0.376127 0.163277 0.590156
Si Si3 0.891736 0.787708 0.334554
Si Si4 0.253401 0.786277 0.165362
O O1 0.074988 0.327107 0.087119
O O2 0.066174 0.675575 0.108454
O O3 0.118622 0.565338 0.989209
O O4 0.000000 0.500000 0.000000
O O5 0.309493 0.259165 0.609551
O O6 0.391455 0.001102 0.646989
O O7 0.909075 0.750000 0.250000
O O8 0.818352 0.718932 0.344695
O O9 0.272795 0.750000 0.250000
O O10 0.250000 0.000000 0.156978
#
# Coordination Sequence:
#
# PCOD9509672 Si02
#       4
#    16  16  16  16
#     4  12  26  45  70  97 142 194 246 297 351 420
#     4  11  24  42  71  99 141 187 236 293 368 422
#     4  10  24  46  71 107 144 183 237 300 366 439
#     4   9  21  40  67 105 144 178 224 297 378 439
#
# _framework density 22.651209999999999
#
# number of rings (size 3 to 8) (size 9 to 14) (size 15 to 20)
#    0.000    1.500    2.500    0.750   10.500    1.000 
#    4.500    2.500    5.500    0.000    0.000    0.000 
#    0.000    0.000    0.000    0.000    0.000    0.000 
#
# Total GULP energy -178808.795518 kJ/mol
# GULP energy per Si atom -5587.774860 kJ/mol
# Density = 2.259965 g / cm^3
# Si number density = 22.651210 Si / 1000 Ang^3
#
#
#
# Elastic Constant Matrix: (Units=GPa)
#
#
# Indices 1 2 3 4 5 6 
#
# 1 122.3305 46.1296 79.5987 0.0000 0.0000 0.0000
# 2 46.1296 96.6678 22.0925 0.0000 0.0000 0.0000
# 3 79.5987 22.0925 117.6295 0.0000 0.0000 0.0000
# 4 0.0000 0.0000 0.0000 43.0947 0.0000 0.0000
# 5 0.0000 0.0000 0.0000 0.0000 55.5795 0.0000
# 6 0.0000 0.0000 0.0000 0.0000 0.0000 27.2885
#
#
#
# Elastic Compliance Matrix: (Units=1/GPa)
#
#
# Indices 1 2 3 4 5 6 
#
# 1 0.017254 -0.005815 -0.010583 0.000000 0.000000 0.000000
# 2 -0.005815 0.012768 0.001537 0.000000 0.000000 0.000000
# 3 -0.010583 0.001537 0.015374 0.000000 0.000000 0.000000
# 4 0.000000 0.000000 0.000000 0.023205 0.000000 0.000000
# 5 0.000000 0.000000 0.000000 0.000000 0.017992 0.000000
# 6 0.000000 0.000000 0.000000 0.000000 0.000000 0.036646
#
#
# Mechanical properties :
#
#
# Convention : Reuss Voigt Hill
#
# Bulk Modulus (GPa) = 63.80160 70.25214 67.02687
# Shear Modulus (GPa) = 31.60844 37.77967 34.69406
#
# Velocity S-wave (km/s) = 3.73961 4.08841 3.91789
# Velocity P-wave (km/s) = 6.84649 7.30540 7.07966
#
# Compressibility (1/GPa) = 0.01567359
#
# Stress axis : x y z
#
# Youngs Moduli (GPa) = 57.95897 78.31920 65.04391
#
# Poissons Ratio (x) = 0.45540 0.68838
# Poissons Ratio (y) = 0.33701 -0.09995
# Poissons Ratio (z) = 0.61339 -0.12035
#
# Static dielectric constant tensor:
#      x y z
#    x 1.964000 0.000000 0.000000 
#    y 0.000000 1.859140 0.000000 
#    z 0.000000 0.000000 1.786570 
# 
# From -- ./inp_files/33372.got.cif
#   From: 2010.05.17/outbox.cif.g08.bks.cpg/sg68_17_cif.got.tgz:33372.got - 2010.06.03 18:57:09.
