data_PCOD9509724
_publ_section_title
;
Structure prediction by ZEFSAII (Michael W. Deem and Ramdas Pophale) SiO2 
 PCOD9509724
Probable space group: C C C A
;
_chemical_formula_sum "Si O2"
_cell_formula_units_Z 64
_cell_length_a 21.181776
_cell_length_b 16.656261
_cell_length_c 8.781118
_cell_angle_alpha 90.000000
_cell_angle_beta 90.000000
_cell_angle_gamma 90.000000
_cell_volume 3098.059124
_symmetry_space_group_name_H-M "C C C A"
_symmetry_group_IT_number 68
_space_group.IT_coordinate_system_code '2'
_symmetry_cell_setting 'orthorhombic'
loop_
_space_group_symop_operation_xyz
x,y,z
-x,1/2-y,z
x,1/2-y,1/2-z
-x,y,1/2-z
-x,-y,-z
x,1/2+y,-z
-x,1/2+y,1/2+z
x,-y,1/2+z
1/2+x,1/2+y,z
1/2-x,-y,z
1/2+x,-y,1/2-z
1/2-x,1/2+y,1/2-z
1/2-x,1/2-y,-z
1/2+x,y,-z
1/2-x,y,1/2+z
1/2+x,1/2-y,1/2+z
loop_
_atom_site_type_symbol
_atom_site_label
_atom_site_fract_x
_atom_site_fract_y
_atom_site_fract_z
Si Si1 0.451262 0.961580 0.618384
Si Si2 0.250000 0.000000 0.970650
Si Si3 0.427956 0.220680 0.084348
Si Si4 0.833641 0.573190 0.714907
Si Si5 0.125213 0.250000 0.250000
O O1 0.500000 0.938781 0.750000
O O2 0.421659 0.876109 0.572277
O O3 0.500000 0.000000 0.500000
O O4 0.397998 0.026281 0.667173
O O5 0.305188 0.030704 0.862523
O O6 0.217483 0.064006 0.080892
O O7 0.500000 0.250000 0.092858
O O8 0.399506 0.250000 0.250000
O O9 0.407336 0.253740 0.918208
O O10 0.840185 0.665642 0.752970
#
# Coordination Sequence:
#
# PCOD9509724 Si02
#       5
#    16   8  16  16   8
#     4  12  23  41  68 103 140 178 223 279 351 415
#     4  10  24  48  68  92 136 178 232 284 336 410
#     4  11  23  41  62 100 146 183 219 274 339 413
#     4  11  25  44  70 100 131 183 228 281 344 406
#     4  12  25  42  68 102 132 178 233 286 338 404
#
# _framework density 20.658094999999999
#
# number of rings (size 3 to 8) (size 9 to 14) (size 15 to 20)
#    0.000    0.750    2.500    6.375    3.500    1.000 
#    0.000    0.000    0.000    0.000    0.000    0.000 
#    0.000    0.000    0.000    0.000    0.000    0.000 
#
# Total GULP energy -178378.429867 kJ/mol
# GULP energy per Si atom -5574.325933 kJ/mol
# Density = 2.061108 g / cm^3
# Si number density = 20.658095 Si / 1000 Ang^3
#
#
#
# Elastic Constant Matrix: (Units=GPa)
#
#
# Indices 1 2 3 4 5 6 
#
# 1 70.0181 19.2564 25.1619 0.0000 0.0000 0.0000
# 2 19.2564 117.3085 18.7653 0.0000 0.0000 0.0000
# 3 25.1619 18.7653 157.6206 0.0000 0.0000 0.0000
# 4 0.0000 0.0000 0.0000 9.4267 0.0000 0.0000
# 5 0.0000 0.0000 0.0000 0.0000 15.8006 0.0000
# 6 0.0000 0.0000 0.0000 0.0000 0.0000 2.2481
#
#
#
# Elastic Compliance Matrix: (Units=1/GPa)
#
#
# Indices 1 2 3 4 5 6 
#
# 1 0.015698 -0.002218 -0.002242 0.000000 0.000000 0.000000
# 2 -0.002218 0.009003 -0.000718 0.000000 0.000000 0.000000
# 3 -0.002242 -0.000718 0.006788 0.000000 0.000000 0.000000
# 4 0.000000 0.000000 0.000000 0.106082 0.000000 0.000000
# 5 0.000000 0.000000 0.000000 0.000000 0.063289 0.000000
# 6 0.000000 0.000000 0.000000 0.000000 0.000000 0.444817
#
#
# Mechanical properties :
#
#
# Convention : Reuss Voigt Hill
#
# Bulk Modulus (GPa) = 47.31886 52.36827 49.84356
# Shear Modulus (GPa) = 7.54061 24.27931 15.90996
#
# Velocity S-wave (km/s) = 1.91262 3.43197 2.77818
# Velocity P-wave (km/s) = 5.27569 6.41168 5.87122
#
# Compressibility (1/GPa) = 0.02113322
#
# Stress axis : x y z
#
# Youngs Moduli (GPa) = 63.70356 111.06824 147.32568
#
# Poissons Ratio (x) = 0.24637 0.33028
# Poissons Ratio (y) = 0.14131 0.10575
# Poissons Ratio (z) = 0.14281 0.07972
#
# Static dielectric constant tensor:
#      x y z
#    x 1.727610 0.000000 0.000000 
#    y 0.000000 1.724880 0.000000 
#    z 0.000000 0.000000 1.797770 
# 
# From -- ./inp_files/5028.got.cif
#   From: 2010.05.17/outbox.cif.g08.bks.cpg/sg68_3_cif.got.tgz:5028.got - 2010.06.03 18:57:09.
