data_PCOD9509324
_publ_section_title
;
Structure prediction by ZEFSAII (Michael W. Deem and Ramdas Pophale) SiO2 
 PCOD9509324
Probable space group: C C C A
;
_chemical_formula_sum "Si O2"
_cell_formula_units_Z 88
_cell_length_a 11.805010
_cell_length_b 25.985896
_cell_length_c 13.816560
_cell_angle_alpha 90.000000
_cell_angle_beta 90.000000
_cell_angle_gamma 90.000000
_cell_volume 4238.419925
_symmetry_space_group_name_H-M "C C C A"
_symmetry_group_IT_number 68
_space_group.IT_coordinate_system_code '2'
_symmetry_cell_setting 'orthorhombic'
loop_
_space_group_symop_operation_xyz
x,y,z
-x,1/2-y,z
x,1/2-y,1/2-z
-x,y,1/2-z
-x,-y,-z
x,1/2+y,-z
-x,1/2+y,1/2+z
x,-y,1/2+z
1/2+x,1/2+y,z
1/2-x,-y,z
1/2+x,-y,1/2-z
1/2-x,1/2+y,1/2-z
1/2-x,1/2-y,-z
1/2+x,y,-z
1/2-x,y,1/2+z
1/2+x,1/2-y,1/2+z
loop_
_atom_site_type_symbol
_atom_site_label
_atom_site_fract_x
_atom_site_fract_y
_atom_site_fract_z
Si Si1 0.629763 0.028008 0.393042
Si Si2 0.809226 0.793345 0.682042
Si Si3 0.500000 0.360604 0.750000
Si Si4 0.500000 0.405446 0.250000
Si Si5 0.500000 0.250000 0.538615
Si Si6 0.500936 0.925820 0.440416
Si Si7 0.893264 0.846333 0.073295
O O1 0.598476 0.058886 0.295925
O O2 0.602374 0.065208 0.484562
O O3 0.750000 0.000000 0.392678
O O4 0.541158 0.981529 0.405875
O O5 0.751635 0.750000 0.750000
O O6 0.887306 0.826194 0.755651
O O7 0.898062 0.768224 0.607495
O O8 0.724726 0.826481 0.616705
O O9 0.477224 0.393736 0.655107
O O10 0.457422 0.369538 0.164918
O O11 0.457207 0.202028 0.474902
O O12 0.598550 0.893573 0.496998
#
# Coordination Sequence:
#
# PCOD9509324 Si02
#       7
#    16  16   8   8   8  16  16
#     4  10  23  44  70  94 140 175 222 290 350 408
#     4  12  24  43  66  99 134 186 235 283 346 407
#     4  12  22  42  70  97 137 172 232 290 328 426
#     4  10  25  47  60 111 135 173 238 283 338 430
#     4  12  23  47  62  98 142 178 232 298 326 420
#     4  10  23  44  65 103 131 177 229 282 346 421
#     4  11  26  41  71  95 140 180 227 282 354 406
#
# _framework density 20.762454999999999
#
# number of rings (size 3 to 8) (size 9 to 14) (size 15 to 20)
#    0.000    1.091    3.636    1.091    7.636    0.000 
#    0.000    2.727    0.000    0.000    0.000    0.000 
#    0.000    0.000    0.000    0.000    0.000    0.000 
#
# Total GULP energy -245659.640054 kJ/mol
# GULP energy per Si atom -5583.173638 kJ/mol
# Density = 2.071520 g / cm^3
# Si number density = 20.762455 Si / 1000 Ang^3
#
#
#
# Elastic Constant Matrix: (Units=GPa)
#
#
# Indices 1 2 3 4 5 6 
#
# 1 77.7747 22.9354 27.1047 0.0000 0.0000 0.0000
# 2 22.9354 93.2862 41.5286 0.0000 0.0000 0.0000
# 3 27.1047 41.5286 92.5659 0.0000 0.0000 0.0000
# 4 0.0000 0.0000 0.0000 64.9023 0.0000 0.0000
# 5 0.0000 0.0000 0.0000 0.0000 9.5880 0.0000
# 6 0.0000 0.0000 0.0000 0.0000 0.0000 33.0080
#
#
#
# Elastic Compliance Matrix: (Units=1/GPa)
#
#
# Indices 1 2 3 4 5 6 
#
# 1 0.014645 -0.002114 -0.003340 0.000000 0.000000 0.000000
# 2 -0.002114 0.013700 -0.005527 0.000000 0.000000 0.000000
# 3 -0.003340 -0.005527 0.014261 0.000000 0.000000 0.000000
# 4 0.000000 0.000000 0.000000 0.015408 0.000000 0.000000
# 5 0.000000 0.000000 0.000000 0.000000 0.104298 0.000000
# 6 0.000000 0.000000 0.000000 0.000000 0.000000 0.030296
#
#
# Mechanical properties :
#
#
# Convention : Reuss Voigt Hill
#
# Bulk Modulus (GPa) = 48.44102 49.64046 49.04074
# Shear Modulus (GPa) = 22.57842 32.97020 27.77431
#
# Velocity S-wave (km/s) = 3.30125 3.98926 3.66145
# Velocity P-wave (km/s) = 6.15733 6.72158 6.44563
#
# Compressibility (1/GPa) = 0.02064366
#
# Stress axis : x y z
#
# Youngs Moduli (GPa) = 68.28284 72.99238 70.12170
#
# Poissons Ratio (x) = 0.15429 0.23420
# Poissons Ratio (y) = 0.14433 0.38759
# Poissons Ratio (z) = 0.22806 0.40346
#
# Static dielectric constant tensor:
#      x y z
#    x 1.489370 0.000000 0.000000 
#    y 0.000000 1.776620 0.000000 
#    z 0.000000 0.000000 1.741610 
# 
# From -- ./inp_files/21159.got.cif
#   From: 2010.05.17/outbox.cif.g08.bks.cpg/sg68_11_cif.got.tgz:21159.got - 2010.06.03 18:57:09.
