data_PCOD9509668
_publ_section_title
;
Structure prediction by ZEFSAII (Michael W. Deem and Ramdas Pophale) SiO2 
 PCOD9509668
Probable space group: C C C A
;
_chemical_formula_sum "Si O2"
_cell_formula_units_Z 60
_cell_length_a 27.066567
_cell_length_b 9.778131
_cell_length_c 11.031513
_cell_angle_alpha 90.000000
_cell_angle_beta 90.000000
_cell_angle_gamma 90.000000
_cell_volume 2919.605061
_symmetry_space_group_name_H-M "C C C A"
_symmetry_group_IT_number 68
_space_group.IT_coordinate_system_code '2'
_symmetry_cell_setting 'orthorhombic'
loop_
_space_group_symop_operation_xyz
x,y,z
-x,1/2-y,z
x,1/2-y,1/2-z
-x,y,1/2-z
-x,-y,-z
x,1/2+y,-z
-x,1/2+y,1/2+z
x,-y,1/2+z
1/2+x,1/2+y,z
1/2-x,-y,z
1/2+x,-y,1/2-z
1/2-x,1/2+y,1/2-z
1/2-x,1/2-y,-z
1/2+x,y,-z
1/2-x,y,1/2+z
1/2+x,1/2-y,1/2+z
loop_
_atom_site_type_symbol
_atom_site_label
_atom_site_fract_x
_atom_site_fract_y
_atom_site_fract_z
Si Si1 0.500000 0.250000 0.250000
Si Si2 0.581546 0.099501 0.406085
Si Si3 0.785947 0.372123 0.973143
Si Si4 0.886655 0.200031 0.387987
Si Si5 0.663770 0.750000 0.750000
O O1 0.534458 0.159025 0.336458
O O2 0.591046 0.174040 0.534380
O O3 0.628767 0.152620 0.329470
O O4 0.580355 0.935830 0.406672
O O5 0.750000 0.500000 0.989257
O O6 0.805202 0.349141 0.836621
O O7 0.750000 0.250000 0.000000
O O8 0.833951 0.351550 0.057953
O O9 0.882115 0.250000 0.250000
#
# Coordination Sequence:
#
# PCOD9509668 Si02
#       5
#     4  16  16  16   8
#     4  10  24  48  80 100 144 168 238 286 340 426
#     4  10  24  46  71 101 134 183 222 288 353 415
#     4  11  24  40  63  99 133 184 238 285 331 400
#     4  11  26  46  70 101 144 185 229 284 358 410
#     4   9  22  39  66  88 140 176 226 281 354 399
#
# _framework density 20.550726000000001
#
# number of rings (size 3 to 8) (size 9 to 14) (size 15 to 20)
#    0.000    1.600    0.000    3.200   16.800    2.133 
#    0.000    0.000    0.000    0.000    0.000    0.000 
#    0.000    0.000    0.000    0.000    0.000    0.000 
#
# Total GULP energy -167590.740385 kJ/mol
# GULP energy per Si atom -5586.358013 kJ/mol
# Density = 2.050395 g / cm^3
# Si number density = 20.550726 Si / 1000 Ang^3
#
#
#
# Elastic Constant Matrix: (Units=GPa)
#
#
# Indices 1 2 3 4 5 6 
#
# 1 109.5191 42.0731 55.4089 0.0000 0.0000 0.0000
# 2 42.0731 154.7732 61.3395 0.0000 0.0000 0.0000
# 3 55.4089 61.3395 169.2060 0.0000 0.0000 0.0000
# 4 0.0000 0.0000 0.0000 20.3411 0.0000 0.0000
# 5 0.0000 0.0000 0.0000 0.0000 3.1886 0.0000
# 6 0.0000 0.0000 0.0000 0.0000 0.0000 17.3359
#
#
#
# Elastic Compliance Matrix: (Units=1/GPa)
#
#
# Indices 1 2 3 4 5 6 
#
# 1 0.011399 -0.001891 -0.003047 0.000000 0.000000 0.000000
# 2 -0.001891 0.007859 -0.002230 0.000000 0.000000 0.000000
# 3 -0.003047 -0.002230 0.007716 0.000000 0.000000 0.000000
# 4 0.000000 0.000000 0.000000 0.049162 0.000000 0.000000
# 5 0.000000 0.000000 0.000000 0.000000 0.313620 0.000000
# 6 0.000000 0.000000 0.000000 0.000000 0.000000 0.057684
#
#
# Mechanical properties :
#
#
# Convention : Reuss Voigt Hill
#
# Bulk Modulus (GPa) = 79.12630 83.46014 81.29322
# Shear Modulus (GPa) = 10.72991 26.48490 18.60740
#
# Velocity S-wave (km/s) = 2.28747 3.59382 3.01231
# Velocity P-wave (km/s) = 6.75005 7.61056 7.19319
#
# Compressibility (1/GPa) = 0.01263802
#
# Stress axis : x y z
#
# Youngs Moduli (GPa) = 87.72733 127.24636 129.59900
#
# Poissons Ratio (x) = 0.24062 0.39492
# Poissons Ratio (y) = 0.16589 0.28896
# Poissons Ratio (z) = 0.26733 0.28372
#
# Static dielectric constant tensor:
#      x y z
#    x 1.768760 0.000000 0.000000 
#    y 0.000000 1.705150 0.000000 
#    z 0.000000 0.000000 1.729420 
# 
# From -- ./inp_files/10609.got.cif
#   From: 2010.05.17/outbox.cif.g08.bks.cpg/sg68_6_cif.got.tgz:10609.got - 2010.06.03 18:57:09.
