data_PCOD9509368
_publ_section_title
;
Structure prediction by ZEFSAII (Michael W. Deem and Ramdas Pophale) SiO2 
 PCOD9509368
Probable space group: C C C A
;
_chemical_formula_sum "Si O2"
_cell_formula_units_Z 36
_cell_length_a 21.407392
_cell_length_b 12.794111
_cell_length_c 4.875007
_cell_angle_alpha 90.000000
_cell_angle_beta 90.000000
_cell_angle_gamma 90.000000
_cell_volume 1335.208596
_symmetry_space_group_name_H-M "C C C A"
_symmetry_group_IT_number 68
_space_group.IT_coordinate_system_code '2'
_symmetry_cell_setting 'orthorhombic'
loop_
_space_group_symop_operation_xyz
x,y,z
-x,1/2-y,z
x,1/2-y,1/2-z
-x,y,1/2-z
-x,-y,-z
x,1/2+y,-z
-x,1/2+y,1/2+z
x,-y,1/2+z
1/2+x,1/2+y,z
1/2-x,-y,z
1/2+x,-y,1/2-z
1/2-x,1/2+y,1/2-z
1/2-x,1/2-y,-z
1/2+x,y,-z
1/2-x,y,1/2+z
1/2+x,1/2-y,1/2+z
loop_
_atom_site_type_symbol
_atom_site_label
_atom_site_fract_x
_atom_site_fract_y
_atom_site_fract_z
Si Si1 0.500000 0.750000 0.750000
Si Si2 0.789453 0.374430 0.231045
Si Si3 0.927308 0.430388 0.071094
O O1 0.457860 0.826269 0.942189
O O2 0.797022 0.250000 0.250000
O O3 0.770081 0.400495 0.540877
O O4 0.853034 0.413181 0.095547
O O5 0.942027 0.530257 0.877958
#
# Coordination Sequence:
#
# PCOD9509368 Si02
#       3
#     4  16  16
#     4  12  32  54  80 104 168 210 272 348 376 464
#     4  10  23  44  78 114 154 197 246 314 399 470
#     4  12  29  50  80 116 151 209 268 323 401 471
#
# _framework density 26.962081000000001
#
# number of rings (size 3 to 8) (size 9 to 14) (size 15 to 20)
#    0.000    0.889    0.000    4.000   15.556    7.111 
#    0.000    0.000    0.000    0.000    0.000    0.000 
#    0.000    0.000    0.000    0.000    0.000    0.000 
#
# Total GULP energy -100896.935192 kJ/mol
# GULP energy per Si atom -5605.385288 kJ/mol
# Density = 2.690071 g / cm^3
# Si number density = 26.962081 Si / 1000 Ang^3
#
#
#
# Elastic Constant Matrix: (Units=GPa)
#
#
# Indices 1 2 3 4 5 6 
#
# 1 181.5507 60.2347 61.3192 0.0000 0.0000 0.0000
# 2 60.2347 171.7752 28.3535 0.0000 0.0000 0.0000
# 3 61.3192 28.3535 169.0537 0.0000 0.0000 0.0000
# 4 0.0000 0.0000 0.0000 29.4874 0.0000 0.0000
# 5 0.0000 0.0000 0.0000 0.0000 59.8347 0.0000
# 6 0.0000 0.0000 0.0000 0.0000 0.0000 40.8009
#
#
#
# Elastic Compliance Matrix: (Units=1/GPa)
#
#
# Indices 1 2 3 4 5 6 
#
# 1 0.006927 -0.002072 -0.002165 0.000000 0.000000 0.000000
# 2 -0.002072 0.006607 -0.000357 0.000000 0.000000 0.000000
# 3 -0.002165 -0.000357 0.006760 0.000000 0.000000 0.000000
# 4 0.000000 0.000000 0.000000 0.033913 0.000000 0.000000
# 5 0.000000 0.000000 0.000000 0.000000 0.016713 0.000000
# 6 0.000000 0.000000 0.000000 0.000000 0.000000 0.024509
#
#
# Mechanical properties :
#
#
# Convention : Reuss Voigt Hill
#
# Bulk Modulus (GPa) = 90.03007 91.35493 90.69250
# Shear Modulus (GPa) = 46.16057 50.85608 48.50832
#
# Velocity S-wave (km/s) = 4.14219 4.34776 4.24622
# Velocity P-wave (km/s) = 7.50605 7.69158 7.59938
#
# Compressibility (1/GPa) = 0.01110740
#
# Stress axis : x y z
#
# Youngs Moduli (GPa) = 144.37045 151.35823 147.92045
#
# Poissons Ratio (x) = 0.31354 0.32025
# Poissons Ratio (y) = 0.29907 0.05276
# Poissons Ratio (z) = 0.31256 0.05399
#
# Static dielectric constant tensor:
#      x y z
#    x 2.159890 0.000000 0.000000 
#    y 0.000000 2.168440 0.000000 
#    z 0.000000 0.000000 2.002620 
# 
# From -- ./inp_files/413.got.cif
#   From: 2010.05.17/outbox.cif.g08.bks.cpg/sg68_1_cif.got.tgz:413.got - 2010.06.03 18:57:09.
