data_PCOD9509887
_publ_section_title
;
Structure prediction by ZEFSAII (Michael W. Deem and Ramdas Pophale) SiO2 
 PCOD9509887
Probable space group: C C C A
;
_chemical_formula_sum "Si O2"
_cell_formula_units_Z 72
_cell_length_a 13.407936
_cell_length_b 27.311987
_cell_length_c 8.464298
_cell_angle_alpha 90.000000
_cell_angle_beta 90.000000
_cell_angle_gamma 90.000000
_cell_volume 3099.603698
_symmetry_space_group_name_H-M "C C C A"
_symmetry_group_IT_number 68
_space_group.IT_coordinate_system_code '2'
_symmetry_cell_setting 'orthorhombic'
loop_
_space_group_symop_operation_xyz
x,y,z
-x,1/2-y,z
x,1/2-y,1/2-z
-x,y,1/2-z
-x,-y,-z
x,1/2+y,-z
-x,1/2+y,1/2+z
x,-y,1/2+z
1/2+x,1/2+y,z
1/2-x,-y,z
1/2+x,-y,1/2-z
1/2-x,1/2+y,1/2-z
1/2-x,1/2-y,-z
1/2+x,y,-z
1/2-x,y,1/2+z
1/2+x,1/2-y,1/2+z
loop_
_atom_site_type_symbol
_atom_site_label
_atom_site_fract_x
_atom_site_fract_y
_atom_site_fract_z
Si Si1 0.344984 0.962520 0.002733
Si Si2 0.000000 0.000886 0.750000
Si Si3 0.210092 0.699383 0.348267
Si Si4 0.355913 0.354326 0.045630
Si Si5 0.030431 0.304049 0.066250
O O1 0.423025 0.969200 0.858635
O O2 0.311059 0.906543 0.998687
O O3 0.250000 0.000000 0.000881
O O4 0.420251 0.970317 0.148572
O O5 0.205826 0.750000 0.250000
O O6 0.316477 0.685663 0.419012
O O7 0.173449 0.660082 0.221357
O O8 0.143697 0.695087 0.507110
O O9 0.473815 0.347987 0.022714
O O10 0.000000 0.250000 0.005634
O O11 0.000000 0.306853 0.250000
#
# Coordination Sequence:
#
# PCOD9509887 Si02
#       5
#    16   8  16  16  16
#     4  11  27  49  78 109 149 195 252 324 386 456
#     4  10  26  50  76 106 150 186 250 318 394 450
#     4  12  26  47  70 109 153 197 245 299 369 457
#     4  12  28  42  77 106 145 197 249 301 378 453
#     4  11  25  45  71 104 150 194 241 303 365 439
#
# _framework density 23.228776
#
# number of rings (size 3 to 8) (size 9 to 14) (size 15 to 20)
#    0.000    0.667    2.222    3.333   14.000    1.778 
#    0.000    0.000    0.000    0.000    0.000    0.000 
#    0.000    0.000    0.000    0.000    0.000    0.000 
#
# Total GULP energy -201025.927393 kJ/mol
# GULP energy per Si atom -5584.053539 kJ/mol
# Density = 2.317591 g / cm^3
# Si number density = 23.228776 Si / 1000 Ang^3
#
#
#
# Elastic Constant Matrix: (Units=GPa)
#
#
# Indices 1 2 3 4 5 6 
#
# 1 123.4352 39.3861 32.0069 0.0000 0.0000 0.0000
# 2 39.3861 92.1563 28.5405 0.0000 0.0000 0.0000
# 3 32.0069 28.5405 116.0866 0.0000 0.0000 0.0000
# 4 0.0000 0.0000 0.0000 90.6690 0.0000 0.0000
# 5 0.0000 0.0000 0.0000 0.0000 38.7522 0.0000
# 6 0.0000 0.0000 0.0000 0.0000 0.0000 28.7085
#
#
#
# Elastic Compliance Matrix: (Units=1/GPa)
#
#
# Indices 1 2 3 4 5 6 
#
# 1 0.009714 -0.003596 -0.001794 0.000000 0.000000 0.000000
# 2 -0.003596 0.013077 -0.002223 0.000000 0.000000 0.000000
# 3 -0.001794 -0.002223 0.009656 0.000000 0.000000 0.000000
# 4 0.000000 0.000000 0.000000 0.011029 0.000000 0.000000
# 5 0.000000 0.000000 0.000000 0.000000 0.025805 0.000000
# 6 0.000000 0.000000 0.000000 0.000000 0.000000 0.034833
#
#
# Mechanical properties :
#
#
# Convention : Reuss Voigt Hill
#
# Bulk Modulus (GPa) = 58.07571 59.06058 58.56815
# Shear Modulus (GPa) = 39.97431 47.07557 43.52494
#
# Velocity S-wave (km/s) = 4.15287 4.50667 4.33338
# Velocity P-wave (km/s) = 6.93188 7.24989 7.09267
#
# Compressibility (1/GPa) = 0.01721890
#
# Stress axis : x y z
#
# Youngs Moduli (GPa) = 102.94336 76.47255 103.56666
#
# Poissons Ratio (x) = 0.27499 0.18582
# Poissons Ratio (y) = 0.37018 0.23028
# Poissons Ratio (z) = 0.18471 0.17004
#
# Static dielectric constant tensor:
#      x y z
#    x 1.908220 0.000000 0.000000 
#    y 0.000000 1.880600 0.000000 
#    z 0.000000 0.000000 1.908870 
# 
# From -- ./inp_files/5234.got.cif
#   From: 2010.05.17/outbox.cif.g08.bks.cpg/sg68_3_cif.got.tgz:5234.got - 2010.06.03 18:57:09.
