data_PCOD9509531
_publ_section_title
;
Structure prediction by ZEFSAII (Michael W. Deem and Ramdas Pophale) SiO2 
 PCOD9509531
Probable space group: C C C A
;
_chemical_formula_sum "Si O2"
_cell_formula_units_Z 72
_cell_length_a 21.985796
_cell_length_b 9.488014
_cell_length_c 16.295836
_cell_angle_alpha 90.000000
_cell_angle_beta 90.000000
_cell_angle_gamma 90.000000
_cell_volume 3399.336489
_symmetry_space_group_name_H-M "C C C A"
_symmetry_group_IT_number 68
_space_group.IT_coordinate_system_code '2'
_symmetry_cell_setting 'orthorhombic'
loop_
_space_group_symop_operation_xyz
x,y,z
-x,1/2-y,z
x,1/2-y,1/2-z
-x,y,1/2-z
-x,-y,-z
x,1/2+y,-z
-x,1/2+y,1/2+z
x,-y,1/2+z
1/2+x,1/2+y,z
1/2-x,-y,z
1/2+x,-y,1/2-z
1/2-x,1/2+y,1/2-z
1/2-x,1/2-y,-z
1/2+x,y,-z
1/2-x,y,1/2+z
1/2+x,1/2-y,1/2+z
loop_
_atom_site_type_symbol
_atom_site_label
_atom_site_fract_x
_atom_site_fract_y
_atom_site_fract_z
Si Si1 0.250000 0.000000 0.367763
Si Si2 0.887244 0.250000 0.250000
Si Si3 0.867837 0.570069 0.481340
Si Si4 0.176888 0.003636 0.658338
Si Si5 0.934251 0.313454 0.431793
Si Si6 0.210755 0.250000 0.750000
O O1 0.309824 0.029620 0.423595
O O2 0.247220 0.858672 0.310176
O O3 0.849379 0.115173 0.281901
O O4 0.921701 0.289556 0.334414
O O5 0.850717 0.513404 0.570464
O O6 0.923726 0.478313 0.447712
O O7 0.887440 0.728527 0.507520
O O8 0.250000 0.000000 0.650371
O O9 0.166980 0.155684 0.695315
O O10 0.000000 0.250000 0.449575
#
# Coordination Sequence:
#
# PCOD9509531 Si02
#       6
#     8   8  16  16  16   8
#     4  12  26  42  60 100 128 170 204 260 334 386
#     4  10  24  42  67  92 124 171 217 263 316 368
#     4  11  25  40  67  92 132 166 211 264 321 381
#     4  11  22  39  60  96 132 167 202 257 325 388
#     4  11  24  45  66  93 125 174 222 264 307 367
#     4  12  25  34  61  86 138 167 200 247 306 402
#
# _framework density 21.180603999999999
#
# number of rings (size 3 to 8) (size 9 to 14) (size 15 to 20)
#    0.000    0.889    2.222    4.333    6.222    1.778 
#    0.000    0.000    0.000    0.000    0.000    9.333 
#    0.000    0.000    0.000    0.000    0.000    0.000 
#
# Total GULP energy -200633.290512 kJ/mol
# GULP energy per Si atom -5573.146959 kJ/mol
# Density = 2.113240 g / cm^3
# Si number density = 21.180604 Si / 1000 Ang^3
#
#
#
# Elastic Constant Matrix: (Units=GPa)
#
#
# Indices 1 2 3 4 5 6 
#
# 1 59.0124 7.8051 31.5379 0.0000 0.0000 0.0000
# 2 7.8051 118.7553 52.5256 0.0000 0.0000 0.0000
# 3 31.5379 52.5256 114.5987 0.0000 0.0000 0.0000
# 4 0.0000 0.0000 0.0000 24.7902 0.0000 0.0000
# 5 0.0000 0.0000 0.0000 0.0000 -3.0218 0.0000
# 6 0.0000 0.0000 0.0000 0.0000 0.0000 17.3258
#
#
#
# Elastic Compliance Matrix: (Units=1/GPa)
#
#
# Indices 1 2 3 4 5 6 
#
# 1 0.020054 0.001409 -0.006164 0.000000 0.000000 0.000000
# 2 0.001409 0.010661 -0.005274 0.000000 0.000000 0.000000
# 3 -0.006164 -0.005274 0.012840 0.000000 0.000000 0.000000
# 4 0.000000 0.000000 0.000000 0.040338 0.000000 0.000000
# 5 0.000000 0.000000 0.000000 0.000000 -0.330926 0.000000
# 6 0.000000 0.000000 0.000000 0.000000 0.000000 0.057717
#
#
# Mechanical properties :
#
#
# Convention : Reuss Voigt Hill
#
# Bulk Modulus (GPa) = 42.56284 52.90041 47.73162
# Shear Modulus (GPa) = -30.97432 21.18535 -4.89449
#
# Velocity S-wave (km/s) = -3.82827 3.16606 -1.52179
# Velocity P-wave (km/s) = 0.77327 6.19640 4.41550
#
# Compressibility (1/GPa) = 0.02349467
#
# Stress axis : x y z
#
# Youngs Moduli (GPa) = 49.86602 93.80188 77.88263
#
# Poissons Ratio (x) = -0.13212 0.48010
# Poissons Ratio (y) = -0.07024 0.41075
# Poissons Ratio (z) = 0.30740 0.49470
#
# Static dielectric constant tensor:
#      x y z
#    x 1.815030 0.000000 0.000000 
#    y 0.000000 -4.622790 0.000000 
#    z 0.000000 0.000000 1.767570 
# 
# From -- ./inp_files/25874.got.cif
#   From: 2010.05.17/outbox.cif.g08.bks.cpg/sg68_13_cif.got.tgz:25874.got - 2010.06.03 18:57:09.
