data_PCOD9509759
_publ_section_title
;
Structure prediction by ZEFSAII (Michael W. Deem and Ramdas Pophale) SiO2 
 PCOD9509759
Probable space group: C C C A
;
_chemical_formula_sum "Si O2"
_cell_formula_units_Z 64
_cell_length_a 9.767338
_cell_length_b 27.323564
_cell_length_c 9.284207
_cell_angle_alpha 90.000000
_cell_angle_beta 90.000000
_cell_angle_gamma 90.000000
_cell_volume 2477.755098
_symmetry_space_group_name_H-M "C C C A"
_symmetry_group_IT_number 68
_space_group.IT_coordinate_system_code '2'
_symmetry_cell_setting 'orthorhombic'
loop_
_space_group_symop_operation_xyz
x,y,z
-x,1/2-y,z
x,1/2-y,1/2-z
-x,y,1/2-z
-x,-y,-z
x,1/2+y,-z
-x,1/2+y,1/2+z
x,-y,1/2+z
1/2+x,1/2+y,z
1/2-x,-y,z
1/2+x,-y,1/2-z
1/2-x,1/2+y,1/2-z
1/2-x,1/2-y,-z
1/2+x,y,-z
1/2-x,y,1/2+z
1/2+x,1/2-y,1/2+z
loop_
_atom_site_type_symbol
_atom_site_label
_atom_site_fract_x
_atom_site_fract_y
_atom_site_fract_z
Si Si1 0.731780 0.812185 0.541948
Si Si2 0.684484 0.750000 0.250000
Si Si3 0.500000 0.667917 0.750000
Si Si4 0.250000 0.000000 0.651659
Si Si5 0.000000 0.939466 0.750000
Si Si6 0.368253 0.596954 0.983345
O O1 0.729255 0.786401 0.386787
O O2 0.861129 0.792146 0.636983
O O3 0.602008 0.800856 0.646683
O O4 0.743509 0.870384 0.541516
O O5 0.419441 0.631072 0.854525
O O6 0.322589 0.956602 0.564199
O O7 0.132961 0.973219 0.740869
O O8 0.980784 0.908159 0.607181
#
# Coordination Sequence:
#
# PCOD9509759 Si02
#       6
#    16   8   8   8   8  16
#     4  11  24  49  74 113 154 202 260 330 394 485
#     4  10  24  49  77 106 154 196 260 326 398 470
#     4  12  25  45  78 107 154 203 254 323 407 472
#     4  12  26  50  76 116 158 210 272 338 406 494
#     4  12  27  46  80 114 156 214 272 328 409 488
#     4  12  26  47  75 113 156 204 263 332 401 486
#
# _framework density 25.829834000000002
#
# number of rings (size 3 to 8) (size 9 to 14) (size 15 to 20)
#    0.000    0.500    2.500    5.250    3.500    0.500 
#    0.000    1.250    0.000    0.000    0.000    0.000 
#    0.000    0.000    0.000    0.000    0.000    0.000 
#
# Total GULP energy -178420.809791 kJ/mol
# GULP energy per Si atom -5575.650306 kJ/mol
# Density = 2.577104 g / cm^3
# Si number density = 25.829834 Si / 1000 Ang^3
#
#
#
# Elastic Constant Matrix: (Units=GPa)
#
#
# Indices 1 2 3 4 5 6 
#
# 1 88.7855 16.2269 54.3458 0.0000 0.0000 0.0000
# 2 16.2269 127.8308 51.6595 0.0000 0.0000 0.0000
# 3 54.3458 51.6595 186.0469 0.0000 0.0000 0.0000
# 4 0.0000 0.0000 0.0000 60.2996 0.0000 0.0000
# 5 0.0000 0.0000 0.0000 0.0000 -41.9658 0.0000
# 6 0.0000 0.0000 0.0000 0.0000 0.0000 8.4367
#
#
#
# Elastic Compliance Matrix: (Units=1/GPa)
#
#
# Indices 1 2 3 4 5 6 
#
# 1 0.013718 -0.000137 -0.003969 0.000000 0.000000 0.000000
# 2 -0.000137 0.008813 -0.002407 0.000000 0.000000 0.000000
# 3 -0.003969 -0.002407 0.007203 0.000000 0.000000 0.000000
# 4 0.000000 0.000000 0.000000 0.016584 0.000000 0.000000
# 5 0.000000 0.000000 0.000000 0.000000 -0.023829 0.000000
# 6 0.000000 0.000000 0.000000 0.000000 0.000000 0.118530
#
#
# Mechanical properties :
#
#
# Convention : Reuss Voigt Hill
#
# Bulk Modulus (GPa) = 59.85594 71.90306 65.87950
# Shear Modulus (GPa) = 31.32560 24.04950 27.68755
#
# Velocity S-wave (km/s) = 3.48626 3.05466 3.27757
# Velocity P-wave (km/s) = 6.27924 6.35129 6.31537
#
# Compressibility (1/GPa) = 0.01670678
#
# Stress axis : x y z
#
# Youngs Moduli (GPa) = 72.89923 113.46879 138.83745
#
# Poissons Ratio (x) = 0.01559 0.55103
# Poissons Ratio (y) = 0.01002 0.33418
# Poissons Ratio (z) = 0.28933 0.27312
#
# Static dielectric constant tensor:
#      x y z
#    x 2.410350 0.000000 0.000000 
#    y 0.000000 1.982990 0.000000 
#    z 0.000000 0.000000 2.825200 
# 
# From -- ./inp_files/4134.got.cif
#   From: 2010.05.17/outbox.cif.g08.bks.cpg/sg68_3_cif.got.tgz:4134.got - 2010.06.03 18:57:09.
