data_PCOD9509677
_publ_section_title
;
Structure prediction by ZEFSAII (Michael W. Deem and Ramdas Pophale) SiO2 
 PCOD9509677
Probable space group: C C C A
;
_chemical_formula_sum "Si O2"
_cell_formula_units_Z 60
_cell_length_a 10.472060
_cell_length_b 29.098348
_cell_length_c 9.226680
_cell_angle_alpha 90.000000
_cell_angle_beta 90.000000
_cell_angle_gamma 90.000000
_cell_volume 2811.550665
_symmetry_space_group_name_H-M "C C C A"
_symmetry_group_IT_number 68
_space_group.IT_coordinate_system_code '2'
_symmetry_cell_setting 'orthorhombic'
loop_
_space_group_symop_operation_xyz
x,y,z
-x,1/2-y,z
x,1/2-y,1/2-z
-x,y,1/2-z
-x,-y,-z
x,1/2+y,-z
-x,1/2+y,1/2+z
x,-y,1/2+z
1/2+x,1/2+y,z
1/2-x,-y,z
1/2+x,-y,1/2-z
1/2-x,1/2+y,1/2-z
1/2-x,1/2-y,-z
1/2+x,y,-z
1/2-x,y,1/2+z
1/2+x,1/2-y,1/2+z
loop_
_atom_site_type_symbol
_atom_site_label
_atom_site_fract_x
_atom_site_fract_y
_atom_site_fract_z
Si Si1 0.354794 0.141407 0.774024
Si Si2 0.643609 0.562247 0.755947
Si Si3 0.797918 0.298924 0.555171
Si Si4 0.500000 0.250000 0.250000
Si Si5 0.750000 0.000000 0.997307
O O1 0.500000 0.125653 0.750000
O O2 0.252549 0.100519 0.770447
O O3 0.311785 0.176075 0.647081
O O4 0.341036 0.168565 0.924621
O O5 0.500000 0.581151 0.750000
O O6 0.673025 0.533594 0.610017
O O7 0.659901 0.528903 0.894636
O O8 0.750000 0.250000 0.500000
O O9 0.914008 0.284362 0.656826
#
# Coordination Sequence:
#
# PCOD9509677 Si02
#       5
#    16  16  16   4   8
#     4  12  28  45  68 105 145 181 235 291 350 415
#     4  11  25  45  74 103 139 182 230 285 345 417
#     4  12  25  46  72  99 140 188 238 288 350 411
#     4  12  24  44  76 100 132 192 240 288 348 408
#     4  10  24  46  72 104 138 178 230 286 348 412
#
# _framework density 21.340536
#
# number of rings (size 3 to 8) (size 9 to 14) (size 15 to 20)
#    0.000    0.533    2.667    4.000    1.867   11.733 
#    0.000    0.000    0.000    0.000    0.000    0.000 
#    0.000    0.000    0.000    0.000    0.000    0.000 
#
# Total GULP energy -167992.279745 kJ/mol
# GULP energy per Si atom -5599.742658 kJ/mol
# Density = 2.129196 g / cm^3
# Si number density = 21.340536 Si / 1000 Ang^3
#
#
#
# Elastic Constant Matrix: (Units=GPa)
#
#
# Indices 1 2 3 4 5 6 
#
# 1 204.6689 79.9248 64.9366 0.0000 0.0000 0.0000
# 2 79.9248 124.7325 55.7269 0.0000 0.0000 0.0000
# 3 64.9366 55.7269 140.6241 0.0000 0.0000 0.0000
# 4 0.0000 0.0000 0.0000 -1.4597 0.0000 0.0000
# 5 0.0000 0.0000 0.0000 0.0000 51.2806 0.0000
# 6 0.0000 0.0000 0.0000 0.0000 0.0000 33.4435
#
#
#
# Elastic Compliance Matrix: (Units=1/GPa)
#
#
# Indices 1 2 3 4 5 6 
#
# 1 0.006846 -0.003614 -0.001729 0.000000 0.000000 0.000000
# 2 -0.003614 0.011650 -0.002948 0.000000 0.000000 0.000000
# 3 -0.001729 -0.002948 0.009078 0.000000 0.000000 0.000000
# 4 0.000000 0.000000 0.000000 -0.685052 0.000000 0.000000
# 5 0.000000 0.000000 0.000000 0.000000 0.019501 0.000000
# 6 0.000000 0.000000 0.000000 0.000000 0.000000 0.029901
#
#
# Mechanical properties :
#
#
# Convention : Reuss Voigt Hill
#
# Bulk Modulus (GPa) = 90.97775 96.80023 93.88899
# Shear Modulus (GPa) = -8.50585 34.61534 13.05475
#
# Velocity S-wave (km/s) = -1.99861 4.03183 2.47601
# Velocity P-wave (km/s) = 6.11540 8.19344 7.22947
#
# Compressibility (1/GPa) = 0.01099170
#
# Stress axis : x y z
#
# Youngs Moduli (GPa) = 146.07338 85.83712 110.15982
#
# Poissons Ratio (x) = 0.31023 0.19047
# Poissons Ratio (y) = 0.52793 0.32472
# Poissons Ratio (z) = 0.25256 0.25303
#
# Static dielectric constant tensor:
#      x y z
#    x 1.734010 0.000000 0.000000 
#    y 0.000000 1.741550 0.000000 
#    z 0.000000 0.000000 1.741480 
# 
# From -- ./inp_files/3941.got.cif
#   From: 2010.05.17/outbox.cif.g08.bks.cpg/sg68_2_cif.got.tgz:3941.got - 2010.06.03 18:57:09.
