data_PCOD9509987
_publ_section_title
;
Structure prediction by ZEFSAII (Michael W. Deem and Ramdas Pophale) SiO2 
 PCOD9509987
Probable space group: C C C A
;
_chemical_formula_sum "Si O2"
_cell_formula_units_Z 112
_cell_length_a 12.835241
_cell_length_b 27.866756
_cell_length_c 13.664686
_cell_angle_alpha 90.000000
_cell_angle_beta 90.000000
_cell_angle_gamma 90.000000
_cell_volume 4887.537460
_symmetry_space_group_name_H-M "C C C A"
_symmetry_group_IT_number 68
_space_group.IT_coordinate_system_code '2'
_symmetry_cell_setting 'orthorhombic'
loop_
_space_group_symop_operation_xyz
x,y,z
-x,1/2-y,z
x,1/2-y,1/2-z
-x,y,1/2-z
-x,-y,-z
x,1/2+y,-z
-x,1/2+y,1/2+z
x,-y,1/2+z
1/2+x,1/2+y,z
1/2-x,-y,z
1/2+x,-y,1/2-z
1/2-x,1/2+y,1/2-z
1/2-x,1/2-y,-z
1/2+x,y,-z
1/2-x,y,1/2+z
1/2+x,1/2-y,1/2+z
loop_
_atom_site_type_symbol
_atom_site_label
_atom_site_fract_x
_atom_site_fract_y
_atom_site_fract_z
Si Si1 0.105951 0.142674 0.814579
Si Si2 0.294082 0.946271 0.528851
Si Si3 0.514421 0.950308 0.633461
Si Si4 0.157626 0.964300 0.824971
Si Si5 0.118902 0.260244 0.573319
Si Si6 0.175223 0.721160 0.850816
Si Si7 0.808896 0.384629 0.185881
O O1 0.076102 0.098477 0.885688
O O2 0.141225 0.188026 0.878438
O O3 0.201443 0.125689 0.745984
O O4 0.000000 0.153117 0.750000
O O5 0.406428 0.948102 0.578998
O O6 0.301736 0.933714 0.415641
O O7 0.224533 0.908669 0.585336
O O8 0.250000 0.000000 0.535405
O O9 0.500000 0.948512 0.750000
O O10 0.574591 0.000320 0.624667
O O11 0.128597 0.926518 0.742411
O O12 0.250000 0.000000 0.787782
O O13 0.130713 0.259873 0.454881
O O14 0.200431 0.224169 0.624726
O O15 0.000000 0.250000 0.597579
O O16 0.154826 0.750000 0.750000
O O17 0.140166 0.666712 0.831702
#
# Coordination Sequence:
#
# PCOD9509987 Si02
#       7
#    16  16  16  16  16  16  16
#     4  11  21  38  69 101 129 170 229 287 329 391
#     4  11  24  39  65  92 131 179 219 272 331 391
#     4  11  20  39  63  94 133 173 221 273 326 392
#     4  11  23  38  62  92 134 175 218 270 327 398
#     4  11  26  45  74 105 136 176 232 284 351 413
#     4  11  26  46  74 102 139 179 224 285 348 426
#     4  12  22  40  66  96 132 172 220 276 338 387
#
# _framework density 22.915424999999999
#
# number of rings (size 3 to 8) (size 9 to 14) (size 15 to 20)
#    0.000    0.857    5.714    2.571    2.000    0.286 
#    0.000    1.429    3.143    0.000    0.000    0.000 
#    0.000    0.000    0.000    0.000    0.000    0.000 
#
# Total GULP energy -313096.758221 kJ/mol
# GULP energy per Si atom -5591.013540 kJ/mol
# Density = 2.286327 g / cm^3
# Si number density = 22.915425 Si / 1000 Ang^3
#
#
#
# Elastic Constant Matrix: (Units=GPa)
#
#
# Indices 1 2 3 4 5 6 
#
# 1 44.8019 -11.9353 -6.0811 0.0000 0.0000 0.0000
# 2 -11.9353 88.5081 44.5878 0.0000 0.0000 0.0000
# 3 -6.0811 44.5878 101.4810 0.0000 0.0000 0.0000
# 4 0.0000 0.0000 0.0000 31.2566 0.0000 0.0000
# 5 0.0000 0.0000 0.0000 0.0000 18.4600 0.0000
# 6 0.0000 0.0000 0.0000 0.0000 0.0000 23.6479
#
#
#
# Elastic Compliance Matrix: (Units=1/GPa)
#
#
# Indices 1 2 3 4 5 6 
#
# 1 0.023152 0.003112 0.000020 0.000000 0.000000 0.000000
# 2 0.003112 0.014928 -0.006373 0.000000 0.000000 0.000000
# 3 0.000020 -0.006373 0.012655 0.000000 0.000000 0.000000
# 4 0.000000 0.000000 0.000000 0.031993 0.000000 0.000000
# 5 0.000000 0.000000 0.000000 0.000000 0.054171 0.000000
# 6 0.000000 0.000000 0.000000 0.000000 0.000000 0.042287
#
#
# Mechanical properties :
#
#
# Convention : Reuss Voigt Hill
#
# Bulk Modulus (GPa) = 22.59648 31.99264 27.29456
# Shear Modulus (GPa) = 24.94759 28.55420 26.75090
#
# Velocity S-wave (km/s) = 3.30310 3.53380 3.42039
# Velocity P-wave (km/s) = 4.94262 5.53550 5.24744
#
# Compressibility (1/GPa) = 0.04425468
#
# Stress axis : x y z
#
# Youngs Moduli (GPa) = 43.19236 66.98650 79.01891
#
# Poissons Ratio (x) = -0.20846 -0.00158
# Poissons Ratio (y) = -0.13441 0.50356
# Poissons Ratio (z) = -0.00087 0.42688
#
# Static dielectric constant tensor:
#      x y z
#    x 1.936290 0.000000 0.000000 
#    y 0.000000 1.903530 0.000000 
#    z 0.000000 0.000000 1.851860 
# 
# From -- ./inp_files/22596.got.cif
#   From: 2010.05.17/outbox.cif.g08.bks.cpg/sg68_12_cif.got.tgz:22596.got - 2010.06.03 18:57:09.
