data_PCOD9509505
_publ_section_title
;
Structure prediction by ZEFSAII (Michael W. Deem and Ramdas Pophale) SiO2 
 PCOD9509505
Probable space group: C C C A
;
_chemical_formula_sum "Si O2"
_cell_formula_units_Z 64
_cell_length_a 14.205370
_cell_length_b 11.464055
_cell_length_c 18.836170
_cell_angle_alpha 90.000000
_cell_angle_beta 90.000000
_cell_angle_gamma 90.000000
_cell_volume 3067.491814
_symmetry_space_group_name_H-M "C C C A"
_symmetry_group_IT_number 68
_space_group.IT_coordinate_system_code '2'
_symmetry_cell_setting 'orthorhombic'
loop_
_space_group_symop_operation_xyz
x,y,z
-x,1/2-y,z
x,1/2-y,1/2-z
-x,y,1/2-z
-x,-y,-z
x,1/2+y,-z
-x,1/2+y,1/2+z
x,-y,1/2+z
1/2+x,1/2+y,z
1/2-x,-y,z
1/2+x,-y,1/2-z
1/2-x,1/2+y,1/2-z
1/2-x,1/2-y,-z
1/2+x,y,-z
1/2-x,y,1/2+z
1/2+x,1/2-y,1/2+z
loop_
_atom_site_type_symbol
_atom_site_label
_atom_site_fract_x
_atom_site_fract_y
_atom_site_fract_z
Si Si1 0.750000 0.500000 0.597905
Si Si2 0.368332 0.365544 0.296038
Si Si3 0.500000 0.250000 0.403111
Si Si4 0.000000 0.945718 0.750000
Si Si5 0.500000 0.750000 0.368748
Si Si6 0.349380 0.689131 0.481140
O O1 0.715262 0.599570 0.651712
O O2 0.672654 0.440602 0.547641
O O3 0.351245 0.250000 0.250000
O O4 0.453452 0.342023 0.350487
O O5 0.406745 0.473361 0.250234
O O6 0.581496 0.304515 0.451644
O O7 0.004015 0.862468 0.681687
O O8 0.408309 0.752486 0.419012
O O9 0.250000 0.750000 0.500000
#
# Coordination Sequence:
#
# PCOD9509505 Si02
#       6
#     8  16   8   8   8  16
#     4  12  26  44  66 104 140 174 234 294 342 412
#     4  12  24  44  70 100 136 180 228 286 346 410
#     4  11  23  43  71  95 133 182 232 270 345 411
#     4  11  21  42  70 100 133 177 228 286 346 405
#     4  10  24  41  71 104 136 180 230 280 352 404
#     4  11  24  43  65  99 138 177 227 284 340 412
#
# _framework density 20.863952999999999
#
# number of rings (size 3 to 8) (size 9 to 14) (size 15 to 20)
#    0.000    0.750    7.500    0.000    0.000    5.000 
#    0.000    0.000    0.000    0.000    0.000    0.000 
#    0.000    0.000    0.000    0.000    0.000    0.000 
#
# Total GULP energy -178749.201915 kJ/mol
# GULP energy per Si atom -5585.912560 kJ/mol
# Density = 2.081647 g / cm^3
# Si number density = 20.863953 Si / 1000 Ang^3
#
#
#
# Elastic Constant Matrix: (Units=GPa)
#
#
# Indices 1 2 3 4 5 6 
#
# 1 98.2280 24.7885 48.3087 0.0000 0.0000 0.0000
# 2 24.7885 97.4760 45.2972 0.0000 0.0000 0.0000
# 3 48.3087 45.2972 113.6615 0.0000 0.0000 0.0000
# 4 0.0000 0.0000 0.0000 13.2386 0.0000 0.0000
# 5 0.0000 0.0000 0.0000 0.0000 25.7741 0.0000
# 6 0.0000 0.0000 0.0000 0.0000 0.0000 32.4133
#
#
#
# Elastic Compliance Matrix: (Units=1/GPa)
#
#
# Indices 1 2 3 4 5 6 
#
# 1 0.012935 -0.000902 -0.005138 0.000000 0.000000 0.000000
# 2 -0.000902 0.012654 -0.004660 0.000000 0.000000 0.000000
# 3 -0.005138 -0.004660 0.012839 0.000000 0.000000 0.000000
# 4 0.000000 0.000000 0.000000 0.075537 0.000000 0.000000
# 5 0.000000 0.000000 0.000000 0.000000 0.038799 0.000000
# 6 0.000000 0.000000 0.000000 0.000000 0.000000 0.030852
#
#
# Mechanical properties :
#
#
# Convention : Reuss Voigt Hill
#
# Bulk Modulus (GPa) = 58.72549 60.68381 59.70465
# Shear Modulus (GPa) = 23.73161 27.01662 25.37411
#
# Velocity S-wave (km/s) = 3.37626 3.60237 3.49115
# Velocity P-wave (km/s) = 6.58839 6.81552 6.70292
#
# Compressibility (1/GPa) = 0.01702838
#
# Stress axis : x y z
#
# Youngs Moduli (GPa) = 77.30983 79.02935 77.88818
#
# Poissons Ratio (x) = 0.07125 0.40022
# Poissons Ratio (y) = 0.06970 0.36292
# Poissons Ratio (z) = 0.39724 0.36824
#
# Static dielectric constant tensor:
#      x y z
#    x 1.830690 0.000000 0.000000 
#    y 0.000000 1.959170 0.000000 
#    z 0.000000 0.000000 1.745760 
# 
# From -- ./inp_files/29226.got.cif
#   From: 2010.05.17/outbox.cif.g08.bks.cpg/sg68_15_cif.got.tgz:29226.got - 2010.06.03 18:57:09.
