data_PCOD9509250
_publ_section_title
;
Structure prediction by ZEFSAII (Michael W. Deem and Ramdas Pophale) SiO2 
 PCOD9509250
Probable space group: C C C A
;
_chemical_formula_sum "Si O2"
_cell_formula_units_Z 96
_cell_length_a 16.749792
_cell_length_b 19.045497
_cell_length_c 13.904769
_cell_angle_alpha 90.000000
_cell_angle_beta 90.000000
_cell_angle_gamma 90.000000
_cell_volume 4435.734124
_symmetry_space_group_name_H-M "C C C A"
_symmetry_group_IT_number 68
_space_group.IT_coordinate_system_code '2'
_symmetry_cell_setting 'orthorhombic'
loop_
_space_group_symop_operation_xyz
x,y,z
-x,1/2-y,z
x,1/2-y,1/2-z
-x,y,1/2-z
-x,-y,-z
x,1/2+y,-z
-x,1/2+y,1/2+z
x,-y,1/2+z
1/2+x,1/2+y,z
1/2-x,-y,z
1/2+x,-y,1/2-z
1/2-x,1/2+y,1/2-z
1/2-x,1/2-y,-z
1/2+x,y,-z
1/2-x,y,1/2+z
1/2+x,1/2-y,1/2+z
loop_
_atom_site_type_symbol
_atom_site_label
_atom_site_fract_x
_atom_site_fract_y
_atom_site_fract_z
Si Si1 0.090224 0.027107 0.211721
Si Si2 0.683486 0.334098 0.404994
Si Si3 0.658288 0.019087 0.993218
Si Si4 0.406346 0.368369 0.276928
Si Si5 0.861179 0.882610 0.622890
Si Si6 0.916903 0.787922 0.472813
O O1 0.101817 0.030243 0.098042
O O2 0.131577 0.090651 0.268357
O O3 0.000000 0.028832 0.250000
O O4 0.122174 0.948899 0.234306
O O5 0.656363 0.408449 0.449021
O O6 0.642161 0.324774 0.301413
O O7 0.777301 0.344086 0.392963
O O8 0.651506 0.271197 0.470422
O O9 0.750000 0.000000 0.962716
O O10 0.634161 0.954594 0.061290
O O11 0.500000 0.365160 0.250000
O O12 0.397451 0.341701 0.385805
O O13 0.923021 0.829729 0.573037
O O14 0.000000 0.750000 0.450592
#
# Coordination Sequence:
#
# PCOD9509250 Si02
#       6
#    16  16  16  16  16  16
#     4  11  25  40  70 101 133 175 235 283 346 399
#     4  11  24  41  70 101 139 175 229 278 352 404
#     4  10  23  42  68  98 136 177 225 282 343 409
#     4  11  22  40  67 108 132 168 225 296 336 397
#     4  11  25  45  67  99 137 182 226 282 335 416
#     4  12  25  43  71 100 143 180 227 280 347 406
#
# _framework density 21.642415
#
# number of rings (size 3 to 8) (size 9 to 14) (size 15 to 20)
#    0.000    1.000    5.000    1.000    4.667    0.667 
#    0.000    2.500    0.000    0.000    0.000    0.000 
#    0.000    0.000    0.000    0.000    0.000    0.000 
#
# Total GULP energy -268257.579508 kJ/mol
# GULP energy per Si atom -5588.699573 kJ/mol
# Density = 2.159316 g / cm^3
# Si number density = 21.642415 Si / 1000 Ang^3
#
#
#
# Elastic Constant Matrix: (Units=GPa)
#
#
# Indices 1 2 3 4 5 6 
#
# 1 29.3948 23.5183 14.1605 0.0000 0.0000 0.0000
# 2 23.5183 90.0994 -0.2973 0.0000 0.0000 0.0000
# 3 14.1605 -0.2973 54.2390 0.0000 0.0000 0.0000
# 4 0.0000 0.0000 0.0000 38.9005 0.0000 0.0000
# 5 0.0000 0.0000 0.0000 0.0000 20.1773 0.0000
# 6 0.0000 0.0000 0.0000 0.0000 0.0000 22.7945
#
#
#
# Elastic Compliance Matrix: (Units=1/GPa)
#
#
# Indices 1 2 3 4 5 6 
#
# 1 0.051234 -0.013418 -0.013450 0.000000 0.000000 0.000000
# 2 -0.013418 0.014613 0.003583 0.000000 0.000000 0.000000
# 3 -0.013450 0.003583 0.021968 0.000000 0.000000 0.000000
# 4 0.000000 0.000000 0.000000 0.025707 0.000000 0.000000
# 5 0.000000 0.000000 0.000000 0.000000 0.049561 0.000000
# 6 0.000000 0.000000 0.000000 0.000000 0.000000 0.043870
#
#
# Mechanical properties :
#
#
# Convention : Reuss Voigt Hill
#
# Bulk Modulus (GPa) = 24.24435 27.61067 25.92751
# Shear Modulus (GPa) = 18.70768 25.46458 22.08613
#
# Velocity S-wave (km/s) = 2.94326 3.43389 3.19800
# Velocity P-wave (km/s) = 4.77252 5.33924 5.06381
#
# Compressibility (1/GPa) = 0.04124672
#
# Stress axis : x y z
#
# Youngs Moduli (GPa) = 19.51825 68.43185 45.52087
#
# Poissons Ratio (x) = 0.91821 0.61224
# Poissons Ratio (y) = 0.26189 -0.16311
# Poissons Ratio (z) = 0.26251 -0.24520
#
# Static dielectric constant tensor:
#      x y z
#    x 1.791940 0.000000 0.000000 
#    y 0.000000 1.780720 0.000000 
#    z 0.000000 0.000000 1.821330 
# 
# From -- ./inp_files/15573.got.cif
#   From: 2010.05.17/outbox.cif.g08.bks.cpg/sg68_8_cif.got.tgz:15573.got - 2010.06.03 18:57:09.
