data_PCOD9509214
_publ_section_title
;
Structure prediction by ZEFSAII (Michael W. Deem and Ramdas Pophale) SiO2 
 PCOD9509214
Probable space group: C C C A
;
_chemical_formula_sum "Si O2"
_cell_formula_units_Z 72
_cell_length_a 8.238030
_cell_length_b 20.062052
_cell_length_c 21.762832
_cell_angle_alpha 90.000000
_cell_angle_beta 90.000000
_cell_angle_gamma 90.000000
_cell_volume 3596.782118
_symmetry_space_group_name_H-M "C C C A"
_symmetry_group_IT_number 68
_space_group.IT_coordinate_system_code '2'
_symmetry_cell_setting 'orthorhombic'
loop_
_space_group_symop_operation_xyz
x,y,z
-x,1/2-y,z
x,1/2-y,1/2-z
-x,y,1/2-z
-x,-y,-z
x,1/2+y,-z
-x,1/2+y,1/2+z
x,-y,1/2+z
1/2+x,1/2+y,z
1/2-x,-y,z
1/2+x,-y,1/2-z
1/2-x,1/2+y,1/2-z
1/2-x,1/2-y,-z
1/2+x,y,-z
1/2-x,y,1/2+z
1/2+x,1/2-y,1/2+z
loop_
_atom_site_type_symbol
_atom_site_label
_atom_site_fract_x
_atom_site_fract_y
_atom_site_fract_z
Si Si1 0.839751 0.780960 0.405611
Si Si2 0.405592 0.617284 0.465198
Si Si3 0.512202 0.101715 0.322633
Si Si4 0.750000 0.500000 0.112441
Si Si5 0.741324 0.365153 0.408131
O O1 0.712386 0.822174 0.445180
O O2 0.908024 0.830747 0.353046
O O3 0.755782 0.712023 0.386653
O O4 0.000000 0.750000 0.438999
O O5 0.335383 0.552315 0.432513
O O6 0.389871 0.616079 0.538530
O O7 0.586507 0.622658 0.439351
O O8 0.500000 0.106907 0.250000
O O9 0.623611 0.041038 0.345804
O O10 0.330742 0.095375 0.350588
#
# Coordination Sequence:
#
# PCOD9509214 Si02
#       5
#    16  16  16   8  16
#     4   9  19  37  60  88 120 157 198 251 311 366
#     4  11  22  38  60  92 125 158 207 258 317 375
#     4  10  23  42  63  87 119 164 207 249 302 366
#     4  10  24  42  60  86 124 162 208 260 304 366
#     4  11  22  36  62  90 121 160 200 258 319 370
#
# _framework density 20.017893000000001
#
# number of rings (size 3 to 8) (size 9 to 14) (size 15 to 20)
#    0.000    1.778    0.000    5.333    0.000   12.000 
#    0.000    3.333    0.000   10.667    0.000    0.000 
#    0.000    0.000    0.000    0.000    0.000    0.000 
#
# Total GULP energy -200787.875389 kJ/mol
# GULP energy per Si atom -5577.440983 kJ/mol
# Density = 1.997233 g / cm^3
# Si number density = 20.017893 Si / 1000 Ang^3
#
#
#
# Elastic Constant Matrix: (Units=GPa)
#
#
# Indices 1 2 3 4 5 6 
#
# 1 114.4522 48.2362 41.4898 0.0000 0.0000 0.0000
# 2 48.2362 95.8103 39.2971 0.0000 0.0000 0.0000
# 3 41.4898 39.2971 140.9582 0.0000 0.0000 0.0000
# 4 0.0000 0.0000 0.0000 10.9325 0.0000 0.0000
# 5 0.0000 0.0000 0.0000 0.0000 21.3001 0.0000
# 6 0.0000 0.0000 0.0000 0.0000 0.0000 14.9109
#
#
#
# Elastic Compliance Matrix: (Units=1/GPa)
#
#
# Indices 1 2 3 4 5 6 
#
# 1 0.011575 -0.005002 -0.002012 0.000000 0.000000 0.000000
# 2 -0.005002 0.013946 -0.002416 0.000000 0.000000 0.000000
# 3 -0.002012 -0.002416 0.008360 0.000000 0.000000 0.000000
# 4 0.000000 0.000000 0.000000 0.091471 0.000000 0.000000
# 5 0.000000 0.000000 0.000000 0.000000 0.046948 0.000000
# 6 0.000000 0.000000 0.000000 0.000000 0.000000 0.067065
#
#
# Mechanical properties :
#
#
# Convention : Reuss Voigt Hill
#
# Bulk Modulus (GPa) = 66.57369 67.69633 67.13501
# Shear Modulus (GPa) = 18.99460 24.24187 21.61824
#
# Velocity S-wave (km/s) = 3.08373 3.48373 3.28982
# Velocity P-wave (km/s) = 6.78296 7.07624 6.93115
#
# Compressibility (1/GPa) = 0.01502095
#
# Stress axis : x y z
#
# Youngs Moduli (GPa) = 86.39360 71.70300 119.61519
#
# Poissons Ratio (x) = 0.35866 0.24072
# Poissons Ratio (y) = 0.43214 0.28896
# Poissons Ratio (z) = 0.17387 0.17322
#
# Static dielectric constant tensor:
#      x y z
#    x 1.765500 0.000000 0.000000 
#    y 0.000000 1.748220 0.000000 
#    z 0.000000 0.000000 1.668490 
# 
# From -- ./inp_files/36024.got.cif
#   From: 2010.05.17/outbox.cif.g08.bks.cpg/sg68_19_cif.got.tgz:36024.got - 2010.06.03 18:57:09.
