data_PCOD9509346
_publ_section_title
;
Structure prediction by ZEFSAII (Michael W. Deem and Ramdas Pophale) SiO2 
 PCOD9509346
Probable space group: C C C A
;
_chemical_formula_sum "Si O2"
_cell_formula_units_Z 112
_cell_length_a 24.855017
_cell_length_b 16.360150
_cell_length_c 14.596878
_cell_angle_alpha 90.000000
_cell_angle_beta 90.000000
_cell_angle_gamma 90.000000
_cell_volume 5935.554869
_symmetry_space_group_name_H-M "C C C A"
_symmetry_group_IT_number 68
_space_group.IT_coordinate_system_code '2'
_symmetry_cell_setting 'orthorhombic'
loop_
_space_group_symop_operation_xyz
x,y,z
-x,1/2-y,z
x,1/2-y,1/2-z
-x,y,1/2-z
-x,-y,-z
x,1/2+y,-z
-x,1/2+y,1/2+z
x,-y,1/2+z
1/2+x,1/2+y,z
1/2-x,-y,z
1/2+x,-y,1/2-z
1/2-x,1/2+y,1/2-z
1/2-x,1/2-y,-z
1/2+x,y,-z
1/2-x,y,1/2+z
1/2+x,1/2-y,1/2+z
loop_
_atom_site_type_symbol
_atom_site_label
_atom_site_fract_x
_atom_site_fract_y
_atom_site_fract_z
Si Si1 0.897724 0.223833 0.851049
Si Si2 0.698875 0.839560 0.286850
Si Si3 0.636859 0.965513 0.407742
Si Si4 0.058709 0.062489 0.715836
Si Si5 0.624400 0.394436 0.392024
Si Si6 0.296955 0.628857 0.918940
Si Si7 0.748938 0.403981 0.390692
O O1 0.877270 0.250000 0.750000
O O2 0.941518 0.154592 0.827099
O O3 0.908725 0.309530 0.899983
O O4 0.851208 0.179334 0.906616
O O5 0.683847 0.750000 0.250000
O O6 0.656747 0.886758 0.351100
O O7 0.753579 0.839612 0.346327
O O8 0.713390 0.889860 0.196010
O O9 0.625025 0.943469 0.513061
O O10 0.585067 0.004100 0.359171
O O11 0.684127 0.034607 0.403174
O O12 0.098720 0.062464 0.803547
O O13 0.000000 0.039942 0.750000
O O14 0.687579 0.377057 0.372748
O O15 0.271801 0.638612 0.019028
O O16 0.750000 0.500000 0.410386
#
# Coordination Sequence:
#
# PCOD9509346 Si02
#       7
#    16  16  16  16  16  16  16
#     4   9  20  36  59  91 125 155 202 264 305 357
#     4  12  24  35  55  86 127 171 209 247 303 366
#     4  11  23  40  60  91 127 161 210 259 306 377
#     4  10  23  44  69  90 116 160 215 270 326 376
#     4  11  21  37  61  92 127 158 204 262 311 361
#     4  11  20  37  57  86 125 170 207 235 287 369
#     4  12  21  34  57  84 123 174 201 239 286 365
#
# _framework density 18.869339
#
# number of rings (size 3 to 8) (size 9 to 14) (size 15 to 20)
#    0.000    1.143    2.857    6.000    2.000    4.286 
#    0.000    0.000    0.000    2.143    0.000    0.000 
#    0.000    0.000    0.000    0.000    0.000    0.000 
#
# Total GULP energy -312693.887690 kJ/mol
# GULP energy per Si atom -5583.819423 kJ/mol
# Density = 1.882639 g / cm^3
# Si number density = 18.869339 Si / 1000 Ang^3
#
#
#
# Elastic Constant Matrix: (Units=GPa)
#
#
# Indices 1 2 3 4 5 6 
#
# 1 53.4559 -3.1014 2.3890 0.0000 0.0000 0.0000
# 2 -3.1014 44.0754 12.4340 0.0000 0.0000 0.0000
# 3 2.3890 12.4340 66.3156 0.0000 0.0000 0.0000
# 4 0.0000 0.0000 0.0000 21.8649 0.0000 0.0000
# 5 0.0000 0.0000 0.0000 0.0000 21.7076 0.0000
# 6 0.0000 0.0000 0.0000 0.0000 0.0000 11.9016
#
#
#
# Elastic Compliance Matrix: (Units=1/GPa)
#
#
# Indices 1 2 3 4 5 6 
#
# 1 0.018844 0.001602 -0.000979 0.000000 0.000000 0.000000
# 2 0.001602 0.024092 -0.004575 0.000000 0.000000 0.000000
# 3 -0.000979 -0.004575 0.015972 0.000000 0.000000 0.000000
# 4 0.000000 0.000000 0.000000 0.045735 0.000000 0.000000
# 5 0.000000 0.000000 0.000000 0.000000 0.046067 0.000000
# 6 0.000000 0.000000 0.000000 0.000000 0.000000 0.084023
#
#
# Mechanical properties :
#
#
# Convention : Reuss Voigt Hill
#
# Bulk Modulus (GPa) = 19.60623 20.80999 20.20811
# Shear Modulus (GPa) = 19.25758 21.23650 20.24704
#
# Velocity S-wave (km/s) = 3.19811 3.35841 3.27924
# Velocity P-wave (km/s) = 4.90411 5.10793 5.00706
#
# Compressibility (1/GPa) = 0.05100419
#
# Stress axis : x y z
#
# Youngs Moduli (GPa) = 53.06805 41.50798 62.60772
#
# Poissons Ratio (x) = -0.06650 0.06131
# Poissons Ratio (y) = -0.08503 0.28642
# Poissons Ratio (z) = 0.05197 0.18989
#
# Static dielectric constant tensor:
#      x y z
#    x 1.645140 0.000000 0.000000 
#    y 0.000000 1.724020 0.000000 
#    z 0.000000 0.000000 1.637990 
# 
# From -- ./inp_files/25469.got.cif
#   From: 2010.05.17/outbox.cif.g08.bks.cpg/sg68_13_cif.got.tgz:25469.got - 2010.06.03 18:57:09.
