data_PCOD9509529
_publ_section_title
;
Structure prediction by ZEFSAII (Michael W. Deem and Ramdas Pophale) SiO2 
 PCOD9509529
Probable space group: C C C A
;
_chemical_formula_sum "Si O2"
_cell_formula_units_Z 56
_cell_length_a 27.081802
_cell_length_b 8.468127
_cell_length_c 10.265154
_cell_angle_alpha 90.000000
_cell_angle_beta 90.000000
_cell_angle_gamma 90.000000
_cell_volume 2354.129721
_symmetry_space_group_name_H-M "C C C A"
_symmetry_group_IT_number 68
_space_group.IT_coordinate_system_code '2'
_symmetry_cell_setting 'orthorhombic'
loop_
_space_group_symop_operation_xyz
x,y,z
-x,1/2-y,z
x,1/2-y,1/2-z
-x,y,1/2-z
-x,-y,-z
x,1/2+y,-z
-x,1/2+y,1/2+z
x,-y,1/2+z
1/2+x,1/2+y,z
1/2-x,-y,z
1/2+x,-y,1/2-z
1/2-x,1/2+y,1/2-z
1/2-x,1/2-y,-z
1/2+x,y,-z
1/2-x,y,1/2+z
1/2+x,1/2-y,1/2+z
loop_
_atom_site_type_symbol
_atom_site_label
_atom_site_fract_x
_atom_site_fract_y
_atom_site_fract_z
Si Si1 0.537270 0.621937 0.061137
Si Si2 0.818849 0.253929 0.107049
Si Si3 0.896407 0.831521 0.384010
Si Si4 0.750000 0.000000 0.015895
O O1 0.500000 0.750000 0.124822
O O2 0.579491 0.508276 0.127800
O O3 0.500000 0.500000 0.000000
O O4 0.562244 0.715897 0.942792
O O5 0.841994 0.250000 0.250000
O O6 0.773116 0.133610 0.106101
O O7 0.855266 0.189201 0.996111
O O8 0.793349 0.418885 0.068457
O O9 0.879262 0.750000 0.250000
#
# Coordination Sequence:
#
# PCOD9509529 Si02
#       4
#    16  16  16   8
#     4   9  21  42  65  94 130 174 221 275 340 406
#     4  11  24  43  67  97 135 180 227 277 336 402
#     4  11  24  42  66 100 137 173 222 284 345 411
#     4  10  24  42  66  96 132 178 232 282 330 392
#
# _framework density 23.787984000000002
#
# number of rings (size 3 to 8) (size 9 to 14) (size 15 to 20)
#    0.000    1.714    0.000    2.571    0.000   18.857 
#    0.000   11.429    0.000    0.000    0.000    2.000 
#    0.000    0.000    0.000    0.000    0.000    0.000 
#
# Total GULP energy -156154.502556 kJ/mol
# GULP energy per Si atom -5576.946520 kJ/mol
# Density = 2.373384 g / cm^3
# Si number density = 23.787984 Si / 1000 Ang^3
#
#
#
# Elastic Constant Matrix: (Units=GPa)
#
#
# Indices 1 2 3 4 5 6 
#
# 1 96.0686 44.7630 46.5365 0.0000 0.0000 0.0000
# 2 44.7630 166.2818 49.3481 0.0000 0.0000 0.0000
# 3 46.5365 49.3481 164.9906 0.0000 0.0000 0.0000
# 4 0.0000 0.0000 0.0000 15.7395 0.0000 0.0000
# 5 0.0000 0.0000 0.0000 0.0000 52.1902 0.0000
# 6 0.0000 0.0000 0.0000 0.0000 0.0000 49.0479
#
#
#
# Elastic Compliance Matrix: (Units=1/GPa)
#
#
# Indices 1 2 3 4 5 6 
#
# 1 0.013044 -0.002655 -0.002885 0.000000 0.000000 0.000000
# 2 -0.002655 0.007140 -0.001387 0.000000 0.000000 0.000000
# 3 -0.002885 -0.001387 0.007289 0.000000 0.000000 0.000000
# 4 0.000000 0.000000 0.000000 0.063535 0.000000 0.000000
# 5 0.000000 0.000000 0.000000 0.000000 0.019161 0.000000
# 6 0.000000 0.000000 0.000000 0.000000 0.000000 0.020388
#
#
# Mechanical properties :
#
#
# Convention : Reuss Voigt Hill
#
# Bulk Modulus (GPa) = 73.42243 78.73736 76.07990
# Shear Modulus (GPa) = 33.56817 42.50841 38.03829
#
# Velocity S-wave (km/s) = 3.76059 4.23184 4.00316
# Velocity P-wave (km/s) = 7.05609 7.55311 7.30883
#
# Compressibility (1/GPa) = 0.01361982
#
# Stress axis : x y z
#
# Youngs Moduli (GPa) = 76.66410 140.05189 137.18524
#
# Poissons Ratio (x) = 0.37187 0.39577
# Poissons Ratio (y) = 0.20356 0.19023
# Poissons Ratio (z) = 0.22117 0.19421
#
# Static dielectric constant tensor:
#      x y z
#    x 1.950490 0.000000 0.000000 
#    y 0.000000 1.919010 0.000000 
#    z 0.000000 0.000000 1.877640 
# 
# From -- ./inp_files/16807.got.cif
#   From: 2010.05.17/outbox.cif.g08.bks.cpg/sg68_9_cif.got.tgz:16807.got - 2010.06.03 18:57:09.
