data_PCOD9509880
_publ_section_title
;
Structure prediction by ZEFSAII (Michael W. Deem and Ramdas Pophale) SiO2 
 PCOD9509880
Probable space group: C C C A
;
_chemical_formula_sum "Si O2"
_cell_formula_units_Z 96
_cell_length_a 22.402932
_cell_length_b 7.973044
_cell_length_c 21.498365
_cell_angle_alpha 90.000000
_cell_angle_beta 90.000000
_cell_angle_gamma 90.000000
_cell_volume 3840.028552
_symmetry_space_group_name_H-M "C C C A"
_symmetry_group_IT_number 68
_space_group.IT_coordinate_system_code '2'
_symmetry_cell_setting 'orthorhombic'
loop_
_space_group_symop_operation_xyz
x,y,z
-x,1/2-y,z
x,1/2-y,1/2-z
-x,y,1/2-z
-x,-y,-z
x,1/2+y,-z
-x,1/2+y,1/2+z
x,-y,1/2+z
1/2+x,1/2+y,z
1/2-x,-y,z
1/2+x,-y,1/2-z
1/2-x,1/2+y,1/2-z
1/2-x,1/2-y,-z
1/2+x,y,-z
1/2-x,y,1/2+z
1/2+x,1/2-y,1/2+z
loop_
_atom_site_type_symbol
_atom_site_label
_atom_site_fract_x
_atom_site_fract_y
_atom_site_fract_z
Si Si1 0.873839 0.621226 0.016708
Si Si2 0.822696 0.839276 0.120852
Si Si3 0.016198 0.066142 0.582989
Si Si4 0.597515 0.659222 0.381607
Si Si5 0.250000 0.500000 0.027510
Si Si6 0.940287 0.035024 0.291041
Si Si7 0.646143 0.750000 0.750000
O O1 0.867796 0.744954 0.074846
O O2 0.933125 0.515201 0.033469
O O3 0.880470 0.710592 0.950288
O O4 0.810200 0.527662 0.010534
O O5 0.852641 0.019861 0.134223
O O6 0.815893 0.752266 0.186804
O O7 0.765029 0.852949 0.076854
O O8 0.043842 0.085005 0.651569
O O9 0.000000 0.250000 0.560305
O O10 0.964271 0.935203 0.600268
O O11 0.585428 0.798633 0.327772
O O12 0.894502 0.918523 0.252955
O O13 0.000000 0.065826 0.250000
#
# Coordination Sequence:
#
# PCOD9509880 Si02
#       7
#    16  16  16  16   8  16   8
#     4  11  24  47  77 109 155 198 268 329 400 469
#     4  11  24  49  74 108 149 204 254 331 397 471
#     4  12  23  43  70 113 156 205 247 310 395 461
#     4  11  26  42  72 115 163 198 255 319 386 481
#     4  10  26  48  78 110 146 198 268 342 402 460
#     4  12  26  45  72 112 160 212 251 304 392 484
#     4  12  25  48  78 104 154 204 265 314 394 482
#
# _framework density 24.999813
#
# number of rings (size 3 to 8) (size 9 to 14) (size 15 to 20)
#    0.000    0.667    3.333    3.750    4.667    6.000 
#    0.000    4.167    0.000    0.000    0.000    0.000 
#    0.000    0.000    0.000    0.000    0.000    0.000 
#
# Total GULP energy -267943.520637 kJ/mol
# GULP energy per Si atom -5582.156680 kJ/mol
# Density = 2.494291 g / cm^3
# Si number density = 24.999813 Si / 1000 Ang^3
#
#
#
# Elastic Constant Matrix: (Units=GPa)
#
#
# Indices 1 2 3 4 5 6 
#
# 1 117.9790 41.4498 13.6029 0.0000 0.0000 0.0000
# 2 41.4498 109.9371 25.2649 0.0000 0.0000 0.0000
# 3 13.6029 25.2649 141.2337 0.0000 0.0000 0.0000
# 4 0.0000 0.0000 0.0000 42.5409 0.0000 0.0000
# 5 0.0000 0.0000 0.0000 0.0000 35.3822 0.0000
# 6 0.0000 0.0000 0.0000 0.0000 0.0000 37.6785
#
#
#
# Elastic Compliance Matrix: (Units=1/GPa)
#
#
# Indices 1 2 3 4 5 6 
#
# 1 0.009782 -0.003620 -0.000295 0.000000 0.000000 0.000000
# 2 -0.003620 0.010826 -0.001588 0.000000 0.000000 0.000000
# 3 -0.000295 -0.001588 0.007393 0.000000 0.000000 0.000000
# 4 0.000000 0.000000 0.000000 0.023507 0.000000 0.000000
# 5 0.000000 0.000000 0.000000 0.000000 0.028263 0.000000
# 6 0.000000 0.000000 0.000000 0.000000 0.000000 0.026540
#
#
# Mechanical properties :
#
#
# Convention : Reuss Voigt Hill
#
# Bulk Modulus (GPa) = 58.84022 58.86503 58.85262
# Shear Modulus (GPa) = 40.65643 42.37580 41.51611
#
# Velocity S-wave (km/s) = 4.03708 4.12156 4.07954
# Velocity P-wave (km/s) = 6.73187 6.80051 6.76628
#
# Compressibility (1/GPa) = 0.01699518
#
# Stress axis : x y z
#
# Youngs Moduli (GPa) = 102.22835 92.36963 135.26511
#
# Poissons Ratio (x) = 0.33442 0.03984
# Poissons Ratio (y) = 0.37011 0.21479
# Poissons Ratio (z) = 0.03011 0.14668
#
# Static dielectric constant tensor:
#      x y z
#    x 2.344030 0.000000 0.000000 
#    y 0.000000 2.110070 0.000000 
#    z 0.000000 0.000000 1.999820 
# 
# From -- ./inp_files/40860.got.cif
#   From: 2010.05.17/outbox.cif.g08.bks.cpg/sg68_21_cif.got.tgz:40860.got - 2010.06.03 18:57:09.
