data_PCOD9509503
_publ_section_title
;
Structure prediction by ZEFSAII (Michael W. Deem and Ramdas Pophale) SiO2 
 PCOD9509503
Probable space group: C C C A
;
_chemical_formula_sum "Si O2"
_cell_formula_units_Z 104
_cell_length_a 9.442249
_cell_length_b 23.901796
_cell_length_c 20.278305
_cell_angle_alpha 90.000000
_cell_angle_beta 90.000000
_cell_angle_gamma 90.000000
_cell_volume 4576.543927
_symmetry_space_group_name_H-M "C C C A"
_symmetry_group_IT_number 68
_space_group.IT_coordinate_system_code '2'
_symmetry_cell_setting 'orthorhombic'
loop_
_space_group_symop_operation_xyz
x,y,z
-x,1/2-y,z
x,1/2-y,1/2-z
-x,y,1/2-z
-x,-y,-z
x,1/2+y,-z
-x,1/2+y,1/2+z
x,-y,1/2+z
1/2+x,1/2+y,z
1/2-x,-y,z
1/2+x,-y,1/2-z
1/2-x,1/2+y,1/2-z
1/2-x,1/2-y,-z
1/2+x,y,-z
1/2-x,y,1/2+z
1/2+x,1/2-y,1/2+z
loop_
_atom_site_type_symbol
_atom_site_label
_atom_site_fract_x
_atom_site_fract_y
_atom_site_fract_z
Si Si1 0.272699 0.067296 0.720271
Si Si2 0.500000 0.858353 0.750000
Si Si3 0.887778 0.115308 0.542766
Si Si4 0.577998 0.805664 0.882660
Si Si5 0.350086 0.781080 0.052938
Si Si6 0.134403 0.548374 0.919351
Si Si7 0.169801 0.558726 0.637772
O O1 0.131178 0.100197 0.739917
O O2 0.315573 0.084612 0.645897
O O3 0.362852 0.077438 0.787071
O O4 0.250000 0.000000 0.716768
O O5 0.508015 0.818499 0.812915
O O6 0.869413 0.160624 0.484405
O O7 0.882071 0.062024 0.496673
O O8 0.765678 0.104211 0.597633
O O9 0.030734 0.138885 0.576297
O O10 0.500000 0.750000 0.910224
O O11 0.743890 0.791360 0.885865
O O12 0.500000 0.750000 0.065651
O O13 0.250000 0.750000 0.000000
O O14 0.250000 0.500000 0.918932
O O15 0.972806 0.541836 0.898326
O O16 0.250000 0.500000 0.643099
#
# Coordination Sequence:
#
# PCOD9509503 Si02
#       7
#    16   8  16  16  16  16  16
#     4  10  24  41  69  95 137 186 238 291 357 435
#     4  12  25  48  72 106 138 192 245 300 364 432
#     4  12  23  42  70 102 143 183 237 299 364 429
#     4  12  25  46  74 104 142 189 244 302 368 438
#     4  12  23  43  71 103 140 184 234 296 366 435
#     4  11  26  42  66 104 145 187 242 298 358 436
#     4  11  25  42  68  98 140 195 241 293 361 434
#
# _framework density 22.724571000000001
#
# number of rings (size 3 to 8) (size 9 to 14) (size 15 to 20)
#    0.000    0.615    4.615    3.000    8.615    3.692 
#    0.000    0.000    0.000    0.923    0.000    0.000 
#    0.000    0.000    0.000    0.000    0.000    0.000 
#
# Total GULP energy -289591.047935 kJ/mol
# GULP energy per Si atom -5569.058614 kJ/mol
# Density = 2.267285 g / cm^3
# Si number density = 22.724571 Si / 1000 Ang^3
#
#
#
# Elastic Constant Matrix: (Units=GPa)
#
#
# Indices 1 2 3 4 5 6 
#
# 1 154.1690 42.3780 47.9379 0.0000 0.0000 0.0000
# 2 42.3780 58.6241 16.1731 0.0000 0.0000 0.0000
# 3 47.9379 16.1731 148.4107 0.0000 0.0000 0.0000
# 4 0.0000 0.0000 0.0000 22.7319 0.0000 0.0000
# 5 0.0000 0.0000 0.0000 0.0000 31.9976 0.0000
# 6 0.0000 0.0000 0.0000 0.0000 0.0000 34.6128
#
#
#
# Elastic Compliance Matrix: (Units=1/GPa)
#
#
# Indices 1 2 3 4 5 6 
#
# 1 0.008741 -0.005711 -0.002201 0.000000 0.000000 0.000000
# 2 -0.005711 0.021318 -0.000478 0.000000 0.000000 0.000000
# 3 -0.002201 -0.000478 0.007501 0.000000 0.000000 0.000000
# 4 0.000000 0.000000 0.000000 0.043991 0.000000 0.000000
# 5 0.000000 0.000000 0.000000 0.000000 0.031252 0.000000
# 6 0.000000 0.000000 0.000000 0.000000 0.000000 0.028891
#
#
# Mechanical properties :
#
#
# Convention : Reuss Voigt Hill
#
# Bulk Modulus (GPa) = 48.12554 63.79798 55.96176
# Shear Modulus (GPa) = 30.22938 34.84943 32.53941
#
# Velocity S-wave (km/s) = 3.65122 3.92031 3.78816
# Velocity P-wave (km/s) = 6.24491 6.97332 6.61914
#
# Compressibility (1/GPa) = 0.02077899
#
# Stress axis : x y z
#
# Youngs Moduli (GPa) = 114.40790 46.90804 133.31359
#
# Poissons Ratio (x) = 0.26790 0.29341
# Poissons Ratio (y) = 0.65341 0.06378
# Poissons Ratio (z) = 0.25180 0.02244
#
# Static dielectric constant tensor:
#      x y z
#    x 2.257780 0.000000 0.000000 
#    y 0.000000 1.649660 0.000000 
#    z 0.000000 0.000000 1.917810 
# 
# From -- ./inp_files/36570.got.cif
#   From: 2010.05.17/outbox.cif.g08.bks.cpg/sg68_19_cif.got.tgz:36570.got - 2010.06.03 18:57:09.
