data_PCOD9509222
_publ_section_title
;
Structure prediction by ZEFSAII (Michael W. Deem and Ramdas Pophale) SiO2 
 PCOD9509222
Probable space group: C C C A
;
_chemical_formula_sum "Si O2"
_cell_formula_units_Z 40
_cell_length_a 5.358415
_cell_length_b 13.334680
_cell_length_c 22.665840
_cell_angle_alpha 90.000000
_cell_angle_beta 90.000000
_cell_angle_gamma 90.000000
_cell_volume 1619.536584
_symmetry_space_group_name_H-M "C C C A"
_symmetry_group_IT_number 68
_space_group.IT_coordinate_system_code '2'
_symmetry_cell_setting 'orthorhombic'
loop_
_space_group_symop_operation_xyz
x,y,z
-x,1/2-y,z
x,1/2-y,1/2-z
-x,y,1/2-z
-x,-y,-z
x,1/2+y,-z
-x,1/2+y,1/2+z
x,-y,1/2+z
1/2+x,1/2+y,z
1/2-x,-y,z
1/2+x,-y,1/2-z
1/2-x,1/2+y,1/2-z
1/2-x,1/2-y,-z
1/2+x,y,-z
1/2-x,y,1/2+z
1/2+x,1/2-y,1/2+z
loop_
_atom_site_type_symbol
_atom_site_label
_atom_site_fract_x
_atom_site_fract_y
_atom_site_fract_z
Si Si1 0.750000 0.000000 0.634113
Si Si2 0.263081 0.291901 0.683399
Si Si3 0.980050 0.629659 0.036098
O O1 0.810907 0.909135 0.677951
O O2 0.553654 0.942689 0.590968
O O3 0.500000 0.250000 0.648050
O O4 0.268365 0.250000 0.750000
O O5 0.000000 0.250000 0.662303
O O6 0.000000 0.750000 0.045770
O O7 0.203636 0.610452 0.988941
#
# Coordination Sequence:
#
# PCOD9509222 Si02
#       3
#     8  16  16
#     4  12  24  42  74  98 132 188 224 266 350 404
#     4  10  25  45  65  97 134 172 227 285 330 393
#     4  10  23  42  64  99 139 172 221 279 329 402
#
# _framework density 24.698423999999999
#
# number of rings (size 3 to 8) (size 9 to 14) (size 15 to 20)
#    0.000    1.600    0.000    2.400    0.000   19.200 
#    0.000    0.000    0.000    0.000    0.000    0.000 
#    0.000    0.000    0.000    0.000    0.000    0.000 
#
# Total GULP energy -111515.929774 kJ/mol
# GULP energy per Si atom -5575.796489 kJ/mol
# Density = 2.464221 g / cm^3
# Si number density = 24.698424 Si / 1000 Ang^3
#
#
#
# Elastic Constant Matrix: (Units=GPa)
#
#
# Indices 1 2 3 4 5 6 
#
# 1 161.3551 37.0634 6.8121 0.0000 0.0000 0.0000
# 2 37.0634 268.2369 44.3102 0.0000 0.0000 0.0000
# 3 6.8121 44.3102 112.2496 0.0000 0.0000 0.0000
# 4 0.0000 0.0000 0.0000 76.5290 0.0000 0.0000
# 5 0.0000 0.0000 0.0000 0.0000 -39.6642 0.0000
# 6 0.0000 0.0000 0.0000 0.0000 0.0000 22.7555
#
#
#
# Elastic Compliance Matrix: (Units=1/GPa)
#
#
# Indices 1 2 3 4 5 6 
#
# 1 0.006401 -0.000877 -0.000042 0.000000 0.000000 0.000000
# 2 -0.000877 0.004108 -0.001569 0.000000 0.000000 0.000000
# 3 -0.000042 -0.001569 0.009530 0.000000 0.000000 0.000000
# 4 0.000000 0.000000 0.000000 0.013067 0.000000 0.000000
# 5 0.000000 0.000000 0.000000 0.000000 -0.025212 0.000000
# 6 0.000000 0.000000 0.000000 0.000000 0.000000 0.043945
#
#
# Mechanical properties :
#
#
# Convention : Reuss Voigt Hill
#
# Bulk Modulus (GPa) = 66.38547 79.80145 73.09346
# Shear Modulus (GPa) = 80.85686 42.16780 61.51233
#
# Velocity S-wave (km/s) = 5.72789 4.13644 4.99594
# Velocity P-wave (km/s) = 8.40724 7.42927 7.93334
#
# Compressibility (1/GPa) = 0.01506354
#
# Stress axis : x y z
#
# Youngs Moduli (GPa) = 156.22938 243.40378 104.92695
#
# Poissons Ratio (x) = 0.21358 0.00441
# Poissons Ratio (y) = 0.13709 0.16458
# Poissons Ratio (z) = 0.00657 0.38179
#
# Static dielectric constant tensor:
#      x y z
#    x 2.012500 0.000000 0.000000 
#    y 0.000000 1.719240 0.000000 
#    z 0.000000 0.000000 2.261820 
# 
# From -- ./inp_files/47671.got.cif
#   From: 2010.05.17/outbox.cif.g08.bks.cpg/sg68_24_cif.got.tgz:47671.got - 2010.06.03 18:57:09.
