data_PCOD9509693
_publ_section_title
;
Structure prediction by ZEFSAII (Michael W. Deem and Ramdas Pophale) SiO2 
 PCOD9509693
Probable space group: C C C A
;
_chemical_formula_sum "Si O2"
_cell_formula_units_Z 64
_cell_length_a 30.515033
_cell_length_b 8.682643
_cell_length_c 10.002439
_cell_angle_alpha 90.000000
_cell_angle_beta 90.000000
_cell_angle_gamma 90.000000
_cell_volume 2650.157593
_symmetry_space_group_name_H-M "C C C A"
_symmetry_group_IT_number 68
_space_group.IT_coordinate_system_code '2'
_symmetry_cell_setting 'orthorhombic'
loop_
_space_group_symop_operation_xyz
x,y,z
-x,1/2-y,z
x,1/2-y,1/2-z
-x,y,1/2-z
-x,-y,-z
x,1/2+y,-z
-x,1/2+y,1/2+z
x,-y,1/2+z
1/2+x,1/2+y,z
1/2-x,-y,z
1/2+x,-y,1/2-z
1/2-x,1/2+y,1/2-z
1/2-x,1/2-y,-z
1/2+x,y,-z
1/2-x,y,1/2+z
1/2+x,1/2-y,1/2+z
loop_
_atom_site_type_symbol
_atom_site_label
_atom_site_fract_x
_atom_site_fract_y
_atom_site_fract_z
Si Si1 0.044701 0.621601 0.664412
Si Si2 0.352084 0.444267 0.407421
Si Si3 0.704287 0.413236 0.825071
Si Si4 0.915861 0.680097 0.448788
O O1 0.070925 0.750000 0.750000
O O2 0.047679 0.712795 0.523156
O O3 0.063211 0.453048 0.641198
O O4 0.000000 0.602695 0.750000
O O5 0.320530 0.403451 0.533035
O O6 0.325131 0.489278 0.277592
O O7 0.383649 0.301707 0.384273
O O8 0.383978 0.582156 0.453644
O O9 0.710931 0.250000 0.750000
O O10 0.750000 0.500000 0.845960
#
# Coordination Sequence:
#
# PCOD9509693 Si02
#       4
#    16  16  16  16
#     4  10  24  47  76 107 157 191 258 328 392 479
#     4  11  25  47  79 112 161 209 267 322 389 472
#     4  12  28  48  75 120 164 208 264 327 394 471
#     4  10  24  46  76 113 147 207 260 322 394 465
#
# _framework density 24.149508999999998
#
# number of rings (size 3 to 8) (size 9 to 14) (size 15 to 20)
#    0.000    1.250    2.500    0.750   10.500    6.000 
#    4.500    5.000    0.000    0.000    0.000    0.000 
#    0.000    0.000    0.000    0.000    0.000    0.000 
#
# Total GULP energy -178929.262642 kJ/mol
# GULP energy per Si atom -5591.539458 kJ/mol
# Density = 2.409454 g / cm^3
# Si number density = 24.149509 Si / 1000 Ang^3
#
#
#
# Elastic Constant Matrix: (Units=GPa)
#
#
# Indices 1 2 3 4 5 6 
#
# 1 157.8727 82.8080 67.4002 0.0000 0.0000 0.0000
# 2 82.8080 183.8528 46.8336 0.0000 0.0000 0.0000
# 3 67.4002 46.8336 114.3736 0.0000 0.0000 0.0000
# 4 0.0000 0.0000 0.0000 42.1449 0.0000 0.0000
# 5 0.0000 0.0000 0.0000 0.0000 40.8045 0.0000
# 6 0.0000 0.0000 0.0000 0.0000 0.0000 35.4787
#
#
#
# Elastic Compliance Matrix: (Units=1/GPa)
#
#
# Indices 1 2 3 4 5 6 
#
# 1 0.010036 -0.003365 -0.004536 0.000000 0.000000 0.000000
# 2 -0.003365 0.007201 -0.000966 0.000000 0.000000 0.000000
# 3 -0.004536 -0.000966 0.011812 0.000000 0.000000 0.000000
# 4 0.000000 0.000000 0.000000 0.023728 0.000000 0.000000
# 5 0.000000 0.000000 0.000000 0.000000 0.024507 0.000000
# 6 0.000000 0.000000 0.000000 0.000000 0.000000 0.028186
#
#
# Mechanical properties :
#
#
# Convention : Reuss Voigt Hill
#
# Bulk Modulus (GPa) = 88.37829 94.46474 91.42152
# Shear Modulus (GPa) = 39.37821 40.95610 40.16716
#
# Velocity S-wave (km/s) = 4.04245 4.12265 4.08275
# Velocity P-wave (km/s) = 7.64620 7.86531 7.75653
#
# Compressibility (1/GPa) = 0.01131500
#
# Stress axis : x y z
#
# Youngs Moduli (GPa) = 99.64450 138.87825 84.65990
#
# Poissons Ratio (x) = 0.46726 0.38404
# Poissons Ratio (y) = 0.33526 0.08176
# Poissons Ratio (z) = 0.45202 0.13412
#
# Static dielectric constant tensor:
#      x y z
#    x 1.952810 0.000000 0.000000 
#    y 0.000000 1.927990 0.000000 
#    z 0.000000 0.000000 2.018760 
# 
# From -- ./inp_files/17451.got.cif
#   From: 2010.05.17/outbox.cif.g08.bks.cpg/sg68_9_cif.got.tgz:17451.got - 2010.06.03 18:57:09.
