data_PCOD9509277
_publ_section_title
;
Structure prediction by ZEFSAII (Michael W. Deem and Ramdas Pophale) SiO2 
 PCOD9509277
Probable space group: C C C A
;
_chemical_formula_sum "Si O2"
_cell_formula_units_Z 72
_cell_length_a 10.848987
_cell_length_b 26.027982
_cell_length_c 12.690957
_cell_angle_alpha 90.000000
_cell_angle_beta 90.000000
_cell_angle_gamma 90.000000
_cell_volume 3583.637390
_symmetry_space_group_name_H-M "C C C A"
_symmetry_group_IT_number 68
_space_group.IT_coordinate_system_code '2'
_symmetry_cell_setting 'orthorhombic'
loop_
_space_group_symop_operation_xyz
x,y,z
-x,1/2-y,z
x,1/2-y,1/2-z
-x,y,1/2-z
-x,-y,-z
x,1/2+y,-z
-x,1/2+y,1/2+z
x,-y,1/2+z
1/2+x,1/2+y,z
1/2-x,-y,z
1/2+x,-y,1/2-z
1/2-x,1/2+y,1/2-z
1/2-x,1/2-y,-z
1/2+x,y,-z
1/2-x,y,1/2+z
1/2+x,1/2-y,1/2+z
loop_
_atom_site_type_symbol
_atom_site_label
_atom_site_fract_x
_atom_site_fract_y
_atom_site_fract_z
Si Si1 0.644450 0.649173 0.260979
Si Si2 0.777663 0.440051 0.892917
Si Si3 0.000000 0.085279 0.750000
Si Si4 0.866709 0.777700 0.556014
Si Si5 0.189160 0.629675 0.418395
O O1 0.500000 0.643956 0.250000
O O2 0.697308 0.597322 0.316154
O O3 0.672683 0.699266 0.331017
O O4 0.700079 0.655602 0.145402
O O5 0.750000 0.500000 0.899306
O O6 0.912572 0.440247 0.838449
O O7 0.749790 0.413998 0.006875
O O8 0.903764 0.113766 0.825878
O O9 0.750000 0.750000 0.500000
O O10 0.883087 0.830139 0.489667
O O11 0.000000 0.750000 0.559922
#
# Coordination Sequence:
#
# PCOD9509277 Si02
#       5
#    16  16   8  16  16
#     4  10  23  43  66  94 136 174 219 280 338 409
#     4  10  24  42  69 101 130 179 223 276 340 407
#     4  10  24  44  67  96 142 170 227 276 338 412
#     4  11  25  41  67  97 130 174 228 277 345 410
#     4  10  24  42  67  95 137 175 218 282 342 396
#
# _framework density 20.091317
#
# number of rings (size 3 to 8) (size 9 to 14) (size 15 to 20)
#    0.000    1.778    0.000    1.333   17.111    7.556 
#    0.000    0.000    0.000    0.000    0.000    0.000 
#    0.000    0.000    0.000    0.000    0.000    0.000 
#
# Total GULP energy -200438.076663 kJ/mol
# GULP energy per Si atom -5567.724352 kJ/mol
# Density = 2.004559 g / cm^3
# Si number density = 20.091317 Si / 1000 Ang^3
#
#
#
# Elastic Constant Matrix: (Units=GPa)
#
#
# Indices 1 2 3 4 5 6 
#
# 1 99.6805 41.7585 20.0274 0.0000 0.0000 0.0000
# 2 41.7585 113.8877 40.0859 0.0000 0.0000 0.0000
# 3 20.0274 40.0859 76.9996 0.0000 0.0000 0.0000
# 4 0.0000 0.0000 0.0000 18.0466 0.0000 0.0000
# 5 0.0000 0.0000 0.0000 0.0000 34.3517 0.0000
# 6 0.0000 0.0000 0.0000 0.0000 0.0000 49.6987
#
#
#
# Elastic Compliance Matrix: (Units=1/GPa)
#
#
# Indices 1 2 3 4 5 6 
#
# 1 0.011916 -0.004014 -0.001010 0.000000 0.000000 0.000000
# 2 -0.004014 0.012103 -0.005257 0.000000 0.000000 0.000000
# 3 -0.001010 -0.005257 0.015986 0.000000 0.000000 0.000000
# 4 0.000000 0.000000 0.000000 0.055412 0.000000 0.000000
# 5 0.000000 0.000000 0.000000 0.000000 0.029111 0.000000
# 6 0.000000 0.000000 0.000000 0.000000 0.000000 0.020121
#
#
# Mechanical properties :
#
#
# Convention : Reuss Voigt Hill
#
# Bulk Modulus (GPa) = 51.42780 54.92349 53.17565
# Shear Modulus (GPa) = 29.12201 32.99913 31.06057
#
# Velocity S-wave (km/s) = 3.81134 4.05712 3.93615
# Velocity P-wave (km/s) = 6.70977 7.02447 6.86892
#
# Compressibility (1/GPa) = 0.01944474
#
# Stress axis : x y z
#
# Youngs Moduli (GPa) = 83.91757 82.62736 62.55366
#
# Poissons Ratio (x) = 0.33166 0.06317
# Poissons Ratio (y) = 0.33684 0.32882
# Poissons Ratio (z) = 0.08474 0.43433
#
# Static dielectric constant tensor:
#      x y z
#    x 1.626600 0.000000 0.000000 
#    y 0.000000 1.714360 0.000000 
#    z 0.000000 0.000000 1.897550 
# 
# From -- ./inp_files/11841.got.cif
#   From: 2010.05.17/outbox.cif.g08.bks.cpg/sg68_6_cif.got.tgz:11841.got - 2010.06.03 18:57:09.
