data_PCOD9509422
_publ_section_title
;
Structure prediction by ZEFSAII (Michael W. Deem and Ramdas Pophale) SiO2 
 PCOD9509422
Probable space group: C C C A
;
_chemical_formula_sum "Si O2"
_cell_formula_units_Z 56
_cell_length_a 5.676966
_cell_length_b 26.767872
_cell_length_c 13.593375
_cell_angle_alpha 90.000000
_cell_angle_beta 90.000000
_cell_angle_gamma 90.000000
_cell_volume 2065.653333
_symmetry_space_group_name_H-M "C C C A"
_symmetry_group_IT_number 68
_space_group.IT_coordinate_system_code '2'
_symmetry_cell_setting 'orthorhombic'
loop_
_space_group_symop_operation_xyz
x,y,z
-x,1/2-y,z
x,1/2-y,1/2-z
-x,y,1/2-z
-x,-y,-z
x,1/2+y,-z
-x,1/2+y,1/2+z
x,-y,1/2+z
1/2+x,1/2+y,z
1/2-x,-y,z
1/2+x,-y,1/2-z
1/2-x,1/2+y,1/2-z
1/2-x,1/2-y,-z
1/2+x,y,-z
1/2-x,y,1/2+z
1/2+x,1/2-y,1/2+z
loop_
_atom_site_type_symbol
_atom_site_label
_atom_site_fract_x
_atom_site_fract_y
_atom_site_fract_z
Si Si1 0.250000 0.363937 0.495584
Si Si2 0.250000 0.000000 0.062239
Si Si3 0.750000 0.399614 0.194119
Si Si4 0.250000 0.730429 0.135933
O O1 0.500000 0.391077 0.500000
O O2 0.250000 0.351554 0.379184
O O3 0.250000 0.324734 0.584293
O O4 0.250000 0.048343 0.134039
O O5 0.500000 0.000000 0.000000
O O6 0.500000 0.397639 0.250000
O O7 0.000000 0.397639 0.250000
O O8 0.500000 0.750000 0.099702
O O9 0.250000 0.750000 0.250000
O O10 0.000000 0.750000 0.099702
#
# Coordination Sequence:
#
# PCOD9509422 Si02
#       4
#    16   8  16  16
#     4  12  26  48  76 106 154 200 258 328 394 467
#     4  12  24  46  84 116 156 210 264 318 384 464
#     4  12  26  49  75 117 162 207 260 316 391 475
#     4  10  23  47  75 107 140 192 264 330 398 468
#
# _framework density 27.110066
#
# number of rings (size 3 to 8) (size 9 to 14) (size 15 to 20)
#    0.000    0.571    0.000    7.714    0.000    3.429 
#   30.857    0.000    0.000    0.000    0.000    0.000 
#    0.000    0.000    0.000    0.000    0.000    0.000 
#
# Total GULP energy -155871.142629 kJ/mol
# GULP energy per Si atom -5566.826522 kJ/mol
# Density = 2.704836 g / cm^3
# Si number density = 27.110066 Si / 1000 Ang^3
#
#
#
# Elastic Constant Matrix: (Units=GPa)
#
#
# Indices 1 2 3 4 5 6 
#
# 1 375.3035 58.7811 84.1876 0.0000 0.0000 0.0000
# 2 58.7811 133.3730 65.3506 0.0000 0.0000 0.0000
# 3 84.1876 65.3506 220.7148 0.0000 0.0000 0.0000
# 4 0.0000 0.0000 0.0000 79.6064 0.0000 0.0000
# 5 0.0000 0.0000 0.0000 0.0000 53.2213 0.0000
# 6 0.0000 0.0000 0.0000 0.0000 0.0000 27.1630
#
#
#
# Elastic Compliance Matrix: (Units=1/GPa)
#
#
# Indices 1 2 3 4 5 6 
#
# 1 0.003002 -0.000891 -0.000881 0.000000 0.000000 0.000000
# 2 -0.000891 0.009035 -0.002335 0.000000 0.000000 0.000000
# 3 -0.000881 -0.002335 0.005558 0.000000 0.000000 0.000000
# 4 0.000000 0.000000 0.000000 0.012562 0.000000 0.000000
# 5 0.000000 0.000000 0.000000 0.000000 0.018789 0.000000
# 6 0.000000 0.000000 0.000000 0.000000 0.000000 0.036815
#
#
# Mechanical properties :
#
#
# Convention : Reuss Voigt Hill
#
# Bulk Modulus (GPa) = 106.61187 127.33665 116.97426
# Shear Modulus (GPa) = 51.49214 66.73627 59.11420
#
# Velocity S-wave (km/s) = 4.36291 4.96691 4.67468
# Velocity P-wave (km/s) = 8.04928 8.94236 8.50755
#
# Compressibility (1/GPa) = 0.00937982
#
# Stress axis : x y z
#
# Youngs Moduli (GPa) = 333.14014 110.68402 179.91448
#
# Poissons Ratio (x) = 0.09865 0.15852
# Poissons Ratio (y) = 0.29691 0.42012
# Poissons Ratio (z) = 0.29352 0.25846
#
# Static dielectric constant tensor:
#      x y z
#    x 2.116890 0.000000 0.000000 
#    y 0.000000 2.163890 0.000000 
#    z 0.000000 0.000000 2.303910 
# 
# From -- ./inp_files/18313.got.cif
#   From: 2010.05.17/outbox.cif.g08.bks.cpg/sg68_10_cif.got.tgz:18313.got - 2010.06.03 18:57:09.
