data_PCOD9509072
_publ_section_title
;
Structure prediction by ZEFSAII (Michael W. Deem and Ramdas Pophale) SiO2 
 PCOD9509072
Probable space group: C C C A
;
_chemical_formula_sum "Si O2"
_cell_formula_units_Z 60
_cell_length_a 9.778954
_cell_length_b 10.259716
_cell_length_c 26.633481
_cell_angle_alpha 90.000000
_cell_angle_beta 90.000000
_cell_angle_gamma 90.000000
_cell_volume 2672.118261
_symmetry_space_group_name_H-M "C C C A"
_symmetry_group_IT_number 68
_space_group.IT_coordinate_system_code '2'
_symmetry_cell_setting 'orthorhombic'
loop_
_space_group_symop_operation_xyz
x,y,z
-x,1/2-y,z
x,1/2-y,1/2-z
-x,y,1/2-z
-x,-y,-z
x,1/2+y,-z
-x,1/2+y,1/2+z
x,-y,1/2+z
1/2+x,1/2+y,z
1/2-x,-y,z
1/2+x,-y,1/2-z
1/2-x,1/2+y,1/2-z
1/2-x,1/2-y,-z
1/2+x,y,-z
1/2-x,y,1/2+z
1/2+x,1/2-y,1/2+z
loop_
_atom_site_type_symbol
_atom_site_label
_atom_site_fract_x
_atom_site_fract_y
_atom_site_fract_z
Si Si1 0.874991 0.346483 0.994887
Si Si2 0.967117 0.019545 0.916586
Si Si3 0.000000 0.250000 0.142636
Si Si4 0.000000 0.750000 0.250000
Si Si5 0.208436 0.644641 0.330941
O O1 0.000000 0.250000 0.005042
O O2 0.902387 0.408032 0.940242
O O3 0.750000 0.250000 0.000000
O O4 0.886699 0.461642 0.035394
O O5 0.872877 0.117593 0.883802
O O6 0.006713 0.888989 0.886266
O O7 0.152682 0.231424 0.167146
O O8 0.898328 0.817259 0.288918
O O9 0.250000 0.500000 0.316684
#
# Coordination Sequence:
#
# PCOD9509072 Si02
#       5
#    16  16   8   4  16
#     4  11  26  42  69 106 152 197 247 293 350 427
#     4  10  24  45  70 108 149 192 245 297 356 426
#     4  10  22  47  75 104 138 194 237 297 364 436
#     4  12  28  50  74 114 140 186 234 308 374 440
#     4  10  26  48  77 105 145 182 242 301 366 440
#
# _framework density 22.454097000000001
#
# number of rings (size 3 to 8) (size 9 to 14) (size 15 to 20)
#    0.000    1.600    1.333    0.000   13.067    8.000 
#    4.800    4.000    0.000    0.000    0.000    0.000 
#    0.000    0.000    0.000    0.000    0.000    0.000 
#
# Total GULP energy -167361.161062 kJ/mol
# GULP energy per Si atom -5578.705369 kJ/mol
# Density = 2.240299 g / cm^3
# Si number density = 22.454097 Si / 1000 Ang^3
#
#
#
# Elastic Constant Matrix: (Units=GPa)
#
#
# Indices 1 2 3 4 5 6 
#
# 1 198.7972 70.2775 76.1766 0.0000 0.0000 0.0000
# 2 70.2775 88.5107 47.7010 0.0000 0.0000 0.0000
# 3 76.1766 47.7010 114.2870 0.0000 0.0000 0.0000
# 4 0.0000 0.0000 0.0000 12.8503 0.0000 0.0000
# 5 0.0000 0.0000 0.0000 0.0000 -60.0636 0.0000
# 6 0.0000 0.0000 0.0000 0.0000 0.0000 51.5784
#
#
#
# Elastic Compliance Matrix: (Units=1/GPa)
#
#
# Indices 1 2 3 4 5 6 
#
# 1 0.007909 -0.004437 -0.003420 0.000000 0.000000 0.000000
# 2 -0.004437 0.017066 -0.004166 0.000000 0.000000 0.000000
# 3 -0.003420 -0.004166 0.012768 0.000000 0.000000 0.000000
# 4 0.000000 0.000000 0.000000 0.077819 0.000000 0.000000
# 5 0.000000 0.000000 0.000000 0.000000 -0.016649 0.000000
# 6 0.000000 0.000000 0.000000 0.000000 0.000000 0.019388
#
#
# Mechanical properties :
#
#
# Convention : Reuss Voigt Hill
#
# Bulk Modulus (GPa) = 73.00143 87.76726 80.38434
# Shear Modulus (GPa) = 34.03394 14.70234 24.36814
#
# Velocity S-wave (km/s) = 3.89744 2.56163 3.29788
# Velocity P-wave (km/s) = 7.26879 6.92254 7.09778
#
# Compressibility (1/GPa) = 0.01369836
#
# Stress axis : x y z
#
# Youngs Moduli (GPa) = 126.43497 58.59650 78.32028
#
# Poissons Ratio (x) = 0.25998 0.26785
# Poissons Ratio (y) = 0.56097 0.32625
# Poissons Ratio (z) = 0.43240 0.24409
#
# Static dielectric constant tensor:
#      x y z
#    x 1.929040 0.000000 0.000000 
#    y 0.000000 1.778270 0.000000 
#    z 0.000000 0.000000 1.935420 
# 
# From -- ./inp_files/53733.got.cif
#   From: 2010.05.17/outbox.cif.g08.bks.cpg/sg68_27_cif.got.tgz:53733.got - 2010.06.03 18:57:09.
