data_PCOD9509247
_publ_section_title
;
Structure prediction by ZEFSAII (Michael W. Deem and Ramdas Pophale) SiO2 
 PCOD9509247
Probable space group: C C C A
;
_chemical_formula_sum "Si O2"
_cell_formula_units_Z 64
_cell_length_a 16.340583
_cell_length_b 7.310104
_cell_length_c 23.352896
_cell_angle_alpha 90.000000
_cell_angle_beta 90.000000
_cell_angle_gamma 90.000000
_cell_volume 2789.535214
_symmetry_space_group_name_H-M "C C C A"
_symmetry_group_IT_number 68
_space_group.IT_coordinate_system_code '2'
_symmetry_cell_setting 'orthorhombic'
loop_
_space_group_symop_operation_xyz
x,y,z
-x,1/2-y,z
x,1/2-y,1/2-z
-x,y,1/2-z
-x,-y,-z
x,1/2+y,-z
-x,1/2+y,1/2+z
x,-y,1/2+z
1/2+x,1/2+y,z
1/2-x,-y,z
1/2+x,-y,1/2-z
1/2-x,1/2+y,1/2-z
1/2-x,1/2-y,-z
1/2+x,y,-z
1/2-x,y,1/2+z
1/2+x,1/2-y,1/2+z
loop_
_atom_site_type_symbol
_atom_site_label
_atom_site_fract_x
_atom_site_fract_y
_atom_site_fract_z
Si Si1 0.588084 0.337009 0.124170
Si Si2 0.628402 0.270641 0.590167
Si Si3 0.255773 0.785768 0.684683
Si Si4 0.341186 0.425523 0.033565
O O1 0.500000 0.250000 0.129281
O O2 0.582038 0.559028 0.120868
O O3 0.648661 0.254834 0.172695
O O4 0.632877 0.255668 0.067715
O O5 0.692777 0.204605 0.638775
O O6 0.659492 0.372769 0.532900
O O7 0.598282 0.082604 0.559694
O O8 0.233346 0.750000 0.750000
O O9 0.250000 0.000000 0.672102
O O10 0.250000 0.500000 0.044595
#
# Coordination Sequence:
#
# PCOD9509247 Si02
#       4
#    16  16  16  16
#     4  11  25  42  61  98 138 173 212 268 335 395
#     4  11  23  41  67 100 129 174 222 269 322 396
#     4  10  23  42  68  96 123 167 229 274 319 388
#     4  12  21  38  70  92 133 171 217 268 325 385
#
# _framework density 22.942890999999999
#
# number of rings (size 3 to 8) (size 9 to 14) (size 15 to 20)
#    0.000    1.000    5.000    3.000    3.500    2.500 
#    0.000    0.000    0.000    0.000    0.000    0.000 
#    0.000    0.000    0.000    0.000    0.000    0.000 
#
# Total GULP energy -178204.464536 kJ/mol
# GULP energy per Si atom -5568.889517 kJ/mol
# Density = 2.289067 g / cm^3
# Si number density = 22.942891 Si / 1000 Ang^3
#
#
#
# Elastic Constant Matrix: (Units=GPa)
#
#
# Indices 1 2 3 4 5 6 
#
# 1 81.3716 -8.1775 14.5543 0.0000 0.0000 0.0000
# 2 -8.1775 101.3728 -5.2641 0.0000 0.0000 0.0000
# 3 14.5543 -5.2641 139.0744 0.0000 0.0000 0.0000
# 4 0.0000 0.0000 0.0000 31.9676 0.0000 0.0000
# 5 0.0000 0.0000 0.0000 0.0000 7.4032 0.0000
# 6 0.0000 0.0000 0.0000 0.0000 0.0000 18.8298
#
#
#
# Elastic Compliance Matrix: (Units=1/GPa)
#
#
# Indices 1 2 3 4 5 6 
#
# 1 0.012615 0.000951 -0.001284 0.000000 0.000000 0.000000
# 2 0.000951 0.009956 0.000277 0.000000 0.000000 0.000000
# 3 -0.001284 0.000277 0.007335 0.000000 0.000000 0.000000
# 4 0.000000 0.000000 0.000000 0.031282 0.000000 0.000000
# 5 0.000000 0.000000 0.000000 0.000000 0.135076 0.000000
# 6 0.000000 0.000000 0.000000 0.000000 0.000000 0.053107
#
#
# Mechanical properties :
#
#
# Convention : Reuss Voigt Hill
#
# Bulk Modulus (GPa) = 33.56414 36.00489 34.78452
# Shear Modulus (GPa) = 19.27422 33.02054 26.14738
#
# Velocity S-wave (km/s) = 2.90158 3.79786 3.37957
# Velocity P-wave (km/s) = 5.08791 5.91261 5.51569
#
# Compressibility (1/GPa) = 0.02979370
#
# Stress axis : x y z
#
# Youngs Moduli (GPa) = 79.27360 100.44511 136.32749
#
# Poissons Ratio (x) = -0.09551 0.17506
# Poissons Ratio (y) = -0.07538 -0.03781
# Poissons Ratio (z) = 0.10180 -0.02786
#
# Static dielectric constant tensor:
#      x y z
#    x 1.945890 0.000000 0.000000 
#    y 0.000000 1.959540 0.000000 
#    z 0.000000 0.000000 1.796800 
# 
# From -- ./inp_files/39122.got.cif
#   From: 2010.05.17/outbox.cif.g08.bks.cpg/sg68_20_cif.got.tgz:39122.got - 2010.06.03 18:57:09.
