data_PCOD9509649
_publ_section_title
;
Structure prediction by ZEFSAII (Michael W. Deem and Ramdas Pophale) SiO2 
 PCOD9509649
Probable space group: C C C A
;
_chemical_formula_sum "Si O2"
_cell_formula_units_Z 64
_cell_length_a 28.175741
_cell_length_b 11.240427
_cell_length_c 9.123458
_cell_angle_alpha 90.000000
_cell_angle_beta 90.000000
_cell_angle_gamma 90.000000
_cell_volume 2889.466296
_symmetry_space_group_name_H-M "C C C A"
_symmetry_group_IT_number 68
_space_group.IT_coordinate_system_code '2'
_symmetry_cell_setting 'orthorhombic'
loop_
_space_group_symop_operation_xyz
x,y,z
-x,1/2-y,z
x,1/2-y,1/2-z
-x,y,1/2-z
-x,-y,-z
x,1/2+y,-z
-x,1/2+y,1/2+z
x,-y,1/2+z
1/2+x,1/2+y,z
1/2-x,-y,z
1/2+x,-y,1/2-z
1/2-x,1/2+y,1/2-z
1/2-x,1/2-y,-z
1/2+x,y,-z
1/2-x,y,1/2+z
1/2+x,1/2-y,1/2+z
loop_
_atom_site_type_symbol
_atom_site_label
_atom_site_fract_x
_atom_site_fract_y
_atom_site_fract_z
Si Si1 0.690899 0.750000 0.750000
Si Si2 0.334502 0.750000 0.250000
Si Si3 0.517931 0.618231 0.917443
Si Si4 0.128558 0.605906 0.017512
Si Si5 0.205906 0.586343 0.509300
O O1 0.658849 0.667494 0.854170
O O2 0.716471 0.666837 0.631896
O O3 0.365821 0.679701 0.367840
O O4 0.302629 0.837487 0.346119
O O5 0.500000 0.750000 0.971506
O O6 0.500000 0.611207 0.750000
O O7 0.574644 0.607863 0.931323
O O8 0.500000 0.500000 0.000000
O O9 0.155941 0.482459 0.986980
O O10 0.250000 0.500000 0.529635
#
# Coordination Sequence:
#
# PCOD9509649 Si02
#       5
#     8   8  16  16  16
#     4  10  24  45  73  98 152 188 249 308 377 450
#     4  10  26  45  73 106 152 190 253 310 389 450
#     4  11  28  48  76 113 154 200 261 321 392 464
#     4  11  25  44  75 104 149 196 247 316 382 463
#     4  11  26  46  73 110 147 203 254 312 387 465
#
# _framework density 22.149418000000001
#
# number of rings (size 3 to 8) (size 9 to 14) (size 15 to 20)
#    0.000    1.250    0.000    3.000   14.000   10.500 
#    0.000    3.750    0.000    0.000    0.000    0.000 
#    0.000    0.000    0.000    0.000    0.000    0.000 
#
# Total GULP energy -179145.973074 kJ/mol
# GULP energy per Si atom -5598.311659 kJ/mol
# Density = 2.209900 g / cm^3
# Si number density = 22.149418 Si / 1000 Ang^3
#
#
#
# Elastic Constant Matrix: (Units=GPa)
#
#
# Indices 1 2 3 4 5 6 
#
# 1 163.5012 71.7485 61.9470 0.0000 0.0000 0.0000
# 2 71.7485 138.0908 62.1239 0.0000 0.0000 0.0000
# 3 61.9470 62.1239 166.5911 0.0000 0.0000 0.0000
# 4 0.0000 0.0000 0.0000 -86.9257 0.0000 0.0000
# 5 0.0000 0.0000 0.0000 0.0000 23.3413 0.0000
# 6 0.0000 0.0000 0.0000 0.0000 0.0000 -1.4917
#
#
#
# Elastic Compliance Matrix: (Units=1/GPa)
#
#
# Indices 1 2 3 4 5 6 
#
# 1 0.008342 -0.003531 -0.001785 0.000000 0.000000 0.000000
# 2 -0.003531 0.010196 -0.002489 0.000000 0.000000 0.000000
# 3 -0.001785 -0.002489 0.007595 0.000000 0.000000 0.000000
# 4 0.000000 0.000000 0.000000 -0.011504 0.000000 0.000000
# 5 0.000000 0.000000 0.000000 0.000000 0.042843 0.000000
# 6 0.000000 0.000000 0.000000 0.000000 0.000000 -0.670368
#
#
# Mechanical properties :
#
#
# Convention : Reuss Voigt Hill
#
# Bulk Modulus (GPa) = 95.04008 95.53576 95.28792
# Shear Modulus (GPa) = -8.42066 5.14235 -1.63916
#
# Velocity S-wave (km/s) = -1.95192 1.52535 -0.86119
# Velocity P-wave (km/s) = 6.15806 6.80649 6.49038
#
# Compressibility (1/GPa) = 0.01052188
#
# Stress axis : x y z
#
# Youngs Moduli (GPa) = 119.87345 98.07585 131.66913
#
# Poissons Ratio (x) = 0.34633 0.23505
# Poissons Ratio (y) = 0.42330 0.32775
# Poissons Ratio (z) = 0.21400 0.24413
#
# Static dielectric constant tensor:
#      x y z
#    x 1.783860 0.000000 0.000000 
#    y 0.000000 1.881580 0.000000 
#    z 0.000000 0.000000 1.762910 
# 
# From -- ./inp_files/9383.got.cif
#   From: 2010.05.17/outbox.cif.g08.bks.cpg/sg68_5_cif.got.tgz:9383.got - 2010.06.03 18:57:09.
