data_PCOD9509245
_publ_section_title
;
Structure prediction by ZEFSAII (Michael W. Deem and Ramdas Pophale) SiO2 
 PCOD9509245
Probable space group: C C C A
;
_chemical_formula_sum "Si O2"
_cell_formula_units_Z 72
_cell_length_a 16.947309
_cell_length_b 8.210030
_cell_length_c 26.424541
_cell_angle_alpha 90.000000
_cell_angle_beta 90.000000
_cell_angle_gamma 90.000000
_cell_volume 3676.655548
_symmetry_space_group_name_H-M "C C C A"
_symmetry_group_IT_number 68
_space_group.IT_coordinate_system_code '2'
_symmetry_cell_setting 'orthorhombic'
loop_
_space_group_symop_operation_xyz
x,y,z
-x,1/2-y,z
x,1/2-y,1/2-z
-x,y,1/2-z
-x,-y,-z
x,1/2+y,-z
-x,1/2+y,1/2+z
x,-y,1/2+z
1/2+x,1/2+y,z
1/2-x,-y,z
1/2+x,-y,1/2-z
1/2-x,1/2+y,1/2-z
1/2-x,1/2-y,-z
1/2+x,y,-z
1/2-x,y,1/2+z
1/2+x,1/2-y,1/2+z
loop_
_atom_site_type_symbol
_atom_site_label
_atom_site_fract_x
_atom_site_fract_y
_atom_site_fract_z
Si Si1 0.250000 0.000000 0.129286
Si Si2 0.809892 0.226390 0.453996
Si Si3 0.000000 0.250000 0.250000
Si Si4 0.000000 0.750000 0.096427
Si Si5 0.921244 0.514230 0.176174
Si Si6 0.585941 0.031245 0.023229
Si Si7 0.000000 0.750000 0.250000
O O1 0.236455 0.160304 0.094334
O O2 0.330577 0.007671 0.160648
O O3 0.750000 0.250000 0.500000
O O4 0.867195 0.383581 0.449791
O O5 0.864159 0.081287 0.474409
O O6 0.949786 0.357503 0.209146
O O7 0.971131 0.590074 0.128309
O O8 0.929075 0.818516 0.061436
O O9 0.940830 0.651438 0.215956
O O10 0.500000 0.000000 0.000000
#
# Coordination Sequence:
#
# PCOD9509245 Si02
#       7
#     8  16   4   8  16  16   4
#     4  12  24  38  62  98 126 160 216 264 314 390
#     4  12  23  39  56  87 137 177 208 262 309 358
#     4  10  24  48  70  94 114 160 206 278 360 400
#     4  11  22  39  65  94 122 176 225 257 308 391
#     4  10  23  42  68  91 121 153 208 270 330 405
#     4  12  22  38  60  88 130 183 224 254 299 367
#     4   8  20  48  68  82 118 156 188 266 344 390
#
# _framework density 19.583016000000001
#
# number of rings (size 3 to 8) (size 9 to 14) (size 15 to 20)
#    0.000    0.889    4.444    2.667    3.111    0.889 
#    0.000    0.000    0.000    0.000    0.000    0.000 
#    0.000    0.000    0.000    0.000    0.000    0.000 
#
# Total GULP energy -200456.524111 kJ/mol
# GULP energy per Si atom -5568.236781 kJ/mol
# Density = 1.953844 g / cm^3
# Si number density = 19.583016 Si / 1000 Ang^3
#
#
#
# Elastic Constant Matrix: (Units=GPa)
#
#
# Indices 1 2 3 4 5 6 
#
# 1 153.4867 55.6709 61.9866 0.0000 0.0000 0.0000
# 2 55.6709 109.9925 49.5585 0.0000 0.0000 0.0000
# 3 61.9866 49.5585 101.5987 0.0000 0.0000 0.0000
# 4 0.0000 0.0000 0.0000 529.1557 0.0000 0.0000
# 5 0.0000 0.0000 0.0000 0.0000 81.5875 0.0000
# 6 0.0000 0.0000 0.0000 0.0000 0.0000 57.8039
#
#
#
# Elastic Compliance Matrix: (Units=1/GPa)
#
#
# Indices 1 2 3 4 5 6 
#
# 1 0.009248 -0.002741 -0.004305 0.000000 0.000000 0.000000
# 2 -0.002741 0.012465 -0.004408 0.000000 0.000000 0.000000
# 3 -0.004305 -0.004408 0.014620 0.000000 0.000000 0.000000
# 4 0.000000 0.000000 0.000000 0.001890 0.000000 0.000000
# 5 0.000000 0.000000 0.000000 0.000000 0.012257 0.000000
# 6 0.000000 0.000000 0.000000 0.000000 0.000000 0.017300
#
#
# Mechanical properties :
#
#
# Convention : Reuss Voigt Hill
#
# Bulk Modulus (GPa) = 74.49330 77.72332 76.10831
# Shear Modulus (GPa) = 52.54186 146.90020 99.72103
#
# Velocity S-wave (km/s) = 5.18542 8.67046 7.14372
# Velocity P-wave (km/s) = 8.60080 11.83263 10.34372
#
# Compressibility (1/GPa) = 0.01342403
#
# Stress axis : x y z
#
# Youngs Moduli (GPa) = 108.12964 80.22564 68.40154
#
# Poissons Ratio (x) = 0.21989 0.29450
# Poissons Ratio (y) = 0.29638 0.30151
# Poissons Ratio (z) = 0.46554 0.35363
#
# Static dielectric constant tensor:
#      x y z
#    x 1.122570 0.000000 0.000000 
#    y 0.000000 1.113590 0.000000 
#    z 0.000000 0.000000 1.701170 
# 
# From -- ./inp_files/49015.got.cif
#   From: 2010.05.17/outbox.cif.g08.bks.cpg/sg68_25_cif.got.tgz:49015.got - 2010.06.03 18:57:09.
