data_PCOD9509231
_publ_section_title
;
Structure prediction by ZEFSAII (Michael W. Deem and Ramdas Pophale) SiO2 
 PCOD9509231
Probable space group: C C C A
;
_chemical_formula_sum "Si O2"
_cell_formula_units_Z 64
_cell_length_a 23.184666
_cell_length_b 13.756182
_cell_length_c 8.373784
_cell_angle_alpha 90.000000
_cell_angle_beta 90.000000
_cell_angle_gamma 90.000000
_cell_volume 2670.671741
_symmetry_space_group_name_H-M "C C C A"
_symmetry_group_IT_number 68
_space_group.IT_coordinate_system_code '2'
_symmetry_cell_setting 'orthorhombic'
loop_
_space_group_symop_operation_xyz
x,y,z
-x,1/2-y,z
x,1/2-y,1/2-z
-x,y,1/2-z
-x,-y,-z
x,1/2+y,-z
-x,1/2+y,1/2+z
x,-y,1/2+z
1/2+x,1/2+y,z
1/2-x,-y,z
1/2+x,-y,1/2-z
1/2-x,1/2+y,1/2-z
1/2-x,1/2-y,-z
1/2+x,y,-z
1/2-x,y,1/2+z
1/2+x,1/2-y,1/2+z
loop_
_atom_site_type_symbol
_atom_site_label
_atom_site_fract_x
_atom_site_fract_y
_atom_site_fract_z
Si Si1 0.683651 0.473900 0.253640
Si Si2 0.385764 0.815276 0.590123
Si Si3 0.374683 0.381875 0.948488
Si Si4 0.998066 0.367678 0.432674
O O1 0.750000 0.500000 0.241557
O O2 0.665220 0.388249 0.132351
O O3 0.667977 0.429296 0.424190
O O4 0.643142 0.566611 0.215026
O O5 0.398380 0.750000 0.750000
O O6 0.370193 0.734656 0.457692
O O7 0.440973 0.878834 0.537476
O O8 0.440834 0.401604 0.001381
O O9 0.000000 0.250000 0.424226
O O10 0.000000 0.403276 0.250000
#
# Coordination Sequence:
#
# PCOD9509231 Si02
#       4
#    16  16  16  16
#     4  11  24  42  63  93 130 173 227 271 313 393
#     4   9  21  42  68  93 132 176 212 266 345 391
#     4  10  23  42  65  95 132 171 214 273 335 387
#     4   9  19  38  66  98 131 166 216 272 327 401
#
# _framework density 23.964008
#
# number of rings (size 3 to 8) (size 9 to 14) (size 15 to 20)
#    0.000    2.250    0.000    0.750    3.500   13.500 
#    0.000    2.500    0.000    0.000    0.000    0.000 
#    0.000    0.000    0.000    0.000    0.000    0.000 
#
# Total GULP energy -178882.558821 kJ/mol
# GULP energy per Si atom -5590.079963 kJ/mol
# Density = 2.390946 g / cm^3
# Si number density = 23.964008 Si / 1000 Ang^3
#
#
#
# Elastic Constant Matrix: (Units=GPa)
#
#
# Indices 1 2 3 4 5 6 
#
# 1 214.9715 51.9475 45.1515 0.0000 0.0000 0.0000
# 2 51.9475 114.5165 25.6895 0.0000 0.0000 0.0000
# 3 45.1515 25.6895 37.5019 0.0000 0.0000 0.0000
# 4 0.0000 0.0000 0.0000 35.9346 0.0000 0.0000
# 5 0.0000 0.0000 0.0000 0.0000 1.6416 0.0000
# 6 0.0000 0.0000 0.0000 0.0000 0.0000 54.5452
#
#
#
# Elastic Compliance Matrix: (Units=1/GPa)
#
#
# Indices 1 2 3 4 5 6 
#
# 1 0.006408 -0.001390 -0.006763 0.000000 0.000000 0.000000
# 2 -0.001390 0.010619 -0.005601 0.000000 0.000000 0.000000
# 3 -0.006763 -0.005601 0.038645 0.000000 0.000000 0.000000
# 4 0.000000 0.000000 0.000000 0.027828 0.000000 0.000000
# 5 0.000000 0.000000 0.000000 0.000000 0.609155 0.000000
# 6 0.000000 0.000000 0.000000 0.000000 0.000000 0.018333
#
#
# Mechanical properties :
#
#
# Convention : Reuss Voigt Hill
#
# Bulk Modulus (GPa) = 35.50624 68.06300 51.78462
# Shear Modulus (GPa) = 6.68551 34.70439 20.69495
#
# Velocity S-wave (km/s) = 1.67209 3.80963 2.94187
# Velocity P-wave (km/s) = 4.31004 6.91483 5.76157
#
# Compressibility (1/GPa) = 0.02816406
#
# Stress axis : x y z
#
# Youngs Moduli (GPa) = 156.05212 94.16821 25.87649
#
# Poissons Ratio (x) = 0.13086 0.17501
# Poissons Ratio (y) = 0.21686 0.14494
# Poissons Ratio (z) = 1.05542 0.52746
#
# Static dielectric constant tensor:
#      x y z
#    x 1.878300 0.000000 0.000000 
#    y 0.000000 1.953680 0.000000 
#    z 0.000000 0.000000 2.009550 
# 
# From -- ./inp_files/4974.got.cif
#   From: 2010.05.17/outbox.cif.g08.bks.cpg/sg68_3_cif.got.tgz:4974.got - 2010.06.03 18:57:09.
