data_PCOD9509939
_publ_section_title
;
Structure prediction by ZEFSAII (Michael W. Deem and Ramdas Pophale) SiO2 
 PCOD9509939
Probable space group: C C C A
;
_chemical_formula_sum "Si O2"
_cell_formula_units_Z 116
_cell_length_a 27.952152
_cell_length_b 18.041257
_cell_length_c 10.659783
_cell_angle_alpha 90.000000
_cell_angle_beta 90.000000
_cell_angle_gamma 90.000000
_cell_volume 5375.642840
_symmetry_space_group_name_H-M "C C C A"
_symmetry_group_IT_number 68
_space_group.IT_coordinate_system_code '2'
_symmetry_cell_setting 'orthorhombic'
loop_
_space_group_symop_operation_xyz
x,y,z
-x,1/2-y,z
x,1/2-y,1/2-z
-x,y,1/2-z
-x,-y,-z
x,1/2+y,-z
-x,1/2+y,1/2+z
x,-y,1/2+z
1/2+x,1/2+y,z
1/2-x,-y,z
1/2+x,-y,1/2-z
1/2-x,1/2+y,1/2-z
1/2-x,1/2-y,-z
1/2+x,y,-z
1/2-x,y,1/2+z
1/2+x,1/2-y,1/2+z
loop_
_atom_site_type_symbol
_atom_site_label
_atom_site_fract_x
_atom_site_fract_y
_atom_site_fract_z
Si Si1 0.000000 0.750000 0.750000
Si Si2 0.029113 0.977924 0.374446
Si Si3 0.210568 0.659777 0.116494
Si Si4 0.105710 0.865242 0.487942
Si Si5 0.646762 0.835472 0.260053
Si Si6 0.745352 0.331872 0.131288
Si Si7 0.055459 0.229115 0.611766
Si Si8 0.069049 0.365432 0.099960
O O1 0.034240 0.804510 0.832279
O O2 0.068882 0.918886 0.418539
O O3 0.000000 0.953160 0.250000
O O4 0.052824 0.056566 0.345691
O O5 0.000000 0.000000 0.500000
O O6 0.157358 0.641263 0.075396
O O7 0.222359 0.749058 0.117489
O O8 0.216614 0.630040 0.256942
O O9 0.246855 0.634083 0.006213
O O10 0.117022 0.878799 0.633532
O O11 0.082983 0.784036 0.480140
O O12 0.632521 0.750000 0.250000
O O13 0.701447 0.831560 0.305640
O O14 0.625988 0.863079 0.128686
O O15 0.074176 0.250000 0.750000
O O16 0.061492 0.149010 0.548788
O O17 0.000000 0.250000 0.612585
#
# Coordination Sequence:
#
# PCOD9509939 Si02
#       8
#     4  16  16  16  16  16  16  16
#     4  12  20  36  66 100 108 148 238 290 316 356
#     4  12  28  47  66  91 137 193 234 272 339 417
#     4   9  18  33  59  88 132 161 211 268 332 410
#     4  11  24  40  59  93 134 172 215 278 337 404
#     4  11  19  38  65  96 127 159 222 286 326 389
#     4   9  18  33  57  96 129 161 203 275 346 389
#     4  11  24  37  55  85 127 162 207 274 336 384
#     4  12  23  40  68  94 123 170 227 283 326 394
#
# _framework density 21.578814999999999
#
# number of rings (size 3 to 8) (size 9 to 14) (size 15 to 20)
#    0.000    1.241    4.828    1.655    5.793    0.000 
#    0.000    0.000    0.000    0.828    0.000    5.793 
#    0.000    0.000    0.000    0.000    0.000    0.000 
#
# Total GULP energy -323070.402674 kJ/mol
# GULP energy per Si atom -5570.179356 kJ/mol
# Density = 2.152970 g / cm^3
# Si number density = 21.578815 Si / 1000 Ang^3
#
#
#
# Elastic Constant Matrix: (Units=GPa)
#
#
# Indices 1 2 3 4 5 6 
#
# 1 81.8193 24.3729 41.7409 0.0000 0.0000 0.0000
# 2 24.3729 40.5745 13.0269 0.0000 0.0000 0.0000
# 3 41.7409 13.0269 128.2276 0.0000 0.0000 0.0000
# 4 0.0000 0.0000 0.0000 16.8956 0.0000 0.0000
# 5 0.0000 0.0000 0.0000 0.0000 37.1173 0.0000
# 6 0.0000 0.0000 0.0000 0.0000 0.0000 18.8872
#
#
#
# Elastic Compliance Matrix: (Units=1/GPa)
#
#
# Indices 1 2 3 4 5 6 
#
# 1 0.017269 -0.008858 -0.004722 0.000000 0.000000 0.000000
# 2 -0.008858 0.030020 -0.000166 0.000000 0.000000 0.000000
# 3 -0.004722 -0.000166 0.009353 0.000000 0.000000 0.000000
# 4 0.000000 0.000000 0.000000 0.059187 0.000000 0.000000
# 5 0.000000 0.000000 0.000000 0.000000 0.026942 0.000000
# 6 0.000000 0.000000 0.000000 0.000000 0.000000 0.052946
#
#
# Mechanical properties :
#
#
# Convention : Reuss Voigt Hill
#
# Bulk Modulus (GPa) = 34.30466 45.43363 39.86914
# Shear Modulus (GPa) = 21.46611 26.01207 23.73909
#
# Velocity S-wave (km/s) = 3.15743 3.47572 3.32039
# Velocity P-wave (km/s) = 5.40596 6.09983 5.76335
#
# Compressibility (1/GPa) = 0.02915056
#
# Stress axis : x y z
#
# Youngs Moduli (GPa) = 57.90566 33.31083 106.92260
#
# Poissons Ratio (x) = 0.29506 0.50486
# Poissons Ratio (y) = 0.51291 0.01780
# Poissons Ratio (z) = 0.27341 0.00554
#
# Static dielectric constant tensor:
#      x y z
#    x 1.846460 0.000000 0.000000 
#    y 0.000000 1.874370 0.000000 
#    z 0.000000 0.000000 1.857750 
# 
# From -- ./inp_files/17866.got.cif
#   From: 2010.05.17/outbox.cif.g08.bks.cpg/sg68_9_cif.got.tgz:17866.got - 2010.06.03 18:57:09.
