data_PCOD9509129
_publ_section_title
;
Structure prediction by ZEFSAII (Michael W. Deem and Ramdas Pophale) SiO2 
 PCOD9509129
Probable space group: C C C A
;
_chemical_formula_sum "Si O2"
_cell_formula_units_Z 116
_cell_length_a 17.897970
_cell_length_b 28.964917
_cell_length_c 10.548867
_cell_angle_alpha 90.000000
_cell_angle_beta 90.000000
_cell_angle_gamma 90.000000
_cell_volume 5468.672062
_symmetry_space_group_name_H-M "C C C A"
_symmetry_group_IT_number 68
_space_group.IT_coordinate_system_code '2'
_symmetry_cell_setting 'orthorhombic'
loop_
_space_group_symop_operation_xyz
x,y,z
-x,1/2-y,z
x,1/2-y,1/2-z
-x,y,1/2-z
-x,-y,-z
x,1/2+y,-z
-x,1/2+y,1/2+z
x,-y,1/2+z
1/2+x,1/2+y,z
1/2-x,-y,z
1/2+x,-y,1/2-z
1/2-x,1/2+y,1/2-z
1/2-x,1/2-y,-z
1/2+x,y,-z
1/2-x,y,1/2+z
1/2+x,1/2-y,1/2+z
loop_
_atom_site_type_symbol
_atom_site_label
_atom_site_fract_x
_atom_site_fract_y
_atom_site_fract_z
Si Si1 0.652796 0.601834 0.824090
Si Si2 0.048155 0.395815 0.060705
Si Si3 0.571515 0.534735 0.653704
Si Si4 0.500000 0.750000 0.750000
Si Si5 0.406933 0.328468 0.351571
Si Si6 0.255619 0.717805 0.872400
Si Si7 0.892144 0.569704 0.593889
Si Si8 0.686739 0.633695 0.263233
O O1 0.638471 0.565689 0.710586
O O2 0.602336 0.645405 0.782147
O O3 0.735572 0.622884 0.834373
O O4 0.624127 0.575248 0.946145
O O5 0.116176 0.377107 0.145981
O O6 0.966946 0.400695 0.121376
O O7 0.058459 0.445054 0.988020
O O8 0.047819 0.360492 0.944832
O O9 0.500000 0.539831 0.750000
O O10 0.593415 0.481574 0.641990
O O11 0.551768 0.718895 0.664504
O O12 0.323777 0.317192 0.398833
O O13 0.273498 0.750000 0.750000
O O14 0.192189 0.682711 0.813281
O O15 0.250000 0.750000 0.000000
O O16 0.822489 0.593674 0.659967
#
# Coordination Sequence:
#
# PCOD9509129 Si02
#       8
#    16  16  16   4  16  16  16  16
#     4  10  25  44  62  97 137 179 229 290 349 412
#     4  11  23  45  68  95 142 182 227 293 355 419
#     4  11  23  43  68  99 131 188 237 288 348 437
#     4  12  20  36  64 108 122 168 234 280 330 408
#     4  10  23  39  66  97 133 170 223 289 342 412
#     4  11  24  44  71 100 138 184 235 287 360 437
#     4  12  25  42  71  96 136 186 232 288 351 428
#     4  11  27  43  68 100 141 179 234 289 368 421
#
# _framework density 21.211731
#
# number of rings (size 3 to 8) (size 9 to 14) (size 15 to 20)
#    0.000    1.103    2.069    3.310   13.517    1.655 
#    0.000    0.000    0.000    0.828    0.000    0.000 
#    0.000    0.000    0.000    0.000    0.000    0.000 
#
# Total GULP energy -323474.969902 kJ/mol
# GULP energy per Si atom -5577.154653 kJ/mol
# Density = 2.116345 g / cm^3
# Si number density = 21.211731 Si / 1000 Ang^3
#
#
#
# Elastic Constant Matrix: (Units=GPa)
#
#
# Indices 1 2 3 4 5 6 
#
# 1 80.0758 29.5568 27.3808 0.0000 0.0000 0.0000
# 2 29.5568 103.8286 10.4779 0.0000 0.0000 0.0000
# 3 27.3808 10.4779 75.0329 0.0000 0.0000 0.0000
# 4 0.0000 0.0000 0.0000 29.2494 0.0000 0.0000
# 5 0.0000 0.0000 0.0000 0.0000 29.2244 0.0000
# 6 0.0000 0.0000 0.0000 0.0000 0.0000 35.2611
#
#
#
# Elastic Compliance Matrix: (Units=1/GPa)
#
#
# Indices 1 2 3 4 5 6 
#
# 1 0.015720 -0.003952 -0.005184 0.000000 0.000000 0.000000
# 2 -0.003952 0.010762 -0.000061 0.000000 0.000000 0.000000
# 3 -0.005184 -0.000061 0.015228 0.000000 0.000000 0.000000
# 4 0.000000 0.000000 0.000000 0.034189 0.000000 0.000000
# 5 0.000000 0.000000 0.000000 0.000000 0.034218 0.000000
# 6 0.000000 0.000000 0.000000 0.000000 0.000000 0.028360
#
#
# Mechanical properties :
#
#
# Convention : Reuss Voigt Hill
#
# Bulk Modulus (GPa) = 42.88958 43.75204 43.32081
# Shear Modulus (GPa) = 30.36886 31.51510 30.94198
#
# Velocity S-wave (km/s) = 3.78789 3.85871 3.82346
# Velocity P-wave (km/s) = 6.27650 6.36584 6.32133
#
# Compressibility (1/GPa) = 0.02331568
#
# Stress axis : x y z
#
# Youngs Moduli (GPa) = 63.61509 92.91677 65.66900
#
# Poissons Ratio (x) = 0.36718 0.34046
# Poissons Ratio (y) = 0.25139 0.00400
# Poissons Ratio (z) = 0.32981 0.00565
#
# Static dielectric constant tensor:
#      x y z
#    x 1.789680 0.000000 0.000000 
#    y 0.000000 1.761450 0.000000 
#    z 0.000000 0.000000 1.878350 
# 
# From -- ./inp_files/14833.got.cif
#   From: 2010.05.17/outbox.cif.g08.bks.cpg/sg68_8_cif.got.tgz:14833.got - 2010.06.03 18:57:09.
