data_PCOD9509289
_publ_section_title
;
Structure prediction by ZEFSAII (Michael W. Deem and Ramdas Pophale) SiO2 
 PCOD9509289
Probable space group: C C C A
;
_chemical_formula_sum "Si O2"
_cell_formula_units_Z 60
_cell_length_a 17.610382
_cell_length_b 4.901272
_cell_length_c 29.226872
_cell_angle_alpha 90.000000
_cell_angle_beta 90.000000
_cell_angle_gamma 90.000000
_cell_volume 2522.666959
_symmetry_space_group_name_H-M "C C C A"
_symmetry_group_IT_number 68
_space_group.IT_coordinate_system_code '2'
_symmetry_cell_setting 'orthorhombic'
loop_
_space_group_symop_operation_xyz
x,y,z
-x,1/2-y,z
x,1/2-y,1/2-z
-x,y,1/2-z
-x,-y,-z
x,1/2+y,-z
-x,1/2+y,1/2+z
x,-y,1/2+z
1/2+x,1/2+y,z
1/2-x,-y,z
1/2+x,-y,1/2-z
1/2-x,1/2+y,1/2-z
1/2-x,1/2-y,-z
1/2+x,y,-z
1/2-x,y,1/2+z
1/2+x,1/2-y,1/2+z
loop_
_atom_site_type_symbol
_atom_site_label
_atom_site_fract_x
_atom_site_fract_y
_atom_site_fract_z
Si Si1 0.838347 0.905221 0.121035
Si Si2 0.000000 0.250000 0.250000
Si Si3 0.912723 0.205538 0.969041
Si Si4 0.394033 0.370793 0.827513
Si Si5 0.702296 0.750000 0.250000
O O1 0.855733 0.792918 0.070504
O O2 0.858405 0.647201 0.153624
O O3 0.750000 0.000000 0.124794
O O4 0.897672 0.156726 0.130777
O O5 0.043437 0.066229 0.211700
O O6 0.000000 0.250000 0.952858
O O7 0.903116 0.399689 0.013167
O O8 0.344232 0.174633 0.794274
O O9 0.750000 0.500000 0.234428
#
# Coordination Sequence:
#
# PCOD9509289 Si02
#       5
#    16   4  16  16   8
#     4  12  25  42  69 102 137 179 229 289 352 419
#     4  10  28  46  68 102 136 196 238 294 362 414
#     4  10  23  43  67  98 135 178 225 279 348 422
#     4  11  25  41  64  96 135 174 235 282 340 417
#     4  11  20  37  60  83 124 171 212 270 335 394
#
# _framework density 23.784351000000001
#
# number of rings (size 3 to 8) (size 9 to 14) (size 15 to 20)
#    0.000    1.067    0.000    6.400    3.733    5.333 
#    0.000    0.000    0.000    0.000    0.000    0.000 
#    0.000    0.000    0.000    0.000    0.000    0.000 
#
# Total GULP energy -167159.635184 kJ/mol
# GULP energy per Si atom -5571.987839 kJ/mol
# Density = 2.373022 g / cm^3
# Si number density = 23.784351 Si / 1000 Ang^3
#
#
#
# Elastic Constant Matrix: (Units=GPa)
#
#
# Indices 1 2 3 4 5 6 
#
# 1 69.7590 16.9948 55.7873 0.0000 0.0000 0.0000
# 2 16.9948 104.3865 24.4709 0.0000 0.0000 0.0000
# 3 55.7873 24.4709 98.3983 0.0000 0.0000 0.0000
# 4 0.0000 0.0000 0.0000 27.7613 0.0000 0.0000
# 5 0.0000 0.0000 0.0000 0.0000 29.2034 0.0000
# 6 0.0000 0.0000 0.0000 0.0000 0.0000 18.6500
#
#
#
# Elastic Compliance Matrix: (Units=1/GPa)
#
#
# Indices 1 2 3 4 5 6 
#
# 1 0.026294 -0.000835 -0.014700 0.000000 0.000000 0.000000
# 2 -0.000835 0.010199 -0.002063 0.000000 0.000000 0.000000
# 3 -0.014700 -0.002063 0.019010 0.000000 0.000000 0.000000
# 4 0.000000 0.000000 0.000000 0.036021 0.000000 0.000000
# 5 0.000000 0.000000 0.000000 0.000000 0.034243 0.000000
# 6 0.000000 0.000000 0.000000 0.000000 0.000000 0.053619
#
#
# Mechanical properties :
#
#
# Convention : Reuss Voigt Hill
#
# Bulk Modulus (GPa) = 49.24251 51.89444 50.56848
# Shear Modulus (GPa) = 22.58843 26.80900 24.69871
#
# Velocity S-wave (km/s) = 3.08509 3.36098 3.22599
# Velocity P-wave (km/s) = 5.78265 6.07681 5.93156
#
# Compressibility (1/GPa) = 0.02030766
#
# Stress axis : x y z
#
# Youngs Moduli (GPa) = 38.03112 98.04531 52.60358
#
# Poissons Ratio (x) = 0.08185 0.77327
# Poissons Ratio (y) = 0.03175 0.10853
# Poissons Ratio (z) = 0.55906 0.20229
#
# Static dielectric constant tensor:
#      x y z
#    x 2.180710 0.000000 0.000000 
#    y 0.000000 1.931560 0.000000 
#    z 0.000000 0.000000 1.937190 
# 
# From -- ./inp_files/51172.got.cif
#   From: 2010.05.17/outbox.cif.g08.bks.cpg/sg68_26_cif.got.tgz:51172.got - 2010.06.03 18:57:09.
