data_PCOD9509512
_publ_section_title
;
Structure prediction by ZEFSAII (Michael W. Deem and Ramdas Pophale) SiO2 
 PCOD9509512
Probable space group: C C C A
;
_chemical_formula_sum "Si O2"
_cell_formula_units_Z 96
_cell_length_a 21.844423
_cell_length_b 17.927443
_cell_length_c 10.737196
_cell_angle_alpha 90.000000
_cell_angle_beta 90.000000
_cell_angle_gamma 90.000000
_cell_volume 4204.843234
_symmetry_space_group_name_H-M "C C C A"
_symmetry_group_IT_number 68
_space_group.IT_coordinate_system_code '2'
_symmetry_cell_setting 'orthorhombic'
loop_
_space_group_symop_operation_xyz
x,y,z
-x,1/2-y,z
x,1/2-y,1/2-z
-x,y,1/2-z
-x,-y,-z
x,1/2+y,-z
-x,1/2+y,1/2+z
x,-y,1/2+z
1/2+x,1/2+y,z
1/2-x,-y,z
1/2+x,-y,1/2-z
1/2-x,1/2+y,1/2-z
1/2-x,1/2-y,-z
1/2+x,y,-z
1/2-x,y,1/2+z
1/2+x,1/2-y,1/2+z
loop_
_atom_site_type_symbol
_atom_site_label
_atom_site_fract_x
_atom_site_fract_y
_atom_site_fract_z
Si Si1 0.915198 0.177470 0.811886
Si Si2 0.797753 0.811340 0.454724
Si Si3 0.991733 0.910626 0.517791
Si Si4 0.870867 0.919184 0.639488
Si Si5 0.714279 0.077709 0.872773
Si Si6 0.120821 0.590598 0.068124
O O1 0.942607 0.250000 0.750000
O O2 0.860809 0.214279 0.893290
O O3 0.890282 0.122888 0.704531
O O4 0.958945 0.128099 0.899276
O O5 0.750000 0.750000 0.500000
O O6 0.824725 0.866457 0.561756
O O7 0.764643 0.859944 0.347287
O O8 0.942360 0.894552 0.627546
O O9 0.062195 0.884598 0.515108
O O10 0.000000 0.000000 0.500000
O O11 0.839957 0.927829 0.773481
O O12 0.874097 0.000764 0.577772
O O13 0.750000 0.000000 0.884847
O O14 0.683834 0.107694 0.999760
#
# Coordination Sequence:
#
# PCOD9509512 Si02
#       6
#    16  16  16  16  16  16
#     4  11  24  43  72 103 139 187 237 300 366 433
#     4  11  25  43  65  95 139 185 235 291 359 436
#     4   9  22  44  66  97 136 177 235 291 361 426
#     4  10  24  42  64  93 134 181 231 289 360 424
#     4  12  25  39  65  99 139 182 231 291 354 430
#     4  11  23  41  67 101 135 179 234 298 358 424
#
# _framework density 22.830815999999999
#
# number of rings (size 3 to 8) (size 9 to 14) (size 15 to 20)
#    0.000    1.333    1.667    2.500   11.667    2.000 
#    0.000    0.000    0.000    0.000    0.000    4.667 
#    0.000    0.000    0.000    0.000    0.000    0.000 
#
# Total GULP energy -267810.010688 kJ/mol
# GULP energy per Si atom -5579.375223 kJ/mol
# Density = 2.277885 g / cm^3
# Si number density = 22.830816 Si / 1000 Ang^3
#
#
#
# Elastic Constant Matrix: (Units=GPa)
#
#
# Indices 1 2 3 4 5 6 
#
# 1 163.6974 65.0453 61.5182 0.0000 0.0000 0.0000
# 2 65.0453 117.0504 30.5590 0.0000 0.0000 0.0000
# 3 61.5182 30.5590 59.7936 0.0000 0.0000 0.0000
# 4 0.0000 0.0000 0.0000 25.8735 0.0000 0.0000
# 5 0.0000 0.0000 0.0000 0.0000 10.4032 0.0000
# 6 0.0000 0.0000 0.0000 0.0000 0.0000 16.2174
#
#
#
# Elastic Compliance Matrix: (Units=1/GPa)
#
#
# Indices 1 2 3 4 5 6 
#
# 1 0.011202 -0.003711 -0.009628 0.000000 0.000000 0.000000
# 2 -0.003711 0.011088 -0.001849 0.000000 0.000000 0.000000
# 3 -0.009628 -0.001849 0.027575 0.000000 0.000000 0.000000
# 4 0.000000 0.000000 0.000000 0.038650 0.000000 0.000000
# 5 0.000000 0.000000 0.000000 0.000000 0.096124 0.000000
# 6 0.000000 0.000000 0.000000 0.000000 0.000000 0.061662
#
#
# Mechanical properties :
#
#
# Convention : Reuss Voigt Hill
#
# Bulk Modulus (GPa) = 51.31148 72.75404 62.03276
# Shear Modulus (GPa) = 17.65703 22.72674 20.19189
#
# Velocity S-wave (km/s) = 2.78400 3.15848 2.97714
# Velocity P-wave (km/s) = 5.73216 6.72586 6.24879
#
# Compressibility (1/GPa) = 0.01948882
#
# Stress axis : x y z
#
# Youngs Moduli (GPa) = 89.27146 90.18514 36.26483
#
# Poissons Ratio (x) = 0.33469 0.34916
# Poissons Ratio (y) = 0.33130 0.06704
# Poissons Ratio (z) = 0.85952 0.16673
#
# Static dielectric constant tensor:
#      x y z
#    x 1.911880 0.000000 0.000000 
#    y 0.000000 1.851050 0.000000 
#    z 0.000000 0.000000 1.864560 
# 
# From -- ./inp_files/15601.got.cif
#   From: 2010.05.17/outbox.cif.g08.bks.cpg/sg68_8_cif.got.tgz:15601.got - 2010.06.03 18:57:09.
