data_PCOD9509786
_publ_section_title
;
Structure prediction by ZEFSAII (Michael W. Deem and Ramdas Pophale) SiO2 
 PCOD9509786
Probable space group: C C C A
;
_chemical_formula_sum "Si O2"
_cell_formula_units_Z 88
_cell_length_a 14.232415
_cell_length_b 20.760611
_cell_length_c 13.854535
_cell_angle_alpha 90.000000
_cell_angle_beta 90.000000
_cell_angle_gamma 90.000000
_cell_volume 4093.649768
_symmetry_space_group_name_H-M "C C C A"
_symmetry_group_IT_number 68
_space_group.IT_coordinate_system_code '2'
_symmetry_cell_setting 'orthorhombic'
loop_
_space_group_symop_operation_xyz
x,y,z
-x,1/2-y,z
x,1/2-y,1/2-z
-x,y,1/2-z
-x,-y,-z
x,1/2+y,-z
-x,1/2+y,1/2+z
x,-y,1/2+z
1/2+x,1/2+y,z
1/2-x,-y,z
1/2+x,-y,1/2-z
1/2-x,1/2+y,1/2-z
1/2-x,1/2-y,-z
1/2+x,y,-z
1/2-x,y,1/2+z
1/2+x,1/2-y,1/2+z
loop_
_atom_site_type_symbol
_atom_site_label
_atom_site_fract_x
_atom_site_fract_y
_atom_site_fract_z
Si Si1 0.476702 0.072594 0.483331
Si Si2 0.766273 0.576958 0.732798
Si Si3 0.124516 0.854856 0.106853
Si Si4 0.258409 0.074736 0.457763
Si Si5 0.552697 0.651579 0.152211
Si Si6 0.500000 0.250000 0.001335
O O1 0.537089 0.096679 0.394601
O O2 0.368761 0.088725 0.466182
O O3 0.509241 0.106544 0.582452
O O4 0.500000 0.000000 0.500000
O O5 0.750000 0.500000 0.707825
O O6 0.683311 0.626864 0.701786
O O7 0.773692 0.578573 0.847695
O O8 0.858358 0.608178 0.683343
O O9 0.197330 0.878993 0.024673
O O10 0.072153 0.789872 0.070210
O O11 0.250000 0.000000 0.489170
O O12 0.500000 0.671042 0.250000
O O13 0.564482 0.709894 0.075638
#
# Coordination Sequence:
#
# PCOD9509786 Si02
#       6
#    16  16  16  16  16   8
#     4  11  21  37  63  92 133 175 208 274 338 400
#     4  11  23  39  65 100 136 170 213 276 341 407
#     4  11  22  43  63  93 133 173 228 269 337 396
#     4  11  22  39  63  99 136 173 217 274 344 407
#     4  11  23  41  66  98 124 173 231 275 325 388
#     4  10  25  42  70  91 126 180 230 287 323 386
#
# _framework density 21.49671
#
# number of rings (size 3 to 8) (size 9 to 14) (size 15 to 20)
#    0.000    1.091    3.636    4.091    2.545    1.455 
#    0.000    0.000    0.000    4.364    0.000    0.000 
#    0.000    0.000    0.000    0.000    0.000    0.000 
#
# Total GULP energy -245067.180129 kJ/mol
# GULP energy per Si atom -5569.708639 kJ/mol
# Density = 2.144778 g / cm^3
# Si number density = 21.496710 Si / 1000 Ang^3
#
#
#
# Elastic Constant Matrix: (Units=GPa)
#
#
# Indices 1 2 3 4 5 6 
#
# 1 108.1296 5.0286 -15.9597 0.0000 0.0000 0.0000
# 2 5.0286 84.5365 -2.1250 0.0000 0.0000 0.0000
# 3 -15.9597 -2.1250 49.4861 0.0000 0.0000 0.0000
# 4 0.0000 0.0000 0.0000 7.5353 0.0000 0.0000
# 5 0.0000 0.0000 0.0000 0.0000 26.5213 0.0000
# 6 0.0000 0.0000 0.0000 0.0000 0.0000 42.2746
#
#
#
# Elastic Compliance Matrix: (Units=1/GPa)
#
#
# Indices 1 2 3 4 5 6 
#
# 1 0.009731 -0.000501 0.003117 0.000000 0.000000 0.000000
# 2 -0.000501 0.011868 0.000348 0.000000 0.000000 0.000000
# 3 0.003117 0.000348 0.021228 0.000000 0.000000 0.000000
# 4 0.000000 0.000000 0.000000 0.132709 0.000000 0.000000
# 5 0.000000 0.000000 0.000000 0.000000 0.037706 0.000000
# 6 0.000000 0.000000 0.000000 0.000000 0.000000 0.023655
#
#
# Mechanical properties :
#
#
# Convention : Reuss Voigt Hill
#
# Bulk Modulus (GPa) = 20.51008 24.00444 22.25726
# Shear Modulus (GPa) = 20.22493 32.28011 26.25252
#
# Velocity S-wave (km/s) = 3.07064 3.87929 3.49841
# Velocity P-wave (km/s) = 4.70462 5.59071 5.16670
#
# Compressibility (1/GPa) = 0.04875651
#
# Stress axis : x y z
#
# Youngs Moduli (GPa) = 102.75910 84.26209 47.10775
#
# Poissons Ratio (x) = 0.04217 -0.14684
# Poissons Ratio (y) = 0.05143 -0.01640
# Poissons Ratio (z) = -0.32030 -0.02934
#
# Static dielectric constant tensor:
#      x y z
#    x 1.800820 0.000000 0.000000 
#    y 0.000000 1.833040 0.000000 
#    z 0.000000 0.000000 1.798940 
# 
# From -- ./inp_files/22487.got.cif
#   From: 2010.05.17/outbox.cif.g08.bks.cpg/sg68_12_cif.got.tgz:22487.got - 2010.06.03 18:57:09.
