data_PCOD9509700
_publ_section_title
;
Structure prediction by ZEFSAII (Michael W. Deem and Ramdas Pophale) SiO2 
 PCOD9509700
Probable space group: C C C A
;
_chemical_formula_sum "Si O2"
_cell_formula_units_Z 72
_cell_length_a 25.852797
_cell_length_b 13.489862
_cell_length_c 8.441519
_cell_angle_alpha 90.000000
_cell_angle_beta 90.000000
_cell_angle_gamma 90.000000
_cell_volume 2943.985355
_symmetry_space_group_name_H-M "C C C A"
_symmetry_group_IT_number 68
_space_group.IT_coordinate_system_code '2'
_symmetry_cell_setting 'orthorhombic'
loop_
_space_group_symop_operation_xyz
x,y,z
-x,1/2-y,z
x,1/2-y,1/2-z
-x,y,1/2-z
-x,-y,-z
x,1/2+y,-z
-x,1/2+y,1/2+z
x,-y,1/2+z
1/2+x,1/2+y,z
1/2-x,-y,z
1/2+x,-y,1/2-z
1/2-x,1/2+y,1/2-z
1/2-x,1/2-y,-z
1/2+x,y,-z
1/2-x,y,1/2+z
1/2+x,1/2-y,1/2+z
loop_
_atom_site_type_symbol
_atom_site_label
_atom_site_fract_x
_atom_site_fract_y
_atom_site_fract_z
Si Si1 0.472248 0.092805 0.087665
Si Si2 0.879308 0.967694 0.928789
Si Si3 0.806618 0.974806 0.196732
Si Si4 0.905899 0.753451 0.935017
Si Si5 0.335612 0.250000 0.250000
O O1 0.500000 0.125260 0.250000
O O2 0.417123 0.048114 0.142815
O O3 0.454028 0.180765 0.969891
O O4 0.500000 0.000000 0.000000
O O5 0.913770 0.870802 0.949586
O O6 0.823169 0.957830 0.846178
O O7 0.856861 0.003619 0.094226
O O8 0.807697 0.856692 0.230902
O O9 0.750000 0.000000 0.137890
O O10 0.888449 0.750000 0.750000
O O11 0.866811 0.737911 0.083368
#
# Coordination Sequence:
#
# PCOD9509700 Si02
#       5
#    16  16  16  16   8
#     4  12  26  47  75 112 154 207 271 337 410 489
#     4  11  24  46  71 108 156 199 259 334 400 475
#     4  11  23  46  74 113 157 208 265 331 402 490
#     4  11  24  47  77 108 150 205 258 328 406 476
#     4  10  24  46  79 110 154 210 263 328 416 480
#
# _framework density 24.456641999999999
#
# number of rings (size 3 to 8) (size 9 to 14) (size 15 to 20)
#    0.000    0.889    2.222    4.667    3.111    0.889 
#    6.000    5.556    0.000    0.000    0.000    0.000 
#    0.000    0.000    0.000    0.000    0.000    0.000 
#
# Total GULP energy -200489.658988 kJ/mol
# GULP energy per Si atom -5569.157194 kJ/mol
# Density = 2.440098 g / cm^3
# Si number density = 24.456642 Si / 1000 Ang^3
#
#
#
# Elastic Constant Matrix: (Units=GPa)
#
#
# Indices 1 2 3 4 5 6 
#
# 1 109.1936 68.4289 46.0566 0.0000 0.0000 0.0000
# 2 68.4289 129.5459 27.6649 0.0000 0.0000 0.0000
# 3 46.0566 27.6649 135.1886 0.0000 0.0000 0.0000
# 4 0.0000 0.0000 0.0000 18.1872 0.0000 0.0000
# 5 0.0000 0.0000 0.0000 0.0000 17.8948 0.0000
# 6 0.0000 0.0000 0.0000 0.0000 0.0000 47.3647
#
#
#
# Elastic Compliance Matrix: (Units=1/GPa)
#
#
# Indices 1 2 3 4 5 6 
#
# 1 0.015290 -0.007283 -0.003719 0.000000 0.000000 0.000000
# 2 -0.007283 0.011541 0.000119 0.000000 0.000000 0.000000
# 3 -0.003719 0.000119 0.008640 0.000000 0.000000 0.000000
# 4 0.000000 0.000000 0.000000 0.054984 0.000000 0.000000
# 5 0.000000 0.000000 0.000000 0.000000 0.055882 0.000000
# 6 0.000000 0.000000 0.000000 0.000000 0.000000 0.021113
#
#
# Mechanical properties :
#
#
# Convention : Reuss Voigt Hill
#
# Bulk Modulus (GPa) = 72.95813 73.13652 73.04732
# Shear Modulus (GPa) = 25.80216 32.14118 28.97167
#
# Velocity S-wave (km/s) = 3.25163 3.62914 3.44556
# Velocity P-wave (km/s) = 6.63278 6.89422 6.76477
#
# Compressibility (1/GPa) = 0.01370649
#
# Stress axis : x y z
#
# Youngs Moduli (GPa) = 65.40037 86.65081 115.74589
#
# Poissons Ratio (x) = 0.63104 0.43045
# Poissons Ratio (y) = 0.47628 -0.01382
# Poissons Ratio (z) = 0.24322 -0.01035
#
# Static dielectric constant tensor:
#      x y z
#    x 1.898510 0.000000 0.000000 
#    y 0.000000 1.980960 0.000000 
#    z 0.000000 0.000000 2.117490 
# 
# From -- ./inp_files/8676.got.cif
#   From: 2010.05.17/outbox.cif.g08.bks.cpg/sg68_5_cif.got.tgz:8676.got - 2010.06.03 18:57:09.
