data_PCOD9509133
_publ_section_title
;
Structure prediction by ZEFSAII (Michael W. Deem and Ramdas Pophale) SiO2 
 PCOD9509133
Probable space group: C C C A
;
_chemical_formula_sum "Si O2"
_cell_formula_units_Z 88
_cell_length_a 5.787643
_cell_length_b 21.157177
_cell_length_c 33.803261
_cell_angle_alpha 90.000000
_cell_angle_beta 90.000000
_cell_angle_gamma 90.000000
_cell_volume 4139.215643
_symmetry_space_group_name_H-M "C C C A"
_symmetry_group_IT_number 68
_space_group.IT_coordinate_system_code '2'
_symmetry_cell_setting 'orthorhombic'
loop_
_space_group_symop_operation_xyz
x,y,z
-x,1/2-y,z
x,1/2-y,1/2-z
-x,y,1/2-z
-x,-y,-z
x,1/2+y,-z
-x,1/2+y,1/2+z
x,-y,1/2+z
1/2+x,1/2+y,z
1/2-x,-y,z
1/2+x,-y,1/2-z
1/2-x,1/2+y,1/2-z
1/2-x,1/2-y,-z
1/2+x,y,-z
1/2-x,y,1/2+z
1/2+x,1/2-y,1/2+z
loop_
_atom_site_type_symbol
_atom_site_label
_atom_site_fract_x
_atom_site_fract_y
_atom_site_fract_z
Si Si1 0.000000 0.891191 0.750000
Si Si2 0.750000 0.500000 0.709709
Si Si3 0.241085 0.639672 0.897857
Si Si4 0.000000 0.750000 0.138272
Si Si5 0.444234 0.455823 0.140638
Si Si6 0.147030 0.661493 0.668500
Si Si7 0.219596 0.675959 0.986372
O O1 0.946924 0.849603 0.712009
O O2 0.795874 0.939176 0.763427
O O3 0.541998 0.506631 0.678495
O O4 0.434941 0.692049 0.889327
O O5 0.357776 0.571855 0.888295
O O6 0.156748 0.657963 0.941253
O O7 0.044721 0.651511 0.865197
O O8 0.216948 0.727026 0.163729
O O9 0.250000 0.500000 0.121031
O O10 0.328447 0.394379 0.159885
O O11 0.250000 0.750000 0.000000
O O12 0.485911 0.651691 0.991548
#
# Coordination Sequence:
#
# PCOD9509133 Si02
#       7
#     8   8  16   8  16  16  16
#     4  12  22  40  65  92 136 171 234 294 352 412
#     4  12  22  42  66  98 128 170 232 302 344 412
#     4  11  23  42  69  96 140 178 230 284 360 431
#     4  10  24  40  63  88 128 184 228 280 334 427
#     4  11  21  41  66 102 128 177 227 286 361 416
#     4  11  24  40  64  93 133 183 230 285 355 414
#     4  10  23  39  67 105 135 175 232 296 355 417
#
# _framework density 21.260066999999999
#
# number of rings (size 3 to 8) (size 9 to 14) (size 15 to 20)
#    0.000    1.091    3.636    2.727   10.182    0.000 
#    0.000    2.727    0.000    1.091    0.000    0.000 
#    0.000    0.000    0.000    0.000    0.000    0.000 
#
# Total GULP energy -245414.601827 kJ/mol
# GULP energy per Si atom -5577.604587 kJ/mol
# Density = 2.121168 g / cm^3
# Si number density = 21.260067 Si / 1000 Ang^3
#
#
#
# Elastic Constant Matrix: (Units=GPa)
#
#
# Indices 1 2 3 4 5 6 
#
# 1 85.0913 10.0039 16.4016 0.0000 0.0000 0.0000
# 2 10.0039 60.0564 24.5868 0.0000 0.0000 0.0000
# 3 16.4016 24.5868 125.8555 0.0000 0.0000 0.0000
# 4 0.0000 0.0000 0.0000 21.2847 0.0000 0.0000
# 5 0.0000 0.0000 0.0000 0.0000 19.7655 0.0000
# 6 0.0000 0.0000 0.0000 0.0000 0.0000 46.6734
#
#
#
# Elastic Compliance Matrix: (Units=1/GPa)
#
#
# Indices 1 2 3 4 5 6 
#
# 1 0.012178 -0.001499 -0.001294 0.000000 0.000000 0.000000
# 2 -0.001499 0.018283 -0.003376 0.000000 0.000000 0.000000
# 3 -0.001294 -0.003376 0.008774 0.000000 0.000000 0.000000
# 4 0.000000 0.000000 0.000000 0.046982 0.000000 0.000000
# 5 0.000000 0.000000 0.000000 0.000000 0.050593 0.000000
# 6 0.000000 0.000000 0.000000 0.000000 0.000000 0.021425
#
#
# Mechanical properties :
#
#
# Convention : Reuss Voigt Hill
#
# Bulk Modulus (GPa) = 37.18030 41.44311 39.31170
# Shear Modulus (GPa) = 27.84909 32.21214 30.03061
#
# Velocity S-wave (km/s) = 3.62321 3.89671 3.76245
# Velocity P-wave (km/s) = 5.91860 6.30726 6.11602
#
# Compressibility (1/GPa) = 0.02689597
#
# Stress axis : x y z
#
# Youngs Moduli (GPa) = 82.11706 54.69584 113.97452
#
# Poissons Ratio (x) = 0.08197 0.14751
# Poissons Ratio (y) = 0.12307 0.38482
# Poissons Ratio (z) = 0.10628 0.18468
#
# Static dielectric constant tensor:
#      x y z
#    x 1.882270 0.000000 0.000000 
#    y 0.000000 1.835170 0.000000 
#    z 0.000000 0.000000 1.750060 
# 
# From -- ./inp_files/53289.got.cif
#   From: 2010.05.17/outbox.cif.g08.bks.cpg/sg68_27_cif.got.tgz:53289.got - 2010.06.03 18:57:09.
