data_PCOD9509087
_publ_section_title
;
Structure prediction by ZEFSAII (Michael W. Deem and Ramdas Pophale) SiO2 
 PCOD9509087
Probable space group: C C C A
;
_chemical_formula_sum "Si O2"
_cell_formula_units_Z 64
_cell_length_a 22.845914
_cell_length_b 24.327558
_cell_length_c 5.300466
_cell_angle_alpha 90.000000
_cell_angle_beta 90.000000
_cell_angle_gamma 90.000000
_cell_volume 2945.921075
_symmetry_space_group_name_H-M "C C C A"
_symmetry_group_IT_number 68
_space_group.IT_coordinate_system_code '2'
_symmetry_cell_setting 'orthorhombic'
loop_
_space_group_symop_operation_xyz
x,y,z
-x,1/2-y,z
x,1/2-y,1/2-z
-x,y,1/2-z
-x,-y,-z
x,1/2+y,-z
-x,1/2+y,1/2+z
x,-y,1/2+z
1/2+x,1/2+y,z
1/2-x,-y,z
1/2+x,-y,1/2-z
1/2-x,1/2+y,1/2-z
1/2-x,1/2-y,-z
1/2+x,y,-z
1/2-x,y,1/2+z
1/2+x,1/2-y,1/2+z
loop_
_atom_site_type_symbol
_atom_site_label
_atom_site_fract_x
_atom_site_fract_y
_atom_site_fract_z
Si Si1 0.430494 0.315936 0.242033
Si Si2 0.934833 0.019808 0.054747
Si Si3 0.889920 0.374345 0.267275
Si Si4 0.272612 0.935909 0.117794
O O1 0.428681 0.250000 0.250000
O O2 0.500000 0.331809 0.250000
O O3 0.393803 0.336834 0.484267
O O4 0.404269 0.340821 0.984229
O O5 0.937508 0.079780 0.167024
O O6 0.906042 0.982720 0.276162
O O7 0.000000 0.000000 0.000000
O O8 0.833890 0.414488 0.229996
O O9 0.229779 0.913448 0.334501
O O10 0.250000 0.000000 0.088865
#
# Coordination Sequence:
#
# PCOD9509087 Si02
#       4
#    16  16  16  16
#     4  11  26  46  70 102 135 177 236 287 333 404
#     4  10  23  35  54  92 136 172 213 257 321 423
#     4  12  24  41  72  94 137 189 218 278 353 398
#     4  10  23  41  63  96 135 175 225 272 328 406
#
# _framework density 21.724951999999998
#
# number of rings (size 3 to 8) (size 9 to 14) (size 15 to 20)
#    0.000    1.250    0.000    4.500   17.500    2.000 
#    0.000    0.000    0.000   15.000    0.000    0.000 
#    0.000    0.000    0.000    0.000    0.000    0.000 
#
# Total GULP energy -178195.190001 kJ/mol
# GULP energy per Si atom -5568.599688 kJ/mol
# Density = 2.167550 g / cm^3
# Si number density = 21.724952 Si / 1000 Ang^3
#
#
#
# Elastic Constant Matrix: (Units=GPa)
#
#
# Indices 1 2 3 4 5 6 
#
# 1 65.6120 40.9532 9.4133 0.0000 0.0000 0.0000
# 2 40.9532 94.5997 45.2324 0.0000 0.0000 0.0000
# 3 9.4133 45.2324 205.9471 0.0000 0.0000 0.0000
# 4 0.0000 0.0000 0.0000 104.7870 0.0000 0.0000
# 5 0.0000 0.0000 0.0000 0.0000 23.2041 0.0000
# 6 0.0000 0.0000 0.0000 0.0000 0.0000 32.1845
#
#
#
# Elastic Compliance Matrix: (Units=1/GPa)
#
#
# Indices 1 2 3 4 5 6 
#
# 1 0.021132 -0.009706 0.001166 0.000000 0.000000 0.000000
# 2 -0.009706 0.016269 -0.003130 0.000000 0.000000 0.000000
# 3 0.001166 -0.003130 0.005490 0.000000 0.000000 0.000000
# 4 0.000000 0.000000 0.000000 0.009543 0.000000 0.000000
# 5 0.000000 0.000000 0.000000 0.000000 0.043096 0.000000
# 6 0.000000 0.000000 0.000000 0.000000 0.000000 0.031071
#
#
# Mechanical properties :
#
#
# Convention : Reuss Voigt Hill
#
# Bulk Modulus (GPa) = 51.14655 61.92853 56.53754
# Shear Modulus (GPa) = 31.95782 50.07245 41.01513
#
# Velocity S-wave (km/s) = 3.83955 4.80608 4.34974
# Velocity P-wave (km/s) = 6.57648 7.70490 7.16294
#
# Compressibility (1/GPa) = 0.01955166
#
# Stress axis : x y z
#
# Youngs Moduli (GPa) = 47.32191 61.46693 182.16017
#
# Poissons Ratio (x) = 0.59658 -0.21236
# Poissons Ratio (y) = 0.45929 0.57008
# Poissons Ratio (z) = -0.05517 0.19236
#
# Static dielectric constant tensor:
#      x y z
#    x 3.379760 0.000000 0.000000 
#    y 0.000000 2.099980 0.000000 
#    z 0.000000 0.000000 2.113140 
# 
# From -- ./inp_files/1393.got.cif
#   From: 2010.05.17/outbox.cif.g08.bks.cpg/sg68_1_cif.got.tgz:1393.got - 2010.06.03 18:57:09.
