data_PCOD9509643
_publ_section_title
;
Structure prediction by ZEFSAII (Michael W. Deem and Ramdas Pophale) SiO2 
 PCOD9509643
Probable space group: C C C A
;
_chemical_formula_sum "Si O2"
_cell_formula_units_Z 88
_cell_length_a 12.350585
_cell_length_b 27.737331
_cell_length_c 11.640082
_cell_angle_alpha 90.000000
_cell_angle_beta 90.000000
_cell_angle_gamma 90.000000
_cell_volume 3987.569246
_symmetry_space_group_name_H-M "C C C A"
_symmetry_group_IT_number 68
_space_group.IT_coordinate_system_code '2'
_symmetry_cell_setting 'orthorhombic'
loop_
_space_group_symop_operation_xyz
x,y,z
-x,1/2-y,z
x,1/2-y,1/2-z
-x,y,1/2-z
-x,-y,-z
x,1/2+y,-z
-x,1/2+y,1/2+z
x,-y,1/2+z
1/2+x,1/2+y,z
1/2-x,-y,z
1/2+x,-y,1/2-z
1/2-x,1/2+y,1/2-z
1/2-x,1/2-y,-z
1/2+x,y,-z
1/2-x,y,1/2+z
1/2+x,1/2-y,1/2+z
loop_
_atom_site_type_symbol
_atom_site_label
_atom_site_fract_x
_atom_site_fract_y
_atom_site_fract_z
Si Si1 0.522343 0.492772 0.138391
Si Si2 0.000000 0.750000 0.069613
Si Si3 0.319469 0.345341 0.704432
Si Si4 0.963192 0.845385 0.932646
Si Si5 0.346747 0.418055 0.104470
Si Si6 0.316114 0.250000 0.250000
Si Si7 0.750000 0.500000 0.551764
O O1 0.500000 0.527768 0.250000
O O2 0.434707 0.451710 0.163781
O O3 0.649515 0.487692 0.130868
O O4 0.500000 0.500000 0.000000
O O5 0.100533 0.766468 0.149808
O O6 0.041716 0.706706 0.991535
O O7 0.384556 0.348314 0.823283
O O8 0.412425 0.351323 0.607640
O O9 0.228928 0.385876 0.684847
O O10 0.258302 0.293721 0.705121
O O11 0.917939 0.883791 0.022379
O O12 0.274389 0.453978 0.027848
#
# Coordination Sequence:
#
# PCOD9509643 Si02
#       7
#    16   8  16  16  16   8   8
#     4  10  24  45  71 106 140 192 245 309 378 458
#     4  11  24  43  70 106 144 183 248 299 376 458
#     4  11  25  44  70 105 143 194 247 305 374 452
#     4  11  25  44  67 106 143 188 245 307 368 456
#     4  11  24  46  71 105 143 196 246 308 377 454
#     4  11  24  43  72 106 142 193 240 303 376 456
#     4  10  24  48  74 104 146 194 244 314 382 438
#
# _framework density 22.068584000000001
#
# number of rings (size 3 to 8) (size 9 to 14) (size 15 to 20)
#    0.000    1.273    1.818    2.182    5.091    7.273 
#   19.636    0.000    0.000    0.000    0.000    0.000 
#    0.000    0.000    0.000    0.000    0.000    0.000 
#
# Total GULP energy -245625.029967 kJ/mol
# GULP energy per Si atom -5582.387045 kJ/mol
# Density = 2.201835 g / cm^3
# Si number density = 22.068584 Si / 1000 Ang^3
#
#
#
# Elastic Constant Matrix: (Units=GPa)
#
#
# Indices 1 2 3 4 5 6 
#
# 1 175.2231 45.1261 58.4740 0.0000 0.0000 0.0000
# 2 45.1261 98.7093 27.8627 0.0000 0.0000 0.0000
# 3 58.4740 27.8627 114.1203 0.0000 0.0000 0.0000
# 4 0.0000 0.0000 0.0000 50.8562 0.0000 0.0000
# 5 0.0000 0.0000 0.0000 0.0000 239.6039 0.0000
# 6 0.0000 0.0000 0.0000 0.0000 0.0000 39.6776
#
#
#
# Elastic Compliance Matrix: (Units=1/GPa)
#
#
# Indices 1 2 3 4 5 6 
#
# 1 0.007413 -0.002488 -0.003191 0.000000 0.000000 0.000000
# 2 -0.002488 0.011716 -0.001586 0.000000 0.000000 0.000000
# 3 -0.003191 -0.001586 0.010785 0.000000 0.000000 0.000000
# 4 0.000000 0.000000 0.000000 0.019663 0.000000 0.000000
# 5 0.000000 0.000000 0.000000 0.000000 0.004174 0.000000
# 6 0.000000 0.000000 0.000000 0.000000 0.000000 0.025203
#
#
# Mechanical properties :
#
#
# Convention : Reuss Voigt Hill
#
# Bulk Modulus (GPa) = 65.00096 72.33093 68.66594
# Shear Modulus (GPa) = 50.70497 83.13352 66.91924
#
# Velocity S-wave (km/s) = 4.79854 6.14429 5.51263
# Velocity P-wave (km/s) = 7.76011 9.12048 8.46766
#
# Compressibility (1/GPa) = 0.01538439
#
# Stress axis : x y z
#
# Youngs Moduli (GPa) = 134.90660 85.35496 92.72441
#
# Poissons Ratio (x) = 0.21237 0.29585
# Poissons Ratio (y) = 0.33566 0.14702
# Poissons Ratio (z) = 0.43044 0.13533
#
# Static dielectric constant tensor:
#      x y z
#    x 1.774430 0.000000 0.000000 
#    y 0.000000 1.814820 0.000000 
#    z 0.000000 0.000000 1.986170 
# 
# From -- ./inp_files/12111.got.cif
#   From: 2010.05.17/outbox.cif.g08.bks.cpg/sg68_7_cif.got.tgz:12111.got - 2010.06.03 18:57:09.
