data_PCOD9509958
_publ_section_title
;
Structure prediction by ZEFSAII (Michael W. Deem and Ramdas Pophale) SiO2 
 PCOD9509958
Probable space group: C C C A
;
_chemical_formula_sum "Si O2"
_cell_formula_units_Z 76
_cell_length_a 15.129895
_cell_length_b 15.938034
_cell_length_c 13.644116
_cell_angle_alpha 90.000000
_cell_angle_beta 90.000000
_cell_angle_gamma 90.000000
_cell_volume 3290.152787
_symmetry_space_group_name_H-M "C C C A"
_symmetry_group_IT_number 68
_space_group.IT_coordinate_system_code '2'
_symmetry_cell_setting 'orthorhombic'
loop_
_space_group_symop_operation_xyz
x,y,z
-x,1/2-y,z
x,1/2-y,1/2-z
-x,y,1/2-z
-x,-y,-z
x,1/2+y,-z
-x,1/2+y,1/2+z
x,-y,1/2+z
1/2+x,1/2+y,z
1/2-x,-y,z
1/2+x,-y,1/2-z
1/2-x,1/2+y,1/2-z
1/2-x,1/2-y,-z
1/2+x,y,-z
1/2-x,y,1/2+z
1/2+x,1/2-y,1/2+z
loop_
_atom_site_type_symbol
_atom_site_label
_atom_site_fract_x
_atom_site_fract_y
_atom_site_fract_z
Si Si1 0.828882 0.564193 0.245749
Si Si2 0.113816 0.835845 0.423286
Si Si3 0.962772 0.911097 0.542103
Si Si4 0.271643 0.602011 0.954159
Si Si5 0.500000 0.750000 0.750000
Si Si6 0.500000 0.033717 0.750000
O O1 0.750000 0.500000 0.255237
O O2 0.852488 0.587550 0.355961
O O3 0.920645 0.523822 0.208936
O O4 0.793608 0.624834 0.159688
O O5 0.197665 0.837510 0.498526
O O6 0.070836 0.786077 0.330211
O O7 0.031408 0.847527 0.494509
O O8 0.864224 0.891069 0.509427
O O9 0.966547 0.913599 0.658881
O O10 0.000000 0.000000 0.500000
O O11 0.250000 0.500000 0.954598
#
# Coordination Sequence:
#
# PCOD9509958 Si02
#       6
#    16  16  16  16   4   8
#     4  11  20  33  61  96 132 167 210 287 370 430
#     4  12  24  43  62  91 137 184 253 281 352 433
#     4  12  20  35  62  97 138 169 211 293 367 420
#     4  11  20  34  59  98 130 163 212 297 371 421
#     4  12  30  48  68  86 136 228 252 294 332 446
#     4  12  19  30  56  98 138 169 200 268 384 436
#
# _framework density 23.099229999999999
#
# number of rings (size 3 to 8) (size 9 to 14) (size 15 to 20)
#    0.000    0.421    6.316    5.053    0.000    0.000 
#    0.000    4.211    0.000    0.632    0.000    0.000 
#    0.000    0.000    0.000    0.000    0.000    0.000 
#
# Total GULP energy -211557.742719 kJ/mol
# GULP energy per Si atom -5567.309019 kJ/mol
# Density = 2.304666 g / cm^3
# Si number density = 23.099230 Si / 1000 Ang^3
#
#
#
# Elastic Constant Matrix: (Units=GPa)
#
#
# Indices 1 2 3 4 5 6 
#
# 1 190.1591 27.6295 39.8625 0.0000 0.0000 0.0000
# 2 27.6295 23.3453 14.6643 0.0000 0.0000 0.0000
# 3 39.8625 14.6643 152.4520 0.0000 0.0000 0.0000
# 4 0.0000 0.0000 0.0000 -3.9713 0.0000 0.0000
# 5 0.0000 0.0000 0.0000 0.0000 42.3262 0.0000
# 6 0.0000 0.0000 0.0000 0.0000 0.0000 16.9736
#
#
#
# Elastic Compliance Matrix: (Units=1/GPa)
#
#
# Indices 1 2 3 4 5 6 
#
# 1 0.006497 -0.007048 -0.001021 0.000000 0.000000 0.000000
# 2 -0.007048 0.053235 -0.003278 0.000000 0.000000 0.000000
# 3 -0.001021 -0.003278 0.007142 0.000000 0.000000 0.000000
# 4 0.000000 0.000000 0.000000 -0.251804 0.000000 0.000000
# 5 0.000000 0.000000 0.000000 0.000000 0.023626 0.000000
# 6 0.000000 0.000000 0.000000 0.000000 0.000000 0.058915
#
#
# Mechanical properties :
#
#
# Convention : Reuss Voigt Hill
#
# Bulk Modulus (GPa) = 22.63428 58.91876 40.77652
# Shear Modulus (GPa) = -76.95910 29.98570 -23.48670
#
# Velocity S-wave (km/s) = -5.77833 3.60686 -3.19215
# Velocity P-wave (km/s) = 5.89057 6.55043 2.02600
#
# Compressibility (1/GPa) = 0.04418078
#
# Stress axis : x y z
#
# Youngs Moduli (GPa) = 153.92279 18.78453 140.02350
#
# Poissons Ratio (x) = 0.13239 0.14294
# Poissons Ratio (y) = 1.08481 0.45898
# Poissons Ratio (z) = 0.15713 0.06157
#
# Static dielectric constant tensor:
#      x y z
#    x 1.932080 0.000000 0.000000 
#    y 0.000000 2.045330 0.000000 
#    z 0.000000 0.000000 1.884750 
# 
# From -- ./inp_files/22175.got.cif
#   From: 2010.05.17/outbox.cif.g08.bks.cpg/sg68_12_cif.got.tgz:22175.got - 2010.06.03 18:57:09.
