data_PCOD9509718
_publ_section_title
;
Structure prediction by ZEFSAII (Michael W. Deem and Ramdas Pophale) SiO2 
 PCOD9509718
Probable space group: C C C A
;
_chemical_formula_sum "Si O2"
_cell_formula_units_Z 64
_cell_length_a 17.347665
_cell_length_b 5.211437
_cell_length_c 29.776089
_cell_angle_alpha 90.000000
_cell_angle_beta 90.000000
_cell_angle_gamma 90.000000
_cell_volume 2691.944941
_symmetry_space_group_name_H-M "C C C A"
_symmetry_group_IT_number 68
_space_group.IT_coordinate_system_code '2'
_symmetry_cell_setting 'orthorhombic'
loop_
_space_group_symop_operation_xyz
x,y,z
-x,1/2-y,z
x,1/2-y,1/2-z
-x,y,1/2-z
-x,-y,-z
x,1/2+y,-z
-x,1/2+y,1/2+z
x,-y,1/2+z
1/2+x,1/2+y,z
1/2-x,-y,z
1/2+x,-y,1/2-z
1/2-x,1/2+y,1/2-z
1/2-x,1/2-y,-z
1/2+x,y,-z
1/2-x,y,1/2+z
1/2+x,1/2-y,1/2+z
loop_
_atom_site_type_symbol
_atom_site_label
_atom_site_fract_x
_atom_site_fract_y
_atom_site_fract_z
Si Si1 0.250000 0.000000 0.355113
Si Si2 0.376285 0.673861 0.901360
Si Si3 0.250000 0.000000 0.703957
Si Si4 0.500000 0.250000 0.471274
Si Si5 0.000000 0.250000 0.828484
Si Si6 0.388482 0.250000 0.250000
Si Si7 0.750000 0.000000 0.466693
O O1 0.177694 0.898770 0.382786
O O2 0.266173 0.749748 0.325607
O O3 0.427910 0.786276 0.939867
O O4 0.439273 0.601502 0.861969
O O5 0.321033 0.485479 0.930435
O O6 0.327834 0.954926 0.731297
O O7 0.500000 0.500000 0.500000
O O8 0.060313 0.138356 0.791171
O O9 0.750000 0.750000 0.500000
#
# Coordination Sequence:
#
# PCOD9509718 Si02
#       7
#     8  16   8   8   8   8   8
#     4  12  26  48  81 117 152 208 272 328 398 463
#     4  11  25  48  78 115 157 204 261 329 394 486
#     4  12  26  48  85 107 160 208 274 334 386 461
#     4  11  26  49  76 109 156 201 248 319 406 471
#     4  10  24  47  76 116 164 206 262 325 410 468
#     4  11  24  48  82 113 162 210 276 327 394 482
#     4  12  26  48  82 114 150 200 266 324 390 470
#
# _framework density 23.774633000000001
#
# number of rings (size 3 to 8) (size 9 to 14) (size 15 to 20)
#    0.000    0.750    2.500    3.750    0.000    4.000 
#    0.000    0.000    5.500    0.000    0.000    0.000 
#    0.000    0.000    0.000    0.000    0.000    0.000 
#
# Total GULP energy -178374.435338 kJ/mol
# GULP energy per Si atom -5574.201104 kJ/mol
# Density = 2.372052 g / cm^3
# Si number density = 23.774633 Si / 1000 Ang^3
#
#
#
# Elastic Constant Matrix: (Units=GPa)
#
#
# Indices 1 2 3 4 5 6 
#
# 1 185.8993 47.7120 103.2670 0.0000 0.0000 0.0000
# 2 47.7120 146.0954 80.0881 0.0000 0.0000 0.0000
# 3 103.2670 80.0881 195.4353 0.0000 0.0000 0.0000
# 4 0.0000 0.0000 0.0000 -9.2577 0.0000 0.0000
# 5 0.0000 0.0000 0.0000 0.0000 -93.4325 0.0000
# 6 0.0000 0.0000 0.0000 0.0000 0.0000 18.9644
#
#
#
# Elastic Compliance Matrix: (Units=1/GPa)
#
#
# Indices 1 2 3 4 5 6 
#
# 1 0.007629 -0.000363 -0.003882 0.000000 0.000000 0.000000
# 2 -0.000363 0.008845 -0.003433 0.000000 0.000000 0.000000
# 3 -0.003882 -0.003433 0.008575 0.000000 0.000000 0.000000
# 4 0.000000 0.000000 0.000000 -0.108018 0.000000 0.000000
# 5 0.000000 0.000000 0.000000 0.000000 -0.010703 0.000000
# 6 0.000000 0.000000 0.000000 0.000000 0.000000 0.052730
#
#
# Mechanical properties :
#
#
# Convention : Reuss Voigt Hill
#
# Bulk Modulus (GPa) = 103.17190 109.95159 106.56174
# Shear Modulus (GPa) = -223.67988 3.01236 -110.33376
#
# Velocity S-wave (km/s) = -9.71018 1.12685 -6.81975
# Velocity P-wave (km/s) = 9.06790 6.93115 4.13437
#
# Compressibility (1/GPa) = 0.00969256
#
# Stress axis : x y z
#
# Youngs Moduli (GPa) = 131.07669 113.05431 116.61926
#
# Poissons Ratio (x) = 0.04107 0.45275
# Poissons Ratio (y) = 0.04762 0.40033
# Poissons Ratio (z) = 0.50888 0.38809
#
# Static dielectric constant tensor:
#      x y z
#    x 2.035270 0.000000 0.000000 
#    y 0.000000 1.493520 0.000000 
#    z 0.000000 0.000000 1.967040 
# 
# From -- ./inp_files/55506.got.cif
#   From: 2010.05.17/outbox.cif.g08.bks.cpg/sg68_28_cif.got.tgz:55506.got - 2010.06.03 18:57:09.
