data_PCOD9509025
_publ_section_title
;
Structure prediction by ZEFSAII (Michael W. Deem and Ramdas Pophale) SiO2 
 PCOD9509025
Probable space group: C C C A
;
_chemical_formula_sum "Si O2"
_cell_formula_units_Z 72
_cell_length_a 12.241863
_cell_length_b 10.443067
_cell_length_c 27.945956
_cell_angle_alpha 90.000000
_cell_angle_beta 90.000000
_cell_angle_gamma 90.000000
_cell_volume 3572.683549
_symmetry_space_group_name_H-M "C C C A"
_symmetry_group_IT_number 68
_space_group.IT_coordinate_system_code '2'
_symmetry_cell_setting 'orthorhombic'
loop_
_space_group_symop_operation_xyz
x,y,z
-x,1/2-y,z
x,1/2-y,1/2-z
-x,y,1/2-z
-x,-y,-z
x,1/2+y,-z
-x,1/2+y,1/2+z
x,-y,1/2+z
1/2+x,1/2+y,z
1/2-x,-y,z
1/2+x,-y,1/2-z
1/2-x,1/2+y,1/2-z
1/2-x,1/2-y,-z
1/2+x,y,-z
1/2-x,y,1/2+z
1/2+x,1/2-y,1/2+z
loop_
_atom_site_type_symbol
_atom_site_label
_atom_site_fract_x
_atom_site_fract_y
_atom_site_fract_z
Si Si1 0.416458 0.869869 0.607051
Si Si2 0.442493 0.618462 0.093034
Si Si3 0.821875 0.122676 0.997647
Si Si4 0.368441 0.732561 0.696367
Si Si5 0.250000 0.000000 0.851194
O O1 0.500000 0.750000 0.601073
O O2 0.355061 0.884944 0.557375
O O3 0.343856 0.833395 0.653410
O O4 0.484465 0.000178 0.610611
O O5 0.500000 0.750000 0.107163
O O6 0.324788 0.592748 0.116612
O O7 0.420845 0.622671 0.035759
O O8 0.750000 0.000000 0.010338
O O9 0.750000 0.250000 0.000000
O O10 0.500000 0.750000 0.699782
O O11 0.323984 0.750000 0.750000
O O12 0.327955 0.593774 0.679052
#
# Coordination Sequence:
#
# PCOD9509025 Si02
#       5
#    16  16  16  16   8
#     4  11  21  42  65  93 135 181 220 281 340 394
#     4  12  24  42  67 101 141 181 226 278 336 411
#     4  12  23  38  61  99 137 181 226 271 336 410
#     4  10  22  45  73  97 135 181 225 289 347 398
#     4  12  22  48  70 100 138 180 230 280 348 404
#
# _framework density 20.152919000000001
#
# number of rings (size 3 to 8) (size 9 to 14) (size 15 to 20)
#    0.000    0.667    5.556    5.333    0.000    0.000 
#    6.000    0.000    0.000    0.000    0.000    0.000 
#    0.000    0.000    0.000    0.000    0.000    0.000 
#
# Total GULP energy -200936.360336 kJ/mol
# GULP energy per Si atom -5581.565565 kJ/mol
# Density = 2.010705 g / cm^3
# Si number density = 20.152919 Si / 1000 Ang^3
#
#
#
# Elastic Constant Matrix: (Units=GPa)
#
#
# Indices 1 2 3 4 5 6 
#
# 1 54.8046 51.2651 30.6591 0.0000 0.0000 0.0000
# 2 51.2651 172.4689 36.8493 0.0000 0.0000 0.0000
# 3 30.6591 36.8493 137.2621 0.0000 0.0000 0.0000
# 4 0.0000 0.0000 0.0000 32.0204 0.0000 0.0000
# 5 0.0000 0.0000 0.0000 0.0000 14.1171 0.0000
# 6 0.0000 0.0000 0.0000 0.0000 0.0000 43.7883
#
#
#
# Elastic Compliance Matrix: (Units=1/GPa)
#
#
# Indices 1 2 3 4 5 6 
#
# 1 0.027348 -0.007239 -0.004165 0.000000 0.000000 0.000000
# 2 -0.007239 0.008067 -0.000549 0.000000 0.000000 0.000000
# 3 -0.004165 -0.000549 0.008363 0.000000 0.000000 0.000000
# 4 0.000000 0.000000 0.000000 0.031230 0.000000 0.000000
# 5 0.000000 0.000000 0.000000 0.000000 0.070836 0.000000
# 6 0.000000 0.000000 0.000000 0.000000 0.000000 0.022837
#
#
# Mechanical properties :
#
#
# Convention : Reuss Voigt Hill
#
# Bulk Modulus (GPa) = 50.32111 66.89807 58.60959
# Shear Modulus (GPa) = 25.09883 34.36930 29.73407
#
# Velocity S-wave (km/s) = 3.53288 4.13416 3.84529
# Velocity P-wave (km/s) = 6.45488 7.48703 6.99003
#
# Compressibility (1/GPa) = 0.01987238
#
# Stress axis : x y z
#
# Youngs Moduli (GPa) = 36.56515 123.95882 119.57450
#
# Poissons Ratio (x) = 0.89736 0.49805
# Poissons Ratio (y) = 0.26470 0.06562
# Poissons Ratio (z) = 0.15230 0.06802
#
# Static dielectric constant tensor:
#      x y z
#    x 1.758660 0.000000 0.000000 
#    y 0.000000 1.544640 0.000000 
#    z 0.000000 0.000000 1.770520 
# 
# From -- ./inp_files/48944.got.cif
#   From: 2010.05.17/outbox.cif.g08.bks.cpg/sg68_25_cif.got.tgz:48944.got - 2010.06.03 18:57:09.
