data_PCOD9509634
_publ_section_title
;
Structure prediction by ZEFSAII (Michael W. Deem and Ramdas Pophale) SiO2 
 PCOD9509634
Probable space group: C C C A
;
_chemical_formula_sum "Si O2"
_cell_formula_units_Z 68
_cell_length_a 9.024362
_cell_length_b 19.419436
_cell_length_c 19.566843
_cell_angle_alpha 90.000000
_cell_angle_beta 90.000000
_cell_angle_gamma 90.000000
_cell_volume 3429.050499
_symmetry_space_group_name_H-M "C C C A"
_symmetry_group_IT_number 68
_space_group.IT_coordinate_system_code '2'
_symmetry_cell_setting 'orthorhombic'
loop_
_space_group_symop_operation_xyz
x,y,z
-x,1/2-y,z
x,1/2-y,1/2-z
-x,y,1/2-z
-x,-y,-z
x,1/2+y,-z
-x,1/2+y,1/2+z
x,-y,1/2+z
1/2+x,1/2+y,z
1/2-x,-y,z
1/2+x,-y,1/2-z
1/2-x,1/2+y,1/2-z
1/2-x,1/2-y,-z
1/2+x,y,-z
1/2-x,y,1/2+z
1/2+x,1/2-y,1/2+z
loop_
_atom_site_type_symbol
_atom_site_label
_atom_site_fract_x
_atom_site_fract_y
_atom_site_fract_z
Si Si1 0.839355 0.933217 0.420776
Si Si2 0.106343 0.299795 0.005581
Si Si3 0.000000 0.250000 0.250000
Si Si4 0.566156 0.146169 0.859511
Si Si5 0.926986 0.504571 0.822667
O O1 0.873727 0.875779 0.476361
O O2 0.719785 0.892398 0.374980
O O3 0.983057 0.961017 0.380203
O O4 0.750000 0.000000 0.447870
O O5 0.000000 0.250000 0.962102
O O6 0.017246 0.317943 0.076142
O O7 0.250000 0.250000 0.000000
O O8 0.091429 0.201560 0.199479
O O9 0.461606 0.084817 0.834549
O O10 0.750000 0.500000 0.823252
O O11 0.000000 0.484711 0.750000
#
# Coordination Sequence:
#
# PCOD9509634 Si02
#       5
#    16  16   4  16  16
#     4  10  24  45  67  95 136 173 229 282 335 409
#     4  12  24  43  65  98 139 177 223 278 343 402
#     4  12  20  40  68  94 128 176 230 260 348 400
#     4  11  23  41  69  94 131 182 218 278 335 404
#     4  11  24  42  68  97 131 172 225 279 336 403
#
# _framework density 19.830562
#
# number of rings (size 3 to 8) (size 9 to 14) (size 15 to 20)
#    0.000    0.941    4.706    2.118    3.294    4.706 
#    0.000    0.000    0.000    1.412    0.000    0.000 
#    0.000    0.000    0.000    0.000    0.000    0.000 
#
# Total GULP energy -189280.086486 kJ/mol
# GULP energy per Si atom -5567.061367 kJ/mol
# Density = 1.978543 g / cm^3
# Si number density = 19.830562 Si / 1000 Ang^3
#
#
#
# Elastic Constant Matrix: (Units=GPa)
#
#
# Indices 1 2 3 4 5 6 
#
# 1 162.2211 60.7597 38.6906 0.0000 0.0000 0.0000
# 2 60.7597 169.8552 63.7926 0.0000 0.0000 0.0000
# 3 38.6906 63.7926 60.0252 0.0000 0.0000 0.0000
# 4 0.0000 0.0000 0.0000 38.3187 0.0000 0.0000
# 5 0.0000 0.0000 0.0000 0.0000 8.3150 0.0000
# 6 0.0000 0.0000 0.0000 0.0000 0.0000 25.6678
#
#
#
# Elastic Compliance Matrix: (Units=1/GPa)
#
#
# Indices 1 2 3 4 5 6 
#
# 1 0.007490 -0.001442 -0.003296 0.000000 0.000000 0.000000
# 2 -0.001442 0.010076 -0.009779 0.000000 0.000000 0.000000
# 3 -0.003296 -0.009779 0.029177 0.000000 0.000000 0.000000
# 4 0.000000 0.000000 0.000000 0.026097 0.000000 0.000000
# 5 0.000000 0.000000 0.000000 0.000000 0.120265 0.000000
# 6 0.000000 0.000000 0.000000 0.000000 0.000000 0.038959
#
#
# Mechanical properties :
#
#
# Convention : Reuss Voigt Hill
#
# Bulk Modulus (GPa) = 56.46544 79.84301 68.15423
# Shear Modulus (GPa) = 18.72652 29.71753 24.22203
#
# Velocity S-wave (km/s) = 3.07632 3.87534 3.49872
# Velocity P-wave (km/s) = 6.41515 7.77009 7.12490
#
# Compressibility (1/GPa) = 0.01770995
#
# Stress axis : x y z
#
# Youngs Moduli (GPa) = 133.50250 99.24877 34.27361
#
# Poissons Ratio (x) = 0.14307 0.11297
# Poissons Ratio (y) = 0.19245 0.33516
# Poissons Ratio (z) = 0.44005 0.97055
#
# Static dielectric constant tensor:
#      x y z
#    x 1.825010 0.000000 0.000000 
#    y 0.000000 1.758730 0.000000 
#    z 0.000000 0.000000 1.818850 
# 
# From -- ./inp_files/27970.got.cif
#   From: 2010.05.17/outbox.cif.g08.bks.cpg/sg68_14_cif.got.tgz:27970.got - 2010.06.03 18:57:09.
