data_PCOD9509596
_publ_section_title
;
Structure prediction by ZEFSAII (Michael W. Deem and Ramdas Pophale) SiO2 
 PCOD9509596
Probable space group: C C C A
;
_chemical_formula_sum "Si O2"
_cell_formula_units_Z 64
_cell_length_a 17.248655
_cell_length_b 7.310502
_cell_length_c 23.515346
_cell_angle_alpha 90.000000
_cell_angle_beta 90.000000
_cell_angle_gamma 90.000000
_cell_volume 2965.198756
_symmetry_space_group_name_H-M "C C C A"
_symmetry_group_IT_number 68
_space_group.IT_coordinate_system_code '2'
_symmetry_cell_setting 'orthorhombic'
loop_
_space_group_symop_operation_xyz
x,y,z
-x,1/2-y,z
x,1/2-y,1/2-z
-x,y,1/2-z
-x,-y,-z
x,1/2+y,-z
-x,1/2+y,1/2+z
x,-y,1/2+z
1/2+x,1/2+y,z
1/2-x,-y,z
1/2+x,-y,1/2-z
1/2-x,1/2+y,1/2-z
1/2-x,1/2-y,-z
1/2+x,y,-z
1/2-x,y,1/2+z
1/2+x,1/2-y,1/2+z
loop_
_atom_site_type_symbol
_atom_site_label
_atom_site_fract_x
_atom_site_fract_y
_atom_site_fract_z
Si Si1 0.750000 0.500000 0.621729
Si Si2 0.585079 0.027696 0.919570
Si Si3 0.500000 0.250000 0.482362
Si Si4 0.517817 0.466178 0.314082
Si Si5 0.683868 0.650302 0.808364
O O1 0.674948 0.434383 0.587417
O O2 0.716884 0.677861 0.655543
O O3 0.565668 0.822270 0.939317
O O4 0.538163 0.056878 0.860894
O O5 0.547087 0.128572 0.972759
O O6 0.500000 0.250000 0.314295
O O7 0.500000 0.533584 0.250000
O O8 0.608984 0.464517 0.329277
O O9 0.659203 0.750000 0.750000
O O10 0.750000 0.500000 0.798198
#
# Coordination Sequence:
#
# PCOD9509596 Si02
#       5
#     8  16   8  16  16
#     4  12  24  42  66  98 130 170 224 284 322 386
#     4  11  23  44  67  96 129 174 224 271 334 389
#     4  10  24  44  68  88 130 178 222 276 322 402
#     4  11  20  41  66  94 132 177 206 262 340 397
#     4  12  24  39  63  96 137 176 216 265 329 399
#
# _framework density 21.583711999999998
#
# number of rings (size 3 to 8) (size 9 to 14) (size 15 to 20)
#    0.000    0.750    7.500    0.000    3.500    1.000 
#    0.000    0.625    0.000    0.000    0.000    0.000 
#    0.000    0.000    0.000    0.000    0.000    0.000 
#
# Total GULP energy -178419.716583 kJ/mol
# GULP energy per Si atom -5575.616143 kJ/mol
# Density = 2.153459 g / cm^3
# Si number density = 21.583712 Si / 1000 Ang^3
#
#
#
# Elastic Constant Matrix: (Units=GPa)
#
#
# Indices 1 2 3 4 5 6 
#
# 1 193.7460 15.4451 53.8728 0.0000 0.0000 0.0000
# 2 15.4451 33.2039 10.8218 0.0000 0.0000 0.0000
# 3 53.8728 10.8218 136.0590 0.0000 0.0000 0.0000
# 4 0.0000 0.0000 0.0000 -2.2143 0.0000 0.0000
# 5 0.0000 0.0000 0.0000 0.0000 25.6020 0.0000
# 6 0.0000 0.0000 0.0000 0.0000 0.0000 25.2222
#
#
#
# Elastic Compliance Matrix: (Units=1/GPa)
#
#
# Indices 1 2 3 4 5 6 
#
# 1 0.005932 -0.002047 -0.002186 0.000000 0.000000 0.000000
# 2 -0.002047 0.031625 -0.001705 0.000000 0.000000 0.000000
# 3 -0.002186 -0.001705 0.008351 0.000000 0.000000 0.000000
# 4 0.000000 0.000000 0.000000 -0.451617 0.000000 0.000000
# 5 0.000000 0.000000 0.000000 0.000000 0.039059 0.000000
# 6 0.000000 0.000000 0.000000 0.000000 0.000000 0.039648
#
#
# Mechanical properties :
#
#
# Convention : Reuss Voigt Hill
#
# Bulk Modulus (GPa) = 29.38394 58.14315 43.76354
# Shear Modulus (GPa) = -16.45922 28.57994 6.06036
#
# Velocity S-wave (km/s) = -2.76447 3.64283 1.67748
# Velocity P-wave (km/s) = 1.85842 6.68509 4.90633
#
# Compressibility (1/GPa) = 0.03403220
#
# Stress axis : x y z
#
# Youngs Moduli (GPa) = 168.56410 31.62074 119.74668
#
# Poissons Ratio (x) = 0.06473 0.26178
# Poissons Ratio (y) = 0.34505 0.20415
# Poissons Ratio (z) = 0.36851 0.05391
#
# Static dielectric constant tensor:
#      x y z
#    x 1.825250 0.000000 0.000000 
#    y 0.000000 2.027320 0.000000 
#    z 0.000000 0.000000 1.771500 
# 
# From -- ./inp_files/35804.got.cif
#   From: 2010.05.17/outbox.cif.g08.bks.cpg/sg68_18_cif.got.tgz:35804.got - 2010.06.03 18:57:09.
