data_PCOD9509322
_publ_section_title
;
Structure prediction by ZEFSAII (Michael W. Deem and Ramdas Pophale) SiO2 
 PCOD9509322
Probable space group: C C C A
;
_chemical_formula_sum "Si O2"
_cell_formula_units_Z 60
_cell_length_a 17.462222
_cell_length_b 9.993283
_cell_length_c 17.407695
_cell_angle_alpha 90.000000
_cell_angle_beta 90.000000
_cell_angle_gamma 90.000000
_cell_volume 3037.728532
_symmetry_space_group_name_H-M "C C C A"
_symmetry_group_IT_number 68
_space_group.IT_coordinate_system_code '2'
_symmetry_cell_setting 'orthorhombic'
loop_
_space_group_symop_operation_xyz
x,y,z
-x,1/2-y,z
x,1/2-y,1/2-z
-x,y,1/2-z
-x,-y,-z
x,1/2+y,-z
-x,1/2+y,1/2+z
x,-y,1/2+z
1/2+x,1/2+y,z
1/2-x,-y,z
1/2+x,-y,1/2-z
1/2-x,1/2+y,1/2-z
1/2-x,1/2-y,-z
1/2+x,y,-z
1/2-x,y,1/2+z
1/2+x,1/2-y,1/2+z
loop_
_atom_site_type_symbol
_atom_site_label
_atom_site_fract_x
_atom_site_fract_y
_atom_site_fract_z
Si Si1 0.628364 0.191063 0.361424
Si Si2 0.332603 0.996284 0.359064
Si Si3 0.250000 0.500000 0.787338
Si Si4 0.500000 0.250000 0.250000
Si Si5 0.446522 0.875600 0.477633
O O1 0.642501 0.349385 0.351907
O O2 0.555572 0.164721 0.305585
O O3 0.604518 0.159077 0.447922
O O4 0.702680 0.107779 0.335615
O O5 0.250000 0.000000 0.401042
O O6 0.311179 0.940758 0.274454
O O7 0.393621 0.914763 0.406509
O O8 0.500000 0.750000 0.460497
O O9 0.500000 0.000000 0.500000
#
# Coordination Sequence:
#
# PCOD9509322 Si02
#       5
#    16  16   8   4  16
#     4  12  23  42  71  99 137 184 233 290 351 414
#     4  10  23  44  64  99 139 175 236 289 343 424
#     4  10  24  42  70  98 134 184 238 290 348 416
#     4  12  16  40  68  92 134 174 238 280 354 412
#     4  12  25  44  69 105 139 184 234 285 351 419
#
# _framework density 19.7516
#
# number of rings (size 3 to 8) (size 9 to 14) (size 15 to 20)
#    0.800    0.000    6.667    0.000    1.867    3.200 
#    0.000    0.000    0.000    1.600    0.000    0.000 
#    0.000    0.000    0.000    0.000    0.000    0.000 
#
# Total GULP energy -167423.354255 kJ/mol
# GULP energy per Si atom -5580.778475 kJ/mol
# Density = 1.970664 g / cm^3
# Si number density = 19.751600 Si / 1000 Ang^3
#
#
#
# Elastic Constant Matrix: (Units=GPa)
#
#
# Indices 1 2 3 4 5 6 
#
# 1 132.8463 81.9786 68.4465 0.0000 0.0000 0.0000
# 2 81.9786 112.5499 47.1356 0.0000 0.0000 0.0000
# 3 68.4465 47.1356 98.5891 0.0000 0.0000 0.0000
# 4 0.0000 0.0000 0.0000 22.1401 0.0000 0.0000
# 5 0.0000 0.0000 0.0000 0.0000 43.4077 0.0000
# 6 0.0000 0.0000 0.0000 0.0000 0.0000 50.0698
#
#
#
# Elastic Compliance Matrix: (Units=1/GPa)
#
#
# Indices 1 2 3 4 5 6 
#
# 1 0.017130 -0.009373 -0.007412 0.000000 0.000000 0.000000
# 2 -0.009373 0.016238 -0.001256 0.000000 0.000000 0.000000
# 3 -0.007412 -0.001256 0.015889 0.000000 0.000000 0.000000
# 4 0.000000 0.000000 0.000000 0.045167 0.000000 0.000000
# 5 0.000000 0.000000 0.000000 0.000000 0.023037 0.000000
# 6 0.000000 0.000000 0.000000 0.000000 0.000000 0.019972
#
#
# Mechanical properties :
#
#
# Convention : Reuss Voigt Hill
#
# Bulk Modulus (GPa) = 75.89547 82.12298 79.00923
# Shear Modulus (GPa) = 28.10440 32.88517 30.49478
#
# Velocity S-wave (km/s) = 3.77622 4.08479 3.93353
# Velocity P-wave (km/s) = 7.58429 7.99472 7.79221
#
# Compressibility (1/GPa) = 0.01317602
#
# Stress axis : x y z
#
# Youngs Moduli (GPa) = 58.37560 61.58263 62.93621
#
# Poissons Ratio (x) = 0.57724 0.46645
# Poissons Ratio (y) = 0.54718 0.07904
# Poissons Ratio (z) = 0.43265 0.07734
#
# Static dielectric constant tensor:
#      x y z
#    x 1.728090 0.000000 0.000000 
#    y 0.000000 1.682490 0.000000 
#    z 0.000000 0.000000 1.716640 
# 
# From -- ./inp_files/31483.got.cif
#   From: 2010.05.17/outbox.cif.g08.bks.cpg/sg68_16_cif.got.tgz:31483.got - 2010.06.03 18:57:09.
