data_PCOD9509239
_publ_section_title
;
Structure prediction by ZEFSAII (Michael W. Deem and Ramdas Pophale) SiO2 
 PCOD9509239
Probable space group: C C C A
;
_chemical_formula_sum "Si O2"
_cell_formula_units_Z 60
_cell_length_a 4.950183
_cell_length_b 20.242215
_cell_length_c 24.811539
_cell_angle_alpha 90.000000
_cell_angle_beta 90.000000
_cell_angle_gamma 90.000000
_cell_volume 2486.182419
_symmetry_space_group_name_H-M "C C C A"
_symmetry_group_IT_number 68
_space_group.IT_coordinate_system_code '2'
_symmetry_cell_setting 'orthorhombic'
loop_
_space_group_symop_operation_xyz
x,y,z
-x,1/2-y,z
x,1/2-y,1/2-z
-x,y,1/2-z
-x,-y,-z
x,1/2+y,-z
-x,1/2+y,1/2+z
x,-y,1/2+z
1/2+x,1/2+y,z
1/2-x,-y,z
1/2+x,-y,1/2-z
1/2-x,1/2+y,1/2-z
1/2-x,1/2-y,-z
1/2+x,y,-z
1/2-x,y,1/2+z
1/2+x,1/2-y,1/2+z
loop_
_atom_site_type_symbol
_atom_site_label
_atom_site_fract_x
_atom_site_fract_y
_atom_site_fract_z
Si Si1 0.699246 0.115216 0.361687
Si Si2 0.197393 0.922683 0.797332
Si Si3 0.013125 0.425714 0.975570
Si Si4 0.500000 0.250000 0.169916
Si Si5 0.500000 0.250000 0.750000
O O1 0.499251 0.099530 0.311559
O O2 0.601024 0.076890 0.414285
O O3 0.637249 0.192774 0.365608
O O4 0.001746 0.092627 0.348097
O O5 0.000000 0.895737 0.750000
O O6 0.250000 0.000000 0.787798
O O7 0.230538 0.392095 0.013977
O O8 0.000000 0.500000 0.000000
O O9 0.761092 0.226147 0.206836
#
# Coordination Sequence:
#
# PCOD9509239 Si02
#       5
#    16  16  16   8   4
#     4  12  26  43  74  99 147 188 242 300 357 442
#     4  12  27  44  65 105 146 191 232 293 367 436
#     4  10  23  42  67  99 129 175 241 299 362 422
#     4  11  26  44  68 107 144 193 248 288 365 422
#     4  10  24  42  72  96 144 200 244 286 320 456
#
# _framework density 24.133386000000002
#
# number of rings (size 3 to 8) (size 9 to 14) (size 15 to 20)
#    0.000    0.800    0.000    6.400   22.400    0.000 
#    0.000    1.333    0.000    0.000    0.000    0.000 
#    0.000    0.000    0.000    0.000    0.000    0.000 
#
# Total GULP energy -167060.847564 kJ/mol
# GULP energy per Si atom -5568.694919 kJ/mol
# Density = 2.407846 g / cm^3
# Si number density = 24.133386 Si / 1000 Ang^3
#
#
#
# Elastic Constant Matrix: (Units=GPa)
#
#
# Indices 1 2 3 4 5 6 
#
# 1 183.8597 8.2861 10.9130 0.0000 0.0000 0.0000
# 2 8.2861 62.3477 21.1499 0.0000 0.0000 0.0000
# 3 10.9130 21.1499 97.5904 0.0000 0.0000 0.0000
# 4 0.0000 0.0000 0.0000 -6.8512 0.0000 0.0000
# 5 0.0000 0.0000 0.0000 0.0000 36.5829 0.0000
# 6 0.0000 0.0000 0.0000 0.0000 0.0000 23.1247
#
#
#
# Elastic Compliance Matrix: (Units=1/GPa)
#
#
# Indices 1 2 3 4 5 6 
#
# 1 0.005494 -0.000563 -0.000492 0.000000 0.000000 0.000000
# 2 -0.000563 0.017370 -0.003701 0.000000 0.000000 0.000000
# 3 -0.000492 -0.003701 0.011104 0.000000 0.000000 0.000000
# 4 0.000000 0.000000 0.000000 -0.145960 0.000000 0.000000
# 5 0.000000 0.000000 0.000000 0.000000 0.027335 0.000000
# 6 0.000000 0.000000 0.000000 0.000000 0.000000 0.043244
#
#
# Mechanical properties :
#
#
# Convention : Reuss Voigt Hill
#
# Bulk Modulus (GPa) = 40.89368 47.16621 44.02995
# Shear Modulus (GPa) = -210.53200 30.80121 -89.86540
#
# Velocity S-wave (km/s) = -9.35020 3.57640 -6.10883
# Velocity P-wave (km/s) = 9.97931 6.05314 5.61008
#
# Compressibility (1/GPa) = 0.02445365
#
# Stress axis : x y z
#
# Youngs Moduli (GPa) = 182.03247 57.57211 90.05660
#
# Poissons Ratio (x) = 0.03242 0.04433
# Poissons Ratio (y) = 0.10250 0.33333
# Poissons Ratio (z) = 0.08961 0.21310
#
# Static dielectric constant tensor:
#      x y z
#    x 2.062990 0.000000 0.000000 
#    y 0.000000 2.039070 0.000000 
#    z 0.000000 0.000000 1.983740 
# 
# From -- ./inp_files/42069.got.cif
#   From: 2010.05.17/outbox.cif.g08.bks.cpg/sg68_22_cif.got.tgz:42069.got - 2010.06.03 18:57:09.
