data_PCOD9509412
_publ_section_title
;
Structure prediction by ZEFSAII (Michael W. Deem and Ramdas Pophale) SiO2 
 PCOD9509412
Probable space group: C C C A
;
_chemical_formula_sum "Si O2"
_cell_formula_units_Z 48
_cell_length_a 21.819986
_cell_length_b 6.199066
_cell_length_c 12.876703
_cell_angle_alpha 90.000000
_cell_angle_beta 90.000000
_cell_angle_gamma 90.000000
_cell_volume 1741.748345
_symmetry_space_group_name_H-M "C C C A"
_symmetry_group_IT_number 68
_space_group.IT_coordinate_system_code '2'
_symmetry_cell_setting 'orthorhombic'
loop_
_space_group_symop_operation_xyz
x,y,z
-x,1/2-y,z
x,1/2-y,1/2-z
-x,y,1/2-z
-x,-y,-z
x,1/2+y,-z
-x,1/2+y,1/2+z
x,-y,1/2+z
1/2+x,1/2+y,z
1/2-x,-y,z
1/2+x,-y,1/2-z
1/2-x,1/2+y,1/2-z
1/2-x,1/2-y,-z
1/2+x,y,-z
1/2-x,y,1/2+z
1/2+x,1/2-y,1/2+z
loop_
_atom_site_type_symbol
_atom_site_label
_atom_site_fract_x
_atom_site_fract_y
_atom_site_fract_z
Si Si1 0.433302 0.276345 0.127965
Si Si2 0.805905 0.154195 0.910332
Si Si3 0.836280 0.890267 0.644918
O O1 0.500000 0.250000 0.077956
O O2 0.440631 0.250000 0.250000
O O3 0.378537 0.102500 0.105812
O O4 0.403959 0.515705 0.117181
O O5 0.750000 0.000000 0.880362
O O6 0.802600 0.123194 0.653758
O O7 0.809240 0.197128 0.035134
O O8 0.835388 0.750000 0.750000
#
# Coordination Sequence:
#
# PCOD9509412 Si02
#       3
#    16  16  16
#     4   9  22  44  77 120 174 222 299 351 440 525
#     4  10  23  46  82 122 172 220 293 360 449 526
#     4  10  24  43  79 124 169 226 289 362 441 528
#
# _framework density 27.558516000000001
#
# number of rings (size 3 to 8) (size 9 to 14) (size 15 to 20)
#    2.000    0.333    0.000    1.000    4.667    1.333 
#    0.000    6.667    0.000    0.000    0.000   11.667 
#    0.000    0.000    0.000    1.333    0.000    0.000 
#
# Total GULP energy -133664.027152 kJ/mol
# GULP energy per Si atom -5569.334465 kJ/mol
# Density = 2.749579 g / cm^3
# Si number density = 27.558516 Si / 1000 Ang^3
#
#
#
# Elastic Constant Matrix: (Units=GPa)
#
#
# Indices 1 2 3 4 5 6 
#
# 1 272.0006 104.8154 73.6192 0.0000 0.0000 0.0000
# 2 104.8154 125.0729 70.6940 0.0000 0.0000 0.0000
# 3 73.6192 70.6940 163.3863 0.0000 0.0000 0.0000
# 4 0.0000 0.0000 0.0000 50.7738 0.0000 0.0000
# 5 0.0000 0.0000 0.0000 0.0000 39.5678 0.0000
# 6 0.0000 0.0000 0.0000 0.0000 0.0000 -18.3542
#
#
#
# Elastic Compliance Matrix: (Units=1/GPa)
#
#
# Indices 1 2 3 4 5 6 
#
# 1 0.005480 -0.004232 -0.000638 0.000000 0.000000 0.000000
# 2 -0.004232 0.013851 -0.004087 0.000000 0.000000 0.000000
# 3 -0.000638 -0.004087 0.008176 0.000000 0.000000 0.000000
# 4 0.000000 0.000000 0.000000 0.019695 0.000000 0.000000
# 5 0.000000 0.000000 0.000000 0.000000 0.025273 0.000000
# 6 0.000000 0.000000 0.000000 0.000000 0.000000 -0.054483
#
#
# Mechanical properties :
#
#
# Convention : Reuss Voigt Hill
#
# Bulk Modulus (GPa) = 104.22353 117.63522 110.92937
# Shear Modulus (GPa) = 127.86699 35.15289 81.50994
#
# Velocity S-wave (km/s) = 6.81902 3.57539 5.44438
# Velocity P-wave (km/s) = 9.99499 7.73452 8.93652
#
# Compressibility (1/GPa) = 0.00959476
#
# Stress axis : x y z
#
# Youngs Moduli (GPa) = 182.48744 72.19526 122.30635
#
# Poissons Ratio (x) = 0.30550 0.07806
# Poissons Ratio (y) = 0.77221 0.49981
# Poissons Ratio (z) = 0.11647 0.29503
#
# Static dielectric constant tensor:
#      x y z
#    x 2.347830 0.000000 0.000000 
#    y 0.000000 2.491670 0.000000 
#    z 0.000000 0.000000 2.190300 
# 
# From -- ./inp_files/16000.got.cif
#   From: 2010.05.17/outbox.cif.g08.bks.cpg/sg68_8_cif.got.tgz:16000.got - 2010.06.03 18:57:09.
