data_PCOD9509097
_publ_section_title
;
Structure prediction by ZEFSAII (Michael W. Deem and Ramdas Pophale) SiO2 
 PCOD9509097
Probable space group: C C C A
;
_chemical_formula_sum "Si O2"
_cell_formula_units_Z 72
_cell_length_a 5.409695
_cell_length_b 29.097173
_cell_length_c 21.794280
_cell_angle_alpha 90.000000
_cell_angle_beta 90.000000
_cell_angle_gamma 90.000000
_cell_volume 3430.568555
_symmetry_space_group_name_H-M "C C C A"
_symmetry_group_IT_number 68
_space_group.IT_coordinate_system_code '2'
_symmetry_cell_setting 'orthorhombic'
loop_
_space_group_symop_operation_xyz
x,y,z
-x,1/2-y,z
x,1/2-y,1/2-z
-x,y,1/2-z
-x,-y,-z
x,1/2+y,-z
-x,1/2+y,1/2+z
x,-y,1/2+z
1/2+x,1/2+y,z
1/2-x,-y,z
1/2+x,-y,1/2-z
1/2-x,1/2+y,1/2-z
1/2-x,1/2-y,-z
1/2+x,y,-z
1/2-x,y,1/2+z
1/2+x,1/2-y,1/2+z
loop_
_atom_site_type_symbol
_atom_site_label
_atom_site_fract_x
_atom_site_fract_y
_atom_site_fract_z
Si Si1 0.741006 0.554817 0.462342
Si Si2 0.001555 0.803235 0.460945
Si Si3 0.396326 0.797305 0.180099
Si Si4 0.500000 0.838429 0.750000
Si Si5 0.248255 0.630858 0.134625
O O1 0.750000 0.500000 0.452347
O O2 0.497451 0.566474 0.502603
O O3 0.720465 0.582997 0.399497
O O4 0.234374 0.808986 0.507397
O O5 0.064251 0.839930 0.408816
O O6 0.000000 0.750000 0.438718
O O7 0.500000 0.750000 0.153709
O O8 0.500000 0.800137 0.250000
O O9 0.116258 0.804340 0.199234
O O10 0.502752 0.838806 0.140550
O O11 0.341678 0.870779 0.794861
#
# Coordination Sequence:
#
# PCOD9509097 Si02
#       5
#    16  16  16   8  16
#     4  10  23  44  73 102 126 164 219 276 338 397
#     4  10  23  38  56  87 124 164 210 260 320 378
#     4   9  21  37  56  86 125 172 224 260 308 374
#     4  10  24  39  60  92 130 180 222 266 321 396
#     4  11  23  37  65  90 131 168 218 270 327 385
#
# _framework density 20.987773000000001
#
# number of rings (size 3 to 8) (size 9 to 14) (size 15 to 20)
#    0.000    2.000    0.000    1.333    9.333    7.111 
#    0.000    0.000    7.333    0.000    0.000    0.000 
#    0.000    0.000    0.000    0.000    0.000    0.000 
#
# Total GULP energy -200755.910212 kJ/mol
# GULP energy per Si atom -5576.553061 kJ/mol
# Density = 2.094000 g / cm^3
# Si number density = 20.987773 Si / 1000 Ang^3
#
#
#
# Elastic Constant Matrix: (Units=GPa)
#
#
# Indices 1 2 3 4 5 6 
#
# 1 107.7695 35.8461 42.6476 0.0000 0.0000 0.0000
# 2 35.8461 74.0063 51.4142 0.0000 0.0000 0.0000
# 3 42.6476 51.4142 86.6035 0.0000 0.0000 0.0000
# 4 0.0000 0.0000 0.0000 36.5520 0.0000 0.0000
# 5 0.0000 0.0000 0.0000 0.0000 38.7848 0.0000
# 6 0.0000 0.0000 0.0000 0.0000 0.0000 11.9725
#
#
#
# Elastic Compliance Matrix: (Units=1/GPa)
#
#
# Indices 1 2 3 4 5 6 
#
# 1 0.011874 -0.002875 -0.004141 0.000000 0.000000 0.000000
# 2 -0.002875 0.023693 -0.012651 0.000000 0.000000 0.000000
# 3 -0.004141 -0.012651 0.021096 0.000000 0.000000 0.000000
# 4 0.000000 0.000000 0.000000 0.027358 0.000000 0.000000
# 5 0.000000 0.000000 0.000000 0.000000 0.025783 0.000000
# 6 0.000000 0.000000 0.000000 0.000000 0.000000 0.083525
#
#
# Mechanical properties :
#
#
# Convention : Reuss Voigt Hill
#
# Bulk Modulus (GPa) = 57.69739 58.68834 58.19286
# Shear Modulus (GPa) = 20.96973 26.69328 23.83150
#
# Velocity S-wave (km/s) = 3.16435 3.57017 3.37337
# Velocity P-wave (km/s) = 6.39542 6.70959 6.55439
#
# Compressibility (1/GPa) = 0.01733181
#
# Stress axis : x y z
#
# Youngs Moduli (GPa) = 84.21909 42.20580 47.40195
#
# Poissons Ratio (x) = 0.12133 0.19627
# Poissons Ratio (y) = 0.24210 0.59966
# Poissons Ratio (z) = 0.34872 0.53393
#
# Static dielectric constant tensor:
#      x y z
#    x 2.045310 0.000000 0.000000 
#    y 0.000000 1.732560 0.000000 
#    z 0.000000 0.000000 1.780180 
# 
# From -- ./inp_files/42236.got.cif
#   From: 2010.05.17/outbox.cif.g08.bks.cpg/sg68_22_cif.got.tgz:42236.got - 2010.06.03 18:57:09.
