data_PCOD9509079
_publ_section_title
;
Structure prediction by ZEFSAII (Michael W. Deem and Ramdas Pophale) SiO2 
 PCOD9509079
Probable space group: C C C A
;
_chemical_formula_sum "Si O2"
_cell_formula_units_Z 56
_cell_length_a 14.240343
_cell_length_b 14.914216
_cell_length_c 9.981965
_cell_angle_alpha 90.000000
_cell_angle_beta 90.000000
_cell_angle_gamma 90.000000
_cell_volume 2120.005177
_symmetry_space_group_name_H-M "C C C A"
_symmetry_group_IT_number 68
_space_group.IT_coordinate_system_code '2'
_symmetry_cell_setting 'orthorhombic'
loop_
_space_group_symop_operation_xyz
x,y,z
-x,1/2-y,z
x,1/2-y,1/2-z
-x,y,1/2-z
-x,-y,-z
x,1/2+y,-z
-x,1/2+y,1/2+z
x,-y,1/2+z
1/2+x,1/2+y,z
1/2-x,-y,z
1/2+x,-y,1/2-z
1/2-x,1/2+y,1/2-z
1/2-x,1/2-y,-z
1/2+x,y,-z
1/2-x,y,1/2+z
1/2+x,1/2-y,1/2+z
loop_
_atom_site_type_symbol
_atom_site_label
_atom_site_fract_x
_atom_site_fract_y
_atom_site_fract_z
Si Si1 0.000000 0.005071 0.250000
Si Si2 0.478646 0.847841 0.593850
Si Si3 0.347346 0.344880 0.792861
Si Si4 0.273366 0.395294 0.523729
O O1 0.916920 0.072078 0.287103
O O2 0.027154 0.946786 0.383391
O O3 0.500000 0.750000 0.528782
O O4 0.500000 0.830052 0.750000
O O5 0.375654 0.872798 0.538865
O O6 0.388831 0.250000 0.750000
O O7 0.270553 0.367146 0.678656
O O8 0.301645 0.340721 0.937504
O O9 0.250000 0.500000 0.508943
#
# Coordination Sequence:
#
# PCOD9509079 Si02
#       4
#     8  16  16  16
#     4  10  22  48  70 110 156 198 262 314 394 458
#     4   9  21  43  74 110 149 195 249 314 389 459
#     4  12  28  48  74 112 157 202 257 322 395 459
#     4  12  25  50  79 111 153 204 260 326 388 465
#
# _framework density 26.415030000000002
#
# number of rings (size 3 to 8) (size 9 to 14) (size 15 to 20)
#    0.857    0.286    2.857    2.143    4.000    3.429 
#   10.286    0.000    0.000    0.000    0.000    0.000 
#    0.000    0.000    0.000    0.000    0.000    0.000 
#
# Total GULP energy -156051.972391 kJ/mol
# GULP energy per Si atom -5573.284728 kJ/mol
# Density = 2.635491 g / cm^3
# Si number density = 26.415030 Si / 1000 Ang^3
#
#
#
# Elastic Constant Matrix: (Units=GPa)
#
#
# Indices 1 2 3 4 5 6 
#
# 1 67.5843 53.6007 27.2015 0.0000 0.0000 0.0000
# 2 53.6007 206.1366 27.5180 0.0000 0.0000 0.0000
# 3 27.2015 27.5180 121.2172 0.0000 0.0000 0.0000
# 4 0.0000 0.0000 0.0000 21.4536 0.0000 0.0000
# 5 0.0000 0.0000 0.0000 0.0000 40.5033 0.0000
# 6 0.0000 0.0000 0.0000 0.0000 0.0000 68.9072
#
#
#
# Elastic Compliance Matrix: (Units=1/GPa)
#
#
# Indices 1 2 3 4 5 6 
#
# 1 0.019909 -0.004724 -0.003395 0.000000 0.000000 0.000000
# 2 -0.004724 0.006123 -0.000330 0.000000 0.000000 0.000000
# 3 -0.003395 -0.000330 0.009087 0.000000 0.000000 0.000000
# 4 0.000000 0.000000 0.000000 0.046612 0.000000 0.000000
# 5 0.000000 0.000000 0.000000 0.000000 0.024689 0.000000
# 6 0.000000 0.000000 0.000000 0.000000 0.000000 0.014512
#
#
# Mechanical properties :
#
#
# Convention : Reuss Voigt Hill
#
# Bulk Modulus (GPa) = 54.88174 67.95315 61.41745
# Shear Modulus (GPa) = 34.74516 45.28067 40.01292
#
# Velocity S-wave (km/s) = 3.63072 4.14478 3.89624
# Velocity P-wave (km/s) = 6.19661 6.97758 6.59866
#
# Compressibility (1/GPa) = 0.01822100
#
# Stress axis : x y z
#
# Youngs Moduli (GPa) = 50.22812 163.30583 110.05313
#
# Poissons Ratio (x) = 0.77139 0.37367
# Poissons Ratio (y) = 0.23726 0.03633
# Poissons Ratio (z) = 0.17054 0.05391
#
# Static dielectric constant tensor:
#      x y z
#    x 1.936850 0.000000 0.000000 
#    y 0.000000 2.620080 0.000000 
#    z 0.000000 0.000000 2.091770 
# 
# From -- ./inp_files/13908.got.cif
#   From: 2010.05.17/outbox.cif.g08.bks.cpg/sg68_7_cif.got.tgz:13908.got - 2010.06.03 18:57:09.
