data_PCOD9509057
_publ_section_title
;
Structure prediction by ZEFSAII (Michael W. Deem and Ramdas Pophale) SiO2 
 PCOD9509057
Probable space group: C C C A
;
_chemical_formula_sum "Si O2"
_cell_formula_units_Z 72
_cell_length_a 22.026703
_cell_length_b 8.132257
_cell_length_c 16.816601
_cell_angle_alpha 90.000000
_cell_angle_beta 90.000000
_cell_angle_gamma 90.000000
_cell_volume 3012.304086
_symmetry_space_group_name_H-M "C C C A"
_symmetry_group_IT_number 68
_space_group.IT_coordinate_system_code '2'
_symmetry_cell_setting 'orthorhombic'
loop_
_space_group_symop_operation_xyz
x,y,z
-x,1/2-y,z
x,1/2-y,1/2-z
-x,y,1/2-z
-x,-y,-z
x,1/2+y,-z
-x,1/2+y,1/2+z
x,-y,1/2+z
1/2+x,1/2+y,z
1/2-x,-y,z
1/2+x,-y,1/2-z
1/2-x,1/2+y,1/2-z
1/2-x,1/2-y,-z
1/2+x,y,-z
1/2-x,y,1/2+z
1/2+x,1/2-y,1/2+z
loop_
_atom_site_type_symbol
_atom_site_label
_atom_site_fract_x
_atom_site_fract_y
_atom_site_fract_z
Si Si1 0.807860 0.771284 0.342826
Si Si2 0.250000 0.500000 0.562988
Si Si3 0.938356 0.650675 0.934535
Si Si4 0.640268 0.460861 0.558124
Si Si5 0.059566 0.837661 0.337626
O O1 0.798720 0.750000 0.250000
O O2 0.755354 0.667646 0.386061
O O3 0.825608 0.955830 0.366983
O O4 0.872574 0.690982 0.368794
O O5 0.307589 0.517302 0.506891
O O6 0.916520 0.551033 0.013237
O O7 0.948458 0.029020 0.140841
O O8 0.000000 0.750000 0.947005
O O9 0.885212 0.783343 0.920632
O O10 0.062843 0.750000 0.250000
O O11 0.000000 0.750000 0.372636
#
# Coordination Sequence:
#
# PCOD9509057 Si02
#       5
#    16   8  16  16  16
#     4  11  25  47  72 106 152 204 251 321 386 454
#     4  12  24  48  74 104 152 200 262 312 384 446
#     4  12  24  43  76 112 146 197 261 313 384 468
#     4  12  25  44  74 110 149 195 255 319 380 458
#     4  10  22  46  73 103 152 195 240 316 391 454
#
# _framework density 23.901969999999999
#
# number of rings (size 3 to 8) (size 9 to 14) (size 15 to 20)
#    0.000    0.667    4.444    2.667    0.000    2.667 
#    0.000   15.556    0.000    0.000    0.000    0.000 
#    0.000    0.000    0.000    0.000    0.000    0.000 
#
# Total GULP energy -200816.184699 kJ/mol
# GULP energy per Si atom -5578.227353 kJ/mol
# Density = 2.384757 g / cm^3
# Si number density = 23.901970 Si / 1000 Ang^3
#
#
#
# Elastic Constant Matrix: (Units=GPa)
#
#
# Indices 1 2 3 4 5 6 
#
# 1 147.7202 55.2788 34.2561 0.0000 0.0000 0.0000
# 2 55.2788 179.1006 70.4877 0.0000 0.0000 0.0000
# 3 34.2561 70.4877 112.7350 0.0000 0.0000 0.0000
# 4 0.0000 0.0000 0.0000 32.4514 0.0000 0.0000
# 5 0.0000 0.0000 0.0000 0.0000 67.8811 0.0000
# 6 0.0000 0.0000 0.0000 0.0000 0.0000 48.9751
#
#
#
# Elastic Compliance Matrix: (Units=1/GPa)
#
#
# Indices 1 2 3 4 5 6 
#
# 1 0.007763 -0.001947 -0.001142 0.000000 0.000000 0.000000
# 2 -0.001947 0.007894 -0.004344 0.000000 0.000000 0.000000
# 3 -0.001142 -0.004344 0.011934 0.000000 0.000000 0.000000
# 4 0.000000 0.000000 0.000000 0.030815 0.000000 0.000000
# 5 0.000000 0.000000 0.000000 0.000000 0.014732 0.000000
# 6 0.000000 0.000000 0.000000 0.000000 0.000000 0.020419
#
#
# Mechanical properties :
#
#
# Convention : Reuss Voigt Hill
#
# Bulk Modulus (GPa) = 78.58426 84.40010 81.49218
# Shear Modulus (GPa) = 44.38029 48.49706 46.43867
#
# Velocity S-wave (km/s) = 4.31369 4.50933 4.41259
# Velocity P-wave (km/s) = 7.59998 7.90567 7.75433
#
# Compressibility (1/GPa) = 0.01272519
#
# Stress axis : x y z
#
# Youngs Moduli (GPa) = 128.82018 126.67842 83.79763
#
# Poissons Ratio (x) = 0.24659 0.09567
# Poissons Ratio (y) = 0.25076 0.36404
# Poissons Ratio (z) = 0.14707 0.55032
#
# Static dielectric constant tensor:
#      x y z
#    x 1.948090 0.000000 0.000000 
#    y 0.000000 2.099290 0.000000 
#    z 0.000000 0.000000 1.965380 
# 
# From -- ./inp_files/33421.got.cif
#   From: 2010.05.17/outbox.cif.g08.bks.cpg/sg68_17_cif.got.tgz:33421.got - 2010.06.03 18:57:09.
