data_PCOD9509753
_publ_section_title
;
Structure prediction by ZEFSAII (Michael W. Deem and Ramdas Pophale) SiO2 
 PCOD9509753
Probable space group: C C C A
;
_chemical_formula_sum "Si O2"
_cell_formula_units_Z 44
_cell_length_a 13.791108
_cell_length_b 5.448963
_cell_length_c 25.872244
_cell_angle_alpha 90.000000
_cell_angle_beta 90.000000
_cell_angle_gamma 90.000000
_cell_volume 1944.227657
_symmetry_space_group_name_H-M "C C C A"
_symmetry_group_IT_number 68
_space_group.IT_coordinate_system_code '2'
_symmetry_cell_setting 'orthorhombic'
loop_
_space_group_symop_operation_xyz
x,y,z
-x,1/2-y,z
x,1/2-y,1/2-z
-x,y,1/2-z
-x,-y,-z
x,1/2+y,-z
-x,1/2+y,1/2+z
x,-y,1/2+z
1/2+x,1/2+y,z
1/2-x,-y,z
1/2+x,-y,1/2-z
1/2-x,1/2+y,1/2-z
1/2-x,1/2-y,-z
1/2+x,y,-z
1/2-x,y,1/2+z
1/2+x,1/2-y,1/2+z
loop_
_atom_site_type_symbol
_atom_site_label
_atom_site_fract_x
_atom_site_fract_y
_atom_site_fract_z
Si Si1 0.893817 0.641871 0.694836
Si Si2 0.000000 0.250000 0.750000
Si Si3 0.113009 0.263065 0.531982
Si Si4 0.250000 0.000000 0.111299
O O1 0.859659 0.750000 0.750000
O O2 0.924287 0.370411 0.710505
O O3 0.820271 0.653605 0.648674
O O4 0.000000 0.750000 0.682730
O O5 0.127186 0.538305 0.509571
O O6 0.000000 0.250000 0.548325
O O7 0.185610 0.182286 0.576816
#
# Coordination Sequence:
#
# PCOD9509753 Si02
#       4
#    16   4  16   8
#     4   9  22  44  62  97 141 180 226 285 345 415
#     4   8  18  44  64  82 146 180 214 288 344 402
#     4  10  24  49  71 102 145 185 234 303 363 425
#     4  12  24  40  74 106 126 192 242 288 354 430
#
# _framework density 22.631093
#
# number of rings (size 3 to 8) (size 9 to 14) (size 15 to 20)
#    0.000    2.545    0.000    1.091    5.091    4.364 
#   19.636    0.000    0.000    0.000    0.000    0.000 
#    0.000    0.000    0.000    0.000    0.000    0.000 
#
# Total GULP energy -122704.952470 kJ/mol
# GULP energy per Si atom -5577.497840 kJ/mol
# Density = 2.257958 g / cm^3
# Si number density = 22.631093 Si / 1000 Ang^3
#
#
#
# Elastic Constant Matrix: (Units=GPa)
#
#
# Indices 1 2 3 4 5 6 
#
# 1 138.6661 19.8304 103.2627 0.0000 0.0000 0.0000
# 2 19.8304 53.8216 24.1872 0.0000 0.0000 0.0000
# 3 103.2627 24.1872 122.4911 0.0000 0.0000 0.0000
# 4 0.0000 0.0000 0.0000 21.0891 0.0000 0.0000
# 5 0.0000 0.0000 0.0000 0.0000 63.3581 0.0000
# 6 0.0000 0.0000 0.0000 0.0000 0.0000 98.9211
#
#
#
# Elastic Compliance Matrix: (Units=1/GPa)
#
#
# Indices 1 2 3 4 5 6 
#
# 1 0.019377 0.000221 -0.016379 0.000000 0.000000 0.000000
# 2 0.000221 0.020392 -0.004213 0.000000 0.000000 0.000000
# 3 -0.016379 -0.004213 0.022804 0.000000 0.000000 0.000000
# 4 0.000000 0.000000 0.000000 0.047418 0.000000 0.000000
# 5 0.000000 0.000000 0.000000 0.000000 0.015783 0.000000
# 6 0.000000 0.000000 0.000000 0.000000 0.000000 0.010109
#
#
# Mechanical properties :
#
#
# Convention : Reuss Voigt Hill
#
# Bulk Modulus (GPa) = 45.80691 67.72661 56.76676
# Shear Modulus (GPa) = 27.18845 47.85357 37.52101
#
# Velocity S-wave (km/s) = 3.46985 4.60336 4.07620
# Velocity P-wave (km/s) = 6.02808 7.63190 6.87691
#
# Compressibility (1/GPa) = 0.02183077
#
# Stress axis : x y z
#
# Youngs Moduli (GPa) = 51.60708 49.03950 43.85259
#
# Poissons Ratio (x) = -0.01085 0.71826
# Poissons Ratio (y) = -0.01142 0.18475
# Poissons Ratio (z) = 0.84528 0.20661
#
# Static dielectric constant tensor:
#      x y z
#    x 1.819310 0.000000 0.000000 
#    y 0.000000 1.926520 0.000000 
#    z 0.000000 0.000000 1.798780 
# 
# From -- ./inp_files/47771.got.cif
#   From: 2010.05.17/outbox.cif.g08.bks.cpg/sg68_24_cif.got.tgz:47771.got - 2010.06.03 18:57:09.
