data_PCOD9509249
_publ_section_title
;
Structure prediction by ZEFSAII (Michael W. Deem and Ramdas Pophale) SiO2 
 PCOD9509249
Probable space group: C C C A
;
_chemical_formula_sum "Si O2"
_cell_formula_units_Z 64
_cell_length_a 7.481163
_cell_length_b 11.639898
_cell_length_c 32.676946
_cell_angle_alpha 90.000000
_cell_angle_beta 90.000000
_cell_angle_gamma 90.000000
_cell_volume 2845.507616
_symmetry_space_group_name_H-M "C C C A"
_symmetry_group_IT_number 68
_space_group.IT_coordinate_system_code '2'
_symmetry_cell_setting 'orthorhombic'
loop_
_space_group_symop_operation_xyz
x,y,z
-x,1/2-y,z
x,1/2-y,1/2-z
-x,y,1/2-z
-x,-y,-z
x,1/2+y,-z
-x,1/2+y,1/2+z
x,-y,1/2+z
1/2+x,1/2+y,z
1/2-x,-y,z
1/2+x,-y,1/2-z
1/2-x,1/2+y,1/2-z
1/2-x,1/2-y,-z
1/2+x,y,-z
1/2-x,y,1/2+z
1/2+x,1/2-y,1/2+z
loop_
_atom_site_type_symbol
_atom_site_label
_atom_site_fract_x
_atom_site_fract_y
_atom_site_fract_z
Si Si1 0.293847 0.248794 0.134650
Si Si2 0.750000 0.000000 0.159690
Si Si3 0.500000 0.750000 0.993281
Si Si4 0.405918 0.410007 0.291589
Si Si5 0.307945 0.630424 0.442924
O O1 0.500000 0.250000 0.119753
O O2 0.227255 0.379445 0.136330
O O3 0.317210 0.187319 0.179102
O O4 0.178319 0.174468 0.103369
O O5 0.567332 0.026105 0.184396
O O6 0.469742 0.853669 0.025540
O O7 0.339119 0.712418 0.964294
O O8 0.500000 0.370049 0.250000
O O9 0.250000 0.500000 0.281773
O O10 0.250000 0.500000 0.441645
#
# Coordination Sequence:
#
# PCOD9509249 Si02
#       5
#    16   8   8  16  16
#     4  10  23  42  68  96 136 176 222 276 337 397
#     4  10  24  44  66  98 134 184 222 282 334 402
#     4  10  24  40  64 100 131 175 220 272 338 404
#     4  11  23  44  69  99 134 175 226 282 338 400
#     4  11  22  43  66  97 133 174 220 276 335 400
#
# _framework density 22.491593000000002
#
# number of rings (size 3 to 8) (size 9 to 14) (size 15 to 20)
#    0.000    1.500    2.500    1.500    0.000   11.500 
#    9.000    1.250    0.000    0.000    0.000    0.000 
#    0.000    0.000    0.000    0.000    0.000    0.000 
#
# Total GULP energy -178625.970525 kJ/mol
# GULP energy per Si atom -5582.061579 kJ/mol
# Density = 2.244040 g / cm^3
# Si number density = 22.491593 Si / 1000 Ang^3
#
#
#
# Elastic Constant Matrix: (Units=GPa)
#
#
# Indices 1 2 3 4 5 6 
#
# 1 67.4531 20.7713 16.0408 0.0000 0.0000 0.0000
# 2 20.7713 165.2716 60.1221 0.0000 0.0000 0.0000
# 3 16.0408 60.1221 139.7408 0.0000 0.0000 0.0000
# 4 0.0000 0.0000 0.0000 22.0351 0.0000 0.0000
# 5 0.0000 0.0000 0.0000 0.0000 7.7309 0.0000
# 6 0.0000 0.0000 0.0000 0.0000 0.0000 22.0350
#
#
#
# Elastic Compliance Matrix: (Units=1/GPa)
#
#
# Indices 1 2 3 4 5 6 
#
# 1 0.015569 -0.001549 -0.001121 0.000000 0.000000 0.000000
# 2 -0.001549 0.007327 -0.002975 0.000000 0.000000 0.000000
# 3 -0.001121 -0.002975 0.008565 0.000000 0.000000 0.000000
# 4 0.000000 0.000000 0.000000 0.045382 0.000000 0.000000
# 5 0.000000 0.000000 0.000000 0.000000 0.129351 0.000000
# 6 0.000000 0.000000 0.000000 0.000000 0.000000 0.045382
#
#
# Mechanical properties :
#
#
# Convention : Reuss Voigt Hill
#
# Bulk Modulus (GPa) = 49.57408 62.92600 56.25004
# Shear Modulus (GPa) = 18.54679 28.72897 23.63788
#
# Velocity S-wave (km/s) = 2.87472 3.57784 3.24538
# Velocity P-wave (km/s) = 5.75393 6.71612 6.25355
#
# Compressibility (1/GPa) = 0.02017183
#
# Stress axis : x y z
#
# Youngs Moduli (GPa) = 64.23185 136.47265 116.75950
#
# Poissons Ratio (x) = 0.21139 0.13085
# Poissons Ratio (y) = 0.09949 0.34733
# Poissons Ratio (z) = 0.07198 0.40597
#
# Static dielectric constant tensor:
#      x y z
#    x 1.783680 0.000000 0.000000 
#    y 0.000000 2.126450 0.000000 
#    z 0.000000 0.000000 1.858410 
# 
# From -- ./inp_files/53827.got.cif
#   From: 2010.05.17/outbox.cif.g08.bks.cpg/sg68_27_cif.got.tgz:53827.got - 2010.06.03 18:57:09.
