data_PCOD9509597
_publ_section_title
;
Structure prediction by ZEFSAII (Michael W. Deem and Ramdas Pophale) SiO2 
 PCOD9509597
Probable space group: C C C A
;
_chemical_formula_sum "Si O2"
_cell_formula_units_Z 92
_cell_length_a 24.834338
_cell_length_b 19.036768
_cell_length_c 8.049025
_cell_angle_alpha 90.000000
_cell_angle_beta 90.000000
_cell_angle_gamma 90.000000
_cell_volume 3805.301578
_symmetry_space_group_name_H-M "C C C A"
_symmetry_group_IT_number 68
_space_group.IT_coordinate_system_code '2'
_symmetry_cell_setting 'orthorhombic'
loop_
_space_group_symop_operation_xyz
x,y,z
-x,1/2-y,z
x,1/2-y,1/2-z
-x,y,1/2-z
-x,-y,-z
x,1/2+y,-z
-x,1/2+y,1/2+z
x,-y,1/2+z
1/2+x,1/2+y,z
1/2-x,-y,z
1/2+x,-y,1/2-z
1/2-x,1/2+y,1/2-z
1/2-x,1/2-y,-z
1/2+x,y,-z
1/2-x,y,1/2+z
1/2+x,1/2-y,1/2+z
loop_
_atom_site_type_symbol
_atom_site_label
_atom_site_fract_x
_atom_site_fract_y
_atom_site_fract_z
Si Si1 0.428552 0.751440 0.054771
Si Si2 0.376172 0.110392 0.987007
Si Si3 0.581488 0.540588 0.995763
Si Si4 0.500000 0.528313 0.250000
Si Si5 0.223543 0.306434 0.877845
Si Si6 0.000000 0.750000 0.250000
Si Si7 0.159623 0.861378 0.620542
O O1 0.447202 0.750000 0.250000
O O2 0.420772 0.670971 0.998685
O O3 0.370198 0.788203 0.078788
O O4 0.460453 0.784381 0.894973
O O5 0.363272 0.106448 0.790941
O O6 0.395676 0.035627 0.048918
O O7 0.322454 0.140963 0.068197
O O8 0.538711 0.571883 0.129003
O O9 0.634303 0.588362 0.979165
O O10 0.541119 0.520608 0.849453
O O11 0.199722 0.250000 0.750000
O O12 0.277540 0.351526 0.842905
O O13 0.250000 0.250000 0.000000
#
# Coordination Sequence:
#
# PCOD9509597 Si02
#       7
#    16  16  16   8  16   4  16
#     4  10  24  44  69  96 146 187 234 300 369 435
#     4  11  24  46  69 104 142 186 234 293 364 429
#     4  11  24  44  73 102 139 188 238 294 347 434
#     4  10  24  45  68  98 140 195 234 278 366 421
#     4  12  23  43  76 103 137 186 229 283 364 436
#     4  12  26  42  64 114 136 174 250 310 360 418
#     4  11  23  47  69 102 144 186 233 294 366 433
#
# _framework density 24.176798000000002
#
# number of rings (size 3 to 8) (size 9 to 14) (size 15 to 20)
#    0.000    1.043    5.217    0.783    1.217    7.652 
#    0.000    1.739    0.000    0.000    0.000    0.000 
#    0.000    0.000    0.000    0.000    0.000    0.000 
#
# Total GULP energy -256208.162895 kJ/mol
# GULP energy per Si atom -5569.742672 kJ/mol
# Density = 2.412177 g / cm^3
# Si number density = 24.176798 Si / 1000 Ang^3
#
#
#
# Elastic Constant Matrix: (Units=GPa)
#
#
# Indices 1 2 3 4 5 6 
#
# 1 155.4522 38.7565 48.0229 0.0000 0.0000 0.0000
# 2 38.7565 98.5076 -4.2717 0.0000 0.0000 0.0000
# 3 48.0229 -4.2717 96.9629 0.0000 0.0000 0.0000
# 4 0.0000 0.0000 0.0000 27.0209 0.0000 0.0000
# 5 0.0000 0.0000 0.0000 0.0000 37.4332 0.0000
# 6 0.0000 0.0000 0.0000 0.0000 0.0000 29.6959
#
#
#
# Elastic Compliance Matrix: (Units=1/GPa)
#
#
# Indices 1 2 3 4 5 6 
#
# 1 0.008720 -0.003625 -0.004479 0.000000 0.000000 0.000000
# 2 -0.003625 0.011678 0.002310 0.000000 0.000000 0.000000
# 3 -0.004479 0.002310 0.012633 0.000000 0.000000 0.000000
# 4 0.000000 0.000000 0.000000 0.037008 0.000000 0.000000
# 5 0.000000 0.000000 0.000000 0.000000 0.026714 0.000000
# 6 0.000000 0.000000 0.000000 0.000000 0.000000 0.033675
#
#
# Mechanical properties :
#
#
# Convention : Reuss Voigt Hill
#
# Bulk Modulus (GPa) = 46.63384 57.32646 51.98015
# Shear Modulus (GPa) = 33.52020 36.72433 35.12226
#
# Velocity S-wave (km/s) = 3.72756 3.90165 3.81560
# Velocity P-wave (km/s) = 6.15279 6.63777 6.39988
#
# Compressibility (1/GPa) = 0.02144366
#
# Stress axis : x y z
#
# Youngs Moduli (GPa) = 114.67700 85.63191 79.15729
#
# Poissons Ratio (x) = 0.31042 0.35451
# Poissons Ratio (y) = 0.41571 -0.18284
# Poissons Ratio (z) = 0.51359 -0.19780
#
# Static dielectric constant tensor:
#      x y z
#    x 1.972400 0.000000 0.000000 
#    y 0.000000 1.893770 0.000000 
#    z 0.000000 0.000000 2.028590 
# 
# From -- ./inp_files/8960.got.cif
#   From: 2010.05.17/outbox.cif.g08.bks.cpg/sg68_5_cif.got.tgz:8960.got - 2010.06.03 18:57:09.
