data_PCOD9509960
_publ_section_title
;
Structure prediction by ZEFSAII (Michael W. Deem and Ramdas Pophale) SiO2 
 PCOD9509960
Probable space group: C C C A
;
_chemical_formula_sum "Si O2"
_cell_formula_units_Z 116
_cell_length_a 23.838108
_cell_length_b 23.807963
_cell_length_c 8.809683
_cell_angle_alpha 90.000000
_cell_angle_beta 90.000000
_cell_angle_gamma 90.000000
_cell_volume 4999.819239
_symmetry_space_group_name_H-M "C C C A"
_symmetry_group_IT_number 68
_space_group.IT_coordinate_system_code '2'
_symmetry_cell_setting 'orthorhombic'
loop_
_space_group_symop_operation_xyz
x,y,z
-x,1/2-y,z
x,1/2-y,1/2-z
-x,y,1/2-z
-x,-y,-z
x,1/2+y,-z
-x,1/2+y,1/2+z
x,-y,1/2+z
1/2+x,1/2+y,z
1/2-x,-y,z
1/2+x,-y,1/2-z
1/2-x,1/2+y,1/2-z
1/2-x,1/2-y,-z
1/2+x,y,-z
1/2-x,y,1/2+z
1/2+x,1/2-y,1/2+z
loop_
_atom_site_type_symbol
_atom_site_label
_atom_site_fract_x
_atom_site_fract_y
_atom_site_fract_z
Si Si1 0.913545 0.494504 0.205141
Si Si2 0.299168 0.862469 0.017234
Si Si3 0.500000 0.750000 0.750000
Si Si4 0.311676 0.391773 0.624485
Si Si5 0.471436 0.619855 0.394068
Si Si6 0.600764 0.317834 0.386016
Si Si7 0.164248 0.985628 0.454152
Si Si8 0.579641 0.114882 0.417888
O O1 0.951757 0.442114 0.162208
O O2 0.897371 0.503704 0.379389
O O3 0.933602 0.553608 0.147942
O O4 0.851389 0.488988 0.131351
O O5 0.306953 0.873116 0.199025
O O6 0.233788 0.858479 0.974820
O O7 0.334555 0.811498 0.939332
O O8 0.316742 0.921709 0.931147
O O9 0.452174 0.723822 0.636098
O O10 0.301228 0.458910 0.591197
O O11 0.373719 0.383468 0.551006
O O12 0.500000 0.648341 0.250000
O O13 0.417012 0.644103 0.471290
O O14 0.519216 0.628707 0.518057
O O15 0.600117 0.348342 0.223051
#
# Coordination Sequence:
#
# PCOD9509960 Si02
#       8
#    16  16   4  16  16  16  16  16
#     4  11  20  34  53  92 137 187 226 265 326 403
#     4  12  23  41  64  93 139 184 235 285 339 404
#     4  12  28  52  78 104 124 172 242 304 370 422
#     4  11  25  38  63 102 139 191 232 273 332 418
#     4  12  22  37  62  97 140 176 223 282 344 425
#     4  12  24  47  73  99 133 179 231 297 360 407
#     4  11  20  34  55  86 139 187 235 271 312 398
#     4  11  22  39  63  92 138 183 231 275 338 411
#
# _framework density 23.200838999999998
#
# number of rings (size 3 to 8) (size 9 to 14) (size 15 to 20)
#    0.000    0.552    5.517    4.138    1.931    2.207 
#    0.000    0.345    0.000    3.310    0.000    0.000 
#    0.000    0.000    0.000    0.000    0.000    0.000 
#
# Total GULP energy -322884.463876 kJ/mol
# GULP energy per Si atom -5566.973515 kJ/mol
# Density = 2.314803 g / cm^3
# Si number density = 23.200839 Si / 1000 Ang^3
#
#
#
# Elastic Constant Matrix: (Units=GPa)
#
#
# Indices 1 2 3 4 5 6 
#
# 1 79.4986 7.5466 14.3153 0.0000 0.0000 0.0000
# 2 7.5466 16.8813 3.5137 0.0000 0.0000 0.0000
# 3 14.3153 3.5137 96.0194 0.0000 0.0000 0.0000
# 4 0.0000 0.0000 0.0000 26.9939 0.0000 0.0000
# 5 0.0000 0.0000 0.0000 0.0000 29.1782 0.0000
# 6 0.0000 0.0000 0.0000 0.0000 0.0000 15.9484
#
#
#
# Elastic Compliance Matrix: (Units=1/GPa)
#
#
# Indices 1 2 3 4 5 6 
#
# 1 0.013437 -0.005633 -0.001797 0.000000 0.000000 0.000000
# 2 -0.005633 0.062053 -0.001431 0.000000 0.000000 0.000000
# 3 -0.001797 -0.001431 0.010735 0.000000 0.000000 0.000000
# 4 0.000000 0.000000 0.000000 0.037045 0.000000 0.000000
# 5 0.000000 0.000000 0.000000 0.000000 0.034272 0.000000
# 6 0.000000 0.000000 0.000000 0.000000 0.000000 0.062702
#
#
# Mechanical properties :
#
#
# Convention : Reuss Voigt Hill
#
# Bulk Modulus (GPa) = 14.59788 27.01673 20.80730
# Shear Modulus (GPa) = 19.17167 25.55900 22.36533
#
# Velocity S-wave (km/s) = 2.87772 3.32270 3.10818
# Velocity P-wave (km/s) = 4.16501 5.13716 4.67642
#
# Compressibility (1/GPa) = 0.06850309
#
# Stress axis : x y z
#
# Youngs Moduli (GPa) = 74.42046 16.11524 93.15442
#
# Poissons Ratio (x) = 0.09077 0.16742
# Poissons Ratio (y) = 0.41920 0.13330
# Poissons Ratio (z) = 0.13375 0.02306
#
# Static dielectric constant tensor:
#      x y z
#    x 1.935680 0.000000 0.000000 
#    y 0.000000 1.990090 0.000000 
#    z 0.000000 0.000000 1.964960 
# 
# From -- ./inp_files/8337.got.cif
#   From: 2010.05.17/outbox.cif.g08.bks.cpg/sg68_5_cif.got.tgz:8337.got - 2010.06.03 18:57:09.
