data_PCOD9509747
_publ_section_title
;
Structure prediction by ZEFSAII (Michael W. Deem and Ramdas Pophale) SiO2 
 PCOD9509747
Probable space group: C C C A
;
_chemical_formula_sum "Si O2"
_cell_formula_units_Z 88
_cell_length_a 21.126126
_cell_length_b 5.315867
_cell_length_c 33.393995
_cell_angle_alpha 90.000000
_cell_angle_beta 90.000000
_cell_angle_gamma 90.000000
_cell_volume 3750.268396
_symmetry_space_group_name_H-M "C C C A"
_symmetry_group_IT_number 68
_space_group.IT_coordinate_system_code '2'
_symmetry_cell_setting 'orthorhombic'
loop_
_space_group_symop_operation_xyz
x,y,z
-x,1/2-y,z
x,1/2-y,1/2-z
-x,y,1/2-z
-x,-y,-z
x,1/2+y,-z
-x,1/2+y,1/2+z
x,-y,1/2+z
1/2+x,1/2+y,z
1/2-x,-y,z
1/2+x,-y,1/2-z
1/2-x,1/2+y,1/2-z
1/2-x,1/2-y,-z
1/2+x,y,-z
1/2-x,y,1/2+z
1/2+x,1/2-y,1/2+z
loop_
_atom_site_type_symbol
_atom_site_label
_atom_site_fract_x
_atom_site_fract_y
_atom_site_fract_z
Si Si1 0.250000 0.500000 0.368171
Si Si2 0.750000 0.000000 0.026885
Si Si3 0.359129 0.796429 0.330752
Si Si4 0.842796 0.113377 0.592067
Si Si5 0.071540 0.989348 0.731274
Si Si6 0.925293 0.206080 0.975182
Si Si7 0.250000 0.500000 0.722772
O O1 0.306104 0.596251 0.341172
O O2 0.215714 0.717528 0.392784
O O3 0.689818 0.962153 0.056044
O O4 0.750000 0.250000 0.000000
O O5 0.416926 0.616536 0.313715
O O6 0.372143 0.952161 0.371557
O O7 0.314073 0.984551 0.304354
O O8 0.893512 0.278380 0.568324
O O9 0.106308 0.750000 0.750000
O O10 0.000000 0.988726 0.750000
O O11 0.095492 0.250000 0.750000
O O12 0.000000 0.250000 0.969868
O O13 0.908614 0.441947 0.004079
O O14 0.252371 0.750000 0.750000
#
# Coordination Sequence:
#
# PCOD9509747 Si02
#       7
#     8   8  16  16  16  16   8
#     4  12  24  44  68 108 164 194 242 298 388 466
#     4  12  24  40  67 105 152 204 242 298 370 450
#     4  12  26  44  73 108 154 199 243 318 382 467
#     4  12  25  44  70 112 157 200 248 314 379 465
#     4  10  25  50  77 105 142 191 257 319 381 457
#     4  10  24  48  77 106 146 203 266 319 371 447
#     4  12  26  44  69 101 144 194 248 298 372 460
#
# _framework density 23.464986
#
# number of rings (size 3 to 8) (size 9 to 14) (size 15 to 20)
#    0.000    0.727    3.636    2.727    5.091    2.909 
#    0.000    3.636    0.000    0.000    0.000    0.000 
#    0.000    0.000    0.000    0.000    0.000    0.000 
#
# Total GULP energy -244986.777767 kJ/mol
# GULP energy per Si atom -5567.881313 kJ/mol
# Density = 2.341158 g / cm^3
# Si number density = 23.464986 Si / 1000 Ang^3
#
#
#
# Elastic Constant Matrix: (Units=GPa)
#
#
# Indices 1 2 3 4 5 6 
#
# 1 97.7620 21.5365 55.8223 0.0000 0.0000 0.0000
# 2 21.5365 161.4431 60.0358 0.0000 0.0000 0.0000
# 3 55.8223 60.0358 128.8853 0.0000 0.0000 0.0000
# 4 0.0000 0.0000 0.0000 -23.4659 0.0000 0.0000
# 5 0.0000 0.0000 0.0000 0.0000 31.6632 0.0000
# 6 0.0000 0.0000 0.0000 0.0000 0.0000 28.8638
#
#
#
# Elastic Compliance Matrix: (Units=1/GPa)
#
#
# Indices 1 2 3 4 5 6 
#
# 1 0.013617 0.000456 -0.006110 0.000000 0.000000 0.000000
# 2 0.000456 0.007507 -0.003694 0.000000 0.000000 0.000000
# 3 -0.006110 -0.003694 0.012126 0.000000 0.000000 0.000000
# 4 0.000000 0.000000 0.000000 -0.042615 0.000000 0.000000
# 5 0.000000 0.000000 0.000000 0.000000 0.031582 0.000000
# 6 0.000000 0.000000 0.000000 0.000000 0.000000 0.034645
#
#
# Mechanical properties :
#
#
# Convention : Reuss Voigt Hill
#
# Bulk Modulus (GPa) = 68.71389 73.65329 71.18359
# Shear Modulus (GPa) = 62.17982 24.12529 43.15256
#
# Velocity S-wave (km/s) = 5.15330 3.20994 4.29303
# Velocity P-wave (km/s) = 8.04710 6.72272 7.41454
#
# Compressibility (1/GPa) = 0.01455310
#
# Stress axis : x y z
#
# Youngs Moduli (GPa) = 73.43505 133.20697 82.46714
#
# Poissons Ratio (x) = -0.06069 0.50389
# Poissons Ratio (y) = -0.03346 0.30465
# Poissons Ratio (z) = 0.44870 0.49209
#
# Static dielectric constant tensor:
#      x y z
#    x 1.833420 0.000000 0.000000 
#    y 0.000000 2.274480 0.000000 
#    z 0.000000 0.000000 2.258860 
# 
# From -- ./inp_files/56015.got.cif
#   From: 2010.05.17/outbox.cif.g08.bks.cpg/sg68_29_cif.got.tgz:56015.got - 2010.06.03 18:57:09.
