data_PCOD9509029
_publ_section_title
;
Structure prediction by ZEFSAII (Michael W. Deem and Ramdas Pophale) SiO2 
 PCOD9509029
Probable space group: C C C A
;
_chemical_formula_sum "Si O2"
_cell_formula_units_Z 56
_cell_length_a 15.003958
_cell_length_b 17.314885
_cell_length_c 8.065388
_cell_angle_alpha 90.000000
_cell_angle_beta 90.000000
_cell_angle_gamma 90.000000
_cell_volume 2095.321725
_symmetry_space_group_name_H-M "C C C A"
_symmetry_group_IT_number 68
_space_group.IT_coordinate_system_code '2'
_symmetry_cell_setting 'orthorhombic'
loop_
_space_group_symop_operation_xyz
x,y,z
-x,1/2-y,z
x,1/2-y,1/2-z
-x,y,1/2-z
-x,-y,-z
x,1/2+y,-z
-x,1/2+y,1/2+z
x,-y,1/2+z
1/2+x,1/2+y,z
1/2-x,-y,z
1/2+x,-y,1/2-z
1/2-x,1/2+y,1/2-z
1/2-x,1/2-y,-z
1/2+x,y,-z
1/2-x,y,1/2+z
1/2+x,1/2-y,1/2+z
loop_
_atom_site_type_symbol
_atom_site_label
_atom_site_fract_x
_atom_site_fract_y
_atom_site_fract_z
Si Si1 0.035813 0.096319 0.910726
Si Si2 0.302829 0.429383 0.865993
Si Si3 0.351439 0.348544 0.553765
Si Si4 0.625805 0.750000 0.750000
O O1 0.079638 0.171388 0.819733
O O2 0.000000 0.049652 0.750000
O O3 0.110240 0.055192 0.021190
O O4 0.952838 0.124325 0.021261
O O5 0.250000 0.500000 0.777308
O O6 0.331872 0.357429 0.748143
O O7 0.223422 0.404208 0.983532
O O8 0.337122 0.277417 0.427833
#
# Coordination Sequence:
#
# PCOD9509029 Si02
#       4
#    16  16  16   8
#     4  10  22  45  74 104 143 187 236 307 377 439
#     4  12  27  45  68 105 147 195 255 300 358 448
#     4  11  23  43  72 104 144 190 238 306 372 437
#     4  10  23  46  74 110 145 182 245 304 374 458
#
# _framework density 26.726206000000001
#
# number of rings (size 3 to 8) (size 9 to 14) (size 15 to 20)
#    0.000    1.143    0.000    9.000    0.000    6.857 
#    0.000   17.143    0.000    0.000    0.000    0.000 
#    0.000    0.000    0.000    0.000    0.000    0.000 
#
# Total GULP energy -156080.587840 kJ/mol
# GULP energy per Si atom -5574.306709 kJ/mol
# Density = 2.666538 g / cm^3
# Si number density = 26.726206 Si / 1000 Ang^3
#
#
#
# Elastic Constant Matrix: (Units=GPa)
#
#
# Indices 1 2 3 4 5 6 
#
# 1 150.3526 45.5861 61.7442 0.0000 0.0000 0.0000
# 2 45.5861 77.0485 60.1778 0.0000 0.0000 0.0000
# 3 61.7442 60.1778 156.9224 0.0000 0.0000 0.0000
# 4 0.0000 0.0000 0.0000 52.3115 0.0000 0.0000
# 5 0.0000 0.0000 0.0000 0.0000 23.5204 0.0000
# 6 0.0000 0.0000 0.0000 0.0000 0.0000 15.2626
#
#
#
# Elastic Compliance Matrix: (Units=1/GPa)
#
#
# Indices 1 2 3 4 5 6 
#
# 1 0.008535 -0.003465 -0.002030 0.000000 0.000000 0.000000
# 2 -0.003465 0.019935 -0.006282 0.000000 0.000000 0.000000
# 3 -0.002030 -0.006282 0.009580 0.000000 0.000000 0.000000
# 4 0.000000 0.000000 0.000000 0.019116 0.000000 0.000000
# 5 0.000000 0.000000 0.000000 0.000000 0.042516 0.000000
# 6 0.000000 0.000000 0.000000 0.000000 0.000000 0.065520
#
#
# Mechanical properties :
#
#
# Convention : Reuss Voigt Hill
#
# Bulk Modulus (GPa) = 68.97326 79.92664 74.44995
# Shear Modulus (GPa) = 25.82827 32.67326 29.25077
#
# Velocity S-wave (km/s) = 3.11207 3.50025 3.31185
# Velocity P-wave (km/s) = 6.22710 6.80487 6.52238
#
# Compressibility (1/GPa) = 0.01449837
#
# Stress axis : x y z
#
# Youngs Moduli (GPa) = 117.16526 50.16358 104.38328
#
# Poissons Ratio (x) = 0.17379 0.21186
# Poissons Ratio (y) = 0.40592 0.65569
# Poissons Ratio (z) = 0.23780 0.31511
#
# Static dielectric constant tensor:
#      x y z
#    x 2.098880 0.000000 0.000000 
#    y 0.000000 2.153460 0.000000 
#    z 0.000000 0.000000 2.081000 
# 
# From -- ./inp_files/4663.got.cif
#   From: 2010.05.17/outbox.cif.g08.bks.cpg/sg68_3_cif.got.tgz:4663.got - 2010.06.03 18:57:09.
