data_PCOD9509518
_publ_section_title
;
Structure prediction by ZEFSAII (Michael W. Deem and Ramdas Pophale) SiO2 
 PCOD9509518
Probable space group: C C C A
;
_chemical_formula_sum "Si O2"
_cell_formula_units_Z 96
_cell_length_a 8.553448
_cell_length_b 19.304626
_cell_length_c 27.385724
_cell_angle_alpha 90.000000
_cell_angle_beta 90.000000
_cell_angle_gamma 90.000000
_cell_volume 4521.961272
_symmetry_space_group_name_H-M "C C C A"
_symmetry_group_IT_number 68
_space_group.IT_coordinate_system_code '2'
_symmetry_cell_setting 'orthorhombic'
loop_
_space_group_symop_operation_xyz
x,y,z
-x,1/2-y,z
x,1/2-y,1/2-z
-x,y,1/2-z
-x,-y,-z
x,1/2+y,-z
-x,1/2+y,1/2+z
x,-y,1/2+z
1/2+x,1/2+y,z
1/2-x,-y,z
1/2+x,-y,1/2-z
1/2-x,1/2+y,1/2-z
1/2-x,1/2-y,-z
1/2+x,y,-z
1/2-x,y,1/2+z
1/2+x,1/2-y,1/2+z
loop_
_atom_site_type_symbol
_atom_site_label
_atom_site_fract_x
_atom_site_fract_y
_atom_site_fract_z
Si Si1 0.828842 0.069814 0.227438
Si Si2 0.754979 0.920868 0.538467
Si Si3 0.936939 0.670193 0.537211
Si Si4 0.321058 0.730427 0.367413
Si Si5 0.819668 0.371460 0.862483
Si Si6 0.392510 0.847141 0.705291
O O1 0.810244 0.118410 0.180167
O O2 0.714080 0.094633 0.270331
O O3 0.000000 0.063630 0.250000
O O4 0.750000 0.000000 0.208731
O O5 0.663204 0.865429 0.505134
O O6 0.682837 0.923437 0.592761
O O7 0.923803 0.884960 0.544730
O O8 0.750000 0.000000 0.518683
O O9 0.837231 0.678004 0.587201
O O10 0.000000 0.750000 0.527771
O O11 0.500000 0.750000 0.355731
O O12 0.222595 0.796763 0.384626
O O13 0.227242 0.704325 0.320495
O O14 0.984994 0.371610 0.835290
O O15 0.500000 0.821497 0.750000
#
# Coordination Sequence:
#
# PCOD9509518 Si02
#       6
#    16  16  16  16  16  16
#     4  11  23  42  66  94 137 184 232 290 361 435
#     4  12  26  46  72 105 145 183 239 300 366 430
#     4  11  25  46  72 104 140 191 237 293 364 434
#     4  11  22  43  67  98 138 177 241 289 358 419
#     4  11  23  41  67  98 136 181 231 297 349 433
#     4  10  24  42  65 101 132 179 235 290 356 421
#
# _framework density 21.229727
#
# number of rings (size 3 to 8) (size 9 to 14) (size 15 to 20)
#    0.000    1.000    3.333    4.500    2.333    4.667 
#    0.000    4.167    0.000    0.000    0.000    0.000 
#    0.000    0.000    0.000    0.000    0.000    0.000 
#
# Total GULP energy -267907.753384 kJ/mol
# GULP energy per Si atom -5581.411529 kJ/mol
# Density = 2.118141 g / cm^3
# Si number density = 21.229727 Si / 1000 Ang^3
#
#
#
# Elastic Constant Matrix: (Units=GPa)
#
#
# Indices 1 2 3 4 5 6 
#
# 1 100.8851 22.0498 67.0293 0.0000 0.0000 0.0000
# 2 22.0498 95.2995 22.2629 0.0000 0.0000 0.0000
# 3 67.0293 22.2629 111.4614 0.0000 0.0000 0.0000
# 4 0.0000 0.0000 0.0000 32.2544 0.0000 0.0000
# 5 0.0000 0.0000 0.0000 0.0000 22.4481 0.0000
# 6 0.0000 0.0000 0.0000 0.0000 0.0000 31.0405
#
#
#
# Elastic Compliance Matrix: (Units=1/GPa)
#
#
# Indices 1 2 3 4 5 6 
#
# 1 0.016736 -0.001596 -0.009746 0.000000 0.000000 0.000000
# 2 -0.001596 0.011159 -0.001269 0.000000 0.000000 0.000000
# 3 -0.009746 -0.001269 0.015086 0.000000 0.000000 0.000000
# 4 0.000000 0.000000 0.000000 0.031004 0.000000 0.000000
# 5 0.000000 0.000000 0.000000 0.000000 0.044547 0.000000
# 6 0.000000 0.000000 0.000000 0.000000 0.000000 0.032216
#
#
# Mechanical properties :
#
#
# Convention : Reuss Voigt Hill
#
# Bulk Modulus (GPa) = 56.30742 58.92558 57.61650
# Shear Modulus (GPa) = 27.48915 30.23553 28.86234
#
# Velocity S-wave (km/s) = 3.60230 3.77796 3.69117
# Velocity P-wave (km/s) = 6.62439 6.84449 6.73534
#
# Compressibility (1/GPa) = 0.01775965
#
# Stress axis : x y z
#
# Youngs Moduli (GPa) = 59.75002 89.61432 66.28576
#
# Poissons Ratio (x) = 0.14299 0.64602
# Poissons Ratio (y) = 0.09534 0.08414
# Poissons Ratio (z) = 0.58233 0.11375
#
# Static dielectric constant tensor:
#      x y z
#    x 1.758560 0.000000 0.000000 
#    y 0.000000 1.965680 0.000000 
#    z 0.000000 0.000000 1.842880 
# 
# From -- ./inp_files/49306.got.cif
#   From: 2010.05.17/outbox.cif.g08.bks.cpg/sg68_25_cif.got.tgz:49306.got - 2010.06.03 18:57:09.
