data_PCOD9509001
_publ_section_title
;
Structure prediction by ZEFSAII (Michael W. Deem and Ramdas Pophale) SiO2 
 PCOD9509001
Probable space group: C C C A
;
_chemical_formula_sum "Si O2"
_cell_formula_units_Z 88
_cell_length_a 18.094558
_cell_length_b 8.810779
_cell_length_c 27.063059
_cell_angle_alpha 90.000000
_cell_angle_beta 90.000000
_cell_angle_gamma 90.000000
_cell_volume 4314.586411
_symmetry_space_group_name_H-M "C C C A"
_symmetry_group_IT_number 68
_space_group.IT_coordinate_system_code '2'
_symmetry_cell_setting 'orthorhombic'
loop_
_space_group_symop_operation_xyz
x,y,z
-x,1/2-y,z
x,1/2-y,1/2-z
-x,y,1/2-z
-x,-y,-z
x,1/2+y,-z
-x,1/2+y,1/2+z
x,-y,1/2+z
1/2+x,1/2+y,z
1/2-x,-y,z
1/2+x,-y,1/2-z
1/2-x,1/2+y,1/2-z
1/2-x,1/2-y,-z
1/2+x,y,-z
1/2-x,y,1/2+z
1/2+x,1/2-y,1/2+z
loop_
_atom_site_type_symbol
_atom_site_label
_atom_site_fract_x
_atom_site_fract_y
_atom_site_fract_z
Si Si1 0.394811 0.114758 0.318388
Si Si2 0.949183 0.046540 0.845871
Si Si3 0.176693 0.931572 0.906855
Si Si4 0.213602 0.750000 0.250000
Si Si5 0.518105 0.571603 0.447555
Si Si6 0.697020 0.135583 0.844714
O O1 0.474967 0.036559 0.314305
O O2 0.414913 0.285915 0.336689
O O3 0.343771 0.123732 0.270205
O O4 0.345973 0.032221 0.359309
O O5 0.884828 0.927742 0.834518
O O6 0.977202 0.015303 0.902118
O O7 0.105665 0.939666 0.940612
O O8 0.191118 0.764896 0.885715
O O9 0.250000 0.000000 0.930001
O O10 0.263596 0.801051 0.204474
O O11 0.500000 0.750000 0.444464
O O12 0.500000 0.500000 0.500000
O O13 0.750000 0.000000 0.862338
#
# Coordination Sequence:
#
# PCOD9509001 Si02
#       6
#    16  16  16   8  16  16
#     4  10  23  38  67  94 134 177 224 270 329 393
#     4  10  22  45  64  93 134 182 207 268 348 400
#     4  11  22  43  69  99 134 176 216 269 347 400
#     4  12  24  39  66 103 132 178 238 286 311 386
#     4  11  25  44  73 100 132 168 222 276 333 415
#     4  12  24  41  65  94 136 181 220 275 332 387
#
# _framework density 20.39593
#
# number of rings (size 3 to 8) (size 9 to 14) (size 15 to 20)
#    0.000    1.091    5.455    0.000    7.636    1.455 
#    0.000    1.818    8.000    0.000    0.000    0.000 
#    0.000    0.000    0.000    0.000    0.000    0.000 
#
# Total GULP energy -245941.880528 kJ/mol
# GULP energy per Si atom -5589.588194 kJ/mol
# Density = 2.034951 g / cm^3
# Si number density = 20.395930 Si / 1000 Ang^3
#
#
#
# Elastic Constant Matrix: (Units=GPa)
#
#
# Indices 1 2 3 4 5 6 
#
# 1 182.4014 40.1737 61.4445 0.0000 0.0000 0.0000
# 2 40.1737 62.7099 24.5933 0.0000 0.0000 0.0000
# 3 61.4445 24.5933 93.6690 0.0000 0.0000 0.0000
# 4 0.0000 0.0000 0.0000 13.0789 0.0000 0.0000
# 5 0.0000 0.0000 0.0000 0.0000 28.6732 0.0000
# 6 0.0000 0.0000 0.0000 0.0000 0.0000 39.2505
#
#
#
# Elastic Compliance Matrix: (Units=1/GPa)
#
#
# Indices 1 2 3 4 5 6 
#
# 1 0.007586 -0.003242 -0.004125 0.000000 0.000000 0.000000
# 2 -0.003242 0.019162 -0.002904 0.000000 0.000000 0.000000
# 3 -0.004125 -0.002904 0.014144 0.000000 0.000000 0.000000
# 4 0.000000 0.000000 0.000000 0.076459 0.000000 0.000000
# 5 0.000000 0.000000 0.000000 0.000000 0.034876 0.000000
# 6 0.000000 0.000000 0.000000 0.000000 0.000000 0.025477
#
#
# Mechanical properties :
#
#
# Convention : Reuss Voigt Hill
#
# Bulk Modulus (GPa) = 49.14074 65.68926 57.41500
# Shear Modulus (GPa) = 24.38650 30.37178 27.37914
#
# Velocity S-wave (km/s) = 3.46158 3.86309 3.66783
# Velocity P-wave (km/s) = 6.33422 7.22322 6.79328
#
# Compressibility (1/GPa) = 0.02034971
#
# Stress axis : x y z
#
# Youngs Moduli (GPa) = 131.82073 52.18532 70.69944
#
# Poissons Ratio (x) = 0.16919 0.29164
# Poissons Ratio (y) = 0.42738 0.20534
# Poissons Ratio (z) = 0.54376 0.15157
#
# Static dielectric constant tensor:
#      x y z
#    x 1.744110 0.000000 0.000000 
#    y 0.000000 1.741850 0.000000 
#    z 0.000000 0.000000 1.697790 
# 
# From -- ./inp_files/54046.got.cif
#   From: 2010.05.17/outbox.cif.g08.bks.cpg/sg68_28_cif.got.tgz:54046.got - 2010.06.03 18:57:09.
