data_PCOD9509535
_publ_section_title
;
Structure prediction by ZEFSAII (Michael W. Deem and Ramdas Pophale) SiO2 
 PCOD9509535
Probable space group: C C C A
;
_chemical_formula_sum "Si O2"
_cell_formula_units_Z 68
_cell_length_a 18.904954
_cell_length_b 5.405117
_cell_length_c 29.025444
_cell_angle_alpha 90.000000
_cell_angle_beta 90.000000
_cell_angle_gamma 90.000000
_cell_volume 2965.921116
_symmetry_space_group_name_H-M "C C C A"
_symmetry_group_IT_number 68
_space_group.IT_coordinate_system_code '2'
_symmetry_cell_setting 'orthorhombic'
loop_
_space_group_symop_operation_xyz
x,y,z
-x,1/2-y,z
x,1/2-y,1/2-z
-x,y,1/2-z
-x,-y,-z
x,1/2+y,-z
-x,1/2+y,1/2+z
x,-y,1/2+z
1/2+x,1/2+y,z
1/2-x,-y,z
1/2+x,-y,1/2-z
1/2-x,1/2+y,1/2-z
1/2-x,1/2-y,-z
1/2+x,y,-z
1/2-x,y,1/2+z
1/2+x,1/2-y,1/2+z
loop_
_atom_site_type_symbol
_atom_site_label
_atom_site_fract_x
_atom_site_fract_y
_atom_site_fract_z
Si Si1 0.000000 0.250000 0.903686
Si Si2 0.500000 0.750000 0.750000
Si Si3 0.435102 0.932567 0.328833
Si Si4 0.750000 0.000000 0.416733
Si Si5 0.397336 0.008012 0.529145
Si Si6 0.719481 0.749628 0.173551
O O1 0.040432 0.450287 0.934673
O O2 0.940892 0.375449 0.871023
O O3 0.450844 0.583568 0.717519
O O4 0.500000 0.750000 0.335436
O O5 0.364268 0.775902 0.326276
O O6 0.820656 0.988337 0.446669
O O7 0.744215 0.776886 0.379874
O O8 0.402874 0.779191 0.493223
O O9 0.750000 0.500000 0.195425
O O10 0.750000 0.000000 0.193618
#
# Coordination Sequence:
#
# PCOD9509535 Si02
#       6
#     8   4  16   8  16  16
#     4  11  26  43  70 100 142 196 246 297 364 427
#     4  10  26  44  80 114 144 180 232 300 370 450
#     4  11  24  46  79 106 143 186 240 294 364 444
#     4  10  24  42  68  98 140 190 246 292 366 412
#     4  12  27  42  63  98 147 191 246 306 357 415
#     4  10  24  42  75 107 139 183 240 293 350 434
#
# _framework density 22.927109999999999
#
# number of rings (size 3 to 8) (size 9 to 14) (size 15 to 20)
#    0.706    0.471    0.000    4.588   16.471    0.000 
#    0.000    0.000    5.176    0.000    0.000    0.000 
#    0.000    0.000    0.000    0.000    0.000    0.000 
#
# Total GULP energy -190277.168209 kJ/mol
# GULP energy per Si atom -5596.387300 kJ/mol
# Density = 2.287493 g / cm^3
# Si number density = 22.927110 Si / 1000 Ang^3
#
#
#
# Elastic Constant Matrix: (Units=GPa)
#
#
# Indices 1 2 3 4 5 6 
#
# 1 117.4910 28.1487 9.6616 0.0000 0.0000 0.0000
# 2 28.1487 137.0543 23.0643 0.0000 0.0000 0.0000
# 3 9.6616 23.0643 95.5129 0.0000 0.0000 0.0000
# 4 0.0000 0.0000 0.0000 178.8866 0.0000 0.0000
# 5 0.0000 0.0000 0.0000 0.0000 75.8122 0.0000
# 6 0.0000 0.0000 0.0000 0.0000 0.0000 39.9173
#
#
#
# Elastic Compliance Matrix: (Units=1/GPa)
#
#
# Indices 1 2 3 4 5 6 
#
# 1 0.008973 -0.001762 -0.000482 0.000000 0.000000 0.000000
# 2 -0.001762 0.007951 -0.001742 0.000000 0.000000 0.000000
# 3 -0.000482 -0.001742 0.010939 0.000000 0.000000 0.000000
# 4 0.000000 0.000000 0.000000 0.005590 0.000000 0.000000
# 5 0.000000 0.000000 0.000000 0.000000 0.013190 0.000000
# 6 0.000000 0.000000 0.000000 0.000000 0.000000 0.025052
#
#
# Mechanical properties :
#
#
# Convention : Reuss Voigt Hill
#
# Bulk Modulus (GPa) = 50.27188 52.42305 51.34746
# Shear Modulus (GPa) = 57.93856 78.20213 68.07034
#
# Velocity S-wave (km/s) = 5.03246 5.84663 5.45475
# Velocity P-wave (km/s) = 7.46605 8.27600 7.88144
#
# Compressibility (1/GPa) = 0.01989184
#
# Stress axis : x y z
#
# Youngs Moduli (GPa) = 111.44506 125.76487 91.41445
#
# Poissons Ratio (x) = 0.22157 0.04408
# Poissons Ratio (y) = 0.19634 0.15923
# Poissons Ratio (z) = 0.05374 0.21907
#
# Static dielectric constant tensor:
#      x y z
#    x 1.790030 0.000000 0.000000 
#    y 0.000000 1.876070 0.000000 
#    z 0.000000 0.000000 1.891720 
# 
# From -- ./inp_files/55758.got.cif
#   From: 2010.05.17/outbox.cif.g08.bks.cpg/sg68_28_cif.got.tgz:55758.got - 2010.06.03 18:57:09.
