data_PCOD9509237
_publ_section_title
;
Structure prediction by ZEFSAII (Michael W. Deem and Ramdas Pophale) SiO2 
 PCOD9509237
Probable space group: C C C A
;
_chemical_formula_sum "Si O2"
_cell_formula_units_Z 88
_cell_length_a 21.513264
_cell_length_b 22.774143
_cell_length_c 8.148334
_cell_angle_alpha 90.000000
_cell_angle_beta 90.000000
_cell_angle_gamma 90.000000
_cell_volume 3992.244878
_symmetry_space_group_name_H-M "C C C A"
_symmetry_group_IT_number 68
_space_group.IT_coordinate_system_code '2'
_symmetry_cell_setting 'orthorhombic'
loop_
_space_group_symop_operation_xyz
x,y,z
-x,1/2-y,z
x,1/2-y,1/2-z
-x,y,1/2-z
-x,-y,-z
x,1/2+y,-z
-x,1/2+y,1/2+z
x,-y,1/2+z
1/2+x,1/2+y,z
1/2-x,-y,z
1/2+x,-y,1/2-z
1/2-x,1/2+y,1/2-z
1/2-x,1/2-y,-z
1/2+x,y,-z
1/2-x,y,1/2+z
1/2+x,1/2-y,1/2+z
loop_
_atom_site_type_symbol
_atom_site_label
_atom_site_fract_x
_atom_site_fract_y
_atom_site_fract_z
Si Si1 0.703921 0.426003 0.359705
Si Si2 0.165858 0.548631 0.511618
Si Si3 0.828788 0.691831 0.541650
Si Si4 0.264755 0.750000 0.750000
Si Si5 0.474176 0.810770 0.064700
Si Si6 0.978426 0.564470 0.936998
O O1 0.778609 0.428786 0.372631
O O2 0.673661 0.478901 0.464275
O O3 0.682162 0.367494 0.444615
O O4 0.682462 0.433169 0.173207
O O5 0.096274 0.567661 0.552010
O O6 0.783235 0.698798 0.697095
O O7 0.807214 0.740159 0.408276
O O8 0.900538 0.695998 0.580742
O O9 0.500000 0.750000 0.986307
O O10 0.500000 0.812382 0.250000
O O11 0.493090 0.874572 0.988570
O O12 0.000000 0.564420 0.750000
O O13 0.000000 0.500000 0.000000
#
# Coordination Sequence:
#
# PCOD9509237 Si02
#       6
#    16  16  16   8  16  16
#     4  11  23  39  66  94 131 168 211 280 327 394
#     4  11  23  40  63  98 129 167 220 266 337 394
#     4  11  23  44  66  97 129 169 219 265 334 383
#     4  10  24  40  68  96 128 166 214 278 320 390
#     4  10  23  42  67  92 125 172 217 264 315 389
#     4  11  24  42  67  94 130 174 218 271 327 399
#
# _framework density 22.042736999999999
#
# number of rings (size 3 to 8) (size 9 to 14) (size 15 to 20)
#    0.000    1.273    0.000    6.545    0.000   11.636 
#    0.000    2.273    0.000    0.000    0.000    0.000 
#    0.000    0.000    0.000    0.000    0.000    0.000 
#
# Total GULP energy -245877.591471 kJ/mol
# GULP energy per Si atom -5588.127079 kJ/mol
# Density = 2.199257 g / cm^3
# Si number density = 22.042737 Si / 1000 Ang^3
#
#
#
# Elastic Constant Matrix: (Units=GPa)
#
#
# Indices 1 2 3 4 5 6 
#
# 1 212.0074 45.1222 51.9916 0.0000 0.0000 0.0000
# 2 45.1222 134.5107 20.7788 0.0000 0.0000 0.0000
# 3 51.9916 20.7788 93.0317 0.0000 0.0000 0.0000
# 4 0.0000 0.0000 0.0000 51.5735 0.0000 0.0000
# 5 0.0000 0.0000 0.0000 0.0000 54.5532 0.0000
# 6 0.0000 0.0000 0.0000 0.0000 0.0000 8.6248
#
#
#
# Elastic Compliance Matrix: (Units=1/GPa)
#
#
# Indices 1 2 3 4 5 6 
#
# 1 0.005737 -0.001480 -0.002876 0.000000 0.000000 0.000000
# 2 -0.001480 0.008082 -0.000978 0.000000 0.000000 0.000000
# 3 -0.002876 -0.000978 0.012574 0.000000 0.000000 0.000000
# 4 0.000000 0.000000 0.000000 0.019390 0.000000 0.000000
# 5 0.000000 0.000000 0.000000 0.000000 0.018331 0.000000
# 6 0.000000 0.000000 0.000000 0.000000 0.000000 0.115944
#
#
# Mechanical properties :
#
#
# Convention : Reuss Voigt Hill
#
# Bulk Modulus (GPa) = 63.58876 75.03723 69.31300
# Shear Modulus (GPa) = 25.51442 44.39413 34.95428
#
# Velocity S-wave (km/s) = 3.40589 4.49263 3.98647
# Velocity P-wave (km/s) = 6.66163 7.81200 7.25964
#
# Compressibility (1/GPa) = 0.01572605
#
# Stress axis : x y z
#
# Youngs Moduli (GPa) = 174.30509 123.73198 79.52623
#
# Poissons Ratio (x) = 0.18316 0.22868
# Poissons Ratio (y) = 0.25803 0.07776
# Poissons Ratio (z) = 0.50123 0.12099
#
# Static dielectric constant tensor:
#      x y z
#    x 1.765110 0.000000 0.000000 
#    y 0.000000 1.902490 0.000000 
#    z 0.000000 0.000000 1.822370 
# 
# From -- ./inp_files/7148.got.cif
#   From: 2010.05.17/outbox.cif.g08.bks.cpg/sg68_4_cif.got.tgz:7148.got - 2010.06.03 18:57:09.
