data_PCOD9509209
_publ_section_title
;
Structure prediction by ZEFSAII (Michael W. Deem and Ramdas Pophale) SiO2 
 PCOD9509209
Probable space group: C C C A
;
_chemical_formula_sum "Si O2"
_cell_formula_units_Z 64
_cell_length_a 17.560225
_cell_length_b 25.856358
_cell_length_c 5.476487
_cell_angle_alpha 90.000000
_cell_angle_beta 90.000000
_cell_angle_gamma 90.000000
_cell_volume 2486.563129
_symmetry_space_group_name_H-M "C C C A"
_symmetry_group_IT_number 68
_space_group.IT_coordinate_system_code '2'
_symmetry_cell_setting 'orthorhombic'
loop_
_space_group_symop_operation_xyz
x,y,z
-x,1/2-y,z
x,1/2-y,1/2-z
-x,y,1/2-z
-x,-y,-z
x,1/2+y,-z
-x,1/2+y,1/2+z
x,-y,1/2+z
1/2+x,1/2+y,z
1/2-x,-y,z
1/2+x,-y,1/2-z
1/2-x,1/2+y,1/2-z
1/2-x,1/2-y,-z
1/2+x,y,-z
1/2-x,y,1/2+z
1/2+x,1/2-y,1/2+z
loop_
_atom_site_type_symbol
_atom_site_label
_atom_site_fract_x
_atom_site_fract_y
_atom_site_fract_z
Si Si1 0.352109 0.717922 0.498484
Si Si2 0.161229 0.021756 0.079356
Si Si3 0.583036 0.119984 0.170011
Si Si4 0.775244 0.131190 0.971689
O O1 0.357996 0.750000 0.250000
O O2 0.415429 0.672981 0.515017
O O3 0.226873 0.815626 0.504895
O O4 0.355537 0.750000 0.750000
O O5 0.131341 0.014385 0.354796
O O6 0.250000 0.000000 0.092200
O O7 0.126844 0.075495 0.975601
O O8 0.500000 0.104769 0.250000
O O9 0.637168 0.134316 0.402212
O O10 0.761111 0.105010 0.230952
#
# Coordination Sequence:
#
# PCOD9509209 Si02
#       4
#    16  16  16  16
#     4  11  25  47  73 108 148 204 261 303 359 455
#     4  10  25  46  79 109 143 196 255 316 377 464
#     4  11  27  48  75 115 158 196 247 323 390 448
#     4  10  23  41  72  96 142 189 250 296 348 440
#
# _framework density 25.738337999999999
#
# number of rings (size 3 to 8) (size 9 to 14) (size 15 to 20)
#    0.000    1.500    0.000    3.000   14.000   15.500 
#    0.000   23.750    0.000    0.000    0.000    0.000 
#    0.000    0.000    0.000    0.000    0.000    0.000 
#
# Total GULP energy -178650.144384 kJ/mol
# GULP energy per Si atom -5582.817012 kJ/mol
# Density = 2.567976 g / cm^3
# Si number density = 25.738338 Si / 1000 Ang^3
#
#
#
# Elastic Constant Matrix: (Units=GPa)
#
#
# Indices 1 2 3 4 5 6 
#
# 1 114.4895 17.4372 37.8388 0.0000 0.0000 0.0000
# 2 17.4372 136.7827 22.7199 0.0000 0.0000 0.0000
# 3 37.8388 22.7199 162.5635 0.0000 0.0000 0.0000
# 4 0.0000 0.0000 0.0000 47.6324 0.0000 0.0000
# 5 0.0000 0.0000 0.0000 0.0000 4.3366 0.0000
# 6 0.0000 0.0000 0.0000 0.0000 0.0000 15.1135
#
#
#
# Elastic Compliance Matrix: (Units=1/GPa)
#
#
# Indices 1 2 3 4 5 6 
#
# 1 0.009562 -0.000869 -0.002104 0.000000 0.000000 0.000000
# 2 -0.000869 0.007564 -0.000855 0.000000 0.000000 0.000000
# 3 -0.002104 -0.000855 0.006761 0.000000 0.000000 0.000000
# 4 0.000000 0.000000 0.000000 0.020994 0.000000 0.000000
# 5 0.000000 0.000000 0.000000 0.000000 0.230596 0.000000
# 6 0.000000 0.000000 0.000000 0.000000 0.000000 0.066166
#
#
# Mechanical properties :
#
#
# Convention : Reuss Voigt Hill
#
# Bulk Modulus (GPa) = 61.61511 63.31417 62.46464
# Shear Modulus (GPa) = 14.09605 35.80583 24.95094
#
# Velocity S-wave (km/s) = 2.34277 3.73386 3.11691
# Velocity P-wave (km/s) = 5.59545 6.57582 6.10535
#
# Compressibility (1/GPa) = 0.01622979
#
# Stress axis : x y z
#
# Youngs Moduli (GPa) = 104.57734 132.21080 147.91396
#
# Poissons Ratio (x) = 0.11496 0.31125
# Poissons Ratio (y) = 0.09093 0.12642
# Poissons Ratio (z) = 0.22006 0.11300
#
# Static dielectric constant tensor:
#      x y z
#    x 2.061880 0.000000 0.000000 
#    y 0.000000 2.205820 0.000000 
#    z 0.000000 0.000000 2.080170 
# 
# From -- ./inp_files/1480.got.cif
#   From: 2010.05.17/outbox.cif.g08.bks.cpg/sg68_1_cif.got.tgz:1480.got - 2010.06.03 18:57:09.
