data_PCOD9509691
_publ_section_title
;
Structure prediction by ZEFSAII (Michael W. Deem and Ramdas Pophale) SiO2 
 PCOD9509691
Probable space group: C C C A
;
_chemical_formula_sum "Si O2"
_cell_formula_units_Z 88
_cell_length_a 10.026525
_cell_length_b 13.859803
_cell_length_c 25.845885
_cell_angle_alpha 90.000000
_cell_angle_beta 90.000000
_cell_angle_gamma 90.000000
_cell_volume 3591.690500
_symmetry_space_group_name_H-M "C C C A"
_symmetry_group_IT_number 68
_space_group.IT_coordinate_system_code '2'
_symmetry_cell_setting 'orthorhombic'
loop_
_space_group_symop_operation_xyz
x,y,z
-x,1/2-y,z
x,1/2-y,1/2-z
-x,y,1/2-z
-x,-y,-z
x,1/2+y,-z
-x,1/2+y,1/2+z
x,-y,1/2+z
1/2+x,1/2+y,z
1/2-x,-y,z
1/2+x,-y,1/2-z
1/2-x,1/2+y,1/2-z
1/2-x,1/2-y,-z
1/2+x,y,-z
1/2-x,y,1/2+z
1/2+x,1/2-y,1/2+z
loop_
_atom_site_type_symbol
_atom_site_label
_atom_site_fract_x
_atom_site_fract_y
_atom_site_fract_z
Si Si1 0.250000 0.000000 0.328203
Si Si2 0.684796 0.864946 0.376382
Si Si3 0.850306 0.864391 0.756428
Si Si4 0.922668 0.342225 0.563688
Si Si5 0.938357 0.523006 0.922655
Si Si6 0.340742 0.281048 0.539932
O O1 0.262851 0.911247 0.288577
O O2 0.372584 0.006331 0.368116
O O3 0.681011 0.881390 0.316091
O O4 0.832405 0.892527 0.394031
O O5 0.572478 0.919530 0.408808
O O6 0.667664 0.755601 0.398684
O O7 0.850414 0.750000 0.750000
O O8 0.000000 0.902971 0.750000
O O9 0.805302 0.293570 0.527038
O O10 0.000000 0.250000 0.584388
O O11 0.023598 0.425520 0.546009
O O12 0.843974 0.601286 0.950802
O O13 0.500000 0.250000 0.526050
#
# Coordination Sequence:
#
# PCOD9509691 Si02
#       6
#     8  16  16  16  16  16
#     4  12  28  44  76 112 140 188 262 310 372 450
#     4  11  24  47  74 102 146 192 244 302 375 445
#     4  11  25  46  75 102 140 191 249 311 379 439
#     4  11  26  45  73 108 151 191 245 299 369 447
#     4  12  25  45  72 105 151 194 240 306 374 445
#     4  10  24  46  76 110 146 190 243 301 372 457
#
# _framework density 24.500997999999999
#
# number of rings (size 3 to 8) (size 9 to 14) (size 15 to 20)
#    0.000    0.909    1.818    3.818   12.727    0.000 
#    3.273    0.000    0.000    0.000    0.000    0.000 
#    0.000    0.000    0.000    0.000    0.000    0.000 
#
# Total GULP energy -245477.070306 kJ/mol
# GULP energy per Si atom -5579.024325 kJ/mol
# Density = 2.444523 g / cm^3
# Si number density = 24.500998 Si / 1000 Ang^3
#
#
#
# Elastic Constant Matrix: (Units=GPa)
#
#
# Indices 1 2 3 4 5 6 
#
# 1 113.9382 48.9632 50.7612 0.0000 0.0000 0.0000
# 2 48.9632 144.0928 45.5726 0.0000 0.0000 0.0000
# 3 50.7612 45.5726 158.5166 0.0000 0.0000 0.0000
# 4 0.0000 0.0000 0.0000 32.2365 0.0000 0.0000
# 5 0.0000 0.0000 0.0000 0.0000 54.5354 0.0000
# 6 0.0000 0.0000 0.0000 0.0000 0.0000 33.9726
#
#
#
# Elastic Compliance Matrix: (Units=1/GPa)
#
#
# Indices 1 2 3 4 5 6 
#
# 1 0.011278 -0.002959 -0.002761 0.000000 0.000000 0.000000
# 2 -0.002959 0.008411 -0.001470 0.000000 0.000000 0.000000
# 3 -0.002761 -0.001470 0.007615 0.000000 0.000000 0.000000
# 4 0.000000 0.000000 0.000000 0.031021 0.000000 0.000000
# 5 0.000000 0.000000 0.000000 0.000000 0.018337 0.000000
# 6 0.000000 0.000000 0.000000 0.000000 0.000000 0.029436
#
#
# Mechanical properties :
#
#
# Convention : Reuss Voigt Hill
#
# Bulk Modulus (GPa) = 77.37955 78.57129 77.97542
# Shear Modulus (GPa) = 40.06860 42.23226 41.15043
#
# Velocity S-wave (km/s) = 4.04838 4.15625 4.10267
# Velocity P-wave (km/s) = 7.31459 7.42770 7.37136
#
# Compressibility (1/GPa) = 0.01292331
#
# Stress axis : x y z
#
# Youngs Moduli (GPa) = 88.66517 118.89802 131.31437
#
# Poissons Ratio (x) = 0.35185 0.36254
# Poissons Ratio (y) = 0.26238 0.19308
# Poissons Ratio (z) = 0.24479 0.17482
#
# Static dielectric constant tensor:
#      x y z
#    x 1.913440 0.000000 0.000000 
#    y 0.000000 2.030290 0.000000 
#    z 0.000000 0.000000 1.941020 
# 
# From -- ./inp_files/44268.got.cif
#   From: 2010.05.17/outbox.cif.g08.bks.cpg/sg68_23_cif.got.tgz:44268.got - 2010.06.03 18:57:09.
