data_PCOD9509959
_publ_section_title
;
Structure prediction by ZEFSAII (Michael W. Deem and Ramdas Pophale) SiO2 
 PCOD9509959
Probable space group: C C C A
;
_chemical_formula_sum "Si O2"
_cell_formula_units_Z 80
_cell_length_a 25.909186
_cell_length_b 17.015446
_cell_length_c 9.168615
_cell_angle_alpha 90.000000
_cell_angle_beta 90.000000
_cell_angle_gamma 90.000000
_cell_volume 4042.042192
_symmetry_space_group_name_H-M "C C C A"
_symmetry_group_IT_number 68
_space_group.IT_coordinate_system_code '2'
_symmetry_cell_setting 'orthorhombic'
loop_
_space_group_symop_operation_xyz
x,y,z
-x,1/2-y,z
x,1/2-y,1/2-z
-x,y,1/2-z
-x,-y,-z
x,1/2+y,-z
-x,1/2+y,1/2+z
x,-y,1/2+z
1/2+x,1/2+y,z
1/2-x,-y,z
1/2+x,-y,1/2-z
1/2-x,1/2+y,1/2-z
1/2-x,1/2-y,-z
1/2+x,y,-z
1/2-x,y,1/2+z
1/2+x,1/2-y,1/2+z
loop_
_atom_site_type_symbol
_atom_site_label
_atom_site_fract_x
_atom_site_fract_y
_atom_site_fract_z
Si Si1 0.500000 0.617163 0.250000
Si Si2 0.279473 0.419307 0.693790
Si Si3 0.781674 0.317794 0.582404
Si Si4 0.387897 0.243010 0.000671
Si Si5 0.111526 0.120676 0.226272
Si Si6 0.000000 0.250000 0.498106
O O1 0.556179 0.577178 0.240126
O O2 0.498022 0.675091 0.389481
O O3 0.250000 0.500000 0.706549
O O4 0.248907 0.349810 0.778381
O O5 0.284039 0.391304 0.527745
O O6 0.336876 0.428630 0.757410
O O7 0.750000 0.250000 0.500000
O O8 0.839553 0.283965 0.596196
O O9 0.382230 0.327374 0.920556
O O10 0.388595 0.182465 0.862221
O O11 0.444478 0.243148 0.073132
#
# Coordination Sequence:
#
# PCOD9509959 Si02
#       6
#     8  16  16  16  16   8
#     4   7  10  18  38  66  94 120 149 210 258 274
#     4  11  22  34  49  76 109 138 168 210 261 310
#     4  11  20  34  53  76 102 137 176 212 253 305
#     4   8  13  23  43  71  97 120 160 210 251 287
#     4   8  13  24  42  69 100 121 159 209 252 289
#     4   7  10  18  36  68  99 112 148 213 261 270
#
# _framework density 19.791975999999998
#
# number of rings (size 3 to 8) (size 9 to 14) (size 15 to 20)
#    0.000    3.000    2.000    3.600    0.000    0.000 
#    0.000    0.000    0.000    0.000    5.200    8.400 
#    0.000    0.000    0.000    0.000    0.000    0.000 
#
# Total GULP energy -222708.503869 kJ/mol
# GULP energy per Si atom -5567.712597 kJ/mol
# Density = 1.974693 g / cm^3
# Si number density = 19.791976 Si / 1000 Ang^3
#
#
#
# Elastic Constant Matrix: (Units=GPa)
#
#
# Indices 1 2 3 4 5 6 
#
# 1 224.9859 41.8284 21.7844 0.0000 0.0000 0.0000
# 2 41.8284 51.7383 4.4277 0.0000 0.0000 0.0000
# 3 21.7844 4.4277 58.1668 0.0000 0.0000 0.0000
# 4 0.0000 0.0000 0.0000 10.9471 0.0000 0.0000
# 5 0.0000 0.0000 0.0000 0.0000 8.7186 0.0000
# 6 0.0000 0.0000 0.0000 0.0000 0.0000 28.4982
#
#
#
# Elastic Compliance Matrix: (Units=1/GPa)
#
#
# Indices 1 2 3 4 5 6 
#
# 1 0.005393 -0.004214 -0.001699 0.000000 0.000000 0.000000
# 2 -0.004214 0.022748 -0.000153 0.000000 0.000000 0.000000
# 3 -0.001699 -0.000153 0.017840 0.000000 0.000000 0.000000
# 4 0.000000 0.000000 0.000000 0.091348 0.000000 0.000000
# 5 0.000000 0.000000 0.000000 0.000000 0.114697 0.000000
# 6 0.000000 0.000000 0.000000 0.000000 0.000000 0.035090
#
#
# Mechanical properties :
#
#
# Convention : Reuss Voigt Hill
#
# Bulk Modulus (GPa) = 29.54395 52.33021 40.93708
# Shear Modulus (GPa) = 16.10143 27.42284 21.76214
#
# Velocity S-wave (km/s) = 2.85534 3.72634 3.31953
# Velocity P-wave (km/s) = 5.08235 6.70907 5.95155
#
# Compressibility (1/GPa) = 0.03384788
#
# Stress axis : x y z
#
# Youngs Moduli (GPa) = 185.43437 43.95925 56.05427
#
# Poissons Ratio (x) = 0.18526 0.09523
# Poissons Ratio (y) = 0.78150 0.00859
# Poissons Ratio (z) = 0.31503 0.00674
#
# Static dielectric constant tensor:
#      x y z
#    x 1.787470 0.000000 0.000000 
#    y 0.000000 1.685400 0.000000 
#    z 0.000000 0.000000 1.739490 
# 
# From -- ./inp_files/8818.got.cif
#   From: 2010.05.17/outbox.cif.g08.bks.cpg/sg68_5_cif.got.tgz:8818.got - 2010.06.03 18:57:09.
