data_PCOD9510925
_publ_section_title
;
Structure prediction by ZEFSAII (Michael W. Deem and Ramdas Pophale) SiO2 
 PCOD9510925
Probable space group: C C C A
;
_chemical_formula_sum "Si O2"
_cell_formula_units_Z 56
_cell_length_a 30.000000
_cell_length_b 15.000000
_cell_length_c 12.000000
_cell_angle_alpha 90.000000
_cell_angle_beta 90.000000
_cell_angle_gamma 90.000000
_cell_volume 5400.000000
_symmetry_space_group_name_H-M "C C C A"
_symmetry_group_IT_number 68
_space_group.IT_coordinate_system_code '2'
_symmetry_cell_setting 'orthorhombic'
loop_
_space_group_symop_operation_xyz
x,y,z
-x,1/2-y,z
x,1/2-y,1/2-z
-x,y,1/2-z
-x,-y,-z
x,1/2+y,-z
-x,1/2+y,1/2+z
x,-y,1/2+z
1/2+x,1/2+y,z
1/2-x,-y,z
1/2+x,-y,1/2-z
1/2-x,1/2+y,1/2-z
1/2-x,1/2-y,-z
1/2+x,y,-z
1/2-x,y,1/2+z
1/2+x,1/2-y,1/2+z
loop_
_atom_site_type_symbol
_atom_site_label
_atom_site_fract_x
_atom_site_fract_y
_atom_site_fract_z
Si Si1 0.652224 0.885018 0.890145
Si Si2 0.916708 0.388114 0.988902
Si Si3 0.751589 0.204053 0.874358
Si Si4 0.434661 0.207095 0.141702
Si Si5 0.395986 0.424741 0.620663
Si Si6 0.988694 0.147671 0.059536
Si Si7 0.338653 0.909234 0.159320
O O1 0.698076 0.833249 0.877288
O O2 0.610085 0.845550 0.823540
O O3 0.664557 0.985105 0.858080
O O4 0.630210 0.886492 0.013148
O O5 0.922013 0.292972 0.931464
O O6 0.904658 0.470699 0.907893
O O7 0.875675 0.377480 0.072172
O O8 0.964311 0.404551 0.051982
O O9 0.748626 0.250000 0.750000
O O10 0.708783 0.137404 0.864770
O O11 0.750000 0.250000 0.000000
O O12 0.454964 0.250000 0.250000
O O13 0.468144 0.149778 0.066330
O O14 0.446315 0.385770 0.630669
O O15 0.363075 0.400714 0.721379
O O16 0.000000 0.250000 0.090485
#
# Coordination Sequence:
#
# PCOD9510925 Si02
#       7
#    16  16  16  16  16  16  16
#     4  10  22  41  63  90 122 158 204 259 315 378
#     4  10  21  37  59  90 125 158 206 257 308 377
#     4  12  26  44  68  97 126 164 211 265 324 390
#     4  10  19  36  60  87 118 157 202 254 309 366
#     4  10  21  40  62  87 124 167 209 258 318 380
#     4   9  20  36  56  87 123 161 210 259 309 376
#     4  11  24  41  62  90 124 164 204 256 318 384
#
# _framework density 10.370369999999999
#
# number of rings (size 3 to 8) (size 9 to 14) (size 15 to 20)
#    0.000    1.714    0.000    3.857    0.000    7.714 
#    0.000    7.857    0.000    0.000    0.000    0.000 
#    0.000    0.000    0.000    0.000    0.000    0.000 
#
# Total GULP energy -312178.956084 kJ/mol
# GULP energy per Si atom -5574.624216 kJ/mol
# Density = 1.034677 g / cm^3
# Si number density = 10.370370 Si / 1000 Ang^3
#
#
#
# Elastic Constant Matrix: (Units=GPa)
#
#
# Indices 1 2 3 4 5 6 
#
# 1 159.4686 33.7365 18.4607 0.0000 0.0000 0.0000
# 2 33.7365 53.8045 27.8871 0.0000 0.0000 0.0000
# 3 18.4607 27.8871 66.4280 0.0000 0.0000 0.0000
# 4 0.0000 0.0000 0.0000 18.1454 0.0000 0.0000
# 5 0.0000 0.0000 0.0000 0.0000 20.3157 0.0000
# 6 0.0000 0.0000 0.0000 0.0000 0.0000 58.7891
#
#
#
# Elastic Compliance Matrix: (Units=1/GPa)
#
#
# Indices 1 2 3 4 5 6 
#
# 1 0.007231 -0.004464 -0.000136 0.000000 0.000000 0.000000
# 2 -0.004464 0.026510 -0.009889 0.000000 0.000000 0.000000
# 3 -0.000136 -0.009889 0.019243 0.000000 0.000000 0.000000
# 4 0.000000 0.000000 0.000000 0.055110 0.000000 0.000000
# 5 0.000000 0.000000 0.000000 0.000000 0.049223 0.000000
# 6 0.000000 0.000000 0.000000 0.000000 0.000000 0.017010
#
#
# Mechanical properties :
#
#
# Convention : Reuss Voigt Hill
#
# Bulk Modulus (GPa) = 41.65290 48.87440 45.26365
# Shear Modulus (GPa) = 23.66243 32.75783 28.21013
#
# Velocity S-wave (km/s) = 3.38134 3.97847 3.69200
# Velocity P-wave (km/s) = 5.94734 6.68730 6.32814
#
# Compressibility (1/GPa) = 0.02400793
#
# Stress axis : x y z
#
# Youngs Moduli (GPa) = 138.29684 37.72174 51.96707
#
# Poissons Ratio (x) = 0.16837 0.00705
# Poissons Ratio (y) = 0.61730 0.51389
# Poissons Ratio (z) = 0.01876 0.37302
#
# Static dielectric constant tensor:
#      x y z
#    x 1.743900 0.000000 0.000000 
#    y 0.000000 1.647940 0.000000 
#    z 0.000000 0.000000 1.872800 
# 
# From -- ./inp_files/17764.got.cif
#   From: 2010.05.17/outbox.ucp.g08.bks.cvg/sg68_9_cif.got.tgz:17764.got - 2010.06.11 16:49:25.
