data_PCOD9510108
_publ_section_title
;
Structure prediction by ZEFSAII (Michael W. Deem and Ramdas Pophale) SiO2 
 PCOD9510108
Probable space group: C C C A
;
_chemical_formula_sum "Si O2"
_cell_formula_units_Z 108
_cell_length_a 29.568527
_cell_length_b 11.458949
_cell_length_c 14.574507
_cell_angle_alpha 90.000000
_cell_angle_beta 90.000000
_cell_angle_gamma 90.000000
_cell_volume 4938.196300
_symmetry_space_group_name_H-M "C C C A"
_symmetry_group_IT_number 68
_space_group.IT_coordinate_system_code '2'
_symmetry_cell_setting 'orthorhombic'
loop_
_space_group_symop_operation_xyz
x,y,z
-x,1/2-y,z
x,1/2-y,1/2-z
-x,y,1/2-z
-x,-y,-z
x,1/2+y,-z
-x,1/2+y,1/2+z
x,-y,1/2+z
1/2+x,1/2+y,z
1/2-x,-y,z
1/2+x,-y,1/2-z
1/2-x,1/2+y,1/2-z
1/2-x,1/2-y,-z
1/2+x,y,-z
1/2-x,y,1/2+z
1/2+x,1/2-y,1/2+z
loop_
_atom_site_type_symbol
_atom_site_label
_atom_site_fract_x
_atom_site_fract_y
_atom_site_fract_z
Si Si1 0.590714 0.750000 0.250000
Si Si2 0.527338 0.865810 0.405245
Si Si3 0.500000 0.250000 0.250000
Si Si4 0.178183 0.545223 0.375617
Si Si5 0.267202 0.306698 0.849155
Si Si6 0.205150 0.070412 0.436210
Si Si7 0.364906 0.016008 0.798192
Si Si8 0.545310 0.930375 0.611625
O O1 0.560616 0.822849 0.323664
O O2 0.622384 0.847458 0.205534
O O3 0.500000 0.750000 0.428873
O O4 0.547796 0.905104 0.502609
O O5 0.491437 0.964973 0.375360
O O6 0.471235 0.171153 0.320382
O O7 0.216574 0.642251 0.356864
O O8 0.200268 0.417252 0.362330
O O9 0.168497 0.561631 0.482705
O O10 0.138755 0.544303 0.301199
O O11 0.272362 0.250000 0.750000
O O12 0.280219 0.202511 0.917449
O O13 0.183678 0.009702 0.347218
O O14 0.250000 0.000000 0.464331
O O15 0.404945 0.961913 0.855679
#
# Coordination Sequence:
#
# PCOD9510108 Si02
#       8
#     8  16   4  16  16  16  16  16
#     4  12  25  46  78 109 146 185 246 302 362 435
#     4  11  23  49  81 107 138 199 242 285 362 458
#     4  12  24  52  66 108 156 190 224 282 384 434
#     4  11  25  44  68 100 134 183 241 294 361 427
#     4  11  21  45  71  95 130 186 239 292 356 427
#     4  12  25  46  73  96 140 193 245 295 364 427
#     4  12  26  45  67 115 142 182 243 311 356 426
#     4  11  26  46  77 108 151 189 236 298 363 442
#
# _framework density 21.870335000000001
#
# number of rings (size 3 to 8) (size 9 to 14) (size 15 to 20)
#    0.000    0.593    5.185    3.333    2.074    0.000 
#    6.667    0.000    0.000    0.000    0.000    0.000 
#    0.000    0.000    0.000    0.000    0.000    0.000 
#
# Total GULP energy -301930.238052 kJ/mol
# GULP energy per Si atom -5591.300705 kJ/mol
# Density = 2.182056 g / cm^3
# Si number density = 21.870335 Si / 1000 Ang^3
#
#
#
# Elastic Constant Matrix: (Units=GPa)
#
#
# Indices 1 2 3 4 5 6 
#
# 1 67.7702 25.3399 33.1457 0.0000 0.0000 0.0000
# 2 25.3399 99.7644 45.4814 0.0000 0.0000 0.0000
# 3 33.1457 45.4814 132.0650 0.0000 0.0000 0.0000
# 4 0.0000 0.0000 0.0000 30.3858 0.0000 0.0000
# 5 0.0000 0.0000 0.0000 0.0000 29.7166 0.0000
# 6 0.0000 0.0000 0.0000 0.0000 0.0000 -14.5656
#
#
#
# Elastic Compliance Matrix: (Units=1/GPa)
#
#
# Indices 1 2 3 4 5 6 
#
# 1 0.017499 -0.002897 -0.003394 0.000000 0.000000 0.000000
# 2 -0.002897 0.012370 -0.003533 0.000000 0.000000 0.000000
# 3 -0.003394 -0.003533 0.009641 0.000000 0.000000 0.000000
# 4 0.000000 0.000000 0.000000 0.032910 0.000000 0.000000
# 5 0.000000 0.000000 0.000000 0.000000 0.033651 0.000000
# 6 0.000000 0.000000 0.000000 0.000000 0.000000 -0.068655
#
#
# Mechanical properties :
#
#
# Convention : Reuss Voigt Hill
#
# Bulk Modulus (GPa) = 50.34993 56.39263 53.37128
# Shear Modulus (GPa) = 78.51071 22.14953 50.33012
#
# Velocity S-wave (km/s) = 5.99802 3.18585 4.80239
# Velocity P-wave (km/s) = 8.42854 6.27486 7.43014
#
# Compressibility (1/GPa) = 0.01986100
#
# Stress axis : x y z
#
# Youngs Moduli (GPa) = 57.14561 80.83961 103.72825
#
# Poissons Ratio (x) = 0.23423 0.35207
# Poissons Ratio (y) = 0.16557 0.36646
# Poissons Ratio (z) = 0.19396 0.28560
#
# Static dielectric constant tensor:
#      x y z
#    x 1.834920 0.000000 0.000000 
#    y 0.000000 1.797570 0.000000 
#    z 0.000000 0.000000 2.014490 
# 
# From -- ./inp_files/26447.got.cif
#   From: 2010.05.17/outbox.cif.g08.bks.cpg/sg68_14_cif.got.tgz:26447.got - 2010.06.03 18:57:09.
