data_PCOD9510870
_publ_section_title
;
Structure prediction by ZEFSAII (Michael W. Deem and Ramdas Pophale) SiO2 
 PCOD9510870
Probable space group: C C C A
;
_chemical_formula_sum "Si O2"
_cell_formula_units_Z 64
_cell_length_a 8.562870
_cell_length_b 22.892439
_cell_length_c 12.887356
_cell_angle_alpha 90.000000
_cell_angle_beta 90.000000
_cell_angle_gamma 90.000000
_cell_volume 2526.243691
_symmetry_space_group_name_H-M "C C C A"
_symmetry_group_IT_number 68
_space_group.IT_coordinate_system_code '2'
_symmetry_cell_setting 'orthorhombic'
loop_
_space_group_symop_operation_xyz
x,y,z
-x,1/2-y,z
x,1/2-y,1/2-z
-x,y,1/2-z
-x,-y,-z
x,1/2+y,-z
-x,1/2+y,1/2+z
x,-y,1/2+z
1/2+x,1/2+y,z
1/2-x,-y,z
1/2+x,-y,1/2-z
1/2-x,1/2+y,1/2-z
1/2-x,1/2-y,-z
1/2+x,y,-z
1/2-x,y,1/2+z
1/2+x,1/2-y,1/2+z
loop_
_atom_site_type_symbol
_atom_site_label
_atom_site_fract_x
_atom_site_fract_y
_atom_site_fract_z
Si Si1 0.408773 0.093393 0.859134
Si Si2 0.297313 0.193274 0.365440
Si Si3 0.853297 0.825798 0.378663
Si Si4 0.308813 0.437728 0.984424
O O1 0.500000 0.084893 0.750000
O O2 0.367980 0.161246 0.879011
O O3 0.513343 0.065889 0.949313
O O4 0.238309 0.067420 0.893271
O O5 0.285925 0.260819 0.395914
O O6 0.464909 0.173885 0.411832
O O7 0.332212 0.175972 0.245677
O O8 0.764526 0.881081 0.425832
O O9 0.250000 0.500000 0.944542
#
# Coordination Sequence:
#
# PCOD9510870 Si02
#       4
#    16  16  16  16
#     4  12  26  48  74 112 147 204 261 324 398 457
#     4   9  19  41  75 112 144 198 253 310 393 452
#     4   9  19  42  74 110 152 195 246 319 377 465
#     4  12  27  48  70 108 155 201 264 321 388 480
#
# _framework density 25.334057000000001
#
# number of rings (size 3 to 8) (size 9 to 14) (size 15 to 20)
#    0.000    1.500    2.500    3.750    0.000    3.000 
#    4.500    0.000    0.000    0.000    0.000    0.000 
#    0.000    0.000    0.000    0.000    0.000    0.000 
#
# Total GULP energy -178218.388329 kJ/mol
# GULP energy per Si atom -5569.324635 kJ/mol
# Density = 2.527640 g / cm^3
# Si number density = 25.334057 Si / 1000 Ang^3
#
#
#
# Elastic Constant Matrix: (Units=GPa)
#
#
# Indices 1 2 3 4 5 6 
#
# 1 85.2424 40.4091 46.9558 0.0000 0.0000 0.0000
# 2 40.4091 132.0811 35.1334 0.0000 0.0000 0.0000
# 3 46.9558 35.1334 140.2683 0.0000 0.0000 0.0000
# 4 0.0000 0.0000 0.0000 40.9356 0.0000 0.0000
# 5 0.0000 0.0000 0.0000 0.0000 54.8761 0.0000
# 6 0.0000 0.0000 0.0000 0.0000 0.0000 43.5327
#
#
#
# Elastic Compliance Matrix: (Units=1/GPa)
#
#
# Indices 1 2 3 4 5 6 
#
# 1 0.015907 -0.003696 -0.004399 0.000000 0.000000 0.000000
# 2 -0.003696 0.008971 -0.001009 0.000000 0.000000 0.000000
# 3 -0.004399 -0.001009 0.008855 0.000000 0.000000 0.000000
# 4 0.000000 0.000000 0.000000 0.024429 0.000000 0.000000
# 5 0.000000 0.000000 0.000000 0.000000 0.018223 0.000000
# 6 0.000000 0.000000 0.000000 0.000000 0.000000 0.022971
#
#
# Mechanical properties :
#
#
# Convention : Reuss Voigt Hill
#
# Bulk Modulus (GPa) = 64.42439 66.95426 65.68933
# Shear Modulus (GPa) = 40.73703 43.54179 42.13941
#
# Velocity S-wave (km/s) = 4.01433 4.15022 4.08284
# Velocity P-wave (km/s) = 6.85359 7.03219 6.94346
#
# Compressibility (1/GPa) = 0.01552207
#
# Stress axis : x y z
#
# Youngs Moduli (GPa) = 62.86648 111.47648 112.93502
#
# Poissons Ratio (x) = 0.41206 0.49681
# Poissons Ratio (y) = 0.23238 0.11401
# Poissons Ratio (z) = 0.27655 0.11253
#
# Static dielectric constant tensor:
#      x y z
#    x 2.113030 0.000000 0.000000 
#    y 0.000000 2.062370 0.000000 
#    z 0.000000 0.000000 2.144470 
# 
# From -- ./inp_files/19200.got.cif
#   From: 2010.05.17/outbox.cif.g08.bks.cpg/sg68_10_cif.got.tgz:19200.got - 2010.06.03 18:57:09.
