data_PCOD9510736
_publ_section_title
;
Structure prediction by ZEFSAII (Michael W. Deem and Ramdas Pophale) SiO2 
 PCOD9510736
Probable space group: C C C A
;
_chemical_formula_sum "Si O2"
_cell_formula_units_Z 112
_cell_length_a 27.945067
_cell_length_b 14.464963
_cell_length_c 14.526204
_cell_angle_alpha 90.000000
_cell_angle_beta 90.000000
_cell_angle_gamma 90.000000
_cell_volume 5871.845518
_symmetry_space_group_name_H-M "C C C A"
_symmetry_group_IT_number 68
_space_group.IT_coordinate_system_code '2'
_symmetry_cell_setting 'orthorhombic'
loop_
_space_group_symop_operation_xyz
x,y,z
-x,1/2-y,z
x,1/2-y,1/2-z
-x,y,1/2-z
-x,-y,-z
x,1/2+y,-z
-x,1/2+y,1/2+z
x,-y,1/2+z
1/2+x,1/2+y,z
1/2-x,-y,z
1/2+x,-y,1/2-z
1/2-x,1/2+y,1/2-z
1/2-x,1/2-y,-z
1/2+x,y,-z
1/2-x,y,1/2+z
1/2+x,1/2-y,1/2+z
loop_
_atom_site_type_symbol
_atom_site_label
_atom_site_fract_x
_atom_site_fract_y
_atom_site_fract_z
Si Si1 0.704739 0.314700 0.838690
Si Si2 0.686481 0.636237 0.877463
Si Si3 0.945291 0.753884 0.592976
Si Si4 0.054147 0.097481 0.241121
Si Si5 0.152933 0.485520 0.253672
Si Si6 0.808006 0.500416 0.545533
Si Si7 0.648644 0.296328 0.013297
O O1 0.707506 0.250000 0.750000
O O2 0.757093 0.346476 0.868593
O O3 0.673964 0.404278 0.810720
O O4 0.679436 0.264521 0.923979
O O5 0.669507 0.582844 0.787105
O O6 0.676778 0.568550 0.963715
O O7 0.661516 0.732584 0.900613
O O8 0.941614 0.830564 0.673945
O O9 0.937781 0.657469 0.648024
O O10 0.905944 0.780613 0.517818
O O11 0.000000 0.750000 0.558540
O O12 0.095951 0.023651 0.246376
O O13 0.000000 0.061645 0.250000
O O14 0.174287 0.469114 0.354352
O O15 0.750000 0.500000 0.545272
O O16 0.832444 0.400213 0.529546
#
# Coordination Sequence:
#
# PCOD9510736 Si02
#       7
#    16  16  16  16  16  16  16
#     4  12  23  39  64  89 118 165 215 256 313 368
#     4  12  25  41  58  93 126 167 211 257 308 382
#     4   9  17  34  61  91 117 153 211 272 320 371
#     4   9  17  34  61  90 117 153 209 271 320 364
#     4  12  24  39  62  88 129 162 210 260 313 371
#     4  12  24  41  59  88 127 169 206 257 307 375
#     4  12  24  39  62  87 130 166 208 257 319 371
#
# _framework density 19.074071
#
# number of rings (size 3 to 8) (size 9 to 14) (size 15 to 20)
#    0.000    0.857    4.286    5.143    4.000    0.000 
#    0.000    1.429    0.000    5.143    0.000    2.000 
#    0.000    0.000    0.000    0.000    0.000    0.000 
#
# Total GULP energy -312959.354330 kJ/mol
# GULP energy per Si atom -5588.559899 kJ/mol
# Density = 1.903066 g / cm^3
# Si number density = 19.074071 Si / 1000 Ang^3
#
#
#
# Elastic Constant Matrix: (Units=GPa)
#
#
# Indices 1 2 3 4 5 6 
#
# 1 129.6392 20.3862 0.7682 0.0000 0.0000 0.0000
# 2 20.3862 62.5060 -0.3757 0.0000 0.0000 0.0000
# 3 0.7682 -0.3757 31.9174 0.0000 0.0000 0.0000
# 4 0.0000 0.0000 0.0000 19.3353 0.0000 0.0000
# 5 0.0000 0.0000 0.0000 0.0000 8.7121 0.0000
# 6 0.0000 0.0000 0.0000 0.0000 0.0000 10.6917
#
#
#
# Elastic Compliance Matrix: (Units=1/GPa)
#
#
# Indices 1 2 3 4 5 6 
#
# 1 0.008132 -0.002654 -0.000227 0.000000 0.000000 0.000000
# 2 -0.002654 0.016866 0.000262 0.000000 0.000000 0.000000
# 3 -0.000227 0.000262 0.031339 0.000000 0.000000 0.000000
# 4 0.000000 0.000000 0.000000 0.051719 0.000000 0.000000
# 5 0.000000 0.000000 0.000000 0.000000 0.114783 0.000000
# 6 0.000000 0.000000 0.000000 0.000000 0.000000 0.093530
#
#
# Mechanical properties :
#
#
# Convention : Reuss Voigt Hill
#
# Bulk Modulus (GPa) = 19.56916 29.51333 24.54125
# Shear Modulus (GPa) = 14.76497 21.30009 18.03253
#
# Velocity S-wave (km/s) = 2.78526 3.34534 3.07806
# Velocity P-wave (km/s) = 4.54152 5.51619 5.05241
#
# Compressibility (1/GPa) = 0.05110080
#
# Stress axis : x y z
#
# Youngs Moduli (GPa) = 122.96546 59.29250 31.90865
#
# Poissons Ratio (x) = 0.15735 0.00724
# Poissons Ratio (y) = 0.32632 -0.00837
# Poissons Ratio (z) = 0.02791 -0.01556
#
# Static dielectric constant tensor:
#      x y z
#    x 1.668810 0.000000 0.000000 
#    y 0.000000 1.681420 0.000000 
#    z 0.000000 0.000000 1.664920 
# 
# From -- ./inp_files/22738.got.cif
#   From: 2010.05.17/outbox.cif.g08.bks.cpg/sg68_12_cif.got.tgz:22738.got - 2010.06.03 18:57:09.
