data_PCOD9510577
_publ_section_title
;
Structure prediction by ZEFSAII (Michael W. Deem and Ramdas Pophale) SiO2 
 PCOD9510577
Probable space group: C C C A
;
_chemical_formula_sum "Si O2"
_cell_formula_units_Z 80
_cell_length_a 27.693094
_cell_length_b 11.333015
_cell_length_c 12.191108
_cell_angle_alpha 90.000000
_cell_angle_beta 90.000000
_cell_angle_gamma 90.000000
_cell_volume 3826.133525
_symmetry_space_group_name_H-M "C C C A"
_symmetry_group_IT_number 68
_space_group.IT_coordinate_system_code '2'
_symmetry_cell_setting 'orthorhombic'
loop_
_space_group_symop_operation_xyz
x,y,z
-x,1/2-y,z
x,1/2-y,1/2-z
-x,y,1/2-z
-x,-y,-z
x,1/2+y,-z
-x,1/2+y,1/2+z
x,-y,1/2+z
1/2+x,1/2+y,z
1/2-x,-y,z
1/2+x,-y,1/2-z
1/2-x,1/2+y,1/2-z
1/2-x,1/2-y,-z
1/2+x,y,-z
1/2-x,y,1/2+z
1/2+x,1/2-y,1/2+z
loop_
_atom_site_type_symbol
_atom_site_label
_atom_site_fract_x
_atom_site_fract_y
_atom_site_fract_z
Si Si1 0.202812 0.193051 0.050504
Si Si2 0.081715 0.055844 0.254243
Si Si3 0.750000 0.000000 0.291069
Si Si4 0.160520 0.368999 0.679344
Si Si5 0.003302 0.889168 0.919380
Si Si6 0.155256 0.750000 0.750000
O O1 0.221026 0.087325 0.128061
O O2 0.182965 0.285640 0.140390
O O3 0.250000 0.250000 0.000000
O O4 0.167437 0.157414 0.950720
O O5 0.038734 0.072638 0.166569
O O6 0.122372 0.143460 0.212371
O O7 0.055711 0.103194 0.363028
O O8 0.111463 0.938784 0.287151
O O9 0.709099 0.063322 0.218402
O O10 0.160171 0.250000 0.750000
O O11 0.000000 0.750000 0.954451
O O12 0.000000 0.000000 0.000000
#
# Coordination Sequence:
#
# PCOD9510577 Si02
#       6
#    16  16   8  16  16   8
#     4  12  26  43  68 100 145 197 246 305 364 440
#     4  11  25  46  71 102 141 187 246 298 378 459
#     4  12  24  44  64  98 144 196 248 304 370 430
#     4  12  27  44  67 109 150 190 255 315 372 448
#     4  11  25  48  77 106 144 192 246 316 385 459
#     4  12  24  45  74  98 138 198 250 299 368 456
#
# _framework density 20.908836000000001
#
# number of rings (size 3 to 8) (size 9 to 14) (size 15 to 20)
#    0.000    0.400    6.000    2.400    5.600    3.200 
#    0.000    2.000    0.000    0.000    0.000    0.000 
#    0.000    0.000    0.000    0.000    0.000    0.000 
#
# Total GULP energy -222989.069922 kJ/mol
# GULP energy per Si atom -5574.726748 kJ/mol
# Density = 2.086125 g / cm^3
# Si number density = 20.908836 Si / 1000 Ang^3
#
#
#
# Elastic Constant Matrix: (Units=GPa)
#
#
# Indices 1 2 3 4 5 6 
#
# 1 101.5810 38.1372 30.4811 0.0000 0.0000 0.0000
# 2 38.1372 115.8283 43.3578 0.0000 0.0000 0.0000
# 3 30.4811 43.3578 120.7217 0.0000 0.0000 0.0000
# 4 0.0000 0.0000 0.0000 35.4959 0.0000 0.0000
# 5 0.0000 0.0000 0.0000 0.0000 20.5667 0.0000
# 6 0.0000 0.0000 0.0000 0.0000 0.0000 36.4262
#
#
#
# Elastic Compliance Matrix: (Units=1/GPa)
#
#
# Indices 1 2 3 4 5 6 
#
# 1 0.011559 -0.003135 -0.001793 0.000000 0.000000 0.000000
# 2 -0.003135 0.010825 -0.003096 0.000000 0.000000 0.000000
# 3 -0.001793 -0.003096 0.009848 0.000000 0.000000 0.000000
# 4 0.000000 0.000000 0.000000 0.028172 0.000000 0.000000
# 5 0.000000 0.000000 0.000000 0.000000 0.048622 0.000000
# 6 0.000000 0.000000 0.000000 0.000000 0.000000 0.027453
#
#
# Mechanical properties :
#
#
# Convention : Reuss Voigt Hill
#
# Bulk Modulus (GPa) = 61.78753 62.45368 62.12061
# Shear Modulus (GPa) = 31.66124 33.57475 32.61800
#
# Velocity S-wave (km/s) = 3.89556 4.01155 3.95398
# Velocity P-wave (km/s) = 7.06038 7.16876 7.11477
#
# Compressibility (1/GPa) = 0.01618450
#
# Stress axis : x y z
#
# Youngs Moduli (GPa) = 86.51089 92.38183 101.54179
#
# Poissons Ratio (x) = 0.28961 0.18203
# Poissons Ratio (y) = 0.27120 0.31439
# Poissons Ratio (z) = 0.15509 0.28603
#
# Static dielectric constant tensor:
#      x y z
#    x 1.923630 0.000000 0.000000 
#    y 0.000000 1.825410 0.000000 
#    z 0.000000 0.000000 1.860730 
# 
# From -- ./inp_files/17578.got.cif
#   From: 2010.05.17/outbox.cif.g08.bks.cpg/sg68_9_cif.got.tgz:17578.got - 2010.06.03 18:57:09.
