data_PCOD9510049
_publ_section_title
;
Structure prediction by ZEFSAII (Michael W. Deem and Ramdas Pophale) SiO2 
 PCOD9510049
Probable space group: C C C A
;
_chemical_formula_sum "Si O2"
_cell_formula_units_Z 112
_cell_length_a 17.329649
_cell_length_b 10.875391
_cell_length_c 30.770149
_cell_angle_alpha 90.000000
_cell_angle_beta 90.000000
_cell_angle_gamma 90.000000
_cell_volume 5799.148710
_symmetry_space_group_name_H-M "C C C A"
_symmetry_group_IT_number 68
_space_group.IT_coordinate_system_code '2'
_symmetry_cell_setting 'orthorhombic'
loop_
_space_group_symop_operation_xyz
x,y,z
-x,1/2-y,z
x,1/2-y,1/2-z
-x,y,1/2-z
-x,-y,-z
x,1/2+y,-z
-x,1/2+y,1/2+z
x,-y,1/2+z
1/2+x,1/2+y,z
1/2-x,-y,z
1/2+x,-y,1/2-z
1/2-x,1/2+y,1/2-z
1/2-x,1/2-y,-z
1/2+x,y,-z
1/2-x,y,1/2+z
1/2+x,1/2-y,1/2+z
loop_
_atom_site_type_symbol
_atom_site_label
_atom_site_fract_x
_atom_site_fract_y
_atom_site_fract_z
Si Si1 0.213686 0.139900 0.471094
Si Si2 0.411162 0.602552 0.744925
Si Si3 0.528672 0.886088 0.886027
Si Si4 0.680591 0.588682 0.669159
Si Si5 0.955365 0.124791 0.988875
Si Si6 0.121692 0.502297 0.149711
Si Si7 0.742317 0.323180 0.871935
O O1 0.250000 0.250000 0.500000
O O2 0.126504 0.124477 0.487560
O O3 0.219734 0.193268 0.422138
O O4 0.250000 0.000000 0.473590
O O5 0.413063 0.750000 0.750000
O O6 0.500000 0.559334 0.750000
O O7 0.351130 0.564829 0.782338
O O8 0.386321 0.557204 0.697740
O O9 0.500000 0.750000 0.870907
O O10 0.604513 0.922686 0.860074
O O11 0.549919 0.874614 0.936448
O O12 0.458639 0.978768 0.875288
O O13 0.750000 0.500000 0.657870
O O14 0.718800 0.718934 0.657391
O O15 0.000000 0.250000 0.001310
O O16 0.000000 0.000000 0.000000
O O17 0.186726 0.580880 0.125142
O O18 0.163885 0.371221 0.150704
#
# Coordination Sequence:
#
# PCOD9510049 Si02
#       7
#    16  16  16  16  16  16  16
#     4  12  25  43  68  97 136 177 223 279 345 405
#     4  11  21  38  67 101 126 167 228 274 320 385
#     4  11  21  42  67  90 124 172 227 269 321 393
#     4  12  26  40  64 104 137 166 218 287 334 390
#     4  11  25  40  65  94 125 169 226 277 325 400
#     4  11  21  40  70  90 125 172 226 267 322 403
#     4  11  24  42  66  96 133 180 220 266 342 409
#
# _framework density 19.313179999999999
#
# number of rings (size 3 to 8) (size 9 to 14) (size 15 to 20)
#    0.000    0.714    5.714    2.571    4.000    3.429 
#    0.000    0.714    0.000    0.857    0.000    0.000 
#    0.000    0.000    0.000    0.000    0.000    0.000 
#
# Total GULP energy -312366.387632 kJ/mol
# GULP energy per Si atom -5577.971208 kJ/mol
# Density = 1.926922 g / cm^3
# Si number density = 19.313180 Si / 1000 Ang^3
#
#
#
# Elastic Constant Matrix: (Units=GPa)
#
#
# Indices 1 2 3 4 5 6 
#
# 1 159.0492 31.5011 49.2678 0.0000 0.0000 0.0000
# 2 31.5011 51.1743 9.0781 0.0000 0.0000 0.0000
# 3 49.2678 9.0781 121.5172 0.0000 0.0000 0.0000
# 4 0.0000 0.0000 0.0000 20.0265 0.0000 0.0000
# 5 0.0000 0.0000 0.0000 0.0000 27.4247 0.0000
# 6 0.0000 0.0000 0.0000 0.0000 0.0000 37.8955
#
#
#
# Elastic Compliance Matrix: (Units=1/GPa)
#
#
# Indices 1 2 3 4 5 6 
#
# 1 0.008081 -0.004452 -0.002944 0.000000 0.000000 0.000000
# 2 -0.004452 0.022256 0.000142 0.000000 0.000000 0.000000
# 3 -0.002944 0.000142 0.009412 0.000000 0.000000 0.000000
# 4 0.000000 0.000000 0.000000 0.049934 0.000000 0.000000
# 5 0.000000 0.000000 0.000000 0.000000 0.036463 0.000000
# 6 0.000000 0.000000 0.000000 0.000000 0.000000 0.026388
#
#
# Mechanical properties :
#
#
# Convention : Reuss Voigt Hill
#
# Bulk Modulus (GPa) = 39.61571 56.82608 48.22089
# Shear Modulus (GPa) = 28.49710 33.19560 30.84635
#
# Velocity S-wave (km/s) = 3.84542 4.15035 4.00079
# Velocity P-wave (km/s) = 6.34612 7.24255 6.80910
#
# Compressibility (1/GPa) = 0.02524251
#
# Stress axis : x y z
#
# Youngs Moduli (GPa) = 123.74656 44.93085 106.24554
#
# Poissons Ratio (x) = 0.20004 0.31276
# Poissons Ratio (y) = 0.55094 -0.01513
# Poissons Ratio (z) = 0.36428 -0.00640
#
# Static dielectric constant tensor:
#      x y z
#    x 1.655300 0.000000 0.000000 
#    y 0.000000 1.444190 0.000000 
#    z 0.000000 0.000000 1.692010 
# 
# From -- ./inp_files/55296.got.cif
#   From: 2010.05.17/outbox.cif.g08.bks.cpg/sg68_28_cif.got.tgz:55296.got - 2010.06.03 18:57:09.
