data_PCOD9510813
_publ_section_title
;
Structure prediction by ZEFSAII (Michael W. Deem and Ramdas Pophale) SiO2 
 PCOD9510813
Probable space group: C C C A
;
_chemical_formula_sum "Si O2"
_cell_formula_units_Z 52
_cell_length_a 12.802219
_cell_length_b 11.623581
_cell_length_c 13.092785
_cell_angle_alpha 90.000000
_cell_angle_beta 90.000000
_cell_angle_gamma 90.000000
_cell_volume 1948.306300
_symmetry_space_group_name_H-M "C C C A"
_symmetry_group_IT_number 68
_space_group.IT_coordinate_system_code '2'
_symmetry_cell_setting 'orthorhombic'
loop_
_space_group_symop_operation_xyz
x,y,z
-x,1/2-y,z
x,1/2-y,1/2-z
-x,y,1/2-z
-x,-y,-z
x,1/2+y,-z
-x,1/2+y,1/2+z
x,-y,1/2+z
1/2+x,1/2+y,z
1/2-x,-y,z
1/2+x,-y,1/2-z
1/2-x,1/2+y,1/2-z
1/2-x,1/2-y,-z
1/2+x,y,-z
1/2-x,y,1/2+z
1/2+x,1/2-y,1/2+z
loop_
_atom_site_type_symbol
_atom_site_label
_atom_site_fract_x
_atom_site_fract_y
_atom_site_fract_z
Si Si1 0.137002 0.059603 0.131623
Si Si2 0.898207 0.177972 0.919820
Si Si3 0.235409 0.622732 0.083232
Si Si4 0.000000 0.750000 0.750000
O O1 0.160137 0.098606 0.014847
O O2 0.078558 0.161322 0.190700
O O3 0.250000 0.000000 0.157766
O O4 0.070865 0.942228 0.131421
O O5 0.845263 0.150307 0.028948
O O6 0.000000 0.250000 0.929455
O O7 0.812347 0.263087 0.867199
O O8 0.250000 0.500000 0.136268
#
# Coordination Sequence:
#
# PCOD9510813 Si02
#       4
#    16  16  16   4
#     4   9  22  43  61  91 122 159 218 254 305 391
#     4   9  17  34  58  94 121 151 195 253 317 387
#     4   8  17  34  56  91 133 148 188 259 321 380
#     4  12  24  48  66  78 124 192 204 268 316 334
#
# _framework density 26.689848000000001
#
# number of rings (size 3 to 8) (size 9 to 14) (size 15 to 20)
#    0.000    3.692    0.000    0.000    2.154    4.923 
#   22.154    0.000    0.000    0.000    0.000    0.000 
#    0.000    0.000    0.000    0.000    0.000    0.000 
#
# Total GULP energy -145049.386526 kJ/mol
# GULP energy per Si atom -5578.822559 kJ/mol
# Density = 2.662910 g / cm^3
# Si number density = 26.689848 Si / 1000 Ang^3
#
#
#
# Elastic Constant Matrix: (Units=GPa)
#
#
# Indices 1 2 3 4 5 6 
#
# 1 117.7460 65.0583 20.9485 0.0000 0.0000 0.0000
# 2 65.0583 287.1299 51.9516 0.0000 0.0000 0.0000
# 3 20.9485 51.9516 97.1515 0.0000 0.0000 0.0000
# 4 0.0000 0.0000 0.0000 -65.1348 0.0000 0.0000
# 5 0.0000 0.0000 0.0000 0.0000 -9.4856 0.0000
# 6 0.0000 0.0000 0.0000 0.0000 0.0000 66.0389
#
#
#
# Elastic Compliance Matrix: (Units=1/GPa)
#
#
# Indices 1 2 3 4 5 6 
#
# 1 0.009800 -0.002035 -0.001025 0.000000 0.000000 0.000000
# 2 -0.002035 0.004278 -0.001849 0.000000 0.000000 0.000000
# 3 -0.001025 -0.001849 0.011503 0.000000 0.000000 0.000000
# 4 0.000000 0.000000 0.000000 -0.015353 0.000000 0.000000
# 5 0.000000 0.000000 0.000000 0.000000 -0.105423 0.000000
# 6 0.000000 0.000000 0.000000 0.000000 0.000000 0.015143
#
#
# Mechanical properties :
#
#
# Convention : Reuss Voigt Hill
#
# Bulk Modulus (GPa) = 63.43910 86.43825 74.93868
# Shear Modulus (GPa) = -76.94717 22.55496 -27.19611
#
# Velocity S-wave (km/s) = -5.37519 2.91017 -3.19559
# Velocity P-wave (km/s) = 3.83445 6.61428 3.81088
#
# Compressibility (1/GPa) = 0.01576315
#
# Stress axis : x y z
#
# Youngs Moduli (GPa) = 102.04524 233.73273 86.93399
#
# Poissons Ratio (x) = 0.47564 0.08910
# Poissons Ratio (y) = 0.20766 0.16075
# Poissons Ratio (z) = 0.10458 0.43219
#
# Static dielectric constant tensor:
#      x y z
#    x 2.019510 0.000000 0.000000 
#    y 0.000000 2.299560 0.000000 
#    z 0.000000 0.000000 2.156310 
# 
# From -- ./inp_files/38212.got.cif
#   From: 2010.05.17/outbox.cif.g08.bks.cpg/sg68_20_cif.got.tgz:38212.got - 2010.06.03 18:57:09.
