data_PCOD9510019
_publ_section_title
;
Structure prediction by ZEFSAII (Michael W. Deem and Ramdas Pophale) SiO2 
 PCOD9510019
Probable space group: C C C A
;
_chemical_formula_sum "Si O2"
_cell_formula_units_Z 96
_cell_length_a 15.545102
_cell_length_b 18.897597
_cell_length_c 16.394439
_cell_angle_alpha 90.000000
_cell_angle_beta 90.000000
_cell_angle_gamma 90.000000
_cell_volume 4816.113568
_symmetry_space_group_name_H-M "C C C A"
_symmetry_group_IT_number 68
_space_group.IT_coordinate_system_code '2'
_symmetry_cell_setting 'orthorhombic'
loop_
_space_group_symop_operation_xyz
x,y,z
-x,1/2-y,z
x,1/2-y,1/2-z
-x,y,1/2-z
-x,-y,-z
x,1/2+y,-z
-x,1/2+y,1/2+z
x,-y,1/2+z
1/2+x,1/2+y,z
1/2-x,-y,z
1/2+x,-y,1/2-z
1/2-x,1/2+y,1/2-z
1/2-x,1/2-y,-z
1/2+x,y,-z
1/2-x,y,1/2+z
1/2+x,1/2-y,1/2+z
loop_
_atom_site_type_symbol
_atom_site_label
_atom_site_fract_x
_atom_site_fract_y
_atom_site_fract_z
Si Si1 0.045324 0.676026 0.426894
Si Si2 0.570393 0.059552 0.025471
Si Si3 0.678076 0.173623 0.562083
Si Si4 0.176740 0.834309 0.577095
Si Si5 0.788571 0.068672 0.657141
Si Si6 0.186489 0.674424 0.289734
O O1 0.101126 0.650497 0.504028
O O2 0.108340 0.687182 0.351593
O O3 0.000000 0.750000 0.445673
O O4 0.977035 0.615069 0.415405
O O5 0.654633 0.040608 0.080023
O O6 0.606254 0.107748 0.949710
O O7 0.500000 0.000000 0.000000
O O8 0.761642 0.174543 0.502442
O O9 0.652221 0.252073 0.592045
O O10 0.709405 0.118913 0.629102
O O11 0.235378 0.854252 0.654219
O O12 0.837409 0.118404 0.720752
O O13 0.750000 0.000000 0.699257
O O14 0.208937 0.750000 0.250000
#
# Coordination Sequence:
#
# PCOD9510019 Si02
#       6
#    16  16  16  16  16  16
#     4  11  21  35  61  92 119 150 193 255 316 361
#     4  11  23  39  60  91 122 157 202 257 310 364
#     4   9  17  35  59  84 114 151 206 245 289 354
#     4   9  18  35  59  85 113 156 203 249 289 356
#     4  11  23  39  59  85 123 164 202 250 305 365
#     4  11  22  37  60  90 121 155 203 253 303 370
#
# _framework density 19.933084999999998
#
# number of rings (size 3 to 8) (size 9 to 14) (size 15 to 20)
#    0.000    1.667    3.333    2.000    0.000    3.667 
#    0.000    1.667    0.000    3.000    0.000    0.000 
#    0.000    0.000    0.000    0.000    0.000    0.000 
#
# Total GULP energy -267387.088703 kJ/mol
# GULP energy per Si atom -5570.564348 kJ/mol
# Density = 1.988772 g / cm^3
# Si number density = 19.933085 Si / 1000 Ang^3
#
#
#
# Elastic Constant Matrix: (Units=GPa)
#
#
# Indices 1 2 3 4 5 6 
#
# 1 75.4558 43.1324 21.9703 0.0000 0.0000 0.0000
# 2 43.1324 85.2785 12.7609 0.0000 0.0000 0.0000
# 3 21.9703 12.7609 52.1215 0.0000 0.0000 0.0000
# 4 0.0000 0.0000 0.0000 18.2043 0.0000 0.0000
# 5 0.0000 0.0000 0.0000 0.0000 5.3792 0.0000
# 6 0.0000 0.0000 0.0000 0.0000 0.0000 36.7450
#
#
#
# Elastic Compliance Matrix: (Units=1/GPa)
#
#
# Indices 1 2 3 4 5 6 
#
# 1 0.020473 -0.009408 -0.006326 0.000000 0.000000 0.000000
# 2 -0.009408 0.016496 -0.000073 0.000000 0.000000 0.000000
# 3 -0.006326 -0.000073 0.021870 0.000000 0.000000 0.000000
# 4 0.000000 0.000000 0.000000 0.054932 0.000000 0.000000
# 5 0.000000 0.000000 0.000000 0.000000 0.185902 0.000000
# 6 0.000000 0.000000 0.000000 0.000000 0.000000 0.027215
#
#
# Mechanical properties :
#
#
# Convention : Reuss Voigt Hill
#
# Bulk Modulus (GPa) = 36.73203 40.95366 38.84284
# Shear Modulus (GPa) = 13.60260 21.06517 17.33388
#
# Velocity S-wave (km/s) = 2.61514 3.25436 2.95210
# Velocity P-wave (km/s) = 5.25226 5.89163 5.58111
#
# Compressibility (1/GPa) = 0.02722420
#
# Stress axis : x y z
#
# Youngs Moduli (GPa) = 48.84552 60.62202 45.72380
#
# Poissons Ratio (x) = 0.57034 0.28926
# Poissons Ratio (y) = 0.45954 0.00333
# Poissons Ratio (z) = 0.30901 0.00442
#
# Static dielectric constant tensor:
#      x y z
#    x 1.821520 0.000000 0.000000 
#    y 0.000000 1.719490 0.000000 
#    z 0.000000 0.000000 1.707300 
# 
# From -- ./inp_files/22340.got.cif
#   From: 2010.05.17/outbox.cif.g08.bks.cpg/sg68_12_cif.got.tgz:22340.got - 2010.06.03 18:57:09.
