data_PCOD9510348
_publ_section_title
;
Structure prediction by ZEFSAII (Michael W. Deem and Ramdas Pophale) SiO2 
 PCOD9510348
Probable space group: C C C A
;
_chemical_formula_sum "Si O2"
_cell_formula_units_Z 68
_cell_length_a 15.718294
_cell_length_b 20.809682
_cell_length_c 8.748504
_cell_angle_alpha 90.000000
_cell_angle_beta 90.000000
_cell_angle_gamma 90.000000
_cell_volume 2861.571792
_symmetry_space_group_name_H-M "C C C A"
_symmetry_group_IT_number 68
_space_group.IT_coordinate_system_code '2'
_symmetry_cell_setting 'orthorhombic'
loop_
_space_group_symop_operation_xyz
x,y,z
-x,1/2-y,z
x,1/2-y,1/2-z
-x,y,1/2-z
-x,-y,-z
x,1/2+y,-z
-x,1/2+y,1/2+z
x,-y,1/2+z
1/2+x,1/2+y,z
1/2-x,-y,z
1/2+x,-y,1/2-z
1/2-x,1/2+y,1/2-z
1/2-x,1/2-y,-z
1/2+x,y,-z
1/2-x,y,1/2+z
1/2+x,1/2-y,1/2+z
loop_
_atom_site_type_symbol
_atom_site_label
_atom_site_fract_x
_atom_site_fract_y
_atom_site_fract_z
Si Si1 0.000000 0.250000 0.750000
Si Si2 0.631536 0.852334 0.620881
Si Si3 0.220674 0.678712 0.805866
Si Si4 0.907270 0.083785 0.183961
Si Si5 0.350201 0.986839 0.025704
O O1 0.941502 0.200246 0.652347
O O2 0.691173 0.856677 0.770004
O O3 0.688598 0.827102 0.478262
O O4 0.613098 0.924801 0.566299
O O5 0.234553 0.750000 0.750000
O O6 0.148347 0.647103 0.699819
O O7 0.861873 0.033538 0.299409
O O8 0.000000 0.095532 0.250000
O O9 0.902960 0.049216 0.022432
O O10 0.250000 0.000000 0.995776
#
# Coordination Sequence:
#
# PCOD9510348 Si02
#       5
#     4  16  16  16  16
#     4  12  28  48  70 108 142 180 236 288 364 400
#     4  11  26  45  73 103 139 183 232 287 346 423
#     4  11  24  46  70  98 137 186 229 282 349 416
#     4  11  25  42  65 103 138 179 231 288 342 411
#     4  11  23  44  70 100 135 188 227 282 354 415
#
# _framework density 23.763164
#
# number of rings (size 3 to 8) (size 9 to 14) (size 15 to 20)
#    0.000    0.941    3.529    2.118    4.941    4.235 
#    0.000    0.000    0.000    0.000    0.000    0.000 
#    0.000    0.000    0.000    0.000    0.000    0.000 
#
# Total GULP energy -190233.019687 kJ/mol
# GULP energy per Si atom -5595.088814 kJ/mol
# Density = 2.370908 g / cm^3
# Si number density = 23.763164 Si / 1000 Ang^3
#
#
#
# Elastic Constant Matrix: (Units=GPa)
#
#
# Indices 1 2 3 4 5 6 
#
# 1 105.9524 10.3843 3.3059 0.0000 0.0000 0.0000
# 2 10.3843 51.8979 14.5279 0.0000 0.0000 0.0000
# 3 3.3059 14.5279 61.4634 0.0000 0.0000 0.0000
# 4 0.0000 0.0000 0.0000 25.9065 0.0000 0.0000
# 5 0.0000 0.0000 0.0000 0.0000 12.8991 0.0000
# 6 0.0000 0.0000 0.0000 0.0000 0.0000 38.7471
#
#
#
# Elastic Compliance Matrix: (Units=1/GPa)
#
#
# Indices 1 2 3 4 5 6 
#
# 1 0.009627 -0.001908 -0.000067 0.000000 0.000000 0.000000
# 2 -0.001908 0.021012 -0.004864 0.000000 0.000000 0.000000
# 3 -0.000067 -0.004864 0.017423 0.000000 0.000000 0.000000
# 4 0.000000 0.000000 0.000000 0.038600 0.000000 0.000000
# 5 0.000000 0.000000 0.000000 0.000000 0.077525 0.000000
# 6 0.000000 0.000000 0.000000 0.000000 0.000000 0.025808
#
#
# Mechanical properties :
#
#
# Convention : Reuss Voigt Hill
#
# Bulk Modulus (GPa) = 29.08212 30.63888 29.86050
# Shear Modulus (GPa) = 23.24126 28.25022 25.74574
#
# Velocity S-wave (km/s) = 3.13075 3.45167 3.29512
# Velocity P-wave (km/s) = 5.03326 5.36720 5.20291
#
# Compressibility (1/GPa) = 0.03438539
#
# Stress axis : x y z
#
# Youngs Moduli (GPa) = 103.87177 47.59213 57.39508
#
# Poissons Ratio (x) = 0.09079 0.00384
# Poissons Ratio (y) = 0.19815 0.27916
# Poissons Ratio (z) = 0.00695 0.23148
#
# Static dielectric constant tensor:
#      x y z
#    x 1.886320 0.000000 0.000000 
#    y 0.000000 1.861620 0.000000 
#    z 0.000000 0.000000 1.943110 
# 
# From -- ./inp_files/5933.got.cif
#   From: 2010.05.17/outbox.cif.g08.bks.cpg/sg68_3_cif.got.tgz:5933.got - 2010.06.03 18:57:09.
