data_PCOD9510357
_publ_section_title
;
Structure prediction by ZEFSAII (Michael W. Deem and Ramdas Pophale) SiO2 
 PCOD9510357
Probable space group: C C C A
;
_chemical_formula_sum "Si O2"
_cell_formula_units_Z 64
_cell_length_a 17.324332
_cell_length_b 11.852680
_cell_length_c 14.475314
_cell_angle_alpha 90.000000
_cell_angle_beta 90.000000
_cell_angle_gamma 90.000000
_cell_volume 2972.357552
_symmetry_space_group_name_H-M "C C C A"
_symmetry_group_IT_number 68
_space_group.IT_coordinate_system_code '2'
_symmetry_cell_setting 'orthorhombic'
loop_
_space_group_symop_operation_xyz
x,y,z
-x,1/2-y,z
x,1/2-y,1/2-z
-x,y,1/2-z
-x,-y,-z
x,1/2+y,-z
-x,1/2+y,1/2+z
x,-y,1/2+z
1/2+x,1/2+y,z
1/2-x,-y,z
1/2+x,-y,1/2-z
1/2-x,1/2+y,1/2-z
1/2-x,1/2-y,-z
1/2+x,y,-z
1/2-x,y,1/2+z
1/2+x,1/2-y,1/2+z
loop_
_atom_site_type_symbol
_atom_site_label
_atom_site_fract_x
_atom_site_fract_y
_atom_site_fract_z
Si Si1 0.872634 0.218682 0.653288
Si Si2 0.912775 0.760565 0.552705
Si Si3 0.280765 0.877134 0.154492
Si Si4 0.169810 0.036529 0.356607
O O1 0.910367 0.250000 0.750000
O O2 0.911599 0.248815 0.557289
O O3 0.789932 0.287122 0.650752
O O4 0.867069 0.084098 0.660386
O O5 0.852210 0.670715 0.595711
O O6 0.879911 0.881343 0.582024
O O7 0.000000 0.750000 0.588089
O O8 0.309562 0.900490 0.259931
O O9 0.250000 0.000000 0.123763
O O10 0.250000 0.000000 0.403122
#
# Coordination Sequence:
#
# PCOD9510357 Si02
#       4
#    16  16  16  16
#     4  12  24  45  72 105 145 191 251 299 353 426
#     4  12  29  46  70 110 151 193 235 293 374 436
#     4  11  23  44  76 108 138 181 245 306 351 425
#     4  11  23  44  77 109 139 187 245 302 360 421
#
# _framework density 21.53173
#
# number of rings (size 3 to 8) (size 9 to 14) (size 15 to 20)
#    0.000    0.500    7.500    1.500    3.500    3.500 
#    0.000    2.500    0.000    0.000    0.000    0.000 
#    0.000    0.000    0.000    0.000    0.000    0.000 
#
# Total GULP energy -178880.092399 kJ/mol
# GULP energy per Si atom -5590.002887 kJ/mol
# Density = 2.148272 g / cm^3
# Si number density = 21.531730 Si / 1000 Ang^3
#
#
#
# Elastic Constant Matrix: (Units=GPa)
#
#
# Indices 1 2 3 4 5 6 
#
# 1 136.7087 56.5680 41.1194 0.0000 0.0000 0.0000
# 2 56.5680 169.0297 41.4984 0.0000 0.0000 0.0000
# 3 41.1194 41.4984 104.9910 0.0000 0.0000 0.0000
# 4 0.0000 0.0000 0.0000 12.1674 0.0000 0.0000
# 5 0.0000 0.0000 0.0000 0.0000 -13.4974 0.0000
# 6 0.0000 0.0000 0.0000 0.0000 0.0000 14.5304
#
#
#
# Elastic Compliance Matrix: (Units=1/GPa)
#
#
# Indices 1 2 3 4 5 6 
#
# 1 0.009095 -0.002402 -0.002612 0.000000 0.000000 0.000000
# 2 -0.002402 0.007186 -0.001900 0.000000 0.000000 0.000000
# 3 -0.002612 -0.001900 0.011299 0.000000 0.000000 0.000000
# 4 0.000000 0.000000 0.000000 0.082187 0.000000 0.000000
# 5 0.000000 0.000000 0.000000 0.000000 -0.074088 0.000000
# 6 0.000000 0.000000 0.000000 0.000000 0.000000 0.068821
#
#
# Mechanical properties :
#
#
# Convention : Reuss Voigt Hill
#
# Bulk Modulus (GPa) = 72.72155 76.56682 74.64418
# Shear Modulus (GPa) = 40.67950 20.74297 30.71123
#
# Velocity S-wave (km/s) = 4.35130 3.10718 3.78077
# Velocity P-wave (km/s) = 7.68717 6.96491 7.33493
#
# Compressibility (1/GPa) = 0.01375108
#
# Stress axis : x y z
#
# Youngs Moduli (GPa) = 109.95542 139.15069 88.50657
#
# Poissons Ratio (x) = 0.33428 0.23121
# Poissons Ratio (y) = 0.26414 0.16813
# Poissons Ratio (z) = 0.28724 0.26434
#
# Static dielectric constant tensor:
#      x y z
#    x 1.822920 0.000000 0.000000 
#    y 0.000000 1.855900 0.000000 
#    z 0.000000 0.000000 1.801330 
# 
# From -- ./inp_files/20421.got.cif
#   From: 2010.05.17/outbox.cif.g08.bks.cpg/sg68_11_cif.got.tgz:20421.got - 2010.06.03 18:57:09.
