data_PCOD9510908
_publ_section_title
;
Structure prediction by ZEFSAII (Michael W. Deem and Ramdas Pophale) SiO2 
 PCOD9510908
Probable space group: C C C A
;
_chemical_formula_sum "Si O2"
_cell_formula_units_Z 32
_cell_length_a 13.658774
_cell_length_b 6.898181
_cell_length_c 11.988492
_cell_angle_alpha 90.000000
_cell_angle_beta 90.000000
_cell_angle_gamma 90.000000
_cell_volume 1129.564052
_symmetry_space_group_name_H-M "C C C A"
_symmetry_group_IT_number 68
_space_group.IT_coordinate_system_code '2'
_symmetry_cell_setting 'orthorhombic'
loop_
_space_group_symop_operation_xyz
x,y,z
-x,1/2-y,z
x,1/2-y,1/2-z
-x,y,1/2-z
-x,-y,-z
x,1/2+y,-z
-x,1/2+y,1/2+z
x,-y,1/2+z
1/2+x,1/2+y,z
1/2-x,-y,z
1/2+x,-y,1/2-z
1/2-x,1/2+y,1/2-z
1/2-x,1/2-y,-z
1/2+x,y,-z
1/2-x,y,1/2+z
1/2+x,1/2-y,1/2+z
loop_
_atom_site_type_symbol
_atom_site_label
_atom_site_fract_x
_atom_site_fract_y
_atom_site_fract_z
Si Si1 0.931671 0.930714 0.600163
Si Si2 0.668856 0.750000 0.750000
Si Si3 0.250000 0.000000 0.060704
O O1 0.834296 0.927700 0.522728
O O2 0.000000 0.750000 0.638105
O O3 0.899476 0.081486 0.696735
O O4 0.000000 0.000000 0.500000
O O5 0.739899 0.669116 0.654320
#
# Coordination Sequence:
#
# PCOD9510908 Si02
#       3
#    16   8   8
#     4  12  28  55  91 136 197 252 330 401 484 593
#     4  12  28  53  94 145 196 264 318 399 508 577
#     4  12  28  52  90 144 200 252 322 402 484 594
#
# _framework density 28.329515000000001
#
# number of rings (size 3 to 8) (size 9 to 14) (size 15 to 20)
#    0.000    0.000    5.000    3.000    7.000    4.000 
#    0.000    2.500    0.000    0.000    0.000    0.000 
#    0.000    0.000    0.000    0.000    0.000    0.000 
#
# Total GULP energy -89102.626984 kJ/mol
# GULP energy per Si atom -5568.914187 kJ/mol
# Density = 2.826504 g / cm^3
# Si number density = 28.329515 Si / 1000 Ang^3
#
#
#
# Elastic Constant Matrix: (Units=GPa)
#
#
# Indices 1 2 3 4 5 6 
#
# 1 199.3919 101.7574 124.7613 0.0000 0.0000 0.0000
# 2 101.7574 204.6067 139.1181 0.0000 0.0000 0.0000
# 3 124.7613 139.1181 254.1091 0.0000 0.0000 0.0000
# 4 0.0000 0.0000 0.0000 106.7559 0.0000 0.0000
# 5 0.0000 0.0000 0.0000 0.0000 139.6800 0.0000
# 6 0.0000 0.0000 0.0000 0.0000 0.0000 131.0144
#
#
#
# Elastic Compliance Matrix: (Units=1/GPa)
#
#
# Indices 1 2 3 4 5 6 
#
# 1 0.007727 -0.002012 -0.002692 0.000000 0.000000 0.000000
# 2 -0.002012 0.008310 -0.003561 0.000000 0.000000 0.000000
# 3 -0.002692 -0.003561 0.007207 0.000000 0.000000 0.000000
# 4 0.000000 0.000000 0.000000 0.009367 0.000000 0.000000
# 5 0.000000 0.000000 0.000000 0.000000 0.007159 0.000000
# 6 0.000000 0.000000 0.000000 0.000000 0.000000 0.007633
#
#
# Mechanical properties :
#
#
# Convention : Reuss Voigt Hill
#
# Bulk Modulus (GPa) = 148.99003 154.37569 151.68286
# Shear Modulus (GPa) = 75.56260 94.98813 85.27537
#
# Velocity S-wave (km/s) = 5.17017 5.79677 5.49241
# Velocity P-wave (km/s) = 9.39930 9.97068 9.68921
#
# Compressibility (1/GPa) = 0.00671186
#
# Stress axis : x y z
#
# Youngs Moduli (GPa) = 129.42391 120.34141 138.76110
#
# Poissons Ratio (x) = 0.24218 0.37352
# Poissons Ratio (y) = 0.26046 0.49417
# Poissons Ratio (z) = 0.34838 0.42857
#
# Static dielectric constant tensor:
#      x y z
#    x 1.090120 0.000000 0.000000 
#    y 0.000000 2.474430 0.000000 
#    z 0.000000 0.000000 1.153140 
# 
# From -- ./inp_files/12167.got.cif
#   From: 2010.05.17/outbox.cif.g08.bks.cpg/sg68_7_cif.got.tgz:12167.got - 2010.06.03 18:57:09.
