data_PCOD9510429
_publ_section_title
;
Structure prediction by ZEFSAII (Michael W. Deem and Ramdas Pophale) SiO2 
 PCOD9510429
Probable space group: C C C A
;
_chemical_formula_sum "Si O2"
_cell_formula_units_Z 52
_cell_length_a 12.054323
_cell_length_b 20.560872
_cell_length_c 9.381114
_cell_angle_alpha 90.000000
_cell_angle_beta 90.000000
_cell_angle_gamma 90.000000
_cell_volume 2325.084641
_symmetry_space_group_name_H-M "C C C A"
_symmetry_group_IT_number 68
_space_group.IT_coordinate_system_code '2'
_symmetry_cell_setting 'orthorhombic'
loop_
_space_group_symop_operation_xyz
x,y,z
-x,1/2-y,z
x,1/2-y,1/2-z
-x,y,1/2-z
-x,-y,-z
x,1/2+y,-z
-x,1/2+y,1/2+z
x,-y,1/2+z
1/2+x,1/2+y,z
1/2-x,-y,z
1/2+x,-y,1/2-z
1/2-x,1/2+y,1/2-z
1/2-x,1/2-y,-z
1/2+x,y,-z
1/2-x,y,1/2+z
1/2+x,1/2-y,1/2+z
loop_
_atom_site_type_symbol
_atom_site_label
_atom_site_fract_x
_atom_site_fract_y
_atom_site_fract_z
Si Si1 0.187116 0.686820 0.935787
Si Si2 0.209026 0.600261 0.188505
Si Si3 0.575582 0.024246 0.631865
Si Si4 0.500000 0.250000 0.750000
O O1 0.258739 0.642502 0.826068
O O2 0.080990 0.708957 0.848733
O O3 0.250000 0.750000 0.000000
O O4 0.152344 0.645091 0.071484
O O5 0.320104 0.571784 0.110644
O O6 0.130562 0.538392 0.210472
O O7 0.500000 0.057764 0.750000
O O8 0.500000 0.000000 0.500000
#
# Coordination Sequence:
#
# PCOD9510429 Si02
#       4
#    16  16  16   4
#     4  12  25  47  70 102 142 188 240 297 348 421
#     4  11  25  43  70 103 144 180 234 299 348 422
#     4  11  24  42  69 105 139 186 231 285 364 428
#     4  12  28  44  74  98 136 196 238 280 370 406
#
# _framework density 22.364778000000001
#
# number of rings (size 3 to 8) (size 9 to 14) (size 15 to 20)
#    0.000    0.615    3.077    3.692    6.462    7.385 
#    0.000    1.538    0.000    0.000    0.000    0.000 
#    0.000    0.000    0.000    0.000    0.000    0.000 
#
# Total GULP energy -145349.223858 kJ/mol
# GULP energy per Si atom -5590.354764 kJ/mol
# Density = 2.231387 g / cm^3
# Si number density = 22.364778 Si / 1000 Ang^3
#
#
#
# Elastic Constant Matrix: (Units=GPa)
#
#
# Indices 1 2 3 4 5 6 
#
# 1 101.7068 29.0681 30.0194 0.0000 0.0000 0.0000
# 2 29.0681 108.7965 37.7957 0.0000 0.0000 0.0000
# 3 30.0194 37.7957 114.4401 0.0000 0.0000 0.0000
# 4 0.0000 0.0000 0.0000 50.1582 0.0000 0.0000
# 5 0.0000 0.0000 0.0000 0.0000 39.3239 0.0000
# 6 0.0000 0.0000 0.0000 0.0000 0.0000 26.0430
#
#
#
# Elastic Compliance Matrix: (Units=1/GPa)
#
#
# Indices 1 2 3 4 5 6 
#
# 1 0.011108 -0.002209 -0.002184 0.000000 0.000000 0.000000
# 2 -0.002209 0.010822 -0.002995 0.000000 0.000000 0.000000
# 3 -0.002184 -0.002995 0.010300 0.000000 0.000000 0.000000
# 4 0.000000 0.000000 0.000000 0.019937 0.000000 0.000000
# 5 0.000000 0.000000 0.000000 0.000000 0.025430 0.000000
# 6 0.000000 0.000000 0.000000 0.000000 0.000000 0.038398
#
#
# Mechanical properties :
#
#
# Convention : Reuss Voigt Hill
#
# Bulk Modulus (GPa) = 57.29205 57.63441 57.46323
# Shear Modulus (GPa) = 36.60603 38.30904 37.45754
#
# Velocity S-wave (km/s) = 4.05009 4.14323 4.09693
# Velocity P-wave (km/s) = 6.89519 6.97958 6.93752
#
# Compressibility (1/GPa) = 0.01745443
#
# Stress axis : x y z
#
# Youngs Moduli (GPa) = 90.02323 92.40406 97.08540
#
# Poissons Ratio (x) = 0.20413 0.21206
# Poissons Ratio (y) = 0.19887 0.29074
# Poissons Ratio (z) = 0.19664 0.27672
#
# Static dielectric constant tensor:
#      x y z
#    x 1.846740 0.000000 0.000000 
#    y 0.000000 1.850680 0.000000 
#    z 0.000000 0.000000 1.787000 
# 
# From -- ./inp_files/3813.got.cif
#   From: 2010.05.17/outbox.cif.g08.bks.cpg/sg68_2_cif.got.tgz:3813.got - 2010.06.03 18:57:09.
