data_PCOD9510629
_publ_section_title
;
Structure prediction by ZEFSAII (Michael W. Deem and Ramdas Pophale) SiO2 
 PCOD9510629
Probable space group: C C C A
;
_chemical_formula_sum "Si O2"
_cell_formula_units_Z 84
_cell_length_a 22.358989
_cell_length_b 17.758889
_cell_length_c 8.703432
_cell_angle_alpha 90.000000
_cell_angle_beta 90.000000
_cell_angle_gamma 90.000000
_cell_volume 3455.878740
_symmetry_space_group_name_H-M "C C C A"
_symmetry_group_IT_number 68
_space_group.IT_coordinate_system_code '2'
_symmetry_cell_setting 'orthorhombic'
loop_
_space_group_symop_operation_xyz
x,y,z
-x,1/2-y,z
x,1/2-y,1/2-z
-x,y,1/2-z
-x,-y,-z
x,1/2+y,-z
-x,1/2+y,1/2+z
x,-y,1/2+z
1/2+x,1/2+y,z
1/2-x,-y,z
1/2+x,-y,1/2-z
1/2-x,1/2+y,1/2-z
1/2-x,1/2-y,-z
1/2+x,y,-z
1/2-x,y,1/2+z
1/2+x,1/2-y,1/2+z
loop_
_atom_site_type_symbol
_atom_site_label
_atom_site_fract_x
_atom_site_fract_y
_atom_site_fract_z
Si Si1 0.897856 0.859003 0.320964
Si Si2 0.832383 0.627985 0.658560
Si Si3 0.000000 0.750000 0.750000
Si Si4 0.582844 0.280074 0.501554
Si Si5 0.451322 0.977150 0.131049
Si Si6 0.221324 0.834921 0.994787
O O1 0.929972 0.803871 0.442655
O O2 0.829257 0.845521 0.372491
O O3 0.921872 0.942376 0.327080
O O4 0.911826 0.827832 0.152221
O O5 0.856690 0.708115 0.595240
O O6 0.776496 0.611445 0.547064
O O7 0.807898 0.637670 0.832632
O O8 0.037152 0.799346 0.633240
O O9 0.609878 0.426173 0.628403
O O10 0.500000 0.947316 0.250000
O O11 0.500000 0.000000 0.000000
O O12 0.250000 0.750000 0.000000
#
# Coordination Sequence:
#
# PCOD9510629 Si02
#       6
#    16  16   4  16  16  16
#     4  11  26  50  79 117 160 216 274 343 431 493
#     4  12  27  49  80 118 163 220 270 342 436 494
#     4  12  28  42  72 116 160 198 284 342 402 514
#     4  11  26  46  77 118 154 210 279 344 421 489
#     4  12  29  53  80 115 170 220 282 347 416 508
#     4  12  25  48  82 120 165 206 278 354 415 513
#
# _framework density 24.30641
#
# number of rings (size 3 to 8) (size 9 to 14) (size 15 to 20)
#    0.000    0.381    1.905    5.143    9.333    1.524 
#    0.000    1.905    0.000    0.000    0.000    0.000 
#    0.000    0.000    0.000    0.000    0.000    0.000 
#
# Total GULP energy -234101.141850 kJ/mol
# GULP energy per Si atom -5573.836711 kJ/mol
# Density = 2.425109 g / cm^3
# Si number density = 24.306410 Si / 1000 Ang^3
#
#
#
# Elastic Constant Matrix: (Units=GPa)
#
#
# Indices 1 2 3 4 5 6 
#
# 1 218.1697 70.7471 107.8752 0.0000 0.0000 0.0000
# 2 70.7471 126.8604 40.2434 0.0000 0.0000 0.0000
# 3 107.8752 40.2434 167.8685 0.0000 0.0000 0.0000
# 4 0.0000 0.0000 0.0000 17.7638 0.0000 0.0000
# 5 0.0000 0.0000 0.0000 0.0000 67.8806 0.0000
# 6 0.0000 0.0000 0.0000 0.0000 0.0000 50.3517
#
#
#
# Elastic Compliance Matrix: (Units=1/GPa)
#
#
# Indices 1 2 3 4 5 6 
#
# 1 0.007595 -0.002909 -0.004184 0.000000 0.000000 0.000000
# 2 -0.002909 0.009645 -0.000443 0.000000 0.000000 0.000000
# 3 -0.004184 -0.000443 0.008752 0.000000 0.000000 0.000000
# 4 0.000000 0.000000 0.000000 0.056294 0.000000 0.000000
# 5 0.000000 0.000000 0.000000 0.000000 0.014732 0.000000
# 6 0.000000 0.000000 0.000000 0.000000 0.000000 0.019860
#
#
# Mechanical properties :
#
#
# Convention : Reuss Voigt Hill
#
# Bulk Modulus (GPa) = 91.56129 105.62554 98.59342
# Shear Modulus (GPa) = 36.87584 46.80143 41.83864
#
# Velocity S-wave (km/s) = 3.89925 4.39279 4.15336
# Velocity P-wave (km/s) = 7.61732 8.32340 7.97818
#
# Compressibility (1/GPa) = 0.01092165
#
# Stress axis : x y z
#
# Youngs Moduli (GPa) = 131.65841 103.67709 114.26253
#
# Poissons Ratio (x) = 0.30156 0.47804
# Poissons Ratio (y) = 0.38294 0.05064
# Poissons Ratio (z) = 0.55081 0.04595
#
# Static dielectric constant tensor:
#      x y z
#    x 2.054150 0.000000 0.000000 
#    y 0.000000 2.050920 0.000000 
#    z 0.000000 0.000000 2.004850 
# 
# From -- ./inp_files/7949.got.cif
#   From: 2010.05.17/outbox.cif.g08.bks.cpg/sg68_4_cif.got.tgz:7949.got - 2010.06.03 18:57:09.
