data_PCOD9510105
_publ_section_title
;
Structure prediction by ZEFSAII (Michael W. Deem and Ramdas Pophale) SiO2 
 PCOD9510105
Probable space group: C C C A
;
_chemical_formula_sum "Si O2"
_cell_formula_units_Z 112
_cell_length_a 28.441784
_cell_length_b 12.876340
_cell_length_c 13.425182
_cell_angle_alpha 90.000000
_cell_angle_beta 90.000000
_cell_angle_gamma 90.000000
_cell_volume 4916.651790
_symmetry_space_group_name_H-M "C C C A"
_symmetry_group_IT_number 68
_space_group.IT_coordinate_system_code '2'
_symmetry_cell_setting 'orthorhombic'
loop_
_space_group_symop_operation_xyz
x,y,z
-x,1/2-y,z
x,1/2-y,1/2-z
-x,y,1/2-z
-x,-y,-z
x,1/2+y,-z
-x,1/2+y,1/2+z
x,-y,1/2+z
1/2+x,1/2+y,z
1/2-x,-y,z
1/2+x,-y,1/2-z
1/2-x,1/2+y,1/2-z
1/2-x,1/2-y,-z
1/2+x,y,-z
1/2-x,y,1/2+z
1/2+x,1/2-y,1/2+z
loop_
_atom_site_type_symbol
_atom_site_label
_atom_site_fract_x
_atom_site_fract_y
_atom_site_fract_z
Si Si1 0.201276 0.206024 0.965782
Si Si2 0.911471 0.013128 0.147603
Si Si3 0.452217 0.812140 0.953198
Si Si4 0.616498 0.357307 0.028203
Si Si5 0.923648 0.847089 0.818829
Si Si6 0.800728 0.953985 0.184127
Si Si7 0.834950 0.549610 0.622045
O O1 0.164290 0.295548 0.990775
O O2 0.200570 0.165216 0.852278
O O3 0.250000 0.250000 0.000000
O O4 0.190638 0.102504 0.029764
O O5 0.933130 0.051651 0.251395
O O6 0.940782 0.917630 0.104590
O O7 0.854792 0.988598 0.153700
O O8 0.911667 0.108599 0.069978
O O9 0.500000 0.750000 0.939787
O O10 0.413732 0.728777 0.916799
O O11 0.444639 0.838757 0.070842
O O12 0.628816 0.462927 0.083487
O O13 0.936293 0.750000 0.750000
O O14 0.866867 0.858451 0.831704
O O15 0.750000 0.000000 0.146271
O O16 0.802875 0.990599 0.298773
#
# Coordination Sequence:
#
# PCOD9510105 Si02
#       7
#    16  16  16  16  16  16  16
#     4  12  25  42  72 103 144 196 246 306 377 458
#     4  11  22  46  72 105 151 197 246 314 374 449
#     4  12  26  47  75 114 146 198 252 312 388 451
#     4  12  21  46  71  97 152 190 239 304 380 440
#     4  11  21  44  74 105 143 190 241 304 367 449
#     4  11  24  42  68 104 144 192 251 299 377 450
#     4  11  25  44  69 101 146 190 246 303 372 449
#
# _framework density 22.779730000000001
#
# number of rings (size 3 to 8) (size 9 to 14) (size 15 to 20)
#    0.000    0.571    7.143    0.857    2.000    2.571 
#    0.000    0.000    0.000    3.429    0.000    0.000 
#    0.000    0.000    0.000    0.000    0.000    0.000 
#
# Total GULP energy -312483.771034 kJ/mol
# GULP energy per Si atom -5580.067340 kJ/mol
# Density = 2.272788 g / cm^3
# Si number density = 22.779730 Si / 1000 Ang^3
#
#
#
# Elastic Constant Matrix: (Units=GPa)
#
#
# Indices 1 2 3 4 5 6 
#
# 1 94.7626 47.7069 28.0958 0.0000 0.0000 0.0000
# 2 47.7069 114.6283 46.0905 0.0000 0.0000 0.0000
# 3 28.0958 46.0905 65.3013 0.0000 0.0000 0.0000
# 4 0.0000 0.0000 0.0000 29.8083 0.0000 0.0000
# 5 0.0000 0.0000 0.0000 0.0000 17.7206 0.0000
# 6 0.0000 0.0000 0.0000 0.0000 0.0000 38.2952
#
#
#
# Elastic Compliance Matrix: (Units=1/GPa)
#
#
# Indices 1 2 3 4 5 6 
#
# 1 0.013660 -0.004638 -0.002603 0.000000 0.000000 0.000000
# 2 -0.004638 0.013756 -0.007713 0.000000 0.000000 0.000000
# 3 -0.002603 -0.007713 0.021878 0.000000 0.000000 0.000000
# 4 0.000000 0.000000 0.000000 0.033548 0.000000 0.000000
# 5 0.000000 0.000000 0.000000 0.000000 0.056432 0.000000
# 6 0.000000 0.000000 0.000000 0.000000 0.000000 0.026113
#
#
# Mechanical properties :
#
#
# Convention : Reuss Voigt Hill
#
# Bulk Modulus (GPa) = 51.59051 57.60871 54.59961
# Shear Modulus (GPa) = 24.78241 27.35143 26.06692
#
# Velocity S-wave (km/s) = 3.30193 3.46886 3.38642
# Velocity P-wave (km/s) = 6.10195 6.43338 6.26985
#
# Compressibility (1/GPa) = 0.01938341
#
# Stress axis : x y z
#
# Youngs Moduli (GPa) = 73.20885 72.69749 45.70826
#
# Poissons Ratio (x) = 0.33718 0.11899
# Poissons Ratio (y) = 0.33956 0.35256
# Poissons Ratio (z) = 0.19059 0.56074
#
# Static dielectric constant tensor:
#      x y z
#    x 1.800480 0.000000 0.000000 
#    y 0.000000 1.824650 0.000000 
#    z 0.000000 0.000000 1.908100 
# 
# From -- ./inp_files/26410.got.cif
#   From: 2010.05.17/outbox.cif.g08.bks.cpg/sg68_14_cif.got.tgz:26410.got - 2010.06.03 18:57:09.
