data_PCOD9510346
_publ_section_title
;
Structure prediction by ZEFSAII (Michael W. Deem and Ramdas Pophale) SiO2 
 PCOD9510346
Probable space group: C C C A
;
_chemical_formula_sum "Si O2"
_cell_formula_units_Z 64
_cell_length_a 10.098184
_cell_length_b 32.055482
_cell_length_c 9.243131
_cell_angle_alpha 90.000000
_cell_angle_beta 90.000000
_cell_angle_gamma 90.000000
_cell_volume 2992.021428
_symmetry_space_group_name_H-M "C C C A"
_symmetry_group_IT_number 68
_space_group.IT_coordinate_system_code '2'
_symmetry_cell_setting 'orthorhombic'
loop_
_space_group_symop_operation_xyz
x,y,z
-x,1/2-y,z
x,1/2-y,1/2-z
-x,y,1/2-z
-x,-y,-z
x,1/2+y,-z
-x,1/2+y,1/2+z
x,-y,1/2+z
1/2+x,1/2+y,z
1/2-x,-y,z
1/2+x,-y,1/2-z
1/2-x,1/2+y,1/2-z
1/2-x,1/2-y,-z
1/2+x,y,-z
1/2-x,y,1/2+z
1/2+x,1/2-y,1/2+z
loop_
_atom_site_type_symbol
_atom_site_label
_atom_site_fract_x
_atom_site_fract_y
_atom_site_fract_z
Si Si1 0.838560 0.391387 0.648959
Si Si2 0.404577 0.987878 0.629814
Si Si3 0.632514 0.731083 0.087602
Si Si4 0.605580 0.361889 0.473076
O O1 0.889570 0.438541 0.659991
O O2 0.695177 0.391820 0.573039
O O3 0.842615 0.368595 0.806463
O O4 0.948460 0.369533 0.545208
O O5 0.500000 0.007721 0.750000
O O6 0.500000 0.000000 0.500000
O O7 0.250000 0.000000 0.616874
O O8 0.500000 0.750000 0.022750
O O9 0.641161 0.750000 0.250000
O O10 0.750000 0.750000 0.000000
O O11 0.628367 0.682042 0.054539
#
# Coordination Sequence:
#
# PCOD9510346 Si02
#       4
#    16  16  16  16
#     4  11  25  45  68 104 138 185 241 284 368 417
#     4  12  26  46  73 106 150 193 250 304 366 438
#     4  11  24  42  67 101 136 179 234 284 355 422
#     4  11  23  44  68  96 143 179 231 297 341 435
#
# _framework density 21.390219999999999
#
# number of rings (size 3 to 8) (size 9 to 14) (size 15 to 20)
#    0.000    0.750    2.500    5.250    3.500    5.500 
#    0.000    0.000    0.000    0.000    0.000    0.000 
#    0.000    0.000    0.000    0.000    0.000    0.000 
#
# Total GULP energy -178225.585079 kJ/mol
# GULP energy per Si atom -5569.549534 kJ/mol
# Density = 2.134153 g / cm^3
# Si number density = 21.390220 Si / 1000 Ang^3
#
#
#
# Elastic Constant Matrix: (Units=GPa)
#
#
# Indices 1 2 3 4 5 6 
#
# 1 156.6677 29.4113 61.7970 0.0000 0.0000 0.0000
# 2 29.4113 91.7243 19.4431 0.0000 0.0000 0.0000
# 3 61.7970 19.4431 116.0008 0.0000 0.0000 0.0000
# 4 0.0000 0.0000 0.0000 22.1141 0.0000 0.0000
# 5 0.0000 0.0000 0.0000 0.0000 22.9492 0.0000
# 6 0.0000 0.0000 0.0000 0.0000 0.0000 39.4028
#
#
#
# Elastic Compliance Matrix: (Units=1/GPa)
#
#
# Indices 1 2 3 4 5 6 
#
# 1 0.008358 -0.001800 -0.004151 0.000000 0.000000 0.000000
# 2 -0.001800 0.011692 -0.001001 0.000000 0.000000 0.000000
# 3 -0.004151 -0.001001 0.011000 0.000000 0.000000 0.000000
# 4 0.000000 0.000000 0.000000 0.045220 0.000000 0.000000
# 5 0.000000 0.000000 0.000000 0.000000 0.043575 0.000000
# 6 0.000000 0.000000 0.000000 0.000000 0.000000 0.025379
#
#
# Mechanical properties :
#
#
# Convention : Reuss Voigt Hill
#
# Bulk Modulus (GPa) = 58.32273 65.07727 61.70000
# Shear Modulus (GPa) = 30.33210 33.80929 32.07070
#
# Velocity S-wave (km/s) = 3.76977 3.97998 3.87630
# Velocity P-wave (km/s) = 6.80246 7.18403 6.99585
#
# Compressibility (1/GPa) = 0.01714597
#
# Stress axis : x y z
#
# Youngs Moduli (GPa) = 119.64292 85.53171 90.91178
#
# Poissons Ratio (x) = 0.15397 0.37737
# Poissons Ratio (y) = 0.21538 0.09097
# Poissons Ratio (z) = 0.49663 0.08559
#
# Static dielectric constant tensor:
#      x y z
#    x 1.775180 0.000000 0.000000 
#    y 0.000000 1.819500 0.000000 
#    z 0.000000 0.000000 1.674290 
# 
# From -- ./inp_files/4061.got.cif
#   From: 2010.05.17/outbox.cif.g08.bks.cpg/sg68_3_cif.got.tgz:4061.got - 2010.06.03 18:57:09.
