data_PCOD9510744
_publ_section_title
;
Structure prediction by ZEFSAII (Michael W. Deem and Ramdas Pophale) SiO2 
 PCOD9510744
Probable space group: C C C A
;
_chemical_formula_sum "Si O2"
_cell_formula_units_Z 60
_cell_length_a 13.978960
_cell_length_b 6.781699
_cell_length_c 27.921655
_cell_angle_alpha 90.000000
_cell_angle_beta 90.000000
_cell_angle_gamma 90.000000
_cell_volume 2647.003581
_symmetry_space_group_name_H-M "C C C A"
_symmetry_group_IT_number 68
_space_group.IT_coordinate_system_code '2'
_symmetry_cell_setting 'orthorhombic'
loop_
_space_group_symop_operation_xyz
x,y,z
-x,1/2-y,z
x,1/2-y,1/2-z
-x,y,1/2-z
-x,-y,-z
x,1/2+y,-z
-x,1/2+y,1/2+z
x,-y,1/2+z
1/2+x,1/2+y,z
1/2-x,-y,z
1/2+x,-y,1/2-z
1/2-x,1/2+y,1/2-z
1/2-x,1/2-y,-z
1/2+x,y,-z
1/2-x,y,1/2+z
1/2+x,1/2-y,1/2+z
loop_
_atom_site_type_symbol
_atom_site_label
_atom_site_fract_x
_atom_site_fract_y
_atom_site_fract_z
Si Si1 0.092053 0.611439 0.609565
Si Si2 0.000000 0.250000 0.750000
Si Si3 0.500000 0.750000 0.558811
Si Si4 0.824951 0.132108 0.007747
Si Si5 0.855266 0.430055 0.284591
O O1 0.155050 0.665287 0.564055
O O2 0.145740 0.627341 0.659742
O O3 0.000000 0.750000 0.612651
O O4 0.055258 0.396982 0.594054
O O5 0.068960 0.393553 0.720284
O O6 0.422605 0.863741 0.525215
O O7 0.799821 0.379437 0.995987
O O8 0.883278 0.250000 0.250000
O O9 0.750000 0.500000 0.269555
#
# Coordination Sequence:
#
# PCOD9510744 Si02
#       5
#    16   4   8  16  16
#     4  12  25  45  72 105 144 190 241 296 369 434
#     4  12  24  52  80 108 148 184 242 322 376 432
#     4  12  25  46  70 107 149 190 240 301 358 442
#     4  12  23  42  68 100 147 190 235 291 353 433
#     4  12  27  51  79 111 149 195 254 314 379 453
#
# _framework density 22.66714
#
# number of rings (size 3 to 8) (size 9 to 14) (size 15 to 20)
#    0.000    0.000    5.333    6.000    0.000    0.000 
#    0.000    1.333    0.000    0.000    0.000    0.000 
#    0.000    0.000    0.000    0.000    0.000    0.000 
#
# Total GULP energy -167684.770247 kJ/mol
# GULP energy per Si atom -5589.492342 kJ/mol
# Density = 2.261555 g / cm^3
# Si number density = 22.667140 Si / 1000 Ang^3
#
#
#
# Elastic Constant Matrix: (Units=GPa)
#
#
# Indices 1 2 3 4 5 6 
#
# 1 93.7995 49.3640 5.7035 0.0000 0.0000 0.0000
# 2 49.3640 110.4949 39.2265 0.0000 0.0000 0.0000
# 3 5.7035 39.2265 140.7178 0.0000 0.0000 0.0000
# 4 0.0000 0.0000 0.0000 69.5064 0.0000 0.0000
# 5 0.0000 0.0000 0.0000 0.0000 37.6966 0.0000
# 6 0.0000 0.0000 0.0000 0.0000 0.0000 77.5559
#
#
#
# Elastic Compliance Matrix: (Units=1/GPa)
#
#
# Indices 1 2 3 4 5 6 
#
# 1 0.014156 -0.006793 0.001320 0.000000 0.000000 0.000000
# 2 -0.006793 0.013304 -0.003433 0.000000 0.000000 0.000000
# 3 0.001320 -0.003433 0.008010 0.000000 0.000000 0.000000
# 4 0.000000 0.000000 0.000000 0.014387 0.000000 0.000000
# 5 0.000000 0.000000 0.000000 0.000000 0.026528 0.000000
# 6 0.000000 0.000000 0.000000 0.000000 0.000000 0.012894
#
#
# Mechanical properties :
#
#
# Convention : Reuss Voigt Hill
#
# Bulk Modulus (GPa) = 56.63451 59.28893 57.96172
# Shear Modulus (GPa) = 44.25739 53.66632 48.96185
#
# Velocity S-wave (km/s) = 4.42349 4.87106 4.65266
# Velocity P-wave (km/s) = 7.15047 7.60588 7.38169
#
# Compressibility (1/GPa) = 0.01765708
#
# Stress axis : x y z
#
# Youngs Moduli (GPa) = 70.64382 75.16758 124.84439
#
# Poissons Ratio (x) = 0.51058 -0.16476
# Poissons Ratio (y) = 0.47985 0.42862
# Poissons Ratio (z) = -0.09323 0.25807
#
# Static dielectric constant tensor:
#      x y z
#    x 1.882180 0.000000 0.000000 
#    y 0.000000 2.015580 0.000000 
#    z 0.000000 0.000000 1.744740 
# 
# From -- ./inp_files/51187.got.cif
#   From: 2010.05.17/outbox.cif.g08.bks.cpg/sg68_26_cif.got.tgz:51187.got - 2010.06.03 18:57:09.
