data_PCOD9510898
_publ_section_title
;
Structure prediction by ZEFSAII (Michael W. Deem and Ramdas Pophale) SiO2 
 PCOD9510898
Probable space group: C C C A
;
_chemical_formula_sum "Si O2"
_cell_formula_units_Z 48
_cell_length_a 11.882146
_cell_length_b 8.245523
_cell_length_c 18.730042
_cell_angle_alpha 90.000000
_cell_angle_beta 90.000000
_cell_angle_gamma 90.000000
_cell_volume 1835.066652
_symmetry_space_group_name_H-M "C C C A"
_symmetry_group_IT_number 68
_space_group.IT_coordinate_system_code '2'
_symmetry_cell_setting 'orthorhombic'
loop_
_space_group_symop_operation_xyz
x,y,z
-x,1/2-y,z
x,1/2-y,1/2-z
-x,y,1/2-z
-x,-y,-z
x,1/2+y,-z
-x,1/2+y,1/2+z
x,-y,1/2+z
1/2+x,1/2+y,z
1/2-x,-y,z
1/2+x,-y,1/2-z
1/2-x,1/2+y,1/2-z
1/2-x,1/2-y,-z
1/2+x,y,-z
1/2-x,y,1/2+z
1/2+x,1/2-y,1/2+z
loop_
_atom_site_type_symbol
_atom_site_label
_atom_site_fract_x
_atom_site_fract_y
_atom_site_fract_z
Si Si1 0.500000 0.250000 0.885974
Si Si2 0.081619 0.594988 0.432955
Si Si3 0.754562 0.264220 0.666609
Si Si4 0.750000 0.500000 0.945735
O O1 0.619062 0.256321 0.843940
O O2 0.479463 0.419487 0.928453
O O3 0.160537 0.597639 0.362246
O O4 0.169032 0.592048 0.498885
O O5 0.000000 0.750000 0.435102
O O6 0.776723 0.250000 0.750000
O O7 0.798058 0.127597 0.610657
#
# Coordination Sequence:
#
# PCOD9510898 Si02
#       4
#     8  16  16   8
#     4  12  27  54  92 120 175 226 292 350 435 518
#     4  12  29  57  88 129 171 223 293 360 431 514
#     4  12  29  53  83 125 179 227 284 360 435 513
#     4  12  28  56  88 124 174 230 286 362 428 518
#
# _framework density 26.157088999999999
#
# number of rings (size 3 to 8) (size 9 to 14) (size 15 to 20)
#    0.000    0.000    3.333    3.500    7.000    3.333 
#    6.000    0.000    0.000    0.000    0.000    0.000 
#    0.000    0.000    0.000    0.000    0.000    0.000 
#
# Total GULP energy -133981.733346 kJ/mol
# GULP energy per Si atom -5582.572223 kJ/mol
# Density = 2.609755 g / cm^3
# Si number density = 26.157089 Si / 1000 Ang^3
#
#
#
# Elastic Constant Matrix: (Units=GPa)
#
#
# Indices 1 2 3 4 5 6 
#
# 1 162.3655 106.3701 77.9723 0.0000 0.0000 0.0000
# 2 106.3701 171.2721 72.4653 0.0000 0.0000 0.0000
# 3 77.9723 72.4653 233.6368 0.0000 0.0000 0.0000
# 4 0.0000 0.0000 0.0000 -360.7336 0.0000 0.0000
# 5 0.0000 0.0000 0.0000 0.0000 46.7860 0.0000
# 6 0.0000 0.0000 0.0000 0.0000 0.0000 71.5124
#
#
#
# Elastic Compliance Matrix: (Units=1/GPa)
#
#
# Indices 1 2 3 4 5 6 
#
# 1 0.010995 -0.006073 -0.001786 0.000000 0.000000 0.000000
# 2 -0.006073 0.010075 -0.001098 0.000000 0.000000 0.000000
# 3 -0.001786 -0.001098 0.005217 0.000000 0.000000 0.000000
# 4 0.000000 0.000000 0.000000 -0.002772 0.000000 0.000000
# 5 0.000000 0.000000 0.000000 0.000000 0.021374 0.000000
# 6 0.000000 0.000000 0.000000 0.000000 0.000000 0.013984
#
#
# Mechanical properties :
#
#
# Convention : Reuss Voigt Hill
#
# Bulk Modulus (GPa) = 119.43257 120.09887 119.76572
# Shear Modulus (GPa) = 62.83205 -27.78926 17.52139
#
# Velocity S-wave (km/s) = 4.90644 -3.26298 2.59096
# Velocity P-wave (km/s) = 8.82363 5.64075 7.40522
#
# Compressibility (1/GPa) = 0.00837293
#
# Stress axis : x y z
#
# Youngs Moduli (GPa) = 90.94898 99.25550 191.69124
#
# Poissons Ratio (x) = 0.60279 0.34233
# Poissons Ratio (y) = 0.55234 0.21050
# Poissons Ratio (z) = 0.16242 0.10899
#
# Static dielectric constant tensor:
#      x y z
#    x 2.192150 0.000000 0.000000 
#    y 0.000000 2.513820 0.000000 
#    z 0.000000 0.000000 1.991380 
# 
# From -- ./inp_files/28835.got.cif
#   From: 2010.05.17/outbox.cif.g08.bks.cpg/sg68_15_cif.got.tgz:28835.got - 2010.06.03 18:57:09.
