data_PCOD9510043
_publ_section_title
;
Structure prediction by ZEFSAII (Michael W. Deem and Ramdas Pophale) SiO2 
 PCOD9510043
Probable space group: C C C A
;
_chemical_formula_sum "Si O2"
_cell_formula_units_Z 116
_cell_length_a 23.711115
_cell_length_b 27.957566
_cell_length_c 9.102713
_cell_angle_alpha 90.000000
_cell_angle_beta 90.000000
_cell_angle_gamma 90.000000
_cell_volume 6034.234531
_symmetry_space_group_name_H-M "C C C A"
_symmetry_group_IT_number 68
_space_group.IT_coordinate_system_code '2'
_symmetry_cell_setting 'orthorhombic'
loop_
_space_group_symop_operation_xyz
x,y,z
-x,1/2-y,z
x,1/2-y,1/2-z
-x,y,1/2-z
-x,-y,-z
x,1/2+y,-z
-x,1/2+y,1/2+z
x,-y,1/2+z
1/2+x,1/2+y,z
1/2-x,-y,z
1/2+x,-y,1/2-z
1/2-x,1/2+y,1/2-z
1/2-x,1/2-y,-z
1/2+x,y,-z
1/2-x,y,1/2+z
1/2+x,1/2-y,1/2+z
loop_
_atom_site_type_symbol
_atom_site_label
_atom_site_fract_x
_atom_site_fract_y
_atom_site_fract_z
Si Si1 0.227836 0.553305 0.860422
Si Si2 0.907641 0.195722 0.778169
Si Si3 0.655768 0.105750 0.352520
Si Si4 0.125072 0.464145 0.590161
Si Si5 0.000000 0.250000 0.250000
Si Si6 0.011083 0.322425 0.505618
Si Si7 0.867229 0.424943 0.338394
Si Si8 0.460922 0.078543 0.624878
O O1 0.250000 0.500000 0.823686
O O2 0.281482 0.586748 0.887397
O O3 0.195603 0.577056 0.724414
O O4 0.180655 0.544977 0.987541
O O5 0.890283 0.250000 0.750000
O O6 0.856169 0.159834 0.806076
O O7 0.941907 0.179562 0.632970
O O8 0.953070 0.193156 0.912526
O O9 0.630950 0.071701 0.225947
O O10 0.623761 0.097208 0.504306
O O11 0.123303 0.518084 0.647378
O O12 0.068876 0.454316 0.495754
O O13 0.973813 0.212494 0.369068
O O14 0.008336 0.376604 0.447746
O O15 0.907943 0.402213 0.218663
O O16 0.500000 0.054988 0.750000
#
# Coordination Sequence:
#
# PCOD9510043 Si02
#       8
#    16  16  16  16   4  16  16  16
#     4  11  21  38  64  90 124 158 216 271 309 369
#     4  11  23  42  62  92 128 165 212 261 315 385
#     4  12  22  35  63  94 122 164 206 272 322 363
#     4  11  22  39  59  90 125 168 211 257 312 378
#     4  12  20  34  72  92 108 154 208 268 324 342
#     4  11  21  39  64  92 122 161 209 264 310 372
#     4  11  23  38  61  93 127 165 214 260 317 376
#     4  11  23  39  56  87 132 165 202 254 315 379
#
# _framework density 19.223647
#
# number of rings (size 3 to 8) (size 9 to 14) (size 15 to 20)
#    0.000    0.828    6.207    2.897    0.000    0.552 
#    0.000    1.379    0.000    3.310    3.586    0.000 
#    0.000    0.000    0.000    0.000    0.000    0.000 
#
# Total GULP energy -323630.058546 kJ/mol
# GULP energy per Si atom -5579.828596 kJ/mol
# Density = 1.917989 g / cm^3
# Si number density = 19.223647 Si / 1000 Ang^3
#
#
#
# Elastic Constant Matrix: (Units=GPa)
#
#
# Indices 1 2 3 4 5 6 
#
# 1 60.9168 26.3176 10.1011 0.0000 0.0000 0.0000
# 2 26.3176 83.5406 8.6311 0.0000 0.0000 0.0000
# 3 10.1011 8.6311 94.7012 0.0000 0.0000 0.0000
# 4 0.0000 0.0000 0.0000 29.7025 0.0000 0.0000
# 5 0.0000 0.0000 0.0000 0.0000 -11.7889 0.0000
# 6 0.0000 0.0000 0.0000 0.0000 0.0000 23.6721
#
#
#
# Elastic Compliance Matrix: (Units=1/GPa)
#
#
# Indices 1 2 3 4 5 6 
#
# 1 0.019214 -0.005897 -0.001512 0.000000 0.000000 0.000000
# 2 -0.005897 0.013894 -0.000637 0.000000 0.000000 0.000000
# 3 -0.001512 -0.000637 0.010779 0.000000 0.000000 0.000000
# 4 0.000000 0.000000 0.000000 0.033667 0.000000 0.000000
# 5 0.000000 0.000000 0.000000 0.000000 -0.084825 0.000000
# 6 0.000000 0.000000 0.000000 0.000000 0.000000 0.042244
#
#
# Mechanical properties :
#
#
# Convention : Reuss Voigt Hill
#
# Bulk Modulus (GPa) = 35.97826 36.58424 36.28125
# Shear Modulus (GPa) = 82.87845 21.25773 52.06809
#
# Velocity S-wave (km/s) = 6.57315 3.32898 5.21001
# Velocity P-wave (km/s) = 8.73869 5.81793 7.42338
#
# Compressibility (1/GPa) = 0.02779456
#
# Stress axis : x y z
#
# Youngs Moduli (GPa) = 52.04519 71.97504 92.77395
#
# Poissons Ratio (x) = 0.42442 0.14027
# Poissons Ratio (y) = 0.30690 0.05913
# Poissons Ratio (z) = 0.07869 0.04587
#
# Static dielectric constant tensor:
#      x y z
#    x 1.711030 0.000000 0.000000 
#    y 0.000000 1.649720 0.000000 
#    z 0.000000 0.000000 1.706710 
# 
# From -- ./inp_files/8332.got.cif
#   From: 2010.05.17/outbox.cif.g08.bks.cpg/sg68_5_cif.got.tgz:8332.got - 2010.06.03 18:57:09.
