data_PCOD9510653
_publ_section_title
;
Structure prediction by ZEFSAII (Michael W. Deem and Ramdas Pophale) SiO2 
 PCOD9510653
Probable space group: C C C A
;
_chemical_formula_sum "Si O2"
_cell_formula_units_Z 56
_cell_length_a 11.007606
_cell_length_b 18.871324
_cell_length_c 12.044299
_cell_angle_alpha 90.000000
_cell_angle_beta 90.000000
_cell_angle_gamma 90.000000
_cell_volume 2501.939339
_symmetry_space_group_name_H-M "C C C A"
_symmetry_group_IT_number 68
_space_group.IT_coordinate_system_code '2'
_symmetry_cell_setting 'orthorhombic'
loop_
_space_group_symop_operation_xyz
x,y,z
-x,1/2-y,z
x,1/2-y,1/2-z
-x,y,1/2-z
-x,-y,-z
x,1/2+y,-z
-x,1/2+y,1/2+z
x,-y,1/2+z
1/2+x,1/2+y,z
1/2-x,-y,z
1/2+x,-y,1/2-z
1/2-x,1/2+y,1/2-z
1/2-x,1/2-y,-z
1/2+x,y,-z
1/2-x,y,1/2+z
1/2+x,1/2-y,1/2+z
loop_
_atom_site_type_symbol
_atom_site_label
_atom_site_fract_x
_atom_site_fract_y
_atom_site_fract_z
Si Si1 0.292252 0.750000 0.750000
Si Si2 0.450111 0.069402 0.441795
Si Si3 0.000000 0.350433 0.750000
Si Si4 0.250000 0.500000 0.216187
Si Si5 0.383904 0.867964 0.169626
O O1 0.390776 0.804325 0.801535
O O2 0.205862 0.698800 0.819620
O O3 0.543607 0.102886 0.353388
O O4 0.420174 0.121449 0.542218
O O5 0.500000 0.000000 0.500000
O O6 0.339020 0.043933 0.364975
O O7 0.322689 0.558527 0.287436
O O8 0.500000 0.856404 0.250000
#
# Coordination Sequence:
#
# PCOD9510653 Si02
#       5
#     8  16   8   8  16
#     4  11  27  50  68 100 153 199 240 298 368 455
#     4  12  25  45  79 106 145 189 249 317 376 439
#     4  11  26  52  70 106 146 193 252 299 376 452
#     4  12  24  46  72 112 144 190 250 318 376 440
#     4  12  26  47  72 110 149 191 251 304 377 450
#
# _framework density 22.382636999999999
#
# number of rings (size 3 to 8) (size 9 to 14) (size 15 to 20)
#    0.000    0.286    5.714    3.000    4.000    1.143 
#   10.286    0.000    0.000    0.000    0.000    0.000 
#    0.000    0.000    0.000    0.000    0.000    0.000 
#
# Total GULP energy -156449.974633 kJ/mol
# GULP energy per Si atom -5587.499094 kJ/mol
# Density = 2.233169 g / cm^3
# Si number density = 22.382637 Si / 1000 Ang^3
#
#
#
# Elastic Constant Matrix: (Units=GPa)
#
#
# Indices 1 2 3 4 5 6 
#
# 1 92.9601 39.2349 45.2340 0.0000 0.0000 0.0000
# 2 39.2349 126.6439 57.7884 0.0000 0.0000 0.0000
# 3 45.2340 57.7884 170.0461 0.0000 0.0000 0.0000
# 4 0.0000 0.0000 0.0000 -1.9788 0.0000 0.0000
# 5 0.0000 0.0000 0.0000 0.0000 34.5052 0.0000
# 6 0.0000 0.0000 0.0000 0.0000 0.0000 60.7362
#
#
#
# Elastic Compliance Matrix: (Units=1/GPa)
#
#
# Indices 1 2 3 4 5 6 
#
# 1 0.013226 -0.002950 -0.002516 0.000000 0.000000 0.000000
# 2 -0.002950 0.010003 -0.002615 0.000000 0.000000 0.000000
# 3 -0.002516 -0.002615 0.007439 0.000000 0.000000 0.000000
# 4 0.000000 0.000000 0.000000 -0.505368 0.000000 0.000000
# 5 0.000000 0.000000 0.000000 0.000000 0.028981 0.000000
# 6 0.000000 0.000000 0.000000 0.000000 0.000000 0.016465
#
#
# Mechanical properties :
#
#
# Convention : Reuss Voigt Hill
#
# Bulk Modulus (GPa) = 68.93009 74.90718 71.91863
# Shear Modulus (GPa) = -12.24719 35.14540 11.44911
#
# Velocity S-wave (km/s) = -2.34171 3.96688 2.26413
# Velocity P-wave (km/s) = 4.85300 7.38382 6.24790
#
# Compressibility (1/GPa) = 0.01450745
#
# Stress axis : x y z
#
# Youngs Moduli (GPa) = 75.60590 99.96886 134.43277
#
# Poissons Ratio (x) = 0.29486 0.33823
# Poissons Ratio (y) = 0.22300 0.35152
# Poissons Ratio (z) = 0.19022 0.26140
#
# Static dielectric constant tensor:
#      x y z
#    x 2.072030 0.000000 0.000000 
#    y 0.000000 1.927590 0.000000 
#    z 0.000000 0.000000 1.765380 
# 
# From -- ./inp_files/11449.got.cif
#   From: 2010.05.17/outbox.cif.g08.bks.cpg/sg68_6_cif.got.tgz:11449.got - 2010.06.03 18:57:09.
