data_PCOD9510074
_publ_section_title
;
Structure prediction by ZEFSAII (Michael W. Deem and Ramdas Pophale) SiO2 
 PCOD9510074
Probable space group: C C C A
;
_chemical_formula_sum "Si O2"
_cell_formula_units_Z 72
_cell_length_a 8.184497
_cell_length_b 31.990543
_cell_length_c 11.939085
_cell_angle_alpha 90.000000
_cell_angle_beta 90.000000
_cell_angle_gamma 90.000000
_cell_volume 3125.968877
_symmetry_space_group_name_H-M "C C C A"
_symmetry_group_IT_number 68
_space_group.IT_coordinate_system_code '2'
_symmetry_cell_setting 'orthorhombic'
loop_
_space_group_symop_operation_xyz
x,y,z
-x,1/2-y,z
x,1/2-y,1/2-z
-x,y,1/2-z
-x,-y,-z
x,1/2+y,-z
-x,1/2+y,1/2+z
x,-y,1/2+z
1/2+x,1/2+y,z
1/2-x,-y,z
1/2+x,-y,1/2-z
1/2-x,1/2+y,1/2-z
1/2-x,1/2-y,-z
1/2+x,y,-z
1/2-x,y,1/2+z
1/2+x,1/2-y,1/2+z
loop_
_atom_site_type_symbol
_atom_site_label
_atom_site_fract_x
_atom_site_fract_y
_atom_site_fract_z
Si Si1 0.625416 0.967269 0.451333
Si Si2 0.288657 0.109083 0.394451
Si Si3 0.636628 0.779451 0.423101
Si Si4 0.092623 0.337993 0.921905
Si Si5 0.500000 0.411173 0.750000
O O1 0.686750 0.937262 0.552521
O O2 0.551656 0.937845 0.357249
O O3 0.500000 0.000000 0.500000
O O4 0.750000 0.000000 0.396378
O O5 0.199941 0.134345 0.493663
O O6 0.462385 0.130263 0.368309
O O7 0.163506 0.111715 0.291120
O O8 0.500000 0.750000 0.366330
O O9 0.750000 0.750000 0.500000
O O10 0.772029 0.808518 0.360463
O O11 0.525768 0.808250 0.504138
#
# Coordination Sequence:
#
# PCOD9510074 Si02
#       5
#    16  16  16  16   8
#     4  12  25  44  63  89 125 163 220 286 336 409
#     4  11  21  41  59  92 125 172 221 274 335 401
#     4   8  14  26  52  94 126 166 218 250 315 392
#     4   9  17  32  58  83 141 162 207 286 306 382
#     4  12  26  40  68  86 125 172 228 266 367 408
#
# _framework density 23.032858999999998
#
# number of rings (size 3 to 8) (size 9 to 14) (size 15 to 20)
#    0.000    1.778    4.444    0.000    3.111    0.000 
#    0.000    0.000    0.000    0.000    0.000   19.444 
#   20.000    0.000    0.000    0.000    0.000    5.778 
#
# Total GULP energy -200690.599821 kJ/mol
# GULP energy per Si atom -5574.738884 kJ/mol
# Density = 2.298044 g / cm^3
# Si number density = 23.032859 Si / 1000 Ang^3
#
#
#
# Elastic Constant Matrix: (Units=GPa)
#
#
# Indices 1 2 3 4 5 6 
#
# 1 187.9711 70.0616 40.6402 0.0000 0.0000 0.0000
# 2 70.0616 119.0304 23.0554 0.0000 0.0000 0.0000
# 3 40.6402 23.0554 69.4956 0.0000 0.0000 0.0000
# 4 0.0000 0.0000 0.0000 -12.0103 0.0000 0.0000
# 5 0.0000 0.0000 0.0000 0.0000 30.8787 0.0000
# 6 0.0000 0.0000 0.0000 0.0000 0.0000 85.0783
#
#
#
# Elastic Compliance Matrix: (Units=1/GPa)
#
#
# Indices 1 2 3 4 5 6 
#
# 1 0.007382 -0.003750 -0.003073 0.000000 0.000000 0.000000
# 2 -0.003750 0.010883 -0.001418 0.000000 0.000000 0.000000
# 3 -0.003073 -0.001418 0.016657 0.000000 0.000000 0.000000
# 4 0.000000 0.000000 0.000000 -0.083262 0.000000 0.000000
# 5 0.000000 0.000000 0.000000 0.000000 0.032385 0.000000
# 6 0.000000 0.000000 0.000000 0.000000 0.000000 0.011754
#
#
# Mechanical properties :
#
#
# Convention : Reuss Voigt Hill
#
# Bulk Modulus (GPa) = 54.22704 71.55684 62.89194
# Shear Modulus (GPa) = 271.35715 36.97201 154.16458
#
# Velocity S-wave (km/s) = 10.86595 4.01082 8.19010
# Velocity P-wave (km/s) = 13.45435 7.25146 10.80748
#
# Compressibility (1/GPa) = 0.01844098
#
# Stress axis : x y z
#
# Youngs Moduli (GPa) = 135.46440 91.88661 60.03598
#
# Poissons Ratio (x) = 0.34456 0.18448
# Poissons Ratio (y) = 0.50797 0.08511
# Poissons Ratio (z) = 0.41627 0.13026
#
# Static dielectric constant tensor:
#      x y z
#    x 1.876940 0.000000 0.000000 
#    y 0.000000 1.851850 0.000000 
#    z 0.000000 0.000000 0.811880 
# 
# From -- ./inp_files/19577.got.cif
#   From: 2010.05.17/outbox.cif.g08.bks.cpg/sg68_10_cif.got.tgz:19577.got - 2010.06.03 18:57:09.
