data_PCOD9510960
_publ_section_title
;
Structure prediction by ZEFSAII (Michael W. Deem and Ramdas Pophale) SiO2 
 PCOD9510960
Probable space group: C C C A
;
_chemical_formula_sum "Si O2"
_cell_formula_units_Z 46
_cell_length_a 21.000000
_cell_length_b 24.000000
_cell_length_c 9.000000
_cell_angle_alpha 90.000000
_cell_angle_beta 90.000000
_cell_angle_gamma 90.000000
_cell_volume 4536.000000
_symmetry_space_group_name_H-M "C C C A"
_symmetry_group_IT_number 68
_space_group.IT_coordinate_system_code '2'
_symmetry_cell_setting 'orthorhombic'
loop_
_space_group_symop_operation_xyz
x,y,z
-x,1/2-y,z
x,1/2-y,1/2-z
-x,y,1/2-z
-x,-y,-z
x,1/2+y,-z
-x,1/2+y,1/2+z
x,-y,1/2+z
1/2+x,1/2+y,z
1/2-x,-y,z
1/2+x,-y,1/2-z
1/2-x,1/2+y,1/2-z
1/2-x,1/2-y,-z
1/2+x,y,-z
1/2-x,y,1/2+z
1/2+x,1/2-y,1/2+z
loop_
_atom_site_type_symbol
_atom_site_label
_atom_site_fract_x
_atom_site_fract_y
_atom_site_fract_z
Si Si1 0.500000 0.992552 0.750000
Si Si2 0.109194 0.327458 0.396848
Si Si3 0.200498 0.783099 0.399471
Si Si4 0.771779 0.618508 0.760064
Si Si5 0.000000 0.750000 0.750000
Si Si6 0.194789 0.042827 0.517034
Si Si7 0.581373 0.953194 0.495787
O O1 0.554578 0.958086 0.663663
O O2 0.472675 0.031190 0.621689
O O3 0.132356 0.287065 0.526360
O O4 0.175689 0.338696 0.306367
O O5 0.097642 0.389583 0.459153
O O6 0.050261 0.294767 0.323512
O O7 0.195918 0.750000 0.250000
O O8 0.250000 0.750000 0.500000
O O9 0.225683 0.844823 0.362742
O O10 0.726391 0.582145 0.647685
O O11 0.812887 0.579216 0.868701
O O12 0.250000 0.000000 0.479523
O O13 0.134747 0.001142 0.536367
#
# Coordination Sequence:
#
# PCOD9510960 Si02
#       7
#     8  16  16  16   4  16  16
#     4  10  25  46  66  96 144 194 233 278 332 442
#     4  12  25  46  73 101 139 187 246 294 350 423
#     4  12  23  44  69 102 144 184 237 304 370 416
#     4  12  23  41  70 109 147 182 227 299 371 421
#     4  12  30  52  74  96 140 200 256 290 346 428
#     4  12  24  38  69 111 148 178 226 292 367 436
#     4  11  24  45  70  99 144 188 237 286 353 426
#
# _framework density 10.141093
#
# number of rings (size 3 to 8) (size 9 to 14) (size 15 to 20)
#    0.000    0.348    5.217    3.130    4.870    1.391 
#    3.130    0.000    0.000    0.000    0.000    0.000 
#    0.000    0.000    0.000    0.000    0.000    0.000 
#
# Total GULP energy -256277.160921 kJ/mol
# GULP energy per Si atom -5571.242629 kJ/mol
# Density = 1.011801 g / cm^3
# Si number density = 10.141093 Si / 1000 Ang^3
#
#
#
# Elastic Constant Matrix: (Units=GPa)
#
#
# Indices 1 2 3 4 5 6 
#
# 1 105.6460 45.0299 47.8964 0.0000 0.0000 0.0000
# 2 45.0299 107.5583 47.7466 0.0000 0.0000 0.0000
# 3 47.8964 47.7466 104.8774 0.0000 0.0000 0.0000
# 4 0.0000 0.0000 0.0000 15.2440 0.0000 0.0000
# 5 0.0000 0.0000 0.0000 0.0000 45.3665 0.0000
# 6 0.0000 0.0000 0.0000 0.0000 0.0000 32.5202
#
#
#
# Elastic Compliance Matrix: (Units=1/GPa)
#
#
# Indices 1 2 3 4 5 6 
#
# 1 0.012905 -0.003492 -0.004304 0.000000 0.000000 0.000000
# 2 -0.003492 0.012597 -0.004140 0.000000 0.000000 0.000000
# 3 -0.004304 -0.004140 0.013385 0.000000 0.000000 0.000000
# 4 0.000000 0.000000 0.000000 0.065600 0.000000 0.000000
# 5 0.000000 0.000000 0.000000 0.000000 0.022043 0.000000
# 6 0.000000 0.000000 0.000000 0.000000 0.000000 0.030750
#
#
# Mechanical properties :
#
#
# Convention : Reuss Voigt Hill
#
# Bulk Modulus (GPa) = 66.59871 66.60304 66.60087
# Shear Modulus (GPa) = 26.85890 30.45338 28.65614
#
# Velocity S-wave (km/s) = 3.64299 3.87910 3.76290
# Velocity P-wave (km/s) = 7.11354 7.27824 7.19636
#
# Compressibility (1/GPa) = 0.01501531
#
# Stress axis : x y z
#
# Youngs Moduli (GPa) = 77.48724 79.38251 74.70904
#
# Poissons Ratio (x) = 0.27724 0.32153
# Poissons Ratio (y) = 0.27062 0.30930
# Poissons Ratio (z) = 0.33349 0.32865
#
# Static dielectric constant tensor:
#      x y z
#    x 1.712040 0.000000 0.000000 
#    y 0.000000 1.809480 0.000000 
#    z 0.000000 0.000000 1.973140 
# 
# From -- ./inp_files/7174.got.cif
#   From: 2010.05.17/outbox.ucp.g08.bks.cvg/sg68_4_cif.got.tgz:7174.got - 2010.06.11 16:49:25.
