data_PCOD9510668
_publ_section_title
;
Structure prediction by ZEFSAII (Michael W. Deem and Ramdas Pophale) SiO2 
 PCOD9510668
Probable space group: C C C A
;
_chemical_formula_sum "Si O2"
_cell_formula_units_Z 48
_cell_length_a 20.010351
_cell_length_b 7.454384
_cell_length_c 11.830693
_cell_angle_alpha 90.000000
_cell_angle_beta 90.000000
_cell_angle_gamma 90.000000
_cell_volume 1764.723432
_symmetry_space_group_name_H-M "C C C A"
_symmetry_group_IT_number 68
_space_group.IT_coordinate_system_code '2'
_symmetry_cell_setting 'orthorhombic'
loop_
_space_group_symop_operation_xyz
x,y,z
-x,1/2-y,z
x,1/2-y,1/2-z
-x,y,1/2-z
-x,-y,-z
x,1/2+y,-z
-x,1/2+y,1/2+z
x,-y,1/2+z
1/2+x,1/2+y,z
1/2-x,-y,z
1/2+x,-y,1/2-z
1/2-x,1/2+y,1/2-z
1/2-x,1/2-y,-z
1/2+x,y,-z
1/2-x,y,1/2+z
1/2+x,1/2-y,1/2+z
loop_
_atom_site_type_symbol
_atom_site_label
_atom_site_fract_x
_atom_site_fract_y
_atom_site_fract_z
Si Si1 0.655782 0.963330 0.261451
Si Si2 0.950286 0.394516 0.083469
Si Si3 0.180104 0.769146 0.437900
O O1 0.670639 0.750000 0.250000
O O2 0.579916 0.985946 0.305356
O O3 0.683945 0.090703 0.360434
O O4 0.674379 0.061942 0.146420
O O5 0.000000 0.250000 0.127379
O O6 0.886423 0.300614 0.016738
O O7 0.000000 0.500000 0.000000
O O8 0.250000 0.750000 0.500000
#
# Coordination Sequence:
#
# PCOD9510668 Si02
#       3
#    16  16  16
#     4  11  27  55  88 131 175 245 316 378 482 574
#     4  12  25  52  86 128 181 242 303 388 475 563
#     4  11  28  57  86 127 189 240 313 396 468 567
#
# _framework density 27.199731
#
# number of rings (size 3 to 8) (size 9 to 14) (size 15 to 20)
#    0.000    0.667    3.333    2.000    0.000    7.333 
#   12.000    0.000    0.000    0.000    0.000    0.000 
#    0.000    0.000    0.000    0.000    0.000    0.000 
#
# Total GULP energy -134132.102920 kJ/mol
# GULP energy per Si atom -5588.837622 kJ/mol
# Density = 2.713782 g / cm^3
# Si number density = 27.199731 Si / 1000 Ang^3
#
#
#
# Elastic Constant Matrix: (Units=GPa)
#
#
# Indices 1 2 3 4 5 6 
#
# 1 254.6759 81.8756 125.1331 0.0000 0.0000 0.0000
# 2 81.8756 194.6667 82.7796 0.0000 0.0000 0.0000
# 3 125.1331 82.7796 168.3420 0.0000 0.0000 0.0000
# 4 0.0000 0.0000 0.0000 19.3891 0.0000 0.0000
# 5 0.0000 0.0000 0.0000 0.0000 66.8163 0.0000
# 6 0.0000 0.0000 0.0000 0.0000 0.0000 63.3115
#
#
#
# Elastic Compliance Matrix: (Units=1/GPa)
#
#
# Indices 1 2 3 4 5 6 
#
# 1 0.006290 -0.000831 -0.004267 0.000000 0.000000 0.000000
# 2 -0.000831 0.006605 -0.002630 0.000000 0.000000 0.000000
# 3 -0.004267 -0.002630 0.010405 0.000000 0.000000 0.000000
# 4 0.000000 0.000000 0.000000 0.051575 0.000000 0.000000
# 5 0.000000 0.000000 0.000000 0.000000 0.014966 0.000000
# 6 0.000000 0.000000 0.000000 0.000000 0.000000 0.015795
#
#
# Mechanical properties :
#
#
# Convention : Reuss Voigt Hill
#
# Bulk Modulus (GPa) = 127.48389 133.02901 130.25645
# Shear Modulus (GPa) = 40.41751 51.76313 46.09032
#
# Velocity S-wave (km/s) = 3.85899 4.36716 4.12091
# Velocity P-wave (km/s) = 8.17478 8.62808 8.40449
#
# Compressibility (1/GPa) = 0.00784413
#
# Stress axis : x y z
#
# Youngs Moduli (GPa) = 158.97309 151.40114 96.10377
#
# Poissons Ratio (x) = 0.12584 0.41008
# Poissons Ratio (y) = 0.13213 0.25276
# Poissons Ratio (z) = 0.67835 0.39819
#
# Static dielectric constant tensor:
#      x y z
#    x -1.824550 0.000000 0.000000 
#    y 0.000000 -0.868270 0.000000 
#    z 0.000000 0.000000 2.224090 
# 
# From -- ./inp_files/15997.got.cif
#   From: 2010.05.17/outbox.cif.g08.bks.cpg/sg68_8_cif.got.tgz:15997.got - 2010.06.03 18:57:09.
