data_PCOD9510263
_publ_section_title
;
Structure prediction by ZEFSAII (Michael W. Deem and Ramdas Pophale) SiO2 
 PCOD9510263
Probable space group: C C C A
;
_chemical_formula_sum "Si O2"
_cell_formula_units_Z 112
_cell_length_a 25.344890
_cell_length_b 15.665966
_cell_length_c 13.920204
_cell_angle_alpha 90.000000
_cell_angle_beta 90.000000
_cell_angle_gamma 90.000000
_cell_volume 5527.047414
_symmetry_space_group_name_H-M "C C C A"
_symmetry_group_IT_number 68
_space_group.IT_coordinate_system_code '2'
_symmetry_cell_setting 'orthorhombic'
loop_
_space_group_symop_operation_xyz
x,y,z
-x,1/2-y,z
x,1/2-y,1/2-z
-x,y,1/2-z
-x,-y,-z
x,1/2+y,-z
-x,1/2+y,1/2+z
x,-y,1/2+z
1/2+x,1/2+y,z
1/2-x,-y,z
1/2+x,-y,1/2-z
1/2-x,1/2+y,1/2-z
1/2-x,1/2-y,-z
1/2+x,y,-z
1/2-x,y,1/2+z
1/2+x,1/2-y,1/2+z
loop_
_atom_site_type_symbol
_atom_site_label
_atom_site_fract_x
_atom_site_fract_y
_atom_site_fract_z
Si Si1 0.384946 0.424207 0.419683
Si Si2 0.188196 0.175504 0.083581
Si Si3 0.996387 0.352144 0.636369
Si Si4 0.286382 0.133792 0.959273
Si Si5 0.270215 0.910792 0.257498
Si Si6 0.103556 0.102149 0.967195
Si Si7 0.344370 0.348834 0.231264
O O1 0.442105 0.380457 0.413685
O O2 0.337093 0.377349 0.474092
O O3 0.389970 0.514625 0.473356
O O4 0.366769 0.415127 0.309221
O O5 0.210275 0.270725 0.082868
O O6 0.188629 0.133205 0.187596
O O7 0.232107 0.124927 0.019048
O O8 0.130441 0.171335 0.037628
O O9 0.044706 0.386026 0.572110
O O10 0.000000 0.250000 0.637835
O O11 0.000000 0.379734 0.750000
O O12 0.289526 0.074806 0.865739
O O13 0.218500 0.851671 0.262066
O O14 0.250000 0.000000 0.215902
O O15 0.137838 0.116529 0.871183
O O16 0.362522 0.250000 0.250000
#
# Coordination Sequence:
#
# PCOD9510263 Si02
#       7
#    16  16  16  16  16  16  16
#     4  12  25  41  66 101 136 167 214 281 337 386
#     4  11  23  39  63  93 131 176 221 265 326 394
#     4  11  23  44  74  99 124 168 227 277 327 394
#     4  11  23  39  63  93 131 176 221 265 326 394
#     4  12  24  38  61  94 135 176 220 275 333 389
#     4  12  25  41  66 101 136 167 214 281 337 386
#     4  12  22  41  70  98 130 177 236 274 314 396
#
# _framework density 20.263985000000002
#
# number of rings (size 3 to 8) (size 9 to 14) (size 15 to 20)
#    0.000    0.429    4.286    6.000    0.000    0.000 
#    0.000    0.000    0.000    0.000    0.000    4.000 
#    0.000    0.000    0.000    0.000    0.000    0.000 
#
# Total GULP energy -312799.963913 kJ/mol
# GULP energy per Si atom -5585.713641 kJ/mol
# Density = 2.021786 g / cm^3
# Si number density = 20.263985 Si / 1000 Ang^3
#
#
#
# Elastic Constant Matrix: (Units=GPa)
#
#
# Indices 1 2 3 4 5 6 
#
# 1 108.4851 -0.4917 25.4765 0.0000 0.0000 0.0000
# 2 -0.4917 64.2868 17.5959 0.0000 0.0000 0.0000
# 3 25.4765 17.5959 88.8873 0.0000 0.0000 0.0000
# 4 0.0000 0.0000 0.0000 29.2073 0.0000 0.0000
# 5 0.0000 0.0000 0.0000 0.0000 28.6842 0.0000
# 6 0.0000 0.0000 0.0000 0.0000 0.0000 26.3070
#
#
#
# Elastic Compliance Matrix: (Units=1/GPa)
#
#
# Indices 1 2 3 4 5 6 
#
# 1 0.009933 0.000904 -0.003026 0.000000 0.000000 0.000000
# 2 0.000904 0.016529 -0.003531 0.000000 0.000000 0.000000
# 3 -0.003026 -0.003531 0.012816 0.000000 0.000000 0.000000
# 4 0.000000 0.000000 0.000000 0.034238 0.000000 0.000000
# 5 0.000000 0.000000 0.000000 0.000000 0.034862 0.000000
# 6 0.000000 0.000000 0.000000 0.000000 0.000000 0.038013
#
#
# Mechanical properties :
#
#
# Convention : Reuss Voigt Hill
#
# Bulk Modulus (GPa) = 35.74985 38.53564 37.14275
# Shear Modulus (GPa) = 29.93645 31.44492 30.69068
#
# Velocity S-wave (km/s) = 3.84777 3.94352 3.89594
# Velocity P-wave (km/s) = 6.11725 6.30818 6.21345
#
# Compressibility (1/GPa) = 0.02797215
#
# Stress axis : x y z
#
# Youngs Moduli (GPa) = 100.67929 60.50077 78.02472
#
# Poissons Ratio (x) = -0.05470 0.23609
# Poissons Ratio (y) = -0.09103 0.27551
# Poissons Ratio (z) = 0.30464 0.21364
#
# Static dielectric constant tensor:
#      x y z
#    x 1.734250 0.000000 0.000000 
#    y 0.000000 1.737340 0.000000 
#    z 0.000000 0.000000 1.731070 
# 
# From -- ./inp_files/25453.got.cif
#   From: 2010.05.17/outbox.cif.g08.bks.cpg/sg68_13_cif.got.tgz:25453.got - 2010.06.03 18:57:09.
