data_PCOD9510783
_publ_section_title
;
Structure prediction by ZEFSAII (Michael W. Deem and Ramdas Pophale) SiO2 
 PCOD9510783
Probable space group: C C C A
;
_chemical_formula_sum "Si O2"
_cell_formula_units_Z 72
_cell_length_a 25.183299
_cell_length_b 5.530746
_cell_length_c 23.535236
_cell_angle_alpha 90.000000
_cell_angle_beta 90.000000
_cell_angle_gamma 90.000000
_cell_volume 3278.044866
_symmetry_space_group_name_H-M "C C C A"
_symmetry_group_IT_number 68
_space_group.IT_coordinate_system_code '2'
_symmetry_cell_setting 'orthorhombic'
loop_
_space_group_symop_operation_xyz
x,y,z
-x,1/2-y,z
x,1/2-y,1/2-z
-x,y,1/2-z
-x,-y,-z
x,1/2+y,-z
-x,1/2+y,1/2+z
x,-y,1/2+z
1/2+x,1/2+y,z
1/2-x,-y,z
1/2+x,-y,1/2-z
1/2-x,1/2+y,1/2-z
1/2-x,1/2-y,-z
1/2+x,y,-z
1/2-x,y,1/2+z
1/2+x,1/2-y,1/2+z
loop_
_atom_site_type_symbol
_atom_site_label
_atom_site_fract_x
_atom_site_fract_y
_atom_site_fract_z
Si Si1 0.422729 0.750000 0.250000
Si Si2 0.951302 0.431234 0.849888
Si Si3 0.750000 0.500000 0.713605
Si Si4 0.000000 0.250000 0.053153
Si Si5 0.639190 0.052869 0.345017
Si Si6 0.388583 0.912265 0.029546
O O1 0.453872 0.579171 0.207699
O O2 0.388434 0.589109 0.293241
O O3 0.894499 0.299707 0.851687
O O4 0.000000 0.250000 0.848995
O O5 0.963384 0.590630 0.904609
O O6 0.739611 0.250000 0.750000
O O7 0.699746 0.567688 0.674299
O O8 0.953547 0.412455 0.025470
O O9 0.630470 0.922480 0.405274
O O10 0.370874 0.663681 0.999678
#
# Coordination Sequence:
#
# PCOD9510783 Si02
#       6
#     8  16   8   8  16  16
#     4  12  24  43  68 100 154 188 235 314 380 458
#     4  12  24  42  67 110 153 197 242 309 392 466
#     4  12  28  52  82 116 150 200 254 324 388 464
#     4  12  24  43  70 102 152 203 260 306 376 462
#     4  12  27  47  75 108 148 197 258 314 389 455
#     4  12  27  47  74 105 151 203 258 315 374 453
#
# _framework density 21.964312
#
# number of rings (size 3 to 8) (size 9 to 14) (size 15 to 20)
#    0.000    0.000    5.556    4.000    0.000    6.667 
#    0.000    1.111    0.000    0.000    0.000    0.000 
#    0.000    0.000    0.000    0.000    0.000    0.000 
#
# Total GULP energy -201457.995019 kJ/mol
# GULP energy per Si atom -5596.055417 kJ/mol
# Density = 2.191432 g / cm^3
# Si number density = 21.964312 Si / 1000 Ang^3
#
#
#
# Elastic Constant Matrix: (Units=GPa)
#
#
# Indices 1 2 3 4 5 6 
#
# 1 118.5450 40.4572 27.7894 0.0000 0.0000 0.0000
# 2 40.4572 125.6268 49.5066 0.0000 0.0000 0.0000
# 3 27.7894 49.5066 145.9022 0.0000 0.0000 0.0000
# 4 0.0000 0.0000 0.0000 36.0649 0.0000 0.0000
# 5 0.0000 0.0000 0.0000 0.0000 35.1876 0.0000
# 6 0.0000 0.0000 0.0000 0.0000 0.0000 26.3995
#
#
#
# Elastic Compliance Matrix: (Units=1/GPa)
#
#
# Indices 1 2 3 4 5 6 
#
# 1 0.009578 -0.002731 -0.000898 0.000000 0.000000 0.000000
# 2 -0.002731 0.009967 -0.002862 0.000000 0.000000 0.000000
# 3 -0.000898 -0.002862 0.007996 0.000000 0.000000 0.000000
# 4 0.000000 0.000000 0.000000 0.027728 0.000000 0.000000
# 5 0.000000 0.000000 0.000000 0.000000 0.028419 0.000000
# 6 0.000000 0.000000 0.000000 0.000000 0.000000 0.037880
#
#
# Mechanical properties :
#
#
# Convention : Reuss Voigt Hill
#
# Bulk Modulus (GPa) = 68.67882 69.50892 69.09387
# Shear Modulus (GPa) = 35.86748 37.68513 36.77630
#
# Velocity S-wave (km/s) = 4.04541 4.14665 4.09634
# Velocity P-wave (km/s) = 7.29086 7.39197 7.34159
#
# Compressibility (1/GPa) = 0.01456053
#
# Stress axis : x y z
#
# Youngs Moduli (GPa) = 104.40581 100.32782 125.06290
#
# Poissons Ratio (x) = 0.27397 0.11227
# Poissons Ratio (y) = 0.28511 0.35792
# Poissons Ratio (z) = 0.09372 0.28713
#
# Static dielectric constant tensor:
#      x y z
#    x 1.798500 0.000000 0.000000 
#    y 0.000000 1.910150 0.000000 
#    z 0.000000 0.000000 1.797520 
# 
# From -- ./inp_files/47159.got.cif
#   From: 2010.05.17/outbox.cif.g08.bks.cpg/sg68_24_cif.got.tgz:47159.got - 2010.06.03 18:57:09.
