data_PCOD9510589
_publ_section_title
;
Structure prediction by ZEFSAII (Michael W. Deem and Ramdas Pophale) SiO2 
 PCOD9510589
Probable space group: C C C A
;
_chemical_formula_sum "Si O2"
_cell_formula_units_Z 72
_cell_length_a 13.364739
_cell_length_b 25.876661
_cell_length_c 8.554579
_cell_angle_alpha 90.000000
_cell_angle_beta 90.000000
_cell_angle_gamma 90.000000
_cell_volume 2958.471293
_symmetry_space_group_name_H-M "C C C A"
_symmetry_group_IT_number 68
_space_group.IT_coordinate_system_code '2'
_symmetry_cell_setting 'orthorhombic'
loop_
_space_group_symop_operation_xyz
x,y,z
-x,1/2-y,z
x,1/2-y,1/2-z
-x,y,1/2-z
-x,-y,-z
x,1/2+y,-z
-x,1/2+y,1/2+z
x,-y,1/2+z
1/2+x,1/2+y,z
1/2-x,-y,z
1/2+x,-y,1/2-z
1/2-x,1/2+y,1/2-z
1/2-x,1/2-y,-z
1/2+x,y,-z
1/2-x,y,1/2+z
1/2+x,1/2-y,1/2+z
loop_
_atom_site_type_symbol
_atom_site_label
_atom_site_fract_x
_atom_site_fract_y
_atom_site_fract_z
Si Si1 0.250000 0.000000 0.740260
Si Si2 0.822107 0.199060 0.341574
Si Si3 0.395028 0.593353 0.174865
Si Si4 0.405411 0.423587 0.330630
Si Si5 0.614669 0.318070 0.303183
O O1 0.184843 0.953371 0.815560
O O2 0.327655 0.967890 0.641502
O O3 0.859774 0.250000 0.250000
O O4 0.858075 0.145611 0.260634
O O5 0.701152 0.199553 0.317871
O O6 0.856945 0.198821 0.521489
O O7 0.500000 0.577215 0.250000
O O8 0.418865 0.605061 0.993919
O O9 0.500000 0.449135 0.250000
O O10 0.376101 0.380279 0.204851
O O11 0.500000 0.306450 0.250000
#
# Coordination Sequence:
#
# PCOD9510589 Si02
#       5
#     8  16  16  16  16
#     4  12  26  44  80 106 156 198 268 328 406 470
#     4  12  27  51  82 118 162 215 266 329 402 482
#     4  12  27  48  76 112 156 206 265 329 404 483
#     4  11  25  46  74 111 151 201 257 325 405 477
#     4  11  25  49  82 119 165 208 269 332 398 479
#
# _framework density 24.336893
#
# number of rings (size 3 to 8) (size 9 to 14) (size 15 to 20)
#    0.000    0.444    2.222    6.000    0.000    8.000 
#    0.000    5.556    0.000    0.000    0.000    0.000 
#    0.000    0.000    0.000    0.000    0.000    0.000 
#
# Total GULP energy -201172.052856 kJ/mol
# GULP energy per Si atom -5588.112579 kJ/mol
# Density = 2.428150 g / cm^3
# Si number density = 24.336893 Si / 1000 Ang^3
#
#
#
# Elastic Constant Matrix: (Units=GPa)
#
#
# Indices 1 2 3 4 5 6 
#
# 1 167.2677 60.4359 84.3354 0.0000 0.0000 0.0000
# 2 60.4359 175.8945 65.3131 0.0000 0.0000 0.0000
# 3 84.3354 65.3131 192.3933 0.0000 0.0000 0.0000
# 4 0.0000 0.0000 0.0000 -83.3907 0.0000 0.0000
# 5 0.0000 0.0000 0.0000 0.0000 8.4684 0.0000
# 6 0.0000 0.0000 0.0000 0.0000 0.0000 -20.4434
#
#
#
# Elastic Compliance Matrix: (Units=1/GPa)
#
#
# Indices 1 2 3 4 5 6 
#
# 1 0.008083 -0.001672 -0.002975 0.000000 0.000000 0.000000
# 2 -0.001672 0.006851 -0.001593 0.000000 0.000000 0.000000
# 3 -0.002975 -0.001593 0.007043 0.000000 0.000000 0.000000
# 4 0.000000 0.000000 0.000000 -0.011992 0.000000 0.000000
# 5 0.000000 0.000000 0.000000 0.000000 0.118087 0.000000
# 6 0.000000 0.000000 0.000000 0.000000 0.000000 -0.048916
#
#
# Mechanical properties :
#
#
# Convention : Reuss Voigt Hill
#
# Bulk Modulus (GPa) = 105.31051 106.19158 105.75104
# Shear Modulus (GPa) = 52.74123 2.62492 27.68308
#
# Velocity S-wave (km/s) = 4.66030 1.03967 3.37633
# Velocity P-wave (km/s) = 8.50433 6.72086 7.66465
#
# Compressibility (1/GPa) = 0.00949573
#
# Stress axis : x y z
#
# Youngs Moduli (GPa) = 123.71858 145.95839 141.99216
#
# Poissons Ratio (x) = 0.24410 0.42248
# Poissons Ratio (y) = 0.20691 0.22616
# Poissons Ratio (z) = 0.36811 0.23248
#
# Static dielectric constant tensor:
#      x y z
#    x 2.016120 0.000000 0.000000 
#    y 0.000000 1.932270 0.000000 
#    z 0.000000 0.000000 1.907900 
# 
# From -- ./inp_files/5219.got.cif
#   From: 2010.05.17/outbox.cif.g08.bks.cpg/sg68_3_cif.got.tgz:5219.got - 2010.06.03 18:57:09.
