data_PCOD9510801
_publ_section_title
;
Structure prediction by ZEFSAII (Michael W. Deem and Ramdas Pophale) SiO2 
 PCOD9510801
Probable space group: C C C A
;
_chemical_formula_sum "Si O2"
_cell_formula_units_Z 88
_cell_length_a 15.405324
_cell_length_b 26.035918
_cell_length_c 9.508571
_cell_angle_alpha 90.000000
_cell_angle_beta 90.000000
_cell_angle_gamma 90.000000
_cell_volume 3813.809405
_symmetry_space_group_name_H-M "C C C A"
_symmetry_group_IT_number 68
_space_group.IT_coordinate_system_code '2'
_symmetry_cell_setting 'orthorhombic'
loop_
_space_group_symop_operation_xyz
x,y,z
-x,1/2-y,z
x,1/2-y,1/2-z
-x,y,1/2-z
-x,-y,-z
x,1/2+y,-z
-x,1/2+y,1/2+z
x,-y,1/2+z
1/2+x,1/2+y,z
1/2-x,-y,z
1/2+x,-y,1/2-z
1/2-x,1/2+y,1/2-z
1/2-x,1/2-y,-z
1/2+x,y,-z
1/2-x,y,1/2+z
1/2+x,1/2-y,1/2+z
loop_
_atom_site_type_symbol
_atom_site_label
_atom_site_fract_x
_atom_site_fract_y
_atom_site_fract_z
Si Si1 0.190294 0.292188 0.572373
Si Si2 0.500000 0.750000 0.955277
Si Si3 0.951207 0.148346 0.893194
Si Si4 0.173306 0.465269 0.222425
Si Si5 0.929535 0.962035 0.444500
Si Si6 0.753062 0.142197 0.332150
O O1 0.250000 0.250000 0.500000
O O2 0.097577 0.265352 0.601954
O O3 0.184641 0.335964 0.453135
O O4 0.241355 0.318352 0.701646
O O5 0.474413 0.692200 0.007068
O O6 0.980034 0.089920 0.905758
O O7 0.847538 0.141505 0.881577
O O8 0.000000 0.166906 0.750000
O O9 0.250000 0.500000 0.164236
O O10 0.121976 0.504888 0.326155
O O11 0.212786 0.414350 0.294083
O O12 0.123849 0.447634 0.083769
O O13 0.000000 0.000000 0.500000
#
# Coordination Sequence:
#
# PCOD9510801 Si02
#       6
#    16   8  16  16  16  16
#     4  12  27  49  76 109 150 202 259 319 387 459
#     4  12  27  46  77 110 154 205 263 308 386 475
#     4  12  24  45  76 109 148 197 256 307 378 466
#     4  12  27  47  76 108 149 195 251 313 385 461
#     4  12  28  49  73 109 150 199 251 315 382 457
#     4  12  27  46  77 110 150 194 252 319 383 456
#
# _framework density 23.074041999999999
#
# number of rings (size 3 to 8) (size 9 to 14) (size 15 to 20)
#    0.000    0.000    5.455    4.091    5.091    0.000 
#    0.000    1.818    0.000    0.000    0.000    0.000 
#    0.000    0.000    0.000    0.000    0.000    0.000 
#
# Total GULP energy -245055.491773 kJ/mol
# GULP energy per Si atom -5569.442995 kJ/mol
# Density = 2.302152 g / cm^3
# Si number density = 23.074042 Si / 1000 Ang^3
#
#
#
# Elastic Constant Matrix: (Units=GPa)
#
#
# Indices 1 2 3 4 5 6 
#
# 1 74.0578 10.5068 19.1739 0.0000 0.0000 0.0000
# 2 10.5068 146.6352 29.5644 0.0000 0.0000 0.0000
# 3 19.1739 29.5644 71.0172 0.0000 0.0000 0.0000
# 4 0.0000 0.0000 0.0000 0.4579 0.0000 0.0000
# 5 0.0000 0.0000 0.0000 0.0000 129.0784 0.0000
# 6 0.0000 0.0000 0.0000 0.0000 0.0000 54.3636
#
#
#
# Elastic Compliance Matrix: (Units=1/GPa)
#
#
# Indices 1 2 3 4 5 6 
#
# 1 0.014528 -0.000273 -0.003809 0.000000 0.000000 0.000000
# 2 -0.000273 0.007450 -0.003028 0.000000 0.000000 0.000000
# 3 -0.003809 -0.003028 0.016370 0.000000 0.000000 0.000000
# 4 0.000000 0.000000 0.000000 2.184077 0.000000 0.000000
# 5 0.000000 0.000000 0.000000 0.000000 0.007747 0.000000
# 6 0.000000 0.000000 0.000000 0.000000 0.000000 0.018395
#
#
# Mechanical properties :
#
#
# Convention : Reuss Voigt Hill
#
# Bulk Modulus (GPa) = 41.44458 45.57783 43.51120
# Shear Modulus (GPa) = 2.20184 52.27766 27.23975
#
# Velocity S-wave (km/s) = 0.97792 4.76505 3.43962
# Velocity P-wave (km/s) = 4.39040 7.07601 5.88836
#
# Compressibility (1/GPa) = 0.02412861
#
# Stress axis : x y z
#
# Youngs Moduli (GPa) = 68.83364 134.23508 61.08830
#
# Poissons Ratio (x) = 0.03665 0.23267
# Poissons Ratio (y) = 0.01880 0.18495
# Poissons Ratio (z) = 0.26216 0.40640
#
# Static dielectric constant tensor:
#      x y z
#    x 1.757650 0.000000 0.000000 
#    y 0.000000 1.875950 0.000000 
#    z 0.000000 0.000000 1.964150 
# 
# From -- ./inp_files/13346.got.cif
#   From: 2010.05.17/outbox.cif.g08.bks.cpg/sg68_7_cif.got.tgz:13346.got - 2010.06.03 18:57:09.
