data_PCOD9510158
_publ_section_title
;
Structure prediction by ZEFSAII (Michael W. Deem and Ramdas Pophale) SiO2 
 PCOD9510158
Probable space group: C C C A
;
_chemical_formula_sum "Si O2"
_cell_formula_units_Z 64
_cell_length_a 7.815582
_cell_length_b 15.550925
_cell_length_c 22.821320
_cell_angle_alpha 90.000000
_cell_angle_beta 90.000000
_cell_angle_gamma 90.000000
_cell_volume 2773.692496
_symmetry_space_group_name_H-M "C C C A"
_symmetry_group_IT_number 68
_space_group.IT_coordinate_system_code '2'
_symmetry_cell_setting 'orthorhombic'
loop_
_space_group_symop_operation_xyz
x,y,z
-x,1/2-y,z
x,1/2-y,1/2-z
-x,y,1/2-z
-x,-y,-z
x,1/2+y,-z
-x,1/2+y,1/2+z
x,-y,1/2+z
1/2+x,1/2+y,z
1/2-x,-y,z
1/2+x,-y,1/2-z
1/2-x,1/2+y,1/2-z
1/2-x,1/2-y,-z
1/2+x,y,-z
1/2-x,y,1/2+z
1/2+x,1/2-y,1/2+z
loop_
_atom_site_type_symbol
_atom_site_label
_atom_site_fract_x
_atom_site_fract_y
_atom_site_fract_z
Si Si1 0.820603 0.782214 0.364145
Si Si2 0.743603 0.099577 0.962928
Si Si3 0.900356 0.930165 0.810559
Si Si4 0.385196 0.622208 0.086776
O O1 0.862797 0.841184 0.421903
O O2 0.701445 0.841785 0.323806
O O3 0.707712 0.700808 0.382408
O O4 0.000000 0.750000 0.338460
O O5 0.561024 0.141124 0.948029
O O6 0.750000 0.000000 0.943384
O O7 0.769339 0.095661 0.032164
O O8 0.000000 0.929223 0.750000
O O9 0.042756 0.940213 0.862281
O O10 0.750000 0.000000 0.810576
#
# Coordination Sequence:
#
# PCOD9510158 Si02
#       4
#    16  16  16  16
#     4  11  24  44  72 103 141 189 238 290 351 419
#     4  11  22  39  65 102 146 189 232 285 347 412
#     4  11  27  51  73 100 137 183 236 297 359 425
#     4  11  23  41  69 104 144 185 235 291 345 413
#
# _framework density 23.073934999999999
#
# number of rings (size 3 to 8) (size 9 to 14) (size 15 to 20)
#    0.000    1.000    0.000    9.000    0.000    9.000 
#    0.000    1.250    0.000    0.000    0.000    0.000 
#    0.000    0.000    0.000    0.000    0.000    0.000 
#
# Total GULP energy -178694.135465 kJ/mol
# GULP energy per Si atom -5584.191733 kJ/mol
# Density = 2.302142 g / cm^3
# Si number density = 23.073935 Si / 1000 Ang^3
#
#
#
# Elastic Constant Matrix: (Units=GPa)
#
#
# Indices 1 2 3 4 5 6 
#
# 1 112.1797 40.1540 54.3489 0.0000 0.0000 0.0000
# 2 40.1540 94.1729 24.0761 0.0000 0.0000 0.0000
# 3 54.3489 24.0761 178.5348 0.0000 0.0000 0.0000
# 4 0.0000 0.0000 0.0000 16.1002 0.0000 0.0000
# 5 0.0000 0.0000 0.0000 0.0000 51.9152 0.0000
# 6 0.0000 0.0000 0.0000 0.0000 0.0000 10.4043
#
#
#
# Elastic Compliance Matrix: (Units=1/GPa)
#
#
# Indices 1 2 3 4 5 6 
#
# 1 0.011935 -0.004309 -0.003052 0.000000 0.000000 0.000000
# 2 -0.004309 0.012553 -0.000381 0.000000 0.000000 0.000000
# 3 -0.003052 -0.000381 0.006582 0.000000 0.000000 0.000000
# 4 0.000000 0.000000 0.000000 0.062111 0.000000 0.000000
# 5 0.000000 0.000000 0.000000 0.000000 0.019262 0.000000
# 6 0.000000 0.000000 0.000000 0.000000 0.000000 0.096114
#
#
# Mechanical properties :
#
#
# Convention : Reuss Voigt Hill
#
# Bulk Modulus (GPa) = 64.16004 69.11616 66.63810
# Shear Modulus (GPa) = 21.81148 33.43784 27.62466
#
# Velocity S-wave (km/s) = 3.07789 3.81091 3.46385
# Velocity P-wave (km/s) = 6.36379 7.02733 6.70377
#
# Compressibility (1/GPa) = 0.01558602
#
# Stress axis : x y z
#
# Youngs Moduli (GPa) = 83.78506 79.65960 151.93607
#
# Poissons Ratio (x) = 0.34323 0.46375
# Poissons Ratio (y) = 0.36101 0.05792
# Poissons Ratio (z) = 0.25573 0.03037
#
# Static dielectric constant tensor:
#      x y z
#    x 1.936930 0.000000 0.000000 
#    y 0.000000 1.902330 0.000000 
#    z 0.000000 0.000000 1.924370 
# 
# From -- ./inp_files/42740.got.cif
#   From: 2010.05.17/outbox.cif.g08.bks.cpg/sg68_22_cif.got.tgz:42740.got - 2010.06.03 18:57:09.
