data_PCOD9510902
_publ_section_title
;
Structure prediction by ZEFSAII (Michael W. Deem and Ramdas Pophale) SiO2 
 PCOD9510902
Probable space group: C C C A
;
_chemical_formula_sum "Si O2"
_cell_formula_units_Z 56
_cell_length_a 21.627997
_cell_length_b 9.561977
_cell_length_c 9.879431
_cell_angle_alpha 90.000000
_cell_angle_beta 90.000000
_cell_angle_gamma 90.000000
_cell_volume 2043.129657
_symmetry_space_group_name_H-M "C C C A"
_symmetry_group_IT_number 68
_space_group.IT_coordinate_system_code '2'
_symmetry_cell_setting 'orthorhombic'
loop_
_space_group_symop_operation_xyz
x,y,z
-x,1/2-y,z
x,1/2-y,1/2-z
-x,y,1/2-z
-x,-y,-z
x,1/2+y,-z
-x,1/2+y,1/2+z
x,-y,1/2+z
1/2+x,1/2+y,z
1/2-x,-y,z
1/2+x,-y,1/2-z
1/2-x,1/2+y,1/2-z
1/2-x,1/2-y,-z
1/2+x,y,-z
1/2-x,y,1/2+z
1/2+x,1/2-y,1/2+z
loop_
_atom_site_type_symbol
_atom_site_label
_atom_site_fract_x
_atom_site_fract_y
_atom_site_fract_z
Si Si1 0.260030 0.750000 0.750000
Si Si2 0.854728 0.076889 0.302885
Si Si3 0.633412 0.785357 0.957206
Si Si4 0.542824 0.441174 0.377729
O O1 0.214461 0.882429 0.739871
O O2 0.305406 0.770594 0.877993
O O3 0.868189 0.212716 0.395455
O O4 0.862440 0.945916 0.406922
O O5 0.899089 0.033978 0.178246
O O6 0.571820 0.710906 0.901505
O O7 0.500000 0.444286 0.250000
O O8 0.500000 0.500000 0.500000
#
# Coordination Sequence:
#
# PCOD9510902 Si02
#       4
#     8  16  16  16
#     4  12  28  52  88 134 186 236 322 394 512 576
#     4  12  29  53  89 136 180 249 315 405 488 593
#     4  12  28  53  88 127 183 243 309 405 484 578
#     4  12  27  57  91 128 181 244 319 388 485 570
#
# _framework density 27.408930999999999
#
# number of rings (size 3 to 8) (size 9 to 14) (size 15 to 20)
#    0.000    0.000    5.714    1.714    4.000    2.286 
#    5.143    3.571    0.000    0.000    0.000    0.000 
#    0.000    0.000    0.000    0.000    0.000    0.000 
#
# Total GULP energy -156577.836002 kJ/mol
# GULP energy per Si atom -5592.065571 kJ/mol
# Density = 2.734655 g / cm^3
# Si number density = 27.408931 Si / 1000 Ang^3
#
#
#
# Elastic Constant Matrix: (Units=GPa)
#
#
# Indices 1 2 3 4 5 6 
#
# 1 182.6017 86.1051 68.9186 0.0000 0.0000 0.0000
# 2 86.1051 241.5812 46.2696 0.0000 0.0000 0.0000
# 3 68.9186 46.2696 188.7855 0.0000 0.0000 0.0000
# 4 0.0000 0.0000 0.0000 30.8174 0.0000 0.0000
# 5 0.0000 0.0000 0.0000 0.0000 -44.5507 0.0000
# 6 0.0000 0.0000 0.0000 0.0000 0.0000 109.6389
#
#
#
# Elastic Compliance Matrix: (Units=1/GPa)
#
#
# Indices 1 2 3 4 5 6 
#
# 1 0.007319 -0.002200 -0.002133 0.000000 0.000000 0.000000
# 2 -0.002200 0.005005 -0.000423 0.000000 0.000000 0.000000
# 3 -0.002133 -0.000423 0.006179 0.000000 0.000000 0.000000
# 4 0.000000 0.000000 0.000000 0.032449 0.000000 0.000000
# 5 0.000000 0.000000 0.000000 0.000000 -0.022446 0.000000
# 6 0.000000 0.000000 0.000000 0.000000 0.000000 0.009121
#
#
# Mechanical properties :
#
#
# Convention : Reuss Voigt Hill
#
# Bulk Modulus (GPa) = 111.22843 112.83944 112.03393
# Shear Modulus (GPa) = 99.72961 46.62612 73.17787
#
# Velocity S-wave (km/s) = 6.03861 4.12895 5.17267
# Velocity P-wave (km/s) = 9.44928 7.99932 8.75437
#
# Compressibility (1/GPa) = 0.00899051
#
# Stress axis : x y z
#
# Youngs Moduli (GPa) = 136.63534 199.81358 161.83018
#
# Poissons Ratio (x) = 0.43961 0.34512
# Poissons Ratio (y) = 0.30061 0.06852
# Poissons Ratio (z) = 0.29139 0.08460
#
# Static dielectric constant tensor:
#      x y z
#    x 2.235780 0.000000 0.000000 
#    y 0.000000 2.224790 0.000000 
#    z 0.000000 0.000000 3.306910 
# 
# From -- ./inp_files/4760.got.cif
#   From: 2010.05.17/outbox.cif.g08.bks.cpg/sg68_3_cif.got.tgz:4760.got - 2010.06.03 18:57:09.
