data_PCOD9510978
_publ_section_title
;
Structure prediction by ZEFSAII (Michael W. Deem and Ramdas Pophale) SiO2 
 PCOD9510978
Probable space group: F M M M
;
_chemical_formula_sum "Si O2"
_cell_formula_units_Z 152
_cell_length_a 22.329071
_cell_length_b 22.829221
_cell_length_c 14.162617
_cell_angle_alpha 90.000000
_cell_angle_beta 90.000000
_cell_angle_gamma 90.000000
_cell_volume 7219.469029
_symmetry_space_group_name_H-M "F M M M"
_symmetry_group_IT_number 69
_symmetry_cell_setting 'orthorhombic'
loop_
_space_group_symop_operation_xyz
x,y,z
-x,-y,z
x,-y,-z
-x,y,-z
-x,-y,-z
x,y,-z
-x,y,z
x,-y,z
x,1/2+y,1/2+z
-x,1/2-y,1/2+z
x,1/2-y,1/2-z
-x,1/2+y,1/2-z
-x,1/2-y,1/2-z
x,1/2+y,1/2-z
-x,1/2+y,1/2+z
x,1/2-y,1/2+z
1/2+x,y,1/2+z
1/2-x,-y,1/2+z
1/2+x,-y,1/2-z
1/2-x,y,1/2-z
1/2-x,-y,1/2-z
1/2+x,y,1/2-z
1/2-x,y,1/2+z
1/2+x,-y,1/2+z
1/2+x,1/2+y,z
1/2-x,1/2-y,z
1/2+x,1/2-y,-z
1/2-x,1/2+y,-z
1/2-x,1/2-y,-z
1/2+x,1/2+y,-z
1/2-x,1/2+y,z
1/2+x,1/2-y,z
loop_
_atom_site_type_symbol
_atom_site_label
_atom_site_fract_x
_atom_site_fract_y
_atom_site_fract_z
Si Si1 0.000000 0.500000 0.745341
Si Si2 0.683907 0.609326 0.206946
Si Si3 0.000000 0.796065 0.163011
Si Si4 0.119371 0.000000 0.886667
Si Si5 0.131289 0.227206 0.857047
Si Si6 0.128370 0.854024 0.599764
Si Si7 0.000000 0.623758 0.832134
O O1 0.058441 0.500000 0.676504
O O2 0.000000 0.445184 0.816925
O O3 0.750000 0.602689 0.250000
O O4 0.658292 0.556559 0.144928
O O5 0.673033 0.670117 0.149235
O O6 0.646963 0.614668 0.304318
O O7 0.000000 0.750000 0.250000
O O8 0.063734 0.789934 0.111695
O O9 0.000000 0.855496 0.222840
O O10 0.108202 0.000000 0.000000
O O11 0.124974 0.250000 0.750000
O O12 0.152805 0.287463 0.902829
O O13 0.144095 0.883035 0.500000
O O14 0.057087 0.851671 0.613085
#
# Coordination Sequence:
#
# PCOD9510978 Si02
#       7
#     8  32  16  16  32  32  16
#     4  12  23  44  73  96 128 168 217 280 345 396
#     4  11  24  44  66  93 132 178 223 272 330 382
#     4  10  12  28  57  82 117 164 208 251 312 374
#     4  12  26  47  73  96 125 168 228 286 336 394
#     4   9  17  33  59  88 125 169 213 254 312 378
#     4  11  22  37  63  99 136 172 211 266 333 406
#     4  12  19  38  63  96 136 172 211 270 342 412
#
# _framework density 21.054179999999999
#
# number of rings (size 3 to 8) (size 9 to 14) (size 15 to 20)
#    0.000    1.263    8.421    0.789    0.000    5.474 
#    0.000    3.684    0.000    2.526    0.000    0.000 
#    0.000    0.000    0.000    0.000    0.000    0.000 
#
# Total GULP energy -211724.833310 kJ/mol
# GULP energy per Si atom -5571.706140 kJ/mol
# Density = 2.100626 g / cm^3
# Si number density = 21.054180 Si / 1000 Ang^3
#
#
#
# Elastic Constant Matrix: (Units=GPa)
#
#
# Indices 1 2 3 4 5 6 
#
# 1 83.3271 10.8356 -5.3167 0.0000 0.0000 0.0000
# 2 10.8356 125.8422 14.0751 0.0000 0.0000 0.0000
# 3 -5.3167 14.0751 102.1141 0.0000 0.0000 0.0000
# 4 0.0000 0.0000 0.0000 5.4095 0.0000 0.0000
# 5 0.0000 0.0000 0.0000 0.0000 13.5741 0.0000
# 6 0.0000 0.0000 0.0000 0.0000 0.0000 20.0009
#
#
#
# Elastic Compliance Matrix: (Units=1/GPa)
#
#
# Indices 1 2 3 4 5 6 
#
# 1 0.012200 -0.001139 0.000792 0.000000 0.000000 0.000000
# 2 -0.001139 0.008177 -0.001186 0.000000 0.000000 0.000000
# 3 0.000792 -0.001186 0.009998 0.000000 0.000000 0.000000
# 4 0.000000 0.000000 0.000000 0.184861 0.000000 0.000000
# 5 0.000000 0.000000 0.000000 0.000000 0.073670 0.000000
# 6 0.000000 0.000000 0.000000 0.000000 0.000000 0.049998
#
#
# Mechanical properties :
#
#
# Convention : Reuss Voigt Hill
#
# Bulk Modulus (GPa) = 36.61935 38.94127 37.78031
# Shear Modulus (GPa) = 14.24209 27.24285 20.74247
#
# Velocity S-wave (km/s) = 2.60369 3.60104 3.14219
# Velocity P-wave (km/s) = 5.14486 5.98547 5.58102
#
# Compressibility (1/GPa) = 0.02730797
#
# Stress axis : x y z
#
# Youngs Moduli (GPa) = 81.97012 122.29072 100.02257
#
# Poissons Ratio (x) = 0.13929 -0.07924
# Poissons Ratio (y) = 0.09337 0.11867
# Poissons Ratio (z) = -0.06494 0.14509
#
# Static dielectric constant tensor:
#      x y z
#    x 2.627290 0.000000 0.000000 
#    y 0.000000 1.830370 0.000000 
#    z 0.000000 0.000000 1.832460 
# 
# From -- ./inp_files/16840.got.cif
#   From: 2010.05.17/outbox.cif.g08.bks.cpg/sg69_9_cif.got.tgz:16840.got - 2010.06.03 19:29:58.
