data_PCOD9510174
_publ_section_title
;
Structure prediction by ZEFSAII (Michael W. Deem and Ramdas Pophale) SiO2 
 PCOD9510174
Probable space group: C C C A
;
_chemical_formula_sum "Si O2"
_cell_formula_units_Z 112
_cell_length_a 18.344319
_cell_length_b 29.576390
_cell_length_c 10.680983
_cell_angle_alpha 90.000000
_cell_angle_beta 90.000000
_cell_angle_gamma 90.000000
_cell_volume 5795.060604
_symmetry_space_group_name_H-M "C C C A"
_symmetry_group_IT_number 68
_space_group.IT_coordinate_system_code '2'
_symmetry_cell_setting 'orthorhombic'
loop_
_space_group_symop_operation_xyz
x,y,z
-x,1/2-y,z
x,1/2-y,1/2-z
-x,y,1/2-z
-x,-y,-z
x,1/2+y,-z
-x,1/2+y,1/2+z
x,-y,1/2+z
1/2+x,1/2+y,z
1/2-x,-y,z
1/2+x,-y,1/2-z
1/2-x,1/2+y,1/2-z
1/2-x,1/2-y,-z
1/2+x,y,-z
1/2-x,y,1/2+z
1/2+x,1/2-y,1/2+z
loop_
_atom_site_type_symbol
_atom_site_label
_atom_site_fract_x
_atom_site_fract_y
_atom_site_fract_z
Si Si1 0.598534 0.468866 0.432590
Si Si2 0.561558 0.134766 0.648411
Si Si3 0.818969 0.793933 0.599693
Si Si4 0.209294 0.808532 0.620751
Si Si5 0.842127 0.404290 0.149479
Si Si6 0.444945 0.062102 0.053259
Si Si7 0.701425 0.456185 0.205340
O O1 0.622404 0.440630 0.556151
O O2 0.523153 0.447312 0.383492
O O3 0.573174 0.519591 0.462604
O O4 0.667700 0.467322 0.340964
O O5 0.500000 0.145312 0.750000
O O6 0.606558 0.179083 0.614411
O O7 0.612714 0.099740 0.723917
O O8 0.541846 0.107723 0.524266
O O9 0.828393 0.739908 0.595476
O O10 0.775572 0.806400 0.729072
O O11 0.776609 0.809157 0.475161
O O12 0.161713 0.853275 0.595813
O O13 0.760535 0.417173 0.189067
O O14 0.371163 0.060073 0.133558
O O15 0.750000 0.500000 0.163707
#
# Coordination Sequence:
#
# PCOD9510174 Si02
#       7
#    16  16  16  16  16  16  16
#     4  11  25  40  59  84 125 167 206 255 312 379
#     4  11  22  40  63  89 123 164 209 257 320 381
#     4   9  19  37  62  92 123 162 206 259 324 385
#     4   9  19  36  60  91 127 160 202 261 323 374
#     4  11  23  38  60  91 120 160 203 264 305 370
#     4  11  24  42  61  82 123 167 208 254 317 374
#     4  12  25  38  60  90 119 160 217 262 305 366
#
# _framework density 19.326803000000002
#
# number of rings (size 3 to 8) (size 9 to 14) (size 15 to 20)
#    0.000    1.429    2.857    2.143    8.000    0.000 
#    0.000    5.714    0.000    0.000    0.000    0.000 
#    0.000   25.143    0.000    0.000    0.000    0.000 
#
# Total GULP energy -311967.130296 kJ/mol
# GULP energy per Si atom -5570.841612 kJ/mol
# Density = 1.928281 g / cm^3
# Si number density = 19.326803 Si / 1000 Ang^3
#
#
#
# Elastic Constant Matrix: (Units=GPa)
#
#
# Indices 1 2 3 4 5 6 
#
# 1 112.2440 28.5794 24.0339 0.0000 0.0000 0.0000
# 2 28.5794 84.8770 20.5598 0.0000 0.0000 0.0000
# 3 24.0339 20.5598 30.6685 0.0000 0.0000 0.0000
# 4 0.0000 0.0000 0.0000 20.2073 0.0000 0.0000
# 5 0.0000 0.0000 0.0000 0.0000 32.0278 0.0000
# 6 0.0000 0.0000 0.0000 0.0000 0.0000 35.0425
#
#
#
# Elastic Compliance Matrix: (Units=1/GPa)
#
#
# Indices 1 2 3 4 5 6 
#
# 1 0.010962 -0.001922 -0.007302 0.000000 0.000000 0.000000
# 2 -0.001922 0.014403 -0.008149 0.000000 0.000000 0.000000
# 3 -0.007302 -0.008149 0.043792 0.000000 0.000000 0.000000
# 4 0.000000 0.000000 0.000000 0.049487 0.000000 0.000000
# 5 0.000000 0.000000 0.000000 0.000000 0.031223 0.000000
# 6 0.000000 0.000000 0.000000 0.000000 0.000000 0.028537
#
#
# Mechanical properties :
#
#
# Convention : Reuss Voigt Hill
#
# Bulk Modulus (GPa) = 29.06095 41.57063 35.31579
# Shear Modulus (GPa) = 22.25973 27.76327 25.01150
#
# Velocity S-wave (km/s) = 3.39743 3.79425 3.60131
# Velocity P-wave (km/s) = 5.51900 6.38366 5.96701
#
# Compressibility (1/GPa) = 0.03441043
#
# Stress axis : x y z
#
# Youngs Moduli (GPa) = 91.22315 69.42997 22.83520
#
# Poissons Ratio (x) = 0.13347 0.16674
# Poissons Ratio (y) = 0.17537 0.18609
# Poissons Ratio (z) = 0.66610 0.56579
#
# Static dielectric constant tensor:
#      x y z
#    x 1.774610 0.000000 0.000000 
#    y 0.000000 1.696800 0.000000 
#    z 0.000000 0.000000 1.702410 
# 
# From -- ./inp_files/13596.got.cif
#   From: 2010.05.17/outbox.cif.g08.bks.cpg/sg68_7_cif.got.tgz:13596.got - 2010.06.03 18:57:09.
