data_PCOD9510562
_publ_section_title
;
Structure prediction by ZEFSAII (Michael W. Deem and Ramdas Pophale) SiO2 
 PCOD9510562
Probable space group: C C C A
;
_chemical_formula_sum "Si O2"
_cell_formula_units_Z 96
_cell_length_a 22.086679
_cell_length_b 9.494535
_cell_length_c 21.695153
_cell_angle_alpha 90.000000
_cell_angle_beta 90.000000
_cell_angle_gamma 90.000000
_cell_volume 4549.533176
_symmetry_space_group_name_H-M "C C C A"
_symmetry_group_IT_number 68
_space_group.IT_coordinate_system_code '2'
_symmetry_cell_setting 'orthorhombic'
loop_
_space_group_symop_operation_xyz
x,y,z
-x,1/2-y,z
x,1/2-y,1/2-z
-x,y,1/2-z
-x,-y,-z
x,1/2+y,-z
-x,1/2+y,1/2+z
x,-y,1/2+z
1/2+x,1/2+y,z
1/2-x,-y,z
1/2+x,-y,1/2-z
1/2-x,1/2+y,1/2-z
1/2-x,1/2-y,-z
1/2+x,y,-z
1/2-x,y,1/2+z
1/2+x,1/2-y,1/2+z
loop_
_atom_site_type_symbol
_atom_site_label
_atom_site_fract_x
_atom_site_fract_y
_atom_site_fract_z
Si Si1 0.798527 0.243040 0.880164
Si Si2 0.441203 0.094156 0.218430
Si Si3 0.836773 0.291022 0.378914
Si Si4 0.112505 0.007870 0.107608
Si Si5 0.677678 0.023005 0.019263
Si Si6 0.816024 0.977063 0.224201
O O1 0.727886 0.216851 0.888357
O O2 0.833282 0.098980 0.876676
O O3 0.821016 0.337593 0.937853
O O4 0.809810 0.338822 0.819504
O O5 0.439139 0.250000 0.250000
O O6 0.500000 0.026592 0.250000
O O7 0.442110 0.072271 0.144099
O O8 0.376727 0.031003 0.237281
O O9 0.842722 0.393670 0.437204
O O10 0.826782 0.392528 0.321385
O O11 0.884778 0.168724 0.369367
O O12 0.128570 0.029700 0.035145
O O13 0.750000 0.000000 0.003077
O O14 0.750000 0.000000 0.254746
#
# Coordination Sequence:
#
# PCOD9510562 Si02
#       6
#    16  16  16  16  16  16
#     4   9  17  32  54  84 129 165 194 241 307 374
#     4  11  25  45  63  85 116 168 223 258 308 371
#     4   9  19  32  54  91 130 157 189 251 320 366
#     4  12  20  31  56  87 113 161 214 244 293 373
#     4   9  18  32  52  89 137 167 191 245 317 379
#     4   9  19  39  59  85 120 159 198 258 312 355
#
# _framework density 21.101064999999998
#
# number of rings (size 3 to 8) (size 9 to 14) (size 15 to 20)
#    0.000    2.167    1.667    4.500    0.000    5.333 
#    0.000    1.667    0.000    4.000    0.000    0.000 
#    0.000    0.000    0.000    0.000    0.000    0.000 
#
# Total GULP energy -267410.509949 kJ/mol
# GULP energy per Si atom -5571.052291 kJ/mol
# Density = 2.105304 g / cm^3
# Si number density = 21.101065 Si / 1000 Ang^3
#
#
#
# Elastic Constant Matrix: (Units=GPa)
#
#
# Indices 1 2 3 4 5 6 
#
# 1 67.6615 -0.1001 41.4905 0.0000 0.0000 0.0000
# 2 -0.1001 78.9209 10.6894 0.0000 0.0000 0.0000
# 3 41.4905 10.6894 96.8202 0.0000 0.0000 0.0000
# 4 0.0000 0.0000 0.0000 -11.1442 0.0000 0.0000
# 5 0.0000 0.0000 0.0000 0.0000 20.1539 0.0000
# 6 0.0000 0.0000 0.0000 0.0000 0.0000 5.9867
#
#
#
# Elastic Compliance Matrix: (Units=1/GPa)
#
#
# Indices 1 2 3 4 5 6 
#
# 1 0.020161 0.001214 -0.008774 0.000000 0.000000 0.000000
# 2 0.001214 0.012936 -0.001948 0.000000 0.000000 0.000000
# 3 -0.008774 -0.001948 0.014303 0.000000 0.000000 0.000000
# 4 0.000000 0.000000 0.000000 -0.089733 0.000000 0.000000
# 5 0.000000 0.000000 0.000000 0.000000 0.049618 0.000000
# 6 0.000000 0.000000 0.000000 0.000000 0.000000 0.167036
#
#
# Mechanical properties :
#
#
# Convention : Reuss Voigt Hill
#
# Bulk Modulus (GPa) = 35.23048 38.61803 36.92425
# Shear Modulus (GPa) = 24.65471 15.75414 20.20443
#
# Velocity S-wave (km/s) = 3.42191 2.73537 3.09772
# Velocity P-wave (km/s) = 5.68726 5.32142 5.50738
#
# Compressibility (1/GPa) = 0.02838451
#
# Stress axis : x y z
#
# Youngs Moduli (GPa) = 49.59975 77.30150 69.91353
#
# Poissons Ratio (x) = -0.09384 0.61341
# Poissons Ratio (y) = -0.06021 0.13622
# Poissons Ratio (z) = 0.43518 0.15062
#
# Static dielectric constant tensor:
#      x y z
#    x 1.740750 0.000000 0.000000 
#    y 0.000000 1.779760 0.000000 
#    z 0.000000 0.000000 1.933480 
# 
# From -- ./inp_files/46914.got.cif
#   From: 2010.05.17/outbox.cif.g08.bks.cpg/sg68_24_cif.got.tgz:46914.got - 2010.06.03 18:57:09.
