data_PCOD9510062
_publ_section_title
;
Structure prediction by ZEFSAII (Michael W. Deem and Ramdas Pophale) SiO2 
 PCOD9510062
Probable space group: C C C A
;
_chemical_formula_sum "Si O2"
_cell_formula_units_Z 80
_cell_length_a 27.235712
_cell_length_b 15.666652
_cell_length_c 8.477061
_cell_angle_alpha 90.000000
_cell_angle_beta 90.000000
_cell_angle_gamma 90.000000
_cell_volume 3617.097688
_symmetry_space_group_name_H-M "C C C A"
_symmetry_group_IT_number 68
_space_group.IT_coordinate_system_code '2'
_symmetry_cell_setting 'orthorhombic'
loop_
_space_group_symop_operation_xyz
x,y,z
-x,1/2-y,z
x,1/2-y,1/2-z
-x,y,1/2-z
-x,-y,-z
x,1/2+y,-z
-x,1/2+y,1/2+z
x,-y,1/2+z
1/2+x,1/2+y,z
1/2-x,-y,z
1/2+x,-y,1/2-z
1/2-x,1/2+y,1/2-z
1/2-x,1/2-y,-z
1/2+x,y,-z
1/2-x,y,1/2+z
1/2+x,1/2-y,1/2+z
loop_
_atom_site_type_symbol
_atom_site_label
_atom_site_fract_x
_atom_site_fract_y
_atom_site_fract_z
Si Si1 0.444761 0.556481 0.311813
Si Si2 0.102843 0.597758 0.482114
Si Si3 0.791371 0.331288 0.138074
Si Si4 0.397003 0.285238 0.931763
Si Si5 0.287005 0.421838 0.546530
O O1 0.500000 0.560428 0.250000
O O2 0.430555 0.464625 0.379596
O O3 0.410541 0.574640 0.161946
O O4 0.433534 0.634087 0.434284
O O5 0.094643 0.699865 0.465953
O O6 0.160291 0.575342 0.463094
O O7 0.786945 0.250000 0.250000
O O8 0.841987 0.320771 0.042708
O O9 0.795776 0.406161 0.268158
O O10 0.744324 0.346240 0.031871
O O11 0.398503 0.250000 0.750000
O O12 0.250000 0.500000 0.528728
#
# Coordination Sequence:
#
# PCOD9510062 Si02
#       5
#    16  16  16  16  16
#     4  11  23  44  71  98 125 169 224 279 337 400
#     4  11  24  43  66  97 136 171 221 281 332 400
#     4  11  21  40  61  90 131 176 222 260 320 395
#     4   9  19  41  65  90 130 176 216 262 328 402
#     4  12  24  37  62  95 133 175 220 271 329 393
#
# _framework density 22.117180000000001
#
# number of rings (size 3 to 8) (size 9 to 14) (size 15 to 20)
#    0.000    1.200    6.000    3.000    2.800    3.600 
#    0.000    1.000    0.000    1.200    0.000    0.000 
#    0.000    0.000    0.000    0.000    0.000    0.000 
#
# Total GULP energy -223449.666702 kJ/mol
# GULP energy per Si atom -5586.241668 kJ/mol
# Density = 2.206684 g / cm^3
# Si number density = 22.117180 Si / 1000 Ang^3
#
#
#
# Elastic Constant Matrix: (Units=GPa)
#
#
# Indices 1 2 3 4 5 6 
#
# 1 139.1333 106.4562 20.4905 0.0000 0.0000 0.0000
# 2 106.4562 149.7729 28.8803 0.0000 0.0000 0.0000
# 3 20.4905 28.8803 23.3328 0.0000 0.0000 0.0000
# 4 0.0000 0.0000 0.0000 21.4486 0.0000 0.0000
# 5 0.0000 0.0000 0.0000 0.0000 9.6212 0.0000
# 6 0.0000 0.0000 0.0000 0.0000 0.0000 17.8989
#
#
#
# Elastic Compliance Matrix: (Units=1/GPa)
#
#
# Indices 1 2 3 4 5 6 
#
# 1 0.015756 -0.011206 0.000033 0.000000 0.000000 0.000000
# 2 -0.011206 0.016739 -0.010879 0.000000 0.000000 0.000000
# 3 0.000033 -0.010879 0.056294 0.000000 0.000000 0.000000
# 4 0.000000 0.000000 0.000000 0.046623 0.000000 0.000000
# 5 0.000000 0.000000 0.000000 0.000000 0.103937 0.000000
# 6 0.000000 0.000000 0.000000 0.000000 0.000000 0.055870
#
#
# Mechanical properties :
#
#
# Convention : Reuss Voigt Hill
#
# Bulk Modulus (GPa) = 22.37769 69.32144 45.84957
# Shear Modulus (GPa) = 14.11558 20.22120 17.16839
#
# Velocity S-wave (km/s) = 2.52904 3.02698 2.78914
# Velocity P-wave (km/s) = 4.32062 6.60512 5.58101
#
# Compressibility (1/GPa) = 0.04468737
#
# Stress axis : x y z
#
# Youngs Moduli (GPa) = 63.46592 59.73943 17.76382
#
# Poissons Ratio (x) = 0.66943 -0.00059
# Poissons Ratio (y) = 0.71119 0.19324
# Poissons Ratio (z) = -0.00209 0.64988
#
# Static dielectric constant tensor:
#      x y z
#    x 1.783910 0.000000 0.000000 
#    y 0.000000 1.983940 0.000000 
#    z 0.000000 0.000000 1.825290 
# 
# From -- ./inp_files/8792.got.cif
#   From: 2010.05.17/outbox.cif.g08.bks.cpg/sg68_5_cif.got.tgz:8792.got - 2010.06.03 18:57:09.
