data_PCOD9510088
_publ_section_title
;
Structure prediction by ZEFSAII (Michael W. Deem and Ramdas Pophale) SiO2 
 PCOD9510088
Probable space group: C C C A
;
_chemical_formula_sum "Si O2"
_cell_formula_units_Z 96
_cell_length_a 9.384119
_cell_length_b 27.999204
_cell_length_c 16.701116
_cell_angle_alpha 90.000000
_cell_angle_beta 90.000000
_cell_angle_gamma 90.000000
_cell_volume 4388.182526
_symmetry_space_group_name_H-M "C C C A"
_symmetry_group_IT_number 68
_space_group.IT_coordinate_system_code '2'
_symmetry_cell_setting 'orthorhombic'
loop_
_space_group_symop_operation_xyz
x,y,z
-x,1/2-y,z
x,1/2-y,1/2-z
-x,y,1/2-z
-x,-y,-z
x,1/2+y,-z
-x,1/2+y,1/2+z
x,-y,1/2+z
1/2+x,1/2+y,z
1/2-x,-y,z
1/2+x,-y,1/2-z
1/2-x,1/2+y,1/2-z
1/2-x,1/2-y,-z
1/2+x,y,-z
1/2-x,y,1/2+z
1/2+x,1/2-y,1/2+z
loop_
_atom_site_type_symbol
_atom_site_label
_atom_site_fract_x
_atom_site_fract_y
_atom_site_fract_z
Si Si1 0.649583 0.960688 0.265003
Si Si2 0.990336 0.693558 0.939064
Si Si3 0.740306 0.944293 0.083583
Si Si4 0.835890 0.302038 0.281827
Si Si5 0.781840 0.630616 0.655833
Si Si6 0.037449 0.893789 0.041482
O O1 0.500000 0.985576 0.250000
O O2 0.713299 0.944822 0.179204
O O3 0.621998 0.914097 0.317982
O O4 0.750000 0.000000 0.304083
O O5 0.858636 0.690134 0.875819
O O6 0.000000 0.750000 0.953183
O O7 0.129524 0.668388 0.898091
O O8 0.971429 0.661764 0.016651
O O9 0.886292 0.917075 0.061417
O O10 0.750000 0.000000 0.059914
O O11 0.612955 0.920120 0.033466
O O12 0.791418 0.250000 0.250000
O O13 0.744474 0.341177 0.236679
O O14 0.000000 0.307003 0.250000
O O15 0.647982 0.606764 0.613948
#
# Coordination Sequence:
#
# PCOD9510088 Si02
#       6
#    16  16  16  16  16  16
#     4  11  26  45  73 103 136 181 235 290 356 428
#     4  11  21  42  69 100 141 187 242 283 350 428
#     4  11  26  47  70  99 142 182 232 287 357 423
#     4   9  15  33  62  95 126 175 237 286 333 412
#     4  11  22  39  66 101 138 178 236 294 346 418
#     4  12  25  43  68 106 140 186 228 293 356 427
#
# _framework density 21.876939
#
# number of rings (size 3 to 8) (size 9 to 14) (size 15 to 20)
#    0.000    1.167    5.000    4.000    4.667    1.333 
#    0.000    0.000    0.000    0.000    0.000    0.000 
#    0.000    0.000    0.000    0.000    0.000    0.000 
#
# Total GULP energy -268056.591805 kJ/mol
# GULP energy per Si atom -5584.512329 kJ/mol
# Density = 2.182715 g / cm^3
# Si number density = 21.876939 Si / 1000 Ang^3
#
#
#
# Elastic Constant Matrix: (Units=GPa)
#
#
# Indices 1 2 3 4 5 6 
#
# 1 76.7195 26.2607 15.0575 0.0000 0.0000 0.0000
# 2 26.2607 132.6255 20.1638 0.0000 0.0000 0.0000
# 3 15.0575 20.1638 40.9960 0.0000 0.0000 0.0000
# 4 0.0000 0.0000 0.0000 5.2592 0.0000 0.0000
# 5 0.0000 0.0000 0.0000 0.0000 20.0681 0.0000
# 6 0.0000 0.0000 0.0000 0.0000 0.0000 7.0505
#
#
#
# Elastic Compliance Matrix: (Units=1/GPa)
#
#
# Indices 1 2 3 4 5 6 
#
# 1 0.014643 -0.002250 -0.004272 0.000000 0.000000 0.000000
# 2 -0.002250 0.008495 -0.003352 0.000000 0.000000 0.000000
# 3 -0.004272 -0.003352 0.027610 0.000000 0.000000 0.000000
# 4 0.000000 0.000000 0.000000 0.190144 0.000000 0.000000
# 5 0.000000 0.000000 0.000000 0.000000 0.049830 0.000000
# 6 0.000000 0.000000 0.000000 0.000000 0.000000 0.141833
#
#
# Mechanical properties :
#
#
# Convention : Reuss Voigt Hill
#
# Bulk Modulus (GPa) = 32.25670 41.47834 36.86752
# Shear Modulus (GPa) = 10.80761 19.06617 14.93689
#
# Velocity S-wave (km/s) = 2.22506 2.95535 2.61582
# Velocity P-wave (km/s) = 4.62362 5.53593 5.10021
#
# Compressibility (1/GPa) = 0.03100131
#
# Stress axis : x y z
#
# Youngs Moduli (GPa) = 68.29193 117.71428 36.21857
#
# Poissons Ratio (x) = 0.26485 0.15471
# Poissons Ratio (y) = 0.15366 0.12140
# Poissons Ratio (z) = 0.29172 0.39457
#
# Static dielectric constant tensor:
#      x y z
#    x 1.819960 0.000000 0.000000 
#    y 0.000000 1.815130 0.000000 
#    z 0.000000 0.000000 1.866490 
# 
# From -- ./inp_files/36460.got.cif
#   From: 2010.05.17/outbox.cif.g08.bks.cpg/sg68_19_cif.got.tgz:36460.got - 2010.06.03 18:57:09.
