data_PCOD9510830
_publ_section_title
;
Structure prediction by ZEFSAII (Michael W. Deem and Ramdas Pophale) SiO2 
 PCOD9510830
Probable space group: C C C A
;
_chemical_formula_sum "Si O2"
_cell_formula_units_Z 92
_cell_length_a 19.365164
_cell_length_b 19.235327
_cell_length_c 10.978067
_cell_angle_alpha 90.000000
_cell_angle_beta 90.000000
_cell_angle_gamma 90.000000
_cell_volume 4089.277943
_symmetry_space_group_name_H-M "C C C A"
_symmetry_group_IT_number 68
_space_group.IT_coordinate_system_code '2'
_symmetry_cell_setting 'orthorhombic'
loop_
_space_group_symop_operation_xyz
x,y,z
-x,1/2-y,z
x,1/2-y,1/2-z
-x,y,1/2-z
-x,-y,-z
x,1/2+y,-z
-x,1/2+y,1/2+z
x,-y,1/2+z
1/2+x,1/2+y,z
1/2-x,-y,z
1/2+x,-y,1/2-z
1/2-x,1/2+y,1/2-z
1/2-x,1/2-y,-z
1/2+x,y,-z
1/2-x,y,1/2+z
1/2+x,1/2-y,1/2+z
loop_
_atom_site_type_symbol
_atom_site_label
_atom_site_fract_x
_atom_site_fract_y
_atom_site_fract_z
Si Si1 0.324111 0.750000 0.750000
Si Si2 0.609612 0.999865 0.778536
Si Si3 0.920682 0.135284 0.401017
Si Si4 0.683529 0.454724 0.968699
Si Si5 0.437104 0.647799 0.671254
Si Si6 0.000000 0.250000 0.250000
Si Si7 0.759743 0.175491 0.436927
O O1 0.376001 0.704635 0.667451
O O2 0.275831 0.808751 0.692024
O O3 0.565007 0.062847 0.833330
O O4 0.638742 0.033477 0.652660
O O5 0.654808 0.980883 0.899991
O O6 0.582883 0.924863 0.735349
O O7 0.955471 0.132035 0.532930
O O8 0.837466 0.146864 0.419180
O O9 0.951710 0.200212 0.329967
O O10 0.750000 0.500000 0.941449
O O11 0.711580 0.377505 0.989614
O O12 0.500000 0.675326 0.750000
O O13 0.750000 0.250000 0.500000
#
# Coordination Sequence:
#
# PCOD9510830 Si02
#       7
#     8  16  16  16  16   4  16
#     4  12  26  44  74 112 146 196 248 324 380 450
#     4  12  26  48  74 113 153 198 256 316 384 456
#     4  12  29  52  75 114 150 211 254 319 394 460
#     4  12  25  44  75 113 156 194 246 322 390 460
#     4  12  28  49  77 109 150 206 268 307 374 466
#     4  12  34  52  74 102 168 202 258 322 380 466
#     4  12  26  44  76 111 154 193 255 312 398 462
#
# _framework density 22.497858999999998
#
# number of rings (size 3 to 8) (size 9 to 14) (size 15 to 20)
#    0.000    0.000    6.957    1.304    8.522    2.087 
#    0.000    0.000    0.000    0.000    0.000    0.000 
#    0.000    0.000    0.000    0.000    0.000    0.000 
#
# Total GULP energy -256939.728677 kJ/mol
# GULP energy per Si atom -5585.646276 kJ/mol
# Density = 2.244665 g / cm^3
# Si number density = 22.497859 Si / 1000 Ang^3
#
#
#
# Elastic Constant Matrix: (Units=GPa)
#
#
# Indices 1 2 3 4 5 6 
#
# 1 62.5709 17.3738 38.7433 0.0000 0.0000 0.0000
# 2 17.3738 150.4720 31.1920 0.0000 0.0000 0.0000
# 3 38.7433 31.1920 142.2348 0.0000 0.0000 0.0000
# 4 0.0000 0.0000 0.0000 57.1580 0.0000 0.0000
# 5 0.0000 0.0000 0.0000 0.0000 25.9449 0.0000
# 6 0.0000 0.0000 0.0000 0.0000 0.0000 21.6778
#
#
#
# Elastic Compliance Matrix: (Units=1/GPa)
#
#
# Indices 1 2 3 4 5 6 
#
# 1 0.019429 -0.001201 -0.005029 0.000000 0.000000 0.000000
# 2 -0.001201 0.007036 -0.001216 0.000000 0.000000 0.000000
# 3 -0.005029 -0.001216 0.008667 0.000000 0.000000 0.000000
# 4 0.000000 0.000000 0.000000 0.017495 0.000000 0.000000
# 5 0.000000 0.000000 0.000000 0.000000 0.038543 0.000000
# 6 0.000000 0.000000 0.000000 0.000000 0.000000 0.046130
#
#
# Mechanical properties :
#
#
# Convention : Reuss Voigt Hill
#
# Bulk Modulus (GPa) = 49.40426 58.87733 54.14080
# Shear Modulus (GPa) = 31.45836 38.82071 35.13953
#
# Velocity S-wave (km/s) = 3.74342 4.15846 3.95638
# Velocity P-wave (km/s) = 6.37898 7.02026 6.70729
#
# Compressibility (1/GPa) = 0.02024117
#
# Stress axis : x y z
#
# Youngs Moduli (GPa) = 51.46894 142.11663 115.37838
#
# Poissons Ratio (x) = 0.17066 0.58023
# Poissons Ratio (y) = 0.06181 0.14030
# Poissons Ratio (z) = 0.25884 0.17281
#
# Static dielectric constant tensor:
#      x y z
#    x 1.872360 0.000000 0.000000 
#    y 0.000000 1.800640 0.000000 
#    z 0.000000 0.000000 2.229530 
# 
# From -- ./inp_files/15470.got.cif
#   From: 2010.05.17/outbox.cif.g08.bks.cpg/sg68_8_cif.got.tgz:15470.got - 2010.06.03 18:57:09.
