data_PCOD9510531
_publ_section_title
;
Structure prediction by ZEFSAII (Michael W. Deem and Ramdas Pophale) SiO2 
 PCOD9510531
Probable space group: C C C A
;
_chemical_formula_sum "Si O2"
_cell_formula_units_Z 88
_cell_length_a 14.262341
_cell_length_b 11.468095
_cell_length_c 26.416227
_cell_angle_alpha 90.000000
_cell_angle_beta 90.000000
_cell_angle_gamma 90.000000
_cell_volume 4320.687791
_symmetry_space_group_name_H-M "C C C A"
_symmetry_group_IT_number 68
_space_group.IT_coordinate_system_code '2'
_symmetry_cell_setting 'orthorhombic'
loop_
_space_group_symop_operation_xyz
x,y,z
-x,1/2-y,z
x,1/2-y,1/2-z
-x,y,1/2-z
-x,-y,-z
x,1/2+y,-z
-x,1/2+y,1/2+z
x,-y,1/2+z
1/2+x,1/2+y,z
1/2-x,-y,z
1/2+x,-y,1/2-z
1/2-x,1/2+y,1/2-z
1/2-x,1/2-y,-z
1/2+x,y,-z
1/2-x,y,1/2+z
1/2+x,1/2-y,1/2+z
loop_
_atom_site_type_symbol
_atom_site_label
_atom_site_fract_x
_atom_site_fract_y
_atom_site_fract_z
Si Si1 0.240720 0.328188 0.451448
Si Si2 0.237319 0.120567 0.876989
Si Si3 0.478798 0.387214 0.145834
Si Si4 0.423890 0.504399 0.953194
Si Si5 0.000000 0.476881 0.250000
Si Si6 0.197425 0.878843 0.766456
O O1 0.250000 0.250000 0.500000
O O2 0.248681 0.240679 0.404878
O O3 0.333932 0.408123 0.455277
O O4 0.137620 0.386418 0.450446
O O5 0.132274 0.110639 0.858032
O O6 0.300610 0.119407 0.827246
O O7 0.250000 0.000000 0.908489
O O8 0.500000 0.250000 0.142284
O O9 0.522702 0.458118 0.098377
O O10 0.504757 0.443007 0.199755
O O11 0.500000 0.500000 0.000000
O O12 0.091734 0.397227 0.250785
O O13 0.234362 0.750000 0.750000
O O14 0.250000 0.000000 0.750003
#
# Coordination Sequence:
#
# PCOD9510531 Si02
#       6
#    16  16  16  16   8  16
#     4  11  26  46  74 103 142 186 239 300 362 438
#     4  11  24  48  68 103 142 190 235 302 365 424
#     4  12  25  46  73 105 149 190 252 302 367 446
#     4  11  27  47  72 109 142 188 239 301 368 435
#     4  12  26  46  72 108 145 202 239 302 373 436
#     4  11  26  46  71 103 145 188 245 299 361 435
#
# _framework density 20.367127
#
# number of rings (size 3 to 8) (size 9 to 14) (size 15 to 20)
#    0.000    0.727    5.455    1.636   10.182    0.000 
#    0.000    0.000    0.000    0.000    0.000    0.000 
#    0.000    0.000    0.000    0.000    0.000    0.000 
#
# Total GULP energy -245278.543967 kJ/mol
# GULP energy per Si atom -5574.512363 kJ/mol
# Density = 2.032077 g / cm^3
# Si number density = 20.367127 Si / 1000 Ang^3
#
#
#
# Elastic Constant Matrix: (Units=GPa)
#
#
# Indices 1 2 3 4 5 6 
#
# 1 106.4853 47.6352 46.9033 0.0000 0.0000 0.0000
# 2 47.6352 143.1953 59.9648 0.0000 0.0000 0.0000
# 3 46.9033 59.9648 123.1815 0.0000 0.0000 0.0000
# 4 0.0000 0.0000 0.0000 32.6999 0.0000 0.0000
# 5 0.0000 0.0000 0.0000 0.0000 11.6622 0.0000
# 6 0.0000 0.0000 0.0000 0.0000 0.0000 37.7285
#
#
#
# Elastic Compliance Matrix: (Units=1/GPa)
#
#
# Indices 1 2 3 4 5 6 
#
# 1 0.012015 -0.002614 -0.003302 0.000000 0.000000 0.000000
# 2 -0.002614 0.009340 -0.003552 0.000000 0.000000 0.000000
# 3 -0.003302 -0.003552 0.011104 0.000000 0.000000 0.000000
# 4 0.000000 0.000000 0.000000 0.030581 0.000000 0.000000
# 5 0.000000 0.000000 0.000000 0.000000 0.085747 0.000000
# 6 0.000000 0.000000 0.000000 0.000000 0.000000 0.026505
#
#
# Mechanical properties :
#
#
# Convention : Reuss Voigt Hill
#
# Bulk Modulus (GPa) = 73.94353 75.76318 74.85335
# Shear Modulus (GPa) = 25.15890 30.97537 28.06713
#
# Velocity S-wave (km/s) = 3.51845 3.90404 3.71625
# Velocity P-wave (km/s) = 7.27256 7.58957 7.43276
#
# Compressibility (1/GPa) = 0.01352383
#
# Stress axis : x y z
#
# Youngs Moduli (GPa) = 83.23015 107.06320 90.05413
#
# Poissons Ratio (x) = 0.27986 0.29739
# Poissons Ratio (y) = 0.21756 0.31983
# Poissons Ratio (z) = 0.27486 0.38024
#
# Static dielectric constant tensor:
#      x y z
#    x 1.700270 0.000000 0.000000 
#    y 0.000000 1.875300 0.000000 
#    z 0.000000 0.000000 1.665090 
# 
# From -- ./inp_files/45320.got.cif
#   From: 2010.05.17/outbox.cif.g08.bks.cpg/sg68_23_cif.got.tgz:45320.got - 2010.06.03 18:57:09.
