data_PCOD9510778
_publ_section_title
;
Structure prediction by ZEFSAII (Michael W. Deem and Ramdas Pophale) SiO2 
 PCOD9510778
Probable space group: C C C A
;
_chemical_formula_sum "Si O2"
_cell_formula_units_Z 64
_cell_length_a 19.786463
_cell_length_b 15.400698
_cell_length_c 9.169213
_cell_angle_alpha 90.000000
_cell_angle_beta 90.000000
_cell_angle_gamma 90.000000
_cell_volume 2794.091560
_symmetry_space_group_name_H-M "C C C A"
_symmetry_group_IT_number 68
_space_group.IT_coordinate_system_code '2'
_symmetry_cell_setting 'orthorhombic'
loop_
_space_group_symop_operation_xyz
x,y,z
-x,1/2-y,z
x,1/2-y,1/2-z
-x,y,1/2-z
-x,-y,-z
x,1/2+y,-z
-x,1/2+y,1/2+z
x,-y,1/2+z
1/2+x,1/2+y,z
1/2-x,-y,z
1/2+x,-y,1/2-z
1/2-x,1/2+y,1/2-z
1/2-x,1/2-y,-z
1/2+x,y,-z
1/2-x,y,1/2+z
1/2+x,1/2-y,1/2+z
loop_
_atom_site_type_symbol
_atom_site_label
_atom_site_fract_x
_atom_site_fract_y
_atom_site_fract_z
Si Si1 0.078774 0.652318 0.930446
Si Si2 0.193657 0.161148 0.840460
Si Si3 0.575960 0.362341 0.903635
Si Si4 0.793076 0.583254 0.039365
O O1 0.081298 0.757905 0.924094
O O2 0.094701 0.621279 0.765982
O O3 0.001619 0.620720 0.947449
O O4 0.130414 0.632230 0.059953
O O5 0.180185 0.250000 0.750000
O O6 0.211614 0.096495 0.710673
O O7 0.257817 0.160862 0.948183
O O8 0.628727 0.414744 0.998890
O O9 0.750000 0.500000 0.998113
#
# Coordination Sequence:
#
# PCOD9510778 Si02
#       4
#    16  16  16  16
#     4   9  19  38  68 105 133 170 226 286 345 402
#     4  12  24  41  67 100 133 182 240 291 335 414
#     4   9  19  39  67 101 142 169 216 288 353 414
#     4  12  26  42  62  96 143 187 228 287 356 414
#
# _framework density 22.905477999999999
#
# number of rings (size 3 to 8) (size 9 to 14) (size 15 to 20)
#    0.000    1.500    2.500    4.500    3.500    1.000 
#    0.000    2.500    0.000    3.000    0.000    0.000 
#    0.000    0.000    0.000    0.000    0.000    0.000 
#
# Total GULP energy -178817.434097 kJ/mol
# GULP energy per Si atom -5588.044816 kJ/mol
# Density = 2.285334 g / cm^3
# Si number density = 22.905478 Si / 1000 Ang^3
#
#
#
# Elastic Constant Matrix: (Units=GPa)
#
#
# Indices 1 2 3 4 5 6 
#
# 1 121.7200 24.1961 78.4073 0.0000 0.0000 0.0000
# 2 24.1961 55.4215 11.2548 0.0000 0.0000 0.0000
# 3 78.4073 11.2548 140.3508 0.0000 0.0000 0.0000
# 4 0.0000 0.0000 0.0000 24.5062 0.0000 0.0000
# 5 0.0000 0.0000 0.0000 0.0000 54.0210 0.0000
# 6 0.0000 0.0000 0.0000 0.0000 0.0000 26.0670
#
#
#
# Elastic Compliance Matrix: (Units=1/GPa)
#
#
# Indices 1 2 3 4 5 6 
#
# 1 0.013882 -0.004560 -0.007390 0.000000 0.000000 0.000000
# 2 -0.004560 0.019840 0.000956 0.000000 0.000000 0.000000
# 3 -0.007390 0.000956 0.011177 0.000000 0.000000 0.000000
# 4 0.000000 0.000000 0.000000 0.040806 0.000000 0.000000
# 5 0.000000 0.000000 0.000000 0.000000 0.018511 0.000000
# 6 0.000000 0.000000 0.000000 0.000000 0.000000 0.038363
#
#
# Mechanical properties :
#
#
# Convention : Reuss Voigt Hill
#
# Bulk Modulus (GPa) = 43.64441 60.57875 52.11158
# Shear Modulus (GPa) = 29.03556 34.49445 31.76500
#
# Velocity S-wave (km/s) = 3.56423 3.88486 3.72800
# Velocity P-wave (km/s) = 6.00282 6.82844 6.42890
#
# Compressibility (1/GPa) = 0.02291244
#
# Stress axis : x y z
#
# Youngs Moduli (GPa) = 72.03498 50.40290 89.47325
#
# Poissons Ratio (x) = 0.22984 0.66117
# Poissons Ratio (y) = 0.32848 -0.08558
# Poissons Ratio (z) = 0.53231 -0.04821
#
# Static dielectric constant tensor:
#      x y z
#    x 1.840350 0.000000 0.000000 
#    y 0.000000 1.821200 0.000000 
#    z 0.000000 0.000000 1.806730 
# 
# From -- ./inp_files/7817.got.cif
#   From: 2010.05.17/outbox.cif.g08.bks.cpg/sg68_4_cif.got.tgz:7817.got - 2010.06.03 18:57:09.
