data_PCOD9510468
_publ_section_title
;
Structure prediction by ZEFSAII (Michael W. Deem and Ramdas Pophale) SiO2 
 PCOD9510468
Probable space group: C C C A
;
_chemical_formula_sum "Si O2"
_cell_formula_units_Z 64
_cell_length_a 10.568518
_cell_length_b 25.557141
_cell_length_c 9.493981
_cell_angle_alpha 90.000000
_cell_angle_beta 90.000000
_cell_angle_gamma 90.000000
_cell_volume 2564.334756
_symmetry_space_group_name_H-M "C C C A"
_symmetry_group_IT_number 68
_space_group.IT_coordinate_system_code '2'
_symmetry_cell_setting 'orthorhombic'
loop_
_space_group_symop_operation_xyz
x,y,z
-x,1/2-y,z
x,1/2-y,1/2-z
-x,y,1/2-z
-x,-y,-z
x,1/2+y,-z
-x,1/2+y,1/2+z
x,-y,1/2+z
1/2+x,1/2+y,z
1/2-x,-y,z
1/2+x,-y,1/2-z
1/2-x,1/2+y,1/2-z
1/2-x,1/2-y,-z
1/2+x,y,-z
1/2-x,y,1/2+z
1/2+x,1/2-y,1/2+z
loop_
_atom_site_type_symbol
_atom_site_label
_atom_site_fract_x
_atom_site_fract_y
_atom_site_fract_z
Si Si1 0.020590 0.419623 0.407933
Si Si2 0.636999 0.852471 0.756611
Si Si3 0.498271 0.807569 0.991906
Si Si4 0.754810 0.057013 0.103403
O O1 0.028195 0.356515 0.409623
O O2 0.886750 0.435202 0.477346
O O3 0.000000 0.439639 0.250000
O O4 0.138962 0.439534 0.494950
O O5 0.500000 0.882406 0.750000
O O6 0.627140 0.822482 0.904272
O O7 0.609720 0.811021 0.631072
O O8 0.739800 0.894320 0.711530
O O9 0.500000 0.750000 0.053012
O O10 0.750000 0.000000 0.171778
#
# Coordination Sequence:
#
# PCOD9510468 Si02
#       4
#    16  16  16  16
#     4  11  26  42  66 100 141 176 241 285 337 424
#     4   7  16  34  65  95 127 166 228 268 333 407
#     4   8  16  37  67  92 133 174 221 276 352 406
#     4  11  24  44  67  97 138 183 229 289 351 404
#
# _framework density 24.957742
#
# number of rings (size 3 to 8) (size 9 to 14) (size 15 to 20)
#    1.500    1.000    0.000    2.250    3.500    2.500 
#    0.000    5.000   11.000    0.000    0.000    0.000 
#    0.000    0.000    0.000    0.000    0.000    0.000 
#
# Total GULP energy -178469.092763 kJ/mol
# GULP energy per Si atom -5577.159149 kJ/mol
# Density = 2.490094 g / cm^3
# Si number density = 24.957742 Si / 1000 Ang^3
#
#
#
# Elastic Constant Matrix: (Units=GPa)
#
#
# Indices 1 2 3 4 5 6 
#
# 1 136.8474 24.2076 28.2067 0.0000 0.0000 0.0000
# 2 24.2076 142.2238 7.4087 0.0000 0.0000 0.0000
# 3 28.2067 7.4087 61.7696 0.0000 0.0000 0.0000
# 4 0.0000 0.0000 0.0000 4.9920 0.0000 0.0000
# 5 0.0000 0.0000 0.0000 0.0000 22.9956 0.0000
# 6 0.0000 0.0000 0.0000 0.0000 0.0000 17.4233
#
#
#
# Elastic Compliance Matrix: (Units=1/GPa)
#
#
# Indices 1 2 3 4 5 6 
#
# 1 0.008271 -0.001219 -0.003631 0.000000 0.000000 0.000000
# 2 -0.001219 0.007255 -0.000314 0.000000 0.000000 0.000000
# 3 -0.003631 -0.000314 0.017885 0.000000 0.000000 0.000000
# 4 0.000000 0.000000 0.000000 0.200322 0.000000 0.000000
# 5 0.000000 0.000000 0.000000 0.000000 0.043487 0.000000
# 6 0.000000 0.000000 0.000000 0.000000 0.000000 0.057394
#
#
# Mechanical properties :
#
#
# Convention : Reuss Voigt Hill
#
# Bulk Modulus (GPa) = 43.31884 51.16519 47.24201
# Shear Modulus (GPa) = 14.17896 27.81670 20.99783
#
# Velocity S-wave (km/s) = 2.38611 3.34211 2.90372
# Velocity P-wave (km/s) = 4.99859 5.95300 5.49655
#
# Compressibility (1/GPa) = 0.02308465
#
# Stress axis : x y z
#
# Youngs Moduli (GPa) = 120.89868 137.83701 55.91332
#
# Poissons Ratio (x) = 0.16798 0.20302
# Poissons Ratio (y) = 0.14734 0.01754
# Poissons Ratio (z) = 0.43897 0.04323
#
# Static dielectric constant tensor:
#      x y z
#    x 2.096470 0.000000 0.000000 
#    y 0.000000 1.922910 0.000000 
#    z 0.000000 0.000000 2.071970 
# 
# From -- ./inp_files/11665.got.cif
#   From: 2010.05.17/outbox.cif.g08.bks.cpg/sg68_6_cif.got.tgz:11665.got - 2010.06.03 18:57:09.
