data_PCOD9510857
_publ_section_title
;
Structure prediction by ZEFSAII (Michael W. Deem and Ramdas Pophale) SiO2 
 PCOD9510857
Probable space group: C C C A
;
_chemical_formula_sum "Si O2"
_cell_formula_units_Z 68
_cell_length_a 14.481516
_cell_length_b 19.310880
_cell_length_c 9.026946
_cell_angle_alpha 90.000000
_cell_angle_beta 90.000000
_cell_angle_gamma 90.000000
_cell_volume 2524.392830
_symmetry_space_group_name_H-M "C C C A"
_symmetry_group_IT_number 68
_space_group.IT_coordinate_system_code '2'
_symmetry_cell_setting 'orthorhombic'
loop_
_space_group_symop_operation_xyz
x,y,z
-x,1/2-y,z
x,1/2-y,1/2-z
-x,y,1/2-z
-x,-y,-z
x,1/2+y,-z
-x,1/2+y,1/2+z
x,-y,1/2+z
1/2+x,1/2+y,z
1/2-x,-y,z
1/2+x,-y,1/2-z
1/2-x,1/2+y,1/2-z
1/2-x,1/2-y,-z
1/2+x,y,-z
1/2-x,y,1/2+z
1/2+x,1/2-y,1/2+z
loop_
_atom_site_type_symbol
_atom_site_label
_atom_site_fract_x
_atom_site_fract_y
_atom_site_fract_z
Si Si1 0.059132 0.647793 0.020698
Si Si2 0.732476 0.631029 0.573032
Si Si3 0.000000 0.750000 0.750000
Si Si4 0.360635 0.750000 0.750000
Si Si5 0.000000 0.966640 0.250000
Si Si6 0.817474 0.949693 0.675608
O O1 0.163983 0.627578 0.984754
O O2 0.007343 0.582957 0.103014
O O3 0.031132 0.691636 0.874803
O O4 0.077241 0.701146 0.151917
O O5 0.703038 0.703558 0.643299
O O6 0.741700 0.577810 0.707664
O O7 0.664408 0.612551 0.438757
O O8 0.089905 0.016479 0.260943
O O9 0.750000 0.000000 0.582527
#
# Coordination Sequence:
#
# PCOD9510857 Si02
#       6
#    16  16   4   8   8  16
#     4  12  27  52  81 128 171 227 290 374 437 540
#     4  12  26  51  84 121 169 233 292 363 437 524
#     4  12  30  48  84 136 172 222 314 360 464 534
#     4  12  25  53  88 119 177 230 294 364 458 517
#     4  12  28  58  88 125 185 236 286 366 460 528
#     4  12  27  53  80 125 174 229 291 356 438 541
#
# _framework density 26.937169999999998
#
# number of rings (size 3 to 8) (size 9 to 14) (size 15 to 20)
#    0.000    0.000    4.706    3.529    3.294    1.882 
#    8.471    0.000    0.000    0.000    0.000    0.000 
#    0.000    0.000    0.000    0.000    0.000    0.000 
#
# Total GULP energy -189947.117252 kJ/mol
# GULP energy per Si atom -5586.679919 kJ/mol
# Density = 2.687586 g / cm^3
# Si number density = 26.937170 Si / 1000 Ang^3
#
#
#
# Elastic Constant Matrix: (Units=GPa)
#
#
# Indices 1 2 3 4 5 6 
#
# 1 130.3793 67.3688 62.7016 0.0000 0.0000 0.0000
# 2 67.3688 132.4002 61.8672 0.0000 0.0000 0.0000
# 3 62.7016 61.8672 163.8606 0.0000 0.0000 0.0000
# 4 0.0000 0.0000 0.0000 87.1584 0.0000 0.0000
# 5 0.0000 0.0000 0.0000 0.0000 53.4231 0.0000
# 6 0.0000 0.0000 0.0000 0.0000 0.0000 10.2565
#
#
#
# Elastic Compliance Matrix: (Units=1/GPa)
#
#
# Indices 1 2 3 4 5 6 
#
# 1 0.011252 -0.004509 -0.002603 0.000000 0.000000 0.000000
# 2 -0.004509 0.010978 -0.002419 0.000000 0.000000 0.000000
# 3 -0.002603 -0.002419 0.008012 0.000000 0.000000 0.000000
# 4 0.000000 0.000000 0.000000 0.011473 0.000000 0.000000
# 5 0.000000 0.000000 0.000000 0.000000 0.018719 0.000000
# 6 0.000000 0.000000 0.000000 0.000000 0.000000 0.097499
#
#
# Mechanical properties :
#
#
# Convention : Reuss Voigt Hill
#
# Bulk Modulus (GPa) = 89.45421 90.05726 89.75573
# Shear Modulus (GPa) = 27.66697 45.81444 36.74071
#
# Velocity S-wave (km/s) = 3.20831 4.12854 3.69716
# Velocity P-wave (km/s) = 6.85601 7.49876 7.18457
#
# Compressibility (1/GPa) = 0.01117890
#
# Stress axis : x y z
#
# Youngs Moduli (GPa) = 88.87687 91.09505 124.80795
#
# Poissons Ratio (x) = 0.41072 0.32489
# Poissons Ratio (y) = 0.40072 0.30196
# Poissons Ratio (z) = 0.23136 0.22040
#
# Static dielectric constant tensor:
#      x y z
#    x 2.045950 0.000000 0.000000 
#    y 0.000000 5.085940 0.000000 
#    z 0.000000 0.000000 2.476920 
# 
# From -- ./inp_files/5981.got.cif
#   From: 2010.05.17/outbox.cif.g08.bks.cpg/sg68_3_cif.got.tgz:5981.got - 2010.06.03 18:57:09.
