data_PCOD9510148
_publ_section_title
;
Structure prediction by ZEFSAII (Michael W. Deem and Ramdas Pophale) SiO2 
 PCOD9510148
Probable space group: C C C A
;
_chemical_formula_sum "Si O2"
_cell_formula_units_Z 116
_cell_length_a 26.330728
_cell_length_b 21.615179
_cell_length_c 9.340630
_cell_angle_alpha 90.000000
_cell_angle_beta 90.000000
_cell_angle_gamma 90.000000
_cell_volume 5316.157906
_symmetry_space_group_name_H-M "C C C A"
_symmetry_group_IT_number 68
_space_group.IT_coordinate_system_code '2'
_symmetry_cell_setting 'orthorhombic'
loop_
_space_group_symop_operation_xyz
x,y,z
-x,1/2-y,z
x,1/2-y,1/2-z
-x,y,1/2-z
-x,-y,-z
x,1/2+y,-z
-x,1/2+y,1/2+z
x,-y,1/2+z
1/2+x,1/2+y,z
1/2-x,-y,z
1/2+x,-y,1/2-z
1/2-x,1/2+y,1/2-z
1/2-x,1/2-y,-z
1/2+x,y,-z
1/2-x,y,1/2+z
1/2+x,1/2-y,1/2+z
loop_
_atom_site_type_symbol
_atom_site_label
_atom_site_fract_x
_atom_site_fract_y
_atom_site_fract_z
Si Si1 0.356161 0.382381 0.873746
Si Si2 0.967336 0.964173 0.617434
Si Si3 0.332171 0.864396 0.596675
Si Si4 0.917230 0.335952 0.394781
Si Si5 0.233476 0.205928 0.125335
Si Si6 0.000000 0.250000 0.250000
Si Si7 0.115759 0.562247 0.146977
Si Si8 0.302885 0.464602 0.640306
O O1 0.388108 0.346997 0.753910
O O2 0.309645 0.340590 0.924802
O O3 0.328362 0.437408 0.784576
O O4 0.393139 0.397100 0.005776
O O5 0.937987 0.904166 0.559596
O O6 0.000000 0.940334 0.750000
O O7 0.929769 0.016148 0.680936
O O8 0.000000 0.000000 0.500000
O O9 0.373170 0.821744 0.511719
O O10 0.284758 0.829980 0.669705
O O11 0.362806 0.901646 0.717399
O O12 0.306368 0.909843 0.477174
O O13 0.963144 0.290391 0.354427
O O14 0.213595 0.250000 0.250000
O O15 0.250000 0.250000 0.000000
O O16 0.160018 0.518033 0.088705
O O17 0.250000 0.500000 0.664054
#
# Coordination Sequence:
#
# PCOD9510148 Si02
#       8
#    16  16  16  16  16   4  16  16
#     4  11  24  42  66  99 138 175 231 281 341 423
#     4  12  24  42  69 100 137 174 222 288 362 430
#     4  11  24  43  64 100 141 176 231 287 349 421
#     4  11  25  47  72  99 133 180 244 295 346 417
#     4  12  25  43  66  93 132 189 233 280 333 403
#     4  12  28  48  80  98 124 192 260 304 340 414
#     4  12  23  40  66 100 140 173 210 279 363 430
#     4  11  22  38  65  98 140 181 213 263 336 427
#
# _framework density 21.820270000000001
#
# number of rings (size 3 to 8) (size 9 to 14) (size 15 to 20)
#    0.000    0.552    3.448    6.621    2.897    1.103 
#    0.000    0.000    0.000    0.828    0.000    0.000 
#    0.000    0.000    0.000    0.000    0.000    0.000 
#
# Total GULP energy -324171.494064 kJ/mol
# GULP energy per Si atom -5589.163691 kJ/mol
# Density = 2.177061 g / cm^3
# Si number density = 21.820270 Si / 1000 Ang^3
#
#
#
# Elastic Constant Matrix: (Units=GPa)
#
#
# Indices 1 2 3 4 5 6 
#
# 1 88.1701 21.8105 -6.7849 0.0000 0.0000 0.0000
# 2 21.8105 50.4097 14.9126 0.0000 0.0000 0.0000
# 3 -6.7849 14.9126 62.5099 0.0000 0.0000 0.0000
# 4 0.0000 0.0000 0.0000 23.9161 0.0000 0.0000
# 5 0.0000 0.0000 0.0000 0.0000 26.4349 0.0000
# 6 0.0000 0.0000 0.0000 0.0000 0.0000 43.6576
#
#
#
# Elastic Compliance Matrix: (Units=1/GPa)
#
#
# Indices 1 2 3 4 5 6 
#
# 1 0.013207 -0.006604 0.003009 0.000000 0.000000 0.000000
# 2 -0.006604 0.024646 -0.006597 0.000000 0.000000 0.000000
# 3 0.003009 -0.006597 0.017898 0.000000 0.000000 0.000000
# 4 0.000000 0.000000 0.000000 0.041813 0.000000 0.000000
# 5 0.000000 0.000000 0.000000 0.000000 0.037829 0.000000
# 6 0.000000 0.000000 0.000000 0.000000 0.000000 0.022906
#
#
# Mechanical properties :
#
#
# Convention : Reuss Voigt Hill
#
# Bulk Modulus (GPa) = 28.27463 28.99622 28.63543
# Shear Modulus (GPa) = 26.25068 30.21180 28.23124
#
# Velocity S-wave (km/s) = 3.47225 3.72502 3.60086
# Velocity P-wave (km/s) = 5.39087 5.64080 5.51725
#
# Compressibility (1/GPa) = 0.03536740
#
# Stress axis : x y z
#
# Youngs Moduli (GPa) = 75.71748 40.57395 55.87286
#
# Poissons Ratio (x) = 0.26797 -0.16813
# Poissons Ratio (y) = 0.50007 0.36857
# Poissons Ratio (z) = -0.22784 0.26765
#
# Static dielectric constant tensor:
#      x y z
#    x 1.904160 0.000000 0.000000 
#    y 0.000000 1.887450 0.000000 
#    z 0.000000 0.000000 1.851780 
# 
# From -- ./inp_files/9174.got.cif
#   From: 2010.05.17/outbox.cif.g08.bks.cpg/sg68_5_cif.got.tgz:9174.got - 2010.06.03 18:57:09.
