data_PCOD9510526
_publ_section_title
;
Structure prediction by ZEFSAII (Michael W. Deem and Ramdas Pophale) SiO2 
 PCOD9510526
Probable space group: C C C A
;
_chemical_formula_sum "Si O2"
_cell_formula_units_Z 64
_cell_length_a 11.672197
_cell_length_b 22.819699
_cell_length_c 9.515697
_cell_angle_alpha 90.000000
_cell_angle_beta 90.000000
_cell_angle_gamma 90.000000
_cell_volume 2534.563201
_symmetry_space_group_name_H-M "C C C A"
_symmetry_group_IT_number 68
_space_group.IT_coordinate_system_code '2'
_symmetry_cell_setting 'orthorhombic'
loop_
_space_group_symop_operation_xyz
x,y,z
-x,1/2-y,z
x,1/2-y,1/2-z
-x,y,1/2-z
-x,-y,-z
x,1/2+y,-z
-x,1/2+y,1/2+z
x,-y,1/2+z
1/2+x,1/2+y,z
1/2-x,-y,z
1/2+x,-y,1/2-z
1/2-x,1/2+y,1/2-z
1/2-x,1/2-y,-z
1/2+x,y,-z
1/2-x,y,1/2+z
1/2+x,1/2-y,1/2+z
loop_
_atom_site_type_symbol
_atom_site_label
_atom_site_fract_x
_atom_site_fract_y
_atom_site_fract_z
Si Si1 0.040281 0.596803 0.606161
Si Si2 0.128187 0.639394 0.204719
Si Si3 0.767008 0.681934 0.032054
Si Si4 0.135221 0.022380 0.906970
O O1 0.125718 0.642522 0.527789
O O2 0.105168 0.539155 0.663445
O O3 0.000000 0.626958 0.750000
O O4 0.956182 0.558494 0.502570
O O5 0.217897 0.672783 0.302719
O O6 0.149071 0.570329 0.215910
O O7 0.000000 0.655137 0.250000
O O8 0.156489 0.655607 0.044597
O O9 0.750000 0.750000 0.000000
O O10 0.250000 0.000000 0.986327
#
# Coordination Sequence:
#
# PCOD9510526 Si02
#       4
#    16  16  16  16
#     4  11  26  45  78 120 159 209 272 343 424 504
#     4  12  27  53  79 115 160 215 278 351 430 490
#     4  12  29  51  77 112 162 225 283 335 410 510
#     4  11  24  46  81 115 164 203 266 348 440 501
#
# _framework density 25.250900000000001
#
# number of rings (size 3 to 8) (size 9 to 14) (size 15 to 20)
#    0.000    0.500    5.000    1.500    7.000    3.000 
#    0.000    0.000    0.000    0.000    0.000    0.000 
#    0.000    0.000    0.000    0.000    0.000    0.000 
#
# Total GULP energy -178271.248656 kJ/mol
# GULP energy per Si atom -5570.976520 kJ/mol
# Density = 2.519343 g / cm^3
# Si number density = 25.250900 Si / 1000 Ang^3
#
#
#
# Elastic Constant Matrix: (Units=GPa)
#
#
# Indices 1 2 3 4 5 6 
#
# 1 105.6165 7.0397 11.5763 0.0000 0.0000 0.0000
# 2 7.0397 156.9547 6.1762 0.0000 0.0000 0.0000
# 3 11.5763 6.1762 58.9220 0.0000 0.0000 0.0000
# 4 0.0000 0.0000 0.0000 -125.0229 0.0000 0.0000
# 5 0.0000 0.0000 0.0000 0.0000 34.7540 0.0000
# 6 0.0000 0.0000 0.0000 0.0000 0.0000 -21.9480
#
#
#
# Elastic Compliance Matrix: (Units=1/GPa)
#
#
# Indices 1 2 3 4 5 6 
#
# 1 0.009697 -0.000361 -0.001867 0.000000 0.000000 0.000000
# 2 -0.000361 0.006411 -0.000601 0.000000 0.000000 0.000000
# 3 -0.001867 -0.000601 0.017401 0.000000 0.000000 0.000000
# 4 0.000000 0.000000 0.000000 -0.007999 0.000000 0.000000
# 5 0.000000 0.000000 0.000000 0.000000 0.028774 0.000000
# 6 0.000000 0.000000 0.000000 0.000000 0.000000 -0.045562
#
#
# Mechanical properties :
#
#
# Convention : Reuss Voigt Hill
#
# Bulk Modulus (GPa) = 35.90647 41.23084 38.56865
# Shear Modulus (GPa) = 211.28056 -2.66331 104.30863
#
# Velocity S-wave (km/s) = 9.15719 -1.02812 6.43417
# Velocity P-wave (km/s) = 11.22748 3.86711 8.39675
#
# Compressibility (1/GPa) = 0.02785013
#
# Stress axis : x y z
#
# Youngs Moduli (GPa) = 103.12494 155.97878 57.46646
#
# Poissons Ratio (x) = 0.05638 0.10730
# Poissons Ratio (y) = 0.03727 0.03454
# Poissons Ratio (z) = 0.19256 0.09374
#
# Static dielectric constant tensor:
#      x y z
#    x 2.350010 0.000000 0.000000 
#    y 0.000000 2.078660 0.000000 
#    z 0.000000 0.000000 2.095630 
# 
# From -- ./inp_files/11547.got.cif
#   From: 2010.05.17/outbox.cif.g08.bks.cpg/sg68_6_cif.got.tgz:11547.got - 2010.06.03 18:57:09.
