data_PCOD9510440
_publ_section_title
;
Structure prediction by ZEFSAII (Michael W. Deem and Ramdas Pophale) SiO2 
 PCOD9510440
Probable space group: C C C A
;
_chemical_formula_sum "Si O2"
_cell_formula_units_Z 68
_cell_length_a 10.301479
_cell_length_b 14.956620
_cell_length_c 20.507933
_cell_angle_alpha 90.000000
_cell_angle_beta 90.000000
_cell_angle_gamma 90.000000
_cell_volume 3159.766070
_symmetry_space_group_name_H-M "C C C A"
_symmetry_group_IT_number 68
_space_group.IT_coordinate_system_code '2'
_symmetry_cell_setting 'orthorhombic'
loop_
_space_group_symop_operation_xyz
x,y,z
-x,1/2-y,z
x,1/2-y,1/2-z
-x,y,1/2-z
-x,-y,-z
x,1/2+y,-z
-x,1/2+y,1/2+z
x,-y,1/2+z
1/2+x,1/2+y,z
1/2-x,-y,z
1/2+x,-y,1/2-z
1/2-x,1/2+y,1/2-z
1/2-x,1/2-y,-z
1/2+x,y,-z
1/2-x,y,1/2+z
1/2+x,1/2-y,1/2+z
loop_
_atom_site_type_symbol
_atom_site_label
_atom_site_fract_x
_atom_site_fract_y
_atom_site_fract_z
Si Si1 0.000000 0.250000 0.250000
Si Si2 0.895330 0.481416 0.443190
Si Si3 0.811541 0.139131 0.337436
Si Si4 0.366818 0.725964 0.046266
Si Si5 0.547203 0.547627 0.674658
O O1 0.895083 0.181684 0.280027
O O2 0.750000 0.500000 0.467869
O O3 0.885475 0.375232 0.429076
O O4 0.932559 0.541706 0.379707
O O5 0.000000 0.500000 0.500000
O O6 0.846438 0.206372 0.394826
O O7 0.656389 0.125351 0.330693
O O8 0.874522 0.041836 0.344967
O O9 0.500000 0.750000 0.010258
O O10 0.250000 0.750000 0.000000
O O11 0.500000 0.544500 0.750000
#
# Coordination Sequence:
#
# PCOD9510440 Si02
#       5
#     4  16  16  16  16
#     4  12  20  44  70 104 136 198 240 300 376 448
#     4  12  27  46  73 108 151 197 247 308 379 447
#     4  11  24  42  73 101 144 187 246 300 372 447
#     4  12  24  45  70 105 139 191 241 300 367 442
#     4  11  25  45  71 108 145 192 248 311 373 444
#
# _framework density 21.520581
#
# number of rings (size 3 to 8) (size 9 to 14) (size 15 to 20)
#    0.000    0.471    4.706    2.824    6.588    0.000 
#    0.000    2.941    0.000    0.000    0.000    0.000 
#    0.000    0.000    0.000    0.000    0.000    0.000 
#
# Total GULP energy -189578.090697 kJ/mol
# GULP energy per Si atom -5575.826197 kJ/mol
# Density = 2.147160 g / cm^3
# Si number density = 21.520581 Si / 1000 Ang^3
#
#
#
# Elastic Constant Matrix: (Units=GPa)
#
#
# Indices 1 2 3 4 5 6 
#
# 1 181.5725 51.6949 54.0301 0.0000 0.0000 0.0000
# 2 51.6949 96.7327 24.7976 0.0000 0.0000 0.0000
# 3 54.0301 24.7976 78.4936 0.0000 0.0000 0.0000
# 4 0.0000 0.0000 0.0000 12.7644 0.0000 0.0000
# 5 0.0000 0.0000 0.0000 0.0000 28.1377 0.0000
# 6 0.0000 0.0000 0.0000 0.0000 0.0000 40.5678
#
#
#
# Elastic Compliance Matrix: (Units=1/GPa)
#
#
# Indices 1 2 3 4 5 6 
#
# 1 0.007640 -0.002976 -0.004319 0.000000 0.000000 0.000000
# 2 -0.002976 0.012408 -0.001872 0.000000 0.000000 0.000000
# 3 -0.004319 -0.001872 0.016304 0.000000 0.000000 0.000000
# 4 0.000000 0.000000 0.000000 0.078343 0.000000 0.000000
# 5 0.000000 0.000000 0.000000 0.000000 0.035540 0.000000
# 6 0.000000 0.000000 0.000000 0.000000 0.000000 0.024650
#
#
# Mechanical properties :
#
#
# Convention : Reuss Voigt Hill
#
# Bulk Modulus (GPa) = 55.49526 68.64935 62.07230
# Shear Modulus (GPa) = 25.09761 31.37906 28.23834
#
# Velocity S-wave (km/s) = 3.41869 3.82264 3.62630
# Velocity P-wave (km/s) = 6.43633 7.17301 6.81463
#
# Compressibility (1/GPa) = 0.01801956
#
# Stress axis : x y z
#
# Youngs Moduli (GPa) = 130.89489 80.59469 61.33521
#
# Poissons Ratio (x) = 0.23982 0.26488
# Poissons Ratio (y) = 0.38950 0.11479
# Poissons Ratio (z) = 0.56529 0.15084
#
# Static dielectric constant tensor:
#      x y z
#    x 1.805560 0.000000 0.000000 
#    y 0.000000 1.771940 0.000000 
#    z 0.000000 0.000000 1.850210 
# 
# From -- ./inp_files/35876.got.cif
#   From: 2010.05.17/outbox.cif.g08.bks.cpg/sg68_18_cif.got.tgz:35876.got - 2010.06.03 18:57:09.
