data_PCOD9510000
_publ_section_title
;
Structure prediction by ZEFSAII (Michael W. Deem and Ramdas Pophale) SiO2 
 PCOD9510000
Probable space group: C C C A
;
_chemical_formula_sum "Si O2"
_cell_formula_units_Z 80
_cell_length_a 16.287185
_cell_length_b 19.543850
_cell_length_c 11.287161
_cell_angle_alpha 90.000000
_cell_angle_beta 90.000000
_cell_angle_gamma 90.000000
_cell_volume 3592.864759
_symmetry_space_group_name_H-M "C C C A"
_symmetry_group_IT_number 68
_space_group.IT_coordinate_system_code '2'
_symmetry_cell_setting 'orthorhombic'
loop_
_space_group_symop_operation_xyz
x,y,z
-x,1/2-y,z
x,1/2-y,1/2-z
-x,y,1/2-z
-x,-y,-z
x,1/2+y,-z
-x,1/2+y,1/2+z
x,-y,1/2+z
1/2+x,1/2+y,z
1/2-x,-y,z
1/2+x,-y,1/2-z
1/2-x,1/2+y,1/2-z
1/2-x,1/2-y,-z
1/2+x,y,-z
1/2-x,y,1/2+z
1/2+x,1/2-y,1/2+z
loop_
_atom_site_type_symbol
_atom_site_label
_atom_site_fract_x
_atom_site_fract_y
_atom_site_fract_z
Si Si1 0.127177 0.250000 0.250000
Si Si2 0.463611 0.900015 0.528441
Si Si3 0.500000 0.250000 0.963967
Si Si4 0.219090 0.423228 0.026763
Si Si5 0.276005 0.388729 0.775355
Si Si6 0.931981 0.028949 0.340223
O O1 0.074357 0.243979 0.129931
O O2 0.179974 0.182288 0.249820
O O3 0.483128 0.819677 0.536514
O O4 0.379065 0.913407 0.454340
O O5 0.541977 0.934093 0.462537
O O6 0.444122 0.948136 0.640643
O O7 0.250000 0.500000 0.005201
O O8 0.265600 0.403254 0.148399
O O9 0.232886 0.383795 0.902945
O O10 0.343246 0.448605 0.797347
O O11 0.000000 0.055439 0.250000
#
# Coordination Sequence:
#
# PCOD9510000 Si02
#       6
#     8  16   8  16  16  16
#     4  11  22  40  70  96 132 187 236 298 351 430
#     4  11  23  40  70 101 131 182 238 303 359 417
#     4  11  20  42  69  98 130 173 246 298 345 421
#     4  12  25  43  67 104 147 188 231 301 369 441
#     4  12  25  43  70 102 146 188 240 296 368 440
#     4  11  21  41  69 100 129 179 242 300 349 427
#
# _framework density 22.266355000000001
#
# number of rings (size 3 to 8) (size 9 to 14) (size 15 to 20)
#    0.000    0.600    8.000    0.600    0.000    0.800 
#    0.000    0.500    0.000    0.000    0.000    0.000 
#    0.000    0.000    0.000    0.000    0.000    0.000 
#
# Total GULP energy -223110.592174 kJ/mol
# GULP energy per Si atom -5577.764804 kJ/mol
# Density = 2.221568 g / cm^3
# Si number density = 22.266355 Si / 1000 Ang^3
#
#
#
# Elastic Constant Matrix: (Units=GPa)
#
#
# Indices 1 2 3 4 5 6 
#
# 1 40.0116 19.4085 26.2956 0.0000 0.0000 0.0000
# 2 19.4085 154.8686 18.9259 0.0000 0.0000 0.0000
# 3 26.2956 18.9259 109.2409 0.0000 0.0000 0.0000
# 4 0.0000 0.0000 0.0000 30.8575 0.0000 0.0000
# 5 0.0000 0.0000 0.0000 0.0000 0.8497 0.0000
# 6 0.0000 0.0000 0.0000 0.0000 0.0000 -11.7271
#
#
#
# Elastic Compliance Matrix: (Units=1/GPa)
#
#
# Indices 1 2 3 4 5 6 
#
# 1 0.031030 -0.003040 -0.006943 0.000000 0.000000 0.000000
# 2 -0.003040 0.006895 -0.000463 0.000000 0.000000 0.000000
# 3 -0.006943 -0.000463 0.010905 0.000000 0.000000 0.000000
# 4 0.000000 0.000000 0.000000 0.032407 0.000000 0.000000
# 5 0.000000 0.000000 0.000000 0.000000 1.176857 0.000000
# 6 0.000000 0.000000 0.000000 0.000000 0.000000 -0.085272
#
#
# Mechanical properties :
#
#
# Convention : Reuss Voigt Hill
#
# Bulk Modulus (GPa) = 35.79220 48.15346 41.97283
# Shear Modulus (GPa) = 4.15619 19.96210 12.05914
#
# Velocity S-wave (km/s) = 1.36771 2.99743 2.32972
# Velocity P-wave (km/s) = 4.31319 5.80108 5.11156
#
# Compressibility (1/GPa) = 0.02793905
#
# Stress axis : x y z
#
# Youngs Moduli (GPa) = 32.22670 145.04006 91.69766
#
# Poissons Ratio (x) = 0.44097 0.63662
# Poissons Ratio (y) = 0.09798 0.04242
# Poissons Ratio (z) = 0.22374 0.06710
#
# Static dielectric constant tensor:
#      x y z
#    x 1.875690 0.000000 0.000000 
#    y 0.000000 1.820470 0.000000 
#    z 0.000000 0.000000 1.924920 
# 
# From -- ./inp_files/15372.got.cif
#   From: 2010.05.17/outbox.cif.g08.bks.cpg/sg68_8_cif.got.tgz:15372.got - 2010.06.03 18:57:09.
