data_PCOD9510779
_publ_section_title
;
Structure prediction by ZEFSAII (Michael W. Deem and Ramdas Pophale) SiO2 
 PCOD9510779
Probable space group: C C C A
;
_chemical_formula_sum "Si O2"
_cell_formula_units_Z 96
_cell_length_a 15.816211
_cell_length_b 10.995109
_cell_length_c 26.311419
_cell_angle_alpha 90.000000
_cell_angle_beta 90.000000
_cell_angle_gamma 90.000000
_cell_volume 4575.581126
_symmetry_space_group_name_H-M "C C C A"
_symmetry_group_IT_number 68
_space_group.IT_coordinate_system_code '2'
_symmetry_cell_setting 'orthorhombic'
loop_
_space_group_symop_operation_xyz
x,y,z
-x,1/2-y,z
x,1/2-y,1/2-z
-x,y,1/2-z
-x,-y,-z
x,1/2+y,-z
-x,1/2+y,1/2+z
x,-y,1/2+z
1/2+x,1/2+y,z
1/2-x,-y,z
1/2+x,-y,1/2-z
1/2-x,1/2+y,1/2-z
1/2-x,1/2-y,-z
1/2+x,y,-z
1/2-x,y,1/2+z
1/2+x,1/2-y,1/2+z
loop_
_atom_site_type_symbol
_atom_site_label
_atom_site_fract_x
_atom_site_fract_y
_atom_site_fract_z
Si Si1 0.860246 0.249866 0.691956
Si Si2 0.270787 0.754997 0.102981
Si Si3 0.564908 0.594567 0.100834
Si Si4 0.000000 0.250000 0.487635
Si Si5 0.494314 0.456222 0.191756
Si Si6 0.750000 0.500000 0.449783
Si Si7 0.647628 0.105488 0.464256
O O1 0.829199 0.250000 0.750000
O O2 0.786626 0.273387 0.652271
O O3 0.930818 0.355537 0.688110
O O4 0.909033 0.121912 0.682994
O O5 0.365364 0.801973 0.112083
O O6 0.257091 0.617775 0.085076
O O7 0.232919 0.833160 0.056233
O O8 0.516082 0.639466 0.051002
O O9 0.509557 0.557770 0.149238
O O10 0.611797 0.473730 0.081624
O O11 0.919551 0.290775 0.520498
O O12 0.500000 0.501695 0.250000
O O13 0.670847 0.519807 0.488140
#
# Coordination Sequence:
#
# PCOD9510779 Si02
#       7
#    16  16  16   8  16   8  16
#     4   9  20  40  66  96 123 162 220 267 317 389
#     4  12  24  41  67  95 129 172 218 272 326 388
#     4  12  24  42  64  96 131 170 215 268 330 388
#     4  12  28  40  57  98 137 172 216 258 320 404
#     4   9  20  40  67  95 124 164 214 270 324 385
#     4  12  24  42  60  94 140 174 212 268 334 382
#     4  12  24  43  66  92 129 177 222 268 318 387
#
# _framework density 20.980941999999999
#
# number of rings (size 3 to 8) (size 9 to 14) (size 15 to 20)
#    0.000    1.000    5.000    3.000    4.667    0.000 
#    0.000    5.417    0.000    0.000    0.000    0.000 
#    0.000    0.000    0.000    0.000    0.000    0.000 
#
# Total GULP energy -268239.180988 kJ/mol
# GULP energy per Si atom -5588.316271 kJ/mol
# Density = 2.093319 g / cm^3
# Si number density = 20.980942 Si / 1000 Ang^3
#
#
#
# Elastic Constant Matrix: (Units=GPa)
#
#
# Indices 1 2 3 4 5 6 
#
# 1 53.6643 5.9339 32.6940 0.0000 0.0000 0.0000
# 2 5.9339 83.8408 34.2710 0.0000 0.0000 0.0000
# 3 32.6940 34.2710 93.4108 0.0000 0.0000 0.0000
# 4 0.0000 0.0000 0.0000 411.2103 0.0000 0.0000
# 5 0.0000 0.0000 0.0000 0.0000 -2.6775 0.0000
# 6 0.0000 0.0000 0.0000 0.0000 0.0000 24.7166
#
#
#
# Elastic Compliance Matrix: (Units=1/GPa)
#
#
# Indices 1 2 3 4 5 6 
#
# 1 0.023977 0.002039 -0.009140 0.000000 0.000000 0.000000
# 2 0.002039 0.014205 -0.005925 0.000000 0.000000 0.000000
# 3 -0.009140 -0.005925 0.016078 0.000000 0.000000 0.000000
# 4 0.000000 0.000000 0.000000 0.002432 0.000000 0.000000
# 5 0.000000 0.000000 0.000000 0.000000 -0.373488 0.000000
# 6 0.000000 0.000000 0.000000 0.000000 0.000000 0.040459
#
#
# Mechanical properties :
#
#
# Convention : Reuss Voigt Hill
#
# Bulk Modulus (GPa) = 35.45087 41.85708 38.65398
# Shear Modulus (GPa) = -20.75717 97.18434 38.21359
#
# Velocity S-wave (km/s) = -3.14878 6.81329 4.27235
# Velocity P-wave (km/s) = 1.92707 9.04919 6.54223
#
# Compressibility (1/GPa) = 0.02820805
#
# Stress axis : x y z
#
# Youngs Moduli (GPa) = 41.70585 70.39721 62.19493
#
# Poissons Ratio (x) = -0.14356 0.56848
# Poissons Ratio (y) = -0.08505 0.36853
# Poissons Ratio (z) = 0.38121 0.41713
#
# Static dielectric constant tensor:
#      x y z
#    x 1.757540 0.000000 0.000000 
#    y 0.000000 1.804600 0.000000 
#    z 0.000000 0.000000 1.737330 
# 
# From -- ./inp_files/46025.got.cif
#   From: 2010.05.17/outbox.cif.g08.bks.cpg/sg68_24_cif.got.tgz:46025.got - 2010.06.03 18:57:09.
