data_PCOD9510139
_publ_section_title
;
Structure prediction by ZEFSAII (Michael W. Deem and Ramdas Pophale) SiO2 
 PCOD9510139
Probable space group: C C C A
;
_chemical_formula_sum "Si O2"
_cell_formula_units_Z 88
_cell_length_a 22.274930
_cell_length_b 19.439855
_cell_length_c 8.885981
_cell_angle_alpha 90.000000
_cell_angle_beta 90.000000
_cell_angle_gamma 90.000000
_cell_volume 3847.820016
_symmetry_space_group_name_H-M "C C C A"
_symmetry_group_IT_number 68
_space_group.IT_coordinate_system_code '2'
_symmetry_cell_setting 'orthorhombic'
loop_
_space_group_symop_operation_xyz
x,y,z
-x,1/2-y,z
x,1/2-y,1/2-z
-x,y,1/2-z
-x,-y,-z
x,1/2+y,-z
-x,1/2+y,1/2+z
x,-y,1/2+z
1/2+x,1/2+y,z
1/2-x,-y,z
1/2+x,-y,1/2-z
1/2-x,1/2+y,1/2-z
1/2-x,1/2-y,-z
1/2+x,y,-z
1/2-x,y,1/2+z
1/2+x,1/2-y,1/2+z
loop_
_atom_site_type_symbol
_atom_site_label
_atom_site_fract_x
_atom_site_fract_y
_atom_site_fract_z
Si Si1 0.315615 0.187995 0.868114
Si Si2 0.285648 0.133181 0.191244
Si Si3 0.069299 0.641013 0.752772
Si Si4 0.750000 0.000000 0.927835
Si Si5 0.043429 0.988280 0.360784
Si Si6 0.851809 0.893359 0.036633
O O1 0.302551 0.250000 0.750000
O O2 0.279617 0.130864 0.772047
O O3 0.386902 0.176501 0.867760
O O4 0.292249 0.179370 0.040115
O O5 0.328854 0.155320 0.328197
O O6 0.296350 0.053110 0.150723
O O7 0.063249 0.560479 0.711437
O O8 0.000000 0.666160 0.750000
O O9 0.110060 0.644590 0.904866
O O10 0.705631 0.057569 0.999267
O O11 0.100360 0.946058 0.401261
O O12 0.000000 0.947376 0.250000
O O13 0.000000 0.000000 0.500000
#
# Coordination Sequence:
#
# PCOD9510139 Si02
#       6
#    16  16  16   8  16  16
#     4  12  26  47  68  94 131 184 240 287 345 419
#     4  12  25  41  68 101 138 180 225 299 365 430
#     4  11  23  43  63  93 135 177 232 283 342 415
#     4  12  22  40  66 100 146 170 222 294 376 436
#     4  11  22  38  61  96 141 186 218 275 353 436
#     4  12  23  39  62 101 138 179 223 278 362 443
#
# _framework density 22.870092
#
# number of rings (size 3 to 8) (size 9 to 14) (size 15 to 20)
#    0.000    0.364    7.273    3.273    2.545    0.364 
#    0.000    0.000    0.000    0.000    0.000    5.091 
#    0.000    0.000    0.000    0.000    0.000    0.000 
#
# Total GULP energy -244972.134975 kJ/mol
# GULP energy per Si atom -5567.548522 kJ/mol
# Density = 2.281804 g / cm^3
# Si number density = 22.870092 Si / 1000 Ang^3
#
#
#
# Elastic Constant Matrix: (Units=GPa)
#
#
# Indices 1 2 3 4 5 6 
#
# 1 153.3264 -2.2807 72.2521 0.0000 0.0000 0.0000
# 2 -2.2807 52.8123 19.2681 0.0000 0.0000 0.0000
# 3 72.2521 19.2681 154.2082 0.0000 0.0000 0.0000
# 4 0.0000 0.0000 0.0000 9.6624 0.0000 0.0000
# 5 0.0000 0.0000 0.0000 0.0000 48.9710 0.0000
# 6 0.0000 0.0000 0.0000 0.0000 0.0000 7.8462
#
#
#
# Elastic Compliance Matrix: (Units=1/GPa)
#
#
# Indices 1 2 3 4 5 6 
#
# 1 0.008552 0.001919 -0.004246 0.000000 0.000000 0.000000
# 2 0.001919 0.020270 -0.003432 0.000000 0.000000 0.000000
# 3 -0.004246 -0.003432 0.008903 0.000000 0.000000 0.000000
# 4 0.000000 0.000000 0.000000 0.103494 0.000000 0.000000
# 5 0.000000 0.000000 0.000000 0.000000 0.020420 0.000000
# 6 0.000000 0.000000 0.000000 0.000000 0.000000 0.127450
#
#
# Mechanical properties :
#
#
# Convention : Reuss Voigt Hill
#
# Bulk Modulus (GPa) = 38.15979 59.86956 49.01467
# Shear Modulus (GPa) = 16.16328 31.36974 23.76651
#
# Velocity S-wave (km/s) = 2.66135 3.70760 3.22715
# Velocity P-wave (km/s) = 5.11521 6.67557 5.94679
#
# Compressibility (1/GPa) = 0.02620560
#
# Stress axis : x y z
#
# Youngs Moduli (GPa) = 116.93659 49.33442 112.31991
#
# Poissons Ratio (x) = -0.09465 0.47696
# Poissons Ratio (y) = -0.22435 0.38544
# Poissons Ratio (z) = 0.49657 0.16930
#
# Static dielectric constant tensor:
#      x y z
#    x 1.889020 0.000000 0.000000 
#    y 0.000000 1.879740 0.000000 
#    z 0.000000 0.000000 1.921870 
# 
# From -- ./inp_files/8000.got.cif
#   From: 2010.05.17/outbox.cif.g08.bks.cpg/sg68_4_cif.got.tgz:8000.got - 2010.06.03 18:57:09.
