data_PCOD9510004
_publ_section_title
;
Structure prediction by ZEFSAII (Michael W. Deem and Ramdas Pophale) SiO2 
 PCOD9510004
Probable space group: C C C A
;
_chemical_formula_sum "Si O2"
_cell_formula_units_Z 64
_cell_length_a 10.545171
_cell_length_b 16.897211
_cell_length_c 14.633674
_cell_angle_alpha 90.000000
_cell_angle_beta 90.000000
_cell_angle_gamma 90.000000
_cell_volume 2607.486267
_symmetry_space_group_name_H-M "C C C A"
_symmetry_group_IT_number 68
_space_group.IT_coordinate_system_code '2'
_symmetry_cell_setting 'orthorhombic'
loop_
_space_group_symop_operation_xyz
x,y,z
-x,1/2-y,z
x,1/2-y,1/2-z
-x,y,1/2-z
-x,-y,-z
x,1/2+y,-z
-x,1/2+y,1/2+z
x,-y,1/2+z
1/2+x,1/2+y,z
1/2-x,-y,z
1/2+x,-y,1/2-z
1/2-x,1/2+y,1/2-z
1/2-x,1/2-y,-z
1/2+x,y,-z
1/2-x,y,1/2+z
1/2+x,1/2-y,1/2+z
loop_
_atom_site_type_symbol
_atom_site_label
_atom_site_fract_x
_atom_site_fract_y
_atom_site_fract_z
Si Si1 0.794111 0.590999 0.841097
Si Si2 0.485901 0.098061 0.357616
Si Si3 0.701118 0.663229 0.519498
Si Si4 0.869099 0.941433 0.858692
O O1 0.750000 0.500000 0.849602
O O2 0.656701 0.630400 0.861783
O O3 0.861166 0.600147 0.742357
O O4 0.864081 0.626021 0.928627
O O5 0.500000 0.095447 0.250000
O O6 0.591058 0.151835 0.405122
O O7 0.519019 0.004722 0.380547
O O8 0.750000 0.750000 0.500000
O O9 0.822587 0.614756 0.560027
O O10 0.750000 0.000000 0.849662
#
# Coordination Sequence:
#
# PCOD9510004 Si02
#       4
#    16  16  16  16
#     4  11  21  39  70 100 124 180 237 299 351 410
#     4  11  20  44  72  95 133 182 235 299 353 410
#     4  11  25  40  60 103 147 177 224 283 356 445
#     4   9  19  39  64  97 129 169 238 292 340 409
#
# _framework density 24.544709999999998
#
# number of rings (size 3 to 8) (size 9 to 14) (size 15 to 20)
#    0.000    1.500    7.500    2.250    0.000    6.000 
#    0.000    1.250    0.000    0.000    0.000    0.000 
#    0.000    0.000    0.000    0.000    0.000    0.000 
#
# Total GULP energy -178344.921064 kJ/mol
# GULP energy per Si atom -5573.278783 kJ/mol
# Density = 2.448885 g / cm^3
# Si number density = 24.544710 Si / 1000 Ang^3
#
#
#
# Elastic Constant Matrix: (Units=GPa)
#
#
# Indices 1 2 3 4 5 6 
#
# 1 106.3976 8.2934 -26.2130 0.0000 0.0000 0.0000
# 2 8.2934 102.9115 64.1181 0.0000 0.0000 0.0000
# 3 -26.2130 64.1181 110.6792 0.0000 0.0000 0.0000
# 4 0.0000 0.0000 0.0000 -13.7595 0.0000 0.0000
# 5 0.0000 0.0000 0.0000 0.0000 24.9375 0.0000
# 6 0.0000 0.0000 0.0000 0.0000 0.0000 24.2466
#
#
#
# Elastic Compliance Matrix: (Units=1/GPa)
#
#
# Indices 1 2 3 4 5 6 
#
# 1 0.010892 -0.003889 0.004832 0.000000 0.000000 0.000000
# 2 -0.003889 0.016593 -0.010534 0.000000 0.000000 0.000000
# 3 0.004832 -0.010534 0.016282 0.000000 0.000000 0.000000
# 4 0.000000 0.000000 0.000000 -0.072677 0.000000 0.000000
# 5 0.000000 0.000000 0.000000 0.000000 0.040100 0.000000
# 6 0.000000 0.000000 0.000000 0.000000 0.000000 0.041243
#
#
# Mechanical properties :
#
#
# Convention : Reuss Voigt Hill
#
# Bulk Modulus (GPa) = 40.67037 45.82060 43.24548
# Shear Modulus (GPa) = 62.64902 25.33758 43.99330
#
# Velocity S-wave (km/s) = 5.05765 3.21643 4.23824
# Velocity P-wave (km/s) = 7.12126 5.70111 6.45039
#
# Compressibility (1/GPa) = 0.02458792
#
# Stress axis : x y z
#
# Youngs Moduli (GPa) = 91.80736 60.26478 61.41749
#
# Poissons Ratio (x) = 0.23435 -0.29680
# Poissons Ratio (y) = 0.35700 0.64696
# Poissons Ratio (z) = -0.44365 0.63482
#
# Static dielectric constant tensor:
#      x y z
#    x 2.361010 0.000000 0.000000 
#    y 0.000000 1.935350 0.000000 
#    z 0.000000 0.000000 2.129970 
# 
# From -- ./inp_files/21902.got.cif
#   From: 2010.05.17/outbox.cif.g08.bks.cpg/sg68_11_cif.got.tgz:21902.got - 2010.06.03 18:57:09.
