data_PCOD9510748
_publ_section_title
;
Structure prediction by ZEFSAII (Michael W. Deem and Ramdas Pophale) SiO2 
 PCOD9510748
Probable space group: C C C A
;
_chemical_formula_sum "Si O2"
_cell_formula_units_Z 64
_cell_length_a 9.797721
_cell_length_b 12.504799
_cell_length_c 21.616291
_cell_angle_alpha 90.000000
_cell_angle_beta 90.000000
_cell_angle_gamma 90.000000
_cell_volume 2648.396235
_symmetry_space_group_name_H-M "C C C A"
_symmetry_group_IT_number 68
_space_group.IT_coordinate_system_code '2'
_symmetry_cell_setting 'orthorhombic'
loop_
_space_group_symop_operation_xyz
x,y,z
-x,1/2-y,z
x,1/2-y,1/2-z
-x,y,1/2-z
-x,-y,-z
x,1/2+y,-z
-x,1/2+y,1/2+z
x,-y,1/2+z
1/2+x,1/2+y,z
1/2-x,-y,z
1/2+x,-y,1/2-z
1/2-x,1/2+y,1/2-z
1/2-x,1/2-y,-z
1/2+x,y,-z
1/2-x,y,1/2+z
1/2+x,1/2-y,1/2+z
loop_
_atom_site_type_symbol
_atom_site_label
_atom_site_fract_x
_atom_site_fract_y
_atom_site_fract_z
Si Si1 0.602785 0.162867 0.131131
Si Si2 0.358134 0.301767 0.883273
Si Si3 0.632460 0.925162 0.500835
Si Si4 0.596312 0.005417 0.799592
O O1 0.500000 0.250000 0.103593
O O2 0.735086 0.234974 0.148379
O O3 0.504915 0.093501 0.177780
O O4 0.655062 0.096903 0.073102
O O5 0.500000 0.250000 0.866406
O O6 0.359249 0.319888 0.957643
O O7 0.370236 0.421227 0.857560
O O8 0.500000 0.000000 0.500000
O O9 0.750000 0.000000 0.476245
O O10 0.500000 0.062125 0.750000
O O11 0.750000 0.000000 0.770609
#
# Coordination Sequence:
#
# PCOD9510748 Si02
#       4
#    16  16  16  16
#     4  12  25  47  77 108 150 195 245 304 383 455
#     4  12  26  47  74 114 150 195 250 306 377 458
#     4  12  23  42  76 108 154 196 235 303 379 446
#     4  12  29  53  77 105 149 198 257 323 382 450
#
# _framework density 24.165565999999998
#
# number of rings (size 3 to 8) (size 9 to 14) (size 15 to 20)
#    0.000    0.000    5.000    5.250    3.500    1.000 
#    0.000    0.000    0.000    0.000    0.000    0.000 
#    0.000    0.000    0.000    0.000    0.000    0.000 
#
# Total GULP energy -178239.639030 kJ/mol
# GULP energy per Si atom -5569.988720 kJ/mol
# Density = 2.411056 g / cm^3
# Si number density = 24.165566 Si / 1000 Ang^3
#
#
#
# Elastic Constant Matrix: (Units=GPa)
#
#
# Indices 1 2 3 4 5 6 
#
# 1 226.3832 62.9158 27.9628 0.0000 0.0000 0.0000
# 2 62.9158 75.4874 12.9714 0.0000 0.0000 0.0000
# 3 27.9628 12.9714 71.7492 0.0000 0.0000 0.0000
# 4 0.0000 0.0000 0.0000 13.3398 0.0000 0.0000
# 5 0.0000 0.0000 0.0000 0.0000 18.2740 0.0000
# 6 0.0000 0.0000 0.0000 0.0000 0.0000 59.6053
#
#
#
# Elastic Compliance Matrix: (Units=1/GPa)
#
#
# Indices 1 2 3 4 5 6 
#
# 1 0.005892 -0.004661 -0.001454 0.000000 0.000000 0.000000
# 2 -0.004661 0.017359 -0.001322 0.000000 0.000000 0.000000
# 3 -0.001454 -0.001322 0.014743 0.000000 0.000000 0.000000
# 4 0.000000 0.000000 0.000000 0.074964 0.000000 0.000000
# 5 0.000000 0.000000 0.000000 0.000000 0.054722 0.000000
# 6 0.000000 0.000000 0.000000 0.000000 0.000000 0.016777
#
#
# Mechanical properties :
#
#
# Convention : Reuss Voigt Hill
#
# Bulk Modulus (GPa) = 43.25033 64.59108 53.92071
# Shear Modulus (GPa) = 24.15016 36.22847 30.18932
#
# Velocity S-wave (km/s) = 3.16470 3.87612 3.53834
# Velocity P-wave (km/s) = 5.59376 6.84244 6.24937
#
# Compressibility (1/GPa) = 0.02312121
#
# Stress axis : x y z
#
# Youngs Moduli (GPa) = 169.71378 57.60604 67.82907
#
# Poissons Ratio (x) = 0.26851 0.09860
# Poissons Ratio (y) = 0.79107 0.08965
# Poissons Ratio (z) = 0.24671 0.07614
#
# Static dielectric constant tensor:
#      x y z
#    x 2.503950 0.000000 0.000000 
#    y 0.000000 1.990150 0.000000 
#    z 0.000000 0.000000 1.705070 
# 
# From -- ./inp_files/42747.got.cif
#   From: 2010.05.17/outbox.cif.g08.bks.cpg/sg68_22_cif.got.tgz:42747.got - 2010.06.03 18:57:09.
