data_PCOD9510864
_publ_section_title
;
Structure prediction by ZEFSAII (Michael W. Deem and Ramdas Pophale) SiO2 
 PCOD9510864
Probable space group: C C C A
;
_chemical_formula_sum "Si O2"
_cell_formula_units_Z 68
_cell_length_a 18.533293
_cell_length_b 8.559710
_cell_length_c 18.855736
_cell_angle_alpha 90.000000
_cell_angle_beta 90.000000
_cell_angle_gamma 90.000000
_cell_volume 2991.266670
_symmetry_space_group_name_H-M "C C C A"
_symmetry_group_IT_number 68
_space_group.IT_coordinate_system_code '2'
_symmetry_cell_setting 'orthorhombic'
loop_
_space_group_symop_operation_xyz
x,y,z
-x,1/2-y,z
x,1/2-y,1/2-z
-x,y,1/2-z
-x,-y,-z
x,1/2+y,-z
-x,1/2+y,1/2+z
x,-y,1/2+z
1/2+x,1/2+y,z
1/2-x,-y,z
1/2+x,-y,1/2-z
1/2-x,1/2+y,1/2-z
1/2-x,1/2-y,-z
1/2+x,y,-z
1/2-x,y,1/2+z
1/2+x,1/2-y,1/2+z
loop_
_atom_site_type_symbol
_atom_site_label
_atom_site_fract_x
_atom_site_fract_y
_atom_site_fract_z
Si Si1 0.750000 0.500000 0.852937
Si Si2 0.817424 0.250000 0.750000
Si Si3 0.618963 0.957065 0.335983
Si Si4 0.816987 0.271586 0.443384
Si Si5 0.051581 0.372741 0.965186
Si Si6 0.000000 0.250000 0.250000
O O1 0.772595 0.352375 0.806402
O O2 0.811228 0.558990 0.906239
O O3 0.858167 0.397591 0.713767
O O4 0.593799 0.042014 0.405617
O O5 0.678404 0.846317 0.375718
O O6 0.555818 0.854518 0.297805
O O7 0.750000 0.250000 0.500000
O O8 0.892932 0.281268 0.484085
O O9 0.000000 0.250000 0.928470
O O10 0.000000 0.500000 0.000000
#
# Coordination Sequence:
#
# PCOD9510864 Si02
#       6
#     8   8  16  16  16   4
#     4  12  26  46  74 104 154 186 256 302 384 446
#     4  12  28  46  74 110 152 208 256 314 378 477
#     4  12  27  48  75 110 154 200 261 307 396 458
#     4  12  26  50  78 114 149 199 255 332 392 459
#     4  12  26  47  75 110 148 193 251 322 390 458
#     4  12  28  52  76 108 166 214 258 326 380 496
#
# _framework density 22.732844
#
# number of rings (size 3 to 8) (size 9 to 14) (size 15 to 20)
#    0.000    0.000    2.353    7.059    6.588    1.882 
#    0.000    0.000    0.000    0.000    0.000    0.000 
#    0.000    0.000    0.000    0.000    0.000    0.000 
#
# Total GULP energy -189460.061607 kJ/mol
# GULP energy per Si atom -5572.354753 kJ/mol
# Density = 2.268110 g / cm^3
# Si number density = 22.732844 Si / 1000 Ang^3
#
#
#
# Elastic Constant Matrix: (Units=GPa)
#
#
# Indices 1 2 3 4 5 6 
#
# 1 85.4702 60.8584 37.6310 0.0000 0.0000 0.0000
# 2 60.8584 156.3245 60.4060 0.0000 0.0000 0.0000
# 3 37.6310 60.4060 95.9301 0.0000 0.0000 0.0000
# 4 0.0000 0.0000 0.0000 -6.1946 0.0000 0.0000
# 5 0.0000 0.0000 0.0000 0.0000 -110.9793 0.0000
# 6 0.0000 0.0000 0.0000 0.0000 0.0000 66.9048
#
#
#
# Elastic Compliance Matrix: (Units=1/GPa)
#
#
# Indices 1 2 3 4 5 6 
#
# 1 0.016940 -0.005322 -0.003294 0.000000 0.000000 0.000000
# 2 -0.005322 0.010126 -0.004289 0.000000 0.000000 0.000000
# 3 -0.003294 -0.004289 0.014417 0.000000 0.000000 0.000000
# 4 0.000000 0.000000 0.000000 -0.161432 0.000000 0.000000
# 5 0.000000 0.000000 0.000000 0.000000 -0.009011 0.000000
# 6 0.000000 0.000000 0.000000 0.000000 0.000000 0.014947
#
#
# Mechanical properties :
#
#
# Convention : Reuss Voigt Hill
#
# Bulk Modulus (GPa) = 63.80085 72.83506 68.31796
# Shear Modulus (GPa) = -60.25540 1.86815 -29.19363
#
# Velocity S-wave (km/s) = -5.15397 0.90751 -3.58747
# Velocity P-wave (km/s) = 2.70027 5.76257 3.59970
#
# Compressibility (1/GPa) = 0.01567377
#
# Stress axis : x y z
#
# Youngs Moduli (GPa) = 59.03302 98.75586 69.36362
#
# Poissons Ratio (x) = 0.52558 0.22847
# Poissons Ratio (y) = 0.31417 0.29747
# Poissons Ratio (z) = 0.19444 0.42352
#
# Static dielectric constant tensor:
#      x y z
#    x 1.735870 0.000000 0.000000 
#    y 0.000000 1.671570 0.000000 
#    z 0.000000 0.000000 1.864040 
# 
# From -- ./inp_files/28028.got.cif
#   From: 2010.05.17/outbox.cif.g08.bks.cpg/sg68_15_cif.got.tgz:28028.got - 2010.06.03 18:57:09.
