data_PCOD9510231
_publ_section_title
;
Structure prediction by ZEFSAII (Michael W. Deem and Ramdas Pophale) SiO2 
 PCOD9510231
Probable space group: C C C A
;
_chemical_formula_sum "Si O2"
_cell_formula_units_Z 64
_cell_length_a 14.392638
_cell_length_b 16.724302
_cell_length_c 11.878578
_cell_angle_alpha 90.000000
_cell_angle_beta 90.000000
_cell_angle_gamma 90.000000
_cell_volume 2859.254790
_symmetry_space_group_name_H-M "C C C A"
_symmetry_group_IT_number 68
_space_group.IT_coordinate_system_code '2'
_symmetry_cell_setting 'orthorhombic'
loop_
_space_group_symop_operation_xyz
x,y,z
-x,1/2-y,z
x,1/2-y,1/2-z
-x,y,1/2-z
-x,-y,-z
x,1/2+y,-z
-x,1/2+y,1/2+z
x,-y,1/2+z
1/2+x,1/2+y,z
1/2-x,-y,z
1/2+x,-y,1/2-z
1/2-x,1/2+y,1/2-z
1/2-x,1/2-y,-z
1/2+x,y,-z
1/2-x,y,1/2+z
1/2+x,1/2-y,1/2+z
loop_
_atom_site_type_symbol
_atom_site_label
_atom_site_fract_x
_atom_site_fract_y
_atom_site_fract_z
Si Si1 0.374084 0.071533 0.451964
Si Si2 0.038434 0.902005 0.878510
Si Si3 0.200130 0.662717 0.503438
Si Si4 0.107706 0.342384 0.769614
O O1 0.453056 0.110992 0.533156
O O2 0.276816 0.092772 0.509005
O O3 0.347863 0.109563 0.330819
O O4 0.414403 0.985510 0.418668
O O5 0.000000 0.905520 0.750000
O O6 0.125032 0.841445 0.895159
O O7 0.250000 0.750000 0.500000
O O8 0.136708 0.644313 0.395456
O O9 0.126105 0.250000 0.750000
O O10 0.000000 0.358938 0.750000
#
# Coordination Sequence:
#
# PCOD9510231 Si02
#       4
#    16  16  16  16
#     4  11  25  47  75 107 145 198 250 303 375 445
#     4  11  27  49  72 109 153 197 245 310 372 446
#     4  12  26  46  75 114 145 193 251 307 376 444
#     4  11  22  43  75 100 147 193 242 308 374 446
#
# _framework density 22.383455000000001
#
# number of rings (size 3 to 8) (size 9 to 14) (size 15 to 20)
#    0.000    0.750    5.000    1.500    7.000    1.000 
#    0.000    1.250    0.000    0.000    0.000    0.000 
#    0.000    0.000    0.000    0.000    0.000    0.000 
#
# Total GULP energy -178379.303302 kJ/mol
# GULP energy per Si atom -5574.353228 kJ/mol
# Density = 2.233251 g / cm^3
# Si number density = 22.383455 Si / 1000 Ang^3
#
#
#
# Elastic Constant Matrix: (Units=GPa)
#
#
# Indices 1 2 3 4 5 6 
#
# 1 169.4755 32.7096 68.1029 0.0000 0.0000 0.0000
# 2 32.7096 71.9006 30.9477 0.0000 0.0000 0.0000
# 3 68.1029 30.9477 114.5260 0.0000 0.0000 0.0000
# 4 0.0000 0.0000 0.0000 555.5991 0.0000 0.0000
# 5 0.0000 0.0000 0.0000 0.0000 39.4492 0.0000
# 6 0.0000 0.0000 0.0000 0.0000 0.0000 36.5102
#
#
#
# Elastic Compliance Matrix: (Units=1/GPa)
#
#
# Indices 1 2 3 4 5 6 
#
# 1 0.007952 -0.001790 -0.004245 0.000000 0.000000 0.000000
# 2 -0.001790 0.016142 -0.003297 0.000000 0.000000 0.000000
# 3 -0.004245 -0.003297 0.012147 0.000000 0.000000 0.000000
# 4 0.000000 0.000000 0.000000 0.001800 0.000000 0.000000
# 5 0.000000 0.000000 0.000000 0.000000 0.025349 0.000000
# 6 0.000000 0.000000 0.000000 0.000000 0.000000 0.027390
#
#
# Mechanical properties :
#
#
# Convention : Reuss Voigt Hill
#
# Bulk Modulus (GPa) = 56.89707 68.82470 62.86089
# Shear Modulus (GPa) = 43.36425 141.25450 92.30937
#
# Velocity S-wave (km/s) = 4.40629 7.95259 6.42880
# Velocity P-wave (km/s) = 7.16670 10.73031 9.12418
#
# Compressibility (1/GPa) = 0.01757560
#
# Stress axis : x y z
#
# Youngs Moduli (GPa) = 125.75682 61.95083 82.32650
#
# Poissons Ratio (x) = 0.11092 0.34945
# Poissons Ratio (y) = 0.22517 0.27145
# Poissons Ratio (z) = 0.53380 0.20426
#
# Static dielectric constant tensor:
#      x y z
#    x 2.352120 0.000000 0.000000 
#    y 0.000000 1.892730 0.000000 
#    z 0.000000 0.000000 2.149710 
# 
# From -- ./inp_files/12792.got.cif
#   From: 2010.05.17/outbox.cif.g08.bks.cpg/sg68_7_cif.got.tgz:12792.got - 2010.06.03 18:57:09.
