data_PCOD9510458
_publ_section_title
;
Structure prediction by ZEFSAII (Michael W. Deem and Ramdas Pophale) SiO2 
 PCOD9510458
Probable space group: C C C A
;
_chemical_formula_sum "Si O2"
_cell_formula_units_Z 80
_cell_length_a 8.353288
_cell_length_b 17.624230
_cell_length_c 25.587488
_cell_angle_alpha 90.000000
_cell_angle_beta 90.000000
_cell_angle_gamma 90.000000
_cell_volume 3766.996866
_symmetry_space_group_name_H-M "C C C A"
_symmetry_group_IT_number 68
_space_group.IT_coordinate_system_code '2'
_symmetry_cell_setting 'orthorhombic'
loop_
_space_group_symop_operation_xyz
x,y,z
-x,1/2-y,z
x,1/2-y,1/2-z
-x,y,1/2-z
-x,-y,-z
x,1/2+y,-z
-x,1/2+y,1/2+z
x,-y,1/2+z
1/2+x,1/2+y,z
1/2-x,-y,z
1/2+x,-y,1/2-z
1/2-x,1/2+y,1/2-z
1/2-x,1/2-y,-z
1/2+x,y,-z
1/2-x,y,1/2+z
1/2+x,1/2-y,1/2+z
loop_
_atom_site_type_symbol
_atom_site_label
_atom_site_fract_x
_atom_site_fract_y
_atom_site_fract_z
Si Si1 0.250000 0.000000 0.118003
Si Si2 0.500000 0.250000 0.130402
Si Si3 0.477630 0.474767 0.691084
Si Si4 0.307515 0.864973 0.556798
Si Si5 0.057468 0.836397 0.941900
Si Si6 0.281898 0.381981 0.154060
O O1 0.363947 0.955467 0.158726
O O2 0.144374 0.945279 0.081551
O O3 0.618262 0.299819 0.093677
O O4 0.392055 0.309007 0.162218
O O5 0.500000 0.501992 0.750000
O O6 0.392102 0.543388 0.659667
O O7 0.361547 0.402209 0.693258
O O8 0.365025 0.845388 0.498913
O O9 0.115868 0.875040 0.557433
O O10 0.186048 0.867913 0.900398
O O11 0.000000 0.750000 0.931347
#
# Coordination Sequence:
#
# PCOD9510458 Si02
#       6
#     8   8  16  16  16  16
#     4  12  24  42  68 100 136 182 240 298 346 436
#     4  12  22  44  71 104 144 182 235 282 344 418
#     4  11  25  48  74  98 133 182 234 298 376 426
#     4  12  25  39  67 101 148 193 234 284 349 424
#     4  12  23  41  66 100 147 194 233 283 354 427
#     4  11  24  43  75 103 136 183 233 287 351 432
#
# _framework density 21.237076999999999
#
# number of rings (size 3 to 8) (size 9 to 14) (size 15 to 20)
#    0.000    0.400    7.000    3.000    0.000    2.400 
#    0.000    0.500    4.400    1.200    0.000    0.000 
#    0.000    0.000    0.000    0.000    0.000    0.000 
#
# Total GULP energy -223053.857374 kJ/mol
# GULP energy per Si atom -5576.346434 kJ/mol
# Density = 2.118874 g / cm^3
# Si number density = 21.237077 Si / 1000 Ang^3
#
#
#
# Elastic Constant Matrix: (Units=GPa)
#
#
# Indices 1 2 3 4 5 6 
#
# 1 96.1426 34.1065 32.0397 0.0000 0.0000 0.0000
# 2 34.1065 98.6470 45.6439 0.0000 0.0000 0.0000
# 3 32.0397 45.6439 76.7474 0.0000 0.0000 0.0000
# 4 0.0000 0.0000 0.0000 -32.8758 0.0000 0.0000
# 5 0.0000 0.0000 0.0000 0.0000 6.2697 0.0000
# 6 0.0000 0.0000 0.0000 0.0000 0.0000 29.4791
#
#
#
# Elastic Compliance Matrix: (Units=1/GPa)
#
#
# Indices 1 2 3 4 5 6 
#
# 1 0.012563 -0.002645 -0.003672 0.000000 0.000000 0.000000
# 2 -0.002645 0.014543 -0.007545 0.000000 0.000000 0.000000
# 3 -0.003672 -0.007545 0.019050 0.000000 0.000000 0.000000
# 4 0.000000 0.000000 0.000000 -0.030417 0.000000 0.000000
# 5 0.000000 0.000000 0.000000 0.000000 0.159498 0.000000
# 6 0.000000 0.000000 0.000000 0.000000 0.000000 0.033922
#
#
# Mechanical properties :
#
#
# Convention : Reuss Voigt Hill
#
# Bulk Modulus (GPa) = 54.25127 55.01303 54.63215
# Shear Modulus (GPa) = 20.57405 11.22439 15.89922
#
# Velocity S-wave (km/s) = 3.11590 2.30147 2.73912
# Velocity P-wave (km/s) = 6.20855 5.74655 5.98201
#
# Compressibility (1/GPa) = 0.01843275
#
# Stress axis : x y z
#
# Youngs Moduli (GPa) = 79.59860 68.76397 52.49415
#
# Poissons Ratio (x) = 0.18185 0.19275
# Poissons Ratio (y) = 0.21051 0.39606
# Poissons Ratio (z) = 0.29227 0.51881
#
# Static dielectric constant tensor:
#      x y z
#    x 1.877620 0.000000 0.000000 
#    y 0.000000 1.846120 0.000000 
#    z 0.000000 0.000000 1.742790 
# 
# From -- ./inp_files/49198.got.cif
#   From: 2010.05.17/outbox.cif.g08.bks.cpg/sg68_25_cif.got.tgz:49198.got - 2010.06.03 18:57:09.
