data_PCOD9510635
_publ_section_title
;
Structure prediction by ZEFSAII (Michael W. Deem and Ramdas Pophale) SiO2 
 PCOD9510635
Probable space group: C C C A
;
_chemical_formula_sum "Si O2"
_cell_formula_units_Z 64
_cell_length_a 14.719830
_cell_length_b 17.143081
_cell_length_c 10.307209
_cell_angle_alpha 90.000000
_cell_angle_beta 90.000000
_cell_angle_gamma 90.000000
_cell_volume 2600.954494
_symmetry_space_group_name_H-M "C C C A"
_symmetry_group_IT_number 68
_space_group.IT_coordinate_system_code '2'
_symmetry_cell_setting 'orthorhombic'
loop_
_space_group_symop_operation_xyz
x,y,z
-x,1/2-y,z
x,1/2-y,1/2-z
-x,y,1/2-z
-x,-y,-z
x,1/2+y,-z
-x,1/2+y,1/2+z
x,-y,1/2+z
1/2+x,1/2+y,z
1/2-x,-y,z
1/2+x,-y,1/2-z
1/2-x,1/2+y,1/2-z
1/2-x,1/2-y,-z
1/2+x,y,-z
1/2-x,y,1/2+z
1/2+x,1/2-y,1/2+z
loop_
_atom_site_type_symbol
_atom_site_label
_atom_site_fract_x
_atom_site_fract_y
_atom_site_fract_z
Si Si1 0.902080 0.291413 0.980654
Si Si2 0.230716 0.174217 0.629024
Si Si3 0.448490 0.037107 0.378233
Si Si4 0.201995 0.578185 0.629944
O O1 0.843504 0.242435 0.876644
O O2 0.910113 0.381444 0.936518
O O3 0.000000 0.250000 0.000383
O O4 0.832288 0.292451 0.102383
O O5 0.199115 0.128858 0.499065
O O6 0.244859 0.117889 0.751246
O O7 0.500000 0.064551 0.250000
O O8 0.391393 0.961841 0.326332
O O9 0.500000 0.000000 0.500000
O O10 0.250000 0.500000 0.582771
#
# Coordination Sequence:
#
# PCOD9510635 Si02
#       4
#    16  16  16  16
#     4  11  26  47  75 110 161 202 260 327 396 471
#     4  11  27  49  76 115 151 208 257 324 400 465
#     4  12  28  49  79 113 151 207 268 324 393 471
#     4  12  26  48  78 109 154 199 259 320 391 474
#
# _framework density 24.606349000000002
#
# number of rings (size 3 to 8) (size 9 to 14) (size 15 to 20)
#    0.000    0.500    2.500    3.750    7.000    6.500 
#    0.000    6.250    0.000    0.000    0.000    0.000 
#    0.000    0.000    0.000    0.000    0.000    0.000 
#
# Total GULP energy -178648.792624 kJ/mol
# GULP energy per Si atom -5582.774769 kJ/mol
# Density = 2.455034 g / cm^3
# Si number density = 24.606349 Si / 1000 Ang^3
#
#
#
# Elastic Constant Matrix: (Units=GPa)
#
#
# Indices 1 2 3 4 5 6 
#
# 1 117.2685 52.5462 -10.1673 0.0000 0.0000 0.0000
# 2 52.5462 202.9148 65.4728 0.0000 0.0000 0.0000
# 3 -10.1673 65.4728 69.6259 0.0000 0.0000 0.0000
# 4 0.0000 0.0000 0.0000 19.6895 0.0000 0.0000
# 5 0.0000 0.0000 0.0000 0.0000 5.5286 0.0000
# 6 0.0000 0.0000 0.0000 0.0000 0.0000 57.4996
#
#
#
# Elastic Compliance Matrix: (Units=1/GPa)
#
#
# Indices 1 2 3 4 5 6 
#
# 1 0.011300 -0.004965 0.006319 0.000000 0.000000 0.000000
# 2 -0.004965 0.009256 -0.009429 0.000000 0.000000 0.000000
# 3 0.006319 -0.009429 0.024152 0.000000 0.000000 0.000000
# 4 0.000000 0.000000 0.000000 0.050789 0.000000 0.000000
# 5 0.000000 0.000000 0.000000 0.000000 0.180878 0.000000
# 6 0.000000 0.000000 0.000000 0.000000 0.000000 0.017391
#
#
# Mechanical properties :
#
#
# Convention : Reuss Voigt Hill
#
# Bulk Modulus (GPa) = 35.01652 67.27918 51.14785
# Shear Modulus (GPa) = 15.65253 35.34070 25.49662
#
# Velocity S-wave (km/s) = 2.52487 3.79389 3.22247
# Velocity P-wave (km/s) = 4.77091 6.82591 5.88874
#
# Compressibility (1/GPa) = 0.02855795
#
# Stress axis : x y z
#
# Youngs Moduli (GPa) = 88.49435 108.03281 41.40418
#
# Poissons Ratio (x) = 0.53641 -0.26164
# Poissons Ratio (y) = 0.43939 0.39042
# Poissons Ratio (z) = -0.55921 1.01868
#
# Static dielectric constant tensor:
#      x y z
#    x 8.833890 0.000000 0.000000 
#    y 0.000000 2.090840 0.000000 
#    z 0.000000 0.000000 1.926470 
# 
# From -- ./inp_files/5817.got.cif
#   From: 2010.05.17/outbox.cif.g08.bks.cpg/sg68_3_cif.got.tgz:5817.got - 2010.06.03 18:57:09.
