data_PCOD9510253
_publ_section_title
;
Structure prediction by ZEFSAII (Michael W. Deem and Ramdas Pophale) SiO2 
 PCOD9510253
Probable space group: C C C A
;
_chemical_formula_sum "Si O2"
_cell_formula_units_Z 60
_cell_length_a 12.209288
_cell_length_b 15.453008
_cell_length_c 13.270246
_cell_angle_alpha 90.000000
_cell_angle_beta 90.000000
_cell_angle_gamma 90.000000
_cell_volume 2503.700300
_symmetry_space_group_name_H-M "C C C A"
_symmetry_group_IT_number 68
_space_group.IT_coordinate_system_code '2'
_symmetry_cell_setting 'orthorhombic'
loop_
_space_group_symop_operation_xyz
x,y,z
-x,1/2-y,z
x,1/2-y,1/2-z
-x,y,1/2-z
-x,-y,-z
x,1/2+y,-z
-x,1/2+y,1/2+z
x,-y,1/2+z
1/2+x,1/2+y,z
1/2-x,-y,z
1/2+x,-y,1/2-z
1/2-x,1/2+y,1/2-z
1/2-x,1/2-y,-z
1/2+x,y,-z
1/2-x,y,1/2+z
1/2+x,1/2-y,1/2+z
loop_
_atom_site_type_symbol
_atom_site_label
_atom_site_fract_x
_atom_site_fract_y
_atom_site_fract_z
Si Si1 0.859222 0.607739 0.642725
Si Si2 0.094423 0.376533 0.572492
Si Si3 0.250000 0.000000 0.302313
Si Si4 0.000000 0.250000 0.250000
Si Si5 0.370514 0.697188 0.857606
O O1 0.911314 0.580326 0.537237
O O2 0.845101 0.539357 0.731816
O O3 0.734889 0.639182 0.627318
O O4 0.925947 0.688806 0.682656
O O5 0.188240 0.427116 0.633112
O O6 0.129067 0.275543 0.562312
O O7 0.977679 0.362342 0.627171
O O8 0.369103 0.750000 0.750000
#
# Coordination Sequence:
#
# PCOD9510253 Si02
#       5
#    16  16   8   4  16
#     4  12  26  45  71 109 145 189 245 308 373 426
#     4  11  24  43  74 104 140 196 244 298 360 451
#     4  12  26  46  70 110 154 190 238 310 374 438
#     4  12  24  48  72 110 146 186 240 344 348 418
#     4  11  22  47  77  99 139 198 252 290 361 453
#
# _framework density 23.964528999999999
#
# number of rings (size 3 to 8) (size 9 to 14) (size 15 to 20)
#    0.000    0.533    4.000    4.800    0.000    4.267 
#    0.000    4.000    0.000    0.000    0.000    0.000 
#    0.000    0.000    0.000    0.000    0.000    0.000 
#
# Total GULP energy -167894.884090 kJ/mol
# GULP energy per Si atom -5596.496136 kJ/mol
# Density = 2.390998 g / cm^3
# Si number density = 23.964529 Si / 1000 Ang^3
#
#
#
# Elastic Constant Matrix: (Units=GPa)
#
#
# Indices 1 2 3 4 5 6 
#
# 1 116.6478 34.5959 22.8399 0.0000 0.0000 0.0000
# 2 34.5959 83.1221 29.1942 0.0000 0.0000 0.0000
# 3 22.8399 29.1942 134.2260 0.0000 0.0000 0.0000
# 4 0.0000 0.0000 0.0000 2.4085 0.0000 0.0000
# 5 0.0000 0.0000 0.0000 0.0000 21.0562 0.0000
# 6 0.0000 0.0000 0.0000 0.0000 0.0000 32.2182
#
#
#
# Elastic Compliance Matrix: (Units=1/GPa)
#
#
# Indices 1 2 3 4 5 6 
#
# 1 0.009869 -0.003809 -0.000851 0.000000 0.000000 0.000000
# 2 -0.003809 0.014495 -0.002505 0.000000 0.000000 0.000000
# 3 -0.000851 -0.002505 0.008140 0.000000 0.000000 0.000000
# 4 0.000000 0.000000 0.000000 0.415194 0.000000 0.000000
# 5 0.000000 0.000000 0.000000 0.000000 0.047492 0.000000
# 6 0.000000 0.000000 0.000000 0.000000 0.000000 0.031038
#
#
# Mechanical properties :
#
#
# Convention : Reuss Voigt Hill
#
# Bulk Modulus (GPa) = 55.01900 56.36177 55.69039
# Shear Modulus (GPa) = 9.14719 27.62763 18.38741
#
# Velocity S-wave (km/s) = 1.95583 3.39906 2.77298
# Velocity P-wave (km/s) = 5.30176 6.24297 5.79152
#
# Compressibility (1/GPa) = 0.01817554
#
# Stress axis : x y z
#
# Youngs Moduli (GPa) = 101.32707 68.98742 122.85498
#
# Poissons Ratio (x) = 0.26275 0.10454
# Poissons Ratio (y) = 0.38592 0.30771
# Poissons Ratio (z) = 0.08622 0.17279
#
# Static dielectric constant tensor:
#      x y z
#    x 1.889940 0.000000 0.000000 
#    y 0.000000 1.908290 0.000000 
#    z 0.000000 0.000000 1.981130 
# 
# From -- ./inp_files/12728.got.cif
#   From: 2010.05.17/outbox.cif.g08.bks.cpg/sg68_7_cif.got.tgz:12728.got - 2010.06.03 18:57:09.
