data_PCOD9510933
_publ_section_title
;
Structure prediction by ZEFSAII (Michael W. Deem and Ramdas Pophale) SiO2 
 PCOD9510933
Probable space group: C C C A
;
_chemical_formula_sum "Si O2"
_cell_formula_units_Z 54
_cell_length_a 15.000000
_cell_length_b 12.000000
_cell_length_c 30.000000
_cell_angle_alpha 90.000000
_cell_angle_beta 90.000000
_cell_angle_gamma 90.000000
_cell_volume 5400.000000
_symmetry_space_group_name_H-M "C C C A"
_symmetry_group_IT_number 68
_space_group.IT_coordinate_system_code '2'
_symmetry_cell_setting 'orthorhombic'
loop_
_space_group_symop_operation_xyz
x,y,z
-x,1/2-y,z
x,1/2-y,1/2-z
-x,y,1/2-z
-x,-y,-z
x,1/2+y,-z
-x,1/2+y,1/2+z
x,-y,1/2+z
1/2+x,1/2+y,z
1/2-x,-y,z
1/2+x,-y,1/2-z
1/2-x,1/2+y,1/2-z
1/2-x,1/2-y,-z
1/2+x,y,-z
1/2-x,y,1/2+z
1/2+x,1/2-y,1/2+z
loop_
_atom_site_type_symbol
_atom_site_label
_atom_site_fract_x
_atom_site_fract_y
_atom_site_fract_z
Si Si1 0.311636 0.250000 0.250000
Si Si2 0.000000 0.750000 0.750000
Si Si3 0.023264 0.883261 0.106564
Si Si4 0.147936 0.223314 0.190713
Si Si5 0.897089 0.738491 0.591369
Si Si6 0.144945 0.966958 0.191643
Si Si7 0.144540 0.485559 0.066127
Si Si8 0.644032 0.014326 0.961119
O O1 0.241422 0.268419 0.209791
O O2 0.356598 0.133392 0.230062
O O3 0.928540 0.702616 0.786238
O O4 0.081275 0.924227 0.150555
O O5 0.000000 0.750000 0.108943
O O6 0.087052 0.919347 0.064823
O O7 0.929331 0.949990 0.096845
O O8 0.153299 0.224920 0.137896
O O9 0.119314 0.095125 0.203999
O O10 0.870866 0.853495 0.568686
O O11 0.883721 0.631421 0.560727
O O12 0.000000 0.750000 0.603831
O O13 0.250000 0.000000 0.179782
O O14 0.250000 0.500000 0.077520
O O15 0.129134 0.518313 0.014323
O O16 0.750000 0.000000 0.953745
#
# Coordination Sequence:
#
# PCOD9510933 Si02
#       8
#     8   4  16  16  16  16  16  16
#     4   9  22  39  67 100 133 170 220 295 337 435
#     4  10  20  36  56  90 122 164 222 286 324 402
#     4  12  26  43  68 104 147 186 235 305 364 435
#     4  10  20  39  68  96 131 176 234 281 350 416
#     4  12  23  43  76 101 140 191 248 296 351 445
#     4  10  21  45  69 101 137 182 236 275 368 432
#     4  11  28  45  66 109 145 187 246 307 363 419
#     4  11  26  44  71 103 140 198 239 294 367 439
#
# _framework density 10.0
#
# number of rings (size 3 to 8) (size 9 to 14) (size 15 to 20)
#    0.000    1.185    3.704    0.889    6.222    1.185 
#    2.667    6.667    0.000    0.000    0.000    0.000 
#    0.000    0.000    0.000    0.000    0.000    0.000 
#
# Total GULP energy -300643.468679 kJ/mol
# GULP energy per Si atom -5567.471642 kJ/mol
# Density = 0.997724 g / cm^3
# Si number density = 10.000000 Si / 1000 Ang^3
#
#
#
# Elastic Constant Matrix: (Units=GPa)
#
#
# Indices 1 2 3 4 5 6 
#
# 1 98.6406 36.2235 35.1702 0.0000 0.0000 0.0000
# 2 36.2235 133.1745 64.0824 0.0000 0.0000 0.0000
# 3 35.1702 64.0824 125.7697 0.0000 0.0000 0.0000
# 4 0.0000 0.0000 0.0000 11.7118 0.0000 0.0000
# 5 0.0000 0.0000 0.0000 0.0000 45.9138 0.0000
# 6 0.0000 0.0000 0.0000 0.0000 0.0000 36.3745
#
#
#
# Elastic Compliance Matrix: (Units=1/GPa)
#
#
# Indices 1 2 3 4 5 6 
#
# 1 0.011700 -0.002130 -0.002186 0.000000 0.000000 0.000000
# 2 -0.002130 0.010336 -0.004671 0.000000 0.000000 0.000000
# 3 -0.002186 -0.004671 0.010942 0.000000 0.000000 0.000000
# 4 0.000000 0.000000 0.000000 0.085384 0.000000 0.000000
# 5 0.000000 0.000000 0.000000 0.000000 0.021780 0.000000
# 6 0.000000 0.000000 0.000000 0.000000 0.000000 0.027492
#
#
# Mechanical properties :
#
#
# Convention : Reuss Voigt Hill
#
# Bulk Modulus (GPa) = 66.65190 69.83743 68.24466
# Shear Modulus (GPa) = 26.23178 33.60727 29.91952
#
# Velocity S-wave (km/s) = 3.62552 4.10367 3.87198
# Velocity P-wave (km/s) = 7.13611 7.57945 7.36112
#
# Compressibility (1/GPa) = 0.01500332
#
# Stress axis : x y z
#
# Youngs Moduli (GPa) = 85.47291 96.75062 91.38939
#
# Poissons Ratio (x) = 0.20611 0.19980
# Poissons Ratio (y) = 0.18208 0.42685
# Poissons Ratio (z) = 0.18686 0.45189
#
# Static dielectric constant tensor:
#      x y z
#    x 1.774090 0.000000 0.000000 
#    y 0.000000 1.765300 0.000000 
#    z 0.000000 0.000000 1.721760 
# 
# From -- ./inp_files/55316.got.cif
#   From: 2010.05.17/outbox.ucp.g08.bks.cvg/sg68_28_cif.got.tgz:55316.got - 2010.06.11 16:49:25.
