data_PCOD9510588
_publ_section_title
;
Structure prediction by ZEFSAII (Michael W. Deem and Ramdas Pophale) SiO2 
 PCOD9510588
Probable space group: C C C A
;
_chemical_formula_sum "Si O2"
_cell_formula_units_Z 72
_cell_length_a 12.316805
_cell_length_b 18.132075
_cell_length_c 15.118892
_cell_angle_alpha 90.000000
_cell_angle_beta 90.000000
_cell_angle_gamma 90.000000
_cell_volume 3376.490539
_symmetry_space_group_name_H-M "C C C A"
_symmetry_group_IT_number 68
_space_group.IT_coordinate_system_code '2'
_symmetry_cell_setting 'orthorhombic'
loop_
_space_group_symop_operation_xyz
x,y,z
-x,1/2-y,z
x,1/2-y,1/2-z
-x,y,1/2-z
-x,-y,-z
x,1/2+y,-z
-x,1/2+y,1/2+z
x,-y,1/2+z
1/2+x,1/2+y,z
1/2-x,-y,z
1/2+x,-y,1/2-z
1/2-x,1/2+y,1/2-z
1/2-x,1/2-y,-z
1/2+x,y,-z
1/2-x,y,1/2+z
1/2+x,1/2-y,1/2+z
loop_
_atom_site_type_symbol
_atom_site_label
_atom_site_fract_x
_atom_site_fract_y
_atom_site_fract_z
Si Si1 0.174752 0.559218 0.671671
Si Si2 0.454766 0.827906 0.613394
Si Si3 0.774220 0.174340 0.306074
Si Si4 0.491181 0.664001 0.409198
Si Si5 0.500000 0.545295 0.750000
O O1 0.250000 0.500000 0.620297
O O2 0.247438 0.613887 0.730425
O O3 0.089882 0.612129 0.621690
O O4 0.100956 0.508541 0.734482
O O5 0.500000 0.750000 0.648552
O O6 0.325151 0.819584 0.625719
O O7 0.502083 0.837011 0.515093
O O8 0.487342 0.899821 0.667743
O O9 0.790677 0.250000 0.250000
O O10 0.878659 0.145919 0.360628
O O11 0.500000 0.750000 0.383237
#
# Coordination Sequence:
#
# PCOD9510588 Si02
#       5
#    16  16  16  16   8
#     4  12  25  43  71 107 142 192 245 305 378 443
#     4  11  27  45  70 107 146 185 245 312 375 445
#     4  12  23  45  78 100 142 199 250 298 372 455
#     4  11  25  46  74 107 140 191 257 309 356 457
#     4  12  23  44  67  98 144 192 234 294 381 456
#
# _framework density 21.323915
#
# number of rings (size 3 to 8) (size 9 to 14) (size 15 to 20)
#    0.000    0.444    6.667    1.667    0.000    6.222 
#    4.000    0.000    0.000    0.000    0.000    0.000 
#    0.000    0.000    0.000    0.000    0.000    0.000 
#
# Total GULP energy -200917.749428 kJ/mol
# GULP energy per Si atom -5581.048595 kJ/mol
# Density = 2.127538 g / cm^3
# Si number density = 21.323915 Si / 1000 Ang^3
#
#
#
# Elastic Constant Matrix: (Units=GPa)
#
#
# Indices 1 2 3 4 5 6 
#
# 1 83.9470 28.8954 22.7468 0.0000 0.0000 0.0000
# 2 28.8954 152.1645 37.6767 0.0000 0.0000 0.0000
# 3 22.7468 37.6767 79.7692 0.0000 0.0000 0.0000
# 4 0.0000 0.0000 0.0000 53.0622 0.0000 0.0000
# 5 0.0000 0.0000 0.0000 0.0000 17.9599 0.0000
# 6 0.0000 0.0000 0.0000 0.0000 0.0000 50.4924
#
#
#
# Elastic Compliance Matrix: (Units=1/GPa)
#
#
# Indices 1 2 3 4 5 6 
#
# 1 0.013332 -0.001801 -0.002951 0.000000 0.000000 0.000000
# 2 -0.001801 0.007685 -0.003116 0.000000 0.000000 0.000000
# 3 -0.002951 -0.003116 0.014850 0.000000 0.000000 0.000000
# 4 0.000000 0.000000 0.000000 0.018846 0.000000 0.000000
# 5 0.000000 0.000000 0.000000 0.000000 0.055680 0.000000
# 6 0.000000 0.000000 0.000000 0.000000 0.000000 0.019805
#
#
# Mechanical properties :
#
#
# Convention : Reuss Voigt Hill
#
# Bulk Modulus (GPa) = 49.67702 54.94649 52.31176
# Shear Modulus (GPa) = 32.75592 39.40704 36.08148
#
# Velocity S-wave (km/s) = 3.92358 4.30352 4.11794
# Velocity P-wave (km/s) = 6.62366 7.10755 6.86987
#
# Compressibility (1/GPa) = 0.02013003
#
# Stress axis : x y z
#
# Youngs Moduli (GPa) = 75.00853 130.11552 67.34166
#
# Poissons Ratio (x) = 0.23433 0.19873
# Poissons Ratio (y) = 0.13509 0.20987
# Poissons Ratio (z) = 0.22135 0.40550
#
# Static dielectric constant tensor:
#      x y z
#    x 1.822280 0.000000 0.000000 
#    y 0.000000 1.794420 0.000000 
#    z 0.000000 0.000000 1.739750 
# 
# From -- ./inp_files/29430.got.cif
#   From: 2010.05.17/outbox.cif.g08.bks.cpg/sg68_15_cif.got.tgz:29430.got - 2010.06.03 18:57:09.
