data_PCOD9510155
_publ_section_title
;
Structure prediction by ZEFSAII (Michael W. Deem and Ramdas Pophale) SiO2 
 PCOD9510155
Probable space group: C C C A
;
_chemical_formula_sum "Si O2"
_cell_formula_units_Z 108
_cell_length_a 19.630833
_cell_length_b 11.542250
_cell_length_c 24.678317
_cell_angle_alpha 90.000000
_cell_angle_beta 90.000000
_cell_angle_gamma 90.000000
_cell_volume 5591.711340
_symmetry_space_group_name_H-M "C C C A"
_symmetry_group_IT_number 68
_space_group.IT_coordinate_system_code '2'
_symmetry_cell_setting 'orthorhombic'
loop_
_space_group_symop_operation_xyz
x,y,z
-x,1/2-y,z
x,1/2-y,1/2-z
-x,y,1/2-z
-x,-y,-z
x,1/2+y,-z
-x,1/2+y,1/2+z
x,-y,1/2+z
1/2+x,1/2+y,z
1/2-x,-y,z
1/2+x,-y,1/2-z
1/2-x,1/2+y,1/2-z
1/2-x,1/2-y,-z
1/2+x,y,-z
1/2-x,y,1/2+z
1/2+x,1/2-y,1/2+z
loop_
_atom_site_type_symbol
_atom_site_label
_atom_site_fract_x
_atom_site_fract_y
_atom_site_fract_z
Si Si1 0.575831 0.575451 0.459362
Si Si2 0.404077 0.914782 0.681456
Si Si3 0.500000 0.250000 0.620204
Si Si4 0.714875 0.872727 0.988476
Si Si5 0.991385 0.886755 0.423906
Si Si6 0.128157 0.178402 0.194009
Si Si7 0.732561 0.365205 0.138446
Si Si8 0.500000 0.250000 0.250000
O O1 0.530142 0.653819 0.420230
O O2 0.651758 0.618227 0.470023
O O3 0.564448 0.448868 0.433107
O O4 0.546512 0.583802 0.520166
O O5 0.444947 0.933586 0.624910
O O6 0.334549 0.843036 0.673233
O O7 0.453568 0.836069 0.715842
O O8 0.384397 0.041064 0.704604
O O9 0.436827 0.215271 0.658178
O O10 0.706789 0.858481 0.923494
O O11 0.750000 0.000000 0.994282
O O12 0.750000 0.750000 0.000000
O O13 0.000000 0.750000 0.417382
O O14 0.131415 0.250000 0.250000
O O15 0.198026 0.195299 0.158919
O O16 0.750000 0.500000 0.145810
#
# Coordination Sequence:
#
# PCOD9510155 Si02
#       8
#    16  16   8  16  16  16  16   4
#     4  11  24  37  67  99 138 179 223 276 344 421
#     4  11  23  44  65  97 129 178 225 283 341 412
#     4  12  23  41  64 102 137 173 232 286 338 410
#     4  11  24  40  66  98 138 181 224 272 335 418
#     4  11  22  39  63  97 136 180 224 273 342 419
#     4  11  25  43  71  94 130 177 229 295 345 399
#     4   9  21  42  68  92 129 175 225 268 338 411
#     4  12  28  38  66  92 130 170 232 286 338 400
#
# _framework density 19.314302000000001
#
# number of rings (size 3 to 8) (size 9 to 14) (size 15 to 20)
#    0.000    1.185    4.444    1.111    5.185    0.000 
#    0.000    0.000    0.000    0.889    0.000    0.000 
#    0.000    0.000    0.000    0.000    0.000    0.000 
#
# Total GULP energy -300761.303265 kJ/mol
# GULP energy per Si atom -5569.653764 kJ/mol
# Density = 1.927034 g / cm^3
# Si number density = 19.314302 Si / 1000 Ang^3
#
#
#
# Elastic Constant Matrix: (Units=GPa)
#
#
# Indices 1 2 3 4 5 6 
#
# 1 144.3242 45.3122 60.4299 0.0000 0.0000 0.0000
# 2 45.3122 111.2319 37.5379 0.0000 0.0000 0.0000
# 3 60.4299 37.5379 99.8474 0.0000 0.0000 0.0000
# 4 0.0000 0.0000 0.0000 29.0472 0.0000 0.0000
# 5 0.0000 0.0000 0.0000 0.0000 19.0505 0.0000
# 6 0.0000 0.0000 0.0000 0.0000 0.0000 27.5122
#
#
#
# Elastic Compliance Matrix: (Units=1/GPa)
#
#
# Indices 1 2 3 4 5 6 
#
# 1 0.009757 -0.002270 -0.005052 0.000000 0.000000 0.000000
# 2 -0.002270 0.010825 -0.002696 0.000000 0.000000 0.000000
# 3 -0.005052 -0.002696 0.014086 0.000000 0.000000 0.000000
# 4 0.000000 0.000000 0.000000 0.034427 0.000000 0.000000
# 5 0.000000 0.000000 0.000000 0.000000 0.052492 0.000000
# 6 0.000000 0.000000 0.000000 0.000000 0.000000 0.036347
#
#
# Mechanical properties :
#
#
# Convention : Reuss Voigt Hill
#
# Bulk Modulus (GPa) = 68.33874 71.32928 69.83401
# Shear Modulus (GPa) = 27.34546 29.26355 28.30450
#
# Velocity S-wave (km/s) = 3.76681 3.89668 3.83230
# Velocity P-wave (km/s) = 7.37413 7.56680 7.47109
#
# Compressibility (1/GPa) = 0.01463299
#
# Stress axis : x y z
#
# Youngs Moduli (GPa) = 102.49468 92.38206 70.99181
#
# Poissons Ratio (x) = 0.20968 0.35862
# Poissons Ratio (y) = 0.23264 0.19138
# Poissons Ratio (z) = 0.51776 0.24905
#
# Static dielectric constant tensor:
#      x y z
#    x 1.575550 0.000000 0.000000 
#    y 0.000000 0.624340 0.000000 
#    z 0.000000 0.000000 1.687050 
# 
# From -- ./inp_files/46684.got.cif
#   From: 2010.05.17/outbox.cif.g08.bks.cpg/sg68_24_cif.got.tgz:46684.got - 2010.06.03 18:57:09.
