data_PCOD9510563
_publ_section_title
;
Structure prediction by ZEFSAII (Michael W. Deem and Ramdas Pophale) SiO2 
 PCOD9510563
Probable space group: C C C A
;
_chemical_formula_sum "Si O2"
_cell_formula_units_Z 40
_cell_length_a 14.037063
_cell_length_b 14.037060
_cell_length_c 8.477198
_cell_angle_alpha 90.000000
_cell_angle_beta 90.000000
_cell_angle_gamma 90.000000
_cell_volume 1670.339427
_symmetry_space_group_name_H-M "C C C A"
_symmetry_group_IT_number 68
_space_group.IT_coordinate_system_code '2'
_symmetry_cell_setting 'orthorhombic'
loop_
_space_group_symop_operation_xyz
x,y,z
-x,1/2-y,z
x,1/2-y,1/2-z
-x,y,1/2-z
-x,-y,-z
x,1/2+y,-z
-x,1/2+y,1/2+z
x,-y,1/2+z
1/2+x,1/2+y,z
1/2-x,-y,z
1/2+x,-y,1/2-z
1/2-x,1/2+y,1/2-z
1/2-x,1/2-y,-z
1/2+x,y,-z
1/2-x,y,1/2+z
1/2+x,1/2-y,1/2+z
loop_
_atom_site_type_symbol
_atom_site_label
_atom_site_fract_x
_atom_site_fract_y
_atom_site_fract_z
Si Si1 0.357775 0.392225 0.574957
Si Si2 0.500000 0.250000 0.750000
Si Si3 0.146179 0.603821 0.196835
Si Si4 0.500000 0.750000 0.750000
O O1 0.431364 0.318636 0.648593
O O2 0.250688 0.370628 0.634962
O O3 0.354832 0.395168 0.386239
O O4 0.379372 0.499312 0.634962
O O5 0.068418 0.681582 0.149922
#
# Coordination Sequence:
#
# PCOD9510563 Si02
#       4
#    16   4  16   4
#     4  11  25  45  68  96 132 173 217 267 324 386
#     4  12  26  40  68 102 130 168 220 270 322 384
#     4  11  25  45  68  96 132 173 217 267 324 386
#     4  12  26  40  68 102 130 168 220 270 322 384
#
# _framework density 23.947229
#
# number of rings (size 3 to 8) (size 9 to 14) (size 15 to 20)
#    0.000    0.800    0.000    8.400    0.000   19.200 
#    0.000    0.000    0.000    0.000    0.000    0.000 
#    0.000    0.000    0.000    0.000    0.000    0.000 
#
# Total GULP energy -112288.444904 kJ/mol
# GULP energy per Si atom -5614.422245 kJ/mol
# Density = 2.389272 g / cm^3
# Si number density = 23.947229 Si / 1000 Ang^3
#
#
#
# Elastic Constant Matrix: (Units=GPa)
#
#
# Indices 1 2 3 4 5 6 
#
# 1 168.3639 147.0457 69.4609 0.0000 0.0000 0.0000
# 2 147.0457 168.3637 69.4608 0.0000 0.0000 0.0000
# 3 69.4609 69.4608 198.2424 0.0000 0.0000 0.0000
# 4 0.0000 0.0000 0.0000 -3.8335 0.0000 0.0000
# 5 0.0000 0.0000 0.0000 0.0000 -3.8339 0.0000
# 6 0.0000 0.0000 0.0000 0.0000 0.0000 69.2996
#
#
#
# Elastic Compliance Matrix: (Units=1/GPa)
#
#
# Indices 1 2 3 4 5 6 
#
# 1 0.025329 -0.021580 -0.001314 0.000000 0.000000 0.000000
# 2 -0.021580 0.025329 -0.001314 0.000000 0.000000 0.000000
# 3 -0.001314 -0.001314 0.005965 0.000000 0.000000 0.000000
# 4 0.000000 0.000000 0.000000 -0.260856 0.000000 0.000000
# 5 0.000000 0.000000 0.000000 0.000000 -0.260832 0.000000
# 6 0.000000 0.000000 0.000000 0.000000 0.000000 0.014430
#
#
# Mechanical properties :
#
#
# Convention : Reuss Voigt Hill
#
# Bulk Modulus (GPa) = 121.82423 122.98942 122.40683
# Shear Modulus (GPa) = -12.51607 28.92663 8.20528
#
# Velocity S-wave (km/s) = -2.28864 3.47930 1.85306
# Velocity P-wave (km/s) = 6.63314 8.22257 7.47025
#
# Compressibility (1/GPa) = 0.00820855
#
# Stress axis : x y z
#
# Youngs Moduli (GPa) = 39.48091 39.48084 167.64846
#
# Poissons Ratio (x) = 0.85198 0.22022
# Poissons Ratio (y) = 0.85198 0.22023
# Poissons Ratio (z) = 0.05186 0.05186
#
# Static dielectric constant tensor:
#      x y z
#    x 1.901590 0.000000 0.000000 
#    y 0.000000 1.901590 0.000000 
#    z 0.000000 0.000000 1.867400 
# 
# From -- ./inp_files/4254.got.cif
#   From: 2010.05.17/outbox.cif.g08.bks.cpg/sg68_3_cif.got.tgz:4254.got - 2010.06.03 18:57:09.
