data_PCOD9510846
_publ_section_title
;
Structure prediction by ZEFSAII (Michael W. Deem and Ramdas Pophale) SiO2 
 PCOD9510846
Probable space group: C C C A
;
_chemical_formula_sum "Si O2"
_cell_formula_units_Z 56
_cell_length_a 20.274901
_cell_length_b 5.139351
_cell_length_c 22.218318
_cell_angle_alpha 90.000000
_cell_angle_beta 90.000000
_cell_angle_gamma 90.000000
_cell_volume 2315.145019
_symmetry_space_group_name_H-M "C C C A"
_symmetry_group_IT_number 68
_space_group.IT_coordinate_system_code '2'
_symmetry_cell_setting 'orthorhombic'
loop_
_space_group_symop_operation_xyz
x,y,z
-x,1/2-y,z
x,1/2-y,1/2-z
-x,y,1/2-z
-x,-y,-z
x,1/2+y,-z
-x,1/2+y,1/2+z
x,-y,1/2+z
1/2+x,1/2+y,z
1/2-x,-y,z
1/2+x,-y,1/2-z
1/2-x,1/2+y,1/2-z
1/2-x,1/2-y,-z
1/2+x,y,-z
1/2-x,y,1/2+z
1/2+x,1/2-y,1/2+z
loop_
_atom_site_type_symbol
_atom_site_label
_atom_site_fract_x
_atom_site_fract_y
_atom_site_fract_z
Si Si1 0.954578 0.996564 0.834715
Si Si2 0.895267 0.432362 0.534535
Si Si3 0.853182 0.750000 0.250000
Si Si4 0.750000 0.000000 0.922963
Si Si5 0.250000 0.000000 0.840520
O O1 0.897483 0.047076 0.786689
O O2 0.000000 0.250000 0.831727
O O3 0.923429 0.987067 0.901115
O O4 0.000000 0.750000 0.823315
O O5 0.915978 0.144813 0.514737
O O6 0.815672 0.436484 0.539936
O O7 0.808848 0.594362 0.297658
O O8 0.765989 0.748497 0.881885
#
# Coordination Sequence:
#
# PCOD9510846 Si02
#       5
#    16  16   8   8   8
#     4  12  30  51  76 111 155 209 260 311 376 461
#     4  12  26  49  79 110 150 197 258 321 386 457
#     4  12  29  52  80 120 155 206 260 324 398 464
#     4  12  25  49  76 116 156 191 255 322 404 456
#     4  12  27  47  82 112 156 197 245 332 392 470
#
# _framework density 24.188552000000001
#
# number of rings (size 3 to 8) (size 9 to 14) (size 15 to 20)
#    0.000    0.000    2.857    5.571    4.000    8.000 
#    0.000    0.000    0.000    0.000    0.000    0.000 
#    0.000    0.000    0.000    0.000    0.000    0.000 
#
# Total GULP energy -157319.166974 kJ/mol
# GULP energy per Si atom -5618.541678 kJ/mol
# Density = 2.413350 g / cm^3
# Si number density = 24.188552 Si / 1000 Ang^3
#
#
#
# Elastic Constant Matrix: (Units=GPa)
#
#
# Indices 1 2 3 4 5 6 
#
# 1 86.7586 35.2187 16.0759 0.0000 0.0000 0.0000
# 2 35.2187 171.6315 27.7482 0.0000 0.0000 0.0000
# 3 16.0759 27.7482 90.3140 0.0000 0.0000 0.0000
# 4 0.0000 0.0000 0.0000 26.4690 0.0000 0.0000
# 5 0.0000 0.0000 0.0000 0.0000 33.5577 0.0000
# 6 0.0000 0.0000 0.0000 0.0000 0.0000 41.3193
#
#
#
# Elastic Compliance Matrix: (Units=1/GPa)
#
#
# Indices 1 2 3 4 5 6 
#
# 1 0.012775 -0.002372 -0.001545 0.000000 0.000000 0.000000
# 2 -0.002372 0.006571 -0.001597 0.000000 0.000000 0.000000
# 3 -0.001545 -0.001597 0.011838 0.000000 0.000000 0.000000
# 4 0.000000 0.000000 0.000000 0.037780 0.000000 0.000000
# 5 0.000000 0.000000 0.000000 0.000000 0.029799 0.000000
# 6 0.000000 0.000000 0.000000 0.000000 0.000000 0.024202
#
#
# Mechanical properties :
#
#
# Convention : Reuss Voigt Hill
#
# Bulk Modulus (GPa) = 49.61017 56.30993 52.96005
# Shear Modulus (GPa) = 35.53343 38.24663 36.89003
#
# Velocity S-wave (km/s) = 3.83694 3.98073 3.90949
# Velocity P-wave (km/s) = 6.33906 6.66771 6.50546
#
# Compressibility (1/GPa) = 0.02015716
#
# Stress axis : x y z
#
# Youngs Moduli (GPa) = 78.27591 152.17785 84.47258
#
# Poissons Ratio (x) = 0.36091 0.13054
# Poissons Ratio (y) = 0.18564 0.13489
# Poissons Ratio (z) = 0.12096 0.24300
#
# Static dielectric constant tensor:
#      x y z
#    x 1.912490 0.000000 0.000000 
#    y 0.000000 1.953410 0.000000 
#    z 0.000000 0.000000 1.904780 
# 
# From -- ./inp_files/46300.got.cif
#   From: 2010.05.17/outbox.cif.g08.bks.cpg/sg68_24_cif.got.tgz:46300.got - 2010.06.03 18:57:09.
