data_PCOD9510645
_publ_section_title
;
Structure prediction by ZEFSAII (Michael W. Deem and Ramdas Pophale) SiO2 
 PCOD9510645
Probable space group: C C C A
;
_chemical_formula_sum "Si O2"
_cell_formula_units_Z 56
_cell_length_a 7.209239
_cell_length_b 22.618189
_cell_length_c 14.602527
_cell_angle_alpha 90.000000
_cell_angle_beta 90.000000
_cell_angle_gamma 90.000000
_cell_volume 2381.087034
_symmetry_space_group_name_H-M "C C C A"
_symmetry_group_IT_number 68
_space_group.IT_coordinate_system_code '2'
_symmetry_cell_setting 'orthorhombic'
loop_
_space_group_symop_operation_xyz
x,y,z
-x,1/2-y,z
x,1/2-y,1/2-z
-x,y,1/2-z
-x,-y,-z
x,1/2+y,-z
-x,1/2+y,1/2+z
x,-y,1/2+z
1/2+x,1/2+y,z
1/2-x,-y,z
1/2+x,-y,1/2-z
1/2-x,1/2+y,1/2-z
1/2-x,1/2-y,-z
1/2+x,y,-z
1/2-x,y,1/2+z
1/2+x,1/2-y,1/2+z
loop_
_atom_site_type_symbol
_atom_site_label
_atom_site_fract_x
_atom_site_fract_y
_atom_site_fract_z
Si Si1 0.250000 0.500000 0.730402
Si Si2 0.371120 0.405470 0.879991
Si Si3 0.800011 0.917010 0.081186
Si Si4 0.557134 0.316199 0.143733
O O1 0.319353 0.448218 0.796361
O O2 0.124723 0.465175 0.654384
O O3 0.592295 0.400720 0.888307
O O4 0.302249 0.434194 0.975347
O O5 0.764105 0.342792 0.132356
O O6 0.929915 0.860649 0.087445
O O7 0.500000 0.250000 0.116419
O O8 0.500000 0.322078 0.250000
#
# Coordination Sequence:
#
# PCOD9510645 Si02
#       4
#     8  16  16  16
#     4  12  28  44  74 102 150 188 232 302 358 428
#     4  12  27  46  73 110 144 191 240 295 363 429
#     4  12  27  46  73 110 144 191 240 295 363 429
#     4  11  26  50  75 104 146 190 244 298 359 430
#
# _framework density 23.51867
#
# number of rings (size 3 to 8) (size 9 to 14) (size 15 to 20)
#    0.000    0.286    5.714    1.714    8.000    4.571 
#    0.000    2.857    0.000    0.000    0.000    0.000 
#    0.000    0.000    0.000    0.000    0.000    0.000 
#
# Total GULP energy -156634.722087 kJ/mol
# GULP energy per Si atom -5594.097217 kJ/mol
# Density = 2.346514 g / cm^3
# Si number density = 23.518670 Si / 1000 Ang^3
#
#
#
# Elastic Constant Matrix: (Units=GPa)
#
#
# Indices 1 2 3 4 5 6 
#
# 1 123.5000 28.1855 4.6321 0.0000 0.0000 0.0000
# 2 28.1855 147.8400 41.7531 0.0000 0.0000 0.0000
# 3 4.6321 41.7531 177.0957 0.0000 0.0000 0.0000
# 4 0.0000 0.0000 0.0000 108.1420 0.0000 0.0000
# 5 0.0000 0.0000 0.0000 0.0000 33.6901 0.0000
# 6 0.0000 0.0000 0.0000 0.0000 0.0000 33.3704
#
#
#
# Elastic Compliance Matrix: (Units=1/GPa)
#
#
# Indices 1 2 3 4 5 6 
#
# 1 0.008470 -0.001663 0.000171 0.000000 0.000000 0.000000
# 2 -0.001663 0.007573 -0.001742 0.000000 0.000000 0.000000
# 3 0.000171 -0.001742 0.006053 0.000000 0.000000 0.000000
# 4 0.000000 0.000000 0.000000 0.009247 0.000000 0.000000
# 5 0.000000 0.000000 0.000000 0.000000 0.029682 0.000000
# 6 0.000000 0.000000 0.000000 0.000000 0.000000 0.029967
#
#
# Mechanical properties :
#
#
# Convention : Reuss Voigt Hill
#
# Bulk Modulus (GPa) = 63.99026 66.39747 65.19387
# Shear Modulus (GPa) = 48.69955 59.96485 54.33220
#
# Velocity S-wave (km/s) = 4.55540 5.05490 4.81164
# Velocity P-wave (km/s) = 7.41190 7.89699 7.65829
#
# Compressibility (1/GPa) = 0.01562738
#
# Stress axis : x y z
#
# Youngs Moduli (GPa) = 118.05948 132.04644 165.21003
#
# Poissons Ratio (x) = 0.21960 -0.02817
# Poissons Ratio (y) = 0.19633 0.28779
# Poissons Ratio (z) = -0.02013 0.23002
#
# Static dielectric constant tensor:
#      x y z
#    x 2.019200 0.000000 0.000000 
#    y 0.000000 1.907340 0.000000 
#    z 0.000000 0.000000 1.926690 
# 
# From -- ./inp_files/10585.got.cif
#   From: 2010.05.17/outbox.cif.g08.bks.cpg/sg68_6_cif.got.tgz:10585.got - 2010.06.03 18:57:09.
