data_PCOD9510850
_publ_section_title
;
Structure prediction by ZEFSAII (Michael W. Deem and Ramdas Pophale) SiO2 
 PCOD9510850
Probable space group: C C C A
;
_chemical_formula_sum "Si O2"
_cell_formula_units_Z 60
_cell_length_a 7.604900
_cell_length_b 18.028118
_cell_length_c 16.388926
_cell_angle_alpha 90.000000
_cell_angle_beta 90.000000
_cell_angle_gamma 90.000000
_cell_volume 2246.955099
_symmetry_space_group_name_H-M "C C C A"
_symmetry_group_IT_number 68
_space_group.IT_coordinate_system_code '2'
_symmetry_cell_setting 'orthorhombic'
loop_
_space_group_symop_operation_xyz
x,y,z
-x,1/2-y,z
x,1/2-y,1/2-z
-x,y,1/2-z
-x,-y,-z
x,1/2+y,-z
-x,1/2+y,1/2+z
x,-y,1/2+z
1/2+x,1/2+y,z
1/2-x,-y,z
1/2+x,-y,1/2-z
1/2-x,1/2+y,1/2-z
1/2-x,1/2-y,-z
1/2+x,y,-z
1/2-x,y,1/2+z
1/2+x,1/2-y,1/2+z
loop_
_atom_site_type_symbol
_atom_site_label
_atom_site_fract_x
_atom_site_fract_y
_atom_site_fract_z
Si Si1 0.000000 0.250000 0.250000
Si Si2 0.167067 0.653638 0.194265
Si Si3 0.250000 0.500000 0.779859
Si Si4 0.263098 0.335192 0.025898
Si Si5 0.460031 0.057542 0.573414
O O1 0.850621 0.200318 0.204388
O O2 0.213729 0.571397 0.225324
O O3 0.099797 0.661030 0.100812
O O4 0.000000 0.675018 0.250000
O O5 0.409930 0.481304 0.842586
O O6 0.110399 0.381299 0.069979
O O7 0.250000 0.250000 0.000000
O O8 0.300511 0.388447 0.950372
O O9 0.500000 0.000000 0.500000
#
# Coordination Sequence:
#
# PCOD9510850 Si02
#       5
#     4  16   8  16  16
#     4  12  30  56  80 122 168 226 284 364 440 506
#     4  12  31  52  88 124 177 225 296 365 442 530
#     4  12  28  50  84 128 168 232 292 364 444 524
#     4  12  29  50  82 121 170 227 281 361 440 525
#     4  12  25  49  82 119 168 220 291 355 433 527
#
# _framework density 26.702804
#
# number of rings (size 3 to 8) (size 9 to 14) (size 15 to 20)
#    0.000    0.000    2.667    4.400   16.800    2.133 
#    0.000    0.000    0.000    0.000    0.000    0.000 
#    0.000    0.000    0.000    0.000    0.000    0.000 
#
# Total GULP energy -167705.947575 kJ/mol
# GULP energy per Si atom -5590.198252 kJ/mol
# Density = 2.664203 g / cm^3
# Si number density = 26.702804 Si / 1000 Ang^3
#
#
#
# Elastic Constant Matrix: (Units=GPa)
#
#
# Indices 1 2 3 4 5 6 
#
# 1 104.3278 27.7354 -7.5467 0.0000 0.0000 0.0000
# 2 27.7354 246.8699 84.9258 0.0000 0.0000 0.0000
# 3 -7.5467 84.9258 123.2483 0.0000 0.0000 0.0000
# 4 0.0000 0.0000 0.0000 128.4831 0.0000 0.0000
# 5 0.0000 0.0000 0.0000 0.0000 41.4663 0.0000
# 6 0.0000 0.0000 0.0000 0.0000 0.0000 55.0869
#
#
#
# Elastic Compliance Matrix: (Units=1/GPa)
#
#
# Indices 1 2 3 4 5 6 
#
# 1 0.010193 -0.001782 0.001852 0.000000 0.000000 0.000000
# 2 -0.001782 0.005621 -0.003982 0.000000 0.000000 0.000000
# 3 0.001852 -0.003982 0.010971 0.000000 0.000000 0.000000
# 4 0.000000 0.000000 0.000000 0.007783 0.000000 0.000000
# 5 0.000000 0.000000 0.000000 0.000000 0.024116 0.000000
# 6 0.000000 0.000000 0.000000 0.000000 0.000000 0.018153
#
#
# Mechanical properties :
#
#
# Convention : Reuss Voigt Hill
#
# Bulk Modulus (GPa) = 52.74167 76.07500 64.40834
# Shear Modulus (GPa) = 54.95580 69.62936 62.29258
#
# Velocity S-wave (km/s) = 4.54150 5.11197 4.83516
# Velocity P-wave (km/s) = 6.87710 7.96206 7.43939
#
# Compressibility (1/GPa) = 0.01896034
#
# Stress axis : x y z
#
# Youngs Moduli (GPa) = 98.10650 177.90695 91.14798
#
# Poissons Ratio (x) = 0.31710 -0.16883
# Poissons Ratio (y) = 0.17486 0.36298
# Poissons Ratio (z) = -0.18172 0.70848
#
# Static dielectric constant tensor:
#      x y z
#    x 1.445620 0.000000 0.000000 
#    y 0.000000 1.807810 0.000000 
#    z 0.000000 0.000000 2.262290 
# 
# From -- ./inp_files/27739.got.cif
#   From: 2010.05.17/outbox.cif.g08.bks.cpg/sg68_14_cif.got.tgz:27739.got - 2010.06.03 18:57:09.
