data_PCOD9510398
_publ_section_title
;
Structure prediction by ZEFSAII (Michael W. Deem and Ramdas Pophale) SiO2 
 PCOD9510398
Probable space group: C C C A
;
_chemical_formula_sum "Si O2"
_cell_formula_units_Z 96
_cell_length_a 10.098671
_cell_length_b 18.217995
_cell_length_c 24.412567
_cell_angle_alpha 90.000000
_cell_angle_beta 90.000000
_cell_angle_gamma 90.000000
_cell_volume 4491.363968
_symmetry_space_group_name_H-M "C C C A"
_symmetry_group_IT_number 68
_space_group.IT_coordinate_system_code '2'
_symmetry_cell_setting 'orthorhombic'
loop_
_space_group_symop_operation_xyz
x,y,z
-x,1/2-y,z
x,1/2-y,1/2-z
-x,y,1/2-z
-x,-y,-z
x,1/2+y,-z
-x,1/2+y,1/2+z
x,-y,1/2+z
1/2+x,1/2+y,z
1/2-x,-y,z
1/2+x,-y,1/2-z
1/2-x,1/2+y,1/2-z
1/2-x,1/2-y,-z
1/2+x,y,-z
1/2-x,y,1/2+z
1/2+x,1/2-y,1/2+z
loop_
_atom_site_type_symbol
_atom_site_label
_atom_site_fract_x
_atom_site_fract_y
_atom_site_fract_z
Si Si1 0.353222 0.938071 0.031558
Si Si2 0.264608 0.379442 0.634971
Si Si3 0.054808 0.499286 0.607735
Si Si4 0.644121 0.291905 0.461223
Si Si5 0.651753 0.662988 0.748782
Si Si6 0.294629 0.923528 0.646969
O O1 0.488579 0.974996 0.051674
O O2 0.283184 0.912835 0.089744
O O3 0.250000 0.000000 0.010573
O O4 0.378970 0.868902 0.993143
O O5 0.174540 0.443471 0.609586
O O6 0.405900 0.421876 0.634291
O O7 0.222858 0.311362 0.595506
O O8 0.225481 0.364347 0.697183
O O9 0.943739 0.445587 0.632908
O O10 0.500000 0.250000 0.454012
O O11 0.750000 0.250000 0.500000
O O12 0.648021 0.750000 0.750000
O O13 0.500000 0.635055 0.750000
O O14 0.715453 0.638586 0.691629
O O15 0.250000 0.000000 0.673929
#
# Coordination Sequence:
#
# PCOD9510398 Si02
#       6
#    16  16  16  16  16  16
#     4   9  22  44  69  91 130 171 223 272 325 390
#     4  11  24  39  65  96 129 166 223 267 331 389
#     4   9  20  41  64  97 120 166 217 278 308 384
#     4  12  29  43  68  98 136 178 214 280 335 403
#     4  11  24  37  60  90 132 171 203 267 324 401
#     4   9  20  40  68  90 124 168 217 269 321 380
#
# _framework density 21.374352999999999
#
# number of rings (size 3 to 8) (size 9 to 14) (size 15 to 20)
#    0.000    2.167    1.667    1.000   14.000    0.667 
#    0.000    0.000    0.000    4.000    0.000    0.000 
#    0.000    0.000    0.000    0.000    0.000    0.000 
#
# Total GULP energy -267330.978951 kJ/mol
# GULP energy per Si atom -5569.395395 kJ/mol
# Density = 2.132570 g / cm^3
# Si number density = 21.374353 Si / 1000 Ang^3
#
#
#
# Elastic Constant Matrix: (Units=GPa)
#
#
# Indices 1 2 3 4 5 6 
#
# 1 35.1466 -7.1045 20.4815 0.0000 0.0000 0.0000
# 2 -7.1045 62.8521 41.2371 0.0000 0.0000 0.0000
# 3 20.4815 41.2371 145.5211 0.0000 0.0000 0.0000
# 4 0.0000 0.0000 0.0000 46.7858 0.0000 0.0000
# 5 0.0000 0.0000 0.0000 0.0000 24.5604 0.0000
# 6 0.0000 0.0000 0.0000 0.0000 0.0000 33.3890
#
#
#
# Elastic Compliance Matrix: (Units=1/GPa)
#
#
# Indices 1 2 3 4 5 6 
#
# 1 0.034474 0.008697 -0.007317 0.000000 0.000000 0.000000
# 2 0.008697 0.021738 -0.007384 0.000000 0.000000 0.000000
# 3 -0.007317 -0.007384 0.009994 0.000000 0.000000 0.000000
# 4 0.000000 0.000000 0.000000 0.021374 0.000000 0.000000
# 5 0.000000 0.000000 0.000000 0.000000 0.040716 0.000000
# 6 0.000000 0.000000 0.000000 0.000000 0.000000 0.029950
#
#
# Mechanical properties :
#
#
# Convention : Reuss Voigt Hill
#
# Bulk Modulus (GPa) = 18.45047 39.19423 28.82235
# Shear Modulus (GPa) = 26.55058 33.54078 30.04568
#
# Velocity S-wave (km/s) = 3.52827 3.96562 3.75332
# Velocity P-wave (km/s) = 5.02484 6.27256 5.68305
#
# Compressibility (1/GPa) = 0.05419917
#
# Stress axis : x y z
#
# Youngs Moduli (GPa) = 29.00733 46.00198 100.05859
#
# Poissons Ratio (x) = -0.40009 0.73210
# Poissons Ratio (y) = -0.25228 0.73885
# Poissons Ratio (z) = 0.21224 0.33969
#
# Static dielectric constant tensor:
#      x y z
#    x 1.837360 0.000000 0.000000 
#    y 0.000000 1.860420 0.000000 
#    z 0.000000 0.000000 1.807490 
# 
# From -- ./inp_files/44389.got.cif
#   From: 2010.05.17/outbox.cif.g08.bks.cpg/sg68_23_cif.got.tgz:44389.got - 2010.06.03 18:57:09.
