data_PCOD9510007
_publ_section_title
;
Structure prediction by ZEFSAII (Michael W. Deem and Ramdas Pophale) SiO2 
 PCOD9510007
Probable space group: C C C A
;
_chemical_formula_sum "Si O2"
_cell_formula_units_Z 64
_cell_length_a 16.199797
_cell_length_b 8.525517
_cell_length_c 25.092206
_cell_angle_alpha 90.000000
_cell_angle_beta 90.000000
_cell_angle_gamma 90.000000
_cell_volume 3465.525840
_symmetry_space_group_name_H-M "C C C A"
_symmetry_group_IT_number 68
_space_group.IT_coordinate_system_code '2'
_symmetry_cell_setting 'orthorhombic'
loop_
_space_group_symop_operation_xyz
x,y,z
-x,1/2-y,z
x,1/2-y,1/2-z
-x,y,1/2-z
-x,-y,-z
x,1/2+y,-z
-x,1/2+y,1/2+z
x,-y,1/2+z
1/2+x,1/2+y,z
1/2-x,-y,z
1/2+x,-y,1/2-z
1/2-x,1/2+y,1/2-z
1/2-x,1/2-y,-z
1/2+x,y,-z
1/2-x,y,1/2+z
1/2+x,1/2-y,1/2+z
loop_
_atom_site_type_symbol
_atom_site_label
_atom_site_fract_x
_atom_site_fract_y
_atom_site_fract_z
Si Si1 0.155737 0.437113 0.753714
Si Si2 0.422332 0.629818 0.159105
Si Si3 0.840989 0.436387 0.132353
Si Si4 0.990086 0.063549 0.441164
O O1 0.154110 0.250000 0.750000
O O2 0.250000 0.500000 0.748311
O O3 0.101736 0.525371 0.709268
O O4 0.127899 0.484689 0.812960
O O5 0.500000 0.750000 0.169016
O O6 0.348425 0.749849 0.143873
O O7 0.446321 0.526613 0.107184
O O8 0.750000 0.500000 0.122825
O O9 0.901052 0.473711 0.083617
O O10 0.000000 0.250000 0.445850
O O11 0.000000 0.000000 0.500000
#
# Coordination Sequence:
#
# PCOD9510007 Si02
#       4
#    16  16  16  16
#     4  11  21  34  57  88 117 148 185 229 280 336
#     4   9  20  38  57  79 112 151 183 227 281 327
#     4   9  18  35  56  77 108 147 182 224 276 331
#     4   9  20  37  55  75 106 144 183 229 277 323
#
# _framework density 18.467617000000001
#
# number of rings (size 3 to 8) (size 9 to 14) (size 15 to 20)
#    0.000    3.000    0.000    3.750    0.000   10.000 
#    0.000   15.000    0.000    0.000    0.000    0.000 
#    0.000    0.000    0.000    0.000    0.000    0.000 
#
# Total GULP energy -178337.038613 kJ/mol
# GULP energy per Si atom -5573.032457 kJ/mol
# Density = 1.842558 g / cm^3
# Si number density = 18.467617 Si / 1000 Ang^3
#
#
#
# Elastic Constant Matrix: (Units=GPa)
#
#
# Indices 1 2 3 4 5 6 
#
# 1 96.3277 53.0682 80.4801 0.0000 0.0000 0.0000
# 2 53.0682 73.7871 62.9932 0.0000 0.0000 0.0000
# 3 80.4801 62.9932 206.8321 0.0000 0.0000 0.0000
# 4 0.0000 0.0000 0.0000 39.5270 0.0000 0.0000
# 5 0.0000 0.0000 0.0000 0.0000 16.0847 0.0000
# 6 0.0000 0.0000 0.0000 0.0000 0.0000 29.1019
#
#
#
# Elastic Compliance Matrix: (Units=1/GPa)
#
#
# Indices 1 2 3 4 5 6 
#
# 1 0.019969 -0.010444 -0.004589 0.000000 0.000000 0.000000
# 2 -0.010444 0.023777 -0.003178 0.000000 0.000000 0.000000
# 3 -0.004589 -0.003178 0.007588 0.000000 0.000000 0.000000
# 4 0.000000 0.000000 0.000000 0.025299 0.000000 0.000000
# 5 0.000000 0.000000 0.000000 0.000000 0.062171 0.000000
# 6 0.000000 0.000000 0.000000 0.000000 0.000000 0.034362
#
#
# Mechanical properties :
#
#
# Convention : Reuss Voigt Hill
#
# Bulk Modulus (GPa) = 67.05852 85.55888 76.30870
# Shear Modulus (GPa) = 23.30357 28.96974 26.13665
#
# Velocity S-wave (km/s) = 3.55612 3.96495 3.76609
# Velocity P-wave (km/s) = 7.29737 8.20919 7.76667
#
# Compressibility (1/GPa) = 0.01491235
#
# Stress axis : x y z
#
# Youngs Moduli (GPa) = 50.07679 42.05790 131.78044
#
# Poissons Ratio (x) = 0.43926 0.60479
# Poissons Ratio (y) = 0.52301 0.41875
# Poissons Ratio (z) = 0.22982 0.13364
#
# Static dielectric constant tensor:
#      x y z
#    x 1.683260 0.000000 0.000000 
#    y 0.000000 1.648430 0.000000 
#    z 0.000000 0.000000 1.666400 
# 
# From -- ./inp_files/45813.got.cif
#   From: 2010.05.17/outbox.cif.g08.bks.cpg/sg68_23_cif.got.tgz:45813.got - 2010.06.03 18:57:09.
