data_PCOD9510889
_publ_section_title
;
Structure prediction by ZEFSAII (Michael W. Deem and Ramdas Pophale) SiO2 
 PCOD9510889
Probable space group: C C C A
;
_chemical_formula_sum "Si O2"
_cell_formula_units_Z 52
_cell_length_a 18.877575
_cell_length_b 7.340763
_cell_length_c 14.434334
_cell_angle_alpha 90.000000
_cell_angle_beta 90.000000
_cell_angle_gamma 90.000000
_cell_volume 2000.249441
_symmetry_space_group_name_H-M "C C C A"
_symmetry_group_IT_number 68
_space_group.IT_coordinate_system_code '2'
_symmetry_cell_setting 'orthorhombic'
loop_
_space_group_symop_operation_xyz
x,y,z
-x,1/2-y,z
x,1/2-y,1/2-z
-x,y,1/2-z
-x,-y,-z
x,1/2+y,-z
-x,1/2+y,1/2+z
x,-y,1/2+z
1/2+x,1/2+y,z
1/2-x,-y,z
1/2+x,-y,1/2-z
1/2-x,1/2+y,1/2-z
1/2-x,1/2-y,-z
1/2+x,y,-z
1/2-x,y,1/2+z
1/2+x,1/2-y,1/2+z
loop_
_atom_site_type_symbol
_atom_site_label
_atom_site_fract_x
_atom_site_fract_y
_atom_site_fract_z
Si Si1 0.000000 0.250000 0.250000
Si Si2 0.823795 0.941953 0.699170
Si Si3 0.573759 0.927575 0.549756
Si Si4 0.901173 0.532824 0.134482
O O1 0.956785 0.395728 0.185634
O O2 0.817624 0.750000 0.750000
O O3 0.888363 0.949521 0.626678
O O4 0.842815 0.065713 0.787929
O O5 0.750000 0.000000 0.655108
O O6 0.426999 0.768003 0.599996
O O7 0.500000 0.000000 0.500000
O O8 0.622953 0.931358 0.458772
#
# Coordination Sequence:
#
# PCOD9510889 Si02
#       4
#     4  16  16  16
#     4  12  28  52  82 120 172 228 288 364 440 504
#     4  12  27  54  84 123 174 236 292 348 436 528
#     4  12  28  49  80 125 172 224 286 365 437 508
#     4  12  27  48  78 119 167 221 286 355 430 513
#
# _framework density 25.996756000000001
#
# number of rings (size 3 to 8) (size 9 to 14) (size 15 to 20)
#    0.000    0.000    1.538    7.385    4.308    3.692 
#    0.000    6.154    0.000    0.000    0.000    0.000 
#    0.000    0.000    0.000    0.000    0.000    0.000 
#
# Total GULP energy -145125.727792 kJ/mol
# GULP energy per Si atom -5581.758761 kJ/mol
# Density = 2.593759 g / cm^3
# Si number density = 25.996756 Si / 1000 Ang^3
#
#
#
# Elastic Constant Matrix: (Units=GPa)
#
#
# Indices 1 2 3 4 5 6 
#
# 1 123.4299 53.0242 48.5072 0.0000 0.0000 0.0000
# 2 53.0242 224.4665 61.3842 0.0000 0.0000 0.0000
# 3 48.5072 61.3842 192.4870 0.0000 0.0000 0.0000
# 4 0.0000 0.0000 0.0000 61.3699 0.0000 0.0000
# 5 0.0000 0.0000 0.0000 0.0000 31.5177 0.0000
# 6 0.0000 0.0000 0.0000 0.0000 0.0000 32.7039
#
#
#
# Elastic Compliance Matrix: (Units=1/GPa)
#
#
# Indices 1 2 3 4 5 6 
#
# 1 0.009586 -0.001757 -0.001855 0.000000 0.000000 0.000000
# 2 -0.001757 0.005203 -0.001216 0.000000 0.000000 0.000000
# 3 -0.001855 -0.001216 0.006051 0.000000 0.000000 0.000000
# 4 0.000000 0.000000 0.000000 0.016295 0.000000 0.000000
# 5 0.000000 0.000000 0.000000 0.000000 0.031728 0.000000
# 6 0.000000 0.000000 0.000000 0.000000 0.000000 0.030577
#
#
# Mechanical properties :
#
#
# Convention : Reuss Voigt Hill
#
# Bulk Modulus (GPa) = 89.43253 96.24608 92.83931
# Shear Modulus (GPa) = 44.31692 50.28283 47.29987
#
# Velocity S-wave (km/s) = 4.13329 4.40272 4.27013
# Velocity P-wave (km/s) = 7.56670 7.93398 7.75251
#
# Compressibility (1/GPa) = 0.01118161
#
# Stress axis : x y z
#
# Youngs Moduli (GPa) = 104.32232 192.20836 165.27281
#
# Poissons Ratio (x) = 0.33771 0.30663
# Poissons Ratio (y) = 0.18329 0.20103
# Poissons Ratio (z) = 0.19355 0.23380
#
# Static dielectric constant tensor:
#      x y z
#    x 2.251270 0.000000 0.000000 
#    y 0.000000 2.171770 0.000000 
#    z 0.000000 0.000000 2.116230 
# 
# From -- ./inp_files/24195.got.cif
#   From: 2010.05.17/outbox.cif.g08.bks.cpg/sg68_13_cif.got.tgz:24195.got - 2010.06.03 18:57:09.
