data_PCOD9510270
_publ_section_title
;
Structure prediction by ZEFSAII (Michael W. Deem and Ramdas Pophale) SiO2 
 PCOD9510270
Probable space group: C C C A
;
_chemical_formula_sum "Si O2"
_cell_formula_units_Z 88
_cell_length_a 11.156008
_cell_length_b 11.789715
_cell_length_c 32.423492
_cell_angle_alpha 90.000000
_cell_angle_beta 90.000000
_cell_angle_gamma 90.000000
_cell_volume 4264.537230
_symmetry_space_group_name_H-M "C C C A"
_symmetry_group_IT_number 68
_space_group.IT_coordinate_system_code '2'
_symmetry_cell_setting 'orthorhombic'
loop_
_space_group_symop_operation_xyz
x,y,z
-x,1/2-y,z
x,1/2-y,1/2-z
-x,y,1/2-z
-x,-y,-z
x,1/2+y,-z
-x,1/2+y,1/2+z
x,-y,1/2+z
1/2+x,1/2+y,z
1/2-x,-y,z
1/2+x,-y,1/2-z
1/2-x,1/2+y,1/2-z
1/2-x,1/2-y,-z
1/2+x,y,-z
1/2-x,y,1/2+z
1/2+x,1/2-y,1/2+z
loop_
_atom_site_type_symbol
_atom_site_label
_atom_site_fract_x
_atom_site_fract_y
_atom_site_fract_z
Si Si1 0.250000 0.500000 0.331820
Si Si2 0.864152 0.572307 0.042363
Si Si3 0.520580 0.615091 0.204036
Si Si4 0.172123 0.610941 0.632419
Si Si5 0.870177 0.797458 0.377121
Si Si6 0.941259 0.371483 0.456302
O O1 0.344898 0.578322 0.307605
O O2 0.163784 0.581754 0.357925
O O3 0.750000 0.500000 0.054960
O O4 0.873482 0.677809 0.073617
O O5 0.973643 0.482851 0.045163
O O6 0.852742 0.608243 0.994679
O O7 0.500000 0.750000 0.206109
O O8 0.500000 0.567380 0.250000
O O9 0.423460 0.585163 0.168573
O O10 0.250000 0.500000 0.625838
O O11 0.266567 0.712825 0.638284
O O12 0.108565 0.639354 0.589494
O O13 0.000000 0.750000 0.364931
O O14 0.000000 0.250000 0.466109
#
# Coordination Sequence:
#
# PCOD9510270 Si02
#       6
#     8  16  16  16  16  16
#     4  12  24  48  74 104 144 186 226 296 350 422
#     4  11  23  40  61  94 136 180 233 286 344 405
#     4  11  25  47  74 104 141 183 232 291 356 425
#     4  12  25  44  70 101 140 180 238 288 352 423
#     4  12  25  43  70 103 140 188 235 286 347 421
#     4  11  24  39  62  93 133 182 231 286 345 412
#
# _framework density 20.635297999999999
#
# number of rings (size 3 to 8) (size 9 to 14) (size 15 to 20)
#    0.000    0.545    2.727    6.000    1.273    5.818 
#    0.000    0.000    0.000    0.000    0.000    0.000 
#    0.000    0.000    0.000    0.000    0.000    0.000 
#
# Total GULP energy -245648.609665 kJ/mol
# GULP energy per Si atom -5582.922947 kJ/mol
# Density = 2.058833 g / cm^3
# Si number density = 20.635298 Si / 1000 Ang^3
#
#
#
# Elastic Constant Matrix: (Units=GPa)
#
#
# Indices 1 2 3 4 5 6 
#
# 1 110.5954 18.5253 50.0552 0.0000 0.0000 0.0000
# 2 18.5253 70.6129 10.5711 0.0000 0.0000 0.0000
# 3 50.0552 10.5711 98.2234 0.0000 0.0000 0.0000
# 4 0.0000 0.0000 0.0000 39.7866 0.0000 0.0000
# 5 0.0000 0.0000 0.0000 0.0000 28.8815 0.0000
# 6 0.0000 0.0000 0.0000 0.0000 0.0000 42.9357
#
#
#
# Elastic Compliance Matrix: (Units=1/GPa)
#
#
# Indices 1 2 3 4 5 6 
#
# 1 0.012106 -0.002289 -0.005923 0.000000 0.000000 0.000000
# 2 -0.002289 0.014827 -0.000429 0.000000 0.000000 0.000000
# 3 -0.005923 -0.000429 0.013245 0.000000 0.000000 0.000000
# 4 0.000000 0.000000 0.000000 0.025134 0.000000 0.000000
# 5 0.000000 0.000000 0.000000 0.000000 0.034624 0.000000
# 6 0.000000 0.000000 0.000000 0.000000 0.000000 0.023291
#
#
# Mechanical properties :
#
#
# Convention : Reuss Voigt Hill
#
# Bulk Modulus (GPa) = 43.67681 48.63723 46.15702
# Shear Modulus (GPa) = 33.75149 35.67278 34.71213
#
# Velocity S-wave (km/s) = 4.04867 4.16231 4.10588
# Velocity P-wave (km/s) = 6.56259 6.83526 6.70031
#
# Compressibility (1/GPa) = 0.02289544
#
# Stress axis : x y z
#
# Youngs Moduli (GPa) = 82.60246 67.44656 75.49771
#
# Poissons Ratio (x) = 0.15441 0.44717
# Poissons Ratio (y) = 0.18911 0.03239
# Poissons Ratio (z) = 0.48925 0.02894
#
# Static dielectric constant tensor:
#      x y z
#    x 1.861580 0.000000 0.000000 
#    y 0.000000 1.664790 0.000000 
#    z 0.000000 0.000000 1.792760 
# 
# From -- ./inp_files/54608.got.cif
#   From: 2010.05.17/outbox.cif.g08.bks.cpg/sg68_28_cif.got.tgz:54608.got - 2010.06.03 18:57:09.
