data_PCOD9510465
_publ_section_title
;
Structure prediction by ZEFSAII (Michael W. Deem and Ramdas Pophale) SiO2 
 PCOD9510465
Probable space group: C C C A
;
_chemical_formula_sum "Si O2"
_cell_formula_units_Z 88
_cell_length_a 22.159744
_cell_length_b 16.069636
_cell_length_c 11.876037
_cell_angle_alpha 90.000000
_cell_angle_beta 90.000000
_cell_angle_gamma 90.000000
_cell_volume 4229.045136
_symmetry_space_group_name_H-M "C C C A"
_symmetry_group_IT_number 68
_space_group.IT_coordinate_system_code '2'
_symmetry_cell_setting 'orthorhombic'
loop_
_space_group_symop_operation_xyz
x,y,z
-x,1/2-y,z
x,1/2-y,1/2-z
-x,y,1/2-z
-x,-y,-z
x,1/2+y,-z
-x,1/2+y,1/2+z
x,-y,1/2+z
1/2+x,1/2+y,z
1/2-x,-y,z
1/2+x,-y,1/2-z
1/2-x,1/2+y,1/2-z
1/2-x,1/2-y,-z
1/2+x,y,-z
1/2-x,y,1/2+z
1/2+x,1/2-y,1/2+z
loop_
_atom_site_type_symbol
_atom_site_label
_atom_site_fract_x
_atom_site_fract_y
_atom_site_fract_z
Si Si1 0.829968 0.122188 0.301581
Si Si2 0.516460 0.928204 0.586421
Si Si3 0.102530 0.954128 0.231222
Si Si4 0.698800 0.674439 0.664853
Si Si5 0.133147 0.213011 0.425696
Si Si6 0.000000 0.750000 0.509163
O O1 0.760003 0.120474 0.337212
O O2 0.856062 0.194228 0.380553
O O3 0.840656 0.152833 0.172224
O O4 0.865850 0.036725 0.314135
O O5 0.576574 0.962954 0.644585
O O6 0.456628 0.928316 0.662732
O O7 0.525985 0.831656 0.553693
O O8 0.500000 0.000000 0.500000
O O9 0.148576 0.879674 0.225135
O O10 0.713051 0.750000 0.750000
O O11 0.669767 0.698478 0.542933
O O12 0.059836 0.208967 0.433307
#
# Coordination Sequence:
#
# PCOD9510465 Si02
#       6
#    16  16  16  16  16   8
#     4  11  25  45  68 102 141 189 230 294 344 424
#     4  11  24  44  66 104 144 178 233 297 349 426
#     4  11  25  41  69 100 141 178 236 283 356 411
#     4  12  24  46  69 101 143 184 239 289 345 428
#     4  11  24  45  71 102 139 182 242 281 363 417
#     4  12  22  42  76 100 140 188 227 295 368 412
#
# _framework density 20.808481
#
# number of rings (size 3 to 8) (size 9 to 14) (size 15 to 20)
#    0.000    0.727    3.636    4.364    0.000    3.636 
#    0.000    1.818    0.000    0.000    0.000    0.000 
#    0.000    0.000    0.000    0.000    0.000    0.000 
#
# Total GULP energy -245377.400852 kJ/mol
# GULP energy per Si atom -5576.759110 kJ/mol
# Density = 2.076112 g / cm^3
# Si number density = 20.808481 Si / 1000 Ang^3
#
#
#
# Elastic Constant Matrix: (Units=GPa)
#
#
# Indices 1 2 3 4 5 6 
#
# 1 129.9022 -0.8367 27.7603 0.0000 0.0000 0.0000
# 2 -0.8367 66.0745 -4.4555 0.0000 0.0000 0.0000
# 3 27.7603 -4.4555 62.7937 0.0000 0.0000 0.0000
# 4 0.0000 0.0000 0.0000 3.8892 0.0000 0.0000
# 5 0.0000 0.0000 0.0000 0.0000 19.4654 0.0000
# 6 0.0000 0.0000 0.0000 0.0000 0.0000 29.6971
#
#
#
# Elastic Compliance Matrix: (Units=1/GPa)
#
#
# Indices 1 2 3 4 5 6 
#
# 1 0.008503 -0.000146 -0.003769 0.000000 0.000000 0.000000
# 2 -0.000146 0.015210 0.001144 0.000000 0.000000 0.000000
# 3 -0.003769 0.001144 0.017673 0.000000 0.000000 0.000000
# 4 0.000000 0.000000 0.000000 0.257122 0.000000 0.000000
# 5 0.000000 0.000000 0.000000 0.000000 0.051373 0.000000
# 6 0.000000 0.000000 0.000000 0.000000 0.000000 0.033673
#
#
# Mechanical properties :
#
#
# Convention : Reuss Voigt Hill
#
# Bulk Modulus (GPa) = 27.90071 33.74517 30.82294
# Shear Modulus (GPa) = 12.46745 26.36382 19.41563
#
# Velocity S-wave (km/s) = 2.45041 3.56332 3.05792
# Velocity P-wave (km/s) = 4.63071 5.76037 5.22615
#
# Compressibility (1/GPa) = 0.03584139
#
# Stress axis : x y z
#
# Youngs Moduli (GPa) = 117.61024 65.74741 56.58449
#
# Poissons Ratio (x) = 0.00963 0.21328
# Poissons Ratio (y) = 0.01723 -0.06473
# Poissons Ratio (z) = 0.44331 -0.07521
#
# Static dielectric constant tensor:
#      x y z
#    x 3.656350 0.000000 0.000000 
#    y 0.000000 1.718490 0.000000 
#    z 0.000000 0.000000 1.795860 
# 
# From -- ./inp_files/15430.got.cif
#   From: 2010.05.17/outbox.cif.g08.bks.cpg/sg68_8_cif.got.tgz:15430.got - 2010.06.03 18:57:09.
