data_PCOD9510356
_publ_section_title
;
Structure prediction by ZEFSAII (Michael W. Deem and Ramdas Pophale) SiO2 
 PCOD9510356
Probable space group: C C C A
;
_chemical_formula_sum "Si O2"
_cell_formula_units_Z 112
_cell_length_a 14.593894
_cell_length_b 23.656268
_cell_length_c 14.163473
_cell_angle_alpha 90.000000
_cell_angle_beta 90.000000
_cell_angle_gamma 90.000000
_cell_volume 4889.755886
_symmetry_space_group_name_H-M "C C C A"
_symmetry_group_IT_number 68
_space_group.IT_coordinate_system_code '2'
_symmetry_cell_setting 'orthorhombic'
loop_
_space_group_symop_operation_xyz
x,y,z
-x,1/2-y,z
x,1/2-y,1/2-z
-x,y,1/2-z
-x,-y,-z
x,1/2+y,-z
-x,1/2+y,1/2+z
x,-y,1/2+z
1/2+x,1/2+y,z
1/2-x,-y,z
1/2+x,-y,1/2-z
1/2-x,1/2+y,1/2-z
1/2-x,1/2-y,-z
1/2+x,y,-z
1/2-x,y,1/2+z
1/2+x,1/2-y,1/2+z
loop_
_atom_site_type_symbol
_atom_site_label
_atom_site_fract_x
_atom_site_fract_y
_atom_site_fract_z
Si Si1 0.262962 0.065833 0.228746
Si Si2 0.167200 0.738428 0.360132
Si Si3 0.741101 0.936495 0.052888
Si Si4 0.924418 0.127593 0.323457
Si Si5 0.326654 0.676424 0.478897
Si Si6 0.973310 0.937166 0.527533
Si Si7 0.942262 0.371663 0.655161
O O1 0.280661 0.064499 0.341181
O O2 0.172199 0.104724 0.216108
O O3 0.347716 0.093733 0.173924
O O4 0.250000 0.000000 0.201311
O O5 0.190579 0.750000 0.250000
O O6 0.247649 0.708848 0.420643
O O7 0.150664 0.794726 0.421344
O O8 0.084895 0.693535 0.360026
O O9 0.750000 0.000000 0.014620
O O10 0.791523 0.887303 0.996568
O O11 0.632462 0.926452 0.053657
O O12 0.908221 0.173901 0.404236
O O13 0.000000 0.147269 0.250000
O O14 0.969361 0.076132 0.379836
O O15 0.990564 0.897886 0.436408
O O16 0.000000 0.000000 0.500000
O O17 0.000000 0.377388 0.750000
#
# Coordination Sequence:
#
# PCOD9510356 Si02
#       7
#    16  16  16  16  16  16  16
#     4  11  24  44  72 106 153 200 247 307 381 453
#     4  11  25  49  81 104 144 197 253 316 380 441
#     4  11  23  44  75 109 148 203 249 305 385 457
#     4  12  25  45  72 105 151 194 243 308 378 457
#     4  11  25  48  78 108 148 198 253 313 383 460
#     4  12  26  42  70 111 154 194 252 310 379 462
#     4  12  28  49  75 110 148 198 264 316 378 456
#
# _framework density 22.905028999999999
#
# number of rings (size 3 to 8) (size 9 to 14) (size 15 to 20)
#    0.000    0.571    4.286    2.571    8.000    2.571 
#    0.000    0.000    0.000    0.000    0.000    0.000 
#    0.000    0.000    0.000    0.000    0.000    0.000 
#
# Total GULP energy -313477.748498 kJ/mol
# GULP energy per Si atom -5597.816937 kJ/mol
# Density = 2.285290 g / cm^3
# Si number density = 22.905029 Si / 1000 Ang^3
#
#
#
# Elastic Constant Matrix: (Units=GPa)
#
#
# Indices 1 2 3 4 5 6 
#
# 1 85.4040 22.1168 25.6678 0.0000 0.0000 0.0000
# 2 22.1168 115.4468 51.6075 0.0000 0.0000 0.0000
# 3 25.6678 51.6075 151.5301 0.0000 0.0000 0.0000
# 4 0.0000 0.0000 0.0000 33.7455 0.0000 0.0000
# 5 0.0000 0.0000 0.0000 0.0000 37.9327 0.0000
# 6 0.0000 0.0000 0.0000 0.0000 0.0000 17.5302
#
#
#
# Elastic Compliance Matrix: (Units=1/GPa)
#
#
# Indices 1 2 3 4 5 6 
#
# 1 0.012622 -0.001725 -0.001551 0.000000 0.000000 0.000000
# 2 -0.001725 0.010453 -0.003268 0.000000 0.000000 0.000000
# 3 -0.001551 -0.003268 0.007975 0.000000 0.000000 0.000000
# 4 0.000000 0.000000 0.000000 0.029634 0.000000 0.000000
# 5 0.000000 0.000000 0.000000 0.000000 0.026362 0.000000
# 6 0.000000 0.000000 0.000000 0.000000 0.000000 0.057044
#
#
# Mechanical properties :
#
#
# Convention : Reuss Voigt Hill
#
# Bulk Modulus (GPa) = 55.66926 61.24058 58.45492
# Shear Modulus (GPa) = 30.64382 34.70760 32.67571
#
# Velocity S-wave (km/s) = 3.66165 3.89689 3.78110
# Velocity P-wave (km/s) = 6.49877 6.85875 6.68119
#
# Compressibility (1/GPa) = 0.01796323
#
# Stress axis : x y z
#
# Youngs Moduli (GPa) = 79.22827 95.66356 125.39204
#
# Poissons Ratio (x) = 0.16501 0.19443
# Poissons Ratio (y) = 0.13666 0.40978
# Poissons Ratio (z) = 0.12285 0.31263
#
# Static dielectric constant tensor:
#      x y z
#    x 1.906820 0.000000 0.000000 
#    y 0.000000 1.843710 0.000000 
#    z 0.000000 0.000000 1.870770 
# 
# From -- ./inp_files/22578.got.cif
#   From: 2010.05.17/outbox.cif.g08.bks.cpg/sg68_12_cif.got.tgz:22578.got - 2010.06.03 18:57:09.
