data_PCOD9510436
_publ_section_title
;
Structure prediction by ZEFSAII (Michael W. Deem and Ramdas Pophale) SiO2 
 PCOD9510436
Probable space group: C C C A
;
_chemical_formula_sum "Si O2"
_cell_formula_units_Z 64
_cell_length_a 17.013363
_cell_length_b 11.456857
_cell_length_c 15.982577
_cell_angle_alpha 90.000000
_cell_angle_beta 90.000000
_cell_angle_gamma 90.000000
_cell_volume 3115.318586
_symmetry_space_group_name_H-M "C C C A"
_symmetry_group_IT_number 68
_space_group.IT_coordinate_system_code '2'
_symmetry_cell_setting 'orthorhombic'
loop_
_space_group_symop_operation_xyz
x,y,z
-x,1/2-y,z
x,1/2-y,1/2-z
-x,y,1/2-z
-x,-y,-z
x,1/2+y,-z
-x,1/2+y,1/2+z
x,-y,1/2+z
1/2+x,1/2+y,z
1/2-x,-y,z
1/2+x,-y,1/2-z
1/2-x,1/2+y,1/2-z
1/2-x,1/2-y,-z
1/2+x,y,-z
1/2-x,y,1/2+z
1/2+x,1/2-y,1/2+z
loop_
_atom_site_type_symbol
_atom_site_label
_atom_site_fract_x
_atom_site_fract_y
_atom_site_fract_z
Si Si1 0.486381 0.115856 0.650951
Si Si2 0.363419 0.981749 0.896581
Si Si3 0.747493 0.691584 0.340181
Si Si4 0.315104 0.415388 0.915381
O O1 0.500000 0.250000 0.621117
O O2 0.500000 0.114109 0.750000
O O3 0.396685 0.085399 0.633159
O O4 0.547140 0.024533 0.609913
O O5 0.333970 0.864053 0.850870
O O6 0.313772 0.086890 0.855307
O O7 0.335870 0.959848 0.991722
O O8 0.737369 0.750000 0.250000
O O9 0.723947 0.788431 0.408368
O O10 0.250000 0.500000 0.876860
#
# Coordination Sequence:
#
# PCOD9510436 Si02
#       4
#    16  16  16  16
#     4  11  24  45  71 103 140 187 235 284 352 423
#     4  11  24  45  70 104 142 184 238 288 357 424
#     4  11  24  42  72 105 140 182 238 290 352 421
#     4  12  25  43  73 105 140 182 233 295 353 422
#
# _framework density 20.543645999999999
#
# number of rings (size 3 to 8) (size 9 to 14) (size 15 to 20)
#    0.000    0.750    5.000    3.000    7.000    0.000 
#    0.000    1.250    0.000    0.000    0.000    0.000 
#    0.000    0.000    0.000    0.000    0.000    0.000 
#
# Total GULP energy -178823.764338 kJ/mol
# GULP energy per Si atom -5588.242636 kJ/mol
# Density = 2.049689 g / cm^3
# Si number density = 20.543646 Si / 1000 Ang^3
#
#
#
# Elastic Constant Matrix: (Units=GPa)
#
#
# Indices 1 2 3 4 5 6 
#
# 1 164.0031 89.8476 43.7225 0.0000 0.0000 0.0000
# 2 89.8476 119.9631 50.4542 0.0000 0.0000 0.0000
# 3 43.7225 50.4542 97.0119 0.0000 0.0000 0.0000
# 4 0.0000 0.0000 0.0000 21.2482 0.0000 0.0000
# 5 0.0000 0.0000 0.0000 0.0000 80.5559 0.0000
# 6 0.0000 0.0000 0.0000 0.0000 0.0000 35.2148
#
#
#
# Elastic Compliance Matrix: (Units=1/GPa)
#
#
# Indices 1 2 3 4 5 6 
#
# 1 0.010390 -0.007440 -0.000814 0.000000 0.000000 0.000000
# 2 -0.007440 0.015997 -0.004967 0.000000 0.000000 0.000000
# 3 -0.000814 -0.004967 0.013258 0.000000 0.000000 0.000000
# 4 0.000000 0.000000 0.000000 0.047063 0.000000 0.000000
# 5 0.000000 0.000000 0.000000 0.000000 0.012414 0.000000
# 6 0.000000 0.000000 0.000000 0.000000 0.000000 0.028397
#
#
# Mechanical properties :
#
#
# Convention : Reuss Voigt Hill
#
# Bulk Modulus (GPa) = 75.72895 83.22521 79.47708
# Shear Modulus (GPa) = 31.57377 40.53404 36.05390
#
# Velocity S-wave (km/s) = 3.92460 4.44674 4.19381
# Velocity P-wave (km/s) = 7.58150 8.18316 7.88807
#
# Compressibility (1/GPa) = 0.01320499
#
# Stress axis : x y z
#
# Youngs Moduli (GPa) = 96.24619 62.51287 75.42775
#
# Poissons Ratio (x) = 0.46507 0.06136
# Poissons Ratio (y) = 0.71603 0.37462
# Poissons Ratio (z) = 0.07830 0.31048
#
# Static dielectric constant tensor:
#      x y z
#    x 1.752010 0.000000 0.000000 
#    y 0.000000 1.754390 0.000000 
#    z 0.000000 0.000000 1.747300 
# 
# From -- ./inp_files/20449.got.cif
#   From: 2010.05.17/outbox.cif.g08.bks.cpg/sg68_11_cif.got.tgz:20449.got - 2010.06.03 18:57:09.
