data_PCOD9510431
_publ_section_title
;
Structure prediction by ZEFSAII (Michael W. Deem and Ramdas Pophale) SiO2 
 PCOD9510431
Probable space group: C C C A
;
_chemical_formula_sum "Si O2"
_cell_formula_units_Z 88
_cell_length_a 25.844968
_cell_length_b 11.642600
_cell_length_c 13.838173
_cell_angle_alpha 90.000000
_cell_angle_beta 90.000000
_cell_angle_gamma 90.000000
_cell_volume 4163.942573
_symmetry_space_group_name_H-M "C C C A"
_symmetry_group_IT_number 68
_space_group.IT_coordinate_system_code '2'
_symmetry_cell_setting 'orthorhombic'
loop_
_space_group_symop_operation_xyz
x,y,z
-x,1/2-y,z
x,1/2-y,1/2-z
-x,y,1/2-z
-x,-y,-z
x,1/2+y,-z
-x,1/2+y,1/2+z
x,-y,1/2+z
1/2+x,1/2+y,z
1/2-x,-y,z
1/2+x,-y,1/2-z
1/2-x,1/2+y,1/2-z
1/2-x,1/2-y,-z
1/2+x,y,-z
1/2-x,y,1/2+z
1/2+x,1/2-y,1/2+z
loop_
_atom_site_type_symbol
_atom_site_label
_atom_site_fract_x
_atom_site_fract_y
_atom_site_fract_z
Si Si1 0.500000 0.750000 0.518980
Si Si2 0.750000 0.000000 0.730023
Si Si3 0.918095 0.194022 0.143806
Si Si4 0.458849 0.939840 0.830502
Si Si5 0.804543 0.350510 0.407732
Si Si6 0.882958 0.250000 0.750000
Si Si7 0.207746 0.319133 0.879980
O O1 0.451830 0.757322 0.444799
O O2 0.487446 0.639398 0.587823
O O3 0.704039 0.042775 0.662012
O O4 0.770913 0.098109 0.798486
O O5 0.929732 0.250000 0.250000
O O6 0.857285 0.211745 0.121775
O O7 0.930814 0.057481 0.139258
O O8 0.500000 0.976079 0.750000
O O9 0.418829 0.856631 0.776157
O O10 0.804100 0.382306 0.519893
O O11 0.753173 0.273402 0.394359
O O12 0.845434 0.231838 0.840867
#
# Coordination Sequence:
#
# PCOD9510431 Si02
#       7
#     8   8  16  16  16   8  16
#     4  12  24  50  70 108 146 182 258 294 360 434
#     4  12  20  44  64  98 142 186 232 294 348 432
#     4  12  27  47  73 108 146 192 235 304 364 428
#     4  12  25  47  76 104 143 189 241 304 359 426
#     4  11  25  44  67 104 144 184 236 288 357 427
#     4  12  21  44  72 102 142 191 244 294 364 430
#     4  11  24  42  70  99 145 187 239 289 352 442
#
# _framework density 21.133817000000001
#
# number of rings (size 3 to 8) (size 9 to 14) (size 15 to 20)
#    0.000    0.364    3.636    5.727    0.000    0.000 
#    6.545    0.000    0.000    0.000    0.000    0.000 
#    0.000    0.000    0.000    0.000    0.000    0.000 
#
# Total GULP energy -245928.412268 kJ/mol
# GULP energy per Si atom -5589.282097 kJ/mol
# Density = 2.108572 g / cm^3
# Si number density = 21.133817 Si / 1000 Ang^3
#
#
#
# Elastic Constant Matrix: (Units=GPa)
#
#
# Indices 1 2 3 4 5 6 
#
# 1 82.2216 -21.6163 22.9303 0.0000 0.0000 0.0000
# 2 -21.6163 34.2759 23.1753 0.0000 0.0000 0.0000
# 3 22.9303 23.1753 142.3132 0.0000 0.0000 0.0000
# 4 0.0000 0.0000 0.0000 80.1339 0.0000 0.0000
# 5 0.0000 0.0000 0.0000 0.0000 -33.8972 0.0000
# 6 0.0000 0.0000 0.0000 0.0000 0.0000 28.4719
#
#
#
# Elastic Compliance Matrix: (Units=1/GPa)
#
#
# Indices 1 2 3 4 5 6 
#
# 1 0.017404 0.014465 -0.005160 0.000000 0.000000 0.000000
# 2 0.014465 0.044807 -0.009627 0.000000 0.000000 0.000000
# 3 -0.005160 -0.009627 0.009426 0.000000 0.000000 0.000000
# 4 0.000000 0.000000 0.000000 0.012479 0.000000 0.000000
# 5 0.000000 0.000000 0.000000 0.000000 -0.029501 0.000000
# 6 0.000000 0.000000 0.000000 0.000000 0.000000 0.035122
#
#
# Mechanical properties :
#
#
# Convention : Reuss Voigt Hill
#
# Bulk Modulus (GPa) = 14.08610 34.19881 24.14246
# Shear Modulus (GPa) = 43.84202 30.56313 37.20257
#
# Velocity S-wave (km/s) = 4.55960 3.80698 4.20018
# Velocity P-wave (km/s) = 5.86512 5.96165 5.91358
#
# Compressibility (1/GPa) = 0.07099196
#
# Stress axis : x y z
#
# Youngs Moduli (GPa) = 57.45786 22.31811 106.09066
#
# Poissons Ratio (x) = -0.32283 0.54740
# Poissons Ratio (y) = -0.83111 1.02136
# Poissons Ratio (z) = 0.29647 0.21486
#
# Static dielectric constant tensor:
#      x y z
#    x 1.896590 0.000000 0.000000 
#    y 0.000000 1.795570 0.000000 
#    z 0.000000 0.000000 1.761310 
# 
# From -- ./inp_files/25986.got.cif
#   From: 2010.05.17/outbox.cif.g08.bks.cpg/sg68_13_cif.got.tgz:25986.got - 2010.06.03 18:57:09.
