data_PCOD9510001
_publ_section_title
;
Structure prediction by ZEFSAII (Michael W. Deem and Ramdas Pophale) SiO2 
 PCOD9510001
Probable space group: C C C A
;
_chemical_formula_sum "Si O2"
_cell_formula_units_Z 64
_cell_length_a 17.594545
_cell_length_b 8.393423
_cell_length_c 19.289417
_cell_angle_alpha 90.000000
_cell_angle_beta 90.000000
_cell_angle_gamma 90.000000
_cell_volume 2848.631371
_symmetry_space_group_name_H-M "C C C A"
_symmetry_group_IT_number 68
_space_group.IT_coordinate_system_code '2'
_symmetry_cell_setting 'orthorhombic'
loop_
_space_group_symop_operation_xyz
x,y,z
-x,1/2-y,z
x,1/2-y,1/2-z
-x,y,1/2-z
-x,-y,-z
x,1/2+y,-z
-x,1/2+y,1/2+z
x,-y,1/2+z
1/2+x,1/2+y,z
1/2-x,-y,z
1/2+x,-y,1/2-z
1/2-x,1/2+y,1/2-z
1/2-x,1/2-y,-z
1/2+x,y,-z
1/2-x,y,1/2+z
1/2+x,1/2-y,1/2+z
loop_
_atom_site_type_symbol
_atom_site_label
_atom_site_fract_x
_atom_site_fract_y
_atom_site_fract_z
Si Si1 0.015519 0.438950 0.668959
Si Si2 0.182227 0.123141 0.812698
Si Si3 0.824995 0.711864 0.041513
Si Si4 0.429841 0.068988 0.544199
O O1 0.105246 0.469915 0.666275
O O2 0.000000 0.250000 0.649630
O O3 0.000000 0.453314 0.750000
O O4 0.965594 0.555570 0.621367
O O5 0.169939 0.250000 0.750000
O O6 0.193372 0.221938 0.882661
O O7 0.250000 0.000000 0.797732
O O8 0.852587 0.532682 0.048564
O O9 0.750000 0.750000 0.000000
O O10 0.897818 0.782913 0.999309
O O11 0.500000 0.000000 0.500000
#
# Coordination Sequence:
#
# PCOD9510001 Si02
#       4
#    16  16  16  16
#     4  11  20  42  72  98 130 188 238 281 349 424
#     4  12  25  45  71 102 141 185 235 295 360 429
#     4  12  26  43  67 104 142 182 233 294 355 424
#     4  12  22  42  71  98 134 185 235 286 345 414
#
# _framework density 22.466929
#
# number of rings (size 3 to 8) (size 9 to 14) (size 15 to 20)
#    0.000    0.250    7.500    3.000    0.000    4.000 
#    0.000    0.000    0.000    0.000    0.000    0.000 
#    0.000    0.000    0.000    0.000    0.000    0.000 
#
# Total GULP energy -178569.853114 kJ/mol
# GULP energy per Si atom -5580.307910 kJ/mol
# Density = 2.241579 g / cm^3
# Si number density = 22.466929 Si / 1000 Ang^3
#
#
#
# Elastic Constant Matrix: (Units=GPa)
#
#
# Indices 1 2 3 4 5 6 
#
# 1 134.7588 19.0147 16.9999 0.0000 0.0000 0.0000
# 2 19.0147 45.7935 26.4860 0.0000 0.0000 0.0000
# 3 16.9999 26.4860 160.9107 0.0000 0.0000 0.0000
# 4 0.0000 0.0000 0.0000 3.0913 0.0000 0.0000
# 5 0.0000 0.0000 0.0000 0.0000 42.3335 0.0000
# 6 0.0000 0.0000 0.0000 0.0000 0.0000 23.0154
#
#
#
# Elastic Compliance Matrix: (Units=1/GPa)
#
#
# Indices 1 2 3 4 5 6 
#
# 1 0.007898 -0.003091 -0.000326 0.000000 0.000000 0.000000
# 2 -0.003091 0.025345 -0.003845 0.000000 0.000000 0.000000
# 3 -0.000326 -0.003845 0.006882 0.000000 0.000000 0.000000
# 4 0.000000 0.000000 0.000000 0.323490 0.000000 0.000000
# 5 0.000000 0.000000 0.000000 0.000000 0.023622 0.000000
# 6 0.000000 0.000000 0.000000 0.000000 0.000000 0.043449
#
#
# Mechanical properties :
#
#
# Convention : Reuss Voigt Hill
#
# Bulk Modulus (GPa) = 39.06137 51.82936 45.44536
# Shear Modulus (GPa) = 11.01945 32.28552 21.65249
#
# Velocity S-wave (km/s) = 2.21707 3.79492 3.10780
# Velocity P-wave (km/s) = 4.89671 6.50547 5.75756
#
# Compressibility (1/GPa) = 0.02560074
#
# Stress axis : x y z
#
# Youngs Moduli (GPa) = 126.61595 39.45605 145.30782
#
# Poissons Ratio (x) = 0.12196 0.04731
# Poissons Ratio (y) = 0.39138 0.55873
# Poissons Ratio (z) = 0.04123 0.15172
#
# Static dielectric constant tensor:
#      x y z
#    x 1.377070 0.000000 0.000000 
#    y 0.000000 2.012430 0.000000 
#    z 0.000000 0.000000 2.001940 
# 
# From -- ./inp_files/31557.got.cif
#   From: 2010.05.17/outbox.cif.g08.bks.cpg/sg68_16_cif.got.tgz:31557.got - 2010.06.03 18:57:09.
