data_PCOD9510210
_publ_section_title
;
Structure prediction by ZEFSAII (Michael W. Deem and Ramdas Pophale) SiO2 
 PCOD9510210
Probable space group: C C C A
;
_chemical_formula_sum "Si O2"
_cell_formula_units_Z 112
_cell_length_a 13.764804
_cell_length_b 26.989524
_cell_length_c 14.076887
_cell_angle_alpha 90.000000
_cell_angle_beta 90.000000
_cell_angle_gamma 90.000000
_cell_volume 5229.641055
_symmetry_space_group_name_H-M "C C C A"
_symmetry_group_IT_number 68
_space_group.IT_coordinate_system_code '2'
_symmetry_cell_setting 'orthorhombic'
loop_
_space_group_symop_operation_xyz
x,y,z
-x,1/2-y,z
x,1/2-y,1/2-z
-x,y,1/2-z
-x,-y,-z
x,1/2+y,-z
-x,1/2+y,1/2+z
x,-y,1/2+z
1/2+x,1/2+y,z
1/2-x,-y,z
1/2+x,-y,1/2-z
1/2-x,1/2+y,1/2-z
1/2-x,1/2-y,-z
1/2+x,y,-z
1/2-x,y,1/2+z
1/2+x,1/2-y,1/2+z
loop_
_atom_site_type_symbol
_atom_site_label
_atom_site_fract_x
_atom_site_fract_y
_atom_site_fract_z
Si Si1 0.613929 0.006682 0.996152
Si Si2 0.335214 0.882505 0.060950
Si Si3 0.215106 0.802039 0.951981
Si Si4 0.500000 0.620188 0.750000
Si Si5 0.377419 0.207554 0.329288
Si Si6 0.671885 0.565542 0.671129
Si Si7 0.250000 0.500000 0.662048
Si Si8 0.990380 0.197407 0.467995
O O1 0.634265 0.065219 0.984329
O O2 0.658420 0.976797 0.907898
O O3 0.664441 0.985026 0.090261
O O4 0.500000 0.000000 0.000000
O O5 0.258047 0.896980 0.142407
O O6 0.273252 0.848906 0.990481
O O7 0.428105 0.846672 0.079383
O O8 0.261887 0.794731 0.848091
O O9 0.250000 0.750000 0.000000
O O10 0.104140 0.814655 0.975736
O O11 0.419071 0.656064 0.707192
O O12 0.564036 0.588307 0.678561
O O13 0.396001 0.250000 0.250000
O O14 0.435870 0.210745 0.431103
O O15 0.704578 0.541357 0.769942
O O16 0.000000 0.250000 0.413666
#
# Coordination Sequence:
#
# PCOD9510210 Si02
#       8
#    16  16  16   8  16  16   8  16
#     4  12  27  48  74 106 148 194 245 305 367 449
#     4  11  24  44  71 102 146 190 240 299 364 440
#     4  11  24  42  69 103 143 193 239 296 366 439
#     4  12  27  40  76 104 144 180 249 312 378 428
#     4  11  25  42  70 109 141 181 246 316 358 425
#     4  12  26  49  72 112 144 191 250 307 370 453
#     4  12  24  50  76 100 154 184 242 316 368 424
#     4  11  22  42  69 105 138 191 239 289 369 437
#
# _framework density 21.416384000000001
#
# number of rings (size 3 to 8) (size 9 to 14) (size 15 to 20)
#    0.000    0.571    5.714    2.786   12.000    0.000 
#    0.000    0.000    0.000    2.143    0.000    0.000 
#    0.000    0.000    0.000    0.000    0.000    0.000 
#
# Total GULP energy -312211.480655 kJ/mol
# GULP energy per Si atom -5575.205012 kJ/mol
# Density = 2.136764 g / cm^3
# Si number density = 21.416384 Si / 1000 Ang^3
#
#
#
# Elastic Constant Matrix: (Units=GPa)
#
#
# Indices 1 2 3 4 5 6 
#
# 1 176.9915 53.6244 52.7436 0.0000 0.0000 0.0000
# 2 53.6244 140.9047 39.8460 0.0000 0.0000 0.0000
# 3 52.7436 39.8460 89.5682 0.0000 0.0000 0.0000
# 4 0.0000 0.0000 0.0000 9.4385 0.0000 0.0000
# 5 0.0000 0.0000 0.0000 0.0000 159.9682 0.0000
# 6 0.0000 0.0000 0.0000 0.0000 0.0000 56.0569
#
#
#
# Elastic Compliance Matrix: (Units=1/GPa)
#
#
# Indices 1 2 3 4 5 6 
#
# 1 0.007218 -0.001767 -0.003464 0.000000 0.000000 0.000000
# 2 -0.001767 0.008551 -0.002763 0.000000 0.000000 0.000000
# 3 -0.003464 -0.002763 0.014434 0.000000 0.000000 0.000000
# 4 0.000000 0.000000 0.000000 0.105949 0.000000 0.000000
# 5 0.000000 0.000000 0.000000 0.000000 0.006251 0.000000
# 6 0.000000 0.000000 0.000000 0.000000 0.000000 0.017839
#
#
# Mechanical properties :
#
#
# Convention : Reuss Voigt Hill
#
# Bulk Modulus (GPa) = 70.35722 77.76581 74.06152
# Shear Modulus (GPa) = 27.62900 62.50941 45.06921
#
# Velocity S-wave (km/s) = 3.59568 5.40842 4.59238
# Velocity P-wave (km/s) = 7.08251 8.68283 7.92318
#
# Compressibility (1/GPa) = 0.01421318
#
# Stress axis : x y z
#
# Youngs Moduli (GPa) = 138.54772 116.94514 69.28139
#
# Poissons Ratio (x) = 0.20667 0.24000
# Poissons Ratio (y) = 0.24485 0.19145
# Poissons Ratio (z) = 0.47994 0.32316
#
# Static dielectric constant tensor:
#      x y z
#    x 1.890410 0.000000 0.000000 
#    y 0.000000 1.853770 0.000000 
#    z 0.000000 0.000000 1.857830 
# 
# From -- ./inp_files/22776.got.cif
#   From: 2010.05.17/outbox.cif.g08.bks.cpg/sg68_12_cif.got.tgz:22776.got - 2010.06.03 18:57:09.
