data_PCOD9510658
_publ_section_title
;
Structure prediction by ZEFSAII (Michael W. Deem and Ramdas Pophale) SiO2 
 PCOD9510658
Probable space group: C C C A
;
_chemical_formula_sum "Si O2"
_cell_formula_units_Z 56
_cell_length_a 22.277566
_cell_length_b 8.157525
_cell_length_c 14.320703
_cell_angle_alpha 90.000000
_cell_angle_beta 90.000000
_cell_angle_gamma 90.000000
_cell_volume 2602.498515
_symmetry_space_group_name_H-M "C C C A"
_symmetry_group_IT_number 68
_space_group.IT_coordinate_system_code '2'
_symmetry_cell_setting 'orthorhombic'
loop_
_space_group_symop_operation_xyz
x,y,z
-x,1/2-y,z
x,1/2-y,1/2-z
-x,y,1/2-z
-x,-y,-z
x,1/2+y,-z
-x,1/2+y,1/2+z
x,-y,1/2+z
1/2+x,1/2+y,z
1/2-x,-y,z
1/2+x,-y,1/2-z
1/2-x,1/2+y,1/2-z
1/2-x,1/2-y,-z
1/2+x,y,-z
1/2-x,y,1/2+z
1/2+x,1/2-y,1/2+z
loop_
_atom_site_type_symbol
_atom_site_label
_atom_site_fract_x
_atom_site_fract_y
_atom_site_fract_z
Si Si1 0.571987 0.253344 0.140266
Si Si2 0.750000 0.500000 0.083837
Si Si3 0.869803 0.026983 0.015671
Si Si4 0.715514 0.675309 0.343519
O O1 0.500000 0.250000 0.142473
O O2 0.592623 0.250000 0.250000
O O3 0.594404 0.097322 0.080807
O O4 0.594821 0.402345 0.073768
O O5 0.761694 0.675505 0.132323
O O6 0.807401 0.457782 0.023509
O O7 0.840422 0.156153 0.087238
O O8 0.688336 0.750000 0.250000
O O9 0.750000 0.500000 0.332887
#
# Coordination Sequence:
#
# PCOD9510658 Si02
#       4
#    16   8  16  16
#     4  11  27  48  73 103 138 190 250 303 362 424
#     4  12  24  44  66 106 150 182 236 286 370 442
#     4  12  24  46  71 101 145 187 233 303 361 436
#     4  12  25  41  67 105 149 194 232 288 361 440
#
# _framework density 21.517783000000001
#
# number of rings (size 3 to 8) (size 9 to 14) (size 15 to 20)
#    0.000    0.286    5.714    3.429    4.000    2.286 
#    0.000    0.000    0.000    5.143    0.000    0.000 
#    0.000    0.000    0.000    0.000    0.000    0.000 
#
# Total GULP energy -155939.516563 kJ/mol
# GULP energy per Si atom -5569.268449 kJ/mol
# Density = 2.146881 g / cm^3
# Si number density = 21.517783 Si / 1000 Ang^3
#
#
#
# Elastic Constant Matrix: (Units=GPa)
#
#
# Indices 1 2 3 4 5 6 
#
# 1 97.7406 39.1933 55.2160 0.0000 0.0000 0.0000
# 2 39.1933 152.9200 80.1172 0.0000 0.0000 0.0000
# 3 55.2160 80.1172 169.8392 0.0000 0.0000 0.0000
# 4 0.0000 0.0000 0.0000 42.3308 0.0000 0.0000
# 5 0.0000 0.0000 0.0000 0.0000 46.3491 0.0000
# 6 0.0000 0.0000 0.0000 0.0000 0.0000 29.2974
#
#
#
# Elastic Compliance Matrix: (Units=1/GPa)
#
#
# Indices 1 2 3 4 5 6 
#
# 1 0.012773 -0.001459 -0.003465 0.000000 0.000000 0.000000
# 2 -0.001459 0.008853 -0.003702 0.000000 0.000000 0.000000
# 3 -0.003465 -0.003702 0.008761 0.000000 0.000000 0.000000
# 4 0.000000 0.000000 0.000000 0.023623 0.000000 0.000000
# 5 0.000000 0.000000 0.000000 0.000000 0.021575 0.000000
# 6 0.000000 0.000000 0.000000 0.000000 0.000000 0.034133
#
#
# Mechanical properties :
#
#
# Convention : Reuss Voigt Hill
#
# Bulk Modulus (GPa) = 76.12446 85.50588 80.81517
# Shear Modulus (GPa) = 38.06711 39.99367 39.03039
#
# Velocity S-wave (km/s) = 4.21063 4.31586 4.26357
# Velocity P-wave (km/s) = 7.68723 8.04109 7.86615
#
# Compressibility (1/GPa) = 0.01313638
#
# Stress axis : x y z
#
# Youngs Moduli (GPa) = 78.28826 112.96062 114.14836
#
# Poissons Ratio (x) = 0.16477 0.39548
# Poissons Ratio (y) = 0.11419 0.42255
# Poissons Ratio (z) = 0.27124 0.41816
#
# Static dielectric constant tensor:
#      x y z
#    x 1.750060 0.000000 0.000000 
#    y 0.000000 2.429840 0.000000 
#    z 0.000000 0.000000 1.989240 
# 
# From -- ./inp_files/19039.got.cif
#   From: 2010.05.17/outbox.cif.g08.bks.cpg/sg68_10_cif.got.tgz:19039.got - 2010.06.03 18:57:09.
