data_PCOD9510321
_publ_section_title
;
Structure prediction by ZEFSAII (Michael W. Deem and Ramdas Pophale) SiO2 
 PCOD9510321
Probable space group: C C C A
;
_chemical_formula_sum "Si O2"
_cell_formula_units_Z 48
_cell_length_a 15.303080
_cell_length_b 8.132379
_cell_length_c 15.246447
_cell_angle_alpha 90.000000
_cell_angle_beta 90.000000
_cell_angle_gamma 90.000000
_cell_volume 1897.427136
_symmetry_space_group_name_H-M "C C C A"
_symmetry_group_IT_number 68
_space_group.IT_coordinate_system_code '2'
_symmetry_cell_setting 'orthorhombic'
loop_
_space_group_symop_operation_xyz
x,y,z
-x,1/2-y,z
x,1/2-y,1/2-z
-x,y,1/2-z
-x,-y,-z
x,1/2+y,-z
-x,1/2+y,1/2+z
x,-y,1/2+z
1/2+x,1/2+y,z
1/2-x,-y,z
1/2+x,-y,1/2-z
1/2-x,1/2+y,1/2-z
1/2-x,1/2-y,-z
1/2+x,y,-z
1/2-x,y,1/2+z
1/2+x,1/2-y,1/2+z
loop_
_atom_site_type_symbol
_atom_site_label
_atom_site_fract_x
_atom_site_fract_y
_atom_site_fract_z
Si Si1 0.152522 0.439698 0.541373
Si Si2 0.850690 0.939517 0.725317
Si Si3 0.081868 0.626195 0.389920
O O1 0.250000 0.500000 0.522873
O O2 0.117555 0.538839 0.625953
O O3 0.091823 0.476061 0.458144
O O4 0.156072 0.253308 0.575990
O O5 0.856306 0.750000 0.750000
O O6 0.750000 0.000000 0.727725
O O7 0.901340 0.053916 0.794170
O O8 0.000000 0.750000 0.394226
#
# Coordination Sequence:
#
# PCOD9510321 Si02
#       3
#    16  16  16
#     4  11  23  42  68  98 136 186 233 280 336 409
#     4  11  23  43  71 102 136 184 238 287 339 407
#     4  12  25  44  69 104 142 179 225 287 350 410
#
# _framework density 25.297415000000001
#
# number of rings (size 3 to 8) (size 9 to 14) (size 15 to 20)
#    0.000    0.667    0.000   10.000    0.000    2.667 
#    0.000    1.667    0.000    0.000    0.000    0.000 
#    0.000    0.000    0.000    0.000    0.000    0.000 
#
# Total GULP energy -134488.379406 kJ/mol
# GULP energy per Si atom -5603.682475 kJ/mol
# Density = 2.523984 g / cm^3
# Si number density = 25.297415 Si / 1000 Ang^3
#
#
#
# Elastic Constant Matrix: (Units=GPa)
#
#
# Indices 1 2 3 4 5 6 
#
# 1 84.9922 19.1264 53.0501 0.0000 0.0000 0.0000
# 2 19.1264 125.9933 11.3032 0.0000 0.0000 0.0000
# 3 53.0501 11.3032 153.0311 0.0000 0.0000 0.0000
# 4 0.0000 0.0000 0.0000 39.9114 0.0000 0.0000
# 5 0.0000 0.0000 0.0000 0.0000 26.8083 0.0000
# 6 0.0000 0.0000 0.0000 0.0000 0.0000 23.0611
#
#
#
# Elastic Compliance Matrix: (Units=1/GPa)
#
#
# Indices 1 2 3 4 5 6 
#
# 1 0.015443 -0.001876 -0.005215 0.000000 0.000000 0.000000
# 2 -0.001876 0.008218 0.000044 0.000000 0.000000 0.000000
# 3 -0.005215 0.000044 0.008339 0.000000 0.000000 0.000000
# 4 0.000000 0.000000 0.000000 0.025055 0.000000 0.000000
# 5 0.000000 0.000000 0.000000 0.000000 0.037302 0.000000
# 6 0.000000 0.000000 0.000000 0.000000 0.000000 0.043363
#
#
# Mechanical properties :
#
#
# Convention : Reuss Voigt Hill
#
# Bulk Modulus (GPa) = 55.85222 58.99734 57.42478
# Shear Modulus (GPa) = 31.68875 36.65861 34.17368
#
# Velocity S-wave (km/s) = 3.54312 3.81084 3.67941
# Velocity P-wave (km/s) = 6.23413 6.53724 6.38748
#
# Compressibility (1/GPa) = 0.01790439
#
# Stress axis : x y z
#
# Youngs Moduli (GPa) = 64.75374 121.68580 119.91509
#
# Poissons Ratio (x) = 0.22834 0.62535
# Poissons Ratio (y) = 0.12151 -0.00522
# Poissons Ratio (z) = 0.33769 -0.00530
#
# Static dielectric constant tensor:
#      x y z
#    x 2.108400 0.000000 0.000000 
#    y 0.000000 2.063860 0.000000 
#    z 0.000000 0.000000 1.972100 
# 
# From -- ./inp_files/18740.got.cif
#   From: 2010.05.17/outbox.cif.g08.bks.cpg/sg68_10_cif.got.tgz:18740.got - 2010.06.03 18:57:09.
