data_PCOD9510666
_publ_section_title
;
Structure prediction by ZEFSAII (Michael W. Deem and Ramdas Pophale) SiO2 
 PCOD9510666
Probable space group: C C C A
;
_chemical_formula_sum "Si O2"
_cell_formula_units_Z 112
_cell_length_a 28.714383
_cell_length_b 12.351679
_cell_length_c 14.771979
_cell_angle_alpha 90.000000
_cell_angle_beta 90.000000
_cell_angle_gamma 90.000000
_cell_volume 5239.190223
_symmetry_space_group_name_H-M "C C C A"
_symmetry_group_IT_number 68
_space_group.IT_coordinate_system_code '2'
_symmetry_cell_setting 'orthorhombic'
loop_
_space_group_symop_operation_xyz
x,y,z
-x,1/2-y,z
x,1/2-y,1/2-z
-x,y,1/2-z
-x,-y,-z
x,1/2+y,-z
-x,1/2+y,1/2+z
x,-y,1/2+z
1/2+x,1/2+y,z
1/2-x,-y,z
1/2+x,-y,1/2-z
1/2-x,1/2+y,1/2-z
1/2-x,1/2-y,-z
1/2+x,y,-z
1/2-x,y,1/2+z
1/2+x,1/2-y,1/2+z
loop_
_atom_site_type_symbol
_atom_site_label
_atom_site_fract_x
_atom_site_fract_y
_atom_site_fract_z
Si Si1 0.125088 0.746375 0.855493
Si Si2 0.299251 0.540556 0.595779
Si Si3 0.705315 0.133588 0.291276
Si Si4 0.054823 0.622605 0.231701
Si Si5 0.117498 0.009134 0.619912
Si Si6 0.215446 0.312778 0.435544
Si Si7 0.901519 0.464628 0.411391
O O1 0.131229 0.750000 0.750000
O O2 0.115563 0.620730 0.875407
O O3 0.175978 0.765572 0.898207
O O4 0.088977 0.840397 0.882131
O O5 0.250000 0.500000 0.557984
O O6 0.284377 0.582552 0.694172
O O7 0.311888 0.613107 0.508128
O O8 0.347917 0.484336 0.617911
O O9 0.687806 0.250000 0.250000
O O10 0.667017 0.066011 0.349862
O O11 0.751888 0.144093 0.353514
O O12 0.066980 0.750000 0.250000
O O13 0.082444 0.555765 0.306492
O O14 0.069520 0.561304 0.137519
O O15 0.000000 0.613459 0.250000
O O16 0.100342 0.037723 0.519671
O O17 0.250000 0.250000 0.500000
#
# Coordination Sequence:
#
# PCOD9510666 Si02
#       7
#    16  16  16  16  16  16  16
#     4  12  25  45  65 103 143 196 239 303 361 428
#     4  12  25  40  61  96 142 196 249 297 353 428
#     4  12  25  40  65  97 137 203 253 308 363 426
#     4  11  27  53  83 113 145 185 241 307 382 470
#     4  12  26  45  76 105 144 190 245 299 374 446
#     4  12  25  39  59  96 142 190 258 306 350 416
#     4  12  27  47  74 108 148 192 243 305 373 438
#
# _framework density 21.37735
#
# number of rings (size 3 to 8) (size 9 to 14) (size 15 to 20)
#    0.000    0.143    5.714    3.429    6.000    0.571 
#    0.000    1.429    0.000    0.000    0.000    0.000 
#    0.000    0.000    0.000    0.000    0.000    0.000 
#
# Total GULP energy -311958.218029 kJ/mol
# GULP energy per Si atom -5570.682465 kJ/mol
# Density = 2.132869 g / cm^3
# Si number density = 21.377350 Si / 1000 Ang^3
#
#
#
# Elastic Constant Matrix: (Units=GPa)
#
#
# Indices 1 2 3 4 5 6 
#
# 1 59.8977 28.3129 3.5136 0.0000 0.0000 0.0000
# 2 28.3129 120.1300 31.8530 0.0000 0.0000 0.0000
# 3 3.5136 31.8530 146.9927 0.0000 0.0000 0.0000
# 4 0.0000 0.0000 0.0000 -28.9074 0.0000 0.0000
# 5 0.0000 0.0000 0.0000 0.0000 -3.6770 0.0000
# 6 0.0000 0.0000 0.0000 0.0000 0.0000 22.3606
#
#
#
# Elastic Compliance Matrix: (Units=1/GPa)
#
#
# Indices 1 2 3 4 5 6 
#
# 1 0.018829 -0.004582 0.000543 0.000000 0.000000 0.000000
# 2 -0.004582 0.009947 -0.002046 0.000000 0.000000 0.000000
# 3 0.000543 -0.002046 0.007233 0.000000 0.000000 0.000000
# 4 0.000000 0.000000 0.000000 -0.034593 0.000000 0.000000
# 5 0.000000 0.000000 0.000000 0.000000 -0.271958 0.000000
# 6 0.000000 0.000000 0.000000 0.000000 0.000000 0.044721
#
#
# Mechanical properties :
#
#
# Convention : Reuss Voigt Hill
#
# Bulk Modulus (GPa) = 41.94723 50.48661 46.21692
# Shear Modulus (GPa) = -24.30674 15.51130 -4.39772
#
# Velocity S-wave (km/s) = -3.37565 2.69661 -1.43585
# Velocity P-wave (km/s) = 2.11460 5.77614 4.34944
#
# Compressibility (1/GPa) = 0.02383948
#
# Stress axis : x y z
#
# Youngs Moduli (GPa) = 53.10965 100.53668 138.24708
#
# Poissons Ratio (x) = 0.46062 -0.07504
# Poissons Ratio (y) = 0.24333 0.28284
# Poissons Ratio (z) = -0.02883 0.20569
#
# Static dielectric constant tensor:
#      x y z
#    x 1.751690 0.000000 0.000000 
#    y 0.000000 5.316850 0.000000 
#    z 0.000000 0.000000 1.783990 
# 
# From -- ./inp_files/26429.got.cif
#   From: 2010.05.17/outbox.cif.g08.bks.cpg/sg68_14_cif.got.tgz:26429.got - 2010.06.03 18:57:09.
