data_PCOD9510968
_publ_section_title
;
Structure prediction by ZEFSAII (Michael W. Deem and Ramdas Pophale) SiO2 
 PCOD9510968
Probable space group: C C C A
;
_chemical_formula_sum "Si O2"
_cell_formula_units_Z 56
_cell_length_a 15.000000
_cell_length_b 15.000000
_cell_length_c 24.000000
_cell_angle_alpha 90.000000
_cell_angle_beta 90.000000
_cell_angle_gamma 90.000000
_cell_volume 5400.000000
_symmetry_space_group_name_H-M "C C C A"
_symmetry_group_IT_number 68
_space_group.IT_coordinate_system_code '2'
_symmetry_cell_setting 'orthorhombic'
loop_
_space_group_symop_operation_xyz
x,y,z
-x,1/2-y,z
x,1/2-y,1/2-z
-x,y,1/2-z
-x,-y,-z
x,1/2+y,-z
-x,1/2+y,1/2+z
x,-y,1/2+z
1/2+x,1/2+y,z
1/2-x,-y,z
1/2+x,-y,1/2-z
1/2-x,1/2+y,1/2-z
1/2-x,1/2-y,-z
1/2+x,y,-z
1/2-x,y,1/2+z
1/2+x,1/2-y,1/2+z
loop_
_atom_site_type_symbol
_atom_site_label
_atom_site_fract_x
_atom_site_fract_y
_atom_site_fract_z
Si Si1 0.399135 0.712252 0.811241
Si Si2 0.163588 0.934745 0.792589
Si Si3 0.076764 0.190479 0.054670
Si Si4 0.145983 0.010069 0.675047
Si Si5 0.329401 0.933554 0.962122
Si Si6 0.264616 0.205926 0.877165
Si Si7 0.476540 0.536369 0.112546
O O1 0.500000 0.750000 0.826262
O O2 0.381074 0.750000 0.750000
O O3 0.383211 0.606896 0.802756
O O4 0.321987 0.740297 0.854983
O O5 0.193103 0.843138 0.822827
O O6 0.080889 0.966487 0.830579
O O7 0.250000 0.000000 0.797723
O O8 0.137987 0.940413 0.727140
O O9 0.156750 0.239884 0.089789
O O10 0.000000 0.250000 0.024144
O O11 0.008137 0.134418 0.093732
O O12 0.126819 0.125888 0.010848
O O13 0.250000 0.000000 0.657683
O O14 0.074855 0.001638 0.625339
O O15 0.277763 0.869379 0.917968
O O16 0.250000 0.000000 0.981708
O O17 0.410772 0.987910 0.931806
#
# Coordination Sequence:
#
# PCOD9510968 Si02
#       7
#    16  16  16  16  16  16  16
#     4  11  25  39  66 103 142 175 227 289 353 417
#     4  11  21  41  75  95 135 186 237 263 350 434
#     4  12  27  45  68 103 142 175 236 308 349 409
#     4  11  25  41  67 105 140 184 225 280 336 433
#     4  12  25  46  75 100 132 192 242 282 359 430
#     4  12  23  46  71  98 138 185 227 296 355 417
#     4  12  23  44  71  98 135 183 231 278 353 416
#
# _framework density 10.370369999999999
#
# number of rings (size 3 to 8) (size 9 to 14) (size 15 to 20)
#    0.000    0.429    4.286    4.714    4.000    3.429 
#    0.000    0.000    0.000    0.000    0.000    0.000 
#    0.000    0.000    0.000    0.000    0.000    0.000 
#
# Total GULP energy -312489.306167 kJ/mol
# GULP energy per Si atom -5580.166182 kJ/mol
# Density = 1.034677 g / cm^3
# Si number density = 10.370370 Si / 1000 Ang^3
#
#
#
# Elastic Constant Matrix: (Units=GPa)
#
#
# Indices 1 2 3 4 5 6 
#
# 1 191.8008 45.7268 53.2486 0.0000 0.0000 0.0000
# 2 45.7268 63.1412 21.9013 0.0000 0.0000 0.0000
# 3 53.2486 21.9013 42.9166 0.0000 0.0000 0.0000
# 4 0.0000 0.0000 0.0000 26.7381 0.0000 0.0000
# 5 0.0000 0.0000 0.0000 0.0000 42.9156 0.0000
# 6 0.0000 0.0000 0.0000 0.0000 0.0000 47.8506
#
#
#
# Elastic Compliance Matrix: (Units=1/GPa)
#
#
# Indices 1 2 3 4 5 6 
#
# 1 0.008396 -0.002998 -0.008887 0.000000 0.000000 0.000000
# 2 -0.002998 0.020314 -0.006648 0.000000 0.000000 0.000000
# 3 -0.008887 -0.006648 0.037720 0.000000 0.000000 0.000000
# 4 0.000000 0.000000 0.000000 0.037400 0.000000 0.000000
# 5 0.000000 0.000000 0.000000 0.000000 0.023302 0.000000
# 6 0.000000 0.000000 0.000000 0.000000 0.000000 0.020898
#
#
# Mechanical properties :
#
#
# Convention : Reuss Voigt Hill
#
# Bulk Modulus (GPa) = 34.05375 59.95689 47.00532
# Shear Modulus (GPa) = 25.65644 35.29965 30.47804
#
# Velocity S-wave (km/s) = 3.52093 4.12994 3.83753
# Velocity P-wave (km/s) = 5.74314 7.19114 6.50754
#
# Compressibility (1/GPa) = 0.02936534
#
# Stress axis : x y z
#
# Youngs Moduli (GPa) = 119.10888 49.22683 26.51099
#
# Poissons Ratio (x) = 0.14756 0.23561
# Poissons Ratio (y) = 0.35703 0.17624
# Poissons Ratio (z) = 1.05855 0.32724
#
# Static dielectric constant tensor:
#      x y z
#    x 1.737670 0.000000 0.000000 
#    y 0.000000 1.905230 0.000000 
#    z 0.000000 0.000000 1.758980 
# 
# From -- ./inp_files/45526.got.cif
#   From: 2010.05.17/outbox.ucp.g08.bks.cvg/sg68_23_cif.got.tgz:45526.got - 2010.06.11 16:49:25.
