data_PCOD9510457
_publ_section_title
;
Structure prediction by ZEFSAII (Michael W. Deem and Ramdas Pophale) SiO2 
 PCOD9510457
Probable space group: C C C A
;
_chemical_formula_sum "Si O2"
_cell_formula_units_Z 52
_cell_length_a 7.921080
_cell_length_b 14.029743
_cell_length_c 21.384279
_cell_angle_alpha 90.000000
_cell_angle_beta 90.000000
_cell_angle_gamma 90.000000
_cell_volume 2376.450251
_symmetry_space_group_name_H-M "C C C A"
_symmetry_group_IT_number 68
_space_group.IT_coordinate_system_code '2'
_symmetry_cell_setting 'orthorhombic'
loop_
_space_group_symop_operation_xyz
x,y,z
-x,1/2-y,z
x,1/2-y,1/2-z
-x,y,1/2-z
-x,-y,-z
x,1/2+y,-z
-x,1/2+y,1/2+z
x,-y,1/2+z
1/2+x,1/2+y,z
1/2-x,-y,z
1/2+x,-y,1/2-z
1/2-x,1/2+y,1/2-z
1/2-x,1/2-y,-z
1/2+x,y,-z
1/2-x,y,1/2+z
1/2+x,1/2-y,1/2+z
loop_
_atom_site_type_symbol
_atom_site_label
_atom_site_fract_x
_atom_site_fract_y
_atom_site_fract_z
Si Si1 0.209997 0.656155 0.541582
Si Si2 0.405231 0.629294 0.366032
Si Si3 0.931477 0.582161 0.080758
Si Si4 0.000000 0.250000 0.250000
O O1 0.250000 0.750000 0.500000
O O2 0.136077 0.580569 0.490985
O O3 0.381471 0.622801 0.574273
O O4 0.063531 0.665618 0.592597
O O5 0.213177 0.647167 0.388030
O O6 0.428676 0.515700 0.379968
O O7 0.413299 0.675875 0.298017
#
# Coordination Sequence:
#
# PCOD9510457 Si02
#       4
#    16  16  16   4
#     4  12  23  40  75 116 149 178 229 299 383 449
#     4  11  26  46  70 101 146 194 244 302 360 430
#     4  11  24  43  74 112 147 182 229 307 385 441
#     4  12  28  56  70  92 146 206 264 302 342 432
#
# _framework density 21.881377000000001
#
# number of rings (size 3 to 8) (size 9 to 14) (size 15 to 20)
#    0.000    0.615    3.077    4.615    4.308    0.000 
#   11.077    1.538    0.000    0.000    0.000    0.000 
#    0.000    0.000    0.000    0.000    0.000    0.000 
#
# Total GULP energy -144984.803321 kJ/mol
# GULP energy per Si atom -5576.338589 kJ/mol
# Density = 2.183157 g / cm^3
# Si number density = 21.881377 Si / 1000 Ang^3
#
#
#
# Elastic Constant Matrix: (Units=GPa)
#
#
# Indices 1 2 3 4 5 6 
#
# 1 218.8230 76.3445 74.4156 0.0000 0.0000 0.0000
# 2 76.3445 129.7801 55.6061 0.0000 0.0000 0.0000
# 3 74.4156 55.6061 155.6430 0.0000 0.0000 0.0000
# 4 0.0000 0.0000 0.0000 51.8590 0.0000 0.0000
# 5 0.0000 0.0000 0.0000 0.0000 6.6205 0.0000
# 6 0.0000 0.0000 0.0000 0.0000 0.0000 27.7322
#
#
#
# Elastic Compliance Matrix: (Units=1/GPa)
#
#
# Indices 1 2 3 4 5 6 
#
# 1 0.006222 -0.002817 -0.001969 0.000000 0.000000 0.000000
# 2 -0.002817 0.010373 -0.002359 0.000000 0.000000 0.000000
# 3 -0.001969 -0.002359 0.008209 0.000000 0.000000 0.000000
# 4 0.000000 0.000000 0.000000 0.019283 0.000000 0.000000
# 5 0.000000 0.000000 0.000000 0.000000 0.151045 0.000000
# 6 0.000000 0.000000 0.000000 0.000000 0.000000 0.036059
#
#
# Mechanical properties :
#
#
# Convention : Reuss Voigt Hill
#
# Bulk Modulus (GPa) = 95.10058 101.88652 98.49355
# Shear Modulus (GPa) = 20.08143 37.10099 28.59121
#
# Velocity S-wave (km/s) = 3.03271 4.12217 3.61868
# Velocity P-wave (km/s) = 7.47123 8.32590 7.91012
#
# Compressibility (1/GPa) = 0.01051518
#
# Stress axis : x y z
#
# Youngs Moduli (GPa) = 160.71789 96.40238 121.81689
#
# Poissons Ratio (x) = 0.27154 0.23980
# Poissons Ratio (y) = 0.45270 0.28740
# Poissons Ratio (z) = 0.31638 0.22744
#
# Static dielectric constant tensor:
#      x y z
#    x 1.790920 0.000000 0.000000 
#    y 0.000000 2.013580 0.000000 
#    z 0.000000 0.000000 1.799210 
# 
# From -- ./inp_files/35496.got.cif
#   From: 2010.05.17/outbox.cif.g08.bks.cpg/sg68_18_cif.got.tgz:35496.got - 2010.06.03 18:57:09.
