data_PCOD9510218
_publ_section_title
;
Structure prediction by ZEFSAII (Michael W. Deem and Ramdas Pophale) SiO2 
 PCOD9510218
Probable space group: C C C A
;
_chemical_formula_sum "Si O2"
_cell_formula_units_Z 64
_cell_length_a 14.439240
_cell_length_b 22.074710
_cell_length_c 7.938825
_cell_angle_alpha 90.000000
_cell_angle_beta 90.000000
_cell_angle_gamma 90.000000
_cell_volume 2530.437241
_symmetry_space_group_name_H-M "C C C A"
_symmetry_group_IT_number 68
_space_group.IT_coordinate_system_code '2'
_symmetry_cell_setting 'orthorhombic'
loop_
_space_group_symop_operation_xyz
x,y,z
-x,1/2-y,z
x,1/2-y,1/2-z
-x,y,1/2-z
-x,-y,-z
x,1/2+y,-z
-x,1/2+y,1/2+z
x,-y,1/2+z
1/2+x,1/2+y,z
1/2-x,-y,z
1/2+x,-y,1/2-z
1/2-x,1/2+y,1/2-z
1/2-x,1/2-y,-z
1/2+x,y,-z
1/2-x,y,1/2+z
1/2+x,1/2-y,1/2+z
loop_
_atom_site_type_symbol
_atom_site_label
_atom_site_fract_x
_atom_site_fract_y
_atom_site_fract_z
Si Si1 0.734474 0.679331 0.027026
Si Si2 0.889964 0.626869 0.226385
Si Si3 0.142500 0.987257 0.421417
Si Si4 0.902271 0.897968 0.773978
O O1 0.836858 0.651517 0.061440
O O2 0.676743 0.651063 0.186210
O O3 0.750000 0.750000 0.000000
O O4 0.665683 0.659467 0.877608
O O5 0.868639 0.555896 0.256702
O O6 0.000000 0.636930 0.250000
O O7 0.101826 0.944154 0.565436
O O8 0.250000 0.000000 0.454607
O O9 0.102981 0.052345 0.374691
O O10 0.000000 0.866131 0.750000
#
# Coordination Sequence:
#
# PCOD9510218 Si02
#       4
#    16  16  16  16
#     4  11  26  48  73 105 151 201 260 322 383 465
#     4  11  26  48  77 109 147 200 257 321 396 470
#     4  11  22  42  74 110 154 198 244 317 394 471
#     4  11  24  42  71 114 152 198 250 317 393 470
#
# _framework density 25.292072999999998
#
# number of rings (size 3 to 8) (size 9 to 14) (size 15 to 20)
#    0.000    1.000    2.500    3.000    3.500    8.000 
#    0.000    2.500    0.000    0.000    0.000    0.000 
#    0.000    0.000    0.000    0.000    0.000    0.000 
#
# Total GULP energy -178852.622704 kJ/mol
# GULP energy per Si atom -5589.144459 kJ/mol
# Density = 2.523451 g / cm^3
# Si number density = 25.292073 Si / 1000 Ang^3
#
#
#
# Elastic Constant Matrix: (Units=GPa)
#
#
# Indices 1 2 3 4 5 6 
#
# 1 236.7858 93.5428 62.2224 0.0000 0.0000 0.0000
# 2 93.5428 195.2559 27.2180 0.0000 0.0000 0.0000
# 3 62.2224 27.2180 88.4715 0.0000 0.0000 0.0000
# 4 0.0000 0.0000 0.0000 27.6250 0.0000 0.0000
# 5 0.0000 0.0000 0.0000 0.0000 21.5641 0.0000
# 6 0.0000 0.0000 0.0000 0.0000 0.0000 -12.2401
#
#
#
# Elastic Compliance Matrix: (Units=1/GPa)
#
#
# Indices 1 2 3 4 5 6 
#
# 1 0.006120 -0.002436 -0.003555 0.000000 0.000000 0.000000
# 2 -0.002436 0.006321 -0.000231 0.000000 0.000000 0.000000
# 3 -0.003555 -0.000231 0.013874 0.000000 0.000000 0.000000
# 4 0.000000 0.000000 0.000000 0.036199 0.000000 0.000000
# 5 0.000000 0.000000 0.000000 0.000000 0.046373 0.000000
# 6 0.000000 0.000000 0.000000 0.000000 0.000000 -0.081699
#
#
# Mechanical properties :
#
#
# Convention : Reuss Voigt Hill
#
# Bulk Modulus (GPa) = 72.09395 98.49772 85.29584
# Shear Modulus (GPa) = 112.97854 29.89180 71.43517
#
# Velocity S-wave (km/s) = 6.69078 3.44156 5.32028
# Velocity P-wave (km/s) = 9.39442 7.40412 8.45802
#
# Compressibility (1/GPa) = 0.01387079
#
# Stress axis : x y z
#
# Youngs Moduli (GPa) = 163.40488 158.20515 72.07682
#
# Poissons Ratio (x) = 0.38544 0.25620
# Poissons Ratio (y) = 0.39811 0.01666
# Poissons Ratio (z) = 0.58083 0.03656
#
# Static dielectric constant tensor:
#      x y z
#    x 2.000140 0.000000 0.000000 
#    y 0.000000 1.924930 0.000000 
#    z 0.000000 0.000000 2.321290 
# 
# From -- ./inp_files/4973.got.cif
#   From: 2010.05.17/outbox.cif.g08.bks.cpg/sg68_3_cif.got.tgz:4973.got - 2010.06.03 18:57:09.
