data_PCOD9510637
_publ_section_title
;
Structure prediction by ZEFSAII (Michael W. Deem and Ramdas Pophale) SiO2 
 PCOD9510637
Probable space group: C C C A
;
_chemical_formula_sum "Si O2"
_cell_formula_units_Z 48
_cell_length_a 16.325306
_cell_length_b 14.529042
_cell_length_c 7.900457
_cell_angle_alpha 90.000000
_cell_angle_beta 90.000000
_cell_angle_gamma 90.000000
_cell_volume 1873.917743
_symmetry_space_group_name_H-M "C C C A"
_symmetry_group_IT_number 68
_space_group.IT_coordinate_system_code '2'
_symmetry_cell_setting 'orthorhombic'
loop_
_space_group_symop_operation_xyz
x,y,z
-x,1/2-y,z
x,1/2-y,1/2-z
-x,y,1/2-z
-x,-y,-z
x,1/2+y,-z
-x,1/2+y,1/2+z
x,-y,1/2+z
1/2+x,1/2+y,z
1/2-x,-y,z
1/2+x,-y,1/2-z
1/2-x,1/2+y,1/2-z
1/2-x,1/2-y,-z
1/2+x,y,-z
1/2-x,y,1/2+z
1/2+x,1/2-y,1/2+z
loop_
_atom_site_type_symbol
_atom_site_label
_atom_site_fract_x
_atom_site_fract_y
_atom_site_fract_z
Si Si1 0.169881 0.307304 0.553797
Si Si2 0.874410 0.379171 0.602690
Si Si3 0.408222 0.072258 0.734759
O O1 0.250000 0.250000 0.500000
O O2 0.100718 0.226978 0.569119
O O3 0.182935 0.357390 0.733291
O O4 0.141528 0.377763 0.412644
O O5 0.920902 0.466438 0.679252
O O6 0.860277 0.415269 0.411691
O O7 0.500000 0.112074 0.750000
#
# Coordination Sequence:
#
# PCOD9510637 Si02
#       3
#    16  16  16
#     4  11  28  50  74 117 159 211 273 328 403 484
#     4  11  26  47  78 113 157 207 262 336 396 486
#     4  12  26  51  79 119 159 210 269 331 413 493
#
# _framework density 25.614787
#
# number of rings (size 3 to 8) (size 9 to 14) (size 15 to 20)
#    0.000    0.667    3.333    2.000    9.333    4.000 
#    6.000    0.000    0.000    0.000    0.000    0.000 
#    0.000    0.000    0.000    0.000    0.000    0.000 
#
# Total GULP energy -133602.753717 kJ/mol
# GULP energy per Si atom -5566.781405 kJ/mol
# Density = 2.555649 g / cm^3
# Si number density = 25.614787 Si / 1000 Ang^3
#
#
#
# Elastic Constant Matrix: (Units=GPa)
#
#
# Indices 1 2 3 4 5 6 
#
# 1 105.0832 48.9323 66.2965 0.0000 0.0000 0.0000
# 2 48.9323 130.6914 71.9285 0.0000 0.0000 0.0000
# 3 66.2965 71.9285 270.7889 0.0000 0.0000 0.0000
# 4 0.0000 0.0000 0.0000 67.2946 0.0000 0.0000
# 5 0.0000 0.0000 0.0000 0.0000 6.6337 0.0000
# 6 0.0000 0.0000 0.0000 0.0000 0.0000**********
#
#
#
# Elastic Compliance Matrix: (Units=1/GPa)
#
#
# Indices 1 2 3 4 5 6 
#
# 1 0.012491 -0.003506 -0.002127 0.000000 0.000000 0.000000
# 2 -0.003506 0.009946 -0.001783 0.000000 0.000000 0.000000
# 3 -0.002127 -0.001783 0.004687 0.000000 0.000000 0.000000
# 4 0.000000 0.000000 0.000000 0.014860 0.000000 0.000000
# 5 0.000000 0.000000 0.000000 0.000000 0.150745 0.000000
# 6 0.000000 0.000000 0.000000 0.000000 0.000000 -0.000059
#
#
# Mechanical properties :
#
#
# Convention : Reuss Voigt Hill
#
# Bulk Modulus (GPa) = 81.35918 97.87537 89.61728
# Shear Modulus (GPa) = 23.62948 -3371.70194 -1674.03623
#
# Velocity S-wave (km/s) = 3.04055 -36.32036 -25.59222
# Velocity P-wave (km/s) = 6.64516 41.48009 28.95203
#
# Compressibility (1/GPa) = 0.01229118
#
# Stress axis : x y z
#
# Youngs Moduli (GPa) = 80.05974 100.54352 213.34075
#
# Poissons Ratio (x) = 0.35252 0.45372
# Poissons Ratio (y) = 0.28070 0.38049
# Poissons Ratio (z) = 0.17027 0.17932
#
# Static dielectric constant tensor:
#      x y z
#    x 2.148050 0.000000 0.000000 
#    y 0.000000 2.024750 0.000000 
#    z 0.000000 0.000000 1.999670 
# 
# From -- ./inp_files/4492.got.cif
#   From: 2010.05.17/outbox.cif.g08.bks.cpg/sg68_3_cif.got.tgz:4492.got - 2010.06.03 18:57:09.
