data_PCOD9510426
_publ_section_title
;
Structure prediction by ZEFSAII (Michael W. Deem and Ramdas Pophale) SiO2 
 PCOD9510426
Probable space group: C C C A
;
_chemical_formula_sum "Si O2"
_cell_formula_units_Z 64
_cell_length_a 30.588125
_cell_length_b 9.680570
_cell_length_c 10.194119
_cell_angle_alpha 90.000000
_cell_angle_beta 90.000000
_cell_angle_gamma 90.000000
_cell_volume 3018.585524
_symmetry_space_group_name_H-M "C C C A"
_symmetry_group_IT_number 68
_space_group.IT_coordinate_system_code '2'
_symmetry_cell_setting 'orthorhombic'
loop_
_space_group_symop_operation_xyz
x,y,z
-x,1/2-y,z
x,1/2-y,1/2-z
-x,y,1/2-z
-x,-y,-z
x,1/2+y,-z
-x,1/2+y,1/2+z
x,-y,1/2+z
1/2+x,1/2+y,z
1/2-x,-y,z
1/2+x,-y,1/2-z
1/2-x,1/2+y,1/2-z
1/2-x,1/2-y,-z
1/2+x,y,-z
1/2-x,y,1/2+z
1/2+x,1/2-y,1/2+z
loop_
_atom_site_type_symbol
_atom_site_label
_atom_site_fract_x
_atom_site_fract_y
_atom_site_fract_z
Si Si1 0.100231 0.951503 0.021567
Si Si2 0.860962 0.606334 0.278497
Si Si3 0.950688 0.709298 0.597583
Si Si4 0.236731 0.661214 0.127190
O O1 0.138168 0.958662 0.132594
O O2 0.061656 0.050258 0.074686
O O3 0.082499 0.800645 0.987630
O O4 0.116225 0.010507 0.883348
O O5 0.885489 0.750000 0.250000
O O6 0.814947 0.648401 0.342947
O O7 0.945268 0.750000 0.750000
O O8 0.000000 0.750000 0.561036
O O9 0.255523 0.750000 0.250000
O O10 0.250000 0.500000 0.119169
O O11 0.250000 0.750000 0.000000
#
# Coordination Sequence:
#
# PCOD9510426 Si02
#       4
#    16  16  16  16
#     4  12  23  45  67  99 137 180 236 289 343 421
#     4  11  26  43  70 101 138 179 232 283 353 413
#     4  11  24  42  66 100 138 185 234 294 355 411
#     4  11  27  48  72 106 142 185 233 288 354 429
#
# _framework density 21.201982999999998
#
# number of rings (size 3 to 8) (size 9 to 14) (size 15 to 20)
#    0.000    0.750    5.000    1.500   10.500    0.000 
#    0.000    1.250    0.000    0.000    0.000    0.000 
#    0.000    0.000    0.000    0.000    0.000    0.000 
#
# Total GULP energy -178501.716189 kJ/mol
# GULP energy per Si atom -5578.178631 kJ/mol
# Density = 2.115373 g / cm^3
# Si number density = 21.201983 Si / 1000 Ang^3
#
#
#
# Elastic Constant Matrix: (Units=GPa)
#
#
# Indices 1 2 3 4 5 6 
#
# 1 53.9281 -1.3467 32.3615 0.0000 0.0000 0.0000
# 2 -1.3467 102.2702 41.2479 0.0000 0.0000 0.0000
# 3 32.3615 41.2479 171.2856 0.0000 0.0000 0.0000
# 4 0.0000 0.0000 0.0000 40.6400 0.0000 0.0000
# 5 0.0000 0.0000 0.0000 0.0000 24.9827 0.0000
# 6 0.0000 0.0000 0.0000 0.0000 0.0000 32.7673
#
#
#
# Elastic Compliance Matrix: (Units=1/GPa)
#
#
# Indices 1 2 3 4 5 6 
#
# 1 0.021318 0.002110 -0.004536 0.000000 0.000000 0.000000
# 2 0.002110 0.011039 -0.003057 0.000000 0.000000 0.000000
# 3 -0.004536 -0.003057 0.007431 0.000000 0.000000 0.000000
# 4 0.000000 0.000000 0.000000 0.024606 0.000000 0.000000
# 5 0.000000 0.000000 0.000000 0.000000 0.040028 0.000000
# 6 0.000000 0.000000 0.000000 0.000000 0.000000 0.030518
#
#
# Mechanical properties :
#
#
# Convention : Reuss Voigt Hill
#
# Bulk Modulus (GPa) = 34.69502 52.44549 43.57026
# Shear Modulus (GPa) = 32.15167 36.69273 34.42220
#
# Velocity S-wave (km/s) = 3.89838 4.16459 4.03368
# Velocity P-wave (km/s) = 6.05498 6.92206 6.50299
#
# Compressibility (1/GPa) = 0.02882258
#
# Stress axis : x y z
#
# Youngs Moduli (GPa) = 46.90920 90.58999 134.56568
#
# Poissons Ratio (x) = -0.19115 0.61036
# Poissons Ratio (y) = -0.09898 0.41136
# Poissons Ratio (z) = 0.21277 0.27693
#
# Static dielectric constant tensor:
#      x y z
#    x 1.814030 0.000000 0.000000 
#    y 0.000000 1.827210 0.000000 
#    z 0.000000 0.000000 1.796160 
# 
# From -- ./inp_files/9341.got.cif
#   From: 2010.05.17/outbox.cif.g08.bks.cpg/sg68_5_cif.got.tgz:9341.got - 2010.06.03 18:57:09.
