data_PCOD9510493
_publ_section_title
;
Structure prediction by ZEFSAII (Michael W. Deem and Ramdas Pophale) SiO2 
 PCOD9510493
Probable space group: C C C A
;
_chemical_formula_sum "Si O2"
_cell_formula_units_Z 48
_cell_length_a 25.552553
_cell_length_b 9.977103
_cell_length_c 8.935358
_cell_angle_alpha 90.000000
_cell_angle_beta 90.000000
_cell_angle_gamma 90.000000
_cell_volume 2277.984218
_symmetry_space_group_name_H-M "C C C A"
_symmetry_group_IT_number 68
_space_group.IT_coordinate_system_code '2'
_symmetry_cell_setting 'orthorhombic'
loop_
_space_group_symop_operation_xyz
x,y,z
-x,1/2-y,z
x,1/2-y,1/2-z
-x,y,1/2-z
-x,-y,-z
x,1/2+y,-z
-x,1/2+y,1/2+z
x,-y,1/2+z
1/2+x,1/2+y,z
1/2-x,-y,z
1/2+x,-y,1/2-z
1/2-x,1/2+y,1/2-z
1/2-x,1/2-y,-z
1/2+x,y,-z
1/2-x,y,1/2+z
1/2+x,1/2-y,1/2+z
loop_
_atom_site_type_symbol
_atom_site_label
_atom_site_fract_x
_atom_site_fract_y
_atom_site_fract_z
Si Si1 0.475550 0.879237 0.914766
Si Si2 0.852810 0.621137 0.356342
Si Si3 0.798657 0.103817 0.324725
O O1 0.500000 0.750000 0.992000
O O2 0.500000 0.884319 0.750000
O O3 0.413339 0.874641 0.904474
O O4 0.500000 0.000000 0.000000
O O5 0.842830 0.750000 0.250000
O O6 0.841333 0.482556 0.268516
O O7 0.817457 0.625721 0.505151
O O8 0.789008 0.250000 0.250000
O O9 0.750000 0.000000 0.323726
#
# Coordination Sequence:
#
# PCOD9510493 Si02
#       3
#    16  16  16
#     4  11  24  45  69 104 145 188 233 291 349 425
#     4  12  25  47  74 105 146 189 242 295 360 429
#     4  12  28  48  75 106 143 191 240 302 363 431
#
# _framework density 21.071262000000001
#
# number of rings (size 3 to 8) (size 9 to 14) (size 15 to 20)
#    0.000    0.333    3.333    6.000    4.667    4.667 
#    0.000    1.667    0.000    0.000    0.000    0.000 
#    0.000    0.000    0.000    0.000    0.000    0.000 
#
# Total GULP energy -134255.368794 kJ/mol
# GULP energy per Si atom -5593.973700 kJ/mol
# Density = 2.102330 g / cm^3
# Si number density = 21.071262 Si / 1000 Ang^3
#
#
#
# Elastic Constant Matrix: (Units=GPa)
#
#
# Indices 1 2 3 4 5 6 
#
# 1 138.9932 78.1738 31.9673 0.0000 0.0000 0.0000
# 2 78.1738 244.5259 88.8217 0.0000 0.0000 0.0000
# 3 31.9673 88.8217 120.2170 0.0000 0.0000 0.0000
# 4 0.0000 0.0000 0.0000 73.6392 0.0000 0.0000
# 5 0.0000 0.0000 0.0000 0.0000 85.3857 0.0000
# 6 0.0000 0.0000 0.0000 0.0000 0.0000 32.1039
#
#
#
# Elastic Compliance Matrix: (Units=1/GPa)
#
#
# Indices 1 2 3 4 5 6 
#
# 1 0.008783 -0.002678 -0.000357 0.000000 0.000000 0.000000
# 2 -0.002678 0.006406 -0.004021 0.000000 0.000000 0.000000
# 3 -0.000357 -0.004021 0.011384 0.000000 0.000000 0.000000
# 4 0.000000 0.000000 0.000000 0.013580 0.000000 0.000000
# 5 0.000000 0.000000 0.000000 0.000000 0.011712 0.000000
# 6 0.000000 0.000000 0.000000 0.000000 0.000000 0.031149
#
#
# Mechanical properties :
#
#
# Convention : Reuss Voigt Hill
#
# Bulk Modulus (GPa) = 80.24844 100.18464 90.21654
# Shear Modulus (GPa) = 49.36819 58.54398 53.95609
#
# Velocity S-wave (km/s) = 4.84562 5.27675 5.06577
# Velocity P-wave (km/s) = 8.33509 9.20730 8.78203
#
# Compressibility (1/GPa) = 0.01246130
#
# Stress axis : x y z
#
# Youngs Moduli (GPa) = 113.85641 156.09270 87.84151
#
# Poissons Ratio (x) = 0.41807 0.03133
# Poissons Ratio (y) = 0.30495 0.35323
# Poissons Ratio (z) = 0.04061 0.62767
#
# Static dielectric constant tensor:
#      x y z
#    x 1.755060 0.000000 0.000000 
#    y 0.000000 1.738200 0.000000 
#    z 0.000000 0.000000 1.717550 
# 
# From -- ./inp_files/3281.got.cif
#   From: 2010.05.17/outbox.cif.g08.bks.cpg/sg68_2_cif.got.tgz:3281.got - 2010.06.03 18:57:09.
