data_PCOD9510322
_publ_section_title
;
Structure prediction by ZEFSAII (Michael W. Deem and Ramdas Pophale) SiO2 
 PCOD9510322
Probable space group: C C C A
;
_chemical_formula_sum "Si O2"
_cell_formula_units_Z 64
_cell_length_a 25.153848
_cell_length_b 11.527617
_cell_length_c 9.447802
_cell_angle_alpha 90.000000
_cell_angle_beta 90.000000
_cell_angle_gamma 90.000000
_cell_volume 2739.521758
_symmetry_space_group_name_H-M "C C C A"
_symmetry_group_IT_number 68
_space_group.IT_coordinate_system_code '2'
_symmetry_cell_setting 'orthorhombic'
loop_
_space_group_symop_operation_xyz
x,y,z
-x,1/2-y,z
x,1/2-y,1/2-z
-x,y,1/2-z
-x,-y,-z
x,1/2+y,-z
-x,1/2+y,1/2+z
x,-y,1/2+z
1/2+x,1/2+y,z
1/2-x,-y,z
1/2+x,-y,1/2-z
1/2-x,1/2+y,1/2-z
1/2-x,1/2-y,-z
1/2+x,y,-z
1/2-x,y,1/2+z
1/2+x,1/2-y,1/2+z
loop_
_atom_site_type_symbol
_atom_site_label
_atom_site_fract_x
_atom_site_fract_y
_atom_site_fract_z
Si Si1 0.482072 0.381667 0.085252
Si Si2 0.726980 0.828747 0.625582
Si Si3 0.656063 0.121247 0.702160
Si Si4 0.871155 0.038498 0.492153
O O1 0.500000 0.250000 0.041270
O O2 0.500000 0.394857 0.250000
O O3 0.419170 0.388714 0.055956
O O4 0.500000 0.500000 0.000000
O O5 0.703191 0.750000 0.750000
O O6 0.750000 0.750000 0.500000
O O7 0.780050 0.885558 0.692136
O O8 0.683417 0.909026 0.554281
O O9 0.643472 0.250000 0.750000
O O10 0.628776 0.090148 0.555262
O O11 0.632919 0.040061 0.824333
#
# Coordination Sequence:
#
# PCOD9510322 Si02
#       4
#    16  16  16  16
#     4  11  28  52  77 115 146 197 268 323 389 461
#     4  11  23  42  69 109 151 192 248 301 368 475
#     4  11  26  45  68 113 147 193 256 294 388 469
#     4  12  26  45  77  99 154 201 238 323 384 451
#
# _framework density 23.361744000000002
#
# number of rings (size 3 to 8) (size 9 to 14) (size 15 to 20)
#    0.000    0.750    5.000    2.250   10.500    2.500 
#    0.000    0.000    0.000    0.000    0.000    0.000 
#    0.000    0.000    0.000    0.000    0.000    0.000 
#
# Total GULP energy -178859.886621 kJ/mol
# GULP energy per Si atom -5589.371457 kJ/mol
# Density = 2.330857 g / cm^3
# Si number density = 23.361744 Si / 1000 Ang^3
#
#
#
# Elastic Constant Matrix: (Units=GPa)
#
#
# Indices 1 2 3 4 5 6 
#
# 1 89.4563 34.8379 18.0915 0.0000 0.0000 0.0000
# 2 34.8379 140.0771 38.3467 0.0000 0.0000 0.0000
# 3 18.0915 38.3467 117.4978 0.0000 0.0000 0.0000
# 4 0.0000 0.0000 0.0000 32.1312 0.0000 0.0000
# 5 0.0000 0.0000 0.0000 0.0000 -75.0873 0.0000
# 6 0.0000 0.0000 0.0000 0.0000 0.0000 30.0639
#
#
#
# Elastic Compliance Matrix: (Units=1/GPa)
#
#
# Indices 1 2 3 4 5 6 
#
# 1 0.012483 -0.002831 -0.000998 0.000000 0.000000 0.000000
# 2 -0.002831 0.008482 -0.002332 0.000000 0.000000 0.000000
# 3 -0.000998 -0.002332 0.009426 0.000000 0.000000 0.000000
# 4 0.000000 0.000000 0.000000 0.031122 0.000000 0.000000
# 5 0.000000 0.000000 0.000000 0.000000 -0.013318 0.000000
# 6 0.000000 0.000000 0.000000 0.000000 0.000000 0.033262
#
#
# Mechanical properties :
#
#
# Convention : Reuss Voigt Hill
#
# Bulk Modulus (GPa) = 55.34881 58.84261 57.09571
# Shear Modulus (GPa) = 50.09885 14.47190 32.28538
#
# Velocity S-wave (km/s) = 4.63588 2.49162 3.72153
# Velocity P-wave (km/s) = 7.23869 5.78963 6.55433
#
# Compressibility (1/GPa) = 0.01806724
#
# Stress axis : x y z
#
# Youngs Moduli (GPa) = 80.10799 117.90324 106.09444
#
# Poissons Ratio (x) = 0.33383 0.10588
# Poissons Ratio (y) = 0.22682 0.24742
# Poissons Ratio (z) = 0.07995 0.27496
#
# Static dielectric constant tensor:
#      x y z
#    x 1.857840 0.000000 0.000000 
#    y 0.000000 2.007300 0.000000 
#    z 0.000000 0.000000 1.856350 
# 
# From -- ./inp_files/9336.got.cif
#   From: 2010.05.17/outbox.cif.g08.bks.cpg/sg68_5_cif.got.tgz:9336.got - 2010.06.03 18:57:09.
