data_PCOD9510611
_publ_section_title
;
Structure prediction by ZEFSAII (Michael W. Deem and Ramdas Pophale) SiO2 
 PCOD9510611
Probable space group: C C C A
;
_chemical_formula_sum "Si O2"
_cell_formula_units_Z 80
_cell_length_a 17.295189
_cell_length_b 7.674444
_cell_length_c 26.685499
_cell_angle_alpha 90.000000
_cell_angle_beta 90.000000
_cell_angle_gamma 90.000000
_cell_volume 3541.991886
_symmetry_space_group_name_H-M "C C C A"
_symmetry_group_IT_number 68
_space_group.IT_coordinate_system_code '2'
_symmetry_cell_setting 'orthorhombic'
loop_
_space_group_symop_operation_xyz
x,y,z
-x,1/2-y,z
x,1/2-y,1/2-z
-x,y,1/2-z
-x,-y,-z
x,1/2+y,-z
-x,1/2+y,1/2+z
x,-y,1/2+z
1/2+x,1/2+y,z
1/2-x,-y,z
1/2+x,-y,1/2-z
1/2-x,1/2+y,1/2-z
1/2-x,1/2-y,-z
1/2+x,y,-z
1/2-x,y,1/2+z
1/2+x,1/2-y,1/2+z
loop_
_atom_site_type_symbol
_atom_site_label
_atom_site_fract_x
_atom_site_fract_y
_atom_site_fract_z
Si Si1 0.412861 0.303462 0.957227
Si Si2 0.416233 0.680240 0.193567
Si Si3 0.838153 0.443626 0.942055
Si Si4 0.910683 0.793920 0.155593
Si Si5 0.338936 0.536713 0.364862
O O1 0.500000 0.250000 0.970339
O O2 0.393422 0.445583 0.914459
O O3 0.382525 0.123397 0.935669
O O4 0.366737 0.354794 0.006962
O O5 0.500000 0.750000 0.173176
O O6 0.412927 0.750000 0.250000
O O7 0.409909 0.471759 0.187750
O O8 0.349455 0.780120 0.163434
O O9 0.750000 0.500000 0.944980
O O10 0.861750 0.330967 0.894565
O O11 0.871533 0.612906 0.172392
O O12 0.000000 0.750000 0.145201
O O13 0.250000 0.500000 0.378468
#
# Coordination Sequence:
#
# PCOD9510611 Si02
#       5
#    16  16  16  16  16
#     4  12  23  42  66  98 147 189 246 295 342 423
#     4  11  25  50  75 103 137 178 236 296 350 432
#     4  12  24  40  64 102 145 190 238 298 353 418
#     4  12  24  44  74 102 139 187 235 286 361 427
#     4  12  25  45  70 106 144 185 232 296 360 423
#
# _framework density 22.586162000000002
#
# number of rings (size 3 to 8) (size 9 to 14) (size 15 to 20)
#    0.000    0.200    4.000    6.600    0.000    0.800 
#    3.600    0.000    0.000    0.000    0.000    0.000 
#    0.000    0.000    0.000    0.000    0.000    0.000 
#
# Total GULP energy -223633.137749 kJ/mol
# GULP energy per Si atom -5590.828444 kJ/mol
# Density = 2.253476 g / cm^3
# Si number density = 22.586162 Si / 1000 Ang^3
#
#
#
# Elastic Constant Matrix: (Units=GPa)
#
#
# Indices 1 2 3 4 5 6 
#
# 1 54.6534 -105.0618 -45.6230 0.0000 0.0000 0.0000
# 2 -105.0618 -85.1294 -106.7455 0.0000 0.0000 0.0000
# 3 -45.6230 -106.7455 11.5801 0.0000 0.0000 0.0000
# 4 0.0000 0.0000 0.0000 26.3444 0.0000 0.0000
# 5 0.0000 0.0000 0.0000 0.0000 -0.7009 0.0000
# 6 0.0000 0.0000 0.0000 0.0000 0.0000 77.0422
#
#
#
# Elastic Compliance Matrix: (Units=1/GPa)
#
#
# Indices 1 2 3 4 5 6 
#
# 1 0.007501 -0.003688 -0.004441 0.000000 0.000000 0.000000
# 2 -0.003688 0.000878 -0.006439 0.000000 0.000000 0.000000
# 3 -0.004441 -0.006439 0.009506 0.000000 0.000000 0.000000
# 4 0.000000 0.000000 0.000000 0.037959 0.000000 0.000000
# 5 0.000000 0.000000 0.000000 0.000000 -1.426659 0.000000
# 6 0.000000 0.000000 0.000000 0.000000 0.000000 0.012980
#
#
# Mechanical properties :
#
#
# Convention : Reuss Voigt Hill
#
# Bulk Modulus (GPa) = -88.88235 -59.30626 -74.09430
# Shear Modulus (GPa) = -3.75248 36.43942 16.34347
#
# Velocity S-wave (km/s) = -1.29035 4.02101 2.69291
# Velocity P-wave (km/s) = 6.45430 2.18099 4.81740
#
# Compressibility (1/GPa) = -0.01125083
#
# Stress axis : x y z
#
# Youngs Moduli (GPa) = 133.32126 1139.45122 105.19500
#
# Poissons Ratio (x) = 4.20186 0.46722
# Poissons Ratio (y) = 0.49164 0.67730
# Poissons Ratio (z) = 0.59215 7.33638
#
# Static dielectric constant tensor:
#      x y z
#    x 1.787620 0.000000 0.000000 
#    y 0.000000 1.913230 0.000000 
#    z 0.000000 0.000000 1.874270 
# 
# From -- ./inp_files/55544.got.cif
#   From: 2010.05.17/outbox.cif.g08.bks.cpg/sg68_28_cif.got.tgz:55544.got - 2010.06.03 18:57:09.
