data_PCOD9510163
_publ_section_title
;
Structure prediction by ZEFSAII (Michael W. Deem and Ramdas Pophale) SiO2 
 PCOD9510163
Probable space group: C C C A
;
_chemical_formula_sum "Si O2"
_cell_formula_units_Z 64
_cell_length_a 10.909853
_cell_length_b 14.951179
_cell_length_c 16.344651
_cell_angle_alpha 90.000000
_cell_angle_beta 90.000000
_cell_angle_gamma 90.000000
_cell_volume 2666.060446
_symmetry_space_group_name_H-M "C C C A"
_symmetry_group_IT_number 68
_space_group.IT_coordinate_system_code '2'
_symmetry_cell_setting 'orthorhombic'
loop_
_space_group_symop_operation_xyz
x,y,z
-x,1/2-y,z
x,1/2-y,1/2-z
-x,y,1/2-z
-x,-y,-z
x,1/2+y,-z
-x,1/2+y,1/2+z
x,-y,1/2+z
1/2+x,1/2+y,z
1/2-x,-y,z
1/2+x,-y,1/2-z
1/2-x,1/2+y,1/2-z
1/2-x,1/2-y,-z
1/2+x,y,-z
1/2-x,y,1/2+z
1/2+x,1/2-y,1/2+z
loop_
_atom_site_type_symbol
_atom_site_label
_atom_site_fract_x
_atom_site_fract_y
_atom_site_fract_z
Si Si1 0.939650 0.845106 0.473245
Si Si2 0.625059 0.647749 0.216984
Si Si3 0.686658 0.095652 0.966248
Si Si4 0.119404 0.352380 0.782134
O O1 0.803266 0.857359 0.512532
O O2 0.899723 0.847269 0.378787
O O3 0.000000 0.750000 0.493223
O O4 0.057934 0.909262 0.485227
O O5 0.624814 0.750000 0.250000
O O6 0.500000 0.607584 0.250000
O O7 0.640436 0.640431 0.119004
O O8 0.753131 0.606717 0.245976
O O9 0.750000 0.000000 0.947574
O O10 0.120652 0.250000 0.750000
O O11 0.000000 0.400030 0.750000
#
# Coordination Sequence:
#
# PCOD9510163 Si02
#       4
#    16  16  16  16
#     4  11  22  39  68  97 124 180 226 272 320 400
#     4   9  20  37  63  89 120 165 220 272 312 387
#     4  11  25  43  63  98 141 171 216 277 346 393
#     4   9  16  33  57  91 122 153 212 275 315 361
#
# _framework density 24.005455999999999
#
# number of rings (size 3 to 8) (size 9 to 14) (size 15 to 20)
#    0.000    2.000    2.500    1.500    3.500    2.000 
#    0.000    5.000    0.000    3.000    0.000    0.000 
#    0.000    0.000    0.000    0.000    0.000    0.000 
#
# Total GULP energy -178135.602524 kJ/mol
# GULP energy per Si atom -5566.737579 kJ/mol
# Density = 2.395082 g / cm^3
# Si number density = 24.005456 Si / 1000 Ang^3
#
#
#
# Elastic Constant Matrix: (Units=GPa)
#
#
# Indices 1 2 3 4 5 6 
#
# 1 331.1915 38.0136 53.4432 0.0000 0.0000 0.0000
# 2 38.0136 112.1669 19.3038 0.0000 0.0000 0.0000
# 3 53.4432 19.3038 61.0389 0.0000 0.0000 0.0000
# 4 0.0000 0.0000 0.0000 2.8445 0.0000 0.0000
# 5 0.0000 0.0000 0.0000 0.0000 36.0487 0.0000
# 6 0.0000 0.0000 0.0000 0.0000 0.0000 18.1863
#
#
#
# Elastic Compliance Matrix: (Units=1/GPa)
#
#
# Indices 1 2 3 4 5 6 
#
# 1 0.003569 -0.000710 -0.002900 0.000000 0.000000 0.000000
# 2 -0.000710 0.009570 -0.002405 0.000000 0.000000 0.000000
# 3 -0.002900 -0.002405 0.019683 0.000000 0.000000 0.000000
# 4 0.000000 0.000000 0.000000 0.351550 0.000000 0.000000
# 5 0.000000 0.000000 0.000000 0.000000 0.027740 0.000000
# 6 0.000000 0.000000 0.000000 0.000000 0.000000 0.054987
#
#
# Mechanical properties :
#
#
# Convention : Reuss Voigt Hill
#
# Bulk Modulus (GPa) = 48.09689 80.65760 64.37724
# Shear Modulus (GPa) = 10.28682 37.65836 23.97259
#
# Velocity S-wave (km/s) = 2.07232 3.96503 3.16354
# Velocity P-wave (km/s) = 5.07989 7.39152 6.34192
#
# Compressibility (1/GPa) = 0.02079136
#
# Stress axis : x y z
#
# Youngs Moduli (GPa) = 280.19647 104.49481 50.80609
#
# Poissons Ratio (x) = 0.07423 0.14734
# Poissons Ratio (y) = 0.19905 0.12216
# Poissons Ratio (z) = 0.81261 0.25126
#
# Static dielectric constant tensor:
#      x y z
#    x 2.272400 0.000000 0.000000 
#    y 0.000000 1.840360 0.000000 
#    z 0.000000 0.000000 2.019940 
# 
# From -- ./inp_files/29145.got.cif
#   From: 2010.05.17/outbox.cif.g08.bks.cpg/sg68_15_cif.got.tgz:29145.got - 2010.06.03 18:57:09.
