data_PCOD9510775
_publ_section_title
;
Structure prediction by ZEFSAII (Michael W. Deem and Ramdas Pophale) SiO2 
 PCOD9510775
Probable space group: C C C A
;
_chemical_formula_sum "Si O2"
_cell_formula_units_Z 52
_cell_length_a 5.198612
_cell_length_b 28.833315
_cell_length_c 14.525602
_cell_angle_alpha 90.000000
_cell_angle_beta 90.000000
_cell_angle_gamma 90.000000
_cell_volume 2177.289218
_symmetry_space_group_name_H-M "C C C A"
_symmetry_group_IT_number 68
_space_group.IT_coordinate_system_code '2'
_symmetry_cell_setting 'orthorhombic'
loop_
_space_group_symop_operation_xyz
x,y,z
-x,1/2-y,z
x,1/2-y,1/2-z
-x,y,1/2-z
-x,-y,-z
x,1/2+y,-z
-x,1/2+y,1/2+z
x,-y,1/2+z
1/2+x,1/2+y,z
1/2-x,-y,z
1/2+x,-y,1/2-z
1/2-x,1/2+y,1/2-z
1/2-x,1/2-y,-z
1/2+x,y,-z
1/2-x,y,1/2+z
1/2+x,1/2-y,1/2+z
loop_
_atom_site_type_symbol
_atom_site_label
_atom_site_fract_x
_atom_site_fract_y
_atom_site_fract_z
Si Si1 0.704978 0.422671 0.061905
Si Si2 0.854624 0.670598 0.162883
Si Si3 0.000000 0.471653 0.750000
Si Si4 0.500000 0.250000 0.750000
Si Si5 0.500000 0.250000 0.439918
O O1 0.733517 0.368757 0.093579
O O2 0.621376 0.446573 0.158856
O O3 0.475326 0.432967 0.988982
O O4 0.661878 0.712117 0.191676
O O5 0.059465 0.703360 0.115794
O O6 0.000000 0.648636 0.250000
O O7 0.750000 0.500000 0.784815
O O8 0.250000 0.250000 0.500000
#
# Coordination Sequence:
#
# PCOD9510775 Si02
#       5
#    16  16   8   4   8
#     4  12  29  51  80 117 158 205 260 321 392 478
#     4  12  25  44  69 103 148 212 259 325 383 448
#     4  12  28  53  88 121 158 199 248 323 406 486
#     4  12  24  42  76 100 164 212 280 326 380 444
#     4  12  24  40  61  97 140 186 258 310 366 442
#
# _framework density 23.882909000000001
#
# number of rings (size 3 to 8) (size 9 to 14) (size 15 to 20)
#    0.000    0.000    4.615    4.615    4.308    4.923 
#    0.000    0.000    0.000    0.000    0.000    0.000 
#    0.000    0.000    0.000    0.000    0.000    0.000 
#
# Total GULP energy -144910.107873 kJ/mol
# GULP energy per Si atom -5573.465687 kJ/mol
# Density = 2.382855 g / cm^3
# Si number density = 23.882909 Si / 1000 Ang^3
#
#
#
# Elastic Constant Matrix: (Units=GPa)
#
#
# Indices 1 2 3 4 5 6 
#
# 1 133.4496 21.6164 28.3107 0.0000 0.0000 0.0000
# 2 21.6164 76.9285 24.7836 0.0000 0.0000 0.0000
# 3 28.3107 24.7836 109.8674 0.0000 0.0000 0.0000
# 4 0.0000 0.0000 0.0000 17.3345 0.0000 0.0000
# 5 0.0000 0.0000 0.0000 0.0000 10.1937 0.0000
# 6 0.0000 0.0000 0.0000 0.0000 0.0000 19.6429
#
#
#
# Elastic Compliance Matrix: (Units=1/GPa)
#
#
# Indices 1 2 3 4 5 6 
#
# 1 0.008137 -0.001737 -0.001705 0.000000 0.000000 0.000000
# 2 -0.001737 0.014389 -0.002798 0.000000 0.000000 0.000000
# 3 -0.001705 -0.002798 0.010172 0.000000 0.000000 0.000000
# 4 0.000000 0.000000 0.000000 0.057688 0.000000 0.000000
# 5 0.000000 0.000000 0.000000 0.000000 0.098100 0.000000
# 6 0.000000 0.000000 0.000000 0.000000 0.000000 0.050909
#
#
# Mechanical properties :
#
#
# Convention : Reuss Voigt Hill
#
# Bulk Modulus (GPa) = 49.46206 52.18523 50.82364
# Shear Modulus (GPa) = 19.33382 25.80319 22.56851
#
# Velocity S-wave (km/s) = 2.84830 3.29052 3.07736
# Velocity P-wave (km/s) = 5.61892 6.02781 5.82696
#
# Compressibility (1/GPa) = 0.02021752
#
# Stress axis : x y z
#
# Youngs Moduli (GPa) = 122.90288 69.49919 98.30554
#
# Poissons Ratio (x) = 0.12073 0.16759
# Poissons Ratio (y) = 0.21349 0.27507
# Poissons Ratio (z) = 0.20952 0.19447
#
# Static dielectric constant tensor:
#      x y z
#    x 1.998580 0.000000 0.000000 
#    y 0.000000 1.779020 0.000000 
#    z 0.000000 0.000000 2.413080 
# 
# From -- ./inp_files/18369.got.cif
#   From: 2010.05.17/outbox.cif.g08.bks.cpg/sg68_10_cif.got.tgz:18369.got - 2010.06.03 18:57:09.
