data_PCOD9510193
_publ_section_title
;
Structure prediction by ZEFSAII (Michael W. Deem and Ramdas Pophale) SiO2 
 PCOD9510193
Probable space group: C C C A
;
_chemical_formula_sum "Si O2"
_cell_formula_units_Z 96
_cell_length_a 7.192193
_cell_length_b 30.234730
_cell_length_c 17.825369
_cell_angle_alpha 90.000000
_cell_angle_beta 90.000000
_cell_angle_gamma 90.000000
_cell_volume 3876.198031
_symmetry_space_group_name_H-M "C C C A"
_symmetry_group_IT_number 68
_space_group.IT_coordinate_system_code '2'
_symmetry_cell_setting 'orthorhombic'
loop_
_space_group_symop_operation_xyz
x,y,z
-x,1/2-y,z
x,1/2-y,1/2-z
-x,y,1/2-z
-x,-y,-z
x,1/2+y,-z
-x,1/2+y,1/2+z
x,-y,1/2+z
1/2+x,1/2+y,z
1/2-x,-y,z
1/2+x,-y,1/2-z
1/2-x,1/2+y,1/2-z
1/2-x,1/2-y,-z
1/2+x,y,-z
1/2-x,y,1/2+z
1/2+x,1/2-y,1/2+z
loop_
_atom_site_type_symbol
_atom_site_label
_atom_site_fract_x
_atom_site_fract_y
_atom_site_fract_z
Si Si1 0.421310 0.973625 0.177252
Si Si2 0.887528 0.439864 0.887970
Si Si3 0.481530 0.083488 0.556208
Si Si4 0.148998 0.788556 0.072035
Si Si5 0.090121 0.345945 0.672790
Si Si6 0.949705 0.684642 0.909236
O O1 0.500000 0.948414 0.250000
O O2 0.342615 0.941728 0.112055
O O3 0.250000 0.000000 0.211649
O O4 0.542152 0.013932 0.143226
O O5 0.830649 0.564432 0.907428
O O6 0.911836 0.398844 0.831799
O O7 0.970358 0.430018 0.970535
O O8 0.478860 0.135910 0.565779
O O9 0.359316 0.788129 0.104384
O O10 0.000000 0.750000 0.090045
O O11 0.046943 0.830762 0.106757
O O12 0.154498 0.794823 0.982003
O O13 0.294082 0.325432 0.653882
O O14 0.000000 0.329996 0.750000
#
# Coordination Sequence:
#
# PCOD9510193 Si02
#       6
#    16  16  16  16  16  16
#     4  12  26  41  62  94 138 186 240 306 374 440
#     4  11  22  42  66  95 139 189 249 307 365 436
#     4  11  22  41  67  97 132 187 248 308 358 438
#     4  12  24  43  79 111 147 190 253 311 379 454
#     4  11  26  44  70 107 156 202 247 312 385 446
#     4  11  23  44  72 111 146 193 257 313 369 459
#
# _framework density 24.766535999999999
#
# number of rings (size 3 to 8) (size 9 to 14) (size 15 to 20)
#    0.000    0.667    3.333    5.000    2.333    2.333 
#    0.000    0.000    0.000    2.000    0.000    0.000 
#    0.000    0.000    0.000    0.000    0.000    0.000 
#
# Total GULP energy -268409.795816 kJ/mol
# GULP energy per Si atom -5591.870746 kJ/mol
# Density = 2.471017 g / cm^3
# Si number density = 24.766536 Si / 1000 Ang^3
#
#
#
# Elastic Constant Matrix: (Units=GPa)
#
#
# Indices 1 2 3 4 5 6 
#
# 1 114.1378 40.1885 43.4198 0.0000 0.0000 0.0000
# 2 40.1885 105.6772 30.0740 0.0000 0.0000 0.0000
# 3 43.4198 30.0740 118.5261 0.0000 0.0000 0.0000
# 4 0.0000 0.0000 0.0000 11.0185 0.0000 0.0000
# 5 0.0000 0.0000 0.0000 0.0000 37.4374 0.0000
# 6 0.0000 0.0000 0.0000 0.0000 0.0000 29.1965
#
#
#
# Elastic Compliance Matrix: (Units=1/GPa)
#
#
# Indices 1 2 3 4 5 6 
#
# 1 0.011167 -0.003322 -0.003248 0.000000 0.000000 0.000000
# 2 -0.003322 0.011188 -0.001622 0.000000 0.000000 0.000000
# 3 -0.003248 -0.001622 0.010038 0.000000 0.000000 0.000000
# 4 0.000000 0.000000 0.000000 0.090756 0.000000 0.000000
# 5 0.000000 0.000000 0.000000 0.000000 0.026711 0.000000
# 6 0.000000 0.000000 0.000000 0.000000 0.000000 0.034251
#
#
# Mechanical properties :
#
#
# Convention : Reuss Voigt Hill
#
# Bulk Modulus (GPa) = 62.46418 62.85618 62.66018
# Shear Modulus (GPa) = 24.29182 30.50774 27.39978
#
# Velocity S-wave (km/s) = 3.13522 3.51353 3.32975
# Velocity P-wave (km/s) = 6.19533 6.47259 6.33548
#
# Compressibility (1/GPa) = 0.01600918
#
# Stress axis : x y z
#
# Youngs Moduli (GPa) = 89.55249 89.38345 99.62000
#
# Poissons Ratio (x) = 0.29697 0.32353
# Poissons Ratio (y) = 0.29753 0.16155
# Poissons Ratio (z) = 0.29084 0.14495
#
# Static dielectric constant tensor:
#      x y z
#    x 2.172180 0.000000 0.000000 
#    y 0.000000 1.996000 0.000000 
#    z 0.000000 0.000000 1.361010 
# 
# From -- ./inp_files/29930.got.cif
#   From: 2010.05.17/outbox.cif.g08.bks.cpg/sg68_15_cif.got.tgz:29930.got - 2010.06.03 18:57:09.
