data_PCOD9510239
_publ_section_title
;
Structure prediction by ZEFSAII (Michael W. Deem and Ramdas Pophale) SiO2 
 PCOD9510239
Probable space group: C C C A
;
_chemical_formula_sum "Si O2"
_cell_formula_units_Z 68
_cell_length_a 17.773081
_cell_length_b 9.862261
_cell_length_c 17.337551
_cell_angle_alpha 90.000000
_cell_angle_beta 90.000000
_cell_angle_gamma 90.000000
_cell_volume 3038.973853
_symmetry_space_group_name_H-M "C C C A"
_symmetry_group_IT_number 68
_space_group.IT_coordinate_system_code '2'
_symmetry_cell_setting 'orthorhombic'
loop_
_space_group_symop_operation_xyz
x,y,z
-x,1/2-y,z
x,1/2-y,1/2-z
-x,y,1/2-z
-x,-y,-z
x,1/2+y,-z
-x,1/2+y,1/2+z
x,-y,1/2+z
1/2+x,1/2+y,z
1/2-x,-y,z
1/2+x,-y,1/2-z
1/2-x,1/2+y,1/2-z
1/2-x,1/2-y,-z
1/2+x,y,-z
1/2-x,y,1/2+z
1/2+x,1/2-y,1/2+z
loop_
_atom_site_type_symbol
_atom_site_label
_atom_site_fract_x
_atom_site_fract_y
_atom_site_fract_z
Si Si1 0.333241 0.507657 0.157770
Si Si2 0.089686 0.231572 0.624758
Si Si3 0.500000 0.250000 0.750000
Si Si4 0.374041 0.068224 0.677302
Si Si5 0.591272 0.732976 0.443680
O O1 0.250000 0.500000 0.124220
O O2 0.369127 0.359173 0.162855
O O3 0.327108 0.574291 0.243350
O O4 0.386441 0.598181 0.103369
O O5 0.109134 0.229478 0.533926
O O6 0.000000 0.250000 0.633711
O O7 0.112923 0.087488 0.658710
O O8 0.448850 0.148926 0.701863
O O9 0.358867 0.150001 0.598569
O O10 0.500000 0.750000 0.441972
#
# Coordination Sequence:
#
# PCOD9510239 Si02
#       5
#    16  16   4  16  16
#     4  12  27  45  67 103 144 183 230 284 346 411
#     4  11  25  42  71 106 137 174 234 295 341 406
#     4  12  20  40  70 104 124 188 230 288 344 420
#     4  12  22  40  68  95 138 176 229 275 344 407
#     4  11  22  44  72 102 136 183 231 284 350 417
#
# _framework density 22.375973999999999
#
# number of rings (size 3 to 8) (size 9 to 14) (size 15 to 20)
#    0.000    0.471    3.529    4.941    0.000    9.412 
#    0.000    2.353    0.000    0.000    0.000    0.000 
#    0.000    0.000    0.000    0.000    0.000    0.000 
#
# Total GULP energy -190004.469388 kJ/mol
# GULP energy per Si atom -5588.366747 kJ/mol
# Density = 2.232505 g / cm^3
# Si number density = 22.375974 Si / 1000 Ang^3
#
#
#
# Elastic Constant Matrix: (Units=GPa)
#
#
# Indices 1 2 3 4 5 6 
#
# 1 67.2683 21.6542 10.1313 0.0000 0.0000 0.0000
# 2 21.6542 157.0108 18.5361 0.0000 0.0000 0.0000
# 3 10.1313 18.5361 114.2160 0.0000 0.0000 0.0000
# 4 0.0000 0.0000 0.0000 44.1844 0.0000 0.0000
# 5 0.0000 0.0000 0.0000 0.0000 -13.7017 0.0000
# 6 0.0000 0.0000 0.0000 0.0000 0.0000 14.6716
#
#
#
# Elastic Compliance Matrix: (Units=1/GPa)
#
#
# Indices 1 2 3 4 5 6 
#
# 1 0.015681 -0.002038 -0.001060 0.000000 0.000000 0.000000
# 2 -0.002038 0.006758 -0.000916 0.000000 0.000000 0.000000
# 3 -0.001060 -0.000916 0.008998 0.000000 0.000000 0.000000
# 4 0.000000 0.000000 0.000000 0.022632 0.000000 0.000000
# 5 0.000000 0.000000 0.000000 0.000000 -0.072984 0.000000
# 6 0.000000 0.000000 0.000000 0.000000 0.000000 0.068159
#
#
# Mechanical properties :
#
#
# Convention : Reuss Voigt Hill
#
# Bulk Modulus (GPa) = 42.71708 48.79316 45.75512
# Shear Modulus (GPa) = 76.83284 28.24243 52.53763
#
# Velocity S-wave (km/s) = 5.86615 3.55657 4.85082
# Velocity P-wave (km/s) = 8.06315 6.22245 7.20185
#
# Compressibility (1/GPa) = 0.02340984
#
# Stress axis : x y z
#
# Youngs Moduli (GPa) = 63.76966 147.96964 111.13510
#
# Poissons Ratio (x) = 0.30149 0.11784
# Poissons Ratio (y) = 0.12993 0.10180
# Poissons Ratio (z) = 0.06762 0.13555
#
# Static dielectric constant tensor:
#      x y z
#    x 1.808420 0.000000 0.000000 
#    y 0.000000 1.813170 0.000000 
#    z 0.000000 0.000000 1.956400 
# 
# From -- ./inp_files/28002.got.cif
#   From: 2010.05.17/outbox.cif.g08.bks.cpg/sg68_15_cif.got.tgz:28002.got - 2010.06.03 18:57:09.
