data_PCOD9510100
_publ_section_title
;
Structure prediction by ZEFSAII (Michael W. Deem and Ramdas Pophale) SiO2 
 PCOD9510100
Probable space group: C C C A
;
_chemical_formula_sum "Si O2"
_cell_formula_units_Z 96
_cell_length_a 23.871626
_cell_length_b 9.004396
_cell_length_c 22.180615
_cell_angle_alpha 90.000000
_cell_angle_beta 90.000000
_cell_angle_gamma 90.000000
_cell_volume 4767.713738
_symmetry_space_group_name_H-M "C C C A"
_symmetry_group_IT_number 68
_space_group.IT_coordinate_system_code '2'
_symmetry_cell_setting 'orthorhombic'
loop_
_space_group_symop_operation_xyz
x,y,z
-x,1/2-y,z
x,1/2-y,1/2-z
-x,y,1/2-z
-x,-y,-z
x,1/2+y,-z
-x,1/2+y,1/2+z
x,-y,1/2+z
1/2+x,1/2+y,z
1/2-x,-y,z
1/2+x,-y,1/2-z
1/2-x,1/2+y,1/2-z
1/2-x,1/2-y,-z
1/2+x,y,-z
1/2-x,y,1/2+z
1/2+x,1/2-y,1/2+z
loop_
_atom_site_type_symbol
_atom_site_label
_atom_site_fract_x
_atom_site_fract_y
_atom_site_fract_z
Si Si1 0.737643 0.250000 0.750000
Si Si2 0.362979 0.596251 0.315192
Si Si3 0.836855 0.389225 0.440153
Si Si4 0.940354 0.078121 0.728627
Si Si5 0.750000 0.500000 0.340820
Si Si6 0.941786 0.657032 0.868078
Si Si7 0.311626 0.050545 0.564329
O O1 0.696438 0.347298 0.708232
O O2 0.766245 0.137181 0.703288
O O3 0.390190 0.492716 0.265856
O O4 0.403727 0.736821 0.325449
O O5 0.353689 0.521194 0.380209
O O6 0.802612 0.462485 0.384329
O O7 0.902441 0.363799 0.426249
O O8 0.828005 0.475964 0.501689
O O9 0.810789 0.226302 0.445439
O O10 0.940043 0.250000 0.750000
O O11 0.000000 0.015213 0.750000
O O12 0.941622 0.008228 0.661575
O O13 0.000000 0.750000 0.876005
O O14 0.250000 0.000000 0.582078
#
# Coordination Sequence:
#
# PCOD9510100 Si02
#       7
#     8  16  16  16   8  16  16
#     4  12  24  42  63 100 138 177 228 284 346 414
#     4  11  22  42  63  98 128 181 227 260 349 415
#     4  11  25  45  68 101 129 185 236 276 348 414
#     4  11  22  37  64 100 132 169 223 283 342 407
#     4  12  24  44  64  94 146 170 238 284 346 432
#     4  11  21  43  72  92 133 181 222 282 344 416
#     4  11  24  44  68  92 134 179 232 278 334 409
#
# _framework density 20.135435999999999
#
# number of rings (size 3 to 8) (size 9 to 14) (size 15 to 20)
#    0.000    0.833    7.500    0.500    1.167    1.333 
#    9.000    3.333    3.667    0.000    0.000    0.000 
#    0.000    0.000    0.000    0.000    0.000    0.000 
#
# Total GULP energy -267689.945757 kJ/mol
# GULP energy per Si atom -5576.873870 kJ/mol
# Density = 2.008961 g / cm^3
# Si number density = 20.135436 Si / 1000 Ang^3
#
#
#
# Elastic Constant Matrix: (Units=GPa)
#
#
# Indices 1 2 3 4 5 6 
#
# 1 84.1617 46.2191 40.8277 0.0000 0.0000 0.0000
# 2 46.2191 71.1817 28.2805 0.0000 0.0000 0.0000
# 3 40.8277 28.2805 85.3170 0.0000 0.0000 0.0000
# 4 0.0000 0.0000 0.0000 46.1740 0.0000 0.0000
# 5 0.0000 0.0000 0.0000 0.0000 19.8623 0.0000
# 6 0.0000 0.0000 0.0000 0.0000 0.0000 15.6732
#
#
#
# Elastic Compliance Matrix: (Units=1/GPa)
#
#
# Indices 1 2 3 4 5 6 
#
# 1 0.021124 -0.011171 -0.006406 0.000000 0.000000 0.000000
# 2 -0.011171 0.022087 -0.001975 0.000000 0.000000 0.000000
# 3 -0.006406 -0.001975 0.015441 0.000000 0.000000 0.000000
# 4 0.000000 0.000000 0.000000 0.021657 0.000000 0.000000
# 5 0.000000 0.000000 0.000000 0.000000 0.050347 0.000000
# 6 0.000000 0.000000 0.000000 0.000000 0.000000 0.063803
#
#
# Mechanical properties :
#
#
# Convention : Reuss Voigt Hill
#
# Bulk Modulus (GPa) = 51.15722 52.36834 51.76278
# Shear Modulus (GPa) = 20.82634 24.69744 22.76189
#
# Velocity S-wave (km/s) = 3.21956 3.50604 3.36585
# Velocity P-wave (km/s) = 6.26757 6.51569 6.39284
#
# Compressibility (1/GPa) = 0.01954758
#
# Stress axis : x y z
#
# Youngs Moduli (GPa) = 47.33867 45.27546 64.76149
#
# Poissons Ratio (x) = 0.50578 0.41485
# Poissons Ratio (y) = 0.52883 0.12793
# Poissons Ratio (z) = 0.30325 0.08944
#
# Static dielectric constant tensor:
#      x y z
#    x 1.728890 0.000000 0.000000 
#    y 0.000000 1.752780 0.000000 
#    z 0.000000 0.000000 1.747820 
# 
# From -- ./inp_files/46984.got.cif
#   From: 2010.05.17/outbox.cif.g08.bks.cpg/sg68_24_cif.got.tgz:46984.got - 2010.06.03 18:57:09.
