data_PCOD9510399
_publ_section_title
;
Structure prediction by ZEFSAII (Michael W. Deem and Ramdas Pophale) SiO2 
 PCOD9510399
Probable space group: C C C A
;
_chemical_formula_sum "Si O2"
_cell_formula_units_Z 120
_cell_length_a 21.902047
_cell_length_b 20.810279
_cell_length_c 12.284169
_cell_angle_alpha 90.000000
_cell_angle_beta 90.000000
_cell_angle_gamma 90.000000
_cell_volume 5598.973242
_symmetry_space_group_name_H-M "C C C A"
_symmetry_group_IT_number 68
_space_group.IT_coordinate_system_code '2'
_symmetry_cell_setting 'orthorhombic'
loop_
_space_group_symop_operation_xyz
x,y,z
-x,1/2-y,z
x,1/2-y,1/2-z
-x,y,1/2-z
-x,-y,-z
x,1/2+y,-z
-x,1/2+y,1/2+z
x,-y,1/2+z
1/2+x,1/2+y,z
1/2-x,-y,z
1/2+x,-y,1/2-z
1/2-x,1/2+y,1/2-z
1/2-x,1/2-y,-z
1/2+x,y,-z
1/2-x,y,1/2+z
1/2+x,1/2-y,1/2+z
loop_
_atom_site_type_symbol
_atom_site_label
_atom_site_fract_x
_atom_site_fract_y
_atom_site_fract_z
Si Si1 0.393564 0.250000 0.750000
Si Si2 0.065727 0.046975 0.384771
Si Si3 0.674166 0.675107 0.774586
Si Si4 0.911278 0.401449 0.938234
Si Si5 0.139626 0.119566 0.563185
Si Si6 0.788266 0.707152 0.912075
Si Si7 0.431257 0.389135 0.828457
Si Si8 0.981837 0.682040 0.122685
O O1 0.347951 0.236302 0.852243
O O2 0.431195 0.314000 0.788627
O O3 0.099064 0.068313 0.496851
O O4 0.096488 0.074657 0.275824
O O5 0.996616 0.075777 0.362620
O O6 0.074561 0.970754 0.387333
O O7 0.654461 0.750000 0.750000
O O8 0.631513 0.643908 0.866358
O O9 0.673839 0.621364 0.678773
O O10 0.741636 0.685404 0.819894
O O11 0.977103 0.368705 0.936691
O O12 0.891263 0.399769 0.063589
O O13 0.187131 0.146905 0.478356
O O14 0.087787 0.170581 0.598073
O O15 0.750000 0.750000 0.000000
O O16 0.000000 0.750000 0.077878
O O17 0.000000 0.678554 0.250000
#
# Coordination Sequence:
#
# PCOD9510399 Si02
#       8
#     8  16  16  16  16  16  16  16
#     4  12  24  45  72 104 146 193 236 318 370 452
#     4  11  27  45  67 106 146 206 239 292 360 464
#     4  12  25  44  74 112 136 191 249 315 369 438
#     4  12  26  44  73 103 154 194 243 298 375 444
#     4  12  24  43  70 101 146 186 242 301 367 437
#     4  12  24  44  72 104 145 187 248 314 383 425
#     4  11  26  44  69 105 150 191 246 289 387 451
#     4  11  24  38  66 111 150 180 232 300 376 447
#
# _framework density 21.432500000000001
#
# number of rings (size 3 to 8) (size 9 to 14) (size 15 to 20)
#    0.000    0.400    6.000    2.000    5.600    1.067 
#    0.000    0.667    0.000    1.600    0.000    0.000 
#    0.000    0.000    0.000    0.000    0.000    0.000 
#
# Total GULP energy -334163.559608 kJ/mol
# GULP energy per Si atom -5569.392660 kJ/mol
# Density = 2.138372 g / cm^3
# Si number density = 21.432500 Si / 1000 Ang^3
#
#
#
# Elastic Constant Matrix: (Units=GPa)
#
#
# Indices 1 2 3 4 5 6 
#
# 1 62.1076 22.8199 4.5644 0.0000 0.0000 0.0000
# 2 22.8199 118.9521 30.6594 0.0000 0.0000 0.0000
# 3 4.5644 30.6594 121.0521 0.0000 0.0000 0.0000
# 4 0.0000 0.0000 0.0000 24.0413 0.0000 0.0000
# 5 0.0000 0.0000 0.0000 0.0000 35.7290 0.0000
# 6 0.0000 0.0000 0.0000 0.0000 0.0000 -45.0501
#
#
#
# Elastic Compliance Matrix: (Units=1/GPa)
#
#
# Indices 1 2 3 4 5 6 
#
# 1 0.017327 -0.003376 0.000202 0.000000 0.000000 0.000000
# 2 -0.003376 0.009652 -0.002317 0.000000 0.000000 0.000000
# 3 0.000202 -0.002317 0.008840 0.000000 0.000000 0.000000
# 4 0.000000 0.000000 0.000000 0.041595 0.000000 0.000000
# 5 0.000000 0.000000 0.000000 0.000000 0.027988 0.000000
# 6 0.000000 0.000000 0.000000 0.000000 0.000000 -0.022198
#
#
# Mechanical properties :
#
#
# Convention : Reuss Voigt Hill
#
# Bulk Modulus (GPa) = 40.26478 46.46659 43.36569
# Shear Modulus (GPa) = 48.79667 19.21525 34.00596
#
# Velocity S-wave (km/s) = 4.77672 2.99749 3.98760
# Velocity P-wave (km/s) = 7.01785 5.80581 6.44041
#
# Compressibility (1/GPa) = 0.02483560
#
# Stress axis : x y z
#
# Youngs Moduli (GPa) = 57.71447 103.60928 113.11969
#
# Poissons Ratio (x) = 0.34978 -0.02282
# Poissons Ratio (y) = 0.19484 0.26212
# Poissons Ratio (z) = -0.01164 0.24009
#
# Static dielectric constant tensor:
#      x y z
#    x 1.779590 0.000000 0.000000 
#    y 0.000000 1.703910 0.000000 
#    z 0.000000 0.000000 2.108960 
# 
# From -- ./inp_files/16617.got.cif
#   From: 2010.05.17/outbox.cif.g08.bks.cpg/sg68_9_cif.got.tgz:16617.got - 2010.06.03 18:57:09.
