data_PCOD9510911
_publ_section_title
;
Structure prediction by ZEFSAII (Michael W. Deem and Ramdas Pophale) SiO2 
 PCOD9510911
Probable space group: C C C A
;
_chemical_formula_sum "Si O2"
_cell_formula_units_Z 40
_cell_length_a 10.029151
_cell_length_b 15.392886
_cell_length_c 8.559732
_cell_angle_alpha 90.000000
_cell_angle_beta 90.000000
_cell_angle_gamma 90.000000
_cell_volume 1321.430695
_symmetry_space_group_name_H-M "C C C A"
_symmetry_group_IT_number 68
_space_group.IT_coordinate_system_code '2'
_symmetry_cell_setting 'orthorhombic'
loop_
_space_group_symop_operation_xyz
x,y,z
-x,1/2-y,z
x,1/2-y,1/2-z
-x,y,1/2-z
-x,-y,-z
x,1/2+y,-z
-x,1/2+y,1/2+z
x,-y,1/2+z
1/2+x,1/2+y,z
1/2-x,-y,z
1/2+x,-y,1/2-z
1/2-x,1/2+y,1/2-z
1/2-x,1/2-y,-z
1/2+x,y,-z
1/2-x,y,1/2+z
1/2+x,1/2-y,1/2+z
loop_
_atom_site_type_symbol
_atom_site_label
_atom_site_fract_x
_atom_site_fract_y
_atom_site_fract_z
Si Si1 0.692620 0.166477 0.150596
Si Si2 0.044212 0.602295 0.568904
Si Si3 0.750000 0.000000 0.871871
O O1 0.659681 0.250000 0.250000
O O2 0.838622 0.175401 0.074284
O O3 0.424682 0.141494 0.466930
O O4 0.725459 0.083302 0.261828
O O5 0.124902 0.522165 0.486626
O O6 0.000000 0.585028 0.750000
#
# Coordination Sequence:
#
# PCOD9510911 Si02
#       3
#    16  16   8
#     4  12  32  63  99 140 195 258 325 401 492 591
#     4  12  31  59  95 140 192 254 329 405 482 576
#     4  12  30  56  94 140 192 250 320 396 486 576
#
# _framework density 30.270225
#
# number of rings (size 3 to 8) (size 9 to 14) (size 15 to 20)
#    0.000    0.000    0.000    4.800    0.000   32.800 
#    0.000   14.000    0.000    0.000    0.000    0.000 
#    0.000    0.000    0.000    0.000    0.000    0.000 
#
# Total GULP energy -112213.894119 kJ/mol
# GULP energy per Si atom -5610.694706 kJ/mol
# Density = 3.020133 g / cm^3
# Si number density = 30.270225 Si / 1000 Ang^3
#
#
#
# Elastic Constant Matrix: (Units=GPa)
#
#
# Indices 1 2 3 4 5 6 
#
# 1 358.6650 95.6627 180.3742 0.0000 0.0000 0.0000
# 2 95.6627 248.2842 151.0919 0.0000 0.0000 0.0000
# 3 180.3742 151.0919 309.4028 0.0000 0.0000 0.0000
# 4 0.0000 0.0000 0.0000 55.6788 0.0000 0.0000
# 5 0.0000 0.0000 0.0000 0.0000 82.4550 0.0000
# 6 0.0000 0.0000 0.0000 0.0000 0.0000 31.5718
#
#
#
# Elastic Compliance Matrix: (Units=1/GPa)
#
#
# Indices 1 2 3 4 5 6 
#
# 1 0.003950 -0.000172 -0.002219 0.000000 0.000000 0.000000
# 2 -0.000172 0.005738 -0.002702 0.000000 0.000000 0.000000
# 3 -0.002219 -0.002702 0.005845 0.000000 0.000000 0.000000
# 4 0.000000 0.000000 0.000000 0.017960 0.000000 0.000000
# 5 0.000000 0.000000 0.000000 0.000000 0.012128 0.000000
# 6 0.000000 0.000000 0.000000 0.000000 0.000000 0.031674
#
#
# Mechanical properties :
#
#
# Convention : Reuss Voigt Hill
#
# Bulk Modulus (GPa) = 186.98739 196.73440 191.86090
# Shear Modulus (GPa) = 56.01469 66.55599 61.28534
#
# Velocity S-wave (km/s) = 4.30640 4.69415 4.50445
# Velocity P-wave (km/s) = 9.30771 9.72182 9.51702
#
# Compressibility (1/GPa) = 0.00534795
#
# Stress axis : x y z
#
# Youngs Moduli (GPa) = 253.18202 174.27422 171.08446
#
# Poissons Ratio (x) = 0.02990 0.37960
# Poissons Ratio (y) = 0.04344 0.46228
# Poissons Ratio (z) = 0.56176 0.47090
#
# Static dielectric constant tensor:
#      x y z
#    x 2.699640 0.000000 0.000000 
#    y 0.000000 2.503380 0.000000 
#    z 0.000000 0.000000 2.462250 
# 
# From -- ./inp_files/5390.got.cif
#   From: 2010.05.17/outbox.cif.g08.bks.cpg/sg68_3_cif.got.tgz:5390.got - 2010.06.03 18:57:09.
