data_PCOD9510084
_publ_section_title
;
Structure prediction by ZEFSAII (Michael W. Deem and Ramdas Pophale) SiO2 
 PCOD9510084
Probable space group: C C C A
;
_chemical_formula_sum "Si O2"
_cell_formula_units_Z 88
_cell_length_a 13.951597
_cell_length_b 13.803705
_cell_length_c 22.178855
_cell_angle_alpha 90.000000
_cell_angle_beta 90.000000
_cell_angle_gamma 90.000000
_cell_volume 4271.286607
_symmetry_space_group_name_H-M "C C C A"
_symmetry_group_IT_number 68
_space_group.IT_coordinate_system_code '2'
_symmetry_cell_setting 'orthorhombic'
loop_
_space_group_symop_operation_xyz
x,y,z
-x,1/2-y,z
x,1/2-y,1/2-z
-x,y,1/2-z
-x,-y,-z
x,1/2+y,-z
-x,1/2+y,1/2+z
x,-y,1/2+z
1/2+x,1/2+y,z
1/2-x,-y,z
1/2+x,-y,1/2-z
1/2-x,1/2+y,1/2-z
1/2-x,1/2-y,-z
1/2+x,y,-z
1/2-x,y,1/2+z
1/2+x,1/2-y,1/2+z
loop_
_atom_site_type_symbol
_atom_site_label
_atom_site_fract_x
_atom_site_fract_y
_atom_site_fract_z
Si Si1 0.008982 0.103434 0.842077
Si Si2 0.000000 0.750000 0.750000
Si Si3 0.117778 0.082313 0.304580
Si Si4 0.250000 0.500000 0.301629
Si Si5 0.208529 0.648681 0.109770
Si Si6 0.500000 0.750000 0.750000
Si Si7 0.330274 0.367706 0.408826
Si Si8 0.250000 0.000000 0.987557
O O1 0.115574 0.146259 0.847630
O O2 0.953318 0.170042 0.793504
O O3 0.944783 0.122150 0.900175
O O4 0.035587 0.993465 0.825863
O O5 0.066380 0.681612 0.710508
O O6 0.199955 0.107602 0.353604
O O7 0.169203 0.039928 0.244467
O O8 0.286299 0.418809 0.348833
O O9 0.211734 0.759291 0.087621
O O10 0.191562 0.572269 0.056006
O O11 0.306154 0.429008 0.467904
#
# Coordination Sequence:
#
# PCOD9510084 Si02
#       8
#    16   4  16   8  16   4  16   8
#     4  12  23  40  66 102 132 171 219 272 334 403
#     4  12  26  38  64 100 138 176 226 256 334 424
#     4  12  24  43  67  97 143 179 209 276 343 407
#     4  11  21  42  64 102 139 177 210 268 350 407
#     4  12  23  46  67  95 131 180 224 275 346 397
#     4  12  22  34  68 100 140 158 210 272 324 406
#     4  11  25  40  70  97 129 172 235 278 330 404
#     4  11  25  48  68  88 131 179 226 294 336 391
#
# _framework density 20.602689999999999
#
# number of rings (size 3 to 8) (size 9 to 14) (size 15 to 20)
#    0.000    0.364    5.455    4.364    0.000    2.909 
#    0.000    0.000    0.000    0.000    0.000    0.000 
#    0.000    0.000    0.000    0.000    0.000    0.000 
#
# Total GULP energy -245343.230559 kJ/mol
# GULP energy per Si atom -5575.982513 kJ/mol
# Density = 2.055580 g / cm^3
# Si number density = 20.602690 Si / 1000 Ang^3
#
#
#
# Elastic Constant Matrix: (Units=GPa)
#
#
# Indices 1 2 3 4 5 6 
#
# 1 72.5004 41.5725 30.1062 0.0000 0.0000 0.0000
# 2 41.5725 191.3445 60.1349 0.0000 0.0000 0.0000
# 3 30.1062 60.1349 91.1368 0.0000 0.0000 0.0000
# 4 0.0000 0.0000 0.0000 38.2337 0.0000 0.0000
# 5 0.0000 0.0000 0.0000 0.0000 -4.7079 0.0000
# 6 0.0000 0.0000 0.0000 0.0000 0.0000 30.7410
#
#
#
# Elastic Compliance Matrix: (Units=1/GPa)
#
#
# Indices 1 2 3 4 5 6 
#
# 1 0.016821 -0.002408 -0.003968 0.000000 0.000000 0.000000
# 2 -0.002408 0.006938 -0.003783 0.000000 0.000000 0.000000
# 3 -0.003968 -0.003783 0.014779 0.000000 0.000000 0.000000
# 4 0.000000 0.000000 0.000000 0.026155 0.000000 0.000000
# 5 0.000000 0.000000 0.000000 0.000000 -0.212409 0.000000
# 6 0.000000 0.000000 0.000000 0.000000 0.000000 0.032530
#
#
# Mechanical properties :
#
#
# Convention : Reuss Voigt Hill
#
# Bulk Modulus (GPa) = 54.87902 68.73433 61.80667
# Shear Modulus (GPa) = -56.30985 27.73124 -14.28931
#
# Velocity S-wave (km/s) = -5.23361 3.67277 -2.63642
# Velocity P-wave (km/s) = 3.13468 7.17077 4.56036
#
# Compressibility (1/GPa) = 0.01822190
#
# Stress axis : x y z
#
# Youngs Moduli (GPa) = 59.44809 144.13283 67.66240
#
# Poissons Ratio (x) = 0.34701 0.26850
# Poissons Ratio (y) = 0.14313 0.25594
# Poissons Ratio (z) = 0.23590 0.54520
#
# Static dielectric constant tensor:
#      x y z
#    x 1.794190 0.000000 0.000000 
#    y 0.000000 1.786220 0.000000 
#    z 0.000000 0.000000 1.771860 
# 
# From -- ./inp_files/38529.got.cif
#   From: 2010.05.17/outbox.cif.g08.bks.cpg/sg68_20_cif.got.tgz:38529.got - 2010.06.03 18:57:09.
