data_PCOD9510796
_publ_section_title
;
Structure prediction by ZEFSAII (Michael W. Deem and Ramdas Pophale) SiO2 
 PCOD9510796
Probable space group: C C C A
;
_chemical_formula_sum "Si O2"
_cell_formula_units_Z 64
_cell_length_a 13.998113
_cell_length_b 10.104271
_cell_length_c 21.274171
_cell_angle_alpha 90.000000
_cell_angle_beta 90.000000
_cell_angle_gamma 90.000000
_cell_volume 3009.034218
_symmetry_space_group_name_H-M "C C C A"
_symmetry_group_IT_number 68
_space_group.IT_coordinate_system_code '2'
_symmetry_cell_setting 'orthorhombic'
loop_
_space_group_symop_operation_xyz
x,y,z
-x,1/2-y,z
x,1/2-y,1/2-z
-x,y,1/2-z
-x,-y,-z
x,1/2+y,-z
-x,1/2+y,1/2+z
x,-y,1/2+z
1/2+x,1/2+y,z
1/2-x,-y,z
1/2+x,-y,1/2-z
1/2-x,1/2+y,1/2-z
1/2-x,1/2-y,-z
1/2+x,y,-z
1/2-x,y,1/2+z
1/2+x,1/2-y,1/2+z
loop_
_atom_site_type_symbol
_atom_site_label
_atom_site_fract_x
_atom_site_fract_y
_atom_site_fract_z
Si Si1 0.562854 0.380610 0.616613
Si Si2 0.434780 0.363286 0.122676
Si Si3 0.184200 0.622346 0.003622
Si Si4 0.152225 0.750000 0.250000
Si Si5 0.250000 0.500000 0.813173
O O1 0.500000 0.250000 0.634572
O O2 0.494444 0.504070 0.629401
O O3 0.594981 0.367898 0.543820
O O4 0.663070 0.425858 0.649582
O O5 0.500000 0.250000 0.091429
O O6 0.349417 0.392192 0.075164
O O7 0.403556 0.302198 0.188896
O O8 0.250000 0.500000 0.984601
O O9 0.250000 0.750000 0.000000
O O10 0.208601 0.620543 0.272630
#
# Coordination Sequence:
#
# PCOD9510796 Si02
#       5
#    16  16  16   8   8
#     4  12  26  48  76 112 147 193 250 312 381 451
#     4  12  25  47  72 103 150 193 248 303 372 444
#     4  12  24  44  75 111 147 187 244 309 377 445
#     4  12  29  50  73 104 148 204 245 312 370 447
#     4  12  28  50  74 108 150 194 262 308 376 456
#
# _framework density 21.269282
#
# number of rings (size 3 to 8) (size 9 to 14) (size 15 to 20)
#    0.000    0.000    3.750    6.375    5.250    0.000 
#    0.000    0.000    0.000    0.000    0.000    0.000 
#    0.000    0.000    0.000    0.000    0.000    0.000 
#
# Total GULP energy -178785.272013 kJ/mol
# GULP energy per Si atom -5587.039750 kJ/mol
# Density = 2.122087 g / cm^3
# Si number density = 21.269282 Si / 1000 Ang^3
#
#
#
# Elastic Constant Matrix: (Units=GPa)
#
#
# Indices 1 2 3 4 5 6 
#
# 1 120.5126 75.0868 57.3843 0.0000 0.0000 0.0000
# 2 75.0868 201.1849 28.1634 0.0000 0.0000 0.0000
# 3 57.3843 28.1634 94.1653 0.0000 0.0000 0.0000
# 4 0.0000 0.0000 0.0000 49.8102 0.0000 0.0000
# 5 0.0000 0.0000 0.0000 0.0000 66.7993 0.0000
# 6 0.0000 0.0000 0.0000 0.0000 0.0000 39.3943
#
#
#
# Elastic Compliance Matrix: (Units=1/GPa)
#
#
# Indices 1 2 3 4 5 6 
#
# 1 0.014676 -0.004410 -0.007625 0.000000 0.000000 0.000000
# 2 -0.004410 0.006513 0.000740 0.000000 0.000000 0.000000
# 3 -0.007625 0.000740 0.015045 0.000000 0.000000 0.000000
# 4 0.000000 0.000000 0.000000 0.020076 0.000000 0.000000
# 5 0.000000 0.000000 0.000000 0.000000 0.014970 0.000000
# 6 0.000000 0.000000 0.000000 0.000000 0.000000 0.025384
#
#
# Mechanical properties :
#
#
# Convention : Reuss Voigt Hill
#
# Bulk Modulus (GPa) = 73.29405 81.90354 77.59880
# Shear Modulus (GPa) = 40.38653 48.21597 44.30125
#
# Velocity S-wave (km/s) = 4.36227 4.76639 4.56880
# Velocity P-wave (km/s) = 7.73999 8.29957 8.02466
#
# Compressibility (1/GPa) = 0.01364367
#
# Stress axis : x y z
#
# Youngs Moduli (GPa) = 68.13669 153.53912 66.46755
#
# Poissons Ratio (x) = 0.67714 0.50680
# Poissons Ratio (y) = 0.30050 -0.04916
# Poissons Ratio (z) = 0.51953 -0.11356
#
# Static dielectric constant tensor:
#      x y z
#    x 1.798380 0.000000 0.000000 
#    y 0.000000 1.724190 0.000000 
#    z 0.000000 0.000000 1.839450 
# 
# From -- ./inp_files/42779.got.cif
#   From: 2010.05.17/outbox.cif.g08.bks.cpg/sg68_22_cif.got.tgz:42779.got - 2010.06.03 18:57:09.
