data_PCOD9510598
_publ_section_title
;
Structure prediction by ZEFSAII (Michael W. Deem and Ramdas Pophale) SiO2 
 PCOD9510598
Probable space group: C C C A
;
_chemical_formula_sum "Si O2"
_cell_formula_units_Z 84
_cell_length_a 10.737449
_cell_length_b 17.196332
_cell_length_c 20.314711
_cell_angle_alpha 90.000000
_cell_angle_beta 90.000000
_cell_angle_gamma 90.000000
_cell_volume 3751.004487
_symmetry_space_group_name_H-M "C C C A"
_symmetry_group_IT_number 68
_space_group.IT_coordinate_system_code '2'
_symmetry_cell_setting 'orthorhombic'
loop_
_space_group_symop_operation_xyz
x,y,z
-x,1/2-y,z
x,1/2-y,1/2-z
-x,y,1/2-z
-x,-y,-z
x,1/2+y,-z
-x,1/2+y,1/2+z
x,-y,1/2+z
1/2+x,1/2+y,z
1/2-x,-y,z
1/2+x,-y,1/2-z
1/2-x,1/2+y,1/2-z
1/2-x,1/2-y,-z
1/2+x,y,-z
1/2-x,y,1/2+z
1/2+x,1/2-y,1/2+z
loop_
_atom_site_type_symbol
_atom_site_label
_atom_site_fract_x
_atom_site_fract_y
_atom_site_fract_z
Si Si1 0.660654 0.356368 0.845728
Si Si2 0.145634 0.343375 0.758199
Si Si3 0.500000 0.250000 0.750000
Si Si4 0.355261 0.270007 0.947585
Si Si5 0.118878 0.452444 0.025063
Si Si6 0.730063 0.592054 0.601263
O O1 0.772760 0.384042 0.799066
O O2 0.566567 0.312553 0.797137
O O3 0.698149 0.282698 0.889129
O O4 0.612822 0.416044 0.901640
O O5 0.165352 0.250000 0.750000
O O6 0.186385 0.372369 0.829965
O O7 0.000000 0.359131 0.750000
O O8 0.500000 0.250000 0.961560
O O9 0.348722 0.359152 0.923852
O O10 0.250000 0.250000 0.000000
O O11 0.250000 0.500000 0.026582
O O12 0.138139 0.396560 0.961345
O O13 0.000000 0.500000 0.000000
O O14 0.750000 0.500000 0.610550
#
# Coordination Sequence:
#
# PCOD9510598 Si02
#       6
#    16  16   4  16  16  16
#     4  12  25  47  79 107 157 204 274 321 403 493
#     4  11  25  47  76 115 157 207 267 326 399 495
#     4  12  24  44  78 116 152 196 278 324 404 484
#     4  12  26  45  76 115 147 207 270 329 400 482
#     4  11  29  49  77 115 160 211 271 337 419 485
#     4  11  26  49  75 112 163 202 264 337 411 480
#
# _framework density 22.394002
#
# number of rings (size 3 to 8) (size 9 to 14) (size 15 to 20)
#    0.000    0.571    5.714    0.000    8.000    2.286 
#    0.000    1.905    0.000    0.000    0.000    0.000 
#    0.000    0.000    0.000    0.000    0.000    0.000 
#
# Total GULP energy -234132.248074 kJ/mol
# GULP energy per Si atom -5574.577335 kJ/mol
# Density = 2.234303 g / cm^3
# Si number density = 22.394002 Si / 1000 Ang^3
#
#
#
# Elastic Constant Matrix: (Units=GPa)
#
#
# Indices 1 2 3 4 5 6 
#
# 1 167.2744 73.2203 111.0650 0.0000 0.0000 0.0000
# 2 73.2203 123.9837 65.4764 0.0000 0.0000 0.0000
# 3 111.0650 65.4764 242.5434 0.0000 0.0000 0.0000
# 4 0.0000 0.0000 0.0000 51.1618 0.0000 0.0000
# 5 0.0000 0.0000 0.0000 0.0000 12.1005 0.0000
# 6 0.0000 0.0000 0.0000 0.0000 0.0000 31.2635
#
#
#
# Elastic Compliance Matrix: (Units=1/GPa)
#
#
# Indices 1 2 3 4 5 6 
#
# 1 0.010118 -0.004115 -0.003522 0.000000 0.000000 0.000000
# 2 -0.004115 0.011080 -0.001107 0.000000 0.000000 0.000000
# 3 -0.003522 -0.001107 0.006035 0.000000 0.000000 0.000000
# 4 0.000000 0.000000 0.000000 0.019546 0.000000 0.000000
# 5 0.000000 0.000000 0.000000 0.000000 0.082641 0.000000
# 6 0.000000 0.000000 0.000000 0.000000 0.000000 0.031986
#
#
# Mechanical properties :
#
#
# Convention : Reuss Voigt Hill
#
# Bulk Modulus (GPa) = 102.62196 114.81388 108.71792
# Shear Modulus (GPa) = 27.45080 37.84114 32.64597
#
# Velocity S-wave (km/s) = 3.50496 4.11516 3.82226
# Velocity P-wave (km/s) = 7.89334 8.60004 8.25425
#
# Compressibility (1/GPa) = 0.00974450
#
# Stress axis : x y z
#
# Youngs Moduli (GPa) = 98.83019 90.24919 165.70751
#
# Poissons Ratio (x) = 0.37141 0.58369
# Poissons Ratio (y) = 0.40672 0.18340
# Poissons Ratio (z) = 0.34812 0.09988
#
# Static dielectric constant tensor:
#      x y z
#    x 1.936310 0.000000 0.000000 
#    y 0.000000 1.945730 0.000000 
#    z 0.000000 0.000000 1.697660 
# 
# From -- ./inp_files/29589.got.cif
#   From: 2010.05.17/outbox.cif.g08.bks.cpg/sg68_15_cif.got.tgz:29589.got - 2010.06.03 18:57:09.
