data_PCOD9510469
_publ_section_title
;
Structure prediction by ZEFSAII (Michael W. Deem and Ramdas Pophale) SiO2 
 PCOD9510469
Probable space group: C C C A
;
_chemical_formula_sum "Si O2"
_cell_formula_units_Z 88
_cell_length_a 8.446943
_cell_length_b 31.863695
_cell_length_c 16.954424
_cell_angle_alpha 90.000000
_cell_angle_beta 90.000000
_cell_angle_gamma 90.000000
_cell_volume 4563.297045
_symmetry_space_group_name_H-M "C C C A"
_symmetry_group_IT_number 68
_space_group.IT_coordinate_system_code '2'
_symmetry_cell_setting 'orthorhombic'
loop_
_space_group_symop_operation_xyz
x,y,z
-x,1/2-y,z
x,1/2-y,1/2-z
-x,y,1/2-z
-x,-y,-z
x,1/2+y,-z
-x,1/2+y,1/2+z
x,-y,1/2+z
1/2+x,1/2+y,z
1/2-x,-y,z
1/2+x,-y,1/2-z
1/2-x,1/2+y,1/2-z
1/2-x,1/2-y,-z
1/2+x,y,-z
1/2-x,y,1/2+z
1/2+x,1/2-y,1/2+z
loop_
_atom_site_type_symbol
_atom_site_label
_atom_site_fract_x
_atom_site_fract_y
_atom_site_fract_z
Si Si1 0.557761 0.141974 0.457159
Si Si2 0.828261 0.919211 0.950771
Si Si3 0.650341 0.778269 0.062534
Si Si4 0.750000 0.000000 0.556845
Si Si5 0.426302 0.793247 0.836444
Si Si6 0.062871 0.015744 0.161089
O O1 0.698087 0.113799 0.424093
O O2 0.442069 0.108356 0.495571
O O3 0.612222 0.177383 0.520164
O O4 0.477721 0.167800 0.388176
O O5 0.918997 0.938399 0.876658
O O6 0.756375 0.958414 0.001268
O O7 0.500000 0.750000 0.079384
O O8 0.742734 0.787096 0.143972
O O9 0.750000 0.750000 0.000000
O O10 0.584659 0.997569 0.607310
O O11 0.500000 0.750000 0.869032
O O12 0.500000 0.797477 0.750000
O O13 0.000000 0.013633 0.250000
O O14 0.250000 0.000000 0.158790
#
# Coordination Sequence:
#
# PCOD9510469 Si02
#       6
#    16  16  16   8  16  16
#     4  12  22  40  71 100 132 177 233 288 342 416
#     4  12  24  43  70  99 135 179 241 290 340 424
#     4  12  20  40  74 100 133 181 230 280 346 431
#     4  12  24  48  74  98 134 194 238 286 354 426
#     4  11  24  44  67  98 143 180 223 284 353 415
#     4  12  25  46  71 101 139 183 237 297 363 425
#
# _framework density 19.284303000000001
#
# number of rings (size 3 to 8) (size 9 to 14) (size 15 to 20)
#    0.000    0.182    9.091    1.636    0.000    0.000 
#    6.545    1.818    0.000    0.000    0.000    0.000 
#    0.000    0.000    0.000    0.000    0.000    0.000 
#
# Total GULP energy -245204.995931 kJ/mol
# GULP energy per Si atom -5572.840817 kJ/mol
# Density = 1.924041 g / cm^3
# Si number density = 19.284303 Si / 1000 Ang^3
#
#
#
# Elastic Constant Matrix: (Units=GPa)
#
#
# Indices 1 2 3 4 5 6 
#
# 1 126.7519 38.3368 49.0230 0.0000 0.0000 0.0000
# 2 38.3368 117.1644 31.5289 0.0000 0.0000 0.0000
# 3 49.0230 31.5289 94.9673 0.0000 0.0000 0.0000
# 4 0.0000 0.0000 0.0000 27.0502 0.0000 0.0000
# 5 0.0000 0.0000 0.0000 0.0000 29.0045 0.0000
# 6 0.0000 0.0000 0.0000 0.0000 0.0000 48.6880
#
#
#
# Elastic Compliance Matrix: (Units=1/GPa)
#
#
# Indices 1 2 3 4 5 6 
#
# 1 0.010322 -0.002134 -0.004620 0.000000 0.000000 0.000000
# 2 -0.002134 0.009814 -0.002156 0.000000 0.000000 0.000000
# 3 -0.004620 -0.002156 0.013631 0.000000 0.000000 0.000000
# 4 0.000000 0.000000 0.000000 0.036968 0.000000 0.000000
# 5 0.000000 0.000000 0.000000 0.000000 0.034477 0.000000
# 6 0.000000 0.000000 0.000000 0.000000 0.000000 0.020539
#
#
# Mechanical properties :
#
#
# Convention : Reuss Voigt Hill
#
# Bulk Modulus (GPa) = 62.71384 64.07345 63.39365
# Shear Modulus (GPa) = 33.58276 35.61485 34.59881
#
# Velocity S-wave (km/s) = 4.17760 4.30214 4.24033
# Velocity P-wave (km/s) = 7.47403 7.61418 7.54443
#
# Compressibility (1/GPa) = 0.01594544
#
# Stress axis : x y z
#
# Youngs Moduli (GPa) = 96.88421 101.89919 73.36473
#
# Poissons Ratio (x) = 0.21747 0.33891
# Poissons Ratio (y) = 0.20677 0.15821
# Poissons Ratio (z) = 0.44756 0.21974
#
# Static dielectric constant tensor:
#      x y z
#    x 1.954790 0.000000 0.000000 
#    y 0.000000 1.647860 0.000000 
#    z 0.000000 0.000000 1.666030 
# 
# From -- ./inp_files/28535.got.cif
#   From: 2010.05.17/outbox.cif.g08.bks.cpg/sg68_15_cif.got.tgz:28535.got - 2010.06.03 18:57:09.
