data_PCOD9510278
_publ_section_title
;
Structure prediction by ZEFSAII (Michael W. Deem and Ramdas Pophale) SiO2 
 PCOD9510278
Probable space group: C C C A
;
_chemical_formula_sum "Si O2"
_cell_formula_units_Z 56
_cell_length_a 9.230366
_cell_length_b 13.045417
_cell_length_c 22.050327
_cell_angle_alpha 90.000000
_cell_angle_beta 90.000000
_cell_angle_gamma 90.000000
_cell_volume 2655.167492
_symmetry_space_group_name_H-M "C C C A"
_symmetry_group_IT_number 68
_space_group.IT_coordinate_system_code '2'
_symmetry_cell_setting 'orthorhombic'
loop_
_space_group_symop_operation_xyz
x,y,z
-x,1/2-y,z
x,1/2-y,1/2-z
-x,y,1/2-z
-x,-y,-z
x,1/2+y,-z
-x,1/2+y,1/2+z
x,-y,1/2+z
1/2+x,1/2+y,z
1/2-x,-y,z
1/2+x,-y,1/2-z
1/2-x,1/2+y,1/2-z
1/2-x,1/2-y,-z
1/2+x,y,-z
1/2-x,y,1/2+z
1/2+x,1/2-y,1/2+z
loop_
_atom_site_type_symbol
_atom_site_label
_atom_site_fract_x
_atom_site_fract_y
_atom_site_fract_z
Si Si1 0.738316 0.686461 0.565404
Si Si2 0.968760 0.004475 0.430131
Si Si3 0.750000 0.500000 0.349567
Si Si4 0.334662 0.290424 0.187677
O O1 0.750000 0.750000 0.500000
O O2 0.865127 0.603172 0.574831
O O3 0.601136 0.609449 0.577520
O O4 0.735113 0.761248 0.622967
O O5 0.113056 0.023578 0.392393
O O6 0.000000 0.000000 0.500000
O O7 0.685335 0.411015 0.308551
O O8 0.500000 0.250000 0.186331
O O9 0.266308 0.250000 0.250000
#
# Coordination Sequence:
#
# PCOD9510278 Si02
#       4
#    16  16   8  16
#     4  11  24  43  69 101 143 183 238 290 357 421
#     4  11  23  40  66 104 141 186 232 294 354 426
#     4  12  24  44  72 104 138 184 248 284 354 436
#     4  11  25  48  72 103 144 189 232 292 367 418
#
# _framework density 21.090947
#
# number of rings (size 3 to 8) (size 9 to 14) (size 15 to 20)
#    0.000    0.857    2.857    5.143    0.000    5.714 
#    0.000    2.857    0.000    0.000    0.000    0.000 
#    0.000    0.000    0.000    0.000    0.000    0.000 
#
# Total GULP energy -155928.104081 kJ/mol
# GULP energy per Si atom -5568.860860 kJ/mol
# Density = 2.104294 g / cm^3
# Si number density = 21.090947 Si / 1000 Ang^3
#
#
#
# Elastic Constant Matrix: (Units=GPa)
#
#
# Indices 1 2 3 4 5 6 
#
# 1 77.4458 39.7055 17.8235 0.0000 0.0000 0.0000
# 2 39.7055 132.1545 39.0180 0.0000 0.0000 0.0000
# 3 17.8235 39.0180 130.2546 0.0000 0.0000 0.0000
# 4 0.0000 0.0000 0.0000 17.7356 0.0000 0.0000
# 5 0.0000 0.0000 0.0000 0.0000 14.5448 0.0000
# 6 0.0000 0.0000 0.0000 0.0000 0.0000 24.6884
#
#
#
# Elastic Compliance Matrix: (Units=1/GPa)
#
#
# Indices 1 2 3 4 5 6 
#
# 1 0.015337 -0.004375 -0.000788 0.000000 0.000000 0.000000
# 2 -0.004375 0.009549 -0.002262 0.000000 0.000000 0.000000
# 3 -0.000788 -0.002262 0.008463 0.000000 0.000000 0.000000
# 4 0.000000 0.000000 0.000000 0.056384 0.000000 0.000000
# 5 0.000000 0.000000 0.000000 0.000000 0.068753 0.000000
# 6 0.000000 0.000000 0.000000 0.000000 0.000000 0.040505
#
#
# Mechanical properties :
#
#
# Convention : Reuss Voigt Hill
#
# Bulk Modulus (GPa) = 54.05841 59.21655 56.63748
# Shear Modulus (GPa) = 22.72661 27.61429 25.17045
#
# Velocity S-wave (km/s) = 3.28617 3.62235 3.45835
# Velocity P-wave (km/s) = 6.33130 6.75521 6.54669
#
# Compressibility (1/GPa) = 0.01849851
#
# Stress axis : x y z
#
# Youngs Moduli (GPa) = 65.20294 104.72070 118.16667
#
# Poissons Ratio (x) = 0.45818 0.09312
# Poissons Ratio (y) = 0.28528 0.26727
# Poissons Ratio (z) = 0.05138 0.23686
#
# Static dielectric constant tensor:
#      x y z
#    x 1.799220 0.000000 0.000000 
#    y 0.000000 1.921460 0.000000 
#    z 0.000000 0.000000 1.745040 
# 
# From -- ./inp_files/48735.got.cif
#   From: 2010.05.17/outbox.cif.g08.bks.cpg/sg68_25_cif.got.tgz:48735.got - 2010.06.03 18:57:09.
