data_PCOD9510923
_publ_section_title
;
Structure prediction by ZEFSAII (Michael W. Deem and Ramdas Pophale) SiO2 
 PCOD9510923
Probable space group: C C C A
;
_chemical_formula_sum "Si O2"
_cell_formula_units_Z 56
_cell_length_a 24.000000
_cell_length_b 21.000000
_cell_length_c 12.000000
_cell_angle_alpha 90.000000
_cell_angle_beta 90.000000
_cell_angle_gamma 90.000000
_cell_volume 6048.000000
_symmetry_space_group_name_H-M "C C C A"
_symmetry_group_IT_number 68
_space_group.IT_coordinate_system_code '2'
_symmetry_cell_setting 'orthorhombic'
loop_
_space_group_symop_operation_xyz
x,y,z
-x,1/2-y,z
x,1/2-y,1/2-z
-x,y,1/2-z
-x,-y,-z
x,1/2+y,-z
-x,1/2+y,1/2+z
x,-y,1/2+z
1/2+x,1/2+y,z
1/2-x,-y,z
1/2+x,-y,1/2-z
1/2-x,1/2+y,1/2-z
1/2-x,1/2-y,-z
1/2+x,y,-z
1/2-x,y,1/2+z
1/2+x,1/2-y,1/2+z
loop_
_atom_site_type_symbol
_atom_site_label
_atom_site_fract_x
_atom_site_fract_y
_atom_site_fract_z
Si Si1 0.940516 0.461752 0.390266
Si Si2 0.839029 0.079895 0.955528
Si Si3 0.864698 0.951512 0.824473
Si Si4 0.233896 0.074491 0.328208
Si Si5 0.452803 0.904100 0.012414
Si Si6 0.174661 0.672667 0.257939
Si Si7 0.948092 0.179944 0.687220
O O1 0.896267 0.428983 0.475094
O O2 0.911018 0.465324 0.270545
O O3 0.952543 0.534275 0.429651
O O4 0.996201 0.420004 0.404348
O O5 0.831693 0.143580 0.882539
O O6 0.840905 0.017439 0.876011
O O7 0.790505 0.078722 0.047284
O O8 0.815200 0.915458 0.761745
O O9 0.895262 0.910931 0.919916
O O10 0.280398 0.127529 0.303335
O O11 0.250000 0.000000 0.314786
O O12 0.459006 0.838744 0.942099
O O13 0.184632 0.750000 0.250000
O O14 0.114338 0.657032 0.205986
O O15 0.946063 0.250000 0.750000
O O16 0.000000 0.147401 0.750000
#
# Coordination Sequence:
#
# PCOD9510923 Si02
#       7
#    16  16  16  16  16  16  16
#     4   9  19  33  54  93 125 157 198 260 330 387
#     4  10  21  36  59  86 123 164 208 257 326 384
#     4  10  20  36  57  91 124 162 207 263 325 389
#     4  11  24  38  61  88 122 170 218 268 323 386
#     4  10  19  32  60  88 124 163 198 262 325 380
#     4  11  24  41  62  89 123 165 217 273 322 391
#     4  10  22  40  62  90 123 165 212 260 316 391
#
# _framework density 9.2592590000000001
#
# number of rings (size 3 to 8) (size 9 to 14) (size 15 to 20)
#    0.000    1.857    1.429    2.143    6.000    2.857 
#    0.000    1.429    0.000    0.000    0.000   20.000 
#    0.000    0.000    0.000    0.000    0.000    0.000 
#
# Total GULP energy -311975.678306 kJ/mol
# GULP energy per Si atom -5570.994255 kJ/mol
# Density = 0.923818 g / cm^3
# Si number density = 9.259259 Si / 1000 Ang^3
#
#
#
# Elastic Constant Matrix: (Units=GPa)
#
#
# Indices 1 2 3 4 5 6 
#
# 1 119.7384 39.5881 39.7478 0.0000 0.0000 0.0000
# 2 39.5881 90.0468 41.0045 0.0000 0.0000 0.0000
# 3 39.7478 41.0045 96.1592 0.0000 0.0000 0.0000
# 4 0.0000 0.0000 0.0000 31.9607 0.0000 0.0000
# 5 0.0000 0.0000 0.0000 0.0000 28.3269 0.0000
# 6 0.0000 0.0000 0.0000 0.0000 0.0000 22.1550
#
#
#
# Elastic Compliance Matrix: (Units=1/GPa)
#
#
# Indices 1 2 3 4 5 6 
#
# 1 0.010390 -0.003242 -0.002912 0.000000 0.000000 0.000000
# 2 -0.003242 0.014793 -0.004968 0.000000 0.000000 0.000000
# 3 -0.002912 -0.004968 0.013722 0.000000 0.000000 0.000000
# 4 0.000000 0.000000 0.000000 0.031288 0.000000 0.000000
# 5 0.000000 0.000000 0.000000 0.000000 0.035302 0.000000
# 6 0.000000 0.000000 0.000000 0.000000 0.000000 0.045137
#
#
# Mechanical properties :
#
#
# Convention : Reuss Voigt Hill
#
# Bulk Modulus (GPa) = 60.02272 60.73612 60.37942
# Shear Modulus (GPa) = 28.02225 28.86211 28.44218
#
# Velocity S-wave (km/s) = 3.89421 3.95214 3.92328
# Velocity P-wave (km/s) = 7.25965 7.32766 7.29373
#
# Compressibility (1/GPa) = 0.01666036
#
# Stress axis : x y z
#
# Youngs Moduli (GPa) = 96.24538 67.60050 72.87671
#
# Poissons Ratio (x) = 0.21914 0.21225
# Poissons Ratio (y) = 0.31199 0.36206
# Poissons Ratio (z) = 0.28031 0.33584
#
# Static dielectric constant tensor:
#      x y z
#    x 1.686010 0.000000 0.000000 
#    y 0.000000 1.637290 0.000000 
#    z 0.000000 0.000000 1.678280 
# 
# From -- ./inp_files/16576.got.cif
#   From: 2010.05.17/outbox.ucp.g08.bks.cvg/sg68_9_cif.got.tgz:16576.got - 2010.06.11 16:49:25.
