data_PCOD9510437
_publ_section_title
;
Structure prediction by ZEFSAII (Michael W. Deem and Ramdas Pophale) SiO2 
 PCOD9510437
Probable space group: C C C A
;
_chemical_formula_sum "Si O2"
_cell_formula_units_Z 48
_cell_length_a 17.321594
_cell_length_b 12.296455
_cell_length_c 10.694329
_cell_angle_alpha 90.000000
_cell_angle_beta 90.000000
_cell_angle_gamma 90.000000
_cell_volume 2277.830062
_symmetry_space_group_name_H-M "C C C A"
_symmetry_group_IT_number 68
_space_group.IT_coordinate_system_code '2'
_symmetry_cell_setting 'orthorhombic'
loop_
_space_group_symop_operation_xyz
x,y,z
-x,1/2-y,z
x,1/2-y,1/2-z
-x,y,1/2-z
-x,-y,-z
x,1/2+y,-z
-x,1/2+y,1/2+z
x,-y,1/2+z
1/2+x,1/2+y,z
1/2-x,-y,z
1/2+x,-y,1/2-z
1/2-x,1/2+y,1/2-z
1/2-x,1/2-y,-z
1/2+x,y,-z
1/2-x,y,1/2+z
1/2+x,1/2-y,1/2+z
loop_
_atom_site_type_symbol
_atom_site_label
_atom_site_fract_x
_atom_site_fract_y
_atom_site_fract_z
Si Si1 0.672501 0.933156 0.707653
Si Si2 0.666348 0.221782 0.443506
Si Si3 0.583702 0.351064 0.814883
O O1 0.643839 0.838692 0.614490
O O2 0.681293 0.868767 0.837477
O O3 0.750000 0.000000 0.669699
O O4 0.613510 0.030765 0.716754
O O5 0.750000 0.250000 0.500000
O O6 0.602591 0.175715 0.540367
O O7 0.628457 0.250000 0.750000
O O8 0.500000 0.350020 0.750000
#
# Coordination Sequence:
#
# PCOD9510437 Si02
#       3
#    16  16  16
#     4  11  24  42  72 106 140 188 243 302 366 427
#     4  11  24  43  70 105 143 183 244 304 359 440
#     4  11  26  46  68 102 144 190 239 296 370 434
#
# _framework density 21.072687999999999
#
# number of rings (size 3 to 8) (size 9 to 14) (size 15 to 20)
#    0.000    1.000    3.333    2.000    9.333    1.333 
#    6.000    1.667    0.000    0.000    0.000    0.000 
#    0.000    0.000    0.000    0.000    0.000    0.000 
#
# Total GULP energy -133713.255361 kJ/mol
# GULP energy per Si atom -5571.385640 kJ/mol
# Density = 2.102473 g / cm^3
# Si number density = 21.072688 Si / 1000 Ang^3
#
#
#
# Elastic Constant Matrix: (Units=GPa)
#
#
# Indices 1 2 3 4 5 6 
#
# 1 102.0412 54.0934 35.3597 0.0000 0.0000 0.0000
# 2 54.0934 222.7117 51.9888 0.0000 0.0000 0.0000
# 3 35.3597 51.9888 73.9072 0.0000 0.0000 0.0000
# 4 0.0000 0.0000 0.0000 19.3343 0.0000 0.0000
# 5 0.0000 0.0000 0.0000 0.0000 24.1051 0.0000
# 6 0.0000 0.0000 0.0000 0.0000 0.0000 60.8784
#
#
#
# Elastic Compliance Matrix: (Units=1/GPa)
#
#
# Indices 1 2 3 4 5 6 
#
# 1 0.012417 -0.001949 -0.004569 0.000000 0.000000 0.000000
# 2 -0.001949 0.005678 -0.003062 0.000000 0.000000 0.000000
# 3 -0.004569 -0.003062 0.017870 0.000000 0.000000 0.000000
# 4 0.000000 0.000000 0.000000 0.051722 0.000000 0.000000
# 5 0.000000 0.000000 0.000000 0.000000 0.041485 0.000000
# 6 0.000000 0.000000 0.000000 0.000000 0.000000 0.016426
#
#
# Mechanical properties :
#
#
# Convention : Reuss Voigt Hill
#
# Bulk Modulus (GPa) = 59.50744 75.72710 67.61727
# Shear Modulus (GPa) = 29.34957 38.01145 33.68051
#
# Velocity S-wave (km/s) = 3.73604 4.25175 4.00221
# Velocity P-wave (km/s) = 6.84917 7.75354 7.31534
#
# Compressibility (1/GPa) = 0.01680462
#
# Stress axis : x y z
#
# Youngs Moduli (GPa) = 80.53704 176.11075 55.95856
#
# Poissons Ratio (x) = 0.34327 0.25570
# Poissons Ratio (y) = 0.15698 0.17133
# Poissons Ratio (z) = 0.36801 0.53920
#
# Static dielectric constant tensor:
#      x y z
#    x 1.492250 0.000000 0.000000 
#    y 0.000000 1.842940 0.000000 
#    z 0.000000 0.000000 1.831800 
# 
# From -- ./inp_files/11246.got.cif
#   From: 2010.05.17/outbox.cif.g08.bks.cpg/sg68_6_cif.got.tgz:11246.got - 2010.06.03 18:57:09.
