data_PCOD9510227
_publ_section_title
;
Structure prediction by ZEFSAII (Michael W. Deem and Ramdas Pophale) SiO2 
 PCOD9510227
Probable space group: C C C A
;
_chemical_formula_sum "Si O2"
_cell_formula_units_Z 88
_cell_length_a 10.553878
_cell_length_b 27.472885
_cell_length_c 14.658439
_cell_angle_alpha 90.000000
_cell_angle_beta 90.000000
_cell_angle_gamma 90.000000
_cell_volume 4250.148082
_symmetry_space_group_name_H-M "C C C A"
_symmetry_group_IT_number 68
_space_group.IT_coordinate_system_code '2'
_symmetry_cell_setting 'orthorhombic'
loop_
_space_group_symop_operation_xyz
x,y,z
-x,1/2-y,z
x,1/2-y,1/2-z
-x,y,1/2-z
-x,-y,-z
x,1/2+y,-z
-x,1/2+y,1/2+z
x,-y,1/2+z
1/2+x,1/2+y,z
1/2-x,-y,z
1/2+x,-y,1/2-z
1/2-x,1/2+y,1/2-z
1/2-x,1/2-y,-z
1/2+x,y,-z
1/2-x,y,1/2+z
1/2+x,1/2-y,1/2+z
loop_
_atom_site_type_symbol
_atom_site_label
_atom_site_fract_x
_atom_site_fract_y
_atom_site_fract_z
Si Si1 0.689802 0.583757 0.535866
Si Si2 0.750000 0.500000 0.891056
Si Si3 0.302398 0.250000 0.750000
Si Si4 0.856214 0.060785 0.762044
Si Si5 0.858417 0.338458 0.786825
Si Si6 0.567513 0.850937 0.508087
Si Si7 0.000000 0.750000 0.592523
O O1 0.704313 0.544025 0.455105
O O2 0.676013 0.554586 0.632085
O O3 0.560994 0.616186 0.522603
O O4 0.818210 0.616880 0.536983
O O5 0.847413 0.479811 0.815702
O O6 0.218605 0.202930 0.736955
O O7 0.384360 0.259710 0.660762
O O8 0.787622 0.110434 0.732662
O O9 0.000000 0.075848 0.750000
O O10 0.873289 0.335987 0.894873
O O11 0.000000 0.332393 0.750000
O O12 0.529700 0.800045 0.460630
#
# Coordination Sequence:
#
# PCOD9510227 Si02
#       7
#    16   8   8  16  16  16   8
#     4  12  25  47  73 104 146 189 241 297 366 419
#     4  12  26  42  72 108 140 188 246 304 356 424
#     4  11  25  46  66 102 143 181 234 292 356 425
#     4  11  23  45  67  98 142 187 239 293 356 435
#     4  11  22  43  70  97 136 189 236 283 350 432
#     4  12  26  46  72 106 145 189 237 301 351 438
#     4  11  28  42  69 106 146 180 237 294 360 421
#
# _framework density 20.705159999999999
#
# number of rings (size 3 to 8) (size 9 to 14) (size 15 to 20)
#    0.000    0.545    5.455    3.000    2.545    5.818 
#    0.000    0.000    0.000    0.000    0.000    0.000 
#    0.000    0.000    0.000    0.000    0.000    0.000 
#
# Total GULP energy -245135.529818 kJ/mol
# GULP energy per Si atom -5571.262041 kJ/mol
# Density = 2.065803 g / cm^3
# Si number density = 20.705160 Si / 1000 Ang^3
#
#
#
# Elastic Constant Matrix: (Units=GPa)
#
#
# Indices 1 2 3 4 5 6 
#
# 1 87.3749 28.4773 18.1290 0.0000 0.0000 0.0000
# 2 28.4773 81.3839 17.6559 0.0000 0.0000 0.0000
# 3 18.1290 17.6559 126.3208 0.0000 0.0000 0.0000
# 4 0.0000 0.0000 0.0000 41.4641 0.0000 0.0000
# 5 0.0000 0.0000 0.0000 0.0000 -42.6011 0.0000
# 6 0.0000 0.0000 0.0000 0.0000 0.0000 13.0991
#
#
#
# Elastic Compliance Matrix: (Units=1/GPa)
#
#
# Indices 1 2 3 4 5 6 
#
# 1 0.013116 -0.004312 -0.001280 0.000000 0.000000 0.000000
# 2 -0.004312 0.014089 -0.001350 0.000000 0.000000 0.000000
# 3 -0.001280 -0.001350 0.008289 0.000000 0.000000 0.000000
# 4 0.000000 0.000000 0.000000 0.024117 0.000000 0.000000
# 5 0.000000 0.000000 0.000000 0.000000 -0.023474 0.000000
# 6 0.000000 0.000000 0.000000 0.000000 0.000000 0.076341
#
#
# Mechanical properties :
#
#
# Convention : Reuss Voigt Hill
#
# Bulk Modulus (GPa) = 46.27498 47.06709 46.67104
# Shear Modulus (GPa) = 37.43477 17.78024 27.60750
#
# Velocity S-wave (km/s) = 4.25666 2.93360 3.65549
# Velocity P-wave (km/s) = 6.82326 5.85287 6.35661
#
# Compressibility (1/GPa) = 0.02160995
#
# Stress axis : x y z
#
# Youngs Moduli (GPa) = 76.24435 70.97659 120.64540
#
# Poissons Ratio (x) = 0.30603 0.15438
# Poissons Ratio (y) = 0.32875 0.16292
# Poissons Ratio (z) = 0.09757 0.09585
#
# Static dielectric constant tensor:
#      x y z
#    x 1.446020 0.000000 0.000000 
#    y 0.000000 2.796950 0.000000 
#    z 0.000000 0.000000 1.797210 
# 
# From -- ./inp_files/21019.got.cif
#   From: 2010.05.17/outbox.cif.g08.bks.cpg/sg68_11_cif.got.tgz:21019.got - 2010.06.03 18:57:09.
