data_PCOD9510540
_publ_section_title
;
Structure prediction by ZEFSAII (Michael W. Deem and Ramdas Pophale) SiO2 
 PCOD9510540
Probable space group: C C C A
;
_chemical_formula_sum "Si O2"
_cell_formula_units_Z 64
_cell_length_a 27.724078
_cell_length_b 8.744686
_cell_length_c 11.150194
_cell_angle_alpha 90.000000
_cell_angle_beta 90.000000
_cell_angle_gamma 90.000000
_cell_volume 2703.234711
_symmetry_space_group_name_H-M "C C C A"
_symmetry_group_IT_number 68
_space_group.IT_coordinate_system_code '2'
_symmetry_cell_setting 'orthorhombic'
loop_
_space_group_symop_operation_xyz
x,y,z
-x,1/2-y,z
x,1/2-y,1/2-z
-x,y,1/2-z
-x,-y,-z
x,1/2+y,-z
-x,1/2+y,1/2+z
x,-y,1/2+z
1/2+x,1/2+y,z
1/2-x,-y,z
1/2+x,-y,1/2-z
1/2-x,1/2+y,1/2-z
1/2-x,1/2-y,-z
1/2+x,y,-z
1/2-x,y,1/2+z
1/2+x,1/2-y,1/2+z
loop_
_atom_site_type_symbol
_atom_site_label
_atom_site_fract_x
_atom_site_fract_y
_atom_site_fract_z
Si Si1 0.019282 0.921661 0.877208
Si Si2 0.250000 0.000000 0.924172
Si Si3 0.840647 0.950195 0.418702
Si Si4 0.779960 0.750000 0.250000
Si Si5 0.881096 0.247485 0.120983
O O1 0.075706 0.876436 0.864156
O O2 0.000000 0.750000 0.884278
O O3 0.000000 0.990641 0.750000
O O4 0.000000 0.000000 0.000000
O O5 0.251464 0.154504 0.845029
O O6 0.296463 0.977857 0.007313
O O7 0.815578 0.879395 0.302687
O O8 0.857003 0.811792 0.501399
O O9 0.884280 0.069530 0.400575
O O10 0.855243 0.250000 0.250000
#
# Coordination Sequence:
#
# PCOD9510540 Si02
#       5
#    16   8  16   8  16
#     4  11  24  50  77 113 152 199 250 318 398 472
#     4  12  26  48  70 106 152 200 262 312 386 456
#     4  12  27  47  70 111 147 204 257 316 385 453
#     4  12  26  46  74 104 151 204 257 316 384 452
#     4  12  26  46  76 107 153 192 257 319 379 467
#
# _framework density 23.675339999999998
#
# number of rings (size 3 to 8) (size 9 to 14) (size 15 to 20)
#    0.000    0.250    5.000    4.500    5.250    0.500 
#    0.000    0.000    0.000    0.000    0.000    0.000 
#    0.000    0.000    0.000    0.000    0.000    0.000 
#
# Total GULP energy -178359.811031 kJ/mol
# GULP energy per Si atom -5573.744095 kJ/mol
# Density = 2.362145 g / cm^3
# Si number density = 23.675340 Si / 1000 Ang^3
#
#
#
# Elastic Constant Matrix: (Units=GPa)
#
#
# Indices 1 2 3 4 5 6 
#
# 1 75.2657 10.4664 27.1753 0.0000 0.0000 0.0000
# 2 10.4664 99.7689 47.8200 0.0000 0.0000 0.0000
# 3 27.1753 47.8200 138.0154 0.0000 0.0000 0.0000
# 4 0.0000 0.0000 0.0000 46.4543 0.0000 0.0000
# 5 0.0000 0.0000 0.0000 0.0000 21.3836 0.0000
# 6 0.0000 0.0000 0.0000 0.0000 0.0000 37.0333
#
#
#
# Elastic Compliance Matrix: (Units=1/GPa)
#
#
# Indices 1 2 3 4 5 6 
#
# 1 0.014306 -0.000181 -0.002754 0.000000 0.000000 0.000000
# 2 -0.000181 0.012022 -0.004130 0.000000 0.000000 0.000000
# 3 -0.002754 -0.004130 0.009219 0.000000 0.000000 0.000000
# 4 0.000000 0.000000 0.000000 0.021527 0.000000 0.000000
# 5 0.000000 0.000000 0.000000 0.000000 0.046765 0.000000
# 6 0.000000 0.000000 0.000000 0.000000 0.000000 0.027003
#
#
# Mechanical properties :
#
#
# Convention : Reuss Voigt Hill
#
# Bulk Modulus (GPa) = 46.69199 53.77483 50.23341
# Shear Modulus (GPa) = 32.87135 36.14681 34.50908
#
# Velocity S-wave (km/s) = 3.73020 3.91163 3.82199
# Velocity P-wave (km/s) = 6.19008 6.56992 6.38283
#
# Compressibility (1/GPa) = 0.02141695
#
# Stress axis : x y z
#
# Youngs Moduli (GPa) = 69.90164 83.18427 108.47469
#
# Poissons Ratio (x) = 0.01503 0.29876
# Poissons Ratio (y) = 0.01263 0.44797
# Poissons Ratio (z) = 0.19252 0.34352
#
# Static dielectric constant tensor:
#      x y z
#    x -2.647600 0.000000 0.000000 
#    y 0.000000 1.856620 0.000000 
#    z 0.000000 0.000000 1.967320 
# 
# From -- ./inp_files/17463.got.cif
#   From: 2010.05.17/outbox.cif.g08.bks.cpg/sg68_9_cif.got.tgz:17463.got - 2010.06.03 18:57:09.
