data_PCOD9510631
_publ_section_title
;
Structure prediction by ZEFSAII (Michael W. Deem and Ramdas Pophale) SiO2 
 PCOD9510631
Probable space group: C C C A
;
_chemical_formula_sum "Si O2"
_cell_formula_units_Z 88
_cell_length_a 22.505813
_cell_length_b 14.053895
_cell_length_c 14.648735
_cell_angle_alpha 90.000000
_cell_angle_beta 90.000000
_cell_angle_gamma 90.000000
_cell_volume 4633.311863
_symmetry_space_group_name_H-M "C C C A"
_symmetry_group_IT_number 68
_space_group.IT_coordinate_system_code '2'
_symmetry_cell_setting 'orthorhombic'
loop_
_space_group_symop_operation_xyz
x,y,z
-x,1/2-y,z
x,1/2-y,1/2-z
-x,y,1/2-z
-x,-y,-z
x,1/2+y,-z
-x,1/2+y,1/2+z
x,-y,1/2+z
1/2+x,1/2+y,z
1/2-x,-y,z
1/2+x,-y,1/2-z
1/2-x,1/2+y,1/2-z
1/2-x,1/2-y,-z
1/2+x,y,-z
1/2-x,y,1/2+z
1/2+x,1/2-y,1/2+z
loop_
_atom_site_type_symbol
_atom_site_label
_atom_site_fract_x
_atom_site_fract_y
_atom_site_fract_z
Si Si1 0.929379 0.743690 0.357260
Si Si2 0.789523 0.250000 0.250000
Si Si3 0.749110 0.659014 0.436635
Si Si4 0.136790 0.417860 0.954014
Si Si5 0.182035 0.462044 0.281499
Si Si6 0.631246 0.451045 0.402713
O O1 0.914264 0.750000 0.250000
O O2 0.894990 0.825456 0.413300
O O3 0.908076 0.640814 0.386892
O O4 0.000000 0.750000 0.367964
O O5 0.754944 0.298539 0.334207
O O6 0.820866 0.153594 0.289153
O O7 0.750000 0.750000 0.500000
O O8 0.691236 0.607653 0.477501
O O9 0.806302 0.592209 0.440584
O O10 0.158188 0.482755 0.869917
O O11 0.099450 0.482264 0.023256
O O12 0.250000 0.500000 0.269757
O O13 0.146316 0.495654 0.191914
#
# Coordination Sequence:
#
# PCOD9510631 Si02
#       6
#    16   8  16  16  16  16
#     4  11  26  47  70  93 121 176 241 284 321 382
#     4  12  24  38  58  92 146 170 212 258 312 412
#     4  12  23  37  61  99 135 171 208 256 328 409
#     4  12  24  41  66  98 136 172 215 274 333 403
#     4  12  23  37  60  94 137 177 206 255 326 394
#     4  12  23  41  63  99 133 170 219 266 336 395
#
# _framework density 18.992894
#
# number of rings (size 3 to 8) (size 9 to 14) (size 15 to 20)
#    0.000    0.182    7.273    3.818    1.273    0.727 
#    0.000    0.000    0.000    0.000    0.000    2.545 
#    0.000    0.000    0.000    0.000    0.000    0.000 
#
# Total GULP energy -245590.868007 kJ/mol
# GULP energy per Si atom -5581.610637 kJ/mol
# Density = 1.894967 g / cm^3
# Si number density = 18.992894 Si / 1000 Ang^3
#
#
#
# Elastic Constant Matrix: (Units=GPa)
#
#
# Indices 1 2 3 4 5 6 
#
# 1 35.5559 21.6070 19.1647 0.0000 0.0000 0.0000
# 2 21.6070 147.6189 36.9020 0.0000 0.0000 0.0000
# 3 19.1647 36.9020 117.6126 0.0000 0.0000 0.0000
# 4 0.0000 0.0000 0.0000 51.0308 0.0000 0.0000
# 5 0.0000 0.0000 0.0000 0.0000 8.1575 0.0000
# 6 0.0000 0.0000 0.0000 0.0000 0.0000 -14.3160
#
#
#
# Elastic Compliance Matrix: (Units=1/GPa)
#
#
# Indices 1 2 3 4 5 6 
#
# 1 0.032631 -0.003740 -0.004144 0.000000 0.000000 0.000000
# 2 -0.003740 0.007779 -0.001831 0.000000 0.000000 0.000000
# 3 -0.004144 -0.001831 0.009752 0.000000 0.000000 0.000000
# 4 0.000000 0.000000 0.000000 0.019596 0.000000 0.000000
# 5 0.000000 0.000000 0.000000 0.000000 0.122587 0.000000
# 6 0.000000 0.000000 0.000000 0.000000 0.000000 -0.069852
#
#
# Mechanical properties :
#
#
# Convention : Reuss Voigt Hill
#
# Bulk Modulus (GPa) = 32.53917 50.68163 41.61040
# Shear Modulus (GPa) = 32.85826 23.84869 28.35348
#
# Velocity S-wave (km/s) = 4.16387 3.54738 3.86793
# Velocity P-wave (km/s) = 6.34717 6.59704 6.47331
#
# Compressibility (1/GPa) = 0.03073219
#
# Stress axis : x y z
#
# Youngs Moduli (GPa) = 30.64556 128.54297 102.53998
#
# Poissons Ratio (x) = 0.48080 0.42488
# Poissons Ratio (y) = 0.11463 0.18779
# Poissons Ratio (z) = 0.12698 0.23541
#
# Static dielectric constant tensor:
#      x y z
#    x 1.690940 0.000000 0.000000 
#    y 0.000000 1.710530 0.000000 
#    z 0.000000 0.000000 1.768700 
# 
# From -- ./inp_files/25956.got.cif
#   From: 2010.05.17/outbox.cif.g08.bks.cpg/sg68_13_cif.got.tgz:25956.got - 2010.06.03 18:57:09.
