data_PCOD9510326
_publ_section_title
;
Structure prediction by ZEFSAII (Michael W. Deem and Ramdas Pophale) SiO2 
 PCOD9510326
Probable space group: C C C A
;
_chemical_formula_sum "Si O2"
_cell_formula_units_Z 48
_cell_length_a 8.994710
_cell_length_b 12.403985
_cell_length_c 19.934146
_cell_angle_alpha 90.000000
_cell_angle_beta 90.000000
_cell_angle_gamma 90.000000
_cell_volume 2224.057611
_symmetry_space_group_name_H-M "C C C A"
_symmetry_group_IT_number 68
_space_group.IT_coordinate_system_code '2'
_symmetry_cell_setting 'orthorhombic'
loop_
_space_group_symop_operation_xyz
x,y,z
-x,1/2-y,z
x,1/2-y,1/2-z
-x,y,1/2-z
-x,-y,-z
x,1/2+y,-z
-x,1/2+y,1/2+z
x,-y,1/2+z
1/2+x,1/2+y,z
1/2-x,-y,z
1/2+x,-y,1/2-z
1/2-x,1/2+y,1/2-z
1/2-x,1/2-y,-z
1/2+x,y,-z
1/2-x,y,1/2+z
1/2+x,1/2-y,1/2+z
loop_
_atom_site_type_symbol
_atom_site_label
_atom_site_fract_x
_atom_site_fract_y
_atom_site_fract_z
Si Si1 0.073056 0.019986 0.071777
Si Si2 0.000000 0.250000 0.363421
Si Si3 0.406638 0.952261 0.804672
Si Si4 0.247757 0.250000 0.250000
O O1 0.024128 0.140721 0.094384
O O2 0.250000 0.000000 0.069727
O O3 0.004961 0.941845 0.129266
O O4 0.000000 0.000000 0.000000
O O5 0.856514 0.251807 0.315156
O O6 0.500000 0.022636 0.750000
O O7 0.351858 0.852982 0.759488
O O8 0.250000 0.000000 0.827691
#
# Coordination Sequence:
#
# PCOD9510326 Si02
#       4
#    16   8  16   8
#     4  12  28  50  75 108 157 208 259 323 392 478
#     4  11  24  48  76 108 151 200 258 320 405 454
#     4  12  23  43  71 107 144 188 251 310 379 449
#     4  11  23  42  78 108 140 194 246 326 376 456
#
# _framework density 21.582174999999999
#
# number of rings (size 3 to 8) (size 9 to 14) (size 15 to 20)
#    0.000    0.333    3.333    6.500    0.000    1.333 
#    6.000    0.000    0.000    0.000    0.000    0.000 
#    0.000    0.000    0.000    0.000    0.000    0.000 
#
# Total GULP energy -134087.464188 kJ/mol
# GULP energy per Si atom -5586.977674 kJ/mol
# Density = 2.153305 g / cm^3
# Si number density = 21.582175 Si / 1000 Ang^3
#
#
#
# Elastic Constant Matrix: (Units=GPa)
#
#
# Indices 1 2 3 4 5 6 
#
# 1 207.6958 35.7296 97.2303 0.0000 0.0000 0.0000
# 2 35.7296 123.2752 49.8642 0.0000 0.0000 0.0000
# 3 97.2303 49.8642 197.3809 0.0000 0.0000 0.0000
# 4 0.0000 0.0000 0.0000 41.4127 0.0000 0.0000
# 5 0.0000 0.0000 0.0000 0.0000 45.5997 0.0000
# 6 0.0000 0.0000 0.0000 0.0000 0.0000 26.3615
#
#
#
# Elastic Compliance Matrix: (Units=1/GPa)
#
#
# Indices 1 2 3 4 5 6 
#
# 1 0.006302 -0.000636 -0.002944 0.000000 0.000000 0.000000
# 2 -0.000636 0.009099 -0.001986 0.000000 0.000000 0.000000
# 3 -0.002944 -0.001986 0.007018 0.000000 0.000000 0.000000
# 4 0.000000 0.000000 0.000000 0.024147 0.000000 0.000000
# 5 0.000000 0.000000 0.000000 0.000000 0.021930 0.000000
# 6 0.000000 0.000000 0.000000 0.000000 0.000000 0.037934
#
#
# Mechanical properties :
#
#
# Convention : Reuss Voigt Hill
#
# Bulk Modulus (GPa) = 88.58018 99.33334 93.95676
# Shear Modulus (GPa) = 41.21174 45.70996 43.46085
#
# Velocity S-wave (km/s) = 4.37455 4.60711 4.49234
# Velocity P-wave (km/s) = 8.16382 8.62706 8.39864
#
# Compressibility (1/GPa) = 0.01128921
#
# Stress axis : x y z
#
# Youngs Moduli (GPa) = 158.67339 109.89778 142.48842
#
# Poissons Ratio (x) = 0.06988 0.41947
# Poissons Ratio (y) = 0.10089 0.28292
# Poissons Ratio (z) = 0.46711 0.21821
#
# Static dielectric constant tensor:
#      x y z
#    x 1.813220 0.000000 0.000000 
#    y 0.000000 1.947390 0.000000 
#    z 0.000000 0.000000 1.743150 
# 
# From -- ./inp_files/27510.got.cif
#   From: 2010.05.17/outbox.cif.g08.bks.cpg/sg68_14_cif.got.tgz:27510.got - 2010.06.03 18:57:09.
