data_PCOD9510119
_publ_section_title
;
Structure prediction by ZEFSAII (Michael W. Deem and Ramdas Pophale) SiO2 
 PCOD9510119
Probable space group: C C C A
;
_chemical_formula_sum "Si O2"
_cell_formula_units_Z 104
_cell_length_a 11.706249
_cell_length_b 29.297981
_cell_length_c 18.683342
_cell_angle_alpha 90.000000
_cell_angle_beta 90.000000
_cell_angle_gamma 90.000000
_cell_volume 6407.815731
_symmetry_space_group_name_H-M "C C C A"
_symmetry_group_IT_number 68
_space_group.IT_coordinate_system_code '2'
_symmetry_cell_setting 'orthorhombic'
loop_
_space_group_symop_operation_xyz
x,y,z
-x,1/2-y,z
x,1/2-y,1/2-z
-x,y,1/2-z
-x,-y,-z
x,1/2+y,-z
-x,1/2+y,1/2+z
x,-y,1/2+z
1/2+x,1/2+y,z
1/2-x,-y,z
1/2+x,-y,1/2-z
1/2-x,1/2+y,1/2-z
1/2-x,1/2-y,-z
1/2+x,y,-z
1/2-x,y,1/2+z
1/2+x,1/2-y,1/2+z
loop_
_atom_site_type_symbol
_atom_site_label
_atom_site_fract_x
_atom_site_fract_y
_atom_site_fract_z
Si Si1 0.369103 0.432976 0.238783
Si Si2 0.250000 0.500000 0.849198
Si Si3 0.805760 0.150256 0.242187
Si Si4 0.873989 0.981992 0.086157
Si Si5 0.306337 0.750000 0.250000
Si Si6 0.993112 0.650305 0.630164
Si Si7 0.500000 0.250000 0.628944
Si Si8 0.436462 0.555547 0.436459
O O1 0.500000 0.419146 0.250000
O O2 0.332337 0.470507 0.297771
O O3 0.283189 0.390623 0.245245
O O4 0.361530 0.455592 0.160463
O O5 0.324896 0.465203 0.896920
O O6 0.748012 0.200569 0.246247
O O7 0.895571 0.149430 0.308094
O O8 0.886443 0.145258 0.172075
O O9 0.750000 0.000000 0.064617
O O10 0.922950 0.952087 0.021092
O O11 0.959434 0.024647 0.092514
O O12 0.390922 0.750845 0.318287
O O13 0.964175 0.607628 0.581071
O O14 0.994546 0.700292 0.592985
#
# Coordination Sequence:
#
# PCOD9510119 Si02
#       8
#    16   8  16  16   8  16   8  16
#     4  12  23  34  51  77 103 136 176 218 253 307
#     4  12  22  36  54  74 106 132 178 216 252 320
#     4   9  17  29  51  79 103 127 168 214 268 304
#     4  11  23  36  50  72 108 138 175 212 252 316
#     4   7  12  26  45  74 106 124 153 215 266 308
#     4   9  16  29  53  79 103 129 163 219 266 305
#     4   7  12  24  46  80 102 118 161 216 266 296
#     4  11  22  36  52  75 103 144 172 208 264 311
#
# _framework density 16.230177999999999
#
# number of rings (size 3 to 8) (size 9 to 14) (size 15 to 20)
#    0.000    2.000    4.615    2.769    0.000    0.000 
#    0.000    0.385    0.000    0.000    4.000    4.308 
#    0.000    0.000    0.000    0.000    0.000    0.000 
#
# Total GULP energy -289647.375072 kJ/mol
# GULP energy per Si atom -5570.141828 kJ/mol
# Density = 1.619324 g / cm^3
# Si number density = 16.230178 Si / 1000 Ang^3
#
#
#
# Elastic Constant Matrix: (Units=GPa)
#
#
# Indices 1 2 3 4 5 6 
#
# 1 64.5214 26.2955 -3.0880 0.0000 0.0000 0.0000
# 2 26.2955 142.9405 31.3911 0.0000 0.0000 0.0000
# 3 -3.0880 31.3911 33.1697 0.0000 0.0000 0.0000
# 4 0.0000 0.0000 0.0000 20.7912 0.0000 0.0000
# 5 0.0000 0.0000 0.0000 0.0000 7.0381 0.0000
# 6 0.0000 0.0000 0.0000 0.0000 0.0000 21.7311
#
#
#
# Elastic Compliance Matrix: (Units=1/GPa)
#
#
# Indices 1 2 3 4 5 6 
#
# 1 0.017638 -0.004551 0.005949 0.000000 0.000000 0.000000
# 2 -0.004551 0.010006 -0.009893 0.000000 0.000000 0.000000
# 3 0.005949 -0.009893 0.040064 0.000000 0.000000 0.000000
# 4 0.000000 0.000000 0.000000 0.048097 0.000000 0.000000
# 5 0.000000 0.000000 0.000000 0.000000 0.142084 0.000000
# 6 0.000000 0.000000 0.000000 0.000000 0.000000 0.046017
#
#
# Mechanical properties :
#
#
# Convention : Reuss Voigt Hill
#
# Bulk Modulus (GPa) = 19.71663 38.86987 29.29325
# Shear Modulus (GPa) = 14.80153 22.31429 18.55791
#
# Velocity S-wave (km/s) = 3.02317 3.71194 3.38512
# Velocity P-wave (km/s) = 4.93564 6.50941 5.77637
#
# Compressibility (1/GPa) = 0.05071862
#
# Stress axis : x y z
#
# Youngs Moduli (GPa) = 56.69469 99.94233 24.95986
#
# Poissons Ratio (x) = 0.45487 -0.14850
# Poissons Ratio (y) = 0.25803 0.24693
# Poissons Ratio (z) = -0.33730 0.98873
#
# Static dielectric constant tensor:
#      x y z
#    x 1.537160 0.000000 0.000000 
#    y 0.000000 1.569200 0.000000 
#    z 0.000000 0.000000 1.538000 
# 
# From -- ./inp_files/30071.got.cif
#   From: 2010.05.17/outbox.cif.g08.bks.cpg/sg68_16_cif.got.tgz:30071.got - 2010.06.03 18:57:09.
