data_PCOD9510697
_publ_section_title
;
Structure prediction by ZEFSAII (Michael W. Deem and Ramdas Pophale) SiO2 
 PCOD9510697
Probable space group: C C C A
;
_chemical_formula_sum "Si O2"
_cell_formula_units_Z 48
_cell_length_a 9.487648
_cell_length_b 15.989042
_cell_length_c 13.581847
_cell_angle_alpha 90.000000
_cell_angle_beta 90.000000
_cell_angle_gamma 90.000000
_cell_volume 2060.344491
_symmetry_space_group_name_H-M "C C C A"
_symmetry_group_IT_number 68
_space_group.IT_coordinate_system_code '2'
_symmetry_cell_setting 'orthorhombic'
loop_
_space_group_symop_operation_xyz
x,y,z
-x,1/2-y,z
x,1/2-y,1/2-z
-x,y,1/2-z
-x,-y,-z
x,1/2+y,-z
-x,1/2+y,1/2+z
x,-y,1/2+z
1/2+x,1/2+y,z
1/2-x,-y,z
1/2+x,-y,1/2-z
1/2-x,1/2+y,1/2-z
1/2-x,1/2-y,-z
1/2+x,y,-z
1/2-x,y,1/2+z
1/2+x,1/2-y,1/2+z
loop_
_atom_site_type_symbol
_atom_site_label
_atom_site_fract_x
_atom_site_fract_y
_atom_site_fract_z
Si Si1 0.704267 0.672339 0.311001
Si Si2 0.197975 0.331864 0.890084
Si Si3 0.494618 0.093308 0.541751
O O1 0.635396 0.750000 0.250000
O O2 0.806367 0.638716 0.225204
O O3 0.783264 0.731354 0.388879
O O4 0.596773 0.610881 0.363859
O O5 0.338214 0.377735 0.930450
O O6 0.065590 0.354268 0.954735
O O7 0.500000 0.000000 0.500000
#
# Coordination Sequence:
#
# PCOD9510697 Si02
#       3
#    16  16  16
#     4   8  21  42  72  87 126 189 235 260 330 420
#     4   9  22  40  68  90 129 178 228 267 336 410
#     4  12  21  38  64 103 131 168 217 288 343 396
#
# _framework density 23.297075
#
# number of rings (size 3 to 8) (size 9 to 14) (size 15 to 20)
#    2.000    0.000    0.000    4.000    4.667    0.000 
#    0.000   15.000    7.333    0.000    0.000    0.000 
#    0.000    0.000    0.000    0.000    0.000    0.000 
#
# Total GULP energy -133713.119421 kJ/mol
# GULP energy per Si atom -5571.379976 kJ/mol
# Density = 2.324405 g / cm^3
# Si number density = 23.297075 Si / 1000 Ang^3
#
#
#
# Elastic Constant Matrix: (Units=GPa)
#
#
# Indices 1 2 3 4 5 6 
#
# 1 83.3976 41.6853 36.9528 0.0000 0.0000 0.0000
# 2 41.6853 78.7621 57.3310 0.0000 0.0000 0.0000
# 3 36.9528 57.3310 120.1568 0.0000 0.0000 0.0000
# 4 0.0000 0.0000 0.0000 42.6414 0.0000 0.0000
# 5 0.0000 0.0000 0.0000 0.0000 -5.2533 0.0000
# 6 0.0000 0.0000 0.0000 0.0000 0.0000 -19.1150
#
#
#
# Elastic Compliance Matrix: (Units=1/GPa)
#
#
# Indices 1 2 3 4 5 6 
#
# 1 0.016453 -0.007699 -0.001387 0.000000 0.000000 0.000000
# 2 -0.007699 0.023055 -0.008633 0.000000 0.000000 0.000000
# 3 -0.001387 -0.008633 0.012868 0.000000 0.000000 0.000000
# 4 0.000000 0.000000 0.000000 0.023451 0.000000 0.000000
# 5 0.000000 0.000000 0.000000 0.000000 -0.190355 0.000000
# 6 0.000000 0.000000 0.000000 0.000000 0.000000 -0.052315
#
#
# Mechanical properties :
#
#
# Convention : Reuss Voigt Hill
#
# Bulk Modulus (GPa) = 59.03204 61.58387 60.30795
# Shear Modulus (GPa) = -39.75818 13.41111 -13.17353
#
# Velocity S-wave (km/s) = -4.13555 2.40189 -2.38052
# Velocity P-wave (km/s) = 1.60938 5.84668 4.28799
#
# Compressibility (1/GPa) = 0.01693995
#
# Stress axis : x y z
#
# Youngs Moduli (GPa) = 60.77825 43.37526 77.71312
#
# Poissons Ratio (x) = 0.33393 0.10777
# Poissons Ratio (y) = 0.46790 0.67086
# Poissons Ratio (z) = 0.08428 0.37444
#
# Static dielectric constant tensor:
#      x y z
#    x 1.899370 0.000000 0.000000 
#    y 0.000000 2.017520 0.000000 
#    z 0.000000 0.000000 2.141510 
# 
# From -- ./inp_files/11359.got.cif
#   From: 2010.05.17/outbox.cif.g08.bks.cpg/sg68_6_cif.got.tgz:11359.got - 2010.06.03 18:57:09.
