data_PCOD9510867
_publ_section_title
;
Structure prediction by ZEFSAII (Michael W. Deem and Ramdas Pophale) SiO2 
 PCOD9510867
Probable space group: C C C A
;
_chemical_formula_sum "Si O2"
_cell_formula_units_Z 68
_cell_length_a 17.349611
_cell_length_b 21.381428
_cell_length_c 8.283603
_cell_angle_alpha 90.000000
_cell_angle_beta 90.000000
_cell_angle_gamma 90.000000
_cell_volume 3072.880883
_symmetry_space_group_name_H-M "C C C A"
_symmetry_group_IT_number 68
_space_group.IT_coordinate_system_code '2'
_symmetry_cell_setting 'orthorhombic'
loop_
_space_group_symop_operation_xyz
x,y,z
-x,1/2-y,z
x,1/2-y,1/2-z
-x,y,1/2-z
-x,-y,-z
x,1/2+y,-z
-x,1/2+y,1/2+z
x,-y,1/2+z
1/2+x,1/2+y,z
1/2-x,-y,z
1/2+x,-y,1/2-z
1/2-x,1/2+y,1/2-z
1/2-x,1/2-y,-z
1/2+x,y,-z
1/2-x,y,1/2+z
1/2+x,1/2-y,1/2+z
loop_
_atom_site_type_symbol
_atom_site_label
_atom_site_fract_x
_atom_site_fract_y
_atom_site_fract_z
Si Si1 0.088642 0.960100 0.704496
Si Si2 0.000000 0.250000 0.250000
Si Si3 0.818125 0.446878 0.882743
Si Si4 0.365792 0.165350 0.858581
Si Si5 0.782136 0.318643 0.698079
O O1 0.121779 0.940250 0.530513
O O2 0.114132 0.906401 0.828183
O O3 0.000000 0.969905 0.750000
O O4 0.134316 0.022814 0.738509
O O5 0.056396 0.294376 0.147055
O O6 0.750000 0.500000 0.916626
O O7 0.795717 0.378564 0.814727
O O8 0.310881 0.184929 0.708006
O O9 0.319182 0.171563 0.024074
O O10 0.810473 0.250000 0.750000
#
# Coordination Sequence:
#
# PCOD9510867 Si02
#       5
#    16   4  16  16  16
#     4  12  26  47  73 106 157 197 251 312 387 436
#     4  12  28  48  78 108 164 186 248 304 388 444
#     4  12  26  46  77 113 143 202 259 314 358 455
#     4  12  26  48  76 112 145 204 244 311 368 451
#     4  12  27  47  82 110 149 193 257 305 371 448
#
# _framework density 22.129073000000002
#
# number of rings (size 3 to 8) (size 9 to 14) (size 15 to 20)
#    0.000    0.000    4.706    4.941    3.294    0.000 
#    0.000    2.941    0.000    0.000    0.000    0.000 
#    0.000    0.000    0.000    0.000    0.000    0.000 
#
# Total GULP energy -189757.976292 kJ/mol
# GULP energy per Si atom -5581.116950 kJ/mol
# Density = 2.207871 g / cm^3
# Si number density = 22.129073 Si / 1000 Ang^3
#
#
#
# Elastic Constant Matrix: (Units=GPa)
#
#
# Indices 1 2 3 4 5 6 
#
# 1 133.3509 37.0105 51.2953 0.0000 0.0000 0.0000
# 2 37.0105 153.0829 30.9237 0.0000 0.0000 0.0000
# 3 51.2953 30.9237 95.9538 0.0000 0.0000 0.0000
# 4 0.0000 0.0000 0.0000 26.3159 0.0000 0.0000
# 5 0.0000 0.0000 0.0000 0.0000 18.3842 0.0000
# 6 0.0000 0.0000 0.0000 0.0000 0.0000 30.7676
#
#
#
# Elastic Compliance Matrix: (Units=1/GPa)
#
#
# Indices 1 2 3 4 5 6 
#
# 1 0.009709 -0.001389 -0.004742 0.000000 0.000000 0.000000
# 2 -0.001389 0.007186 -0.001573 0.000000 0.000000 0.000000
# 3 -0.004742 -0.001573 0.013464 0.000000 0.000000 0.000000
# 4 0.000000 0.000000 0.000000 0.038000 0.000000 0.000000
# 5 0.000000 0.000000 0.000000 0.000000 0.054394 0.000000
# 6 0.000000 0.000000 0.000000 0.000000 0.000000 0.032502
#
#
# Mechanical properties :
#
#
# Convention : Reuss Voigt Hill
#
# Bulk Modulus (GPa) = 66.89431 68.98294 67.93863
# Shear Modulus (GPa) = 28.46606 32.63742 30.55174
#
# Velocity S-wave (km/s) = 3.59048 3.84457 3.71969
# Velocity P-wave (km/s) = 6.89083 7.13780 7.01540
#
# Compressibility (1/GPa) = 0.01494896
#
# Stress axis : x y z
#
# Youngs Moduli (GPa) = 102.99883 139.15770 74.27245
#
# Poissons Ratio (x) = 0.19333 0.35223
# Poissons Ratio (y) = 0.14309 0.11685
# Poissons Ratio (z) = 0.48847 0.21893
#
# Static dielectric constant tensor:
#      x y z
#    x 1.847130 0.000000 0.000000 
#    y 0.000000 1.881280 0.000000 
#    z 0.000000 0.000000 1.816090 
# 
# From -- ./inp_files/5948.got.cif
#   From: 2010.05.17/outbox.cif.g08.bks.cpg/sg68_3_cif.got.tgz:5948.got - 2010.06.03 18:57:09.
