data_PCOD9510745
_publ_section_title
;
Structure prediction by ZEFSAII (Michael W. Deem and Ramdas Pophale) SiO2 
 PCOD9510745
Probable space group: C C C A
;
_chemical_formula_sum "Si O2"
_cell_formula_units_Z 88
_cell_length_a 17.505144
_cell_length_b 7.962571
_cell_length_c 28.130030
_cell_angle_alpha 90.000000
_cell_angle_beta 90.000000
_cell_angle_gamma 90.000000
_cell_volume 3920.931010
_symmetry_space_group_name_H-M "C C C A"
_symmetry_group_IT_number 68
_space_group.IT_coordinate_system_code '2'
_symmetry_cell_setting 'orthorhombic'
loop_
_space_group_symop_operation_xyz
x,y,z
-x,1/2-y,z
x,1/2-y,1/2-z
-x,y,1/2-z
-x,-y,-z
x,1/2+y,-z
-x,1/2+y,1/2+z
x,-y,1/2+z
1/2+x,1/2+y,z
1/2-x,-y,z
1/2+x,-y,1/2-z
1/2-x,1/2+y,1/2-z
1/2-x,1/2-y,-z
1/2+x,y,-z
1/2-x,y,1/2+z
1/2+x,1/2-y,1/2+z
loop_
_atom_site_type_symbol
_atom_site_label
_atom_site_fract_x
_atom_site_fract_y
_atom_site_fract_z
Si Si1 0.331664 0.777960 0.695297
Si Si2 0.500000 0.750000 0.839282
Si Si3 0.518156 0.427898 0.594147
Si Si4 0.130425 0.501153 0.050106
Si Si5 0.342783 0.385090 0.449196
Si Si6 0.750000 0.500000 0.129465
Si Si7 0.750000 0.500000 0.868328
O O1 0.310933 0.750000 0.750000
O O2 0.421377 0.744538 0.689411
O O3 0.315741 0.956203 0.668321
O O4 0.279730 0.648212 0.665618
O O5 0.499143 0.584029 0.871763
O O6 0.500000 0.250000 0.618771
O O7 0.454185 0.426631 0.552933
O O8 0.600984 0.472893 0.572820
O O9 0.120658 0.701755 0.049388
O O10 0.179210 0.457079 0.096805
O O11 0.171937 0.436996 0.002988
O O12 0.272868 0.366148 0.412267
#
# Coordination Sequence:
#
# PCOD9510745 Si02
#       7
#    16   8  16  16  16   8   8
#     4  12  27  48  78 104 141 189 244 307 378 435
#     4  12  23  54  74 104 144 194 246 308 361 440
#     4  12  23  42  70 103 145 201 244 296 356 431
#     4  12  25  42  66 102 150 195 243 294 356 435
#     4  12  25  42  66 102 150 195 243 294 356 435
#     4  12  24  44  70 100 142 180 230 300 364 428
#     4  12  24  44  70 100 142 180 230 300 364 428
#
# _framework density 22.443650000000002
#
# number of rings (size 3 to 8) (size 9 to 14) (size 15 to 20)
#    0.000    0.000    7.273    3.000    5.091    1.455 
#    0.000    0.000    0.000    1.091    0.000    0.000 
#    0.000    0.000    0.000    0.000    0.000    0.000 
#
# Total GULP energy -245385.812328 kJ/mol
# GULP energy per Si atom -5576.950280 kJ/mol
# Density = 2.239257 g / cm^3
# Si number density = 22.443650 Si / 1000 Ang^3
#
#
#
# Elastic Constant Matrix: (Units=GPa)
#
#
# Indices 1 2 3 4 5 6 
#
# 1 110.3005 27.7200 45.5141 0.0000 0.0000 0.0000
# 2 27.7200 112.3252 34.5734 0.0000 0.0000 0.0000
# 3 45.5141 34.5734 193.4813 0.0000 0.0000 0.0000
# 4 0.0000 0.0000 0.0000 20.2864 0.0000 0.0000
# 5 0.0000 0.0000 0.0000 0.0000 15.7083 0.0000
# 6 0.0000 0.0000 0.0000 0.0000 0.0000 34.1361
#
#
#
# Elastic Compliance Matrix: (Units=1/GPa)
#
#
# Indices 1 2 3 4 5 6 
#
# 1 0.010419 -0.001923 -0.002107 0.000000 0.000000 0.000000
# 2 -0.001923 0.009776 -0.001295 0.000000 0.000000 0.000000
# 3 -0.002107 -0.001295 0.005896 0.000000 0.000000 0.000000
# 4 0.000000 0.000000 0.000000 0.049294 0.000000 0.000000
# 5 0.000000 0.000000 0.000000 0.000000 0.063660 0.000000
# 6 0.000000 0.000000 0.000000 0.000000 0.000000 0.029295
#
#
# Mechanical properties :
#
#
# Convention : Reuss Voigt Hill
#
# Bulk Modulus (GPa) = 64.76243 70.19135 67.47689
# Shear Modulus (GPa) = 27.15397 34.57946 30.86671
#
# Velocity S-wave (km/s) = 3.48210 3.92946 3.71252
# Velocity P-wave (km/s) = 6.71453 7.20624 6.96473
#
# Compressibility (1/GPa) = 0.01544105
#
# Stress axis : x y z
#
# Youngs Moduli (GPa) = 95.97950 102.29503 169.62033
#
# Poissons Ratio (x) = 0.19667 0.35745
# Poissons Ratio (y) = 0.18453 0.21958
# Poissons Ratio (z) = 0.20226 0.13243
#
# Static dielectric constant tensor:
#      x y z
#    x 1.887130 0.000000 0.000000 
#    y 0.000000 2.018730 0.000000 
#    z 0.000000 0.000000 1.795660 
# 
# From -- ./inp_files/55597.got.cif
#   From: 2010.05.17/outbox.cif.g08.bks.cpg/sg68_28_cif.got.tgz:55597.got - 2010.06.03 18:57:09.
