data_PCOD9510235
_publ_section_title
;
Structure prediction by ZEFSAII (Michael W. Deem and Ramdas Pophale) SiO2 
 PCOD9510235
Probable space group: C C C A
;
_chemical_formula_sum "Si O2"
_cell_formula_units_Z 68
_cell_length_a 18.609326
_cell_length_b 15.312494
_cell_length_c 10.956882
_cell_angle_alpha 90.000000
_cell_angle_beta 90.000000
_cell_angle_gamma 90.000000
_cell_volume 3122.220422
_symmetry_space_group_name_H-M "C C C A"
_symmetry_group_IT_number 68
_space_group.IT_coordinate_system_code '2'
_symmetry_cell_setting 'orthorhombic'
loop_
_space_group_symop_operation_xyz
x,y,z
-x,1/2-y,z
x,1/2-y,1/2-z
-x,y,1/2-z
-x,-y,-z
x,1/2+y,-z
-x,1/2+y,1/2+z
x,-y,1/2+z
1/2+x,1/2+y,z
1/2-x,-y,z
1/2+x,-y,1/2-z
1/2-x,1/2+y,1/2-z
1/2-x,1/2-y,-z
1/2+x,y,-z
1/2-x,y,1/2+z
1/2+x,1/2-y,1/2+z
loop_
_atom_site_type_symbol
_atom_site_label
_atom_site_fract_x
_atom_site_fract_y
_atom_site_fract_z
Si Si1 0.228850 0.300487 0.125468
Si Si2 0.382581 0.371223 0.121848
Si Si3 0.903963 0.076494 0.135360
Si Si4 0.000000 0.750000 0.250000
Si Si5 0.539851 0.343844 0.609764
O O1 0.205336 0.250000 0.250000
O O2 0.303635 0.345558 0.164844
O O3 0.166071 0.370007 0.095410
O O4 0.250000 0.250000 0.000000
O O5 0.391724 0.474044 0.141544
O O6 0.445690 0.314159 0.180539
O O7 0.393259 0.346162 0.980311
O O8 0.929119 0.116555 0.265373
O O9 0.975214 0.096620 0.056451
O O10 0.500000 0.250000 0.618729
#
# Coordination Sequence:
#
# PCOD9510235 Si02
#       5
#    16  16  16   4  16
#     4  12  26  46  69 100 139 190 231 289 360 429
#     4  12  25  43  68 101 139 178 232 297 351 421
#     4  11  24  42  70 102 135 180 239 289 346 420
#     4  12  24  44  68 102 138 178 228 288 374 408
#     4  11  22  44  70  98 135 188 229 283 350 426
#
# _framework density 21.779371000000001
#
# number of rings (size 3 to 8) (size 9 to 14) (size 15 to 20)
#    0.000    0.471    2.353    8.471    0.000    1.882 
#    0.000    4.706    0.000    0.000    0.000    0.000 
#    0.000    0.000    0.000    0.000    0.000    0.000 
#
# Total GULP energy -189823.956115 kJ/mol
# GULP energy per Si atom -5583.057533 kJ/mol
# Density = 2.172980 g / cm^3
# Si number density = 21.779371 Si / 1000 Ang^3
#
#
#
# Elastic Constant Matrix: (Units=GPa)
#
#
# Indices 1 2 3 4 5 6 
#
# 1 134.5578 44.5137 3.0791 0.0000 0.0000 0.0000
# 2 44.5137 173.7660 35.9009 0.0000 0.0000 0.0000
# 3 3.0791 35.9009 73.2162 0.0000 0.0000 0.0000
# 4 0.0000 0.0000 0.0000 21.7053 0.0000 0.0000
# 5 0.0000 0.0000 0.0000 0.0000 34.1486 0.0000
# 6 0.0000 0.0000 0.0000 0.0000 0.0000 36.2019
#
#
#
# Elastic Compliance Matrix: (Units=1/GPa)
#
#
# Indices 1 2 3 4 5 6 
#
# 1 0.008158 -0.002246 0.000758 0.000000 0.000000 0.000000
# 2 -0.002246 0.007022 -0.003349 0.000000 0.000000 0.000000
# 3 0.000758 -0.003349 0.015268 0.000000 0.000000 0.000000
# 4 0.000000 0.000000 0.000000 0.046072 0.000000 0.000000
# 5 0.000000 0.000000 0.000000 0.000000 0.029284 0.000000
# 6 0.000000 0.000000 0.000000 0.000000 0.000000 0.027623
#
#
# Mechanical properties :
#
#
# Convention : Reuss Voigt Hill
#
# Bulk Modulus (GPa) = 48.13583 60.94748 54.54166
# Shear Modulus (GPa) = 33.32783 38.28092 35.80437
#
# Velocity S-wave (km/s) = 3.91608 4.19700 4.05897
# Velocity P-wave (km/s) = 6.52665 7.17853 6.86034
#
# Compressibility (1/GPa) = 0.02077455
#
# Stress axis : x y z
#
# Youngs Moduli (GPa) = 122.58596 142.40527 65.49497
#
# Poissons Ratio (x) = 0.31990 -0.04967
# Poissons Ratio (y) = 0.27538 0.21933
# Poissons Ratio (z) = -0.09298 0.47689
#
# Static dielectric constant tensor:
#      x y z
#    x 1.819660 0.000000 0.000000 
#    y 0.000000 1.802520 0.000000 
#    z 0.000000 0.000000 1.929290 
# 
# From -- ./inp_files/15247.got.cif
#   From: 2010.05.17/outbox.cif.g08.bks.cpg/sg68_8_cif.got.tgz:15247.got - 2010.06.03 18:57:09.
