data_PCOD9510617
_publ_section_title
;
Structure prediction by ZEFSAII (Michael W. Deem and Ramdas Pophale) SiO2 
 PCOD9510617
Probable space group: C C C A
;
_chemical_formula_sum "Si O2"
_cell_formula_units_Z 64
_cell_length_a 9.885678
_cell_length_b 27.353572
_cell_length_c 10.158411
_cell_angle_alpha 90.000000
_cell_angle_beta 90.000000
_cell_angle_gamma 90.000000
_cell_volume 2746.921747
_symmetry_space_group_name_H-M "C C C A"
_symmetry_group_IT_number 68
_space_group.IT_coordinate_system_code '2'
_symmetry_cell_setting 'orthorhombic'
loop_
_space_group_symop_operation_xyz
x,y,z
-x,1/2-y,z
x,1/2-y,1/2-z
-x,y,1/2-z
-x,-y,-z
x,1/2+y,-z
-x,1/2+y,1/2+z
x,-y,1/2+z
1/2+x,1/2+y,z
1/2-x,-y,z
1/2+x,-y,1/2-z
1/2-x,1/2+y,1/2-z
1/2-x,1/2-y,-z
1/2+x,y,-z
1/2-x,y,1/2+z
1/2+x,1/2-y,1/2+z
loop_
_atom_site_type_symbol
_atom_site_label
_atom_site_fract_x
_atom_site_fract_y
_atom_site_fract_z
Si Si1 0.453616 0.417762 0.985914
Si Si2 0.811781 0.354617 0.577663
Si Si3 0.649563 0.693758 0.296861
Si Si4 0.608767 0.006071 0.654626
O O1 0.552641 0.387038 0.079932
O O2 0.388784 0.468980 0.033611
O O3 0.323974 0.386137 0.949429
O O4 0.562872 0.439345 0.880815
O O5 0.772564 0.329897 0.715214
O O6 0.832733 0.318025 0.451952
O O7 0.650392 0.750000 0.250000
O O8 0.500000 0.674897 0.250000
O O9 0.500000 0.984220 0.750000
O O10 0.750000 0.000000 0.724356
#
# Coordination Sequence:
#
# PCOD9510617 Si02
#       4
#    16  16  16  16
#     4  11  26  42  66 103 141 188 239 288 350 417
#     4  12  25  47  77 106 142 190 239 291 354 435
#     4  11  26  49  75 109 146 183 231 304 367 424
#     4  11  26  42  64  96 145 186 236 295 347 412
#
# _framework density 23.298808000000001
#
# number of rings (size 3 to 8) (size 9 to 14) (size 15 to 20)
#    0.000    0.750    5.000    0.750   10.500    0.000 
#    0.000    1.250    0.000    0.000    0.000    0.000 
#    0.000    0.000    0.000    0.000    0.000    0.000 
#
# Total GULP energy -178564.209252 kJ/mol
# GULP energy per Si atom -5580.131539 kJ/mol
# Density = 2.324578 g / cm^3
# Si number density = 23.298808 Si / 1000 Ang^3
#
#
#
# Elastic Constant Matrix: (Units=GPa)
#
#
# Indices 1 2 3 4 5 6 
#
# 1 121.0919 12.1288 -8.5421 0.0000 0.0000 0.0000
# 2 12.1288 75.0490 0.2607 0.0000 0.0000 0.0000
# 3 -8.5421 0.2607 61.8464 0.0000 0.0000 0.0000
# 4 0.0000 0.0000 0.0000 6.3037 0.0000 0.0000
# 5 0.0000 0.0000 0.0000 0.0000 25.3700 0.0000
# 6 0.0000 0.0000 0.0000 0.0000 0.0000 32.0631
#
#
#
# Elastic Compliance Matrix: (Units=1/GPa)
#
#
# Indices 1 2 3 4 5 6 
#
# 1 0.008479 -0.001374 0.001177 0.000000 0.000000 0.000000
# 2 -0.001374 0.013548 -0.000247 0.000000 0.000000 0.000000
# 3 0.001177 -0.000247 0.016333 0.000000 0.000000 0.000000
# 4 0.000000 0.000000 0.000000 0.158636 0.000000 0.000000
# 5 0.000000 0.000000 0.000000 0.000000 0.039417 0.000000
# 6 0.000000 0.000000 0.000000 0.000000 0.000000 0.031189
#
#
# Mechanical properties :
#
#
# Convention : Reuss Voigt Hill
#
# Bulk Modulus (GPa) = 26.68780 29.52023 28.10402
# Shear Modulus (GPa) = 17.79492 29.69003 23.74247
#
# Velocity S-wave (km/s) = 2.76664 3.57363 3.19571
# Velocity P-wave (km/s) = 4.65673 5.45211 5.07004
#
# Compressibility (1/GPa) = 0.03747030
#
# Stress axis : x y z
#
# Youngs Moduli (GPa) = 117.94018 73.81378 61.22693
#
# Poissons Ratio (x) = 0.10145 -0.07206
# Poissons Ratio (y) = 0.16209 0.01512
# Poissons Ratio (z) = -0.13880 0.01823
#
# Static dielectric constant tensor:
#      x y z
#    x 1.921490 0.000000 0.000000 
#    y 0.000000 1.895850 0.000000 
#    z 0.000000 0.000000 1.991180 
# 
# From -- ./inp_files/4070.got.cif
#   From: 2010.05.17/outbox.cif.g08.bks.cpg/sg68_3_cif.got.tgz:4070.got - 2010.06.03 18:57:09.
