data_PCOD9510261
_publ_section_title
;
Structure prediction by ZEFSAII (Michael W. Deem and Ramdas Pophale) SiO2 
 PCOD9510261
Probable space group: C C C A
;
_chemical_formula_sum "Si O2"
_cell_formula_units_Z 104
_cell_length_a 28.446375
_cell_length_b 20.352140
_cell_length_c 9.193215
_cell_angle_alpha 90.000000
_cell_angle_beta 90.000000
_cell_angle_gamma 90.000000
_cell_volume 5322.362241
_symmetry_space_group_name_H-M "C C C A"
_symmetry_group_IT_number 68
_space_group.IT_coordinate_system_code '2'
_symmetry_cell_setting 'orthorhombic'
loop_
_space_group_symop_operation_xyz
x,y,z
-x,1/2-y,z
x,1/2-y,1/2-z
-x,y,1/2-z
-x,-y,-z
x,1/2+y,-z
-x,1/2+y,1/2+z
x,-y,1/2+z
1/2+x,1/2+y,z
1/2-x,-y,z
1/2+x,-y,1/2-z
1/2-x,1/2+y,1/2-z
1/2-x,1/2-y,-z
1/2+x,y,-z
1/2-x,y,1/2+z
1/2+x,1/2-y,1/2+z
loop_
_atom_site_type_symbol
_atom_site_label
_atom_site_fract_x
_atom_site_fract_y
_atom_site_fract_z
Si Si1 0.553566 0.362051 0.244984
Si Si2 0.446154 0.251823 0.487932
Si Si3 0.148754 0.076181 0.780952
Si Si4 0.806302 0.492266 0.510889
Si Si5 0.874685 0.750000 0.750000
Si Si6 0.216741 0.680306 0.326219
Si Si7 0.801741 0.142778 0.148957
O O1 0.500000 0.386899 0.250000
O O2 0.557507 0.306474 0.370020
O O3 0.561004 0.320994 0.095984
O O4 0.593031 0.416534 0.270005
O O5 0.500000 0.250000 0.543241
O O6 0.407907 0.241840 0.611029
O O7 0.170669 0.026087 0.663865
O O8 0.169584 0.146620 0.733293
O O9 0.169235 0.054251 0.935524
O O10 0.750000 0.500000 0.520737
O O11 0.815922 0.428357 0.409879
O O12 0.841765 0.687113 0.779424
O O13 0.222464 0.750000 0.250000
O O14 0.215369 0.679674 0.500509
O O15 0.259618 0.636982 0.264322
#
# Coordination Sequence:
#
# PCOD9510261 Si02
#       7
#    16  16  16  16   8  16  16
#     4   9  20  41  65  92 116 155 207 255 309 375
#     4   9  19  37  63  90 123 158 197 249 312 376
#     4  11  24  38  65  84 121 163 208 253 301 361
#     4  11  23  42  58  87 119 170 215 249 293 369
#     4  12  23  36  56  96 130 154 201 254 320 354
#     4  11  23  39  57  86 123 158 203 245 311 352
#     4  11  25  37  57  86 124 162 202 256 290 369
#
# _framework density 19.540195000000001
#
# number of rings (size 3 to 8) (size 9 to 14) (size 15 to 20)
#    0.000    1.538    2.308    3.923    6.462    1.231 
#    0.000    0.769    0.000    1.846    0.000    0.000 
#    0.000    0.000    0.000    0.000    0.000    0.000 
#
# Total GULP energy -290603.096034 kJ/mol
# GULP energy per Si atom -5588.521078 kJ/mol
# Density = 1.949572 g / cm^3
# Si number density = 19.540195 Si / 1000 Ang^3
#
#
#
# Elastic Constant Matrix: (Units=GPa)
#
#
# Indices 1 2 3 4 5 6 
#
# 1 108.3000 11.1672 26.7289 0.0000 0.0000 0.0000
# 2 11.1672 34.0753 7.6574 0.0000 0.0000 0.0000
# 3 26.7289 7.6574 60.0259 0.0000 0.0000 0.0000
# 4 0.0000 0.0000 0.0000 21.9266 0.0000 0.0000
# 5 0.0000 0.0000 0.0000 0.0000 29.3246 0.0000
# 6 0.0000 0.0000 0.0000 0.0000 0.0000 13.3316
#
#
#
# Elastic Compliance Matrix: (Units=1/GPa)
#
#
# Indices 1 2 3 4 5 6 
#
# 1 0.010573 -0.002478 -0.004392 0.000000 0.000000 0.000000
# 2 -0.002478 0.030794 -0.002825 0.000000 0.000000 0.000000
# 3 -0.004392 -0.002825 0.018976 0.000000 0.000000 0.000000
# 4 0.000000 0.000000 0.000000 0.045607 0.000000 0.000000
# 5 0.000000 0.000000 0.000000 0.000000 0.034101 0.000000
# 6 0.000000 0.000000 0.000000 0.000000 0.000000 0.075010
#
#
# Mechanical properties :
#
#
# Convention : Reuss Voigt Hill
#
# Bulk Modulus (GPa) = 24.41849 32.61200 28.51525
# Shear Modulus (GPa) = 20.15313 23.37308 21.76310
#
# Velocity S-wave (km/s) = 3.21498 3.46230 3.34093
# Velocity P-wave (km/s) = 5.12885 5.71920 5.43205
#
# Compressibility (1/GPa) = 0.04095258
#
# Stress axis : x y z
#
# Youngs Moduli (GPa) = 94.57979 32.47422 52.69944
#
# Poissons Ratio (x) = 0.08047 0.23145
# Poissons Ratio (y) = 0.23437 0.14887
# Poissons Ratio (z) = 0.41539 0.09173
#
# Static dielectric constant tensor:
#      x y z
#    x 1.686480 0.000000 0.000000 
#    y 0.000000 1.694460 0.000000 
#    z 0.000000 0.000000 1.697910 
# 
# From -- ./inp_files/9118.got.cif
#   From: 2010.05.17/outbox.cif.g08.bks.cpg/sg68_5_cif.got.tgz:9118.got - 2010.06.03 18:57:09.
