data_PCOD9510268
_publ_section_title
;
Structure prediction by ZEFSAII (Michael W. Deem and Ramdas Pophale) SiO2 
 PCOD9510268
Probable space group: C C C A
;
_chemical_formula_sum "Si O2"
_cell_formula_units_Z 104
_cell_length_a 24.682421
_cell_length_b 27.152326
_cell_length_c 7.670330
_cell_angle_alpha 90.000000
_cell_angle_beta 90.000000
_cell_angle_gamma 90.000000
_cell_volume 5140.541196
_symmetry_space_group_name_H-M "C C C A"
_symmetry_group_IT_number 68
_space_group.IT_coordinate_system_code '2'
_symmetry_cell_setting 'orthorhombic'
loop_
_space_group_symop_operation_xyz
x,y,z
-x,1/2-y,z
x,1/2-y,1/2-z
-x,y,1/2-z
-x,-y,-z
x,1/2+y,-z
-x,1/2+y,1/2+z
x,-y,1/2+z
1/2+x,1/2+y,z
1/2-x,-y,z
1/2+x,-y,1/2-z
1/2-x,1/2+y,1/2-z
1/2-x,1/2-y,-z
1/2+x,y,-z
1/2-x,y,1/2+z
1/2+x,1/2-y,1/2+z
loop_
_atom_site_type_symbol
_atom_site_label
_atom_site_fract_x
_atom_site_fract_y
_atom_site_fract_z
Si Si1 0.961317 0.538329 0.899860
Si Si2 0.319639 0.085055 0.678179
Si Si3 0.799727 0.692483 0.605452
Si Si4 0.135954 0.963554 0.370056
Si Si5 0.324130 0.208943 0.012938
Si Si6 0.624457 0.608222 0.546716
Si Si7 0.750000 0.000000 0.233473
O O1 0.912100 0.502094 0.844572
O O2 0.933933 0.584669 0.997212
O O3 0.000000 0.558314 0.750000
O O4 0.000000 0.500000 0.000000
O O5 0.309544 0.135395 0.574429
O O6 0.365734 0.058851 0.562986
O O7 0.338415 0.095907 0.875964
O O8 0.265806 0.051346 0.674078
O O9 0.735194 0.700093 0.593801
O O10 0.817560 0.700892 0.804746
O O11 0.830490 0.731541 0.480482
O O12 0.193676 0.990863 0.363254
O O13 0.138323 0.922897 0.218978
O O14 0.365951 0.166847 0.074462
#
# Coordination Sequence:
#
# PCOD9510268 Si02
#       7
#    16  16  16  16  16  16   8
#     4  12  23  43  64  86 123 164 217 264 308 380
#     4  11  24  36  55  87 125 166 203 247 306 376
#     4   9  19  34  54  81 119 168 199 250 301 372
#     4  12  25  39  58  89 124 166 202 252 316 380
#     4   9  19  35  54  82 120 158 211 248 303 370
#     4  11  23  40  59  86 117 163 209 256 317 367
#     4  12  24  36  56  86 134 166 200 244 308 394
#
# _framework density 20.231334
#
# number of rings (size 3 to 8) (size 9 to 14) (size 15 to 20)
#    0.000    1.231    3.077    3.231    8.615    0.000 
#    0.000    0.000    0.000    0.000    0.000   18.308 
#    0.000    0.000    0.000    0.000    0.000    0.000 
#
# Total GULP energy -289853.638527 kJ/mol
# GULP energy per Si atom -5574.108433 kJ/mol
# Density = 2.018529 g / cm^3
# Si number density = 20.231334 Si / 1000 Ang^3
#
#
#
# Elastic Constant Matrix: (Units=GPa)
#
#
# Indices 1 2 3 4 5 6 
#
# 1 86.3324 43.6959 20.3539 0.0000 0.0000 0.0000
# 2 43.6959 154.9911 22.4995 0.0000 0.0000 0.0000
# 3 20.3539 22.4995 58.9491 0.0000 0.0000 0.0000
# 4 0.0000 0.0000 0.0000 17.9648 0.0000 0.0000
# 5 0.0000 0.0000 0.0000 0.0000 30.0313 0.0000
# 6 0.0000 0.0000 0.0000 0.0000 0.0000 14.6724
#
#
#
# Elastic Compliance Matrix: (Units=1/GPa)
#
#
# Indices 1 2 3 4 5 6 
#
# 1 0.014187 -0.003481 -0.003570 0.000000 0.000000 0.000000
# 2 -0.003481 0.007685 -0.001731 0.000000 0.000000 0.000000
# 3 -0.003570 -0.001731 0.018857 0.000000 0.000000 0.000000
# 4 0.000000 0.000000 0.000000 0.055664 0.000000 0.000000
# 5 0.000000 0.000000 0.000000 0.000000 0.033299 0.000000
# 6 0.000000 0.000000 0.000000 0.000000 0.000000 0.068155
#
#
# Mechanical properties :
#
#
# Convention : Reuss Voigt Hill
#
# Bulk Modulus (GPa) = 43.16972 52.59681 47.88326
# Shear Modulus (GPa) = 22.40823 26.78192 24.59507
#
# Velocity S-wave (km/s) = 3.33167 3.64233 3.49046
# Velocity P-wave (km/s) = 6.01535 6.61384 6.32168
#
# Compressibility (1/GPa) = 0.02316439
#
# Stress axis : x y z
#
# Youngs Moduli (GPa) = 70.48805 130.12744 53.03068
#
# Poissons Ratio (x) = 0.45303 0.18930
# Poissons Ratio (y) = 0.24540 0.09180
# Poissons Ratio (z) = 0.25162 0.22525
#
# Static dielectric constant tensor:
#      x y z
#    x 1.692690 0.000000 0.000000 
#    y 0.000000 1.843480 0.000000 
#    z 0.000000 0.000000 1.810880 
# 
# From -- ./inp_files/8300.got.cif
#   From: 2010.05.17/outbox.cif.g08.bks.cpg/sg68_5_cif.got.tgz:8300.got - 2010.06.03 18:57:09.
