data_PCOD9510569
_publ_section_title
;
Structure prediction by ZEFSAII (Michael W. Deem and Ramdas Pophale) SiO2 
 PCOD9510569
Probable space group: C C C A
;
_chemical_formula_sum "Si O2"
_cell_formula_units_Z 104
_cell_length_a 29.055625
_cell_length_b 8.825079
_cell_length_c 19.013271
_cell_angle_alpha 90.000000
_cell_angle_beta 90.000000
_cell_angle_gamma 90.000000
_cell_volume 4875.348460
_symmetry_space_group_name_H-M "C C C A"
_symmetry_group_IT_number 68
_space_group.IT_coordinate_system_code '2'
_symmetry_cell_setting 'orthorhombic'
loop_
_space_group_symop_operation_xyz
x,y,z
-x,1/2-y,z
x,1/2-y,1/2-z
-x,y,1/2-z
-x,-y,-z
x,1/2+y,-z
-x,1/2+y,1/2+z
x,-y,1/2+z
1/2+x,1/2+y,z
1/2-x,-y,z
1/2+x,-y,1/2-z
1/2-x,1/2+y,1/2-z
1/2-x,1/2-y,-z
1/2+x,y,-z
1/2-x,y,1/2+z
1/2+x,1/2-y,1/2+z
loop_
_atom_site_type_symbol
_atom_site_label
_atom_site_fract_x
_atom_site_fract_y
_atom_site_fract_z
Si Si1 0.093261 0.430500 0.880800
Si Si2 0.498480 0.068890 0.834415
Si Si3 0.250000 0.500000 0.819451
Si Si4 0.150231 0.051393 0.481778
Si Si5 0.844984 0.427886 0.233433
Si Si6 0.213800 0.684169 0.944812
Si Si7 0.902366 0.086535 0.644466
O O1 0.112112 0.410565 0.959648
O O2 0.128184 0.540972 0.839354
O O3 0.093359 0.265603 0.844961
O O4 0.042699 0.498544 0.872375
O O5 0.500000 0.250000 0.843805
O O6 0.500000 0.039418 0.750000
O O7 0.451899 0.992938 0.862172
O O8 0.204288 0.490351 0.773208
O O9 0.238374 0.640272 0.871848
O O10 0.172737 0.193592 0.441838
O O11 0.191078 0.966074 0.522771
O O12 0.127560 0.942588 0.424868
O O13 0.839890 0.250000 0.250000
O O14 0.876062 0.505223 0.292296
O O15 0.250000 0.750000 0.000000
#
# Coordination Sequence:
#
# PCOD9510569 Si02
#       7
#    16  16   8  16  16  16  16
#     4  12  25  47  75 106 146 190 245 299 364 448
#     4  11  25  45  74 105 143 195 243 295 368 442
#     4  12  26  46  72 104 144 194 246 296 356 434
#     4  12  26  46  74 105 146 189 239 308 365 432
#     4  12  26  47  71 103 147 191 242 301 361 431
#     4  12  22  46  72 100 141 192 241 289 361 427
#     4  12  27  45  74 108 144 188 240 301 370 428
#
# _framework density 21.331809
#
# number of rings (size 3 to 8) (size 9 to 14) (size 15 to 20)
#    0.000    0.154    6.154    2.769    2.154    2.462 
#    2.769    0.000    0.000    0.000    0.000    0.000 
#    0.000    0.000    0.000    0.000    0.000    0.000 
#
# Total GULP energy -291075.476562 kJ/mol
# GULP energy per Si atom -5597.605319 kJ/mol
# Density = 2.128326 g / cm^3
# Si number density = 21.331809 Si / 1000 Ang^3
#
#
#
# Elastic Constant Matrix: (Units=GPa)
#
#
# Indices 1 2 3 4 5 6 
#
# 1 157.6476 46.8126 27.2734 0.0000 0.0000 0.0000
# 2 46.8126 124.8258 27.8737 0.0000 0.0000 0.0000
# 3 27.2734 27.8737 49.6540 0.0000 0.0000 0.0000
# 4 0.0000 0.0000 0.0000 25.5747 0.0000 0.0000
# 5 0.0000 0.0000 0.0000 0.0000 25.1876 0.0000
# 6 0.0000 0.0000 0.0000 0.0000 0.0000 37.8323
#
#
#
# Elastic Compliance Matrix: (Units=1/GPa)
#
#
# Indices 1 2 3 4 5 6 
#
# 1 0.007486 -0.002160 -0.002899 0.000000 0.000000 0.000000
# 2 -0.002160 0.009783 -0.004305 0.000000 0.000000 0.000000
# 3 -0.002899 -0.004305 0.024149 0.000000 0.000000 0.000000
# 4 0.000000 0.000000 0.000000 0.039101 0.000000 0.000000
# 5 0.000000 0.000000 0.000000 0.000000 0.039702 0.000000
# 6 0.000000 0.000000 0.000000 0.000000 0.000000 0.026432
#
#
# Mechanical properties :
#
#
# Convention : Reuss Voigt Hill
#
# Bulk Modulus (GPa) = 44.07548 59.56075 51.81812
# Shear Modulus (GPa) = 28.91094 33.06344 30.98719
#
# Velocity S-wave (km/s) = 3.68543 3.94122 3.81547
# Velocity P-wave (km/s) = 6.23029 6.97802 6.61473
#
# Compressibility (1/GPa) = 0.02268835
#
# Stress axis : x y z
#
# Youngs Moduli (GPa) = 133.57745 102.22257 41.41031
#
# Poissons Ratio (x) = 0.22081 0.12006
# Poissons Ratio (y) = 0.28854 0.17827
# Poissons Ratio (z) = 0.38729 0.44007
#
# Static dielectric constant tensor:
#      x y z
#    x 1.753450 0.000000 0.000000 
#    y 0.000000 1.769180 0.000000 
#    z 0.000000 0.000000 1.778500 
# 
# From -- ./inp_files/41584.got.cif
#   From: 2010.05.17/outbox.cif.g08.bks.cpg/sg68_21_cif.got.tgz:41584.got - 2010.06.03 18:57:09.
