data_PCOD9510367
_publ_section_title
;
Structure prediction by ZEFSAII (Michael W. Deem and Ramdas Pophale) SiO2 
 PCOD9510367
Probable space group: C C C A
;
_chemical_formula_sum "Si O2"
_cell_formula_units_Z 64
_cell_length_a 8.632020
_cell_length_b 13.062277
_cell_length_c 24.943515
_cell_angle_alpha 90.000000
_cell_angle_beta 90.000000
_cell_angle_gamma 90.000000
_cell_volume 2812.477007
_symmetry_space_group_name_H-M "C C C A"
_symmetry_group_IT_number 68
_space_group.IT_coordinate_system_code '2'
_symmetry_cell_setting 'orthorhombic'
loop_
_space_group_symop_operation_xyz
x,y,z
-x,1/2-y,z
x,1/2-y,1/2-z
-x,y,1/2-z
-x,-y,-z
x,1/2+y,-z
-x,1/2+y,1/2+z
x,-y,1/2+z
1/2+x,1/2+y,z
1/2-x,-y,z
1/2+x,-y,1/2-z
1/2-x,1/2+y,1/2-z
1/2-x,1/2-y,-z
1/2+x,y,-z
1/2-x,y,1/2+z
1/2+x,1/2-y,1/2+z
loop_
_atom_site_type_symbol
_atom_site_label
_atom_site_fract_x
_atom_site_fract_y
_atom_site_fract_z
Si Si1 0.123547 0.326319 0.858223
Si Si2 0.423910 0.862890 0.196959
Si Si3 0.671492 0.207978 0.553535
Si Si4 0.086086 0.988482 0.891857
O O1 0.239080 0.364774 0.811664
O O2 0.228957 0.257910 0.898357
O O3 0.000000 0.250000 0.833169
O O4 0.021782 0.409783 0.892691
O O5 0.500000 0.750000 0.195615
O O6 0.500000 0.911446 0.250000
O O7 0.481791 0.916673 0.143912
O O8 0.500000 0.250000 0.554837
O O9 0.750000 0.250000 0.500000
O O10 0.646599 0.084858 0.559314
O O11 0.250000 0.000000 0.861543
#
# Coordination Sequence:
#
# PCOD9510367 Si02
#       4
#    16  16  16  16
#     4  12  23  46  74 104 148 191 240 306 366 434
#     4  11  23  45  73 105 145 189 239 300 368 441
#     4  12  26  47  70 105 144 187 248 305 365 444
#     4  12  24  44  72 102 145 190 238 303 369 435
#
# _framework density 22.755739999999999
#
# number of rings (size 3 to 8) (size 9 to 14) (size 15 to 20)
#    0.000    0.250    7.500    1.500    0.000    3.000 
#    0.000    7.500    0.000    0.000    0.000    0.000 
#    0.000    0.000    0.000    0.000    0.000    0.000 
#
# Total GULP energy -178252.215419 kJ/mol
# GULP energy per Si atom -5570.381732 kJ/mol
# Density = 2.270395 g / cm^3
# Si number density = 22.755740 Si / 1000 Ang^3
#
#
#
# Elastic Constant Matrix: (Units=GPa)
#
#
# Indices 1 2 3 4 5 6 
#
# 1 198.9167 60.5156 38.7383 0.0000 0.0000 0.0000
# 2 60.5156 118.0136 14.7870 0.0000 0.0000 0.0000
# 3 38.7383 14.7870 70.9777 0.0000 0.0000 0.0000
# 4 0.0000 0.0000 0.0000 -23.4274 0.0000 0.0000
# 5 0.0000 0.0000 0.0000 0.0000 28.0934 0.0000
# 6 0.0000 0.0000 0.0000 0.0000 0.0000 50.0659
#
#
#
# Elastic Compliance Matrix: (Units=1/GPa)
#
#
# Indices 1 2 3 4 5 6 
#
# 1 0.006500 -0.002966 -0.002930 0.000000 0.000000 0.000000
# 2 -0.002966 0.010054 -0.000476 0.000000 0.000000 0.000000
# 3 -0.002930 -0.000476 0.015787 0.000000 0.000000 0.000000
# 4 0.000000 0.000000 0.000000 -0.042685 0.000000 0.000000
# 5 0.000000 0.000000 0.000000 0.000000 0.035596 0.000000
# 6 0.000000 0.000000 0.000000 0.000000 0.000000 0.019974
#
#
# Mechanical properties :
#
#
# Convention : Reuss Voigt Hill
#
# Bulk Modulus (GPa) = 51.02515 68.44330 59.73423
# Shear Modulus (GPa) = 77.51760 29.20418 53.36089
#
# Velocity S-wave (km/s) = 5.84286 3.58631 4.84771
# Velocity P-wave (km/s) = 8.24563 6.87688 7.59216
#
# Compressibility (1/GPa) = 0.01959818
#
# Stress axis : x y z
#
# Youngs Moduli (GPa) = 153.84287 99.46119 63.34310
#
# Poissons Ratio (x) = 0.29501 0.18558
# Poissons Ratio (y) = 0.45631 0.03014
# Poissons Ratio (z) = 0.45072 0.04732
#
# Static dielectric constant tensor:
#      x y z
#    x 1.629200 0.000000 0.000000 
#    y 0.000000 2.026790 0.000000 
#    z 0.000000 0.000000 1.889020 
# 
# From -- ./inp_files/53788.got.cif
#   From: 2010.05.17/outbox.cif.g08.bks.cpg/sg68_27_cif.got.tgz:53788.got - 2010.06.03 18:57:09.
