data_PCOD9510317
_publ_section_title
;
Structure prediction by ZEFSAII (Michael W. Deem and Ramdas Pophale) SiO2 
 PCOD9510317
Probable space group: C C C A
;
_chemical_formula_sum "Si O2"
_cell_formula_units_Z 64
_cell_length_a 8.316648
_cell_length_b 21.920999
_cell_length_c 14.638968
_cell_angle_alpha 90.000000
_cell_angle_beta 90.000000
_cell_angle_gamma 90.000000
_cell_volume 2668.819021
_symmetry_space_group_name_H-M "C C C A"
_symmetry_group_IT_number 68
_space_group.IT_coordinate_system_code '2'
_symmetry_cell_setting 'orthorhombic'
loop_
_space_group_symop_operation_xyz
x,y,z
-x,1/2-y,z
x,1/2-y,1/2-z
-x,y,1/2-z
-x,-y,-z
x,1/2+y,-z
-x,1/2+y,1/2+z
x,-y,1/2+z
1/2+x,1/2+y,z
1/2-x,-y,z
1/2+x,-y,1/2-z
1/2-x,1/2+y,1/2-z
1/2-x,1/2-y,-z
1/2+x,y,-z
1/2-x,y,1/2+z
1/2+x,1/2-y,1/2+z
loop_
_atom_site_type_symbol
_atom_site_label
_atom_site_fract_x
_atom_site_fract_y
_atom_site_fract_z
Si Si1 0.000000 0.750000 0.902999
Si Si2 0.753394 0.750000 0.250000
Si Si3 0.624633 0.621166 0.463557
Si Si4 0.663345 0.882579 0.705631
Si Si5 0.690531 0.931028 0.376018
O O1 0.859295 0.770749 0.834222
O O2 0.933911 0.691431 0.956038
O O3 0.842642 0.690500 0.284389
O O4 0.777917 0.607753 0.397482
O O5 0.480518 0.580605 0.423184
O O6 0.679592 0.606979 0.565075
O O7 0.500000 0.908692 0.750000
O O8 0.802034 0.908059 0.772233
O O9 0.750000 0.000000 0.380544
#
# Coordination Sequence:
#
# PCOD9510317 Si02
#       5
#     8   8  16  16  16
#     4   9  18  38  70  96 131 170 216 285 346 402
#     4   9  17  38  66  96 132 166 220 274 346 404
#     4  11  24  45  69 100 136 179 230 286 345 404
#     4  11  23  42  67 100 133 179 225 284 349 408
#     4  12  26  44  66  98 137 184 231 279 338 414
#
# _framework density 23.980642
#
# number of rings (size 3 to 8) (size 9 to 14) (size 15 to 20)
#    0.000    1.250    2.500    3.375    0.000    4.000 
#    4.500    0.000    0.000    0.000    0.000    0.000 
#    0.000    0.000    0.000    0.000    0.000    0.000 
#
# Total GULP energy -179067.637704 kJ/mol
# GULP energy per Si atom -5595.863678 kJ/mol
# Density = 2.392606 g / cm^3
# Si number density = 23.980642 Si / 1000 Ang^3
#
#
#
# Elastic Constant Matrix: (Units=GPa)
#
#
# Indices 1 2 3 4 5 6 
#
# 1 85.7985 3.8488 -2.6241 0.0000 0.0000 0.0000
# 2 3.8488 89.4383 18.4292 0.0000 0.0000 0.0000
# 3 -2.6241 18.4292 100.6018 0.0000 0.0000 0.0000
# 4 0.0000 0.0000 0.0000 14.1103 0.0000 0.0000
# 5 0.0000 0.0000 0.0000 0.0000 29.8415 0.0000
# 6 0.0000 0.0000 0.0000 0.0000 0.0000 30.5310
#
#
#
# Elastic Compliance Matrix: (Units=1/GPa)
#
#
# Indices 1 2 3 4 5 6 
#
# 1 0.011694 -0.000588 0.000413 0.000000 0.000000 0.000000
# 2 -0.000588 0.011649 -0.002149 0.000000 0.000000 0.000000
# 3 0.000413 -0.002149 0.010345 0.000000 0.000000 0.000000
# 4 0.000000 0.000000 0.000000 0.070870 0.000000 0.000000
# 5 0.000000 0.000000 0.000000 0.000000 0.033510 0.000000
# 6 0.000000 0.000000 0.000000 0.000000 0.000000 0.032754
#
#
# Mechanical properties :
#
#
# Convention : Reuss Voigt Hill
#
# Bulk Modulus (GPa) = 34.43724 35.01628 34.72676
# Shear Modulus (GPa) = 27.00493 31.97553 29.49023
#
# Velocity S-wave (km/s) = 3.35940 3.65552 3.51059
# Velocity P-wave (km/s) = 5.42578 5.69655 5.56281
#
# Compressibility (1/GPa) = 0.02903833
#
# Stress axis : x y z
#
# Youngs Moduli (GPa) = 85.51227 85.84359 96.66795
#
# Poissons Ratio (x) = 0.05050 -0.03990
# Poissons Ratio (y) = 0.05031 0.20777
# Poissons Ratio (z) = -0.03530 0.18451
#
# Static dielectric constant tensor:
#      x y z
#    x 1.990280 0.000000 0.000000 
#    y 0.000000 1.881190 0.000000 
#    z 0.000000 0.000000 1.835920 
# 
# From -- ./inp_files/19260.got.cif
#   From: 2010.05.17/outbox.cif.g08.bks.cpg/sg68_10_cif.got.tgz:19260.got - 2010.06.03 18:57:09.
