data_PCOD9510303
_publ_section_title
;
Structure prediction by ZEFSAII (Michael W. Deem and Ramdas Pophale) SiO2 
 PCOD9510303
Probable space group: C C C A
;
_chemical_formula_sum "Si O2"
_cell_formula_units_Z 68
_cell_length_a 17.347737
_cell_length_b 20.707754
_cell_length_c 8.561436
_cell_angle_alpha 90.000000
_cell_angle_beta 90.000000
_cell_angle_gamma 90.000000
_cell_volume 3075.547515
_symmetry_space_group_name_H-M "C C C A"
_symmetry_group_IT_number 68
_space_group.IT_coordinate_system_code '2'
_symmetry_cell_setting 'orthorhombic'
loop_
_space_group_symop_operation_xyz
x,y,z
-x,1/2-y,z
x,1/2-y,1/2-z
-x,y,1/2-z
-x,-y,-z
x,1/2+y,-z
-x,1/2+y,1/2+z
x,-y,1/2+z
1/2+x,1/2+y,z
1/2-x,-y,z
1/2+x,-y,1/2-z
1/2-x,1/2+y,1/2-z
1/2-x,1/2-y,-z
1/2+x,y,-z
1/2-x,y,1/2+z
1/2+x,1/2-y,1/2+z
loop_
_atom_site_type_symbol
_atom_site_label
_atom_site_fract_x
_atom_site_fract_y
_atom_site_fract_z
Si Si1 0.869360 0.659651 0.136383
Si Si2 0.820551 0.049113 0.303841
Si Si3 0.085974 0.524078 0.514762
Si Si4 0.500000 0.250000 0.250000
Si Si5 0.731998 0.182211 0.672162
O O1 0.893890 0.586152 0.094314
O O2 0.823961 0.672257 0.300030
O O3 0.944801 0.704084 0.146260
O O4 0.809404 0.678456 0.996319
O O5 0.796774 0.121564 0.272845
O O6 0.750000 0.000000 0.271459
O O7 0.852527 0.031284 0.471616
O O8 0.893297 0.040175 0.191045
O O9 0.000000 0.500000 0.500000
O O10 0.711310 0.250000 0.750000
#
# Coordination Sequence:
#
# PCOD9510303 Si02
#       5
#    16  16  16   4  16
#     4  11  26  45  72 101 138 187 233 290 346 430
#     4  11  23  41  68  98 130 177 229 282 331 414
#     4  11  25  42  66 101 139 177 222 288 354 402
#     4  12  28  44  70 108 144 182 232 288 376 408
#     4  11  24  45  72 100 135 183 238 283 344 418
#
# _framework density 22.109885999999999
#
# number of rings (size 3 to 8) (size 9 to 14) (size 15 to 20)
#    0.000    0.941    3.529    2.118    6.588    1.882 
#    0.000    2.941    0.000    0.000    0.000    0.000 
#    0.000    0.000    0.000    0.000    0.000    0.000 
#
# Total GULP energy -189884.447019 kJ/mol
# GULP energy per Si atom -5584.836677 kJ/mol
# Density = 2.205956 g / cm^3
# Si number density = 22.109886 Si / 1000 Ang^3
#
#
#
# Elastic Constant Matrix: (Units=GPa)
#
#
# Indices 1 2 3 4 5 6 
#
# 1 148.2509 48.8118 42.9728 0.0000 0.0000 0.0000
# 2 48.8118 136.3684 35.7190 0.0000 0.0000 0.0000
# 3 42.9728 35.7190 59.1431 0.0000 0.0000 0.0000
# 4 0.0000 0.0000 0.0000 22.6698 0.0000 0.0000
# 5 0.0000 0.0000 0.0000 0.0000 23.9044 0.0000
# 6 0.0000 0.0000 0.0000 0.0000 0.0000 42.2727
#
#
#
# Elastic Compliance Matrix: (Units=1/GPa)
#
#
# Indices 1 2 3 4 5 6 
#
# 1 0.008891 -0.001770 -0.005391 0.000000 0.000000 0.000000
# 2 -0.001770 0.009064 -0.004188 0.000000 0.000000 0.000000
# 3 -0.005391 -0.004188 0.023354 0.000000 0.000000 0.000000
# 4 0.000000 0.000000 0.000000 0.044111 0.000000 0.000000
# 5 0.000000 0.000000 0.000000 0.000000 0.041833 0.000000
# 6 0.000000 0.000000 0.000000 0.000000 0.000000 0.023656
#
#
# Mechanical properties :
#
#
# Convention : Reuss Voigt Hill
#
# Bulk Modulus (GPa) = 53.73142 66.52996 60.13069
# Shear Modulus (GPa) = 27.80707 32.18664 29.99686
#
# Velocity S-wave (km/s) = 3.55022 3.81958 3.68736
# Velocity P-wave (km/s) = 6.41562 7.04331 6.73678
#
# Compressibility (1/GPa) = 0.01861108
#
# Stress axis : x y z
#
# Youngs Moduli (GPa) = 112.47555 110.33119 42.81904
#
# Poissons Ratio (x) = 0.19533 0.23083
# Poissons Ratio (y) = 0.19912 0.17931
# Poissons Ratio (z) = 0.60633 0.46202
#
# Static dielectric constant tensor:
#      x y z
#    x 1.826130 0.000000 0.000000 
#    y 0.000000 1.928260 0.000000 
#    z 0.000000 0.000000 1.807660 
# 
# From -- ./inp_files/5912.got.cif
#   From: 2010.05.17/outbox.cif.g08.bks.cpg/sg68_3_cif.got.tgz:5912.got - 2010.06.03 18:57:09.
