data_PCOD9510173
_publ_section_title
;
Structure prediction by ZEFSAII (Michael W. Deem and Ramdas Pophale) SiO2 
 PCOD9510173
Probable space group: C C C A
;
_chemical_formula_sum "Si O2"
_cell_formula_units_Z 72
_cell_length_a 4.908897
_cell_length_b 27.901172
_cell_length_c 24.256581
_cell_angle_alpha 90.000000
_cell_angle_beta 90.000000
_cell_angle_gamma 90.000000
_cell_volume 3322.277863
_symmetry_space_group_name_H-M "C C C A"
_symmetry_group_IT_number 68
_space_group.IT_coordinate_system_code '2'
_symmetry_cell_setting 'orthorhombic'
loop_
_space_group_symop_operation_xyz
x,y,z
-x,1/2-y,z
x,1/2-y,1/2-z
-x,y,1/2-z
-x,-y,-z
x,1/2+y,-z
-x,1/2+y,1/2+z
x,-y,1/2+z
1/2+x,1/2+y,z
1/2-x,-y,z
1/2+x,-y,1/2-z
1/2-x,1/2+y,1/2-z
1/2-x,1/2-y,-z
1/2+x,y,-z
1/2-x,y,1/2+z
1/2+x,1/2-y,1/2+z
loop_
_atom_site_type_symbol
_atom_site_label
_atom_site_fract_x
_atom_site_fract_y
_atom_site_fract_z
Si Si1 0.756811 0.782323 0.410617
Si Si2 0.566834 0.620129 0.036306
Si Si3 0.015275 0.654577 0.311646
Si Si4 0.750000 0.000000 0.212110
Si Si5 0.002025 0.407233 0.342857
O O1 0.500000 0.750000 0.395940
O O2 0.642350 0.825025 0.448485
O O3 0.880253 0.807574 0.356429
O O4 0.000000 0.750000 0.435594
O O5 0.597090 0.592236 0.093667
O O6 0.268100 0.609742 0.013865
O O7 0.238212 0.611794 0.309298
O O8 0.000000 0.674618 0.250000
O O9 0.733333 0.632534 0.333792
O O10 0.500000 0.017335 0.250000
O O11 0.621978 0.957005 0.176895
#
# Coordination Sequence:
#
# PCOD9510173 Si02
#       5
#    16  16  16   8  16
#     4  11  23  39  59  90 121 154 211 264 300 358
#     4  11  23  41  63  85 119 165 205 252 310 355
#     4  11  22  40  63  86 125 169 198 242 311 372
#     4  12  24  40  68 100 128 156 194 246 302 362
#     4  11  23  41  63  94 125 156 205 250 295 366
#
# _framework density 21.671878
#
# number of rings (size 3 to 8) (size 9 to 14) (size 15 to 20)
#    0.000    0.889    0.000   10.667    0.000    3.111 
#    0.000    4.444    0.000    0.000    0.000    0.000 
#    0.000    0.000    0.000    0.000    0.000    0.000 
#
# Total GULP energy -201472.495960 kJ/mol
# GULP energy per Si atom -5596.458221 kJ/mol
# Density = 2.162255 g / cm^3
# Si number density = 21.671878 Si / 1000 Ang^3
#
#
#
# Elastic Constant Matrix: (Units=GPa)
#
#
# Indices 1 2 3 4 5 6 
#
# 1 62.9741 19.8458 -1.2627 0.0000 0.0000 0.0000
# 2 19.8458 55.9242 8.3573 0.0000 0.0000 0.0000
# 3 -1.2627 8.3573 73.7293 0.0000 0.0000 0.0000
# 4 0.0000 0.0000 0.0000 18.1209 0.0000 0.0000
# 5 0.0000 0.0000 0.0000 0.0000 32.1946 0.0000
# 6 0.0000 0.0000 0.0000 0.0000 0.0000 39.7400
#
#
#
# Elastic Compliance Matrix: (Units=1/GPa)
#
#
# Indices 1 2 3 4 5 6 
#
# 1 0.017958 -0.006529 0.001048 0.000000 0.000000 0.000000
# 2 -0.006529 0.020563 -0.002443 0.000000 0.000000 0.000000
# 3 0.001048 -0.002443 0.013858 0.000000 0.000000 0.000000
# 4 0.000000 0.000000 0.000000 0.055185 0.000000 0.000000
# 5 0.000000 0.000000 0.000000 0.000000 0.031061 0.000000
# 6 0.000000 0.000000 0.000000 0.000000 0.000000 0.025164
#
#
# Mechanical properties :
#
#
# Convention : Reuss Voigt Hill
#
# Bulk Modulus (GPa) = 27.37417 27.38982 27.38199
# Shear Modulus (GPa) = 26.06678 29.05692 27.56185
#
# Velocity S-wave (km/s) = 3.47189 3.66562 3.57007
# Velocity P-wave (km/s) = 5.36010 5.53006 5.44574
#
# Compressibility (1/GPa) = 0.03653079
#
# Stress axis : x y z
#
# Youngs Moduli (GPa) = 55.68477 48.62997 72.16070
#
# Poissons Ratio (x) = 0.31752 -0.07560
# Poissons Ratio (y) = 0.36359 0.17627
# Poissons Ratio (z) = -0.05834 0.11879
#
# Static dielectric constant tensor:
#      x y z
#    x 1.782370 0.000000 0.000000 
#    y 0.000000 1.798510 0.000000 
#    z 0.000000 0.000000 1.785230 
# 
# From -- ./inp_files/48388.got.cif
#   From: 2010.05.17/outbox.cif.g08.bks.cpg/sg68_25_cif.got.tgz:48388.got - 2010.06.03 18:57:09.
