data_PCOD9510785
_publ_section_title
;
Structure prediction by ZEFSAII (Michael W. Deem and Ramdas Pophale) SiO2 
 PCOD9510785
Probable space group: C C C A
;
_chemical_formula_sum "Si O2"
_cell_formula_units_Z 72
_cell_length_a 14.896532
_cell_length_b 21.273520
_cell_length_c 9.797343
_cell_angle_alpha 90.000000
_cell_angle_beta 90.000000
_cell_angle_gamma 90.000000
_cell_volume 3104.794372
_symmetry_space_group_name_H-M "C C C A"
_symmetry_group_IT_number 68
_space_group.IT_coordinate_system_code '2'
_symmetry_cell_setting 'orthorhombic'
loop_
_space_group_symop_operation_xyz
x,y,z
-x,1/2-y,z
x,1/2-y,1/2-z
-x,y,1/2-z
-x,-y,-z
x,1/2+y,-z
-x,1/2+y,1/2+z
x,-y,1/2+z
1/2+x,1/2+y,z
1/2-x,-y,z
1/2+x,-y,1/2-z
1/2-x,1/2+y,1/2-z
1/2-x,1/2-y,-z
1/2+x,y,-z
1/2-x,y,1/2+z
1/2+x,1/2-y,1/2+z
loop_
_atom_site_type_symbol
_atom_site_label
_atom_site_fract_x
_atom_site_fract_y
_atom_site_fract_z
Si Si1 0.068570 0.943038 0.503924
Si Si2 0.000000 0.369829 0.750000
Si Si3 0.822159 0.313095 0.660070
Si Si4 0.250000 0.000000 0.461298
Si Si5 0.500000 0.859244 0.250000
Si Si6 0.687762 0.134861 0.634320
O O1 0.057255 0.910415 0.357068
O O2 0.169374 0.964193 0.534681
O O3 0.035759 0.898249 0.622276
O O4 0.000000 0.000000 0.500000
O O5 0.072550 0.330228 0.833952
O O6 0.811830 0.250000 0.750000
O O7 0.762269 0.358897 0.750621
O O8 0.792014 0.325610 0.504262
O O9 0.307231 0.940870 0.395408
O O10 0.405371 0.834223 0.310004
#
# Coordination Sequence:
#
# PCOD9510785 Si02
#       6
#    16   8  16   8   8  16
#     4  12  24  42  69 106 153 196 240 305 376 463
#     4  12  24  48  72 107 145 194 254 302 384 440
#     4  12  27  51  77 106 148 200 260 314 377 449
#     4  12  24  44  74 106 156 194 246 306 390 454
#     4  12  25  44  71 105 157 188 256 310 370 462
#     4  12  27  47  75 113 149 203 252 318 384 453
#
# _framework density 23.189941999999999
#
# number of rings (size 3 to 8) (size 9 to 14) (size 15 to 20)
#    0.000    0.000    6.667    3.000    0.000    3.556 
#    0.000    0.556    0.000    0.000    0.000    0.000 
#    0.000    0.000    0.000    0.000    0.000    0.000 
#
# Total GULP energy -200728.691161 kJ/mol
# GULP energy per Si atom -5575.796977 kJ/mol
# Density = 2.313716 g / cm^3
# Si number density = 23.189942 Si / 1000 Ang^3
#
#
#
# Elastic Constant Matrix: (Units=GPa)
#
#
# Indices 1 2 3 4 5 6 
#
# 1 127.6133 -9.6312 26.1393 0.0000 0.0000 0.0000
# 2 -9.6312 56.3489 15.1860 0.0000 0.0000 0.0000
# 3 26.1393 15.1860 145.7353 0.0000 0.0000 0.0000
# 4 0.0000 0.0000 0.0000 26.4035 0.0000 0.0000
# 5 0.0000 0.0000 0.0000 0.0000 49.2681 0.0000
# 6 0.0000 0.0000 0.0000 0.0000 0.0000 8.5533
#
#
#
# Elastic Compliance Matrix: (Units=1/GPa)
#
#
# Indices 1 2 3 4 5 6 
#
# 1 0.008324 0.001878 -0.001689 0.000000 0.000000 0.000000
# 2 0.001878 0.018683 -0.002284 0.000000 0.000000 0.000000
# 3 -0.001689 -0.002284 0.007403 0.000000 0.000000 0.000000
# 4 0.000000 0.000000 0.000000 0.037874 0.000000 0.000000
# 5 0.000000 0.000000 0.000000 0.000000 0.020297 0.000000
# 6 0.000000 0.000000 0.000000 0.000000 0.000000 0.116914
#
#
# Mechanical properties :
#
#
# Convention : Reuss Voigt Hill
#
# Bulk Modulus (GPa) = 33.09020 43.67618 38.38319
# Shear Modulus (GPa) = 22.34576 36.71190 29.52883
#
# Velocity S-wave (km/s) = 3.10755 3.98313 3.57227
# Velocity P-wave (km/s) = 5.21306 6.32683 5.79676
#
# Compressibility (1/GPa) = 0.03022043
#
# Stress axis : x y z
#
# Youngs Moduli (GPa) = 120.13772 53.52468 135.08788
#
# Poissons Ratio (x) = -0.10051 0.22811
# Poissons Ratio (y) = -0.22559 0.30849
# Poissons Ratio (z) = 0.20287 0.12223
#
# Static dielectric constant tensor:
#      x y z
#    x 1.904510 0.000000 0.000000 
#    y 0.000000 1.834510 0.000000 
#    z 0.000000 0.000000 1.333260 
# 
# From -- ./inp_files/5245.got.cif
#   From: 2010.05.17/outbox.cif.g08.bks.cpg/sg68_3_cif.got.tgz:5245.got - 2010.06.03 18:57:09.
