data_PCOD9510507
_publ_section_title
;
Structure prediction by ZEFSAII (Michael W. Deem and Ramdas Pophale) SiO2 
 PCOD9510507
Probable space group: C C C A
;
_chemical_formula_sum "Si O2"
_cell_formula_units_Z 64
_cell_length_a 14.118622
_cell_length_b 15.317157
_cell_length_c 11.478829
_cell_angle_alpha 90.000000
_cell_angle_beta 90.000000
_cell_angle_gamma 90.000000
_cell_volume 2482.378843
_symmetry_space_group_name_H-M "C C C A"
_symmetry_group_IT_number 68
_space_group.IT_coordinate_system_code '2'
_symmetry_cell_setting 'orthorhombic'
loop_
_space_group_symop_operation_xyz
x,y,z
-x,1/2-y,z
x,1/2-y,1/2-z
-x,y,1/2-z
-x,-y,-z
x,1/2+y,-z
-x,1/2+y,1/2+z
x,-y,1/2+z
1/2+x,1/2+y,z
1/2-x,-y,z
1/2+x,-y,1/2-z
1/2-x,1/2+y,1/2-z
1/2-x,1/2-y,-z
1/2+x,y,-z
1/2-x,y,1/2+z
1/2+x,1/2-y,1/2+z
loop_
_atom_site_type_symbol
_atom_site_label
_atom_site_fract_x
_atom_site_fract_y
_atom_site_fract_z
Si Si1 0.401916 0.968626 0.718147
Si Si2 0.606774 0.218452 0.979938
Si Si3 0.639162 0.522866 0.961327
Si Si4 0.777106 0.819754 0.341137
O O1 0.500000 0.919322 0.750000
O O2 0.390647 0.022718 0.838878
O O3 0.307517 0.911625 0.708124
O O4 0.410334 0.001722 0.585171
O O5 0.500000 0.250000 0.965340
O O6 0.667077 0.194269 0.865577
O O7 0.620015 0.127252 0.050113
O O8 0.664442 0.297094 0.042068
O O9 0.750000 0.500000 0.976426
O O10 0.811773 0.750000 0.250000
#
# Coordination Sequence:
#
# PCOD9510507 Si02
#       4
#    16  16  16  16
#     4  12  26  46  77 113 157 210 271 334 410 492
#     4  11  25  47  74 109 153 203 269 334 404 479
#     4  12  25  48  76 112 158 211 262 340 413 487
#     4  11  24  45  75 107 146 208 265 327 398 490
#
# _framework density 25.781721000000001
#
# number of rings (size 3 to 8) (size 9 to 14) (size 15 to 20)
#    0.000    0.500    5.000    3.000    0.000    0.500 
#    4.500    0.000    0.000    0.000    0.000    0.000 
#    0.000    0.000    0.000    0.000    0.000    0.000 
#
# Total GULP energy -178610.991721 kJ/mol
# GULP energy per Si atom -5581.593491 kJ/mol
# Density = 2.572304 g / cm^3
# Si number density = 25.781721 Si / 1000 Ang^3
#
#
#
# Elastic Constant Matrix: (Units=GPa)
#
#
# Indices 1 2 3 4 5 6 
#
# 1 196.7123 31.3595 55.2770 0.0000 0.0000 0.0000
# 2 31.3595 70.1031 29.4264 0.0000 0.0000 0.0000
# 3 55.2770 29.4264 205.4279 0.0000 0.0000 0.0000
# 4 0.0000 0.0000 0.0000 25.2594 0.0000 0.0000
# 5 0.0000 0.0000 0.0000 0.0000 41.5431 0.0000
# 6 0.0000 0.0000 0.0000 0.0000 0.0000 31.0949
#
#
#
# Elastic Compliance Matrix: (Units=1/GPa)
#
#
# Indices 1 2 3 4 5 6 
#
# 1 0.005764 -0.002051 -0.001257 0.000000 0.000000 0.000000
# 2 -0.002051 0.015907 -0.001727 0.000000 0.000000 0.000000
# 3 -0.001257 -0.001727 0.005454 0.000000 0.000000 0.000000
# 4 0.000000 0.000000 0.000000 0.039589 0.000000 0.000000
# 5 0.000000 0.000000 0.000000 0.000000 0.024071 0.000000
# 6 0.000000 0.000000 0.000000 0.000000 0.000000 0.032160
#
#
# Mechanical properties :
#
#
# Convention : Reuss Voigt Hill
#
# Bulk Modulus (GPa) = 58.63395 78.26323 68.44859
# Shear Modulus (GPa) = 36.04943 43.32485 39.68714
#
# Velocity S-wave (km/s) = 3.74338 4.10377 3.92771
# Velocity P-wave (km/s) = 6.44016 7.27163 6.86849
#
# Compressibility (1/GPa) = 0.01705497
#
# Stress axis : x y z
#
# Youngs Moduli (GPa) = 173.49837 62.86602 183.36766
#
# Poissons Ratio (x) = 0.12891 0.23053
# Poissons Ratio (y) = 0.35578 0.31664
# Poissons Ratio (z) = 0.21812 0.10856
#
# Static dielectric constant tensor:
#      x y z
#    x 2.020110 0.000000 0.000000 
#    y 0.000000 2.078580 0.000000 
#    z 0.000000 0.000000 2.094440 
# 
# From -- ./inp_files/12813.got.cif
#   From: 2010.05.17/outbox.cif.g08.bks.cpg/sg68_7_cif.got.tgz:12813.got - 2010.06.03 18:57:09.
