data_PCOD9510447
_publ_section_title
;
Structure prediction by ZEFSAII (Michael W. Deem and Ramdas Pophale) SiO2 
 PCOD9510447
Probable space group: C C C A
;
_chemical_formula_sum "Si O2"
_cell_formula_units_Z 80
_cell_length_a 16.043398
_cell_length_b 22.195024
_cell_length_c 9.511641
_cell_angle_alpha 90.000000
_cell_angle_beta 90.000000
_cell_angle_gamma 90.000000
_cell_volume 3386.939404
_symmetry_space_group_name_H-M "C C C A"
_symmetry_group_IT_number 68
_space_group.IT_coordinate_system_code '2'
_symmetry_cell_setting 'orthorhombic'
loop_
_space_group_symop_operation_xyz
x,y,z
-x,1/2-y,z
x,1/2-y,1/2-z
-x,y,1/2-z
-x,-y,-z
x,1/2+y,-z
-x,1/2+y,1/2+z
x,-y,1/2+z
1/2+x,1/2+y,z
1/2-x,-y,z
1/2+x,-y,1/2-z
1/2-x,1/2+y,1/2-z
1/2-x,1/2-y,-z
1/2+x,y,-z
1/2-x,y,1/2+z
1/2+x,1/2-y,1/2+z
loop_
_atom_site_type_symbol
_atom_site_label
_atom_site_fract_x
_atom_site_fract_y
_atom_site_fract_z
Si Si1 0.103103 0.691557 0.476790
Si Si2 0.679938 0.881123 0.185290
Si Si3 0.917179 0.171374 0.450507
Si Si4 0.055340 0.482163 0.135959
Si Si5 0.631269 0.103947 0.223512
O O1 0.183010 0.667278 0.560140
O O2 0.105326 0.763292 0.483680
O O3 0.099142 0.655356 0.330363
O O4 0.017710 0.673319 0.557884
O O5 0.630175 0.847147 0.309441
O O6 0.632824 0.937786 0.112927
O O7 0.769760 0.900437 0.239317
O O8 0.890491 0.123736 0.566464
O O9 0.088610 0.538912 0.227170
O O10 0.000000 0.447219 0.250000
O O11 0.000000 0.500000 0.000000
#
# Coordination Sequence:
#
# PCOD9510447 Si02
#       5
#    16  16  16  16  16
#     4  11  24  43  67  95 131 177 226 275 335 410
#     4  12  25  42  66  98 134 171 221 283 345 403
#     4  11  24  43  67  95 131 177 226 275 335 410
#     4  12  25  44  69  94 129 176 225 272 331 410
#     4  12  25  42  66  98 134 171 221 283 345 403
#
# _framework density 23.620145000000001
#
# number of rings (size 3 to 8) (size 9 to 14) (size 15 to 20)
#    0.000    0.400    0.000   10.200    0.000    8.000 
#    0.000    6.000    0.000    0.000    0.000    0.000 
#    0.000    0.000    0.000    0.000    0.000    0.000 
#
# Total GULP energy -223664.906594 kJ/mol
# GULP energy per Si atom -5591.622665 kJ/mol
# Density = 2.356638 g / cm^3
# Si number density = 23.620145 Si / 1000 Ang^3
#
#
#
# Elastic Constant Matrix: (Units=GPa)
#
#
# Indices 1 2 3 4 5 6 
#
# 1 107.4354 22.5173 -7.7552 0.0000 0.0000 0.0000
# 2 22.5173 102.8012 3.0024 0.0000 0.0000 0.0000
# 3 -7.7552 3.0024 72.9741 0.0000 0.0000 0.0000
# 4 0.0000 0.0000 0.0000 40.3394 0.0000 0.0000
# 5 0.0000 0.0000 0.0000 0.0000 30.3738 0.0000
# 6 0.0000 0.0000 0.0000 0.0000 0.0000 11.8301
#
#
#
# Elastic Compliance Matrix: (Units=1/GPa)
#
#
# Indices 1 2 3 4 5 6 
#
# 1 0.009849 -0.002191 0.001137 0.000000 0.000000 0.000000
# 2 -0.002191 0.010226 -0.000654 0.000000 0.000000 0.000000
# 3 0.001137 -0.000654 0.013851 0.000000 0.000000 0.000000
# 4 0.000000 0.000000 0.000000 0.024790 0.000000 0.000000
# 5 0.000000 0.000000 0.000000 0.000000 0.032923 0.000000
# 6 0.000000 0.000000 0.000000 0.000000 0.000000 0.084530
#
#
# Mechanical properties :
#
#
# Convention : Reuss Voigt Hill
#
# Bulk Modulus (GPa) = 32.77378 35.41553 34.09465
# Shear Modulus (GPa) = 26.34974 34.20506 30.27740
#
# Velocity S-wave (km/s) = 3.34363 3.80956 3.58417
# Velocity P-wave (km/s) = 5.36767 5.86316 5.62088
#
# Compressibility (1/GPa) = 0.03051220
#
# Stress axis : x y z
#
# Youngs Moduli (GPa) = 101.53223 97.78606 72.19597
#
# Poissons Ratio (x) = 0.21420 -0.08207
# Poissons Ratio (y) = 0.22241 0.04718
# Poissons Ratio (z) = -0.11542 0.06391
#
# Static dielectric constant tensor:
#      x y z
#    x 1.970840 0.000000 0.000000 
#    y 0.000000 1.865740 0.000000 
#    z 0.000000 0.000000 1.867830 
# 
# From -- ./inp_files/13195.got.cif
#   From: 2010.05.17/outbox.cif.g08.bks.cpg/sg68_7_cif.got.tgz:13195.got - 2010.06.03 18:57:09.
