data_PCOD9510014
_publ_section_title
;
Structure prediction by ZEFSAII (Michael W. Deem and Ramdas Pophale) SiO2 
 PCOD9510014
Probable space group: C C C A
;
_chemical_formula_sum "Si O2"
_cell_formula_units_Z 96
_cell_length_a 13.102492
_cell_length_b 14.729718
_cell_length_c 22.662560
_cell_angle_alpha 90.000000
_cell_angle_beta 90.000000
_cell_angle_gamma 90.000000
_cell_volume 4373.783708
_symmetry_space_group_name_H-M "C C C A"
_symmetry_group_IT_number 68
_space_group.IT_coordinate_system_code '2'
_symmetry_cell_setting 'orthorhombic'
loop_
_space_group_symop_operation_xyz
x,y,z
-x,1/2-y,z
x,1/2-y,1/2-z
-x,y,1/2-z
-x,-y,-z
x,1/2+y,-z
-x,1/2+y,1/2+z
x,-y,1/2+z
1/2+x,1/2+y,z
1/2-x,-y,z
1/2+x,-y,1/2-z
1/2-x,1/2+y,1/2-z
1/2-x,1/2-y,-z
1/2+x,y,-z
1/2-x,y,1/2+z
1/2+x,1/2-y,1/2+z
loop_
_atom_site_type_symbol
_atom_site_label
_atom_site_fract_x
_atom_site_fract_y
_atom_site_fract_z
Si Si1 0.858545 0.542251 0.728751
Si Si2 0.351508 0.453370 0.958354
Si Si3 0.897153 0.069021 0.585927
Si Si4 0.330591 0.102987 0.863185
Si Si5 0.195163 0.187279 0.140472
Si Si6 0.911730 0.400388 0.643164
O O1 0.750000 0.500000 0.710114
O O2 0.849290 0.565012 0.797113
O O3 0.866026 0.634571 0.691904
O O4 0.927799 0.463600 0.700937
O O5 0.250000 0.500000 0.985146
O O6 0.327074 0.365243 0.919929
O O7 0.384124 0.529299 0.910395
O O8 0.412224 0.422893 0.016057
O O9 0.784657 0.090809 0.611525
O O10 0.977371 0.130053 0.621739
O O11 0.905268 0.960274 0.598652
O O12 0.341977 0.210389 0.862493
O O13 0.317768 0.169676 0.150918
#
# Coordination Sequence:
#
# PCOD9510014 Si02
#       6
#    16  16  16  16  16  16
#     4   9  17  38  58  80 107 154 190 231 296 367
#     4   9  17  38  58  80 112 159 198 237 295 366
#     4  11  21  35  56  84 121 150 194 243 304 351
#     4  11  21  35  56  86 119 152 189 245 302 358
#     4   9  20  36  62  81 110 153 204 237 291 360
#     4   9  20  36  62  82 108 156 201 241 290 359
#
# _framework density 21.94896
#
# number of rings (size 3 to 8) (size 9 to 14) (size 15 to 20)
#    0.000    2.333    3.333    3.000    0.000    2.000 
#    0.000    3.333    3.667    6.000    0.000    0.000 
#    0.000    0.000    0.000    0.000    0.000    0.000 
#
# Total GULP energy -267428.706956 kJ/mol
# GULP energy per Si atom -5571.431395 kJ/mol
# Density = 2.189900 g / cm^3
# Si number density = 21.948960 Si / 1000 Ang^3
#
#
#
# Elastic Constant Matrix: (Units=GPa)
#
#
# Indices 1 2 3 4 5 6 
#
# 1 34.7027 -18.5173 10.3551 0.0000 0.0000 0.0000
# 2 -18.5173 75.2997 12.6578 0.0000 0.0000 0.0000
# 3 10.3551 12.6578 137.1632 0.0000 0.0000 0.0000
# 4 0.0000 0.0000 0.0000 8.3881 0.0000 0.0000
# 5 0.0000 0.0000 0.0000 0.0000 24.8916 0.0000
# 6 0.0000 0.0000 0.0000 0.0000 0.0000 13.7494
#
#
#
# Elastic Compliance Matrix: (Units=1/GPa)
#
#
# Indices 1 2 3 4 5 6 
#
# 1 0.034715 0.009119 -0.003462 0.000000 0.000000 0.000000
# 2 0.009119 0.015885 -0.002154 0.000000 0.000000 0.000000
# 3 -0.003462 -0.002154 0.007751 0.000000 0.000000 0.000000
# 4 0.000000 0.000000 0.000000 0.119216 0.000000 0.000000
# 5 0.000000 0.000000 0.000000 0.000000 0.040174 0.000000
# 6 0.000000 0.000000 0.000000 0.000000 0.000000 0.072730
#
#
# Mechanical properties :
#
#
# Convention : Reuss Voigt Hill
#
# Bulk Modulus (GPa) = 15.30092 28.46186 21.88139
# Shear Modulus (GPa) = 16.37991 25.58384 20.98188
#
# Velocity S-wave (km/s) = 2.73476 3.41780 3.09518
# Velocity P-wave (km/s) = 4.11803 5.34515 4.77120
#
# Compressibility (1/GPa) = 0.06535556
#
# Stress axis : x y z
#
# Youngs Moduli (GPa) = 28.80581 62.95286 129.01921
#
# Poissons Ratio (x) = -0.57407 0.44671
# Poissons Ratio (y) = -0.26268 0.27795
# Poissons Ratio (z) = 0.09974 0.13562
#
# Static dielectric constant tensor:
#      x y z
#    x 1.967710 0.000000 0.000000 
#    y 0.000000 1.804180 0.000000 
#    z 0.000000 0.000000 1.776320 
# 
# From -- ./inp_files/38568.got.cif
#   From: 2010.05.17/outbox.cif.g08.bks.cpg/sg68_20_cif.got.tgz:38568.got - 2010.06.03 18:57:09.
