data_PCOD9510252
_publ_section_title
;
Structure prediction by ZEFSAII (Michael W. Deem and Ramdas Pophale) SiO2 
 PCOD9510252
Probable space group: C C C A
;
_chemical_formula_sum "Si O2"
_cell_formula_units_Z 116
_cell_length_a 19.120561
_cell_length_b 18.282155
_cell_length_c 16.229160
_cell_angle_alpha 90.000000
_cell_angle_beta 90.000000
_cell_angle_gamma 90.000000
_cell_volume 5673.147287
_symmetry_space_group_name_H-M "C C C A"
_symmetry_group_IT_number 68
_space_group.IT_coordinate_system_code '2'
_symmetry_cell_setting 'orthorhombic'
loop_
_space_group_symop_operation_xyz
x,y,z
-x,1/2-y,z
x,1/2-y,1/2-z
-x,y,1/2-z
-x,-y,-z
x,1/2+y,-z
-x,1/2+y,1/2+z
x,-y,1/2+z
1/2+x,1/2+y,z
1/2-x,-y,z
1/2+x,-y,1/2-z
1/2-x,1/2+y,1/2-z
1/2-x,1/2-y,-z
1/2+x,y,-z
1/2-x,y,1/2+z
1/2+x,1/2-y,1/2+z
loop_
_atom_site_type_symbol
_atom_site_label
_atom_site_fract_x
_atom_site_fract_y
_atom_site_fract_z
Si Si1 0.392056 0.667481 0.367661
Si Si2 0.694044 0.819289 0.704394
Si Si3 0.557007 0.062581 0.012761
Si Si4 0.500000 0.250000 0.750000
Si Si5 0.035325 0.674669 0.160634
Si Si6 0.749368 0.920473 0.331644
Si Si7 0.688043 0.045767 0.512575
Si Si8 0.298765 0.702290 0.062620
O O1 0.430189 0.620108 0.438566
O O2 0.448830 0.697641 0.303345
O O3 0.326719 0.618228 0.333364
O O4 0.353671 0.739155 0.404076
O O5 0.726115 0.750000 0.750000
O O6 0.616066 0.805917 0.675860
O O7 0.696136 0.877512 0.776258
O O8 0.743530 0.830632 0.627621
O O9 0.537066 0.109438 0.094249
O O10 0.500000 0.000000 0.000000
O O11 0.627389 0.013987 0.014584
O O12 0.000000 0.750000 0.129813
O O13 0.000000 0.657042 0.250000
O O14 0.778286 0.931775 0.423795
O O15 0.750000 0.000000 0.293019
O O16 0.663280 0.126713 0.538302
O O17 0.750000 0.000000 0.557194
O O18 0.250000 0.750000 0.000000
#
# Coordination Sequence:
#
# PCOD9510252 Si02
#       8
#    16  16  16   4  16  16  16  16
#     4  12  25  51  70 109 147 198 249 307 369 465
#     4  12  22  40  69 106 133 182 232 299 368 424
#     4  12  29  47  72 103 147 199 245 301 386 456
#     4  12  32  48  72 108 162 208 256 296 388 488
#     4  11  26  47  70 102 146 189 249 306 363 452
#     4  11  23  44  75 103 146 181 239 315 372 433
#     4  11  22  46  70 110 143 182 240 306 370 437
#     4  12  23  41  79 105 136 182 245 310 362 434
#
# _framework density 20.447203999999999
#
# number of rings (size 3 to 8) (size 9 to 14) (size 15 to 20)
#    0.000    0.414    6.897    2.483    4.828    2.759 
#    3.724    0.000    0.000    0.000    0.000    0.000 
#    0.000    0.000    0.000    0.000    0.000    0.000 
#
# Total GULP energy -323323.141000 kJ/mol
# GULP energy per Si atom -5574.536914 kJ/mol
# Density = 2.040067 g / cm^3
# Si number density = 20.447204 Si / 1000 Ang^3
#
#
#
# Elastic Constant Matrix: (Units=GPa)
#
#
# Indices 1 2 3 4 5 6 
#
# 1 126.5156 53.7361 44.6855 0.0000 0.0000 0.0000
# 2 53.7361 177.5972 51.6481 0.0000 0.0000 0.0000
# 3 44.6855 51.6481 68.0109 0.0000 0.0000 0.0000
# 4 0.0000 0.0000 0.0000 8.3488 0.0000 0.0000
# 5 0.0000 0.0000 0.0000 0.0000 18.3967 0.0000
# 6 0.0000 0.0000 0.0000 0.0000 0.0000 31.5225
#
#
#
# Elastic Compliance Matrix: (Units=1/GPa)
#
#
# Indices 1 2 3 4 5 6 
#
# 1 0.010602 -0.001517 -0.005814 0.000000 0.000000 0.000000
# 2 -0.001517 0.007444 -0.004656 0.000000 0.000000 0.000000
# 3 -0.005814 -0.004656 0.022059 0.000000 0.000000 0.000000
# 4 0.000000 0.000000 0.000000 0.119777 0.000000 0.000000
# 5 0.000000 0.000000 0.000000 0.000000 0.054358 0.000000
# 6 0.000000 0.000000 0.000000 0.000000 0.000000 0.031723
#
#
# Mechanical properties :
#
#
# Convention : Reuss Voigt Hill
#
# Bulk Modulus (GPa) = 61.99206 74.69589 68.34398
# Shear Modulus (GPa) = 18.16109 26.45722 22.30915
#
# Velocity S-wave (km/s) = 2.98349 3.60102 3.30671
# Velocity P-wave (km/s) = 6.50017 7.34168 6.93370
#
# Compressibility (1/GPa) = 0.01613110
#
# Stress axis : x y z
#
# Youngs Moduli (GPa) = 94.32216 134.33942 45.33252
#
# Poissons Ratio (x) = 0.20381 0.26355
# Poissons Ratio (y) = 0.14310 0.21107
# Poissons Ratio (z) = 0.54836 0.62550
#
# Static dielectric constant tensor:
#      x y z
#    x 1.652370 0.000000 0.000000 
#    y 0.000000 1.899080 0.000000 
#    z 0.000000 0.000000 1.736320 
# 
# From -- ./inp_files/32170.got.cif
#   From: 2010.05.17/outbox.cif.g08.bks.cpg/sg68_17_cif.got.tgz:32170.got - 2010.06.03 18:57:09.
