data_PCOD9510066
_publ_section_title
;
Structure prediction by ZEFSAII (Michael W. Deem and Ramdas Pophale) SiO2 
 PCOD9510066
Probable space group: C C C A
;
_chemical_formula_sum "Si O2"
_cell_formula_units_Z 96
_cell_length_a 21.391656
_cell_length_b 12.804281
_cell_length_c 14.523189
_cell_angle_alpha 90.000000
_cell_angle_beta 90.000000
_cell_angle_gamma 90.000000
_cell_volume 3977.970808
_symmetry_space_group_name_H-M "C C C A"
_symmetry_group_IT_number 68
_space_group.IT_coordinate_system_code '2'
_symmetry_cell_setting 'orthorhombic'
loop_
_space_group_symop_operation_xyz
x,y,z
-x,1/2-y,z
x,1/2-y,1/2-z
-x,y,1/2-z
-x,-y,-z
x,1/2+y,-z
-x,1/2+y,1/2+z
x,-y,1/2+z
1/2+x,1/2+y,z
1/2-x,-y,z
1/2+x,-y,1/2-z
1/2-x,1/2+y,1/2-z
1/2-x,1/2-y,-z
1/2+x,y,-z
1/2-x,y,1/2+z
1/2+x,1/2-y,1/2+z
loop_
_atom_site_type_symbol
_atom_site_label
_atom_site_fract_x
_atom_site_fract_y
_atom_site_fract_z
Si Si1 0.946888 0.820286 0.517202
Si Si2 0.158979 0.456661 0.935604
Si Si3 0.813827 0.050605 0.638644
Si Si4 0.374228 0.173162 0.657167
Si Si5 0.259800 0.270394 0.391250
Si Si6 0.441575 0.549710 0.192767
O O1 0.899658 0.880250 0.451854
O O2 0.911488 0.734621 0.579078
O O3 0.000000 0.750000 0.470931
O O4 0.966121 0.906694 0.594433
O O5 0.181026 0.498462 0.036084
O O6 0.140373 0.557617 0.880039
O O7 0.209739 0.384177 0.886164
O O8 0.802189 0.174096 0.639944
O O9 0.881355 0.023111 0.679773
O O10 0.750000 0.000000 0.679169
O O11 0.307128 0.229766 0.657098
O O12 0.412863 0.147131 0.749354
O O13 0.250000 0.250000 0.500000
O O14 0.500000 0.507119 0.250000
#
# Coordination Sequence:
#
# PCOD9510066 Si02
#       6
#    16  16  16  16  16  16
#     4  11  22  40  66  94 130 172 223 276 329 393
#     4  11  22  39  64 100 134 167 217 278 336 395
#     4  11  21  40  66  98 133 173 219 280 340 393
#     4  12  23  39  65  96 134 172 220 273 333 399
#     4  12  20  39  68  97 131 165 215 276 333 399
#     4  11  25  44  65  96 136 179 226 280 333 400
#
# _framework density 24.132906999999999
#
# number of rings (size 3 to 8) (size 9 to 14) (size 15 to 20)
#    0.000    0.667    6.667    2.000    0.000    2.000 
#    3.000    2.500    0.000    1.000    0.000    0.000 
#    0.000    0.000    0.000    0.000    0.000    0.000 
#
# Total GULP energy -268730.753590 kJ/mol
# GULP energy per Si atom -5598.557366 kJ/mol
# Density = 2.407798 g / cm^3
# Si number density = 24.132907 Si / 1000 Ang^3
#
#
#
# Elastic Constant Matrix: (Units=GPa)
#
#
# Indices 1 2 3 4 5 6 
#
# 1 109.8125 3.7730 15.7506 0.0000 0.0000 0.0000
# 2 3.7730 91.5331 -11.8302 0.0000 0.0000 0.0000
# 3 15.7506 -11.8302 43.5737 0.0000 0.0000 0.0000
# 4 0.0000 0.0000 0.0000 16.6118 0.0000 0.0000
# 5 0.0000 0.0000 0.0000 0.0000 29.0633 0.0000
# 6 0.0000 0.0000 0.0000 0.0000 0.0000 49.1760
#
#
#
# Elastic Compliance Matrix: (Units=1/GPa)
#
#
# Indices 1 2 3 4 5 6 
#
# 1 0.009673 -0.000882 -0.003736 0.000000 0.000000 0.000000
# 2 -0.000882 0.011403 0.003414 0.000000 0.000000 0.000000
# 3 -0.003736 0.003414 0.025227 0.000000 0.000000 0.000000
# 4 0.000000 0.000000 0.000000 0.060198 0.000000 0.000000
# 5 0.000000 0.000000 0.000000 0.000000 0.034408 0.000000
# 6 0.000000 0.000000 0.000000 0.000000 0.000000 0.020335
#
#
# Mechanical properties :
#
#
# Convention : Reuss Voigt Hill
#
# Bulk Modulus (GPa) = 22.78076 28.92289 25.85183
# Shear Modulus (GPa) = 28.04565 34.78528 31.41546
#
# Velocity S-wave (km/s) = 3.41271 3.80070 3.61192
# Velocity P-wave (km/s) = 4.99889 5.59207 5.30378
#
# Compressibility (1/GPa) = 0.04389669
#
# Stress axis : x y z
#
# Youngs Moduli (GPa) = 103.38560 87.69896 39.64012
#
# Poissons Ratio (x) = 0.07731 0.14808
# Poissons Ratio (y) = 0.09114 -0.13535
# Poissons Ratio (z) = 0.38621 -0.29944
#
# Static dielectric constant tensor:
#      x y z
#    x 1.922250 0.000000 0.000000 
#    y 0.000000 1.940820 0.000000 
#    z 0.000000 0.000000 2.002770 
# 
# From -- ./inp_files/40243.got.cif
#   From: 2010.05.17/outbox.cif.g08.bks.cpg/sg68_21_cif.got.tgz:40243.got - 2010.06.03 18:57:09.
