data_PCOD9510474
_publ_section_title
;
Structure prediction by ZEFSAII (Michael W. Deem and Ramdas Pophale) SiO2 
 PCOD9510474
Probable space group: C C C A
;
_chemical_formula_sum "Si O2"
_cell_formula_units_Z 80
_cell_length_a 15.269297
_cell_length_b 25.325414
_cell_length_c 7.263405
_cell_angle_alpha 90.000000
_cell_angle_beta 90.000000
_cell_angle_gamma 90.000000
_cell_volume 2808.767924
_symmetry_space_group_name_H-M "C C C A"
_symmetry_group_IT_number 68
_space_group.IT_coordinate_system_code '2'
_symmetry_cell_setting 'orthorhombic'
loop_
_space_group_symop_operation_xyz
x,y,z
-x,1/2-y,z
x,1/2-y,1/2-z
-x,y,1/2-z
-x,-y,-z
x,1/2+y,-z
-x,1/2+y,1/2+z
x,-y,1/2+z
1/2+x,1/2+y,z
1/2-x,-y,z
1/2+x,-y,1/2-z
1/2-x,1/2+y,1/2-z
1/2-x,1/2-y,-z
1/2+x,y,-z
1/2-x,y,1/2+z
1/2+x,1/2-y,1/2+z
loop_
_atom_site_type_symbol
_atom_site_label
_atom_site_fract_x
_atom_site_fract_y
_atom_site_fract_z
Si Si1 0.156237 0.519726 0.576884
Si Si2 0.100500 0.734546 0.534732
Si Si3 0.475458 0.932946 0.973948
Si Si4 0.868147 0.655885 0.490488
Si Si5 0.692700 0.129780 0.391793
O O1 0.250000 0.500000 0.669173
O O2 0.385190 0.533992 0.485786
O O3 0.055323 0.543628 0.593966
O O4 0.189824 0.572994 0.482364
O O5 0.108443 0.750000 0.750000
O O6 0.146396 0.783654 0.435429
O O7 0.140714 0.678369 0.486492
O O8 0.000000 0.750000 0.487569
O O9 0.500000 0.936621 0.750000
O O10 0.459761 0.871775 0.035154
O O11 0.793617 0.644519 0.635604
O O12 0.848085 0.624526 0.306460
#
# Coordination Sequence:
#
# PCOD9510474 Si02
#       5
#    16  16  16  16  16
#     4  11  24  45  69 107 149 194 249 311 377 443
#     4  11  26  48  72 108 151 198 256 323 386 456
#     4  11  24  44  71 108 148 198 254 309 374 459
#     4  12  25  46  75 109 151 197 262 311 385 464
#     4  12  25  46  74 108 149 203 253 316 387 456
#
# _framework density 28.482239
#
# number of rings (size 3 to 8) (size 9 to 14) (size 15 to 20)
#    0.000    0.600    4.000    3.600    0.000    3.200 
#   10.800    0.000    0.000    0.000    0.000    0.000 
#    0.000    0.000    0.000    0.000    0.000    0.000 
#
# Total GULP energy -222734.729242 kJ/mol
# GULP energy per Si atom -5568.368231 kJ/mol
# Density = 2.841741 g / cm^3
# Si number density = 28.482239 Si / 1000 Ang^3
#
#
#
# Elastic Constant Matrix: (Units=GPa)
#
#
# Indices 1 2 3 4 5 6 
#
# 1 193.0996 52.3441 41.2557 0.0000 0.0000 0.0000
# 2 52.3441 179.9515 41.1243 0.0000 0.0000 0.0000
# 3 41.2557 41.1243 68.7216 0.0000 0.0000 0.0000
# 4 0.0000 0.0000 0.0000 19.1208 0.0000 0.0000
# 5 0.0000 0.0000 0.0000 0.0000 52.9671 0.0000
# 6 0.0000 0.0000 0.0000 0.0000 0.0000 44.7258
#
#
#
# Elastic Compliance Matrix: (Units=1/GPa)
#
#
# Indices 1 2 3 4 5 6 
#
# 1 0.006120 -0.001089 -0.003022 0.000000 0.000000 0.000000
# 2 -0.001089 0.006631 -0.003314 0.000000 0.000000 0.000000
# 3 -0.003022 -0.003314 0.018349 0.000000 0.000000 0.000000
# 4 0.000000 0.000000 0.000000 0.052299 0.000000 0.000000
# 5 0.000000 0.000000 0.000000 0.000000 0.018880 0.000000
# 6 0.000000 0.000000 0.000000 0.000000 0.000000 0.022358
#
#
# Mechanical properties :
#
#
# Convention : Reuss Voigt Hill
#
# Bulk Modulus (GPa) = 61.54344 79.02453 70.28398
# Shear Modulus (GPa) = 34.50548 43.83265 39.16907
#
# Velocity S-wave (km/s) = 3.48440 3.92720 3.71241
# Velocity P-wave (km/s) = 6.15163 6.95480 6.56551
#
# Compressibility (1/GPa) = 0.01624869
#
# Stress axis : x y z
#
# Youngs Moduli (GPa) = 163.40889 150.79834 54.49924
#
# Poissons Ratio (x) = 0.16429 0.16469
# Poissons Ratio (y) = 0.17803 0.18063
# Poissons Ratio (z) = 0.49379 0.49979
#
# Static dielectric constant tensor:
#      x y z
#    x 2.422110 0.000000 0.000000 
#    y 0.000000 2.521180 0.000000 
#    z 0.000000 0.000000 2.363570 
# 
# From -- ./inp_files/6257.got.cif
#   From: 2010.05.17/outbox.cif.g08.bks.cpg/sg68_4_cif.got.tgz:6257.got - 2010.06.03 18:57:09.
