data_PCOD9510198
_publ_section_title
;
Structure prediction by ZEFSAII (Michael W. Deem and Ramdas Pophale) SiO2 
 PCOD9510198
Probable space group: C C C A
;
_chemical_formula_sum "Si O2"
_cell_formula_units_Z 80
_cell_length_a 4.869228
_cell_length_b 29.738299
_cell_length_c 23.581722
_cell_angle_alpha 90.000000
_cell_angle_beta 90.000000
_cell_angle_gamma 90.000000
_cell_volume 3414.693671
_symmetry_space_group_name_H-M "C C C A"
_symmetry_group_IT_number 68
_space_group.IT_coordinate_system_code '2'
_symmetry_cell_setting 'orthorhombic'
loop_
_space_group_symop_operation_xyz
x,y,z
-x,1/2-y,z
x,1/2-y,1/2-z
-x,y,1/2-z
-x,-y,-z
x,1/2+y,-z
-x,1/2+y,1/2+z
x,-y,1/2+z
1/2+x,1/2+y,z
1/2-x,-y,z
1/2+x,-y,1/2-z
1/2-x,1/2+y,1/2-z
1/2-x,1/2-y,-z
1/2+x,y,-z
1/2-x,y,1/2+z
1/2+x,1/2-y,1/2+z
loop_
_atom_site_type_symbol
_atom_site_label
_atom_site_fract_x
_atom_site_fract_y
_atom_site_fract_z
Si Si1 0.379786 0.048238 0.381351
Si Si2 0.393967 0.203830 0.381361
Si Si3 0.127854 0.817426 0.690780
Si Si4 0.620309 0.076178 0.809828
Si Si5 0.425670 0.122880 0.037132
O O1 0.618733 0.049211 0.333593
O O2 0.506479 0.075405 0.433531
O O3 0.124160 0.074512 0.354949
O O4 0.250000 0.000000 0.395095
O O5 0.500000 0.250000 0.410246
O O6 0.084349 0.196491 0.359441
O O7 0.484477 0.162126 0.420310
O O8 0.581249 0.202345 0.325283
O O9 0.000000 0.803052 0.750000
O O10 0.184136 0.871021 0.695474
O O11 0.500000 0.059445 0.750000
O O12 0.111115 0.126520 0.019056
#
# Coordination Sequence:
#
# PCOD9510198 Si02
#       5
#    16  16  16  16  16
#     4  12  25  44  70 102 135 175 226 280 340 406
#     4  12  25  43  68 101 137 176 228 282 342 409
#     4  11  22  41  69 100 140 183 220 267 336 416
#     4  11  22  42  70 100 140 183 220 265 333 415
#     4  12  26  46  70  93 132 176 231 293 349 397
#
# _framework density 23.428163999999999
#
# number of rings (size 3 to 8) (size 9 to 14) (size 15 to 20)
#    0.000    0.400    4.000    4.800    0.000    8.800 
#    0.000    0.000    0.000    0.000    0.000    0.000 
#    0.000    0.000    0.000    0.000    0.000    0.000 
#
# Total GULP energy -223930.191896 kJ/mol
# GULP energy per Si atom -5598.254797 kJ/mol
# Density = 2.337484 g / cm^3
# Si number density = 23.428164 Si / 1000 Ang^3
#
#
#
# Elastic Constant Matrix: (Units=GPa)
#
#
# Indices 1 2 3 4 5 6 
#
# 1 95.8042 10.4911 5.4088 0.0000 0.0000 0.0000
# 2 10.4911 128.4192 28.5515 0.0000 0.0000 0.0000
# 3 5.4088 28.5515 68.4587 0.0000 0.0000 0.0000
# 4 0.0000 0.0000 0.0000 -21.7171 0.0000 0.0000
# 5 0.0000 0.0000 0.0000 0.0000 49.7546 0.0000
# 6 0.0000 0.0000 0.0000 0.0000 0.0000 36.3793
#
#
#
# Elastic Compliance Matrix: (Units=1/GPa)
#
#
# Indices 1 2 3 4 5 6 
#
# 1 0.010549 -0.000746 -0.000522 0.000000 0.000000 0.000000
# 2 -0.000746 0.008636 -0.003543 0.000000 0.000000 0.000000
# 3 -0.000522 -0.003543 0.016126 0.000000 0.000000 0.000000
# 4 0.000000 0.000000 0.000000 -0.046047 0.000000 0.000000
# 5 0.000000 0.000000 0.000000 0.000000 0.020099 0.000000
# 6 0.000000 0.000000 0.000000 0.000000 0.000000 0.027488
#
#
# Mechanical properties :
#
#
# Convention : Reuss Voigt Hill
#
# Bulk Modulus (GPa) = 38.92678 42.39831 40.66255
# Shear Modulus (GPa) = 90.85041 29.43209 60.14125
#
# Velocity S-wave (km/s) = 6.23398 3.54823 5.07210
# Velocity P-wave (km/s) = 8.27454 5.90957 7.18996
#
# Compressibility (1/GPa) = 0.02568925
#
# Stress axis : x y z
#
# Youngs Moduli (GPa) = 94.79480 115.80044 62.01120
#
# Poissons Ratio (x) = 0.08634 0.03240
# Poissons Ratio (y) = 0.07068 0.21968
# Poissons Ratio (z) = 0.04953 0.41024
#
# Static dielectric constant tensor:
#      x y z
#    x 1.844270 0.000000 0.000000 
#    y 0.000000 1.946690 0.000000 
#    z 0.000000 0.000000 1.904460 
# 
# From -- ./inp_files/42338.got.cif
#   From: 2010.05.17/outbox.cif.g08.bks.cpg/sg68_22_cif.got.tgz:42338.got - 2010.06.03 18:57:09.
