data_PCOD9510413
_publ_section_title
;
Structure prediction by ZEFSAII (Michael W. Deem and Ramdas Pophale) SiO2 
 PCOD9510413
Probable space group: C C C A
;
_chemical_formula_sum "Si O2"
_cell_formula_units_Z 100
_cell_length_a 22.409809
_cell_length_b 22.222809
_cell_length_c 9.184245
_cell_angle_alpha 90.000000
_cell_angle_beta 90.000000
_cell_angle_gamma 90.000000
_cell_volume 4573.835797
_symmetry_space_group_name_H-M "C C C A"
_symmetry_group_IT_number 68
_space_group.IT_coordinate_system_code '2'
_symmetry_cell_setting 'orthorhombic'
loop_
_space_group_symop_operation_xyz
x,y,z
-x,1/2-y,z
x,1/2-y,1/2-z
-x,y,1/2-z
-x,-y,-z
x,1/2+y,-z
-x,1/2+y,1/2+z
x,-y,1/2+z
1/2+x,1/2+y,z
1/2-x,-y,z
1/2+x,-y,1/2-z
1/2-x,1/2+y,1/2-z
1/2-x,1/2-y,-z
1/2+x,y,-z
1/2-x,y,1/2+z
1/2+x,1/2-y,1/2+z
loop_
_atom_site_type_symbol
_atom_site_label
_atom_site_fract_x
_atom_site_fract_y
_atom_site_fract_z
Si Si1 0.816195 0.250692 0.430061
Si Si2 0.192009 0.907071 0.745292
Si Si3 0.631617 0.976612 0.672465
Si Si4 0.057031 0.034590 0.559808
Si Si5 0.088517 0.156131 0.406231
Si Si6 0.198440 0.131068 0.929354
Si Si7 0.000000 0.750000 0.750000
O O1 0.816305 0.250000 0.250000
O O2 0.750000 0.250000 0.500000
O O3 0.859667 0.303788 0.480533
O O4 0.836253 0.189127 0.509091
O O5 0.126290 0.878966 0.780258
O O6 0.212557 0.901893 0.580565
O O7 0.182687 0.976700 0.781520
O O8 0.239629 0.868846 0.840197
O O9 0.572863 0.974861 0.772588
O O10 0.656071 0.909876 0.666884
O O11 0.612354 0.000722 0.516254
O O12 0.059862 0.103795 0.505139
O O13 0.000000 0.000000 0.500000
O O14 0.041970 0.204564 0.342519
#
# Coordination Sequence:
#
# PCOD9510413 Si02
#       7
#    16  16  16  16  16  16   4
#     4  12  23  44  68 105 148 193 240 293 366 456
#     4  11  24  41  65 104 141 183 233 293 365 457
#     4  11  25  43  68 102 140 184 238 296 374 434
#     4  11  26  46  71 100 140 187 247 310 364 439
#     4  11  25  43  72 103 141 189 256 286 383 426
#     4  12  23  40  69  99 150 182 232 294 367 441
#     4  12  24  44  72 108 142 192 240 332 330 468
#
# _framework density 21.863486999999999
#
# number of rings (size 3 to 8) (size 9 to 14) (size 15 to 20)
#    0.000    0.640    5.600    0.960    8.960    3.840 
#    0.000    0.000    0.000    0.000    0.000    0.000 
#    0.000    0.000    0.000    0.000    0.000    0.000 
#
# Total GULP energy -278811.130239 kJ/mol
# GULP energy per Si atom -5576.222605 kJ/mol
# Density = 2.181372 g / cm^3
# Si number density = 21.863487 Si / 1000 Ang^3
#
#
#
# Elastic Constant Matrix: (Units=GPa)
#
#
# Indices 1 2 3 4 5 6 
#
# 1 76.4465 42.9779 18.3322 0.0000 0.0000 0.0000
# 2 42.9779 142.5860 10.1867 0.0000 0.0000 0.0000
# 3 18.3322 10.1867 59.0295 0.0000 0.0000 0.0000
# 4 0.0000 0.0000 0.0000 28.7495 0.0000 0.0000
# 5 0.0000 0.0000 0.0000 0.0000 27.2029 0.0000
# 6 0.0000 0.0000 0.0000 0.0000 0.0000 35.0022
#
#
#
# Elastic Compliance Matrix: (Units=1/GPa)
#
#
# Indices 1 2 3 4 5 6 
#
# 1 0.016808 -0.004752 -0.004400 0.000000 0.000000 0.000000
# 2 -0.004752 0.008444 0.000018 0.000000 0.000000 0.000000
# 3 -0.004400 0.000018 0.018304 0.000000 0.000000 0.000000
# 4 0.000000 0.000000 0.000000 0.034783 0.000000 0.000000
# 5 0.000000 0.000000 0.000000 0.000000 0.036761 0.000000
# 6 0.000000 0.000000 0.000000 0.000000 0.000000 0.028570
#
#
# Mechanical properties :
#
#
# Convention : Reuss Voigt Hill
#
# Bulk Modulus (GPa) = 39.54188 46.78396 43.16292
# Shear Modulus (GPa) = 29.34870 31.96192 30.65531
#
# Velocity S-wave (km/s) = 3.66780 3.82761 3.74856
# Velocity P-wave (km/s) = 6.00517 6.40147 6.20648
#
# Compressibility (1/GPa) = 0.02528964
#
# Stress axis : x y z
#
# Youngs Moduli (GPa) = 59.49711 118.42373 54.63317
#
# Poissons Ratio (x) = 0.56272 0.24037
# Poissons Ratio (y) = 0.28272 -0.00101
# Poissons Ratio (z) = 0.26177 -0.00219
#
# Static dielectric constant tensor:
#      x y z
#    x 1.836060 0.000000 0.000000 
#    y 0.000000 1.954900 0.000000 
#    z 0.000000 0.000000 1.779380 
# 
# From -- ./inp_files/8996.got.cif
#   From: 2010.05.17/outbox.cif.g08.bks.cpg/sg68_5_cif.got.tgz:8996.got - 2010.06.03 18:57:09.
