data_PCOD9510289
_publ_section_title
;
Structure prediction by ZEFSAII (Michael W. Deem and Ramdas Pophale) SiO2 
 PCOD9510289
Probable space group: C C C A
;
_chemical_formula_sum "Si O2"
_cell_formula_units_Z 104
_cell_length_a 18.738372
_cell_length_b 8.543583
_cell_length_c 30.562919
_cell_angle_alpha 90.000000
_cell_angle_beta 90.000000
_cell_angle_gamma 90.000000
_cell_volume 4892.904393
_symmetry_space_group_name_H-M "C C C A"
_symmetry_group_IT_number 68
_space_group.IT_coordinate_system_code '2'
_symmetry_cell_setting 'orthorhombic'
loop_
_space_group_symop_operation_xyz
x,y,z
-x,1/2-y,z
x,1/2-y,1/2-z
-x,y,1/2-z
-x,-y,-z
x,1/2+y,-z
-x,1/2+y,1/2+z
x,-y,1/2+z
1/2+x,1/2+y,z
1/2-x,-y,z
1/2+x,-y,1/2-z
1/2-x,1/2+y,1/2-z
1/2-x,1/2-y,-z
1/2+x,y,-z
1/2-x,y,1/2+z
1/2+x,1/2-y,1/2+z
loop_
_atom_site_type_symbol
_atom_site_label
_atom_site_fract_x
_atom_site_fract_y
_atom_site_fract_z
Si Si1 0.285766 0.334810 0.708908
Si Si2 0.228187 0.820267 0.126273
Si Si3 0.194881 0.277504 0.538765
Si Si4 0.500000 0.750000 0.471907
Si Si5 0.420093 0.221219 0.175499
Si Si6 0.579120 0.495187 0.754325
Si Si7 0.100406 0.999919 0.019694
O O1 0.247609 0.250000 0.750000
O O2 0.250000 0.500000 0.699253
O O3 0.278543 0.230528 0.666447
O O4 0.363259 0.379277 0.726300
O O5 0.236130 0.707164 0.084209
O O6 0.146698 0.786694 0.142830
O O7 0.250000 0.000000 0.117177
O O8 0.250000 0.250000 0.500000
O O9 0.141547 0.410782 0.520181
O O10 0.154149 0.111914 0.545025
O O11 0.440299 0.633355 0.452101
O O12 0.454713 0.873155 0.500300
O O13 0.500000 0.250000 0.155297
O O14 0.419142 0.362694 0.210610
O O15 0.408677 0.068949 0.206321
O O16 0.500000 0.430021 0.750000
#
# Coordination Sequence:
#
# PCOD9510289 Si02
#       7
#    16  16  16   8  16  16  16
#     4  12  23  37  62  96 130 169 217 269 330 399
#     4  12  25  41  63  96 134 175 227 283 343 410
#     4  11  23  41  64  92 130 179 226 286 348 415
#     4   8  16  34  64  96 116 160 210 286 340 410
#     4   9  18  38  62  92 127 171 214 261 327 404
#     4   9  18  36  64  90 127 169 208 256 326 398
#     4   9  18  37  63  91 124 162 224 274 351 405
#
# _framework density 21.255268999999998
#
# number of rings (size 3 to 8) (size 9 to 14) (size 15 to 20)
#    0.000    1.846    1.538    4.615    0.000    1.538 
#    8.308    0.000    0.000    0.000    0.000    0.000 
#    0.000    0.000    0.000    0.000    0.000    0.000 
#
# Total GULP energy -289643.612093 kJ/mol
# GULP energy per Si atom -5570.069463 kJ/mol
# Density = 2.120689 g / cm^3
# Si number density = 21.255269 Si / 1000 Ang^3
#
#
#
# Elastic Constant Matrix: (Units=GPa)
#
#
# Indices 1 2 3 4 5 6 
#
# 1 121.8492 30.5692 23.3980 0.0000 0.0000 0.0000
# 2 30.5692 88.6784 16.0517 0.0000 0.0000 0.0000
# 3 23.3980 16.0517 87.4105 0.0000 0.0000 0.0000
# 4 0.0000 0.0000 0.0000 10.6201 0.0000 0.0000
# 5 0.0000 0.0000 0.0000 0.0000 13.1991 0.0000
# 6 0.0000 0.0000 0.0000 0.0000 0.0000 39.5262
#
#
#
# Elastic Compliance Matrix: (Units=1/GPa)
#
#
# Indices 1 2 3 4 5 6 
#
# 1 0.009299 -0.002850 -0.001966 0.000000 0.000000 0.000000
# 2 -0.002850 0.012538 -0.001540 0.000000 0.000000 0.000000
# 3 -0.001966 -0.001540 0.012249 0.000000 0.000000 0.000000
# 4 0.000000 0.000000 0.000000 0.094161 0.000000 0.000000
# 5 0.000000 0.000000 0.000000 0.000000 0.075763 0.000000
# 6 0.000000 0.000000 0.000000 0.000000 0.000000 0.025300
#
#
# Mechanical properties :
#
#
# Convention : Reuss Voigt Hill
#
# Bulk Modulus (GPa) = 46.78195 48.66401 47.72298
# Shear Modulus (GPa) = 20.06860 27.86370 23.96615
#
# Velocity S-wave (km/s) = 3.07607 3.62457 3.36153
# Velocity P-wave (km/s) = 5.88843 6.36093 6.12924
#
# Compressibility (1/GPa) = 0.02137576
#
# Stress axis : x y z
#
# Youngs Moduli (GPa) = 107.53474 79.75902 81.63786
#
# Poissons Ratio (x) = 0.22730 0.16049
# Poissons Ratio (y) = 0.30645 0.12569
# Poissons Ratio (z) = 0.21140 0.12279
#
# Static dielectric constant tensor:
#      x y z
#    x 1.830700 0.000000 0.000000 
#    y 0.000000 1.825110 0.000000 
#    z 0.000000 0.000000 1.793280 
# 
# From -- ./inp_files/55814.got.cif
#   From: 2010.05.17/outbox.cif.g08.bks.cpg/sg68_28_cif.got.tgz:55814.got - 2010.06.03 18:57:09.
