data_PCOD9510286
_publ_section_title
;
Structure prediction by ZEFSAII (Michael W. Deem and Ramdas Pophale) SiO2 
 PCOD9510286
Probable space group: C C C A
;
_chemical_formula_sum "Si O2"
_cell_formula_units_Z 72
_cell_length_a 10.561610
_cell_length_b 12.166857
_cell_length_c 29.162152
_cell_angle_alpha 90.000000
_cell_angle_beta 90.000000
_cell_angle_gamma 90.000000
_cell_volume 3747.383149
_symmetry_space_group_name_H-M "C C C A"
_symmetry_group_IT_number 68
_space_group.IT_coordinate_system_code '2'
_symmetry_cell_setting 'orthorhombic'
loop_
_space_group_symop_operation_xyz
x,y,z
-x,1/2-y,z
x,1/2-y,1/2-z
-x,y,1/2-z
-x,-y,-z
x,1/2+y,-z
-x,1/2+y,1/2+z
x,-y,1/2+z
1/2+x,1/2+y,z
1/2-x,-y,z
1/2+x,-y,1/2-z
1/2-x,1/2+y,1/2-z
1/2-x,1/2-y,-z
1/2+x,y,-z
1/2-x,y,1/2+z
1/2+x,1/2-y,1/2+z
loop_
_atom_site_type_symbol
_atom_site_label
_atom_site_fract_x
_atom_site_fract_y
_atom_site_fract_z
Si Si1 0.271467 0.377863 0.402867
Si Si2 0.000000 0.250000 0.942480
Si Si3 0.630171 0.072824 0.997985
Si Si4 0.363388 0.922849 0.252445
Si Si5 0.138077 0.755795 0.828710
O O1 0.250000 0.500000 0.381851
O O2 0.413542 0.341713 0.416973
O O3 0.179735 0.387859 0.447684
O O4 0.233192 0.285602 0.366537
O O5 0.901070 0.319663 0.972690
O O6 0.750000 0.000000 0.015257
O O7 0.500000 0.000000 0.000000
O O8 0.500000 0.979293 0.250000
O O9 0.368680 0.829264 0.213705
O O10 0.340899 0.870035 0.302595
O O11 0.250000 0.000000 0.240803
O O12 0.000000 0.750000 0.851007
#
# Coordination Sequence:
#
# PCOD9510286 Si02
#       5
#    16   8  16  16  16
#     4  11  23  41  62  91 128 162 214 268 315 377
#     4  12  24  44  64  93 128 171 220 264 324 384
#     4  11  23  42  66  92 123 173 217 262 330 377
#     4   9  18  39  63  89 122 158 203 249 317 384
#     4   9  20  38  62  88 120 165 202 252 320 378
#
# _framework density 19.213407
#
# number of rings (size 3 to 8) (size 9 to 14) (size 15 to 20)
#    0.000    1.778    4.444    2.667    1.556    0.000 
#   12.000    1.111    0.000    0.000    0.000    0.000 
#    0.000    0.000    0.000    0.000    0.000    0.000 
#
# Total GULP energy -200415.934480 kJ/mol
# GULP energy per Si atom -5567.109291 kJ/mol
# Density = 1.916968 g / cm^3
# Si number density = 19.213407 Si / 1000 Ang^3
#
#
#
# Elastic Constant Matrix: (Units=GPa)
#
#
# Indices 1 2 3 4 5 6 
#
# 1 124.5841 36.5788 25.2236 0.0000 0.0000 0.0000
# 2 36.5788 58.8074 -0.7484 0.0000 0.0000 0.0000
# 3 25.2236 -0.7484 50.5490 0.0000 0.0000 0.0000
# 4 0.0000 0.0000 0.0000 3.0852 0.0000 0.0000
# 5 0.0000 0.0000 0.0000 0.0000 15.5672 0.0000
# 6 0.0000 0.0000 0.0000 0.0000 0.0000 42.8721
#
#
#
# Elastic Compliance Matrix: (Units=1/GPa)
#
#
# Indices 1 2 3 4 5 6 
#
# 1 0.011265 -0.007080 -0.005726 0.000000 0.000000 0.000000
# 2 -0.007080 0.021457 0.003850 0.000000 0.000000 0.000000
# 3 -0.005726 0.003850 0.022697 0.000000 0.000000 0.000000
# 4 0.000000 0.000000 0.000000 0.324131 0.000000 0.000000
# 5 0.000000 0.000000 0.000000 0.000000 0.064238 0.000000
# 6 0.000000 0.000000 0.000000 0.000000 0.000000 0.023325
#
#
# Mechanical properties :
#
#
# Convention : Reuss Voigt Hill
#
# Bulk Modulus (GPa) = 26.66044 39.56095 33.11069
# Shear Modulus (GPa) = 10.04974 23.83066 16.94020
#
# Velocity S-wave (km/s) = 2.28953 3.52563 2.97254
# Velocity P-wave (km/s) = 4.57114 6.09987 5.38998
#
# Compressibility (1/GPa) = 0.03750876
#
# Stress axis : x y z
#
# Youngs Moduli (GPa) = 88.77397 46.60433 44.05885
#
# Poissons Ratio (x) = 0.32994 0.25227
# Poissons Ratio (y) = 0.62848 -0.16964
# Poissons Ratio (z) = 0.50830 -0.17944
#
# Static dielectric constant tensor:
#      x y z
#    x 1.826930 0.000000 0.000000 
#    y 0.000000 1.710380 0.000000 
#    z 0.000000 0.000000 1.671910 
# 
# From -- ./inp_files/48953.got.cif
#   From: 2010.05.17/outbox.cif.g08.bks.cpg/sg68_25_cif.got.tgz:48953.got - 2010.06.03 18:57:09.
