data_PCOD9510061
_publ_section_title
;
Structure prediction by ZEFSAII (Michael W. Deem and Ramdas Pophale) SiO2 
 PCOD9510061
Probable space group: C C C A
;
_chemical_formula_sum "Si O2"
_cell_formula_units_Z 56
_cell_length_a 17.182851
_cell_length_b 11.299514
_cell_length_c 12.840282
_cell_angle_alpha 90.000000
_cell_angle_beta 90.000000
_cell_angle_gamma 90.000000
_cell_volume 2493.041745
_symmetry_space_group_name_H-M "C C C A"
_symmetry_group_IT_number 68
_space_group.IT_coordinate_system_code '2'
_symmetry_cell_setting 'orthorhombic'
loop_
_space_group_symop_operation_xyz
x,y,z
-x,1/2-y,z
x,1/2-y,1/2-z
-x,y,1/2-z
-x,-y,-z
x,1/2+y,-z
-x,1/2+y,1/2+z
x,-y,1/2+z
1/2+x,1/2+y,z
1/2-x,-y,z
1/2+x,-y,1/2-z
1/2-x,1/2+y,1/2-z
1/2-x,1/2-y,-z
1/2+x,y,-z
1/2-x,y,1/2+z
1/2+x,1/2-y,1/2+z
loop_
_atom_site_type_symbol
_atom_site_label
_atom_site_fract_x
_atom_site_fract_y
_atom_site_fract_z
Si Si1 0.056686 0.910692 0.154017
Si Si2 0.954442 0.359386 0.050057
Si Si3 0.814810 0.750000 0.250000
Si Si4 0.215682 0.868708 0.448902
O O1 0.131792 0.832894 0.176469
O O2 0.000000 0.884719 0.250000
O O3 0.066293 0.050265 0.142368
O O4 0.017817 0.885130 0.042153
O O5 0.000000 0.250000 0.100392
O O6 0.874523 0.362394 0.983719
O O7 0.772375 0.659019 0.326351
O O8 0.250000 0.750000 0.500000
O O9 0.250000 0.000000 0.474220
#
# Coordination Sequence:
#
# PCOD9510061 Si02
#       4
#    16  16   8  16
#     4  11  21  39  73 102 131 181 239 292 353 421
#     4  11  23  42  72 101 139 180 241 303 347 426
#     4  12  23  46  74 100 141 198 242 296 377 446
#     4  12  28  47  70 106 149 192 240 299 372 443
#
# _framework density 22.462520999999999
#
# number of rings (size 3 to 8) (size 9 to 14) (size 15 to 20)
#    0.000    0.571    5.714    2.143    4.000    4.000 
#    0.000    0.000    0.000    0.000    0.000    0.000 
#    0.000    0.000    0.000    0.000    0.000    0.000 
#
# Total GULP energy -155913.426131 kJ/mol
# GULP energy per Si atom -5568.336648 kJ/mol
# Density = 2.241140 g / cm^3
# Si number density = 22.462521 Si / 1000 Ang^3
#
#
#
# Elastic Constant Matrix: (Units=GPa)
#
#
# Indices 1 2 3 4 5 6 
#
# 1 45.0245 36.1670 5.6039 0.0000 0.0000 0.0000
# 2 36.1670 169.3613 43.7185 0.0000 0.0000 0.0000
# 3 5.6039 43.7185 64.4824 0.0000 0.0000 0.0000
# 4 0.0000 0.0000 0.0000 32.8548 0.0000 0.0000
# 5 0.0000 0.0000 0.0000 0.0000 17.8695 0.0000
# 6 0.0000 0.0000 0.0000 0.0000 0.0000 12.8309
#
#
#
# Elastic Compliance Matrix: (Units=1/GPa)
#
#
# Indices 1 2 3 4 5 6 
#
# 1 0.026998 -0.006254 0.001894 0.000000 0.000000 0.000000
# 2 -0.006254 0.008606 -0.005291 0.000000 0.000000 0.000000
# 3 0.001894 -0.005291 0.018931 0.000000 0.000000 0.000000
# 4 0.000000 0.000000 0.000000 0.030437 0.000000 0.000000
# 5 0.000000 0.000000 0.000000 0.000000 0.055961 0.000000
# 6 0.000000 0.000000 0.000000 0.000000 0.000000 0.077937
#
#
# Mechanical properties :
#
#
# Convention : Reuss Voigt Hill
#
# Bulk Modulus (GPa) = 28.38311 49.98300 39.18306
# Shear Modulus (GPa) = 20.00659 25.60296 22.80477
#
# Velocity S-wave (km/s) = 2.98764 3.37977 3.18973
# Velocity P-wave (km/s) = 4.95626 6.12621 5.57203
#
# Compressibility (1/GPa) = 0.03523222
#
# Stress axis : x y z
#
# Youngs Moduli (GPa) = 37.03928 116.19744 52.82357
#
# Poissons Ratio (x) = 0.72675 -0.10006
# Poissons Ratio (y) = 0.23166 0.27950
# Poissons Ratio (z) = -0.07016 0.61483
#
# Static dielectric constant tensor:
#      x y z
#    x 1.806340 0.000000 0.000000 
#    y 0.000000 2.365770 0.000000 
#    z 0.000000 0.000000 1.872820 
# 
# From -- ./inp_files/21583.got.cif
#   From: 2010.05.17/outbox.cif.g08.bks.cpg/sg68_11_cif.got.tgz:21583.got - 2010.06.03 18:57:09.
