data_PCOD9510959
_publ_section_title
;
Structure prediction by ZEFSAII (Michael W. Deem and Ramdas Pophale) SiO2 
 PCOD9510959
Probable space group: C C C A
;
_chemical_formula_sum "Si O2"
_cell_formula_units_Z 58
_cell_length_a 18.000000
_cell_length_b 18.000000
_cell_length_c 18.000000
_cell_angle_alpha 90.000000
_cell_angle_beta 90.000000
_cell_angle_gamma 90.000000
_cell_volume 5832.000000
_symmetry_space_group_name_H-M "C C C A"
_symmetry_group_IT_number 68
_space_group.IT_coordinate_system_code '2'
_symmetry_cell_setting 'orthorhombic'
loop_
_space_group_symop_operation_xyz
x,y,z
-x,1/2-y,z
x,1/2-y,1/2-z
-x,y,1/2-z
-x,-y,-z
x,1/2+y,-z
-x,1/2+y,1/2+z
x,-y,1/2+z
1/2+x,1/2+y,z
1/2-x,-y,z
1/2+x,-y,1/2-z
1/2-x,1/2+y,1/2-z
1/2-x,1/2-y,-z
1/2+x,y,-z
1/2-x,y,1/2+z
1/2+x,1/2-y,1/2+z
loop_
_atom_site_type_symbol
_atom_site_label
_atom_site_fract_x
_atom_site_fract_y
_atom_site_fract_z
Si Si1 0.000000 0.250000 0.250000
Si Si2 0.292721 0.922587 0.242745
Si Si3 0.924729 0.119430 0.157623
Si Si4 0.424601 0.289109 0.061359
Si Si5 0.286417 0.581177 0.428883
Si Si6 0.184857 0.184547 0.461077
Si Si7 0.291726 0.703197 0.672339
Si Si8 0.460131 0.429689 0.960783
O O1 0.950517 0.195984 0.197831
O O2 0.375312 0.923145 0.279815
O O3 0.289895 0.892781 0.157694
O O4 0.244285 0.871893 0.297218
O O5 0.250000 0.000000 0.240712
O O6 0.870301 0.133620 0.087662
O O7 0.997122 0.084333 0.117643
O O8 0.500000 0.250000 0.088133
O O9 0.370543 0.306766 0.130840
O O10 0.370704 0.239211 0.007042
O O11 0.458923 0.357490 0.014274
O O12 0.250000 0.500000 0.431372
O O13 0.239530 0.635749 0.484710
O O14 0.371738 0.564387 0.449700
O O15 0.235362 0.224187 0.396590
O O16 0.296313 0.750000 0.750000
O O17 0.500000 0.500000 0.000000
#
# Coordination Sequence:
#
# PCOD9510959 Si02
#       8
#     4  16  16  16  16  16  16  16
#     4  12  24  44  68 108 148 176 238 292 392 412
#     4  10  25  44  69 101 141 181 233 285 364 419
#     4  11  24  41  71 101 142 182 225 298 349 438
#     4  12  25  45  70 101 139 186 234 293 350 426
#     4  11  24  45  72 102 138 183 233 299 345 426
#     4  11  23  42  70 102 135 177 240 286 354 416
#     4  11  25  42  71 103 136 182 232 290 350 423
#     4  12  26  44  70 105 140 184 239 289 361 426
#
# _framework density 9.9451300000000007
#
# number of rings (size 3 to 8) (size 9 to 14) (size 15 to 20)
#    0.000    0.828    2.759    3.724    7.724    2.483 
#    0.000    0.000    0.000    0.000    0.000    0.000 
#    0.000    0.000    0.000    0.000    0.000    0.000 
#
# Total GULP energy -323508.099662 kJ/mol
# GULP energy per Si atom -5577.725856 kJ/mol
# Density = 0.992249 g / cm^3
# Si number density = 9.945130 Si / 1000 Ang^3
#
#
#
# Elastic Constant Matrix: (Units=GPa)
#
#
# Indices 1 2 3 4 5 6 
#
# 1 148.8937 42.1779 51.6598 0.0000 0.0000 0.0000
# 2 42.1779 82.0216 46.2465 0.0000 0.0000 0.0000
# 3 51.6598 46.2465 141.1296 0.0000 0.0000 0.0000
# 4 0.0000 0.0000 0.0000 37.4437 0.0000 0.0000
# 5 0.0000 0.0000 0.0000 0.0000 41.9334 0.0000
# 6 0.0000 0.0000 0.0000 0.0000 0.0000 46.2963
#
#
#
# Elastic Compliance Matrix: (Units=1/GPa)
#
#
# Indices 1 2 3 4 5 6 
#
# 1 0.008302 -0.003135 -0.002012 0.000000 0.000000 0.000000
# 2 -0.003135 0.016139 -0.004141 0.000000 0.000000 0.000000
# 3 -0.002012 -0.004141 0.009179 0.000000 0.000000 0.000000
# 4 0.000000 0.000000 0.000000 0.026707 0.000000 0.000000
# 5 0.000000 0.000000 0.000000 0.000000 0.023847 0.000000
# 6 0.000000 0.000000 0.000000 0.000000 0.000000 0.021600
#
#
# Mechanical properties :
#
#
# Convention : Reuss Voigt Hill
#
# Bulk Modulus (GPa) = 66.46825 72.46816 69.46820
# Shear Modulus (GPa) = 38.65051 40.59871 39.62461
#
# Velocity S-wave (km/s) = 4.41294 4.52279 4.46821
# Velocity P-wave (km/s) = 7.71074 7.98670 7.84993
#
# Compressibility (1/GPa) = 0.01504478
#
# Stress axis : x y z
#
# Youngs Moduli (GPa) = 120.44942 61.96241 108.94430
#
# Poissons Ratio (x) = 0.19425 0.21916
# Poissons Ratio (y) = 0.37761 0.45113
# Poissons Ratio (z) = 0.24231 0.25658
#
# Static dielectric constant tensor:
#      x y z
#    x 1.724610 0.000000 0.000000 
#    y 0.000000 1.752500 0.000000 
#    z 0.000000 0.000000 1.712070 
# 
# From -- ./inp_files/32163.got.cif
#   From: 2010.05.17/outbox.ucp.g08.bks.cvg/sg68_17_cif.got.tgz:32163.got - 2010.06.11 16:49:25.
