data_PCOD9510408
_publ_section_title
;
Structure prediction by ZEFSAII (Michael W. Deem and Ramdas Pophale) SiO2 
 PCOD9510408
Probable space group: C C C A
;
_chemical_formula_sum "Si O2"
_cell_formula_units_Z 96
_cell_length_a 18.740892
_cell_length_b 8.798282
_cell_length_c 28.724859
_cell_angle_alpha 90.000000
_cell_angle_beta 90.000000
_cell_angle_gamma 90.000000
_cell_volume 4736.374576
_symmetry_space_group_name_H-M "C C C A"
_symmetry_group_IT_number 68
_space_group.IT_coordinate_system_code '2'
_symmetry_cell_setting 'orthorhombic'
loop_
_space_group_symop_operation_xyz
x,y,z
-x,1/2-y,z
x,1/2-y,1/2-z
-x,y,1/2-z
-x,-y,-z
x,1/2+y,-z
-x,1/2+y,1/2+z
x,-y,1/2+z
1/2+x,1/2+y,z
1/2-x,-y,z
1/2+x,-y,1/2-z
1/2-x,1/2+y,1/2-z
1/2-x,1/2-y,-z
1/2+x,y,-z
1/2-x,y,1/2+z
1/2+x,1/2-y,1/2+z
loop_
_atom_site_type_symbol
_atom_site_label
_atom_site_fract_x
_atom_site_fract_y
_atom_site_fract_z
Si Si1 0.811262 0.610349 0.220951
Si Si2 0.608541 0.832341 0.873505
Si Si3 0.072774 0.417287 0.227594
Si Si4 0.543150 0.497657 0.376622
Si Si5 0.166969 0.991320 0.039408
Si Si6 0.922534 0.297537 0.465636
O O1 0.779981 0.750000 0.250000
O O2 0.750000 0.500000 0.203503
O O3 0.857534 0.663066 0.177389
O O4 0.861984 0.518923 0.256031
O O5 0.538556 0.940015 0.874510
O O6 0.586723 0.658837 0.883409
O O7 0.660653 0.897893 0.912627
O O8 0.080658 0.250000 0.250000
O O9 0.063494 0.422615 0.172147
O O10 0.000000 0.482626 0.250000
O O11 0.558262 0.609813 0.419062
O O12 0.250000 0.000000 0.025782
O O13 0.127856 0.153526 0.044737
O O14 0.120384 0.902363 0.001278
O O15 0.000000 0.250000 0.486205
#
# Coordination Sequence:
#
# PCOD9510408 Si02
#       6
#    16  16  16  16  16  16
#     4  12  25  46  66 100 141 193 231 287 351 425
#     4  11  24  44  72 100 143 178 238 289 359 421
#     4  11  24  40  69  98 138 176 233 284 342 410
#     4  11  24  43  71 107 133 184 233 297 352 421
#     4  12  27  48  73 105 141 190 231 299 362 436
#     4  12  26  46  74 105 143 181 242 295 362 424
#
# _framework density 20.268666
#
# number of rings (size 3 to 8) (size 9 to 14) (size 15 to 20)
#    0.000    0.500    5.000    3.000    7.000    0.333 
#    3.000    0.833    0.000    0.000    0.000    0.000 
#    0.000    0.000    0.000    0.000    0.000    0.000 
#
# Total GULP energy -268607.881877 kJ/mol
# GULP energy per Si atom -5595.997539 kJ/mol
# Density = 2.022253 g / cm^3
# Si number density = 20.268666 Si / 1000 Ang^3
#
#
#
# Elastic Constant Matrix: (Units=GPa)
#
#
# Indices 1 2 3 4 5 6 
#
# 1 112.4447 43.0417 20.8347 0.0000 0.0000 0.0000
# 2 43.0417 111.9607 41.9530 0.0000 0.0000 0.0000
# 3 20.8347 41.9530 108.9178 0.0000 0.0000 0.0000
# 4 0.0000 0.0000 0.0000 25.6252 0.0000 0.0000
# 5 0.0000 0.0000 0.0000 0.0000 -46.1563 0.0000
# 6 0.0000 0.0000 0.0000 0.0000 0.0000 30.5635
#
#
#
# Elastic Compliance Matrix: (Units=1/GPa)
#
#
# Indices 1 2 3 4 5 6 
#
# 1 0.010454 -0.003821 -0.000528 0.000000 0.000000 0.000000
# 2 -0.003821 0.011835 -0.003828 0.000000 0.000000 0.000000
# 3 -0.000528 -0.003828 0.010757 0.000000 0.000000 0.000000
# 4 0.000000 0.000000 0.000000 0.039024 0.000000 0.000000
# 5 0.000000 0.000000 0.000000 0.000000 -0.021665 0.000000
# 6 0.000000 0.000000 0.000000 0.000000 0.000000 0.032719
#
#
# Mechanical properties :
#
#
# Convention : Reuss Voigt Hill
#
# Bulk Modulus (GPa) = 59.90873 60.55358 60.23116
# Shear Modulus (GPa) = 47.60115 17.17273 32.38694
#
# Velocity S-wave (km/s) = 4.85140 2.91392 4.00169
# Velocity P-wave (km/s) = 7.81044 6.42352 7.15068
#
# Compressibility (1/GPa) = 0.01669206
#
# Stress axis : x y z
#
# Youngs Moduli (GPa) = 95.66028 84.49598 92.96653
#
# Poissons Ratio (x) = 0.32285 0.04908
# Poissons Ratio (y) = 0.36551 0.35584
# Poissons Ratio (z) = 0.05050 0.32342
#
# Static dielectric constant tensor:
#      x y z
#    x 1.709760 0.000000 0.000000 
#    y 0.000000 1.743040 0.000000 
#    z 0.000000 0.000000 1.679240 
# 
# From -- ./inp_files/51737.got.cif
#   From: 2010.05.17/outbox.cif.g08.bks.cpg/sg68_26_cif.got.tgz:51737.got - 2010.06.03 18:57:09.
