data_PCOD9510133
_publ_section_title
;
Structure prediction by ZEFSAII (Michael W. Deem and Ramdas Pophale) SiO2 
 PCOD9510133
Probable space group: C C C A
;
_chemical_formula_sum "Si O2"
_cell_formula_units_Z 60
_cell_length_a 27.054938
_cell_length_b 5.315052
_cell_length_c 18.958016
_cell_angle_alpha 90.000000
_cell_angle_beta 90.000000
_cell_angle_gamma 90.000000
_cell_volume 2726.132412
_symmetry_space_group_name_H-M "C C C A"
_symmetry_group_IT_number 68
_space_group.IT_coordinate_system_code '2'
_symmetry_cell_setting 'orthorhombic'
loop_
_space_group_symop_operation_xyz
x,y,z
-x,1/2-y,z
x,1/2-y,1/2-z
-x,y,1/2-z
-x,-y,-z
x,1/2+y,-z
-x,1/2+y,1/2+z
x,-y,1/2+z
1/2+x,1/2+y,z
1/2-x,-y,z
1/2+x,-y,1/2-z
1/2-x,1/2+y,1/2-z
1/2-x,1/2-y,-z
1/2+x,y,-z
1/2-x,y,1/2+z
1/2+x,1/2-y,1/2+z
loop_
_atom_site_type_symbol
_atom_site_label
_atom_site_fract_x
_atom_site_fract_y
_atom_site_fract_z
Si Si1 0.921833 0.930549 0.690765
Si Si2 0.719396 0.259438 0.599736
Si Si3 0.000000 0.750000 0.250000
Si Si4 0.673030 0.250000 0.750000
Si Si5 0.890700 0.241403 0.458213
O O1 0.945229 0.750000 0.750000
O O2 0.865994 0.961283 0.721595
O O3 0.916615 0.799805 0.615969
O O4 0.958587 0.158367 0.693061
O O5 0.750000 0.500000 0.573725
O O6 0.704619 0.313451 0.681622
O O7 0.667994 0.241360 0.558131
O O8 0.750000 0.000000 0.596959
O O9 0.902489 0.467055 0.511880
#
# Coordination Sequence:
#
# PCOD9510133 Si02
#       5
#    16  16   4   8  16
#     4   9  23  43  68  99 129 173 221 274 339 402
#     4  11  22  37  63  94 132 177 231 278 321 381
#     4  12  22  40  82  98 128 156 238 280 334 400
#     4   8  20  39  57  94 132 168 221 277 342 386
#     4  11  25  44  66  97 142 182 219 271 339 401
#
# _framework density 22.0092
#
# number of rings (size 3 to 8) (size 9 to 14) (size 15 to 20)
#    0.800    1.067    0.000    2.800    3.733    7.467 
#    0.000    1.333    0.000    0.000    0.000    0.000 
#    0.000    0.000    0.000    0.000    0.000    0.000 
#
# Total GULP energy -167190.153863 kJ/mol
# GULP energy per Si atom -5573.005129 kJ/mol
# Density = 2.195911 g / cm^3
# Si number density = 22.009200 Si / 1000 Ang^3
#
#
#
# Elastic Constant Matrix: (Units=GPa)
#
#
# Indices 1 2 3 4 5 6 
#
# 1 82.5374 27.6405 23.9016 0.0000 0.0000 0.0000
# 2 27.6405 70.2474 14.8658 0.0000 0.0000 0.0000
# 3 23.9016 14.8658 111.0196 0.0000 0.0000 0.0000
# 4 0.0000 0.0000 0.0000 20.6048 0.0000 0.0000
# 5 0.0000 0.0000 0.0000 0.0000 -100.2150 0.0000
# 6 0.0000 0.0000 0.0000 0.0000 0.0000 7.3167
#
#
#
# Elastic Compliance Matrix: (Units=1/GPa)
#
#
# Indices 1 2 3 4 5 6 
#
# 1 0.014569 -0.005216 -0.002438 0.000000 0.000000 0.000000
# 2 -0.005216 0.016518 -0.001089 0.000000 0.000000 0.000000
# 3 -0.002438 -0.001089 0.009678 0.000000 0.000000 0.000000
# 4 0.000000 0.000000 0.000000 0.048532 0.000000 0.000000
# 5 0.000000 0.000000 0.000000 0.000000 -0.009979 0.000000
# 6 0.000000 0.000000 0.000000 0.000000 0.000000 0.136674
#
#
# Mechanical properties :
#
#
# Convention : Reuss Voigt Hill
#
# Bulk Modulus (GPa) = 42.95792 44.06890 43.51341
# Shear Modulus (GPa) = 20.72632 -1.29895 9.71369
#
# Velocity S-wave (km/s) = 3.07206 -0.76907 2.10310
# Velocity P-wave (km/s) = 5.66956 4.39065 5.07059
#
# Compressibility (1/GPa) = 0.02327860
#
# Stress axis : x y z
#
# Youngs Moduli (GPa) = 68.64059 60.53875 103.32612
#
# Poissons Ratio (x) = 0.31580 0.25191
# Poissons Ratio (y) = 0.35806 0.11250
# Poissons Ratio (z) = 0.16735 0.06591
#
# Static dielectric constant tensor:
#      x y z
#    x 1.799540 0.000000 0.000000 
#    y 0.000000 2.028190 0.000000 
#    z 0.000000 0.000000 1.813430 
# 
# From -- ./inp_files/41480.got.cif
#   From: 2010.05.17/outbox.cif.g08.bks.cpg/sg68_21_cif.got.tgz:41480.got - 2010.06.03 18:57:09.
