data_PCOD9510733
_publ_section_title
;
Structure prediction by ZEFSAII (Michael W. Deem and Ramdas Pophale) SiO2 
 PCOD9510733
Probable space group: C C C A
;
_chemical_formula_sum "Si O2"
_cell_formula_units_Z 112
_cell_length_a 26.811900
_cell_length_b 11.870259
_cell_length_c 15.260467
_cell_angle_alpha 90.000000
_cell_angle_beta 90.000000
_cell_angle_gamma 90.000000
_cell_volume 4856.860280
_symmetry_space_group_name_H-M "C C C A"
_symmetry_group_IT_number 68
_space_group.IT_coordinate_system_code '2'
_symmetry_cell_setting 'orthorhombic'
loop_
_space_group_symop_operation_xyz
x,y,z
-x,1/2-y,z
x,1/2-y,1/2-z
-x,y,1/2-z
-x,-y,-z
x,1/2+y,-z
-x,1/2+y,1/2+z
x,-y,1/2+z
1/2+x,1/2+y,z
1/2-x,-y,z
1/2+x,-y,1/2-z
1/2-x,1/2+y,1/2-z
1/2-x,1/2-y,-z
1/2+x,y,-z
1/2-x,y,1/2+z
1/2+x,1/2-y,1/2+z
loop_
_atom_site_type_symbol
_atom_site_label
_atom_site_fract_x
_atom_site_fract_y
_atom_site_fract_z
Si Si1 0.913803 0.696073 0.841485
Si Si2 0.621283 0.919105 0.850675
Si Si3 0.274484 0.309734 0.338711
Si Si4 0.942048 0.753017 0.462850
Si Si5 0.891714 0.562447 0.345697
Si Si6 0.668891 0.646306 0.129147
Si Si7 0.290775 0.905239 0.939800
O O1 0.932974 0.750000 0.750000
O O2 0.915955 0.561146 0.845019
O O3 0.855685 0.734834 0.848190
O O4 0.936407 0.743919 0.931987
O O5 0.677852 0.878427 0.870675
O O6 0.585489 0.862491 0.921536
O O7 0.605288 0.887573 0.752288
O O8 0.627391 0.053411 0.848418
O O9 0.290232 0.250000 0.250000
O O10 0.222212 0.372101 0.324747
O O11 0.264705 0.206872 0.404105
O O12 0.916338 0.646417 0.415686
O O13 0.000000 0.750000 0.440263
O O14 0.833293 0.554708 0.372044
O O15 0.680985 0.629178 0.027779
O O16 0.250000 0.000000 0.956560
#
# Coordination Sequence:
#
# PCOD9510733 Si02
#       7
#    16  16  16  16  16  16  16
#     4  12  26  50  77 113 156 197 251 316 391 463
#     4  12  24  47  74 109 155 198 256 316 373 453
#     4  12  23  38  64 106 153 198 253 297 360 444
#     4  12  29  54  82 111 145 197 261 323 392 461
#     4  12  25  48  78 110 156 200 251 322 380 454
#     4  12  25  44  69 108 153 208 247 300 371 457
#     4  12  24  41  66 105 155 206 255 304 363 442
#
# _framework density 23.060165000000001
#
# number of rings (size 3 to 8) (size 9 to 14) (size 15 to 20)
#    0.000    0.000    5.714    4.286    2.000    2.000 
#    0.000    1.429    0.000    0.000    0.000    0.000 
#    0.000    0.000    0.000    0.000    0.000    0.000 
#
# Total GULP energy -313458.047982 kJ/mol
# GULP energy per Si atom -5597.465143 kJ/mol
# Density = 2.300768 g / cm^3
# Si number density = 23.060165 Si / 1000 Ang^3
#
#
#
# Elastic Constant Matrix: (Units=GPa)
#
#
# Indices 1 2 3 4 5 6 
#
# 1 105.9344 19.2818 8.3484 0.0000 0.0000 0.0000
# 2 19.2818 110.2780 26.7470 0.0000 0.0000 0.0000
# 3 8.3484 26.7470 126.4232 0.0000 0.0000 0.0000
# 4 0.0000 0.0000 0.0000 27.5990 0.0000 0.0000
# 5 0.0000 0.0000 0.0000 0.0000 9.4554 0.0000
# 6 0.0000 0.0000 0.0000 0.0000 0.0000 12.1414
#
#
#
# Elastic Compliance Matrix: (Units=1/GPa)
#
#
# Indices 1 2 3 4 5 6 
#
# 1 0.009761 -0.001634 -0.000299 0.000000 0.000000 0.000000
# 2 -0.001634 0.009832 -0.001972 0.000000 0.000000 0.000000
# 3 -0.000299 -0.001972 0.008347 0.000000 0.000000 0.000000
# 4 0.000000 0.000000 0.000000 0.036233 0.000000 0.000000
# 5 0.000000 0.000000 0.000000 0.000000 0.105760 0.000000
# 6 0.000000 0.000000 0.000000 0.000000 0.000000 0.082363
#
#
# Mechanical properties :
#
#
# Convention : Reuss Voigt Hill
#
# Bulk Modulus (GPa) = 49.67868 50.15444 49.91656
# Shear Modulus (GPa) = 18.73953 29.05640 23.89796
#
# Velocity S-wave (km/s) = 2.85377 3.55353 3.22270
# Velocity P-wave (km/s) = 5.69636 6.21558 5.96162
#
# Compressibility (1/GPa) = 0.02012936
#
# Stress axis : x y z
#
# Youngs Moduli (GPa) = 102.45059 101.70798 119.80453
#
# Poissons Ratio (x) = 0.16621 0.03580
# Poissons Ratio (y) = 0.16742 0.23628
# Poissons Ratio (z) = 0.03061 0.20059
#
# Static dielectric constant tensor:
#      x y z
#    x 1.860650 0.000000 0.000000 
#    y 0.000000 1.889440 0.000000 
#    z 0.000000 0.000000 1.903830 
# 
# From -- ./inp_files/26444.got.cif
#   From: 2010.05.17/outbox.cif.g08.bks.cpg/sg68_14_cif.got.tgz:26444.got - 2010.06.03 18:57:09.
