data_PCOD9510248
_publ_section_title
;
Structure prediction by ZEFSAII (Michael W. Deem and Ramdas Pophale) SiO2 
 PCOD9510248
Probable space group: C C C A
;
_chemical_formula_sum "Si O2"
_cell_formula_units_Z 72
_cell_length_a 13.444109
_cell_length_b 18.869096
_cell_length_c 13.849205
_cell_angle_alpha 90.000000
_cell_angle_beta 90.000000
_cell_angle_gamma 90.000000
_cell_volume 3513.241165
_symmetry_space_group_name_H-M "C C C A"
_symmetry_group_IT_number 68
_space_group.IT_coordinate_system_code '2'
_symmetry_cell_setting 'orthorhombic'
loop_
_space_group_symop_operation_xyz
x,y,z
-x,1/2-y,z
x,1/2-y,1/2-z
-x,y,1/2-z
-x,-y,-z
x,1/2+y,-z
-x,1/2+y,1/2+z
x,-y,1/2+z
1/2+x,1/2+y,z
1/2-x,-y,z
1/2+x,-y,1/2-z
1/2-x,1/2+y,1/2-z
1/2-x,1/2-y,-z
1/2+x,y,-z
1/2-x,y,1/2+z
1/2+x,1/2-y,1/2+z
loop_
_atom_site_type_symbol
_atom_site_label
_atom_site_fract_x
_atom_site_fract_y
_atom_site_fract_z
Si Si1 0.028938 0.329750 0.900585
Si Si2 0.438929 0.058934 0.941440
Si Si3 0.663917 0.644295 0.785720
Si Si4 0.327472 0.250000 0.750000
Si Si5 0.000000 0.362438 0.250000
Si Si6 0.750000 0.500000 0.337075
O O1 0.106471 0.332034 0.811628
O O2 0.000000 0.250000 0.926890
O O3 0.924290 0.361972 0.863457
O O4 0.071591 0.374122 0.988222
O O5 0.486043 0.087988 0.842639
O O6 0.336202 0.026793 0.906653
O O7 0.500000 0.000000 0.000000
O O8 0.748298 0.702512 0.811694
O O9 0.713198 0.567250 0.775425
O O10 0.406038 0.188120 0.722945
#
# Coordination Sequence:
#
# PCOD9510248 Si02
#       6
#    16  16  16   8   8   8
#     4  11  24  43  75 105 138 182 238 294 342 414
#     4  12  28  46  70 105 142 187 232 290 355 422
#     4  11  22  46  72 102 143 184 234 289 350 412
#     4  11  22  45  74 102 140 195 226 289 360 396
#     4  11  28  46  68 102 151 178 236 297 348 408
#     4  12  26  44  68 104 146 184 236 284 362 426
#
# _framework density 20.493897
#
# number of rings (size 3 to 8) (size 9 to 14) (size 15 to 20)
#    0.000    0.667    6.667    0.667    6.222    2.667 
#    0.000    3.333    0.000    0.000    0.000    0.000 
#    0.000    0.000    0.000    0.000    0.000    0.000 
#
# Total GULP energy -200802.048446 kJ/mol
# GULP energy per Si atom -5577.834679 kJ/mol
# Density = 2.044725 g / cm^3
# Si number density = 20.493897 Si / 1000 Ang^3
#
#
#
# Elastic Constant Matrix: (Units=GPa)
#
#
# Indices 1 2 3 4 5 6 
#
# 1 136.3323 59.3979 31.3380 0.0000 0.0000 0.0000
# 2 59.3979 155.2006 40.6151 0.0000 0.0000 0.0000
# 3 31.3380 40.6151 85.7748 0.0000 0.0000 0.0000
# 4 0.0000 0.0000 0.0000 27.9479 0.0000 0.0000
# 5 0.0000 0.0000 0.0000 0.0000 11.2417 0.0000
# 6 0.0000 0.0000 0.0000 0.0000 0.0000 -34.4694
#
#
#
# Elastic Compliance Matrix: (Units=1/GPa)
#
#
# Indices 1 2 3 4 5 6 
#
# 1 0.009068 -0.002972 -0.001906 0.000000 0.000000 0.000000
# 2 -0.002972 0.008328 -0.002858 0.000000 0.000000 0.000000
# 3 -0.001906 -0.002858 0.013708 0.000000 0.000000 0.000000
# 4 0.000000 0.000000 0.000000 0.035781 0.000000 0.000000
# 5 0.000000 0.000000 0.000000 0.000000 0.088955 0.000000
# 6 0.000000 0.000000 0.000000 0.000000 0.000000 -0.029011
#
#
# Mechanical properties :
#
#
# Convention : Reuss Voigt Hill
#
# Bulk Modulus (GPa) = 63.96533 71.11218 67.53875
# Shear Modulus (GPa) = 33.89586 17.34115 25.61851
#
# Velocity S-wave (km/s) = 4.07129 2.91204 3.53945
# Velocity P-wave (km/s) = 7.30617 6.78831 7.05200
#
# Compressibility (1/GPa) = 0.01563347
#
# Stress axis : x y z
#
# Youngs Moduli (GPa) = 110.28021 120.06999 72.95017
#
# Poissons Ratio (x) = 0.35681 0.13903
# Poissons Ratio (y) = 0.32771 0.20848
# Poissons Ratio (z) = 0.21018 0.34315
#
# Static dielectric constant tensor:
#      x y z
#    x 1.728790 0.000000 0.000000 
#    y 0.000000 1.766630 0.000000 
#    z 0.000000 0.000000 1.685620 
# 
# From -- ./inp_files/22084.got.cif
#   From: 2010.05.17/outbox.cif.g08.bks.cpg/sg68_12_cif.got.tgz:22084.got - 2010.06.03 18:57:09.
