data_PCOD9510216
_publ_section_title
;
Structure prediction by ZEFSAII (Michael W. Deem and Ramdas Pophale) SiO2 
 PCOD9510216
Probable space group: C C C A
;
_chemical_formula_sum "Si O2"
_cell_formula_units_Z 96
_cell_length_a 14.292202
_cell_length_b 19.385675
_cell_length_c 14.880248
_cell_angle_alpha 90.000000
_cell_angle_beta 90.000000
_cell_angle_gamma 90.000000
_cell_volume 4122.780779
_symmetry_space_group_name_H-M "C C C A"
_symmetry_group_IT_number 68
_space_group.IT_coordinate_system_code '2'
_symmetry_cell_setting 'orthorhombic'
loop_
_space_group_symop_operation_xyz
x,y,z
-x,1/2-y,z
x,1/2-y,1/2-z
-x,y,1/2-z
-x,-y,-z
x,1/2+y,-z
-x,1/2+y,1/2+z
x,-y,1/2+z
1/2+x,1/2+y,z
1/2-x,-y,z
1/2+x,-y,1/2-z
1/2-x,1/2+y,1/2-z
1/2-x,1/2-y,-z
1/2+x,y,-z
1/2-x,y,1/2+z
1/2+x,1/2-y,1/2+z
loop_
_atom_site_type_symbol
_atom_site_label
_atom_site_fract_x
_atom_site_fract_y
_atom_site_fract_z
Si Si1 0.829959 0.250864 0.340711
Si Si2 0.652502 0.166657 0.158510
Si Si3 0.720037 0.118731 0.960579
Si Si4 0.580266 0.856118 0.028613
Si Si5 0.500000 0.069424 0.250000
Si Si6 0.000000 0.250000 0.596927
Si Si7 0.547414 0.531940 0.089086
O O1 0.890081 0.250000 0.250000
O O2 0.751883 0.306828 0.307362
O O3 0.792012 0.182062 0.390109
O O4 0.881413 0.289182 0.421345
O O5 0.587661 0.115005 0.214796
O O6 0.593538 0.236832 0.150023
O O7 0.678208 0.138163 0.058977
O O8 0.653335 0.057684 0.925366
O O9 0.830336 0.107309 0.981710
O O10 0.519823 0.901041 0.097347
O O11 0.513787 0.821872 0.954728
O O12 0.465157 0.020838 0.169543
O O13 0.500000 0.500000 0.000000
#
# Coordination Sequence:
#
# PCOD9510216 Si02
#       7
#    16  16  16  16   8   8  16
#     4  11  24  40  67 111 140 172 238 313 385 429
#     4  11  23  43  70 101 142 178 246 310 362 436
#     4  11  22  47  73 100 141 190 241 307 379 443
#     4  11  22  42  73 102 136 191 237 303 372 443
#     4  12  28  45  70 107 148 208 256 286 364 464
#     4  12  18  41  79 104 130 182 242 303 386 423
#     4  12  26  48  71  99 147 199 251 291 362 453
#
# _framework density 23.285254999999999
#
# number of rings (size 3 to 8) (size 9 to 14) (size 15 to 20)
#    0.000    0.667    6.667    1.000    4.667    2.000 
#    0.000    0.833    7.333    0.000    0.000    0.000 
#    0.000    0.000    0.000    0.000    0.000    0.000 
#
# Total GULP energy -268101.029808 kJ/mol
# GULP energy per Si atom -5585.438121 kJ/mol
# Density = 2.323226 g / cm^3
# Si number density = 23.285255 Si / 1000 Ang^3
#
#
#
# Elastic Constant Matrix: (Units=GPa)
#
#
# Indices 1 2 3 4 5 6 
#
# 1 128.6135 29.3811 20.7908 0.0000 0.0000 0.0000
# 2 29.3811 90.8454 39.6589 0.0000 0.0000 0.0000
# 3 20.7908 39.6589 124.1699 0.0000 0.0000 0.0000
# 4 0.0000 0.0000 0.0000 50.8090 0.0000 0.0000
# 5 0.0000 0.0000 0.0000 0.0000 20.6129 0.0000
# 6 0.0000 0.0000 0.0000 0.0000 0.0000 31.4186
#
#
#
# Elastic Compliance Matrix: (Units=1/GPa)
#
#
# Indices 1 2 3 4 5 6 
#
# 1 0.008438 -0.002454 -0.000629 0.000000 0.000000 0.000000
# 2 -0.002454 0.013505 -0.003902 0.000000 0.000000 0.000000
# 3 -0.000629 -0.003902 0.009405 0.000000 0.000000 0.000000
# 4 0.000000 0.000000 0.000000 0.019682 0.000000 0.000000
# 5 0.000000 0.000000 0.000000 0.000000 0.048513 0.000000
# 6 0.000000 0.000000 0.000000 0.000000 0.000000 0.031828
#
#
# Mechanical properties :
#
#
# Convention : Reuss Voigt Hill
#
# Bulk Modulus (GPa) = 57.54891 58.14337 57.84614
# Shear Modulus (GPa) = 33.08306 37.48795 35.28551
#
# Velocity S-wave (km/s) = 3.77340 4.01676 3.89698
# Velocity P-wave (km/s) = 6.61462 6.82179 6.71900
#
# Compressibility (1/GPa) = 0.01737652
#
# Stress axis : x y z
#
# Youngs Moduli (GPa) = 118.51744 74.04590 106.32408
#
# Poissons Ratio (x) = 0.18173 0.06686
# Poissons Ratio (y) = 0.29088 0.41493
# Poissons Ratio (z) = 0.07453 0.28896
#
# Static dielectric constant tensor:
#      x y z
#    x 1.880910 0.000000 0.000000 
#    y 0.000000 1.951750 0.000000 
#    z 0.000000 0.000000 1.987130 
# 
# From -- ./inp_files/22421.got.cif
#   From: 2010.05.17/outbox.cif.g08.bks.cpg/sg68_12_cif.got.tgz:22421.got - 2010.06.03 18:57:09.
