data_PCOD9510452
_publ_section_title
;
Structure prediction by ZEFSAII (Michael W. Deem and Ramdas Pophale) SiO2 
 PCOD9510452
Probable space group: C C C A
;
_chemical_formula_sum "Si O2"
_cell_formula_units_Z 64
_cell_length_a 10.753638
_cell_length_b 15.683048
_cell_length_c 15.792041
_cell_angle_alpha 90.000000
_cell_angle_beta 90.000000
_cell_angle_gamma 90.000000
_cell_volume 2663.324887
_symmetry_space_group_name_H-M "C C C A"
_symmetry_group_IT_number 68
_space_group.IT_coordinate_system_code '2'
_symmetry_cell_setting 'orthorhombic'
loop_
_space_group_symop_operation_xyz
x,y,z
-x,1/2-y,z
x,1/2-y,1/2-z
-x,y,1/2-z
-x,-y,-z
x,1/2+y,-z
-x,1/2+y,1/2+z
x,-y,1/2+z
1/2+x,1/2+y,z
1/2-x,-y,z
1/2+x,-y,1/2-z
1/2-x,1/2+y,1/2-z
1/2-x,1/2-y,-z
1/2+x,y,-z
1/2-x,y,1/2+z
1/2+x,1/2-y,1/2+z
loop_
_atom_site_type_symbol
_atom_site_label
_atom_site_fract_x
_atom_site_fract_y
_atom_site_fract_z
Si Si1 0.499015 0.948799 0.655446
Si Si2 0.500000 0.250000 0.977358
Si Si3 0.923986 0.634611 0.835760
Si Si4 0.250000 0.500000 0.440789
Si Si5 0.190964 0.159792 0.937606
O O1 0.500000 0.913478 0.750000
O O2 0.561902 0.880823 0.595919
O O3 0.584658 0.033107 0.660639
O O4 0.368794 0.982028 0.618815
O O5 0.504069 0.169931 0.913772
O O6 0.368531 0.253409 0.024735
O O7 0.787871 0.670610 0.859912
O O8 0.000000 0.655340 0.750000
O O9 0.237873 0.415450 0.499534
#
# Coordination Sequence:
#
# PCOD9510452 Si02
#       5
#    16   8  16   8  16
#     4  11  25  41  70 104 136 187 240 302 357 425
#     4  12  25  44  67 106 144 192 234 294 369 430
#     4  11  24  43  70 103 142 189 238 293 363 435
#     4  12  22  42  72 102 144 182 246 300 354 436
#     4  12  24  45  72 104 143 183 245 299 362 430
#
# _framework density 24.030114000000001
#
# number of rings (size 3 to 8) (size 9 to 14) (size 15 to 20)
#    0.000    0.500    5.000    3.375    7.000    0.000 
#    0.000    3.125    0.000    0.000    0.000    0.000 
#    0.000    0.000    0.000    0.000    0.000    0.000 
#
# Total GULP energy -178759.142648 kJ/mol
# GULP energy per Si atom -5586.223208 kJ/mol
# Density = 2.397542 g / cm^3
# Si number density = 24.030114 Si / 1000 Ang^3
#
#
#
# Elastic Constant Matrix: (Units=GPa)
#
#
# Indices 1 2 3 4 5 6 
#
# 1 162.2714 -3.6969 64.4154 0.0000 0.0000 0.0000
# 2 -3.6969 44.1435 15.8249 0.0000 0.0000 0.0000
# 3 64.4154 15.8249 130.6653 0.0000 0.0000 0.0000
# 4 0.0000 0.0000 0.0000 0.0323 0.0000 0.0000
# 5 0.0000 0.0000 0.0000 0.0000 42.9722 0.0000
# 6 0.0000 0.0000 0.0000 0.0000 0.0000 22.9571
#
#
#
# Elastic Compliance Matrix: (Units=1/GPa)
#
#
# Indices 1 2 3 4 5 6 
#
# 1 0.007850 0.002138 -0.004129 0.000000 0.000000 0.000000
# 2 0.002138 0.024264 -0.003992 0.000000 0.000000 0.000000
# 3 -0.004129 -0.003992 0.010172 0.000000 0.000000 0.000000
# 4 0.000000 0.000000 0.000000 30.935851 0.000000 0.000000
# 5 0.000000 0.000000 0.000000 0.000000 0.023271 0.000000
# 6 0.000000 0.000000 0.000000 0.000000 0.000000 0.043560
#
#
# Mechanical properties :
#
#
# Convention : Reuss Voigt Hill
#
# Bulk Modulus (GPa) = 32.98303 54.46302 43.72302
# Shear Modulus (GPa) = 0.16094 30.56143 15.36119
#
# Velocity S-wave (km/s) = 0.25908 3.57010 2.53108
# Velocity P-wave (km/s) = 3.72089 6.30141 5.17459
#
# Compressibility (1/GPa) = 0.03031862
#
# Stress axis : x y z
#
# Youngs Moduli (GPa) = 127.38494 41.21398 98.30792
#
# Poissons Ratio (x) = -0.08810 0.40590
# Poissons Ratio (y) = -0.27230 0.39248
# Poissons Ratio (z) = 0.52596 0.16454
#
# Static dielectric constant tensor:
#      x y z
#    x 1.959250 0.000000 0.000000 
#    y 0.000000 1.940770 0.000000 
#    z 0.000000 0.000000 1.943380 
# 
# From -- ./inp_files/20486.got.cif
#   From: 2010.05.17/outbox.cif.g08.bks.cpg/sg68_11_cif.got.tgz:20486.got - 2010.06.03 18:57:09.
