data_PCOD9510130
_publ_section_title
;
Structure prediction by ZEFSAII (Michael W. Deem and Ramdas Pophale) SiO2 
 PCOD9510130
Probable space group: C C C A
;
_chemical_formula_sum "Si O2"
_cell_formula_units_Z 92
_cell_length_a 24.162345
_cell_length_b 8.888026
_cell_length_c 21.509027
_cell_angle_alpha 90.000000
_cell_angle_beta 90.000000
_cell_angle_gamma 90.000000
_cell_volume 4619.182936
_symmetry_space_group_name_H-M "C C C A"
_symmetry_group_IT_number 68
_space_group.IT_coordinate_system_code '2'
_symmetry_cell_setting 'orthorhombic'
loop_
_space_group_symop_operation_xyz
x,y,z
-x,1/2-y,z
x,1/2-y,1/2-z
-x,y,1/2-z
-x,-y,-z
x,1/2+y,-z
-x,1/2+y,1/2+z
x,-y,1/2+z
1/2+x,1/2+y,z
1/2-x,-y,z
1/2+x,-y,1/2-z
1/2-x,1/2+y,1/2-z
1/2-x,1/2-y,-z
1/2+x,y,-z
1/2-x,y,1/2+z
1/2+x,1/2-y,1/2+z
loop_
_atom_site_type_symbol
_atom_site_label
_atom_site_fract_x
_atom_site_fract_y
_atom_site_fract_z
Si Si1 0.750000 0.000000 0.225542
Si Si2 0.559799 0.279075 0.859767
Si Si3 0.655595 0.046420 0.828863
Si Si4 0.363653 0.526855 0.052837
Si Si5 0.151960 0.690680 0.427635
Si Si6 0.733185 0.290359 0.888257
Si Si7 0.000000 0.250000 0.250000
O O1 0.694129 0.977472 0.267292
O O2 0.753312 0.858382 0.178131
O O3 0.500000 0.250000 0.891316
O O4 0.598731 0.143340 0.833788
O O5 0.594762 0.379481 0.904906
O O6 0.537471 0.349554 0.795351
O O7 0.695843 0.145927 0.872783
O O8 0.643742 0.887956 0.861470
O O9 0.375339 0.351925 0.061798
O O10 0.304320 0.582458 0.079468
O O11 0.365309 0.576721 0.981539
O O12 0.216767 0.732981 0.429760
#
# Coordination Sequence:
#
# PCOD9510130 Si02
#       7
#     8  16  16  16  16  16   4
#     4  12  22  36  62  98 136 176 218 274 334 404
#     4   9  22  43  69  98 120 179 220 281 330 397
#     4  11  24  38  64  95 139 172 224 266 334 397
#     4  11  23  39  66  89 135 172 234 268 336 394
#     4  12  23  42  58  99 131 182 215 277 334 404
#     4  11  22  37  59  94 133 182 215 263 328 404
#     4   8  20  40  76  90 128 152 240 264 340 390
#
# _framework density 19.916943
#
# number of rings (size 3 to 8) (size 9 to 14) (size 15 to 20)
#    0.522    0.696    3.478    3.130    4.870    1.391 
#    0.000    4.348    0.000    1.043    0.000    0.000 
#    0.000    0.000    0.000    0.000    0.000    0.000 
#
# Total GULP energy -256222.397065 kJ/mol
# GULP energy per Si atom -5570.052110 kJ/mol
# Density = 1.987161 g / cm^3
# Si number density = 19.916943 Si / 1000 Ang^3
#
#
#
# Elastic Constant Matrix: (Units=GPa)
#
#
# Indices 1 2 3 4 5 6 
#
# 1 105.3166 19.4700 19.3832 0.0000 0.0000 0.0000
# 2 19.4700 87.9426 18.4237 0.0000 0.0000 0.0000
# 3 19.3832 18.4237 79.2938 0.0000 0.0000 0.0000
# 4 0.0000 0.0000 0.0000 51.5413 0.0000 0.0000
# 5 0.0000 0.0000 0.0000 0.0000 32.4377 0.0000
# 6 0.0000 0.0000 0.0000 0.0000 0.0000 4.0201
#
#
#
# Elastic Compliance Matrix: (Units=1/GPa)
#
#
# Indices 1 2 3 4 5 6 
#
# 1 0.010214 -0.001827 -0.002072 0.000000 0.000000 0.000000
# 2 -0.001827 0.012280 -0.002407 0.000000 0.000000 0.000000
# 3 -0.002072 -0.002407 0.013677 0.000000 0.000000 0.000000
# 4 0.000000 0.000000 0.000000 0.019402 0.000000 0.000000
# 5 0.000000 0.000000 0.000000 0.000000 0.030828 0.000000
# 6 0.000000 0.000000 0.000000 0.000000 0.000000 0.248748
#
#
# Mechanical properties :
#
#
# Convention : Reuss Voigt Hill
#
# Bulk Modulus (GPa) = 42.44661 43.01188 42.72925
# Shear Modulus (GPa) = 14.06016 31.95158 23.00587
#
# Velocity S-wave (km/s) = 2.65984 4.00964 3.40235
# Velocity P-wave (km/s) = 5.54897 6.56345 6.07741
#
# Compressibility (1/GPa) = 0.02355901
#
# Stress axis : x y z
#
# Youngs Moduli (GPa) = 97.90111 81.43489 73.11518
#
# Poissons Ratio (x) = 0.14880 0.15152
# Poissons Ratio (y) = 0.17889 0.17595
# Poissons Ratio (z) = 0.20288 0.19597
#
# Static dielectric constant tensor:
#      x y z
#    x 1.780980 0.000000 0.000000 
#    y 0.000000 1.725750 0.000000 
#    z 0.000000 0.000000 1.733900 
# 
# From -- ./inp_files/41283.got.cif
#   From: 2010.05.17/outbox.cif.g08.bks.cpg/sg68_21_cif.got.tgz:41283.got - 2010.06.03 18:57:09.
