data_PCOD9510560
_publ_section_title
;
Structure prediction by ZEFSAII (Michael W. Deem and Ramdas Pophale) SiO2 
 PCOD9510560
Probable space group: C C C A
;
_chemical_formula_sum "Si O2"
_cell_formula_units_Z 64
_cell_length_a 21.041345
_cell_length_b 5.015578
_cell_length_c 26.448658
_cell_angle_alpha 90.000000
_cell_angle_beta 90.000000
_cell_angle_gamma 90.000000
_cell_volume 2791.246085
_symmetry_space_group_name_H-M "C C C A"
_symmetry_group_IT_number 68
_space_group.IT_coordinate_system_code '2'
_symmetry_cell_setting 'orthorhombic'
loop_
_space_group_symop_operation_xyz
x,y,z
-x,1/2-y,z
x,1/2-y,1/2-z
-x,y,1/2-z
-x,-y,-z
x,1/2+y,-z
-x,1/2+y,1/2+z
x,-y,1/2+z
1/2+x,1/2+y,z
1/2-x,-y,z
1/2+x,-y,1/2-z
1/2-x,1/2+y,1/2-z
1/2-x,1/2-y,-z
1/2+x,y,-z
1/2-x,y,1/2+z
1/2+x,1/2-y,1/2+z
loop_
_atom_site_type_symbol
_atom_site_label
_atom_site_fract_x
_atom_site_fract_y
_atom_site_fract_z
Si Si1 0.250000 0.500000 0.599782
Si Si2 0.164004 0.750000 0.750000
Si Si3 0.500000 0.250000 0.913837
Si Si4 0.912044 0.750000 0.250000
Si Si5 0.637765 0.262247 0.532755
Si Si6 0.250000 0.500000 0.835906
Si Si7 0.500000 0.250000 0.159171
O O1 0.307862 0.355408 0.569750
O O2 0.276584 0.751954 0.631836
O O3 0.125447 0.501181 0.730124
O O4 0.201670 0.636658 0.797396
O O5 0.565398 0.244900 0.946285
O O6 0.510090 0.503509 0.877735
O O7 0.948713 0.651871 0.200431
O O8 0.646370 0.567693 0.515666
#
# Coordination Sequence:
#
# PCOD9510560 Si02
#       7
#     8   8   8   8  16   8   8
#     4  12  27  45  78 104 148 186 250 297 357 454
#     4  12  25  45  71  98 153 191 235 298 354 424
#     4  12  26  44  78 105 144 185 246 302 356 452
#     4  11  25  44  73  96 153 190 237 297 354 429
#     4  12  26  49  73 106 143 187 237 308 380 433
#     4  12  27  45  66 114 138 196 244 291 359 422
#     4  11  26  45  66 113 138 191 244 293 360 421
#
# _framework density 22.928826999999998
#
# number of rings (size 3 to 8) (size 9 to 14) (size 15 to 20)
#    0.000    0.250    0.000    9.000   10.500    2.000 
#    0.000    0.000    0.000    0.000    0.000    0.000 
#    0.000    0.000    0.000    0.000    0.000    0.000 
#
# Total GULP energy -178753.834312 kJ/mol
# GULP energy per Si atom -5586.057322 kJ/mol
# Density = 2.287664 g / cm^3
# Si number density = 22.928827 Si / 1000 Ang^3
#
#
#
# Elastic Constant Matrix: (Units=GPa)
#
#
# Indices 1 2 3 4 5 6 
#
# 1 78.1485 -5.6423 19.2876 0.0000 0.0000 0.0000
# 2 -5.6423 106.6230 13.9629 0.0000 0.0000 0.0000
# 3 19.2876 13.9629 73.9972 0.0000 0.0000 0.0000
# 4 0.0000 0.0000 0.0000 57.9812 0.0000 0.0000
# 5 0.0000 0.0000 0.0000 0.0000 170.7481 0.0000
# 6 0.0000 0.0000 0.0000 0.0000 0.0000 32.0134
#
#
#
# Elastic Compliance Matrix: (Units=1/GPa)
#
#
# Indices 1 2 3 4 5 6 
#
# 1 0.013833 0.001235 -0.003838 0.000000 0.000000 0.000000
# 2 0.001235 0.009727 -0.002157 0.000000 0.000000 0.000000
# 3 -0.003838 -0.002157 0.014922 0.000000 0.000000 0.000000
# 4 0.000000 0.000000 0.000000 0.017247 0.000000 0.000000
# 5 0.000000 0.000000 0.000000 0.000000 0.005857 0.000000
# 6 0.000000 0.000000 0.000000 0.000000 0.000000 0.031237
#
#
# Mechanical properties :
#
#
# Convention : Reuss Voigt Hill
#
# Bulk Modulus (GPa) = 34.53172 34.88723 34.70947
# Shear Modulus (GPa) = 44.64429 67.55924 56.10177
#
# Velocity S-wave (km/s) = 4.41736 5.43403 4.95186
# Velocity P-wave (km/s) = 6.41175 7.39054 6.91848
#
# Compressibility (1/GPa) = 0.02895888
#
# Stress axis : x y z
#
# Youngs Moduli (GPa) = 72.29272 102.81006 67.01699
#
# Poissons Ratio (x) = -0.12694 0.25724
# Poissons Ratio (y) = -0.08926 0.14457
# Poissons Ratio (z) = 0.27750 0.22178
#
# Static dielectric constant tensor:
#      x y z
#    x 1.946920 0.000000 0.000000 
#    y 0.000000 1.762630 0.000000 
#    z 0.000000 0.000000 1.870620 
# 
# From -- ./inp_files/42185.got.cif
#   From: 2010.05.17/outbox.cif.g08.bks.cpg/sg68_22_cif.got.tgz:42185.got - 2010.06.03 18:57:09.
