data_PCOD9510072
_publ_section_title
;
Structure prediction by ZEFSAII (Michael W. Deem and Ramdas Pophale) SiO2 
 PCOD9510072
Probable space group: C C C A
;
_chemical_formula_sum "Si O2"
_cell_formula_units_Z 88
_cell_length_a 23.224877
_cell_length_b 14.470776
_cell_length_c 10.765878
_cell_angle_alpha 90.000000
_cell_angle_beta 90.000000
_cell_angle_gamma 90.000000
_cell_volume 3618.217731
_symmetry_space_group_name_H-M "C C C A"
_symmetry_group_IT_number 68
_space_group.IT_coordinate_system_code '2'
_symmetry_cell_setting 'orthorhombic'
loop_
_space_group_symop_operation_xyz
x,y,z
-x,1/2-y,z
x,1/2-y,1/2-z
-x,y,1/2-z
-x,-y,-z
x,1/2+y,-z
-x,1/2+y,1/2+z
x,-y,1/2+z
1/2+x,1/2+y,z
1/2-x,-y,z
1/2+x,-y,1/2-z
1/2-x,1/2+y,1/2-z
1/2-x,1/2-y,-z
1/2+x,y,-z
1/2-x,y,1/2+z
1/2+x,1/2-y,1/2+z
loop_
_atom_site_type_symbol
_atom_site_label
_atom_site_fract_x
_atom_site_fract_y
_atom_site_fract_z
Si Si1 0.249616 0.388739 0.436373
Si Si2 0.956430 0.911888 0.134406
Si Si3 0.130152 0.650854 0.308584
Si Si4 0.287772 0.404538 0.687882
Si Si5 0.500000 0.750000 0.047604
Si Si6 0.415512 0.393711 0.575265
O O1 0.250000 0.500000 0.456742
O O2 0.306317 0.362170 0.359440
O O3 0.252356 0.350736 0.577381
O O4 0.203525 0.367606 0.329085
O O5 0.892339 0.908919 0.194791
O O6 0.968693 0.828936 0.038244
O O7 0.000000 0.900627 0.250000
O O8 0.954746 0.015936 0.085923
O O9 0.121441 0.750000 0.250000
O O10 0.093249 0.628229 0.429772
O O11 0.250000 0.500000 0.703350
O O12 0.351858 0.407645 0.631123
O O13 0.548206 0.806426 0.122468
#
# Coordination Sequence:
#
# PCOD9510072 Si02
#       6
#    16  16  16  16   8  16
#     4   9  18  34  61  91 133 172 228 286 357 429
#     4  12  22  39  68  98 128 179 234 295 357 422
#     4  11  21  40  68  98 128 178 240 296 350 432
#     4   9  18  37  63  98 130 181 228 293 356 439
#     4  12  23  42  63 100 138 172 245 290 347 448
#     4  11  24  40  68  99 135 183 235 292 369 424
#
# _framework density 24.321366999999999
#
# number of rings (size 3 to 8) (size 9 to 14) (size 15 to 20)
#    0.000    1.455    3.636    3.000    0.000    0.000 
#    0.000    4.091    8.000    2.182    0.000    0.000 
#    0.000    0.000    0.000    0.000    0.000    0.000 
#
# Total GULP energy -245254.187227 kJ/mol
# GULP energy per Si atom -5573.958801 kJ/mol
# Density = 2.426601 g / cm^3
# Si number density = 24.321367 Si / 1000 Ang^3
#
#
#
# Elastic Constant Matrix: (Units=GPa)
#
#
# Indices 1 2 3 4 5 6 
#
# 1 65.9022 20.3623 -5.1912 0.0000 0.0000 0.0000
# 2 20.3623 120.6222 36.3770 0.0000 0.0000 0.0000
# 3 -5.1912 36.3770 92.4404 0.0000 0.0000 0.0000
# 4 0.0000 0.0000 0.0000 37.4986 0.0000 0.0000
# 5 0.0000 0.0000 0.0000 0.0000 9.6930 0.0000
# 6 0.0000 0.0000 0.0000 0.0000 0.0000 34.5756
#
#
#
# Elastic Compliance Matrix: (Units=1/GPa)
#
#
# Indices 1 2 3 4 5 6 
#
# 1 0.016423 -0.003461 0.002284 0.000000 0.000000 0.000000
# 2 -0.003461 0.010136 -0.004183 0.000000 0.000000 0.000000
# 3 0.002284 -0.004183 0.012592 0.000000 0.000000 0.000000
# 4 0.000000 0.000000 0.000000 0.026668 0.000000 0.000000
# 5 0.000000 0.000000 0.000000 0.000000 0.103168 0.000000
# 6 0.000000 0.000000 0.000000 0.000000 0.000000 0.028922
#
#
# Mechanical properties :
#
#
# Convention : Reuss Voigt Hill
#
# Bulk Modulus (GPa) = 35.17213 42.45124 38.81169
# Shear Modulus (GPa) = 22.92454 31.51453 27.21954
#
# Velocity S-wave (km/s) = 3.07346 3.60356 3.34902
# Velocity P-wave (km/s) = 5.20458 5.89970 5.56301
#
# Compressibility (1/GPa) = 0.02843160
#
# Stress axis : x y z
#
# Youngs Moduli (GPa) = 60.88856 98.65613 79.41413
#
# Poissons Ratio (x) = 0.34149 -0.18141
# Poissons Ratio (y) = 0.21076 0.33220
# Poissons Ratio (z) = -0.13909 0.41270
#
# Static dielectric constant tensor:
#      x y z
#    x 2.054840 0.000000 0.000000 
#    y 0.000000 2.196950 0.000000 
#    z 0.000000 0.000000 2.040430 
# 
# From -- ./inp_files/17088.got.cif
#   From: 2010.05.17/outbox.cif.g08.bks.cpg/sg68_9_cif.got.tgz:17088.got - 2010.06.03 18:57:09.
