data_PCOD9510530
_publ_section_title
;
Structure prediction by ZEFSAII (Michael W. Deem and Ramdas Pophale) SiO2 
 PCOD9510530
Probable space group: C C C A
;
_chemical_formula_sum "Si O2"
_cell_formula_units_Z 64
_cell_length_a 29.463195
_cell_length_b 9.207640
_cell_length_c 11.257265
_cell_angle_alpha 90.000000
_cell_angle_beta 90.000000
_cell_angle_gamma 90.000000
_cell_volume 3053.943940
_symmetry_space_group_name_H-M "C C C A"
_symmetry_group_IT_number 68
_space_group.IT_coordinate_system_code '2'
_symmetry_cell_setting 'orthorhombic'
loop_
_space_group_symop_operation_xyz
x,y,z
-x,1/2-y,z
x,1/2-y,1/2-z
-x,y,1/2-z
-x,-y,-z
x,1/2+y,-z
-x,1/2+y,1/2+z
x,-y,1/2+z
1/2+x,1/2+y,z
1/2-x,-y,z
1/2+x,-y,1/2-z
1/2-x,1/2+y,1/2-z
1/2-x,1/2-y,-z
1/2+x,y,-z
1/2-x,y,1/2+z
1/2+x,1/2-y,1/2+z
loop_
_atom_site_type_symbol
_atom_site_label
_atom_site_fract_x
_atom_site_fract_y
_atom_site_fract_z
Si Si1 0.837212 0.922349 0.533360
Si Si2 0.482926 0.915151 0.881718
Si Si3 0.382082 0.799086 0.882373
Si Si4 0.302694 0.250000 0.750000
Si Si5 0.250000 0.000000 0.112755
O O1 0.877530 0.848263 0.458025
O O2 0.832683 0.828062 0.651213
O O3 0.789551 0.924112 0.464050
O O4 0.846188 0.088724 0.565065
O O5 0.500000 0.750000 0.890602
O O6 0.500000 0.970328 0.750000
O O7 0.428829 0.889457 0.881600
O O8 0.500000 0.000000 0.000000
O O9 0.371503 0.750000 0.750000
O O10 0.272623 0.375407 0.808399
#
# Coordination Sequence:
#
# PCOD9510530 Si02
#       5
#    16  16  16   8   8
#     4  12  27  45  71 106 145 189 247 300 364 437
#     4  11  24  47  74 107 145 191 241 302 376 450
#     4  12  26  46  74 106 146 187 243 308 362 440
#     4  12  26  44  70  98 141 190 247 292 372 424
#     4  12  26  48  66 104 144 196 244 302 366 442
#
# _framework density 20.956506999999998
#
# number of rings (size 3 to 8) (size 9 to 14) (size 15 to 20)
#    0.000    0.250    5.000    4.500    5.250    0.500 
#    0.000    0.000    0.000    0.000    0.000    0.000 
#    0.000    0.000    0.000    0.000    0.000    0.000 
#
# Total GULP energy -178841.441460 kJ/mol
# GULP energy per Si atom -5588.795046 kJ/mol
# Density = 2.090881 g / cm^3
# Si number density = 20.956507 Si / 1000 Ang^3
#
#
#
# Elastic Constant Matrix: (Units=GPa)
#
#
# Indices 1 2 3 4 5 6 
#
# 1 51.2182 -15.2057 24.6701 0.0000 0.0000 0.0000
# 2 -15.2057 76.3782 43.2348 0.0000 0.0000 0.0000
# 3 24.6701 43.2348 149.5919 0.0000 0.0000 0.0000
# 4 0.0000 0.0000 0.0000 53.6007 0.0000 0.0000
# 5 0.0000 0.0000 0.0000 0.0000 24.1518 0.0000
# 6 0.0000 0.0000 0.0000 0.0000 0.0000 23.7703
#
#
#
# Elastic Compliance Matrix: (Units=1/GPa)
#
#
# Indices 1 2 3 4 5 6 
#
# 1 0.025419 0.008888 -0.006761 0.000000 0.000000 0.000000
# 2 0.008888 0.018761 -0.006888 0.000000 0.000000 0.000000
# 3 -0.006761 -0.006888 0.009791 0.000000 0.000000 0.000000
# 4 0.000000 0.000000 0.000000 0.018656 0.000000 0.000000
# 5 0.000000 0.000000 0.000000 0.000000 0.041405 0.000000
# 6 0.000000 0.000000 0.000000 0.000000 0.000000 0.042069
#
#
# Mechanical properties :
#
#
# Convention : Reuss Voigt Hill
#
# Bulk Modulus (GPa) = 22.49785 42.50961 32.50373
# Shear Modulus (GPa) = 27.71002 35.27051 31.49027
#
# Velocity S-wave (km/s) = 3.64024 4.10693 3.88061
# Velocity P-wave (km/s) = 5.33172 6.54354 5.96846
#
# Compressibility (1/GPa) = 0.04444870
#
# Stress axis : x y z
#
# Youngs Moduli (GPa) = 39.34021 53.30158 102.13908
#
# Poissons Ratio (x) = -0.47372 0.69053
# Poissons Ratio (y) = -0.34964 0.70354
# Poissons Ratio (z) = 0.26597 0.36714
#
# Static dielectric constant tensor:
#      x y z
#    x 1.731140 0.000000 0.000000 
#    y 0.000000 1.528630 0.000000 
#    z 0.000000 0.000000 1.756040 
# 
# From -- ./inp_files/10801.got.cif
#   From: 2010.05.17/outbox.cif.g08.bks.cpg/sg68_6_cif.got.tgz:10801.got - 2010.06.03 18:57:09.
