data_PCOD9510009
_publ_section_title
;
Structure prediction by ZEFSAII (Michael W. Deem and Ramdas Pophale) SiO2 
 PCOD9510009
Probable space group: C C C A
;
_chemical_formula_sum "Si O2"
_cell_formula_units_Z 104
_cell_length_a 20.868130
_cell_length_b 15.850841
_cell_length_c 16.450724
_cell_angle_alpha 90.000000
_cell_angle_beta 90.000000
_cell_angle_gamma 90.000000
_cell_volume 5441.527887
_symmetry_space_group_name_H-M "C C C A"
_symmetry_group_IT_number 68
_space_group.IT_coordinate_system_code '2'
_symmetry_cell_setting 'orthorhombic'
loop_
_space_group_symop_operation_xyz
x,y,z
-x,1/2-y,z
x,1/2-y,1/2-z
-x,y,1/2-z
-x,-y,-z
x,1/2+y,-z
-x,1/2+y,1/2+z
x,-y,1/2+z
1/2+x,1/2+y,z
1/2-x,-y,z
1/2+x,-y,1/2-z
1/2-x,1/2+y,1/2-z
1/2-x,1/2-y,-z
1/2+x,y,-z
1/2-x,y,1/2+z
1/2+x,1/2-y,1/2+z
loop_
_atom_site_type_symbol
_atom_site_label
_atom_site_fract_x
_atom_site_fract_y
_atom_site_fract_z
Si Si1 0.884133 0.837793 0.038736
Si Si2 0.761783 0.599004 0.373168
Si Si3 0.695077 0.656318 0.715289
Si Si4 0.000000 0.250000 0.879040
Si Si5 0.327894 0.844155 0.520244
Si Si6 0.071495 0.495845 0.963009
Si Si7 0.062103 0.591843 0.300627
O O1 0.833783 0.872063 0.104501
O O2 0.856955 0.748796 0.008247
O O3 0.953959 0.813462 0.073131
O O4 0.893359 0.916174 0.979121
O O5 0.750000 0.500000 0.380477
O O6 0.750348 0.624602 0.278515
O O7 0.721223 0.640337 0.446823
O O8 0.682735 0.750000 0.750000
O O9 0.699635 0.653782 0.615109
O O10 0.633221 0.598249 0.732678
O O11 0.952390 0.187647 0.831787
O O12 0.383041 0.916381 0.511543
O O13 0.063028 0.477433 0.869348
O O14 0.000000 0.500000 0.000000
O O15 0.000000 0.572363 0.250000
#
# Coordination Sequence:
#
# PCOD9510009 Si02
#       7
#    16  16  16   8  16  16  16
#     4  12  21  40  65  96 133 169 225 272 340 411
#     4  12  25  42  66  93 134 182 218 276 340 412
#     4  11  22  39  61  94 125 166 226 281 332 396
#     4  12  19  36  70  98 127 168 212 292 353 390
#     4  11  24  43  66  98 133 180 225 281 341 403
#     4  11  22  38  64  96 133 170 216 273 347 410
#     4  11  21  34  59  96 133 162 212 283 344 394
#
# _framework density 19.112278
#
# number of rings (size 3 to 8) (size 9 to 14) (size 15 to 20)
#    0.000    0.615    7.692    2.538    0.000    0.615 
#    0.000    0.000    0.000    0.000    0.000    1.077 
#    0.000    0.000    0.000    0.000    0.000    0.000 
#
# Total GULP energy -289609.849513 kJ/mol
# GULP energy per Si atom -5569.420183 kJ/mol
# Density = 1.906878 g / cm^3
# Si number density = 19.112278 Si / 1000 Ang^3
#
#
#
# Elastic Constant Matrix: (Units=GPa)
#
#
# Indices 1 2 3 4 5 6 
#
# 1 36.6670 36.2370 49.7797 0.0000 0.0000 0.0000
# 2 36.2370 135.9522 61.5786 0.0000 0.0000 0.0000
# 3 49.7797 61.5786 126.1790 0.0000 0.0000 0.0000
# 4 0.0000 0.0000 0.0000 38.4603 0.0000 0.0000
# 5 0.0000 0.0000 0.0000 0.0000 24.4183 0.0000
# 6 0.0000 0.0000 0.0000 0.0000 0.0000 37.0723
#
#
#
# Elastic Compliance Matrix: (Units=1/GPa)
#
#
# Indices 1 2 3 4 5 6 
#
# 1 0.063771 -0.007192 -0.021649 0.000000 0.000000 0.000000
# 2 -0.007192 0.010254 -0.002167 0.000000 0.000000 0.000000
# 3 -0.021649 -0.002167 0.017524 0.000000 0.000000 0.000000
# 4 0.000000 0.000000 0.000000 0.026001 0.000000 0.000000
# 5 0.000000 0.000000 0.000000 0.000000 0.040953 0.000000
# 6 0.000000 0.000000 0.000000 0.000000 0.000000 0.026974
#
#
# Mechanical properties :
#
#
# Convention : Reuss Voigt Hill
#
# Bulk Modulus (GPa) = 33.86033 65.99878 49.92955
# Shear Modulus (GPa) = 19.42987 30.07038 24.75013
#
# Velocity S-wave (km/s) = 3.19190 3.97086 3.60249
# Velocity P-wave (km/s) = 5.59815 7.45860 6.59432
#
# Compressibility (1/GPa) = 0.02953309
#
# Stress axis : x y z
#
# Youngs Moduli (GPa) = 15.68117 97.52346 57.06618
#
# Poissons Ratio (x) = 0.70139 1.23541
# Poissons Ratio (y) = 0.11278 0.12365
# Poissons Ratio (z) = 0.33948 0.21132
#
# Static dielectric constant tensor:
#      x y z
#    x 1.991680 0.000000 0.000000 
#    y 0.000000 1.666770 0.000000 
#    z 0.000000 0.000000 1.762560 
# 
# From -- ./inp_files/33014.got.cif
#   From: 2010.05.17/outbox.cif.g08.bks.cpg/sg68_17_cif.got.tgz:33014.got - 2010.06.03 18:57:09.
