data_PCOD9510383
_publ_section_title
;
Structure prediction by ZEFSAII (Michael W. Deem and Ramdas Pophale) SiO2 
 PCOD9510383
Probable space group: C C C A
;
_chemical_formula_sum "Si O2"
_cell_formula_units_Z 88
_cell_length_a 14.173081
_cell_length_b 22.371399
_cell_length_c 13.850223
_cell_angle_alpha 90.000000
_cell_angle_beta 90.000000
_cell_angle_gamma 90.000000
_cell_volume 4391.513061
_symmetry_space_group_name_H-M "C C C A"
_symmetry_group_IT_number 68
_space_group.IT_coordinate_system_code '2'
_symmetry_cell_setting 'orthorhombic'
loop_
_space_group_symop_operation_xyz
x,y,z
-x,1/2-y,z
x,1/2-y,1/2-z
-x,y,1/2-z
-x,-y,-z
x,1/2+y,-z
-x,1/2+y,1/2+z
x,-y,1/2+z
1/2+x,1/2+y,z
1/2-x,-y,z
1/2+x,-y,1/2-z
1/2-x,1/2+y,1/2-z
1/2-x,1/2-y,-z
1/2+x,y,-z
1/2-x,y,1/2+z
1/2+x,1/2-y,1/2+z
loop_
_atom_site_type_symbol
_atom_site_label
_atom_site_fract_x
_atom_site_fract_y
_atom_site_fract_z
Si Si1 0.172838 0.236960 0.417234
Si Si2 0.500000 0.750000 0.952195
Si Si3 0.084101 0.144849 0.823965
Si Si4 0.146148 0.472494 0.266157
Si Si5 0.975282 0.018949 0.606893
Si Si6 0.790198 0.158026 0.262525
O O1 0.250000 0.250000 0.500000
O O2 0.183250 0.293548 0.344182
O O3 0.182275 0.182243 0.343230
O O4 0.077913 0.224162 0.475926
O O5 0.559005 0.703008 0.887496
O O6 0.072387 0.084578 0.886623
O O7 0.178364 0.148973 0.758945
O O8 0.000000 0.140250 0.750000
O O9 0.250000 0.500000 0.269320
O O10 0.072405 0.509453 0.332197
O O11 0.100965 0.477073 0.159885
O O12 0.158908 0.403228 0.291019
O O13 0.000000 0.000000 0.500000
#
# Coordination Sequence:
#
# PCOD9510383 Si02
#       6
#    16   8  16  16  16  16
#     4  11  25  45  66 110 136 181 233 280 346 417
#     4  12  27  39  76  98 144 178 234 290 342 410
#     4  12  23  46  69 100 134 185 233 283 342 412
#     4  11  23  47  67  98 138 180 225 289 349 411
#     4  11  26  43  69 102 135 178 239 282 346 413
#     4  11  25  44  72  94 148 180 224 284 353 412
#
# _framework density 20.038651999999999
#
# number of rings (size 3 to 8) (size 9 to 14) (size 15 to 20)
#    0.000    0.727    5.455    1.364    7.636    3.636 
#    0.000    0.000    0.000    0.000    0.000    0.000 
#    0.000    0.000    0.000    0.000    0.000    0.000 
#
# Total GULP energy -245359.775219 kJ/mol
# GULP energy per Si atom -5576.358528 kJ/mol
# Density = 1.999304 g / cm^3
# Si number density = 20.038652 Si / 1000 Ang^3
#
#
#
# Elastic Constant Matrix: (Units=GPa)
#
#
# Indices 1 2 3 4 5 6 
#
# 1 56.4664 -0.9572 -17.7250 0.0000 0.0000 0.0000
# 2 -0.9572 67.1546 -7.0588 0.0000 0.0000 0.0000
# 3 -17.7250 -7.0588 66.7121 0.0000 0.0000 0.0000
# 4 0.0000 0.0000 0.0000 13.9000 0.0000 0.0000
# 5 0.0000 0.0000 0.0000 0.0000 -0.5243 0.0000
# 6 0.0000 0.0000 0.0000 0.0000 0.0000 27.5010
#
#
#
# Elastic Compliance Matrix: (Units=1/GPa)
#
#
# Indices 1 2 3 4 5 6 
#
# 1 0.019366 0.000826 0.005233 0.000000 0.000000 0.000000
# 2 0.000826 0.015094 0.001817 0.000000 0.000000 0.000000
# 3 0.005233 0.001817 0.016572 0.000000 0.000000 0.000000
# 4 0.000000 0.000000 0.000000 0.071943 0.000000 0.000000
# 5 0.000000 0.000000 0.000000 0.000000 -1.907220 0.000000
# 6 0.000000 0.000000 0.000000 0.000000 0.000000 0.036362
#
#
# Mechanical properties :
#
#
# Convention : Reuss Voigt Hill
#
# Bulk Modulus (GPa) = 14.97378 15.42791 15.20084
# Shear Modulus (GPa) = -2.87130 22.58026 9.85448
#
# Velocity S-wave (km/s) = -1.19833 3.36048 2.22000
# Velocity P-wave (km/s) = 2.36094 4.77209 3.76476
#
# Compressibility (1/GPa) = 0.06678342
#
# Stress axis : x y z
#
# Youngs Moduli (GPa) = 51.63612 66.25265 60.34150
#
# Poissons Ratio (x) = -0.05473 -0.31576
# Poissons Ratio (y) = -0.04266 -0.10961
# Poissons Ratio (z) = -0.27021 -0.12035
#
# Static dielectric constant tensor:
#      x y z
#    x 1.852600 0.000000 0.000000 
#    y 0.000000 2.096190 0.000000 
#    z 0.000000 0.000000 1.554250 
# 
# From -- ./inp_files/13298.got.cif
#   From: 2010.05.17/outbox.cif.g08.bks.cpg/sg68_7_cif.got.tgz:13298.got - 2010.06.03 18:57:09.
