data_PCOD9510296
_publ_section_title
;
Structure prediction by ZEFSAII (Michael W. Deem and Ramdas Pophale) SiO2 
 PCOD9510296
Probable space group: C C C A
;
_chemical_formula_sum "Si O2"
_cell_formula_units_Z 72
_cell_length_a 10.583869
_cell_length_b 11.987755
_cell_length_c 28.008769
_cell_angle_alpha 90.000000
_cell_angle_beta 90.000000
_cell_angle_gamma 90.000000
_cell_volume 3553.663782
_symmetry_space_group_name_H-M "C C C A"
_symmetry_group_IT_number 68
_space_group.IT_coordinate_system_code '2'
_symmetry_cell_setting 'orthorhombic'
loop_
_space_group_symop_operation_xyz
x,y,z
-x,1/2-y,z
x,1/2-y,1/2-z
-x,y,1/2-z
-x,-y,-z
x,1/2+y,-z
-x,1/2+y,1/2+z
x,-y,1/2+z
1/2+x,1/2+y,z
1/2-x,-y,z
1/2+x,-y,1/2-z
1/2-x,1/2+y,1/2-z
1/2-x,1/2-y,-z
1/2+x,y,-z
1/2-x,y,1/2+z
1/2+x,1/2-y,1/2+z
loop_
_atom_site_type_symbol
_atom_site_label
_atom_site_fract_x
_atom_site_fract_y
_atom_site_fract_z
Si Si1 0.876649 0.423163 0.505365
Si Si2 0.331197 0.388019 0.389909
Si Si3 0.978470 0.118093 0.696993
Si Si4 0.250000 0.000000 0.849693
Si Si5 0.134661 0.695745 0.593099
O O1 0.750000 0.500000 0.503244
O O2 0.893133 0.373094 0.558148
O O3 0.863802 0.331438 0.463580
O O4 0.000000 0.500000 0.500000
O O5 0.250000 0.500000 0.393114
O O6 0.425175 0.408202 0.346062
O O7 0.239742 0.281244 0.387444
O O8 0.000000 0.250000 0.700929
O O9 0.000000 0.069206 0.750000
O O10 0.840334 0.079110 0.681078
O O11 0.161008 0.922290 0.882031
O O12 0.000000 0.750000 0.604375
#
# Coordination Sequence:
#
# PCOD9510296 Si02
#       5
#    16  16  16   8  16
#     4  11  23  41  66 103 143 187 235 285 353 425
#     4  11  24  43  68 101 142 183 233 291 346 420
#     4  11  25  46  71 100 136 185 235 293 353 413
#     4  12  24  48  72 102 144 180 234 292 358 416
#     4  12  24  43  71 104 141 187 233 280 355 428
#
# _framework density 20.26078
#
# number of rings (size 3 to 8) (size 9 to 14) (size 15 to 20)
#    0.000    0.667    3.333    6.000    1.556    0.889 
#    0.000    0.000    0.000    0.000    0.000    0.000 
#    0.000    0.000    0.000    0.000    0.000    0.000 
#
# Total GULP energy -201026.597951 kJ/mol
# GULP energy per Si atom -5584.072165 kJ/mol
# Density = 2.021467 g / cm^3
# Si number density = 20.260780 Si / 1000 Ang^3
#
#
#
# Elastic Constant Matrix: (Units=GPa)
#
#
# Indices 1 2 3 4 5 6 
#
# 1 128.5836 32.5253 59.9408 0.0000 0.0000 0.0000
# 2 32.5253 81.5909 24.0509 0.0000 0.0000 0.0000
# 3 59.9408 24.0509 146.5208 0.0000 0.0000 0.0000
# 4 0.0000 0.0000 0.0000 26.8815 0.0000 0.0000
# 5 0.0000 0.0000 0.0000 0.0000 19.9181 0.0000
# 6 0.0000 0.0000 0.0000 0.0000 0.0000 33.6382
#
#
#
# Elastic Compliance Matrix: (Units=1/GPa)
#
#
# Indices 1 2 3 4 5 6 
#
# 1 0.010263 -0.002999 -0.003706 0.000000 0.000000 0.000000
# 2 -0.002999 0.013756 -0.001031 0.000000 0.000000 0.000000
# 3 -0.003706 -0.001031 0.008511 0.000000 0.000000 0.000000
# 4 0.000000 0.000000 0.000000 0.037200 0.000000 0.000000
# 5 0.000000 0.000000 0.000000 0.000000 0.050206 0.000000
# 6 0.000000 0.000000 0.000000 0.000000 0.000000 0.029728
#
#
# Mechanical properties :
#
#
# Convention : Reuss Voigt Hill
#
# Bulk Modulus (GPa) = 58.62782 65.52548 62.07665
# Shear Modulus (GPa) = 29.27022 32.09943 30.68483
#
# Velocity S-wave (km/s) = 3.80501 3.98466 3.89587
# Velocity P-wave (km/s) = 6.95008 7.31992 7.13740
#
# Compressibility (1/GPa) = 0.01705675
#
# Stress axis : x y z
#
# Youngs Moduli (GPa) = 97.43353 72.69729 117.50161
#
# Poissons Ratio (x) = 0.21801 0.43551
# Poissons Ratio (y) = 0.29219 0.12116
# Poissons Ratio (z) = 0.36113 0.07496
#
# Static dielectric constant tensor:
#      x y z
#    x 1.707600 0.000000 0.000000 
#    y 0.000000 1.730130 0.000000 
#    z 0.000000 0.000000 1.792440 
# 
# From -- ./inp_files/50006.got.cif
#   From: 2010.05.17/outbox.cif.g08.bks.cpg/sg68_26_cif.got.tgz:50006.got - 2010.06.03 18:57:09.
