data_PCOD9510257
_publ_section_title
;
Structure prediction by ZEFSAII (Michael W. Deem and Ramdas Pophale) SiO2 
 PCOD9510257
Probable space group: C C C A
;
_chemical_formula_sum "Si O2"
_cell_formula_units_Z 88
_cell_length_a 11.619384
_cell_length_b 11.860492
_cell_length_c 31.882269
_cell_angle_alpha 90.000000
_cell_angle_beta 90.000000
_cell_angle_gamma 90.000000
_cell_volume 4393.746852
_symmetry_space_group_name_H-M "C C C A"
_symmetry_group_IT_number 68
_space_group.IT_coordinate_system_code '2'
_symmetry_cell_setting 'orthorhombic'
loop_
_space_group_symop_operation_xyz
x,y,z
-x,1/2-y,z
x,1/2-y,1/2-z
-x,y,1/2-z
-x,-y,-z
x,1/2+y,-z
-x,1/2+y,1/2+z
x,-y,1/2+z
1/2+x,1/2+y,z
1/2-x,-y,z
1/2+x,-y,1/2-z
1/2-x,1/2+y,1/2-z
1/2-x,1/2-y,-z
1/2+x,y,-z
1/2-x,y,1/2+z
1/2+x,1/2-y,1/2+z
loop_
_atom_site_type_symbol
_atom_site_label
_atom_site_fract_x
_atom_site_fract_y
_atom_site_fract_z
Si Si1 0.782094 0.314561 0.905664
Si Si2 0.094094 0.657390 0.526157
Si Si3 0.652321 0.576718 0.633257
Si Si4 0.250000 0.000000 0.840252
Si Si5 0.968656 0.384642 0.796623
Si Si6 0.991357 0.426920 0.558657
O O1 0.710885 0.312200 0.949351
O O2 0.800043 0.197857 0.881242
O O3 0.717733 0.400808 0.873742
O O4 0.911026 0.357700 0.916421
O O5 0.059518 0.531439 0.539435
O O6 0.000000 0.750000 0.539264
O O7 0.078939 0.645307 0.475838
O O8 0.750000 0.500000 0.651446
O O9 0.552766 0.577601 0.666836
O O10 0.601092 0.524818 0.590819
O O11 0.345603 0.936274 0.811520
O O12 0.000000 0.250000 0.795805
O O13 0.000000 0.425893 0.750000
#
# Coordination Sequence:
#
# PCOD9510257 Si02
#       6
#    16  16  16   8  16  16
#     4  12  22  42  67  90 132 184 226 274 340 412
#     4  11  23  37  58  91 128 171 230 284 334 385
#     4  12  24  41  66  99 136 172 225 284 341 405
#     4  12  22  44  76  98 132 182 222 278 334 426
#     4  11  24  45  74 105 137 178 228 278 350 424
#     4  11  23  40  59  88 129 176 229 274 337 410
#
# _framework density 20.028464
#
# number of rings (size 3 to 8) (size 9 to 14) (size 15 to 20)
#    0.000    0.545    5.455    2.727    1.273    5.818 
#    0.000    0.000    0.000    1.091    0.000    0.000 
#    0.000    0.000    0.000    0.000    0.000    0.000 
#
# Total GULP energy -245283.268238 kJ/mol
# GULP energy per Si atom -5574.619733 kJ/mol
# Density = 1.998288 g / cm^3
# Si number density = 20.028464 Si / 1000 Ang^3
#
#
#
# Elastic Constant Matrix: (Units=GPa)
#
#
# Indices 1 2 3 4 5 6 
#
# 1 97.8890 26.8825 43.3374 0.0000 0.0000 0.0000
# 2 26.8825 70.1384 16.3584 0.0000 0.0000 0.0000
# 3 43.3374 16.3584 111.2197 0.0000 0.0000 0.0000
# 4 0.0000 0.0000 0.0000 3.1076 0.0000 0.0000
# 5 0.0000 0.0000 0.0000 0.0000 31.7398 0.0000
# 6 0.0000 0.0000 0.0000 0.0000 0.0000 29.0497
#
#
#
# Elastic Compliance Matrix: (Units=1/GPa)
#
#
# Indices 1 2 3 4 5 6 
#
# 1 0.013370 -0.004048 -0.004614 0.000000 0.000000 0.000000
# 2 -0.004048 0.015990 -0.000774 0.000000 0.000000 0.000000
# 3 -0.004614 -0.000774 0.010903 0.000000 0.000000 0.000000
# 4 0.000000 0.000000 0.000000 0.321787 0.000000 0.000000
# 5 0.000000 0.000000 0.000000 0.000000 0.031506 0.000000
# 6 0.000000 0.000000 0.000000 0.000000 0.000000 0.034424
#
#
# Mechanical properties :
#
#
# Convention : Reuss Voigt Hill
#
# Bulk Modulus (GPa) = 46.75286 50.26708 48.50997
# Shear Modulus (GPa) = 11.01359 25.62402 18.31881
#
# Velocity S-wave (km/s) = 2.34753 3.58072 3.02758
# Velocity P-wave (km/s) = 5.54453 6.49983 6.04109
#
# Compressibility (1/GPa) = 0.02138907
#
# Stress axis : x y z
#
# Youngs Moduli (GPa) = 74.79270 62.54005 91.71683
#
# Poissons Ratio (x) = 0.25318 0.42322
# Poissons Ratio (y) = 0.30278 0.07102
# Poissons Ratio (z) = 0.34512 0.04843
#
# Static dielectric constant tensor:
#      x y z
#    x 1.395560 0.000000 0.000000 
#    y 0.000000 1.760520 0.000000 
#    z 0.000000 0.000000 1.723500 
# 
# From -- ./inp_files/54598.got.cif
#   From: 2010.05.17/outbox.cif.g08.bks.cpg/sg68_28_cif.got.tgz:54598.got - 2010.06.03 18:57:09.
