data_PCOD9510069
_publ_section_title
;
Structure prediction by ZEFSAII (Michael W. Deem and Ramdas Pophale) SiO2 
 PCOD9510069
Probable space group: C C C A
;
_chemical_formula_sum "Si O2"
_cell_formula_units_Z 112
_cell_length_a 13.910046
_cell_length_b 17.268996
_cell_length_c 22.109520
_cell_angle_alpha 90.000000
_cell_angle_beta 90.000000
_cell_angle_gamma 90.000000
_cell_volume 5310.983708
_symmetry_space_group_name_H-M "C C C A"
_symmetry_group_IT_number 68
_space_group.IT_coordinate_system_code '2'
_symmetry_cell_setting 'orthorhombic'
loop_
_space_group_symop_operation_xyz
x,y,z
-x,1/2-y,z
x,1/2-y,1/2-z
-x,y,1/2-z
-x,-y,-z
x,1/2+y,-z
-x,1/2+y,1/2+z
x,-y,1/2+z
1/2+x,1/2+y,z
1/2-x,-y,z
1/2+x,-y,1/2-z
1/2-x,1/2+y,1/2-z
1/2-x,1/2-y,-z
1/2+x,y,-z
1/2-x,y,1/2+z
1/2+x,1/2-y,1/2+z
loop_
_atom_site_type_symbol
_atom_site_label
_atom_site_fract_x
_atom_site_fract_y
_atom_site_fract_z
Si Si1 0.449689 0.488155 0.185762
Si Si2 0.865640 0.317274 0.795956
Si Si3 0.007492 0.448290 0.440704
Si Si4 0.694838 0.418618 0.751520
Si Si5 0.198090 0.082467 0.117029
Si Si6 0.695714 0.767870 0.913531
Si Si7 0.399765 0.292747 0.542163
O O1 0.500000 0.503362 0.250000
O O2 0.420960 0.398199 0.193376
O O3 0.496725 0.501706 0.120891
O O4 0.369252 0.555559 0.191848
O O5 0.898918 0.250000 0.750000
O O6 0.764580 0.349141 0.769229
O O7 0.855303 0.277971 0.860563
O O8 0.927215 0.382140 0.447496
O O9 0.000000 0.500000 0.500000
O O10 0.113693 0.411484 0.432262
O O11 0.750000 0.500000 0.740812
O O12 0.654115 0.402896 0.684316
O O13 0.280095 0.145477 0.107052
O O14 0.250000 0.000000 0.112416
O O15 0.801825 0.730491 0.923438
O O16 0.630853 0.772062 0.973372
O O17 0.500000 0.250000 0.558498
#
# Coordination Sequence:
#
# PCOD9510069 Si02
#       7
#    16  16  16  16  16  16  16
#     4  11  24  42  65  99 139 179 230 293 346 407
#     4  11  23  40  67 102 134 179 224 278 356 426
#     4  12  26  43  69 100 136 181 240 286 343 425
#     4   9  19  39  64  90 129 173 222 278 337 410
#     4  11  21  40  67  95 130 178 228 280 345 412
#     4  11  24  44  69  98 143 178 223 292 355 410
#     4  11  25  45  69 100 136 181 229 289 350 412
#
# _framework density 21.088372
#
# number of rings (size 3 to 8) (size 9 to 14) (size 15 to 20)
#    0.000    1.143    4.286    1.714    2.000    1.429 
#    0.000    3.571    0.000    0.000    0.000    0.000 
#    0.000    0.000    0.000    0.000    0.000    0.000 
#
# Total GULP energy -312270.819089 kJ/mol
# GULP energy per Si atom -5576.264627 kJ/mol
# Density = 2.104037 g / cm^3
# Si number density = 21.088372 Si / 1000 Ang^3
#
#
#
# Elastic Constant Matrix: (Units=GPa)
#
#
# Indices 1 2 3 4 5 6 
#
# 1 44.3938 16.2522 10.1236 0.0000 0.0000 0.0000
# 2 16.2522 104.4415 9.9369 0.0000 0.0000 0.0000
# 3 10.1236 9.9369 102.2773 0.0000 0.0000 0.0000
# 4 0.0000 0.0000 0.0000 -6.7781 0.0000 0.0000
# 5 0.0000 0.0000 0.0000 0.0000 21.5995 0.0000
# 6 0.0000 0.0000 0.0000 0.0000 0.0000 28.3076
#
#
#
# Elastic Compliance Matrix: (Units=1/GPa)
#
#
# Indices 1 2 3 4 5 6 
#
# 1 0.024308 -0.003587 -0.002058 0.000000 0.000000 0.000000
# 2 -0.003587 0.010193 -0.000635 0.000000 0.000000 0.000000
# 3 -0.002058 -0.000635 0.010043 0.000000 0.000000 0.000000
# 4 0.000000 0.000000 0.000000 -0.147535 0.000000 0.000000
# 5 0.000000 0.000000 0.000000 0.000000 0.046297 0.000000
# 6 0.000000 0.000000 0.000000 0.000000 0.000000 0.035326
#
#
# Mechanical properties :
#
#
# Convention : Reuss Voigt Hill
#
# Bulk Modulus (GPa) = 31.26501 35.97089 33.61795
# Shear Modulus (GPa) = 2696.96802 22.94581 1359.95692
#
# Velocity S-wave (km/s) = 35.80035 3.30218 25.42213
# Velocity P-wave (km/s) = 41.51800 5.62436 29.62582
#
# Compressibility (1/GPa) = 0.03198463
#
# Stress axis : x y z
#
# Youngs Moduli (GPa) = 41.13876 98.10341 99.57452
#
# Poissons Ratio (x) = 0.35188 0.20488
# Poissons Ratio (y) = 0.14756 0.06326
# Poissons Ratio (z) = 0.08465 0.06233
#
# Static dielectric constant tensor:
#      x y z
#    x 1.778720 0.000000 0.000000 
#    y 0.000000 1.716060 0.000000 
#    z 0.000000 0.000000 1.769210 
# 
# From -- ./inp_files/45520.got.cif
#   From: 2010.05.17/outbox.cif.g08.bks.cpg/sg68_23_cif.got.tgz:45520.got - 2010.06.03 18:57:09.
