data_PCOD9510584
_publ_section_title
;
Structure prediction by ZEFSAII (Michael W. Deem and Ramdas Pophale) SiO2 
 PCOD9510584
Probable space group: C C C A
;
_chemical_formula_sum "Si O2"
_cell_formula_units_Z 56
_cell_length_a 25.221407
_cell_length_b 9.576466
_cell_length_c 11.184109
_cell_angle_alpha 90.000000
_cell_angle_beta 90.000000
_cell_angle_gamma 90.000000
_cell_volume 2701.319618
_symmetry_space_group_name_H-M "C C C A"
_symmetry_group_IT_number 68
_space_group.IT_coordinate_system_code '2'
_symmetry_cell_setting 'orthorhombic'
loop_
_space_group_symop_operation_xyz
x,y,z
-x,1/2-y,z
x,1/2-y,1/2-z
-x,y,1/2-z
-x,-y,-z
x,1/2+y,-z
-x,1/2+y,1/2+z
x,-y,1/2+z
1/2+x,1/2+y,z
1/2-x,-y,z
1/2+x,-y,1/2-z
1/2-x,1/2+y,1/2-z
1/2-x,1/2-y,-z
1/2+x,y,-z
1/2-x,y,1/2+z
1/2+x,1/2-y,1/2+z
loop_
_atom_site_type_symbol
_atom_site_label
_atom_site_fract_x
_atom_site_fract_y
_atom_site_fract_z
Si Si1 0.937621 0.245383 0.607457
Si Si2 0.618082 0.535748 0.439697
Si Si3 0.639952 0.250000 0.750000
Si Si4 0.286013 0.378958 0.952660
O O1 0.930661 0.250000 0.750000
O O2 0.900544 0.362181 0.545982
O O3 0.000000 0.250000 0.579815
O O4 0.918909 0.097178 0.559913
O O5 0.610611 0.625138 0.318563
O O6 0.676923 0.467128 0.454336
O O7 0.675491 0.184081 0.853972
O O8 0.250000 0.500000 0.897084
O O9 0.250000 0.250000 0.000000
#
# Coordination Sequence:
#
# PCOD9510584 Si02
#       4
#    16  16   8  16
#     4  11  25  46  73 100 137 180 229 285 348 407
#     4  12  24  48  69 105 139 177 232 286 341 412
#     4  12  26  42  73  98 140 182 227 278 348 392
#     4  12  25  44  65  99 137 183 228 276 334 402
#
# _framework density 20.730608
#
# number of rings (size 3 to 8) (size 9 to 14) (size 15 to 20)
#    0.000    0.286    5.714    2.571    4.000    0.000 
#    2.571    0.000    0.000    0.000    0.000    0.000 
#    0.000    0.000    0.000    0.000    0.000    0.000 
#
# Total GULP energy -156347.630091 kJ/mol
# GULP energy per Si atom -5583.843932 kJ/mol
# Density = 2.068342 g / cm^3
# Si number density = 20.730608 Si / 1000 Ang^3
#
#
#
# Elastic Constant Matrix: (Units=GPa)
#
#
# Indices 1 2 3 4 5 6 
#
# 1 79.3938 55.2749 25.0714 0.0000 0.0000 0.0000
# 2 55.2749 183.3103 41.6143 0.0000 0.0000 0.0000
# 3 25.0714 41.6143 63.4366 0.0000 0.0000 0.0000
# 4 0.0000 0.0000 0.0000 46.5636 0.0000 0.0000
# 5 0.0000 0.0000 0.0000 0.0000 16.2373 0.0000
# 6 0.0000 0.0000 0.0000 0.0000 0.0000 44.0654
#
#
#
# Elastic Compliance Matrix: (Units=1/GPa)
#
#
# Indices 1 2 3 4 5 6 
#
# 1 0.016716 -0.004160 -0.003877 0.000000 0.000000 0.000000
# 2 -0.004160 0.007445 -0.003240 0.000000 0.000000 0.000000
# 3 -0.003877 -0.003240 0.019422 0.000000 0.000000 0.000000
# 4 0.000000 0.000000 0.000000 0.021476 0.000000 0.000000
# 5 0.000000 0.000000 0.000000 0.000000 0.061587 0.000000
# 6 0.000000 0.000000 0.000000 0.000000 0.000000 0.022694
#
#
# Mechanical properties :
#
#
# Convention : Reuss Voigt Hill
#
# Bulk Modulus (GPa) = 47.55589 63.34024 55.44807
# Shear Modulus (GPa) = 27.94797 34.98525 31.46661
#
# Velocity S-wave (km/s) = 3.67570 4.11251 3.90023
# Velocity P-wave (km/s) = 6.40344 7.29182 6.86202
#
# Compressibility (1/GPa) = 0.02102789
#
# Stress axis : x y z
#
# Youngs Moduli (GPa) = 59.82153 134.31425 51.48924
#
# Poissons Ratio (x) = 0.55880 0.19965
# Poissons Ratio (y) = 0.24888 0.16681
# Poissons Ratio (z) = 0.23196 0.43515
#
# Static dielectric constant tensor:
#      x y z
#    x 1.799130 0.000000 0.000000 
#    y 0.000000 1.837200 0.000000 
#    z 0.000000 0.000000 1.733350 
# 
# From -- ./inp_files/10552.got.cif
#   From: 2010.05.17/outbox.cif.g08.bks.cpg/sg68_6_cif.got.tgz:10552.got - 2010.06.03 18:57:09.
