data_PCOD9510345
_publ_section_title
;
Structure prediction by ZEFSAII (Michael W. Deem and Ramdas Pophale) SiO2 
 PCOD9510345
Probable space group: C C C A
;
_chemical_formula_sum "Si O2"
_cell_formula_units_Z 64
_cell_length_a 8.698828
_cell_length_b 32.934138
_cell_length_c 10.762622
_cell_angle_alpha 90.000000
_cell_angle_beta 90.000000
_cell_angle_gamma 90.000000
_cell_volume 3083.366376
_symmetry_space_group_name_H-M "C C C A"
_symmetry_group_IT_number 68
_space_group.IT_coordinate_system_code '2'
_symmetry_cell_setting 'orthorhombic'
loop_
_space_group_symop_operation_xyz
x,y,z
-x,1/2-y,z
x,1/2-y,1/2-z
-x,y,1/2-z
-x,-y,-z
x,1/2+y,-z
-x,1/2+y,1/2+z
x,-y,1/2+z
1/2+x,1/2+y,z
1/2-x,-y,z
1/2+x,-y,1/2-z
1/2-x,1/2+y,1/2-z
1/2-x,1/2-y,-z
1/2+x,y,-z
1/2-x,y,1/2+z
1/2+x,1/2-y,1/2+z
loop_
_atom_site_type_symbol
_atom_site_label
_atom_site_fract_x
_atom_site_fract_y
_atom_site_fract_z
Si Si1 0.174112 0.733048 0.876694
Si Si2 0.921225 0.016520 0.623198
Si Si3 0.381594 0.111973 0.399535
Si Si4 0.281316 0.358706 0.359823
O O1 0.247528 0.750000 0.750000
O O2 0.201208 0.685021 0.870261
O O3 0.000000 0.750000 0.878722
O O4 0.250000 0.750000 0.000000
O O5 0.926298 0.065320 0.620500
O O6 0.000000 0.002238 0.750000
O O7 0.750000 0.000000 0.623956
O O8 0.000000 0.000000 0.500000
O O9 0.536284 0.139392 0.392734
O O10 0.275896 0.125493 0.282416
O O11 0.300370 0.115429 0.532490
#
# Coordination Sequence:
#
# PCOD9510345 Si02
#       4
#    16  16  16  16
#     4  11  24  42  66 100 134 176 231 281 352 413
#     4  12  26  46  72 105 148 187 240 292 357 432
#     4  11  25  45  68 103 135 185 237 280 358 414
#     4  11  23  44  68  95 142 176 232 293 338 427
#
# _framework density 20.756533999999998
#
# number of rings (size 3 to 8) (size 9 to 14) (size 15 to 20)
#    0.000    0.750    2.500    5.250    3.500    5.500 
#    0.000    0.000    0.000    0.000    0.000    0.000 
#    0.000    0.000    0.000    0.000    0.000    0.000 
#
# Total GULP energy -178864.715573 kJ/mol
# GULP energy per Si atom -5589.522362 kJ/mol
# Density = 2.070929 g / cm^3
# Si number density = 20.756534 Si / 1000 Ang^3
#
#
#
# Elastic Constant Matrix: (Units=GPa)
#
#
# Indices 1 2 3 4 5 6 
#
# 1 110.9256 38.3597 65.6871 0.0000 0.0000 0.0000
# 2 38.3597 111.2384 56.9684 0.0000 0.0000 0.0000
# 3 65.6871 56.9684 168.9693 0.0000 0.0000 0.0000
# 4 0.0000 0.0000 0.0000 41.7630 0.0000 0.0000
# 5 0.0000 0.0000 0.0000 0.0000 73.6489 0.0000
# 6 0.0000 0.0000 0.0000 0.0000 0.0000 26.7854
#
#
#
# Elastic Compliance Matrix: (Units=1/GPa)
#
#
# Indices 1 2 3 4 5 6 
#
# 1 0.012116 -0.002135 -0.003991 0.000000 0.000000 0.000000
# 2 -0.002135 0.011242 -0.002960 0.000000 0.000000 0.000000
# 3 -0.003991 -0.002960 0.008468 0.000000 0.000000 0.000000
# 4 0.000000 0.000000 0.000000 0.023945 0.000000 0.000000
# 5 0.000000 0.000000 0.000000 0.000000 0.013578 0.000000
# 6 0.000000 0.000000 0.000000 0.000000 0.000000 0.037334
#
#
# Mechanical properties :
#
#
# Convention : Reuss Voigt Hill
#
# Bulk Modulus (GPa) = 73.23414 79.24042 76.23728
# Shear Modulus (GPa) = 38.63841 43.78067 41.20954
#
# Velocity S-wave (km/s) = 4.31920 4.59764 4.46059
# Velocity P-wave (km/s) = 7.76099 8.15128 7.95853
#
# Compressibility (1/GPa) = 0.01365483
#
# Stress axis : x y z
#
# Youngs Moduli (GPa) = 82.53333 88.95293 118.09586
#
# Poissons Ratio (x) = 0.18987 0.47127
# Poissons Ratio (y) = 0.17617 0.34961
# Poissons Ratio (z) = 0.32936 0.26334
#
# Static dielectric constant tensor:
#      x y z
#    x 1.725070 0.000000 0.000000 
#    y 0.000000 1.720480 0.000000 
#    z 0.000000 0.000000 1.742460 
# 
# From -- ./inp_files/10760.got.cif
#   From: 2010.05.17/outbox.cif.g08.bks.cpg/sg68_6_cif.got.tgz:10760.got - 2010.06.03 18:57:09.
