data_PCOD9510480
_publ_section_title
;
Structure prediction by ZEFSAII (Michael W. Deem and Ramdas Pophale) SiO2 
 PCOD9510480
Probable space group: C C C A
;
_chemical_formula_sum "Si O2"
_cell_formula_units_Z 116
_cell_length_a 20.891030
_cell_length_b 9.543961
_cell_length_c 25.515203
_cell_angle_alpha 90.000000
_cell_angle_beta 90.000000
_cell_angle_gamma 90.000000
_cell_volume 5087.302199
_symmetry_space_group_name_H-M "C C C A"
_symmetry_group_IT_number 68
_space_group.IT_coordinate_system_code '2'
_symmetry_cell_setting 'orthorhombic'
loop_
_space_group_symop_operation_xyz
x,y,z
-x,1/2-y,z
x,1/2-y,1/2-z
-x,y,1/2-z
-x,-y,-z
x,1/2+y,-z
-x,1/2+y,1/2+z
x,-y,1/2+z
1/2+x,1/2+y,z
1/2-x,-y,z
1/2+x,-y,1/2-z
1/2-x,1/2+y,1/2-z
1/2-x,1/2-y,-z
1/2+x,y,-z
1/2-x,y,1/2+z
1/2+x,1/2-y,1/2+z
loop_
_atom_site_type_symbol
_atom_site_label
_atom_site_fract_x
_atom_site_fract_y
_atom_site_fract_z
Si Si1 0.082004 0.595051 0.834260
Si Si2 0.075496 0.224011 0.689543
Si Si3 0.810499 0.830301 0.023955
Si Si4 0.893595 0.431146 0.504744
Si Si5 0.304535 0.708821 0.188527
Si Si6 0.002168 0.405541 0.064314
Si Si7 0.000000 0.250000 0.250000
Si Si8 0.320106 0.105601 0.356262
O O1 0.095190 0.431804 0.826950
O O2 0.146065 0.687847 0.841375
O O3 0.028616 0.610769 0.879057
O O4 0.046384 0.652459 0.783290
O O5 0.094077 0.250000 0.750000
O O6 0.110264 0.332879 0.652308
O O7 0.000000 0.250000 0.685723
O O8 0.800337 0.884155 0.082990
O O9 0.834700 0.962412 0.990666
O O10 0.750000 0.750000 0.000000
O O11 0.868447 0.719254 0.020866
O O12 0.953305 0.485094 0.538404
O O13 0.923710 0.441999 0.445899
O O14 0.310531 0.750000 0.250000
O O15 0.319431 0.547852 0.170909
O O16 0.229900 0.710714 0.172760
O O17 0.000000 0.250000 0.039068
#
# Coordination Sequence:
#
# PCOD9510480 Si02
#       8
#    16  16  16  16  16  16   4  16
#     4  12  26  43  74 108 148 199 254 310 387 466
#     4  11  25  45  72 108 154 195 246 321 391 463
#     4  12  28  48  76 107 151 202 256 323 385 462
#     4  11  26  48  74 105 146 191 256 314 387 455
#     4  11  26  49  79 110 149 202 258 317 389 473
#     4  11  24  44  73 108 141 193 246 318 379 457
#     4  12  24  40  66 108 144 188 244 300 364 450
#     4  11  28  48  76 110 151 202 256 322 391 463
#
# _framework density 22.801867999999999
#
# number of rings (size 3 to 8) (size 9 to 14) (size 15 to 20)
#    0.000    0.690    2.759    3.310   11.586    1.655 
#    2.483    0.000    0.000    0.000    0.000    0.000 
#    0.000    0.000    0.000    0.000    0.000    0.000 
#
# Total GULP energy -324179.929301 kJ/mol
# GULP energy per Si atom -5589.309126 kJ/mol
# Density = 2.274997 g / cm^3
# Si number density = 22.801868 Si / 1000 Ang^3
#
#
#
# Elastic Constant Matrix: (Units=GPa)
#
#
# Indices 1 2 3 4 5 6 
#
# 1 89.4408 32.8251 31.0079 0.0000 0.0000 0.0000
# 2 32.8251 132.4405 32.8639 0.0000 0.0000 0.0000
# 3 31.0079 32.8639 99.1681 0.0000 0.0000 0.0000
# 4 0.0000 0.0000 0.0000 22.2765 0.0000 0.0000
# 5 0.0000 0.0000 0.0000 0.0000 42.3754 0.0000
# 6 0.0000 0.0000 0.0000 0.0000 0.0000 51.5465
#
#
#
# Elastic Compliance Matrix: (Units=1/GPa)
#
#
# Indices 1 2 3 4 5 6 
#
# 1 0.013234 -0.002455 -0.003324 0.000000 0.000000 0.000000
# 2 -0.002455 0.008683 -0.002110 0.000000 0.000000 0.000000
# 3 -0.003324 -0.002110 0.011823 0.000000 0.000000 0.000000
# 4 0.000000 0.000000 0.000000 0.044890 0.000000 0.000000
# 5 0.000000 0.000000 0.000000 0.000000 0.023599 0.000000
# 6 0.000000 0.000000 0.000000 0.000000 0.000000 0.019400
#
#
# Mechanical properties :
#
#
# Convention : Reuss Voigt Hill
#
# Bulk Modulus (GPa) = 55.67707 57.16034 56.41871
# Shear Modulus (GPa) = 34.86904 38.19650 36.53277
#
# Velocity S-wave (km/s) = 3.91476 4.09730 4.00707
# Velocity P-wave (km/s) = 6.70109 6.89249 6.79747
#
# Compressibility (1/GPa) = 0.01796071
#
# Stress axis : x y z
#
# Youngs Moduli (GPa) = 75.56207 115.17339 84.58432
#
# Poissons Ratio (x) = 0.28277 0.28120
# Poissons Ratio (y) = 0.18551 0.17845
# Poissons Ratio (z) = 0.25120 0.24298
#
# Static dielectric constant tensor:
#      x y z
#    x 1.881240 0.000000 0.000000 
#    y 0.000000 1.877990 0.000000 
#    z 0.000000 0.000000 1.961520 
# 
# From -- ./inp_files/52215.got.cif
#   From: 2010.05.17/outbox.cif.g08.bks.cpg/sg68_27_cif.got.tgz:52215.got - 2010.06.03 18:57:09.
