data_PCOD9510091
_publ_section_title
;
Structure prediction by ZEFSAII (Michael W. Deem and Ramdas Pophale) SiO2 
 PCOD9510091
Probable space group: C C C A
;
_chemical_formula_sum "Si O2"
_cell_formula_units_Z 76
_cell_length_a 14.113756
_cell_length_b 22.667415
_cell_length_c 11.735397
_cell_angle_alpha 90.000000
_cell_angle_beta 90.000000
_cell_angle_gamma 90.000000
_cell_volume 3754.415956
_symmetry_space_group_name_H-M "C C C A"
_symmetry_group_IT_number 68
_space_group.IT_coordinate_system_code '2'
_symmetry_cell_setting 'orthorhombic'
loop_
_space_group_symop_operation_xyz
x,y,z
-x,1/2-y,z
x,1/2-y,1/2-z
-x,y,1/2-z
-x,-y,-z
x,1/2+y,-z
-x,1/2+y,1/2+z
x,-y,1/2+z
1/2+x,1/2+y,z
1/2-x,-y,z
1/2+x,-y,1/2-z
1/2-x,1/2+y,1/2-z
1/2-x,1/2-y,-z
1/2+x,y,-z
1/2-x,y,1/2+z
1/2+x,1/2-y,1/2+z
loop_
_atom_site_type_symbol
_atom_site_label
_atom_site_fract_x
_atom_site_fract_y
_atom_site_fract_z
Si Si1 0.654088 0.283533 0.869743
Si Si2 0.130069 0.310491 0.566371
Si Si3 0.612544 0.587307 0.349952
Si Si4 0.750000 0.500000 0.969303
Si Si5 0.000000 0.250000 0.750000
Si Si6 0.408647 0.925873 0.083871
O O1 0.641481 0.250000 0.750000
O O2 0.763002 0.304434 0.885651
O O3 0.599101 0.344597 0.884361
O O4 0.625433 0.238726 0.968015
O O5 0.105974 0.372304 0.505493
O O6 0.062059 0.291764 0.668669
O O7 0.703918 0.552815 0.395728
O O8 0.618099 0.590851 0.213431
O O9 0.518391 0.556092 0.399601
O O10 0.664276 0.524533 0.044550
#
# Coordination Sequence:
#
# PCOD9510091 Si02
#       6
#    16  16  16   8   4  16
#     4  11  21  42  72  97 134 183 221 281 344 407
#     4  11  23  40  65 100 140 174 224 280 347 406
#     4  11  24  43  68  97 133 174 234 276 336 410
#     4  12  24  46  68  94 136 178 222 292 334 392
#     4  12  24  40  58 108 144 170 224 286 346 420
#     4  11  24  44  67  99 131 178 228 274 338 406
#
# _framework density 20.242830000000001
#
# number of rings (size 3 to 8) (size 9 to 14) (size 15 to 20)
#    0.000    0.842    5.263    2.526    0.000    0.000 
#    3.789    2.105    0.000    0.000    0.000    0.000 
#    0.000    0.000    0.000    0.000    0.000    0.000 
#
# Total GULP energy -212254.986207 kJ/mol
# GULP energy per Si atom -5585.657532 kJ/mol
# Density = 2.019676 g / cm^3
# Si number density = 20.242830 Si / 1000 Ang^3
#
#
#
# Elastic Constant Matrix: (Units=GPa)
#
#
# Indices 1 2 3 4 5 6 
#
# 1 82.3909 16.3248 45.0650 0.0000 0.0000 0.0000
# 2 16.3248 71.3128 22.3013 0.0000 0.0000 0.0000
# 3 45.0650 22.3013 83.4711 0.0000 0.0000 0.0000
# 4 0.0000 0.0000 0.0000 -5.4766 0.0000 0.0000
# 5 0.0000 0.0000 0.0000 0.0000 47.3392 0.0000
# 6 0.0000 0.0000 0.0000 0.0000 0.0000 31.8427
#
#
#
# Elastic Compliance Matrix: (Units=1/GPa)
#
#
# Indices 1 2 3 4 5 6 
#
# 1 0.017307 -0.001135 -0.009041 0.000000 0.000000 0.000000
# 2 -0.001135 0.015376 -0.003495 0.000000 0.000000 0.000000
# 3 -0.009041 -0.003495 0.017795 0.000000 0.000000 0.000000
# 4 0.000000 0.000000 0.000000 -0.182594 0.000000 0.000000
# 5 0.000000 0.000000 0.000000 0.000000 0.021124 0.000000
# 6 0.000000 0.000000 0.000000 0.000000 0.000000 0.031404
#
#
# Mechanical properties :
#
#
# Convention : Reuss Voigt Hill
#
# Bulk Modulus (GPa) = 43.22233 44.95079 44.08656
# Shear Modulus (GPa) = -112.27278 24.97328 -43.64975
#
# Velocity S-wave (km/s) = -7.45543 3.51620 -4.64864
# Velocity P-wave (km/s) = 7.26037 6.22405 2.64330
#
# Compressibility (1/GPa) = 0.02313619
#
# Stress axis : x y z
#
# Youngs Moduli (GPa) = 57.77993 65.03825 56.19549
#
# Poissons Ratio (x) = 0.07380 0.50805
# Poissons Ratio (y) = 0.06556 0.19642
# Poissons Ratio (z) = 0.52237 0.22733
#
# Static dielectric constant tensor:
#      x y z
#    x 1.764380 0.000000 0.000000 
#    y 0.000000 1.737050 0.000000 
#    z 0.000000 0.000000 1.674590 
# 
# From -- ./inp_files/13227.got.cif
#   From: 2010.05.17/outbox.cif.g08.bks.cpg/sg68_7_cif.got.tgz:13227.got - 2010.06.03 18:57:09.
