data_PCOD9510430
_publ_section_title
;
Structure prediction by ZEFSAII (Michael W. Deem and Ramdas Pophale) SiO2 
 PCOD9510430
Probable space group: C C C A
;
_chemical_formula_sum "Si O2"
_cell_formula_units_Z 56
_cell_length_a 13.896700
_cell_length_b 8.598132
_cell_length_c 18.628385
_cell_angle_alpha 90.000000
_cell_angle_beta 90.000000
_cell_angle_gamma 90.000000
_cell_volume 2225.824894
_symmetry_space_group_name_H-M "C C C A"
_symmetry_group_IT_number 68
_space_group.IT_coordinate_system_code '2'
_symmetry_cell_setting 'orthorhombic'
loop_
_space_group_symop_operation_xyz
x,y,z
-x,1/2-y,z
x,1/2-y,1/2-z
-x,y,1/2-z
-x,-y,-z
x,1/2+y,-z
-x,1/2+y,1/2+z
x,-y,1/2+z
1/2+x,1/2+y,z
1/2-x,-y,z
1/2+x,-y,1/2-z
1/2-x,1/2+y,1/2-z
1/2-x,1/2-y,-z
1/2+x,y,-z
1/2-x,y,1/2+z
1/2+x,1/2-y,1/2+z
loop_
_atom_site_type_symbol
_atom_site_label
_atom_site_fract_x
_atom_site_fract_y
_atom_site_fract_z
Si Si1 0.824718 0.882635 0.478417
Si Si2 0.250000 0.500000 0.245016
Si Si3 0.881109 0.867526 0.634828
Si Si4 0.078073 0.497714 0.352930
O O1 0.750000 0.750000 0.500000
O O2 0.863728 0.935591 0.555610
O O3 0.750000 0.000000 0.442628
O O4 0.908445 0.884408 0.419835
O O5 0.208899 0.374115 0.188371
O O6 0.158485 0.540526 0.294434
O O7 0.903532 0.684750 0.625280
O O8 0.966637 0.972542 0.668147
#
# Coordination Sequence:
#
# PCOD9510430 Si02
#       4
#    16   8  16  16
#     4  12  22  43  72 102 138 182 229 289 349 412
#     4  12  22  40  66  96 134 178 232 284 338 412
#     4  11  24  42  70  98 136 182 229 285 350 420
#     4  11  24  44  68 100 135 182 233 283 349 423
#
# _framework density 25.159209000000001
#
# number of rings (size 3 to 8) (size 9 to 14) (size 15 to 20)
#    0.000    0.571    5.714    2.571    0.000    2.286 
#    0.000    0.000    0.000    6.857    0.000    0.000 
#    0.000    0.000    0.000    0.000    0.000    0.000 
#
# Total GULP energy -156095.945557 kJ/mol
# GULP energy per Si atom -5574.855198 kJ/mol
# Density = 2.510195 g / cm^3
# Si number density = 25.159209 Si / 1000 Ang^3
#
#
#
# Elastic Constant Matrix: (Units=GPa)
#
#
# Indices 1 2 3 4 5 6 
#
# 1 143.9004 32.9803 64.3529 0.0000 0.0000 0.0000
# 2 32.9803 53.4045 8.1752 0.0000 0.0000 0.0000
# 3 64.3529 8.1752 170.2884 0.0000 0.0000 0.0000
# 4 0.0000 0.0000 0.0000 145.4885 0.0000 0.0000
# 5 0.0000 0.0000 0.0000 0.0000 43.9240 0.0000
# 6 0.0000 0.0000 0.0000 0.0000 0.0000 41.7121
#
#
#
# Elastic Compliance Matrix: (Units=1/GPa)
#
#
# Indices 1 2 3 4 5 6 
#
# 1 0.009735 -0.005489 -0.003415 0.000000 0.000000 0.000000
# 2 -0.005489 0.021959 0.001020 0.000000 0.000000 0.000000
# 3 -0.003415 0.001020 0.007114 0.000000 0.000000 0.000000
# 4 0.000000 0.000000 0.000000 0.006873 0.000000 0.000000
# 5 0.000000 0.000000 0.000000 0.000000 0.022767 0.000000
# 6 0.000000 0.000000 0.000000 0.000000 0.000000 0.023974
#
#
# Mechanical properties :
#
#
# Convention : Reuss Voigt Hill
#
# Bulk Modulus (GPa) = 43.40440 64.29003 53.84721
# Shear Modulus (GPa) = 43.15233 63.69724 53.42479
#
# Velocity S-wave (km/s) = 4.14595 5.03712 4.61311
# Velocity P-wave (km/s) = 6.34097 7.70966 7.05857
#
# Compressibility (1/GPa) = 0.02303914
#
# Stress axis : x y z
#
# Youngs Moduli (GPa) = 102.72715 45.54045 140.56688
#
# Poissons Ratio (x) = 0.24996 0.48007
# Poissons Ratio (y) = 0.56385 -0.14339
# Poissons Ratio (z) = 0.35084 -0.04645
#
# Static dielectric constant tensor:
#      x y z
#    x 2.238140 0.000000 0.000000 
#    y 0.000000 2.094970 0.000000 
#    z 0.000000 0.000000 2.007660 
# 
# From -- ./inp_files/30393.got.cif
#   From: 2010.05.17/outbox.cif.g08.bks.cpg/sg68_16_cif.got.tgz:30393.got - 2010.06.03 18:57:09.
