data_PCOD9510692
_publ_section_title
;
Structure prediction by ZEFSAII (Michael W. Deem and Ramdas Pophale) SiO2 
 PCOD9510692
Probable space group: C C C A
;
_chemical_formula_sum "Si O2"
_cell_formula_units_Z 60
_cell_length_a 18.061550
_cell_length_b 15.684555
_cell_length_c 8.104483
_cell_angle_alpha 90.000000
_cell_angle_beta 90.000000
_cell_angle_gamma 90.000000
_cell_volume 2295.897710
_symmetry_space_group_name_H-M "C C C A"
_symmetry_group_IT_number 68
_space_group.IT_coordinate_system_code '2'
_symmetry_cell_setting 'orthorhombic'
loop_
_space_group_symop_operation_xyz
x,y,z
-x,1/2-y,z
x,1/2-y,1/2-z
-x,y,1/2-z
-x,-y,-z
x,1/2+y,-z
-x,1/2+y,1/2+z
x,-y,1/2+z
1/2+x,1/2+y,z
1/2-x,-y,z
1/2+x,-y,1/2-z
1/2-x,1/2+y,1/2-z
1/2-x,1/2-y,-z
1/2+x,y,-z
1/2-x,y,1/2+z
1/2+x,1/2-y,1/2+z
loop_
_atom_site_type_symbol
_atom_site_label
_atom_site_fract_x
_atom_site_fract_y
_atom_site_fract_z
Si Si1 0.500000 0.750000 0.750000
Si Si2 0.276966 0.404610 0.267492
Si Si3 0.895049 0.819969 0.499217
Si Si4 0.635323 0.876278 0.425215
Si Si5 0.000000 0.917703 0.750000
O O1 0.551505 0.685197 0.656022
O O2 0.250000 0.500000 0.303441
O O3 0.323368 0.363628 0.417510
O O4 0.196172 0.361765 0.279172
O O5 0.322108 0.401416 0.096101
O O6 0.890590 0.720090 0.544258
O O7 0.943933 0.867121 0.633651
O O8 0.568163 0.942620 0.379849
#
# Coordination Sequence:
#
# PCOD9510692 Si02
#       5
#     4  16  16  16   8
#     4  12  20  42  78 118 152 188 262 324 392 438
#     4  12  27  47  70 105 154 204 254 311 388 473
#     4  12  22  44  75 113 148 195 253 328 383 458
#     4  12  24  45  72 108 144 200 254 325 383 459
#     4  12  25  44  79 115 150 186 263 330 393 448
#
# _framework density 26.133568
#
# number of rings (size 3 to 8) (size 9 to 14) (size 15 to 20)
#    0.000    0.000    5.333    4.800    0.000    2.133 
#    0.000    8.000    0.000    0.000    0.000    0.000 
#    0.000    0.000    0.000    0.000    0.000    0.000 
#
# Total GULP energy -167289.367703 kJ/mol
# GULP energy per Si atom -5576.312257 kJ/mol
# Density = 2.607409 g / cm^3
# Si number density = 26.133568 Si / 1000 Ang^3
#
#
#
# Elastic Constant Matrix: (Units=GPa)
#
#
# Indices 1 2 3 4 5 6 
#
# 1 196.3084 -2.8989 47.8166 0.0000 0.0000 0.0000
# 2 -2.8989 19.4375 -14.9835 0.0000 0.0000 0.0000
# 3 47.8166 -14.9835 113.7719 0.0000 0.0000 0.0000
# 4 0.0000 0.0000 0.0000 -5.2249 0.0000 0.0000
# 5 0.0000 0.0000 0.0000 0.0000 112.5857 0.0000
# 6 0.0000 0.0000 0.0000 0.0000 0.0000 12.6522
#
#
#
# Elastic Compliance Matrix: (Units=1/GPa)
#
#
# Indices 1 2 3 4 5 6 
#
# 1 0.005696 -0.001108 -0.002540 0.000000 0.000000 0.000000
# 2 -0.001108 0.057476 0.008035 0.000000 0.000000 0.000000
# 3 -0.002540 0.008035 0.010915 0.000000 0.000000 0.000000
# 4 0.000000 0.000000 0.000000 -0.191392 0.000000 0.000000
# 5 0.000000 0.000000 0.000000 0.000000 0.008882 0.000000
# 6 0.000000 0.000000 0.000000 0.000000 0.000000 0.079038
#
#
# Mechanical properties :
#
#
# Convention : Reuss Voigt Hill
#
# Bulk Modulus (GPa) = 12.06841 43.26514 27.66677
# Shear Modulus (GPa) = -474.47855 43.97484 -215.25186
#
# Velocity S-wave (km/s) = -13.48900 4.10652 -9.08542
# Velocity P-wave (km/s) = 15.42648 6.25108 9.97247
#
# Compressibility (1/GPa) = 0.08286098
#
# Stress axis : x y z
#
# Youngs Moduli (GPa) = 175.55049 17.39862 91.61443
#
# Poissons Ratio (x) = 0.01929 0.23271
# Poissons Ratio (y) = 0.19459 -0.73615
# Poissons Ratio (z) = 0.44591 -0.13980
#
# Static dielectric constant tensor:
#      x y z
#    x 2.215740 0.000000 0.000000 
#    y 0.000000 2.555820 0.000000 
#    z 0.000000 0.000000 4.116120 
# 
# From -- ./inp_files/5652.got.cif
#   From: 2010.05.17/outbox.cif.g08.bks.cpg/sg68_3_cif.got.tgz:5652.got - 2010.06.03 18:57:09.
