data_PCOD9510832
_publ_section_title
;
Structure prediction by ZEFSAII (Michael W. Deem and Ramdas Pophale) SiO2 
 PCOD9510832
Probable space group: C C C A
;
_chemical_formula_sum "Si O2"
_cell_formula_units_Z 44
_cell_length_a 17.585036
_cell_length_b 7.250889
_cell_length_c 13.826131
_cell_angle_alpha 90.000000
_cell_angle_beta 90.000000
_cell_angle_gamma 90.000000
_cell_volume 1762.930478
_symmetry_space_group_name_H-M "C C C A"
_symmetry_group_IT_number 68
_space_group.IT_coordinate_system_code '2'
_symmetry_cell_setting 'orthorhombic'
loop_
_space_group_symop_operation_xyz
x,y,z
-x,1/2-y,z
x,1/2-y,1/2-z
-x,y,1/2-z
-x,-y,-z
x,1/2+y,-z
-x,1/2+y,1/2+z
x,-y,1/2+z
1/2+x,1/2+y,z
1/2-x,-y,z
1/2+x,-y,1/2-z
1/2-x,1/2+y,1/2-z
1/2-x,1/2-y,-z
1/2+x,y,-z
1/2-x,y,1/2+z
1/2+x,1/2-y,1/2+z
loop_
_atom_site_type_symbol
_atom_site_label
_atom_site_fract_x
_atom_site_fract_y
_atom_site_fract_z
Si Si1 0.316737 0.624508 0.888045
Si Si2 0.000000 0.250000 0.250000
Si Si3 0.250000 0.500000 0.581626
Si Si4 0.485616 0.038535 0.111774
O O1 0.250000 0.500000 0.845931
O O2 0.298483 0.838938 0.866688
O O3 0.396113 0.528558 0.864936
O O4 0.306737 0.604396 0.005754
O O5 0.034484 0.395921 0.174340
O O6 0.500000 0.250000 0.133215
O O7 0.500000 0.000000 0.000000
#
# Coordination Sequence:
#
# PCOD9510832 Si02
#       4
#    16   4   8  16
#     4   9  18  34  62 101 137 182 240 290 359 444
#     4  12  30  48  72 108 156 184 268 300 360 476
#     4   8  16  28  58  98 138 166 238 288 342 456
#     4  12  25  44  76 110 146 202 243 311 384 434
#
# _framework density 24.958442999999999
#
# number of rings (size 3 to 8) (size 9 to 14) (size 15 to 20)
#    1.091    0.727    1.818    2.727    0.000    2.909 
#    0.000    0.000    8.000    0.000    0.000    0.000 
#    0.000    0.000    0.000    0.000    0.000    0.000 
#
# Total GULP energy -122633.362373 kJ/mol
# GULP energy per Si atom -5574.243744 kJ/mol
# Density = 2.490164 g / cm^3
# Si number density = 24.958443 Si / 1000 Ang^3
#
#
#
# Elastic Constant Matrix: (Units=GPa)
#
#
# Indices 1 2 3 4 5 6 
#
# 1 131.5844 29.0598 12.4997 0.0000 0.0000 0.0000
# 2 29.0598 204.5782 52.0856 0.0000 0.0000 0.0000
# 3 12.4997 52.0856 120.0503 0.0000 0.0000 0.0000
# 4 0.0000 0.0000 0.0000 34.2954 0.0000 0.0000
# 5 0.0000 0.0000 0.0000 0.0000 8.0066 0.0000
# 6 0.0000 0.0000 0.0000 0.0000 0.0000 30.8267
#
#
#
# Elastic Compliance Matrix: (Units=1/GPa)
#
#
# Indices 1 2 3 4 5 6 
#
# 1 0.007861 -0.001021 -0.000375 0.000000 0.000000 0.000000
# 2 -0.001021 0.005628 -0.002335 0.000000 0.000000 0.000000
# 3 -0.000375 -0.002335 0.009382 0.000000 0.000000 0.000000
# 4 0.000000 0.000000 0.000000 0.029158 0.000000 0.000000
# 5 0.000000 0.000000 0.000000 0.000000 0.124898 0.000000
# 6 0.000000 0.000000 0.000000 0.000000 0.000000 0.032439
#
#
# Mechanical properties :
#
#
# Convention : Reuss Voigt Hill
#
# Bulk Modulus (GPa) = 64.90557 71.50034 68.20295
# Shear Modulus (GPa) = 22.52602 38.79693 30.66147
#
# Velocity S-wave (km/s) = 3.00749 3.94694 3.50880
# Velocity P-wave (km/s) = 6.17429 7.03428 6.61827
#
# Compressibility (1/GPa) = 0.01540700
#
# Stress axis : x y z
#
# Youngs Moduli (GPa) = 127.21288 177.69183 106.58517
#
# Poissons Ratio (x) = 0.18143 0.04002
# Poissons Ratio (y) = 0.12989 0.24892
# Poissons Ratio (z) = 0.04777 0.41497
#
# Static dielectric constant tensor:
#      x y z
#    x 2.017050 0.000000 0.000000 
#    y 0.000000 2.046960 0.000000 
#    z 0.000000 0.000000 2.023050 
# 
# From -- ./inp_files/22953.got.cif
#   From: 2010.05.17/outbox.cif.g08.bks.cpg/sg68_12_cif.got.tgz:22953.got - 2010.06.03 18:57:09.
