data_PCOD9510389
_publ_section_title
;
Structure prediction by ZEFSAII (Michael W. Deem and Ramdas Pophale) SiO2 
 PCOD9510389
Probable space group: C C C A
;
_chemical_formula_sum "Si O2"
_cell_formula_units_Z 64
_cell_length_a 12.021420
_cell_length_b 20.799756
_cell_length_c 10.776194
_cell_angle_alpha 90.000000
_cell_angle_beta 90.000000
_cell_angle_gamma 90.000000
_cell_volume 2694.507596
_symmetry_space_group_name_H-M "C C C A"
_symmetry_group_IT_number 68
_space_group.IT_coordinate_system_code '2'
_symmetry_cell_setting 'orthorhombic'
loop_
_space_group_symop_operation_xyz
x,y,z
-x,1/2-y,z
x,1/2-y,1/2-z
-x,y,1/2-z
-x,-y,-z
x,1/2+y,-z
-x,1/2+y,1/2+z
x,-y,1/2+z
1/2+x,1/2+y,z
1/2-x,-y,z
1/2+x,-y,1/2-z
1/2-x,1/2+y,1/2-z
1/2-x,1/2-y,-z
1/2+x,y,-z
1/2-x,y,1/2+z
1/2+x,1/2-y,1/2+z
loop_
_atom_site_type_symbol
_atom_site_label
_atom_site_fract_x
_atom_site_fract_y
_atom_site_fract_z
Si Si1 0.808840 0.316487 0.965035
Si Si2 0.996231 0.100608 0.925982
Si Si3 0.771581 0.884052 0.286345
Si Si4 0.399366 0.972567 0.344963
O O1 0.780138 0.360708 0.084272
O O2 0.750000 0.250000 0.000000
O O3 0.940725 0.332110 0.947812
O O4 0.765089 0.334349 0.827577
O O5 0.099220 0.104208 0.678611
O O6 0.089263 0.043893 0.905907
O O7 0.928046 0.076686 0.045309
O O8 0.703074 0.943891 0.232077
O O9 0.500000 0.970934 0.250000
#
# Coordination Sequence:
#
# PCOD9510389 Si02
#       4
#    16  16  16  16
#     4  12  27  49  78 114 161 217 276 336 409 500
#     4  11  26  48  78 121 160 211 272 341 416 496
#     4  12  25  51  78 117 158 214 275 340 418 488
#     4  11  23  47  77 116 165 207 264 337 420 498
#
# _framework density 23.752020000000002
#
# number of rings (size 3 to 8) (size 9 to 14) (size 15 to 20)
#    0.000    0.500    5.000    3.000    0.000    5.000 
#    0.000    2.500    0.000    0.000    0.000    0.000 
#    0.000    0.000    0.000    0.000    0.000    0.000 
#
# Total GULP energy -178636.319432 kJ/mol
# GULP energy per Si atom -5582.384982 kJ/mol
# Density = 2.369796 g / cm^3
# Si number density = 23.752020 Si / 1000 Ang^3
#
#
#
# Elastic Constant Matrix: (Units=GPa)
#
#
# Indices 1 2 3 4 5 6 
#
# 1 162.3018 83.2449 54.5773 0.0000 0.0000 0.0000
# 2 83.2449 131.4218 59.9962 0.0000 0.0000 0.0000
# 3 54.5773 59.9962 175.3115 0.0000 0.0000 0.0000
# 4 0.0000 0.0000 0.0000 39.0107 0.0000 0.0000
# 5 0.0000 0.0000 0.0000 0.0000 56.1109 0.0000
# 6 0.0000 0.0000 0.0000 0.0000 0.0000 20.5932
#
#
#
# Elastic Compliance Matrix: (Units=1/GPa)
#
#
# Indices 1 2 3 4 5 6 
#
# 1 0.009284 -0.005406 -0.001040 0.000000 0.000000 0.000000
# 2 -0.005406 0.012165 -0.002481 0.000000 0.000000 0.000000
# 3 -0.001040 -0.002481 0.006877 0.000000 0.000000 0.000000
# 4 0.000000 0.000000 0.000000 0.025634 0.000000 0.000000
# 5 0.000000 0.000000 0.000000 0.000000 0.017822 0.000000
# 6 0.000000 0.000000 0.000000 0.000000 0.000000 0.048560
#
#
# Mechanical properties :
#
#
# Convention : Reuss Voigt Hill
#
# Bulk Modulus (GPa) = 95.47990 96.07465 95.77727
# Shear Modulus (GPa) = 35.28949 41.22407 38.25678
#
# Velocity S-wave (km/s) = 3.85872 4.17058 4.01768
# Velocity P-wave (km/s) = 7.75493 7.98301 7.86979
#
# Compressibility (1/GPa) = 0.01047341
#
# Stress axis : x y z
#
# Youngs Moduli (GPa) = 107.71575 82.19989 145.41503
#
# Poissons Ratio (x) = 0.44434 0.15127
# Poissons Ratio (y) = 0.58227 0.36070
# Poissons Ratio (z) = 0.11205 0.20390
#
# Static dielectric constant tensor:
#      x y z
#    x 1.987490 0.000000 0.000000 
#    y 0.000000 1.959520 0.000000 
#    z 0.000000 0.000000 1.931850 
# 
# From -- ./inp_files/14273.got.cif
#   From: 2010.05.17/outbox.cif.g08.bks.cpg/sg68_8_cif.got.tgz:14273.got - 2010.06.03 18:57:09.
