data_PCOD9510293
_publ_section_title
;
Structure prediction by ZEFSAII (Michael W. Deem and Ramdas Pophale) SiO2 
 PCOD9510293
Probable space group: C C C A
;
_chemical_formula_sum "Si O2"
_cell_formula_units_Z 80
_cell_length_a 19.572581
_cell_length_b 13.223213
_cell_length_c 13.912255
_cell_angle_alpha 90.000000
_cell_angle_beta 90.000000
_cell_angle_gamma 90.000000
_cell_volume 3600.664211
_symmetry_space_group_name_H-M "C C C A"
_symmetry_group_IT_number 68
_space_group.IT_coordinate_system_code '2'
_symmetry_cell_setting 'orthorhombic'
loop_
_space_group_symop_operation_xyz
x,y,z
-x,1/2-y,z
x,1/2-y,1/2-z
-x,y,1/2-z
-x,-y,-z
x,1/2+y,-z
-x,1/2+y,1/2+z
x,-y,1/2+z
1/2+x,1/2+y,z
1/2-x,-y,z
1/2+x,-y,1/2-z
1/2-x,1/2+y,1/2-z
1/2-x,1/2-y,-z
1/2+x,y,-z
1/2-x,y,1/2+z
1/2+x,1/2-y,1/2+z
loop_
_atom_site_type_symbol
_atom_site_label
_atom_site_fract_x
_atom_site_fract_y
_atom_site_fract_z
Si Si1 0.313517 0.865123 0.382721
Si Si2 0.676030 0.456044 0.691962
Si Si3 0.926070 0.744425 0.003775
Si Si4 0.925447 0.143789 0.795384
Si Si5 0.170611 0.589875 0.034314
O O1 0.365084 0.792041 0.436678
O O2 0.234803 0.851160 0.417078
O O3 0.329259 0.867208 0.269697
O O4 0.329632 0.979061 0.419832
O O5 0.750000 0.500000 0.714682
O O6 0.621983 0.545570 0.711689
O O7 0.677994 0.424760 0.580576
O O8 0.899638 0.850177 0.047348
O O9 0.000000 0.750000 0.955353
O O10 0.933482 0.667750 0.092033
O O11 0.897833 0.250000 0.750000
O O12 0.000000 0.127220 0.750000
#
# Coordination Sequence:
#
# PCOD9510293 Si02
#       5
#    16  16  16  16  16
#     4  11  24  42  68  98 131 171 218 271 328 381
#     4  12  23  43  67  99 131 169 218 271 326 387
#     4  12  25  43  66  95 135 174 216 267 325 390
#     4  11  23  41  65  98 127 170 224 266 311 385
#     4  11  23  44  68  97 133 169 220 272 327 384
#
# _framework density 22.218125000000001
#
# number of rings (size 3 to 8) (size 9 to 14) (size 15 to 20)
#    0.000    0.600    8.000    1.800    0.000    3.200 
#    0.000    1.000    0.000    0.000    0.000    0.000 
#    0.000    0.000    0.000    0.000    0.000    0.000 
#
# Total GULP energy -223665.041307 kJ/mol
# GULP energy per Si atom -5591.626033 kJ/mol
# Density = 2.216756 g / cm^3
# Si number density = 22.218125 Si / 1000 Ang^3
#
#
#
# Elastic Constant Matrix: (Units=GPa)
#
#
# Indices 1 2 3 4 5 6 
#
# 1 107.6766 45.5407 -6.8829 0.0000 0.0000 0.0000
# 2 45.5407 64.4108 6.3524 0.0000 0.0000 0.0000
# 3 -6.8829 6.3524 117.7070 0.0000 0.0000 0.0000
# 4 0.0000 0.0000 0.0000 43.8340 0.0000 0.0000
# 5 0.0000 0.0000 0.0000 0.0000 -0.8572 0.0000
# 6 0.0000 0.0000 0.0000 0.0000 0.0000 24.3488
#
#
#
# Elastic Compliance Matrix: (Units=1/GPa)
#
#
# Indices 1 2 3 4 5 6 
#
# 1 0.013446 -0.009635 0.001306 0.000000 0.000000 0.000000
# 2 -0.009635 0.022513 -0.001778 0.000000 0.000000 0.000000
# 3 0.001306 -0.001778 0.008668 0.000000 0.000000 0.000000
# 4 0.000000 0.000000 0.000000 0.022813 0.000000 0.000000
# 5 0.000000 0.000000 0.000000 0.000000 -1.166522 0.000000
# 6 0.000000 0.000000 0.000000 0.000000 0.000000 0.041070
#
#
# Mechanical properties :
#
#
# Convention : Reuss Voigt Hill
#
# Bulk Modulus (GPa) = 40.96369 42.20165 41.58267
# Shear Modulus (GPa) = -4.85598 29.78405 12.46403
#
# Velocity S-wave (km/s) = -1.47998 3.66530 2.37108
# Velocity P-wave (km/s) = 3.94419 6.07849 5.12370
#
# Compressibility (1/GPa) = 0.02441186
#
# Stress axis : x y z
#
# Youngs Moduli (GPa) = 74.37266 44.41799 115.36642
#
# Poissons Ratio (x) = 0.42799 -0.15070
# Poissons Ratio (y) = 0.71662 0.20517
# Poissons Ratio (z) = -0.09715 0.07899
#
# Static dielectric constant tensor:
#      x y z
#    x 1.806130 0.000000 0.000000 
#    y 0.000000 1.837810 0.000000 
#    z 0.000000 0.000000 1.893560 
# 
# From -- ./inp_files/24528.got.cif
#   From: 2010.05.17/outbox.cif.g08.bks.cpg/sg68_13_cif.got.tgz:24528.got - 2010.06.03 18:57:09.
