data_PCOD9510524
_publ_section_title
;
Structure prediction by ZEFSAII (Michael W. Deem and Ramdas Pophale) SiO2 
 PCOD9510524
Probable space group: C C C A
;
_chemical_formula_sum "Si O2"
_cell_formula_units_Z 48
_cell_length_a 8.344696
_cell_length_b 24.348226
_cell_length_c 9.542059
_cell_angle_alpha 90.000000
_cell_angle_beta 90.000000
_cell_angle_gamma 90.000000
_cell_volume 1938.741655
_symmetry_space_group_name_H-M "C C C A"
_symmetry_group_IT_number 68
_space_group.IT_coordinate_system_code '2'
_symmetry_cell_setting 'orthorhombic'
loop_
_space_group_symop_operation_xyz
x,y,z
-x,1/2-y,z
x,1/2-y,1/2-z
-x,y,1/2-z
-x,-y,-z
x,1/2+y,-z
-x,1/2+y,1/2+z
x,-y,1/2+z
1/2+x,1/2+y,z
1/2-x,-y,z
1/2+x,-y,1/2-z
1/2-x,1/2+y,1/2-z
1/2-x,1/2-y,-z
1/2+x,y,-z
1/2-x,y,1/2+z
1/2+x,1/2-y,1/2+z
loop_
_atom_site_type_symbol
_atom_site_label
_atom_site_fract_x
_atom_site_fract_y
_atom_site_fract_z
Si Si1 0.532468 0.653991 0.044540
Si Si2 0.406467 0.463482 0.607413
Si Si3 0.249812 0.309823 0.200527
O O1 0.424371 0.598521 0.049997
O O2 0.400544 0.697981 0.094040
O O3 0.671184 0.657162 0.166739
O O4 0.611868 0.662520 0.893376
O O5 0.500000 0.460400 0.750000
O O6 0.500000 0.500000 0.500000
O O7 0.250000 0.500000 0.632520
O O8 0.301652 0.250000 0.250000
#
# Coordination Sequence:
#
# PCOD9510524 Si02
#       3
#    16  16  16
#     4  11  24  48  74 112 160 199 265 319 386 471
#     4  12  26  48  76 110 157 209 268 330 391 462
#     4  11  24  46  79 112 154 205 257 321 390 471
#
# _framework density 24.758326
#
# number of rings (size 3 to 8) (size 9 to 14) (size 15 to 20)
#    0.000    0.667    3.333    6.000    0.000    1.333 
#    0.000    3.333    0.000    0.000    0.000    0.000 
#    0.000    0.000    0.000    0.000    0.000    0.000 
#
# Total GULP energy -134165.151246 kJ/mol
# GULP energy per Si atom -5590.214635 kJ/mol
# Density = 2.470198 g / cm^3
# Si number density = 24.758326 Si / 1000 Ang^3
#
#
#
# Elastic Constant Matrix: (Units=GPa)
#
#
# Indices 1 2 3 4 5 6 
#
# 1 126.9997 72.0494 53.5161 0.0000 0.0000 0.0000
# 2 72.0494 161.8995 48.0253 0.0000 0.0000 0.0000
# 3 53.5161 48.0253 110.6461 0.0000 0.0000 0.0000
# 4 0.0000 0.0000 0.0000 45.0961 0.0000 0.0000
# 5 0.0000 0.0000 0.0000 0.0000 47.3013 0.0000
# 6 0.0000 0.0000 0.0000 0.0000 0.0000 37.3732
#
#
#
# Elastic Compliance Matrix: (Units=1/GPa)
#
#
# Indices 1 2 3 4 5 6 
#
# 1 0.011874 -0.004110 -0.003959 0.000000 0.000000 0.000000
# 2 -0.004110 0.008512 -0.001707 0.000000 0.000000 0.000000
# 3 -0.003959 -0.001707 0.011694 0.000000 0.000000 0.000000
# 4 0.000000 0.000000 0.000000 0.022175 0.000000 0.000000
# 5 0.000000 0.000000 0.000000 0.000000 0.021141 0.000000
# 6 0.000000 0.000000 0.000000 0.000000 0.000000 0.026757
#
#
# Mechanical properties :
#
#
# Convention : Reuss Voigt Hill
#
# Bulk Modulus (GPa) = 79.82184 82.96966 81.39575
# Shear Modulus (GPa) = 39.72034 41.01776 40.36905
#
# Velocity S-wave (km/s) = 4.00974 4.07471 4.04236
# Velocity P-wave (km/s) = 7.33129 7.46473 7.39831
#
# Compressibility (1/GPa) = 0.01252790
#
# Stress axis : x y z
#
# Youngs Moduli (GPa) = 84.21794 117.48243 85.51679
#
# Poissons Ratio (x) = 0.48282 0.33858
# Poissons Ratio (y) = 0.34611 0.14596
# Poissons Ratio (z) = 0.33344 0.20052
#
# Static dielectric constant tensor:
#      x y z
#    x 1.957120 0.000000 0.000000 
#    y 0.000000 2.215870 0.000000 
#    z 0.000000 0.000000 1.943890 
# 
# From -- ./inp_files/3722.got.cif
#   From: 2010.05.17/outbox.cif.g08.bks.cpg/sg68_2_cif.got.tgz:3722.got - 2010.06.03 18:57:09.
