data_PCOD9510824
_publ_section_title
;
Structure prediction by ZEFSAII (Michael W. Deem and Ramdas Pophale) SiO2 
 PCOD9510824
Probable space group: C C C A
;
_chemical_formula_sum "Si O2"
_cell_formula_units_Z 56
_cell_length_a 9.579255
_cell_length_b 18.416828
_cell_length_c 14.067485
_cell_angle_alpha 90.000000
_cell_angle_beta 90.000000
_cell_angle_gamma 90.000000
_cell_volume 2481.778553
_symmetry_space_group_name_H-M "C C C A"
_symmetry_group_IT_number 68
_space_group.IT_coordinate_system_code '2'
_symmetry_cell_setting 'orthorhombic'
loop_
_space_group_symop_operation_xyz
x,y,z
-x,1/2-y,z
x,1/2-y,1/2-z
-x,y,1/2-z
-x,-y,-z
x,1/2+y,-z
-x,1/2+y,1/2+z
x,-y,1/2+z
1/2+x,1/2+y,z
1/2-x,-y,z
1/2+x,-y,1/2-z
1/2-x,1/2+y,1/2-z
1/2-x,1/2-y,-z
1/2+x,y,-z
1/2-x,y,1/2+z
1/2+x,1/2-y,1/2+z
loop_
_atom_site_type_symbol
_atom_site_label
_atom_site_fract_x
_atom_site_fract_y
_atom_site_fract_z
Si Si1 0.890787 0.953016 0.555474
Si Si2 0.205646 0.163871 0.757727
Si Si3 0.505714 0.337785 0.087025
Si Si4 0.500000 0.595545 0.250000
O O1 0.945006 0.950807 0.662656
O O2 0.925063 0.874474 0.506007
O O3 0.750000 0.000000 0.546422
O O4 0.000000 0.000000 0.500000
O O5 0.190475 0.250000 0.750000
O O6 0.145861 0.142700 0.863096
O O7 0.362616 0.143186 0.732254
O O8 0.107563 0.137182 0.672569
O O9 0.500000 0.250000 0.074366
#
# Coordination Sequence:
#
# PCOD9510824 Si02
#       4
#    16  16  16   8
#     4  12  27  45  66  95 131 177 225 276 334 398
#     4   9  19  38  67 101 133 169 217 276 333 391
#     4   9  20  43  71  96 130 176 223 271 330 396
#     4  12  25  40  60  94 135 174 220 278 336 398
#
# _framework density 22.564461999999999
#
# number of rings (size 3 to 8) (size 9 to 14) (size 15 to 20)
#    0.000    1.714    0.000    5.571    0.000    8.000 
#    0.000    7.143    0.000    0.000    0.000    0.000 
#    0.000    0.000    0.000    0.000    0.000    0.000 
#
# Total GULP energy -155938.440044 kJ/mol
# GULP energy per Si atom -5569.230002 kJ/mol
# Density = 2.251310 g / cm^3
# Si number density = 22.564462 Si / 1000 Ang^3
#
#
#
# Elastic Constant Matrix: (Units=GPa)
#
#
# Indices 1 2 3 4 5 6 
#
# 1 194.3103 36.6634 55.4204 0.0000 0.0000 0.0000
# 2 36.6634 79.1423 36.3778 0.0000 0.0000 0.0000
# 3 55.4204 36.3778 109.4117 0.0000 0.0000 0.0000
# 4 0.0000 0.0000 0.0000 72.3527 0.0000 0.0000
# 5 0.0000 0.0000 0.0000 0.0000 34.7697 0.0000
# 6 0.0000 0.0000 0.0000 0.0000 0.0000 43.0730
#
#
#
# Elastic Compliance Matrix: (Units=1/GPa)
#
#
# Indices 1 2 3 4 5 6 
#
# 1 0.006200 -0.001687 -0.002580 0.000000 0.000000 0.000000
# 2 -0.001687 0.015374 -0.004257 0.000000 0.000000 0.000000
# 3 -0.002580 -0.004257 0.011862 0.000000 0.000000 0.000000
# 4 0.000000 0.000000 0.000000 0.013821 0.000000 0.000000
# 5 0.000000 0.000000 0.000000 0.000000 0.028761 0.000000
# 6 0.000000 0.000000 0.000000 0.000000 0.000000 0.023216
#
#
# Mechanical properties :
#
#
# Convention : Reuss Voigt Hill
#
# Bulk Modulus (GPa) = 61.01765 71.08750 66.05258
# Shear Modulus (GPa) = 41.06950 46.99925 44.03438
#
# Velocity S-wave (km/s) = 4.27089 4.56882 4.42236
# Velocity P-wave (km/s) = 7.17083 7.70745 7.44398
#
# Compressibility (1/GPa) = 0.01638870
#
# Stress axis : x y z
#
# Youngs Moduli (GPa) = 161.27774 65.04659 84.30214
#
# Poissons Ratio (x) = 0.10970 0.21750
# Poissons Ratio (y) = 0.27200 0.35889
# Poissons Ratio (z) = 0.41609 0.27692
#
# Static dielectric constant tensor:
#      x y z
#    x 1.845800 0.000000 0.000000 
#    y 0.000000 2.163130 0.000000 
#    z 0.000000 0.000000 1.902980 
# 
# From -- ./inp_files/19063.got.cif
#   From: 2010.05.17/outbox.cif.g08.bks.cpg/sg68_10_cif.got.tgz:19063.got - 2010.06.03 18:57:09.
