data_PCOD9510047
_publ_section_title
;
Structure prediction by ZEFSAII (Michael W. Deem and Ramdas Pophale) SiO2 
 PCOD9510047
Probable space group: C C C A
;
_chemical_formula_sum "Si O2"
_cell_formula_units_Z 80
_cell_length_a 15.418002
_cell_length_b 21.605350
_cell_length_c 11.151101
_cell_angle_alpha 90.000000
_cell_angle_beta 90.000000
_cell_angle_gamma 90.000000
_cell_volume 3714.558080
_symmetry_space_group_name_H-M "C C C A"
_symmetry_group_IT_number 68
_space_group.IT_coordinate_system_code '2'
_symmetry_cell_setting 'orthorhombic'
loop_
_space_group_symop_operation_xyz
x,y,z
-x,1/2-y,z
x,1/2-y,1/2-z
-x,y,1/2-z
-x,-y,-z
x,1/2+y,-z
-x,1/2+y,1/2+z
x,-y,1/2+z
1/2+x,1/2+y,z
1/2-x,-y,z
1/2+x,-y,1/2-z
1/2-x,1/2+y,1/2-z
1/2-x,1/2-y,-z
1/2+x,y,-z
1/2-x,y,1/2+z
1/2+x,1/2-y,1/2+z
loop_
_atom_site_type_symbol
_atom_site_label
_atom_site_fract_x
_atom_site_fract_y
_atom_site_fract_z
Si Si1 0.750000 0.000000 0.958032
Si Si2 0.157107 0.250000 0.250000
Si Si3 0.384245 0.040318 0.858410
Si Si4 0.500000 0.250000 0.937175
Si Si5 0.500000 0.951341 0.750000
Si Si6 0.800165 0.380872 0.170637
Si Si7 0.969462 0.884566 0.999805
O O1 0.740859 0.935189 0.885897
O O2 0.666979 0.000101 0.045575
O O3 0.086259 0.262052 0.144142
O O4 0.213726 0.191686 0.202250
O O5 0.323535 0.091293 0.800073
O O6 0.463500 0.075713 0.919919
O O7 0.418311 0.998050 0.749208
O O8 0.491591 0.312455 0.010569
O O9 0.520191 0.913345 0.631218
O O10 0.881401 0.382312 0.078512
#
# Coordination Sequence:
#
# PCOD9510047 Si02
#       7
#     8   8  16   8   8  16  16
#     4  12  26  38  60 100 142 168 214 272 342 390
#     4   9  18  36  68  92 120 164 221 266 322 387
#     4  12  22  40  61  95 125 172 215 276 327 395
#     4   9  18  35  64  98 116 157 221 274 314 384
#     4  12  22  35  60  91 134 166 216 270 336 382
#     4  11  21  41  65  95 125 171 224 274 324 395
#     4  11  21  38  66  92 124 164 222 272 328 387
#
# _framework density 21.536883
#
# number of rings (size 3 to 8) (size 9 to 14) (size 15 to 20)
#    0.000    1.000    6.000    2.400    0.000    0.400 
#    0.000    1.000    0.000    0.000    0.000    0.000 
#    0.000    0.000    0.000    0.000    0.000    0.000 
#
# Total GULP energy -222864.654214 kJ/mol
# GULP energy per Si atom -5571.616355 kJ/mol
# Density = 2.148786 g / cm^3
# Si number density = 21.536883 Si / 1000 Ang^3
#
#
#
# Elastic Constant Matrix: (Units=GPa)
#
#
# Indices 1 2 3 4 5 6 
#
# 1 32.2910 28.5041 6.7908 0.0000 0.0000 0.0000
# 2 28.5041 162.8167 45.7265 0.0000 0.0000 0.0000
# 3 6.7908 45.7265 85.4235 0.0000 0.0000 0.0000
# 4 0.0000 0.0000 0.0000 29.1824 0.0000 0.0000
# 5 0.0000 0.0000 0.0000 0.0000 13.3229 0.0000
# 6 0.0000 0.0000 0.0000 0.0000 0.0000 24.5521
#
#
#
# Elastic Compliance Matrix: (Units=1/GPa)
#
#
# Indices 1 2 3 4 5 6 
#
# 1 0.036656 -0.006590 0.000613 0.000000 0.000000 0.000000
# 2 -0.006590 0.008413 -0.003980 0.000000 0.000000 0.000000
# 3 0.000613 -0.003980 0.013788 0.000000 0.000000 0.000000
# 4 0.000000 0.000000 0.000000 0.034267 0.000000 0.000000
# 5 0.000000 0.000000 0.000000 0.000000 0.075058 0.000000
# 6 0.000000 0.000000 0.000000 0.000000 0.000000 0.040730
#
#
# Mechanical properties :
#
#
# Convention : Reuss Voigt Hill
#
# Bulk Modulus (GPa) = 25.67692 49.17489 37.42591
# Shear Modulus (GPa) = 20.67769 26.71212 23.69490
#
# Velocity S-wave (km/s) = 3.10192 3.52561 3.32053
# Velocity P-wave (km/s) = 4.97769 6.28137 5.66714
#
# Compressibility (1/GPa) = 0.03894547
#
# Stress axis : x y z
#
# Youngs Moduli (GPa) = 27.28046 118.86103 72.52736
#
# Poissons Ratio (x) = 0.78325 -0.04448
# Poissons Ratio (y) = 0.17977 0.28863
# Poissons Ratio (z) = -0.01673 0.47303
#
# Static dielectric constant tensor:
#      x y z
#    x 1.881550 0.000000 0.000000 
#    y 0.000000 1.838660 0.000000 
#    z 0.000000 0.000000 1.767700 
# 
# From -- ./inp_files/14399.got.cif
#   From: 2010.05.17/outbox.cif.g08.bks.cpg/sg68_8_cif.got.tgz:14399.got - 2010.06.03 18:57:09.
