data_PCOD9510910
_publ_section_title
;
Structure prediction by ZEFSAII (Michael W. Deem and Ramdas Pophale) SiO2 
 PCOD9510910
Probable space group: C C C A
;
_chemical_formula_sum "Si O2"
_cell_formula_units_Z 48
_cell_length_a 8.888265
_cell_length_b 19.226511
_cell_length_c 9.848686
_cell_angle_alpha 90.000000
_cell_angle_beta 90.000000
_cell_angle_gamma 90.000000
_cell_volume 1683.045149
_symmetry_space_group_name_H-M "C C C A"
_symmetry_group_IT_number 68
_space_group.IT_coordinate_system_code '2'
_symmetry_cell_setting 'orthorhombic'
loop_
_space_group_symop_operation_xyz
x,y,z
-x,1/2-y,z
x,1/2-y,1/2-z
-x,y,1/2-z
-x,-y,-z
x,1/2+y,-z
-x,1/2+y,1/2+z
x,-y,1/2+z
1/2+x,1/2+y,z
1/2-x,-y,z
1/2+x,-y,1/2-z
1/2-x,1/2+y,1/2-z
1/2-x,1/2-y,-z
1/2+x,y,-z
1/2-x,y,1/2+z
1/2+x,1/2-y,1/2+z
loop_
_atom_site_type_symbol
_atom_site_label
_atom_site_fract_x
_atom_site_fract_y
_atom_site_fract_z
Si Si1 0.411254 0.182236 0.556213
Si Si2 0.636719 0.949847 0.019156
Si Si3 0.325652 0.363362 0.213565
O O1 0.500000 0.250000 0.601124
O O2 0.537223 0.122679 0.531756
O O3 0.783164 0.156655 0.338377
O O4 0.339593 0.193975 0.406352
O O5 0.747230 0.928733 0.637838
O O6 0.750000 0.000000 0.928596
O O7 0.500000 0.000000 0.000000
O O8 0.500000 0.378370 0.250000
#
# Coordination Sequence:
#
# PCOD9510910 Si02
#       3
#    16  16  16
#     4  12  31  63  96 142 190 255 326 406 486 581
#     4  12  28  57  88 137 187 252 306 394 476 570
#     4  12  30  58  98 139 189 250 326 395 481 580
#
# _framework density 28.519732999999999
#
# number of rings (size 3 to 8) (size 9 to 14) (size 15 to 20)
#    0.000    0.000    3.333    3.000    0.000   14.000 
#    6.000    1.667    0.000    0.000    0.000    0.000 
#    0.000    0.000    0.000    0.000    0.000    0.000 
#
# Total GULP energy -133665.260704 kJ/mol
# GULP energy per Si atom -5569.385863 kJ/mol
# Density = 2.845482 g / cm^3
# Si number density = 28.519733 Si / 1000 Ang^3
#
#
#
# Elastic Constant Matrix: (Units=GPa)
#
#
# Indices 1 2 3 4 5 6 
#
# 1 270.7172 70.9384 76.8373 0.0000 0.0000 0.0000
# 2 70.9384 203.7961 28.5645 0.0000 0.0000 0.0000
# 3 76.8373 28.5645 194.9271 0.0000 0.0000 0.0000
# 4 0.0000 0.0000 0.0000 26.8069 0.0000 0.0000
# 5 0.0000 0.0000 0.0000 0.0000 51.2095 0.0000
# 6 0.0000 0.0000 0.0000 0.0000 0.0000 54.7633
#
#
#
# Elastic Compliance Matrix: (Units=1/GPa)
#
#
# Indices 1 2 3 4 5 6 
#
# 1 0.004493 -0.001343 -0.001574 0.000000 0.000000 0.000000
# 2 -0.001343 0.005411 -0.000264 0.000000 0.000000 0.000000
# 3 -0.001574 -0.000264 0.005789 0.000000 0.000000 0.000000
# 4 0.000000 0.000000 0.000000 0.037304 0.000000 0.000000
# 5 0.000000 0.000000 0.000000 0.000000 0.019528 0.000000
# 6 0.000000 0.000000 0.000000 0.000000 0.000000 0.018260
#
#
# Mechanical properties :
#
#
# Convention : Reuss Voigt Hill
#
# Bulk Modulus (GPa) = 107.16270 113.56898 110.36584
# Shear Modulus (GPa) = 49.87173 59.42929 54.65051
#
# Velocity S-wave (km/s) = 4.18625 4.56981 4.38223
# Velocity P-wave (km/s) = 7.81171 8.23115 8.02417
#
# Compressibility (1/GPa) = 0.00933160
#
# Stress axis : x y z
#
# Youngs Moduli (GPa) = 222.58668 184.79699 172.73475
#
# Poissons Ratio (x) = 0.24822 0.27190
# Poissons Ratio (y) = 0.29898 0.04552
# Poissons Ratio (z) = 0.35037 0.04870
#
# Static dielectric constant tensor:
#      x y z
#    x 2.137470 0.000000 0.000000 
#    y 0.000000 2.390380 0.000000 
#    z 0.000000 0.000000 2.444690 
# 
# From -- ./inp_files/11220.got.cif
#   From: 2010.05.17/outbox.cif.g08.bks.cpg/sg68_6_cif.got.tgz:11220.got - 2010.06.03 18:57:09.
