data_PCOD9510467
_publ_section_title
;
Structure prediction by ZEFSAII (Michael W. Deem and Ramdas Pophale) SiO2 
 PCOD9510467
Probable space group: C C C A
;
_chemical_formula_sum "Si O2"
_cell_formula_units_Z 64
_cell_length_a 13.270624
_cell_length_b 15.322679
_cell_length_c 13.412680
_cell_angle_alpha 90.000000
_cell_angle_beta 90.000000
_cell_angle_gamma 90.000000
_cell_volume 2727.354627
_symmetry_space_group_name_H-M "C C C A"
_symmetry_group_IT_number 68
_space_group.IT_coordinate_system_code '2'
_symmetry_cell_setting 'orthorhombic'
loop_
_space_group_symop_operation_xyz
x,y,z
-x,1/2-y,z
x,1/2-y,1/2-z
-x,y,1/2-z
-x,-y,-z
x,1/2+y,-z
-x,1/2+y,1/2+z
x,-y,1/2+z
1/2+x,1/2+y,z
1/2-x,-y,z
1/2+x,-y,1/2-z
1/2-x,1/2+y,1/2-z
1/2-x,1/2-y,-z
1/2+x,y,-z
1/2-x,y,1/2+z
1/2+x,1/2-y,1/2+z
loop_
_atom_site_type_symbol
_atom_site_label
_atom_site_fract_x
_atom_site_fract_y
_atom_site_fract_z
Si Si1 0.968212 0.034257 0.106045
Si Si2 0.638303 0.027524 0.279644
Si Si3 0.110966 0.221460 0.420215
Si Si4 0.671570 0.786070 0.857539
O O1 0.895399 0.117010 0.096971
O O2 0.915677 0.960138 0.173543
O O3 0.073420 0.047485 0.165373
O O4 0.000000 0.000000 0.000000
O O5 0.646903 0.111686 0.348469
O O6 0.750000 0.000000 0.258168
O O7 0.209607 0.262392 0.369095
O O8 0.122332 0.244058 0.538277
O O9 0.000000 0.250000 0.385722
O O10 0.637300 0.750000 0.750000
#
# Coordination Sequence:
#
# PCOD9510467 Si02
#       4
#    16  16  16  16
#     4  11  24  44  67 107 146 188 247 302 372 444
#     4  11  24  44  72 102 142 194 241 301 366 442
#     4  11  25  45  71 101 144 189 236 307 370 439
#     4  11  25  44  70 106 138 183 245 297 368 442
#
# _framework density 23.465962000000001
#
# number of rings (size 3 to 8) (size 9 to 14) (size 15 to 20)
#    0.000    1.000    2.500    3.000    3.500    4.000 
#    0.000    0.000    0.000    0.000    0.000    0.000 
#    0.000    0.000    0.000    0.000    0.000    0.000 
#
# Total GULP energy -178727.608816 kJ/mol
# GULP energy per Si atom -5585.237775 kJ/mol
# Density = 2.341255 g / cm^3
# Si number density = 23.465962 Si / 1000 Ang^3
#
#
#
# Elastic Constant Matrix: (Units=GPa)
#
#
# Indices 1 2 3 4 5 6 
#
# 1 129.1594 14.9443 24.7942 0.0000 0.0000 0.0000
# 2 14.9443 57.9461 11.1720 0.0000 0.0000 0.0000
# 3 24.7942 11.1720 133.7137 0.0000 0.0000 0.0000
# 4 0.0000 0.0000 0.0000 31.8318 0.0000 0.0000
# 5 0.0000 0.0000 0.0000 0.0000 13.7298 0.0000
# 6 0.0000 0.0000 0.0000 0.0000 0.0000 40.0532
#
#
#
# Elastic Compliance Matrix: (Units=1/GPa)
#
#
# Indices 1 2 3 4 5 6 
#
# 1 0.008220 -0.001856 -0.001369 0.000000 0.000000 0.000000
# 2 -0.001856 0.017959 -0.001156 0.000000 0.000000 0.000000
# 3 -0.001369 -0.001156 0.007829 0.000000 0.000000 0.000000
# 4 0.000000 0.000000 0.000000 0.031415 0.000000 0.000000
# 5 0.000000 0.000000 0.000000 0.000000 0.072834 0.000000
# 6 0.000000 0.000000 0.000000 0.000000 0.000000 0.024967
#
#
# Mechanical properties :
#
#
# Convention : Reuss Voigt Hill
#
# Bulk Modulus (GPa) = 39.61148 46.96003 43.28575
# Shear Modulus (GPa) = 27.71588 35.11688 31.41638
#
# Velocity S-wave (km/s) = 3.44046 3.87266 3.66294
# Velocity P-wave (km/s) = 5.71834 6.32867 6.03123
#
# Compressibility (1/GPa) = 0.02524521
#
# Stress axis : x y z
#
# Youngs Moduli (GPa) = 121.65537 55.68231 127.72769
#
# Poissons Ratio (x) = 0.10334 0.17488
# Poissons Ratio (y) = 0.22579 0.14770
# Poissons Ratio (z) = 0.16656 0.06439
#
# Static dielectric constant tensor:
#      x y z
#    x 1.891130 0.000000 0.000000 
#    y 0.000000 3.550880 0.000000 
#    z 0.000000 0.000000 1.923970 
# 
# From -- ./inp_files/21780.got.cif
#   From: 2010.05.17/outbox.cif.g08.bks.cpg/sg68_11_cif.got.tgz:21780.got - 2010.06.03 18:57:09.
