data_PCOD9510885
_publ_section_title
;
Structure prediction by ZEFSAII (Michael W. Deem and Ramdas Pophale) SiO2 
 PCOD9510885
Probable space group: C C C A
;
_chemical_formula_sum "Si O2"
_cell_formula_units_Z 44
_cell_length_a 5.098091
_cell_length_b 24.539633
_cell_length_c 14.412126
_cell_angle_alpha 90.000000
_cell_angle_beta 90.000000
_cell_angle_gamma 90.000000
_cell_volume 1803.033089
_symmetry_space_group_name_H-M "C C C A"
_symmetry_group_IT_number 68
_space_group.IT_coordinate_system_code '2'
_symmetry_cell_setting 'orthorhombic'
loop_
_space_group_symop_operation_xyz
x,y,z
-x,1/2-y,z
x,1/2-y,1/2-z
-x,y,1/2-z
-x,-y,-z
x,1/2+y,-z
-x,1/2+y,1/2+z
x,-y,1/2+z
1/2+x,1/2+y,z
1/2-x,-y,z
1/2+x,-y,1/2-z
1/2-x,1/2+y,1/2-z
1/2-x,1/2-y,-z
1/2+x,y,-z
1/2-x,y,1/2+z
1/2+x,1/2-y,1/2+z
loop_
_atom_site_type_symbol
_atom_site_label
_atom_site_fract_x
_atom_site_fract_y
_atom_site_fract_z
Si Si1 0.500000 0.750000 0.250000
Si Si2 0.750000 0.000000 0.197685
Si Si3 0.962665 0.422060 0.555620
Si Si4 0.107632 0.192666 0.643844
O O1 0.596927 0.794178 0.327665
O O2 0.500000 0.972846 0.250000
O O3 0.590563 0.044520 0.138789
O O4 0.663498 0.434855 0.528397
O O5 0.959889 0.358682 0.582978
O O6 0.000000 0.250000 0.605963
O O7 0.000000 0.187437 0.750000
#
# Coordination Sequence:
#
# PCOD9510885 Si02
#       4
#     4   8  16  16
#     4   8  18  40  68  94 148 184 264 288 330 422
#     4  12  26  52  78 100 134 192 254 294 348 438
#     4  12  27  44  70 107 148 181 227 304 372 420
#     4   9  21  40  66 100 138 192 246 286 341 430
#
# _framework density 24.403324999999999
#
# number of rings (size 3 to 8) (size 9 to 14) (size 15 to 20)
#    0.000    1.818    0.000    4.364   10.182    1.455 
#    6.545    0.000    0.000    0.000    0.000    0.000 
#    0.000    0.000    0.000    0.000    0.000    0.000 
#
# Total GULP energy -122513.736305 kJ/mol
# GULP energy per Si atom -5568.806196 kJ/mol
# Density = 2.434778 g / cm^3
# Si number density = 24.403325 Si / 1000 Ang^3
#
#
#
# Elastic Constant Matrix: (Units=GPa)
#
#
# Indices 1 2 3 4 5 6 
#
# 1 86.8670 24.6406 22.2761 0.0000 0.0000 0.0000
# 2 24.6406 103.3303 23.1672 0.0000 0.0000 0.0000
# 3 22.2761 23.1672 49.2582 0.0000 0.0000 0.0000
# 4 0.0000 0.0000 0.0000 37.0249 0.0000 0.0000
# 5 0.0000 0.0000 0.0000 0.0000 35.1489 0.0000
# 6 0.0000 0.0000 0.0000 0.0000 0.0000 54.0773
#
#
#
# Elastic Compliance Matrix: (Units=1/GPa)
#
#
# Indices 1 2 3 4 5 6 
#
# 1 0.013401 -0.002053 -0.005094 0.000000 0.000000 0.000000
# 2 -0.002053 0.011133 -0.004308 0.000000 0.000000 0.000000
# 3 -0.005094 -0.004308 0.024631 0.000000 0.000000 0.000000
# 4 0.000000 0.000000 0.000000 0.027009 0.000000 0.000000
# 5 0.000000 0.000000 0.000000 0.000000 0.028450 0.000000
# 6 0.000000 0.000000 0.000000 0.000000 0.000000 0.018492
#
#
# Mechanical properties :
#
#
# Convention : Reuss Voigt Hill
#
# Bulk Modulus (GPa) = 38.08939 42.18038 40.13488
# Shear Modulus (GPa) = 32.30426 36.54165 34.42295
#
# Velocity S-wave (km/s) = 3.64230 3.87383 3.75985
# Velocity P-wave (km/s) = 5.77327 6.10991 5.94397
#
# Compressibility (1/GPa) = 0.02625403
#
# Stress axis : x y z
#
# Youngs Moduli (GPa) = 74.62272 89.82190 40.59927
#
# Poissons Ratio (x) = 0.18444 0.20683
# Poissons Ratio (y) = 0.15323 0.17488
# Poissons Ratio (z) = 0.38016 0.38691
#
# Static dielectric constant tensor:
#      x y z
#    x 2.258430 0.000000 0.000000 
#    y 0.000000 1.865100 0.000000 
#    z 0.000000 0.000000 1.999480 
# 
# From -- ./inp_files/18177.got.cif
#   From: 2010.05.17/outbox.cif.g08.bks.cpg/sg68_10_cif.got.tgz:18177.got - 2010.06.03 18:57:09.
