data_PCOD9510039
_publ_section_title
;
Structure prediction by ZEFSAII (Michael W. Deem and Ramdas Pophale) SiO2 
 PCOD9510039
Probable space group: C C C A
;
_chemical_formula_sum "Si O2"
_cell_formula_units_Z 64
_cell_length_a 20.669991
_cell_length_b 10.436388
_cell_length_c 14.724774
_cell_angle_alpha 90.000000
_cell_angle_beta 90.000000
_cell_angle_gamma 90.000000
_cell_volume 3176.428925
_symmetry_space_group_name_H-M "C C C A"
_symmetry_group_IT_number 68
_space_group.IT_coordinate_system_code '2'
_symmetry_cell_setting 'orthorhombic'
loop_
_space_group_symop_operation_xyz
x,y,z
-x,1/2-y,z
x,1/2-y,1/2-z
-x,y,1/2-z
-x,-y,-z
x,1/2+y,-z
-x,1/2+y,1/2+z
x,-y,1/2+z
1/2+x,1/2+y,z
1/2-x,-y,z
1/2+x,-y,1/2-z
1/2-x,1/2+y,1/2-z
1/2-x,1/2-y,-z
1/2+x,y,-z
1/2-x,y,1/2+z
1/2+x,1/2-y,1/2+z
loop_
_atom_site_type_symbol
_atom_site_label
_atom_site_fract_x
_atom_site_fract_y
_atom_site_fract_z
Si Si1 0.228694 0.203057 0.150810
Si Si2 0.573495 0.902548 0.762862
Si Si3 0.160706 0.544417 0.416600
Si Si4 0.174351 0.532853 0.623428
O O1 0.251014 0.250000 0.250000
O O2 0.292331 0.169356 0.092051
O O3 0.178121 0.312754 0.123716
O O4 0.191607 0.068970 0.144282
O O5 0.576919 0.750000 0.750000
O O6 0.500000 0.946685 0.750000
O O7 0.594670 0.926686 0.866521
O O8 0.623767 0.969953 0.692740
O O9 0.159422 0.496738 0.519409
O O10 0.250000 0.500000 0.642698
#
# Coordination Sequence:
#
# PCOD9510039 Si02
#       4
#    16  16  16  16
#     4  11  21  38  62 102 128 164 209 271 335 379
#     4  11  26  46  65  90 133 183 221 265 333 404
#     4  11  23  39  64  96 132 163 216 273 327 392
#     4  12  23  39  69  98 130 169 219 278 333 384
#
# _framework density 20.148412
#
# number of rings (size 3 to 8) (size 9 to 14) (size 15 to 20)
#    0.000    0.750    5.000    4.500    3.500    1.000 
#    0.000    2.500    0.000    0.000    0.000    0.000 
#    0.000    0.000    0.000    0.000    0.000    0.000 
#
# Total GULP energy -178480.498766 kJ/mol
# GULP energy per Si atom -5577.515586 kJ/mol
# Density = 2.010255 g / cm^3
# Si number density = 20.148412 Si / 1000 Ang^3
#
#
#
# Elastic Constant Matrix: (Units=GPa)
#
#
# Indices 1 2 3 4 5 6 
#
# 1 144.3253 30.5202 59.1387 0.0000 0.0000 0.0000
# 2 30.5202 91.7078 26.4889 0.0000 0.0000 0.0000
# 3 59.1387 26.4889 119.3432 0.0000 0.0000 0.0000
# 4 0.0000 0.0000 0.0000 21.7731 0.0000 0.0000
# 5 0.0000 0.0000 0.0000 0.0000 18.4323 0.0000
# 6 0.0000 0.0000 0.0000 0.0000 0.0000 18.8226
#
#
#
# Elastic Compliance Matrix: (Units=1/GPa)
#
#
# Indices 1 2 3 4 5 6 
#
# 1 0.008969 -0.001818 -0.004041 0.000000 0.000000 0.000000
# 2 -0.001818 0.012020 -0.001767 0.000000 0.000000 0.000000
# 3 -0.004041 -0.001767 0.010774 0.000000 0.000000 0.000000
# 4 0.000000 0.000000 0.000000 0.045928 0.000000 0.000000
# 5 0.000000 0.000000 0.000000 0.000000 0.054253 0.000000
# 6 0.000000 0.000000 0.000000 0.000000 0.000000 0.053128
#
#
# Mechanical properties :
#
#
# Convention : Reuss Voigt Hill
#
# Bulk Modulus (GPa) = 60.56614 65.29687 62.93150
# Shear Modulus (GPa) = 24.29235 27.75415 26.02325
#
# Velocity S-wave (km/s) = 3.47604 3.71548 3.59775
# Velocity P-wave (km/s) = 6.79969 7.13335 6.96852
#
# Compressibility (1/GPa) = 0.01651088
#
# Stress axis : x y z
#
# Youngs Moduli (GPa) = 111.49493 83.19799 92.81708
#
# Poissons Ratio (x) = 0.15123 0.37508
# Poissons Ratio (y) = 0.20266 0.16402
# Poissons Ratio (z) = 0.45055 0.14702
#
# Static dielectric constant tensor:
#      x y z
#    x 1.709060 0.000000 0.000000 
#    y 0.000000 1.798430 0.000000 
#    z 0.000000 0.000000 1.761750 
# 
# From -- ./inp_files/23176.got.cif
#   From: 2010.05.17/outbox.cif.g08.bks.cpg/sg68_12_cif.got.tgz:23176.got - 2010.06.03 18:57:09.
