data_PCOD9510454
_publ_section_title
;
Structure prediction by ZEFSAII (Michael W. Deem and Ramdas Pophale) SiO2 
 PCOD9510454
Probable space group: C C C A
;
_chemical_formula_sum "Si O2"
_cell_formula_units_Z 68
_cell_length_a 10.316823
_cell_length_b 24.277000
_cell_length_c 11.824057
_cell_angle_alpha 90.000000
_cell_angle_beta 90.000000
_cell_angle_gamma 90.000000
_cell_volume 2961.471194
_symmetry_space_group_name_H-M "C C C A"
_symmetry_group_IT_number 68
_space_group.IT_coordinate_system_code '2'
_symmetry_cell_setting 'orthorhombic'
loop_
_space_group_symop_operation_xyz
x,y,z
-x,1/2-y,z
x,1/2-y,1/2-z
-x,y,1/2-z
-x,-y,-z
x,1/2+y,-z
-x,1/2+y,1/2+z
x,-y,1/2+z
1/2+x,1/2+y,z
1/2-x,-y,z
1/2+x,-y,1/2-z
1/2-x,1/2+y,1/2-z
1/2-x,1/2-y,-z
1/2+x,y,-z
1/2-x,y,1/2+z
1/2+x,1/2-y,1/2+z
loop_
_atom_site_type_symbol
_atom_site_label
_atom_site_fract_x
_atom_site_fract_y
_atom_site_fract_z
Si Si1 0.057555 0.693039 0.875982
Si Si2 0.814815 0.340246 0.728058
Si Si3 0.500000 0.250000 0.250000
Si Si4 0.765030 0.558629 0.381523
Si Si5 0.463040 0.404901 0.464574
O O1 0.210850 0.690115 0.852429
O O2 0.000000 0.750000 0.924191
O O3 0.000000 0.688497 0.750000
O O4 0.013162 0.642301 0.950826
O O5 0.750352 0.386212 0.807054
O O6 0.906530 0.375095 0.645654
O O7 0.895986 0.294477 0.798004
O O8 0.750000 0.500000 0.319475
O O9 0.654478 0.562655 0.476910
O O10 0.909908 0.561239 0.431072
#
# Coordination Sequence:
#
# PCOD9510454 Si02
#       5
#    16  16   4  16  16
#     4  11  24  43  71 106 147 195 236 294 372 441
#     4  12  26  46  71 108 148 191 244 306 377 434
#     4  12  24  44  74 104 154 188 252 308 364 468
#     4  12  27  50  73 103 145 192 247 314 364 442
#     4  12  25  47  74 108 140 191 251 294 373 442
#
# _framework density 22.961561
#
# number of rings (size 3 to 8) (size 9 to 14) (size 15 to 20)
#    0.000    0.235    7.059    2.118    1.647    1.882 
#    8.471    0.000    0.000    0.000    0.000    0.000 
#    0.000    0.000    0.000    0.000    0.000    0.000 
#
# Total GULP energy -189950.384205 kJ/mol
# GULP energy per Si atom -5586.776006 kJ/mol
# Density = 2.290930 g / cm^3
# Si number density = 22.961561 Si / 1000 Ang^3
#
#
#
# Elastic Constant Matrix: (Units=GPa)
#
#
# Indices 1 2 3 4 5 6 
#
# 1 157.8509 52.2924 11.7211 0.0000 0.0000 0.0000
# 2 52.2924 144.5164 14.2462 0.0000 0.0000 0.0000
# 3 11.7211 14.2462 36.1884 0.0000 0.0000 0.0000
# 4 0.0000 0.0000 0.0000 63.9451 0.0000 0.0000
# 5 0.0000 0.0000 0.0000 0.0000 100.2576 0.0000
# 6 0.0000 0.0000 0.0000 0.0000 0.0000 22.7569
#
#
#
# Elastic Compliance Matrix: (Units=1/GPa)
#
#
# Indices 1 2 3 4 5 6 
#
# 1 0.007263 -0.002493 -0.001371 0.000000 0.000000 0.000000
# 2 -0.002493 0.008055 -0.002363 0.000000 0.000000 0.000000
# 3 -0.001371 -0.002363 0.029008 0.000000 0.000000 0.000000
# 4 0.000000 0.000000 0.000000 0.015638 0.000000 0.000000
# 5 0.000000 0.000000 0.000000 0.000000 0.009974 0.000000
# 6 0.000000 0.000000 0.000000 0.000000 0.000000 0.043943
#
#
# Mechanical properties :
#
#
# Convention : Reuss Voigt Hill
#
# Bulk Modulus (GPa) = 31.37702 55.00835 43.19268
# Shear Modulus (GPa) = 36.50744 54.74498 45.62621
#
# Velocity S-wave (km/s) = 3.99173 4.88813 4.46249
# Velocity P-wave (km/s) = 5.91100 7.47443 6.73821
#
# Compressibility (1/GPa) = 0.03187046
#
# Stress axis : x y z
#
# Youngs Moduli (GPa) = 137.68973 124.15229 34.47371
#
# Poissons Ratio (x) = 0.30949 0.04726
# Poissons Ratio (y) = 0.34324 0.08148
# Poissons Ratio (z) = 0.18877 0.29343
#
# Static dielectric constant tensor:
#      x y z
#    x 1.932440 0.000000 0.000000 
#    y 0.000000 1.863570 0.000000 
#    z 0.000000 0.000000 1.849700 
# 
# From -- ./inp_files/20684.got.cif
#   From: 2010.05.17/outbox.cif.g08.bks.cpg/sg68_11_cif.got.tgz:20684.got - 2010.06.03 18:57:09.
