data_PCOD9510520
_publ_section_title
;
Structure prediction by ZEFSAII (Michael W. Deem and Ramdas Pophale) SiO2 
 PCOD9510520
Probable space group: C C C A
;
_chemical_formula_sum "Si O2"
_cell_formula_units_Z 72
_cell_length_a 24.045122
_cell_length_b 8.064702
_cell_length_c 16.711436
_cell_angle_alpha 90.000000
_cell_angle_beta 90.000000
_cell_angle_gamma 90.000000
_cell_volume 3240.627248
_symmetry_space_group_name_H-M "C C C A"
_symmetry_group_IT_number 68
_space_group.IT_coordinate_system_code '2'
_symmetry_cell_setting 'orthorhombic'
loop_
_space_group_symop_operation_xyz
x,y,z
-x,1/2-y,z
x,1/2-y,1/2-z
-x,y,1/2-z
-x,-y,-z
x,1/2+y,-z
-x,1/2+y,1/2+z
x,-y,1/2+z
1/2+x,1/2+y,z
1/2-x,-y,z
1/2+x,-y,1/2-z
1/2-x,1/2+y,1/2-z
1/2-x,1/2-y,-z
1/2+x,y,-z
1/2-x,y,1/2+z
1/2+x,1/2-y,1/2+z
loop_
_atom_site_type_symbol
_atom_site_label
_atom_site_fract_x
_atom_site_fract_y
_atom_site_fract_z
Si Si1 0.893649 0.750000 0.250000
Si Si2 0.731391 0.188308 0.658362
Si Si3 0.335704 0.134447 0.093495
Si Si4 0.941444 0.397647 0.298347
Si Si5 0.877449 0.758524 0.929139
O O1 0.856389 0.683739 0.179821
O O2 0.923346 0.587663 0.287364
O O3 0.729064 0.250000 0.750000
O O4 0.770889 0.306993 0.602144
O O5 0.671763 0.167866 0.617578
O O6 0.750000 0.000000 0.661256
O O7 0.359004 0.948243 0.084348
O O8 0.367859 0.228278 0.022660
O O9 0.909547 0.250000 0.250000
O O10 0.932803 0.322851 0.388333
O O11 0.000000 0.403465 0.250000
#
# Coordination Sequence:
#
# PCOD9510520 Si02
#       5
#     8  16  16  16  16
#     4  12  23  46  72 108 138 192 235 302 372 442
#     4  12  24  40  65 104 145 195 245 289 366 445
#     4  12  25  43  70 105 149 188 246 293 376 436
#     4  11  24  46  75 102 140 185 245 299 368 424
#     4  12  25  45  69 105 146 194 240 313 356 440
#
# _framework density 22.217921
#
# number of rings (size 3 to 8) (size 9 to 14) (size 15 to 20)
#    0.000    0.222    3.333    7.667    0.000    0.000 
#    0.000    1.111    4.889    0.000    0.000    0.000 
#    0.000    0.000    0.000    0.000    0.000    0.000 
#
# Total GULP energy -200410.619758 kJ/mol
# GULP energy per Si atom -5566.961660 kJ/mol
# Density = 2.216735 g / cm^3
# Si number density = 22.217921 Si / 1000 Ang^3
#
#
#
# Elastic Constant Matrix: (Units=GPa)
#
#
# Indices 1 2 3 4 5 6 
#
# 1 53.6413 -12.6523 1.7825 0.0000 0.0000 0.0000
# 2 -12.6523 114.0499 -8.8081 0.0000 0.0000 0.0000
# 3 1.7825 -8.8081 120.0585 0.0000 0.0000 0.0000
# 4 0.0000 0.0000 0.0000 -174.2348 0.0000 0.0000
# 5 0.0000 0.0000 0.0000 0.0000 48.5630 0.0000
# 6 0.0000 0.0000 0.0000 0.0000 0.0000 -2.0278
#
#
#
# Elastic Compliance Matrix: (Units=1/GPa)
#
#
# Indices 1 2 3 4 5 6 
#
# 1 0.019145 0.002114 -0.000129 0.000000 0.000000 0.000000
# 2 0.002114 0.009051 0.000633 0.000000 0.000000 0.000000
# 3 -0.000129 0.000633 0.008378 0.000000 0.000000 0.000000
# 4 0.000000 0.000000 0.000000 -0.005739 0.000000 0.000000
# 5 0.000000 0.000000 0.000000 0.000000 0.020592 0.000000
# 6 0.000000 0.000000 0.000000 0.000000 0.000000 -0.493136
#
#
# Mechanical properties :
#
#
# Convention : Reuss Voigt Hill
#
# Bulk Modulus (GPa) = 23.91815 27.59931 25.75873
# Shear Modulus (GPa) = -11.54714 -5.04476 -8.29595
#
# Velocity S-wave (km/s) = -2.28221 -1.50848 -1.93443
# Velocity P-wave (km/s) = 1.96060 3.06839 2.57478
#
# Compressibility (1/GPa) = 0.04180925
#
# Stress axis : x y z
#
# Youngs Moduli (GPa) = 52.23227 110.47931 119.36582
#
# Poissons Ratio (x) = -0.23355 0.01542
# Poissons Ratio (y) = -0.11042 -0.07552
# Poissons Ratio (z) = 0.00675 -0.06990
#
# Static dielectric constant tensor:
#      x y z
#    x 2.655180 0.000000 0.000000 
#    y 0.000000 1.786850 0.000000 
#    z 0.000000 0.000000 1.841470 
# 
# From -- ./inp_files/25856.got.cif
#   From: 2010.05.17/outbox.cif.g08.bks.cpg/sg68_13_cif.got.tgz:25856.got - 2010.06.03 18:57:09.
