data_PCOD9510275
_publ_section_title
;
Structure prediction by ZEFSAII (Michael W. Deem and Ramdas Pophale) SiO2 
 PCOD9510275
Probable space group: C C C A
;
_chemical_formula_sum "Si O2"
_cell_formula_units_Z 64
_cell_length_a 4.941418
_cell_length_b 22.518020
_cell_length_c 23.164891
_cell_angle_alpha 90.000000
_cell_angle_beta 90.000000
_cell_angle_gamma 90.000000
_cell_volume 2577.579413
_symmetry_space_group_name_H-M "C C C A"
_symmetry_group_IT_number 68
_space_group.IT_coordinate_system_code '2'
_symmetry_cell_setting 'orthorhombic'
loop_
_space_group_symop_operation_xyz
x,y,z
-x,1/2-y,z
x,1/2-y,1/2-z
-x,y,1/2-z
-x,-y,-z
x,1/2+y,-z
-x,1/2+y,1/2+z
x,-y,1/2+z
1/2+x,1/2+y,z
1/2-x,-y,z
1/2+x,-y,1/2-z
1/2-x,1/2+y,1/2-z
1/2-x,1/2-y,-z
1/2+x,y,-z
1/2-x,y,1/2+z
1/2+x,1/2-y,1/2+z
loop_
_atom_site_type_symbol
_atom_site_label
_atom_site_fract_x
_atom_site_fract_y
_atom_site_fract_z
Si Si1 0.744878 0.291234 0.578784
Si Si2 0.584356 0.941331 0.657171
Si Si3 0.668823 0.422258 0.034959
Si Si4 0.087018 0.365037 0.313253
O O1 0.500000 0.250000 0.557557
O O2 0.811421 0.351231 0.544262
O O3 0.685781 0.314613 0.643591
O O4 0.000000 0.250000 0.580220
O O5 0.454881 0.947886 0.593661
O O6 0.820610 0.892497 0.656955
O O7 0.750000 0.000000 0.676030
O O8 0.325520 0.915062 0.691921
O O9 0.471749 0.438170 0.982447
O O10 0.000000 0.345177 0.250000
#
# Coordination Sequence:
#
# PCOD9510275 Si02
#       4
#    16  16  16  16
#     4  11  23  41  64  93 128 168 216 268 321 381
#     4  11  24  43  67  96 131 168 213 267 320 382
#     4  11  23  40  63  93 129 170 216 265 319 381
#     4  11  24  44  67  95 130 167 213 267 321 383
#
# _framework density 24.829497
#
# number of rings (size 3 to 8) (size 9 to 14) (size 15 to 20)
#    0.000    1.000    0.000    9.000    0.000    6.500 
#    0.000    3.750    0.000    0.000    0.000    0.000 
#    0.000    0.000    0.000    0.000    0.000    0.000 
#
# Total GULP energy -179348.462020 kJ/mol
# GULP energy per Si atom -5604.639438 kJ/mol
# Density = 2.477298 g / cm^3
# Si number density = 24.829497 Si / 1000 Ang^3
#
#
#
# Elastic Constant Matrix: (Units=GPa)
#
#
# Indices 1 2 3 4 5 6 
#
# 1 176.2821 60.3142 31.2764 0.0000 0.0000 0.0000
# 2 60.3142 120.5306 23.2780 0.0000 0.0000 0.0000
# 3 31.2764 23.2780 108.8862 0.0000 0.0000 0.0000
# 4 0.0000 0.0000 0.0000 14.5068 0.0000 0.0000
# 5 0.0000 0.0000 0.0000 0.0000 48.6835 0.0000
# 6 0.0000 0.0000 0.0000 0.0000 0.0000 30.7893
#
#
#
# Elastic Compliance Matrix: (Units=1/GPa)
#
#
# Indices 1 2 3 4 5 6 
#
# 1 0.007022 -0.003259 -0.001320 0.000000 0.000000 0.000000
# 2 -0.003259 0.010166 -0.001237 0.000000 0.000000 0.000000
# 3 -0.001320 -0.001237 0.009828 0.000000 0.000000 0.000000
# 4 0.000000 0.000000 0.000000 0.068933 0.000000 0.000000
# 5 0.000000 0.000000 0.000000 0.000000 0.020541 0.000000
# 6 0.000000 0.000000 0.000000 0.000000 0.000000 0.032479
#
#
# Mechanical properties :
#
#
# Convention : Reuss Voigt Hill
#
# Bulk Modulus (GPa) = 65.00660 70.60400 67.80530
# Shear Modulus (GPa) = 30.16962 38.18460 34.17711
#
# Velocity S-wave (km/s) = 3.48957 3.92583 3.71411
# Velocity P-wave (km/s) = 6.51722 7.00334 6.76465
#
# Compressibility (1/GPa) = 0.01538305
#
# Stress axis : x y z
#
# Youngs Moduli (GPa) = 142.41003 98.36365 101.75359
#
# Poissons Ratio (x) = 0.32055 0.13435
# Poissons Ratio (y) = 0.46409 0.12590
# Poissons Ratio (z) = 0.18802 0.12171
#
# Static dielectric constant tensor:
#      x y z
#    x 1.874510 0.000000 0.000000 
#    y 0.000000 1.951370 0.000000 
#    z 0.000000 0.000000 1.962400 
# 
# From -- ./inp_files/34940.got.cif
#   From: 2010.05.17/outbox.cif.g08.bks.cpg/sg68_18_cif.got.tgz:34940.got - 2010.06.03 18:57:09.
