data_PCOD9510151
_publ_section_title
;
Structure prediction by ZEFSAII (Michael W. Deem and Ramdas Pophale) SiO2 
 PCOD9510151
Probable space group: C C C A
;
_chemical_formula_sum "Si O2"
_cell_formula_units_Z 96
_cell_length_a 15.319401
_cell_length_b 19.316773
_cell_length_c 17.686414
_cell_angle_alpha 90.000000
_cell_angle_beta 90.000000
_cell_angle_gamma 90.000000
_cell_volume 5233.788244
_symmetry_space_group_name_H-M "C C C A"
_symmetry_group_IT_number 68
_space_group.IT_coordinate_system_code '2'
_symmetry_cell_setting 'orthorhombic'
loop_
_space_group_symop_operation_xyz
x,y,z
-x,1/2-y,z
x,1/2-y,1/2-z
-x,y,1/2-z
-x,-y,-z
x,1/2+y,-z
-x,1/2+y,1/2+z
x,-y,1/2+z
1/2+x,1/2+y,z
1/2-x,-y,z
1/2+x,-y,1/2-z
1/2-x,1/2+y,1/2-z
1/2-x,1/2-y,-z
1/2+x,y,-z
1/2-x,y,1/2+z
1/2+x,1/2-y,1/2+z
loop_
_atom_site_type_symbol
_atom_site_label
_atom_site_fract_x
_atom_site_fract_y
_atom_site_fract_z
Si Si1 0.404406 0.326551 0.781006
Si Si2 0.250000 0.418747 0.035905
Si Si3 0.750000 0.081974 0.216080
Si Si4 0.350203 0.311274 0.947417
Si Si5 0.404406 0.826551 0.718994
Si Si6 0.850203 0.688726 0.052583
O O1 0.381104 0.250000 0.750000
O O2 0.500000 0.343195 0.750000
O O3 0.333875 0.381135 0.752027
O O4 0.402926 0.323712 0.871747
O O5 0.250000 0.500000 0.020046
O O6 0.250000 0.407542 0.125584
O O7 0.331989 0.379515 0.997326
O O8 0.168011 0.379515 0.997326
O O9 0.666124 0.118865 0.252027
O O10 0.750000 0.000000 0.231032
O O11 0.250000 0.289883 0.923847
O O12 0.384742 0.250000 0.000000
O O13 0.381104 0.750000 0.750000
O O14 0.500000 0.843194 0.750000
O O15 0.402926 0.823712 0.628253
#
# Coordination Sequence:
#
# PCOD9510151 Si02
#       6
#    16  16  16  16  16  16
#     4  11  23  38  60  91 122 155 197 251 303 355
#     4   9  18  33  56  83 107 151 202 241 292 343
#     4  11  22  39  62  85 121 163 204 249 294 359
#     4   9  18  34  59  84 110 156 195 242 291 349
#     4  11  23  38  60  91 122 155 197 251 303 355
#     4   9  18  34  59  84 110 156 195 242 291 349
#
# _framework density 18.342354
#
# number of rings (size 3 to 8) (size 9 to 14) (size 15 to 20)
#    1.000    1.000    1.667    2.500    0.000    3.333 
#    0.000   11.667    0.000    4.000    0.000    0.000 
#    0.000    0.000    0.000    0.000    0.000    0.000 
#
# Total GULP energy -267763.053431 kJ/mol
# GULP energy per Si atom -5578.396946 kJ/mol
# Density = 1.830061 g / cm^3
# Si number density = 18.342354 Si / 1000 Ang^3
#
#
#
# Elastic Constant Matrix: (Units=GPa)
#
#
# Indices 1 2 3 4 5 6 
#
# 1 99.1945 60.2058 68.7786 0.0000 0.0000 0.0000
# 2 60.2058 151.1758 93.6868 0.0000 0.0000 0.0000
# 3 68.7786 93.6868 168.7276 0.0000 0.0000 0.0000
# 4 0.0000 0.0000 0.0000 30.4184 0.0000 0.0000
# 5 0.0000 0.0000 0.0000 0.0000 8.3151 0.0000
# 6 0.0000 0.0000 0.0000 0.0000 0.0000 -8.6595
#
#
#
# Elastic Compliance Matrix: (Units=1/GPa)
#
#
# Indices 1 2 3 4 5 6 
#
# 1 0.015090 -0.003350 -0.004291 0.000000 0.000000 0.000000
# 2 -0.003350 0.010829 -0.004647 0.000000 0.000000 0.000000
# 3 -0.004291 -0.004647 0.010256 0.000000 0.000000 0.000000
# 4 0.000000 0.000000 0.000000 0.032875 0.000000 0.000000
# 5 0.000000 0.000000 0.000000 0.000000 0.120263 0.000000
# 6 0.000000 0.000000 0.000000 0.000000 0.000000 -0.115481
#
#
# Mechanical properties :
#
#
# Convention : Reuss Voigt Hill
#
# Bulk Modulus (GPa) = 86.21933 96.04892 91.13413
# Shear Modulus (GPa) = 48.88792 19.10994 33.99893
#
# Velocity S-wave (km/s) = 5.16826 3.23127 4.30999
# Velocity P-wave (km/s) = 9.09517 8.14860 8.63487
#
# Compressibility (1/GPa) = 0.01159833
#
# Stress axis : x y z
#
# Youngs Moduli (GPa) = 66.26985 92.34411 97.50318
#
# Poissons Ratio (x) = 0.30940 0.41836
# Poissons Ratio (y) = 0.22204 0.45311
# Poissons Ratio (z) = 0.28434 0.42913
#
# Static dielectric constant tensor:
#      x y z
#    x 1.635700 0.000000 0.000000 
#    y 0.000000 1.622440 0.000000 
#    z 0.000000 0.000000 1.620680 
# 
# From -- ./inp_files/22359.got.cif
#   From: 2010.05.17/outbox.cif.g08.bks.cpg/sg68_12_cif.got.tgz:22359.got - 2010.06.03 18:57:09.
