data_PCOD9510518
_publ_section_title
;
Structure prediction by ZEFSAII (Michael W. Deem and Ramdas Pophale) SiO2 
 PCOD9510518
Probable space group: C C C A
;
_chemical_formula_sum "Si O2"
_cell_formula_units_Z 120
_cell_length_a 8.758321
_cell_length_b 27.244281
_cell_length_c 23.689246
_cell_angle_alpha 90.000000
_cell_angle_beta 90.000000
_cell_angle_gamma 90.000000
_cell_volume 5652.589498
_symmetry_space_group_name_H-M "C C C A"
_symmetry_group_IT_number 68
_space_group.IT_coordinate_system_code '2'
_symmetry_cell_setting 'orthorhombic'
loop_
_space_group_symop_operation_xyz
x,y,z
-x,1/2-y,z
x,1/2-y,1/2-z
-x,y,1/2-z
-x,-y,-z
x,1/2+y,-z
-x,1/2+y,1/2+z
x,-y,1/2+z
1/2+x,1/2+y,z
1/2-x,-y,z
1/2+x,-y,1/2-z
1/2-x,1/2+y,1/2-z
1/2-x,1/2-y,-z
1/2+x,y,-z
1/2-x,y,1/2+z
1/2+x,1/2-y,1/2+z
loop_
_atom_site_type_symbol
_atom_site_label
_atom_site_fract_x
_atom_site_fract_y
_atom_site_fract_z
Si Si1 0.961722 0.364366 0.913081
Si Si2 0.000000 0.856787 0.250000
Si Si3 0.565015 0.805437 0.469209
Si Si4 0.775164 0.788571 0.704112
Si Si5 0.612949 0.863889 0.127774
Si Si6 0.545826 0.047059 0.815628
Si Si7 0.850194 0.778225 0.398344
Si Si8 0.096936 0.436432 0.842212
O O1 0.790651 0.366331 0.889389
O O2 0.073171 0.328025 0.877822
O O3 0.045856 0.416287 0.903883
O O4 0.945682 0.338908 0.974608
O O5 0.137932 0.820583 0.268437
O O6 0.033082 0.896045 0.200702
O O7 0.500000 0.750000 0.469205
O O8 0.480246 0.837536 0.421655
O O9 0.736345 0.794533 0.447457
O O10 0.827373 0.750000 0.750000
O O11 0.896618 0.827245 0.681081
O O12 0.723195 0.755782 0.649681
O O13 0.552830 0.916572 0.145975
O O14 0.500000 0.054382 0.750000
O O15 0.722643 0.059486 0.829675
O O16 0.526305 0.989757 0.830221
O O17 0.000000 0.750000 0.418647
#
# Coordination Sequence:
#
# PCOD9510518 Si02
#       8
#    16   8  16  16  16  16  16  16
#     4  12  25  43  70 101 139 190 248 304 363 442
#     4  12  21  40  70 102 142 190 247 282 356 448
#     4  12  26  45  72 101 146 195 251 317 365 433
#     4  12  24  39  65 102 150 195 238 293 357 437
#     4  12  26  45  66 109 140 189 250 300 369 436
#     4  11  26  47  75 108 148 188 236 309 382 444
#     4  12  22  43  64  99 144 193 246 289 369 444
#     4  11  24  46  74 106 140 190 243 303 375 451
#
# _framework density 21.229208
#
# number of rings (size 3 to 8) (size 9 to 14) (size 15 to 20)
#    0.000    0.267    4.667    4.600    0.000    3.200 
#    0.000    2.667    0.000    1.600    0.000    0.000 
#    0.000    0.000    0.000    0.000    0.000    0.000 
#
# Total GULP energy -335204.819935 kJ/mol
# GULP energy per Si atom -5586.746999 kJ/mol
# Density = 2.118089 g / cm^3
# Si number density = 21.229208 Si / 1000 Ang^3
#
#
#
# Elastic Constant Matrix: (Units=GPa)
#
#
# Indices 1 2 3 4 5 6 
#
# 1 92.1700 62.2670 44.1339 0.0000 0.0000 0.0000
# 2 62.2670 168.5180 85.9791 0.0000 0.0000 0.0000
# 3 44.1339 85.9791 113.5107 0.0000 0.0000 0.0000
# 4 0.0000 0.0000 0.0000 28.9940 0.0000 0.0000
# 5 0.0000 0.0000 0.0000 0.0000 24.4018 0.0000
# 6 0.0000 0.0000 0.0000 0.0000 0.0000 44.3233
#
#
#
# Elastic Compliance Matrix: (Units=1/GPa)
#
#
# Indices 1 2 3 4 5 6 
#
# 1 0.014933 -0.004165 -0.002651 0.000000 0.000000 0.000000
# 2 -0.004165 0.010834 -0.006587 0.000000 0.000000 0.000000
# 3 -0.002651 -0.006587 0.014830 0.000000 0.000000 0.000000
# 4 0.000000 0.000000 0.000000 0.034490 0.000000 0.000000
# 5 0.000000 0.000000 0.000000 0.000000 0.040981 0.000000
# 6 0.000000 0.000000 0.000000 0.000000 0.000000 0.022562
#
#
# Mechanical properties :
#
#
# Convention : Reuss Voigt Hill
#
# Bulk Modulus (GPa) = 72.51410 84.32873 78.42142
# Shear Modulus (GPa) = 29.40658 31.66504 30.53581
#
# Velocity S-wave (km/s) = 3.72586 3.86629 3.79672
# Velocity P-wave (km/s) = 7.26231 7.72917 7.49938
#
# Compressibility (1/GPa) = 0.01379042
#
# Stress axis : x y z
#
# Youngs Moduli (GPa) = 66.96715 92.30622 67.43294
#
# Poissons Ratio (x) = 0.38445 0.17878
# Poissons Ratio (y) = 0.27891 0.44415
# Poissons Ratio (z) = 0.17754 0.60798
#
# Static dielectric constant tensor:
#      x y z
#    x 1.826090 0.000000 0.000000 
#    y 0.000000 1.933490 0.000000 
#    z 0.000000 0.000000 1.851600 
# 
# From -- ./inp_files/49717.got.cif
#   From: 2010.05.17/outbox.cif.g08.bks.cpg/sg68_25_cif.got.tgz:49717.got - 2010.06.03 18:57:09.
