data_PCOD9510306
_publ_section_title
;
Structure prediction by ZEFSAII (Michael W. Deem and Ramdas Pophale) SiO2 
 PCOD9510306
Probable space group: C C C A
;
_chemical_formula_sum "Si O2"
_cell_formula_units_Z 116
_cell_length_a 24.465164
_cell_length_b 23.174512
_cell_length_c 9.089315
_cell_angle_alpha 90.000000
_cell_angle_beta 90.000000
_cell_angle_gamma 90.000000
_cell_volume 5153.352898
_symmetry_space_group_name_H-M "C C C A"
_symmetry_group_IT_number 68
_space_group.IT_coordinate_system_code '2'
_symmetry_cell_setting 'orthorhombic'
loop_
_space_group_symop_operation_xyz
x,y,z
-x,1/2-y,z
x,1/2-y,1/2-z
-x,y,1/2-z
-x,-y,-z
x,1/2+y,-z
-x,1/2+y,1/2+z
x,-y,1/2+z
1/2+x,1/2+y,z
1/2-x,-y,z
1/2+x,-y,1/2-z
1/2-x,1/2+y,1/2-z
1/2-x,1/2-y,-z
1/2+x,y,-z
1/2-x,y,1/2+z
1/2+x,1/2-y,1/2+z
loop_
_atom_site_type_symbol
_atom_site_label
_atom_site_fract_x
_atom_site_fract_y
_atom_site_fract_z
Si Si1 0.507783 0.939465 0.578552
Si Si2 0.728917 0.292726 0.628538
Si Si3 0.198578 0.959976 0.980622
Si Si4 0.320613 0.620588 0.768243
Si Si5 0.500000 0.250000 0.250000
Si Si6 0.127915 0.567711 0.995669
Si Si7 0.074666 0.161833 0.549901
Si Si8 0.646521 0.868705 0.222090
O O1 0.500000 0.947903 0.750000
O O2 0.569097 0.918515 0.558444
O O3 0.466699 0.890627 0.523187
O O4 0.500000 0.000000 0.500000
O O5 0.708600 0.250000 0.750000
O O6 0.750000 0.250000 0.500000
O O7 0.779923 0.327536 0.694974
O O8 0.677330 0.335422 0.644890
O O9 0.189757 0.903586 0.879755
O O10 0.250000 0.000000 0.946515
O O11 0.145863 0.001359 0.981722
O O12 0.203076 0.934121 0.143812
O O13 0.329994 0.602252 0.601508
O O14 0.377846 0.639841 0.840771
O O15 0.460527 0.288696 0.360609
O O16 0.121204 0.580806 0.822419
O O17 0.107419 0.167040 0.390792
#
# Coordination Sequence:
#
# PCOD9510306 Si02
#       8
#    16  16  16  16   4  16  16  16
#     4  12  26  45  73 110 148 198 252 311 389 479
#     4  12  25  46  71 100 137 194 250 308 387 448
#     4  11  23  41  69 108 153 198 243 303 384 464
#     4  11  23  44  71 102 143 189 253 304 369 470
#     4  12  24  52  92 102 148 212 282 338 388 494
#     4  12  24  41  72 104 149 196 235 300 390 464
#     4  11  25  50  76 110 145 197 265 325 396 460
#     4  11  26  46  69 110 156 187 249 325 376 477
#
# _framework density 22.509618
#
# number of rings (size 3 to 8) (size 9 to 14) (size 15 to 20)
#    0.000    0.552    2.069    6.621    4.828    1.103 
#    7.448    0.000    3.034    0.828    0.000    0.000 
#    0.000    0.000    0.000    0.000    0.000    0.000 
#
# Total GULP energy -323288.429717 kJ/mol
# GULP energy per Si atom -5573.938443 kJ/mol
# Density = 2.245838 g / cm^3
# Si number density = 22.509618 Si / 1000 Ang^3
#
#
#
# Elastic Constant Matrix: (Units=GPa)
#
#
# Indices 1 2 3 4 5 6 
#
# 1 79.0456 30.9115 9.5324 0.0000 0.0000 0.0000
# 2 30.9115 90.9681 35.3958 0.0000 0.0000 0.0000
# 3 9.5324 35.3958 143.0429 0.0000 0.0000 0.0000
# 4 0.0000 0.0000 0.0000 35.6093 0.0000 0.0000
# 5 0.0000 0.0000 0.0000 0.0000 21.9543 0.0000
# 6 0.0000 0.0000 0.0000 0.0000 0.0000 33.2639
#
#
#
# Elastic Compliance Matrix: (Units=1/GPa)
#
#
# Indices 1 2 3 4 5 6 
#
# 1 0.014600 -0.005071 0.000282 0.000000 0.000000 0.000000
# 2 -0.005071 0.013925 -0.003108 0.000000 0.000000 0.000000
# 3 0.000282 -0.003108 0.007741 0.000000 0.000000 0.000000
# 4 0.000000 0.000000 0.000000 0.028083 0.000000 0.000000
# 5 0.000000 0.000000 0.000000 0.000000 0.045549 0.000000
# 6 0.000000 0.000000 0.000000 0.000000 0.000000 0.030063
#
#
# Mechanical properties :
#
#
# Convention : Reuss Voigt Hill
#
# Bulk Modulus (GPa) = 48.84569 51.63734 50.24152
# Shear Modulus (GPa) = 30.75437 33.97995 32.36716
#
# Velocity S-wave (km/s) = 3.70033 3.88954 3.79611
# Velocity P-wave (km/s) = 6.32484 6.56973 6.44844
#
# Compressibility (1/GPa) = 0.02047263
#
# Stress axis : x y z
#
# Youngs Moduli (GPa) = 68.49356 71.81217 129.17954
#
# Poissons Ratio (x) = 0.36414 -0.03641
# Poissons Ratio (y) = 0.34732 0.40147
# Poissons Ratio (z) = -0.01930 0.22318
#
# Static dielectric constant tensor:
#      x y z
#    x 2.322780 0.000000 0.000000 
#    y 0.000000 1.969320 0.000000 
#    z 0.000000 0.000000 1.927200 
# 
# From -- ./inp_files/9169.got.cif
#   From: 2010.05.17/outbox.cif.g08.bks.cpg/sg68_5_cif.got.tgz:9169.got - 2010.06.03 18:57:09.
