data_PCOD9510650
_publ_section_title
;
Structure prediction by ZEFSAII (Michael W. Deem and Ramdas Pophale) SiO2 
 PCOD9510650
Probable space group: C C C A
;
_chemical_formula_sum "Si O2"
_cell_formula_units_Z 64
_cell_length_a 23.415841
_cell_length_b 8.956310
_cell_length_c 10.753514
_cell_angle_alpha 90.000000
_cell_angle_beta 90.000000
_cell_angle_gamma 90.000000
_cell_volume 2255.221912
_symmetry_space_group_name_H-M "C C C A"
_symmetry_group_IT_number 68
_space_group.IT_coordinate_system_code '2'
_symmetry_cell_setting 'orthorhombic'
loop_
_space_group_symop_operation_xyz
x,y,z
-x,1/2-y,z
x,1/2-y,1/2-z
-x,y,1/2-z
-x,-y,-z
x,1/2+y,-z
-x,1/2+y,1/2+z
x,-y,1/2+z
1/2+x,1/2+y,z
1/2-x,-y,z
1/2+x,-y,1/2-z
1/2-x,1/2+y,1/2-z
1/2-x,1/2-y,-z
1/2+x,y,-z
1/2-x,y,1/2+z
1/2+x,1/2-y,1/2+z
loop_
_atom_site_type_symbol
_atom_site_label
_atom_site_fract_x
_atom_site_fract_y
_atom_site_fract_z
Si Si1 0.664377 0.348484 0.912499
Si Si2 0.052688 0.360845 0.429763
Si Si3 0.274315 0.354614 0.342255
Si Si4 0.582640 0.922339 0.705516
O O1 0.610821 0.238003 0.924673
O O2 0.640625 0.484345 0.830229
O O3 0.551794 0.574526 0.930019
O O4 0.719520 0.247257 0.878352
O O5 0.058135 0.481312 0.320056
O O6 0.000000 0.250000 0.409626
O O7 0.307919 0.250000 0.250000
O O8 0.250000 0.500000 0.279208
O O9 0.313981 0.407113 0.454363
O O10 0.579674 0.750000 0.750000
#
# Coordination Sequence:
#
# PCOD9510650 Si02
#       4
#    16  16  16  16
#     4  11  27  51  81 121 169 221 282 354 426 503
#     4  12  30  56  88 128 175 226 283 351 428 512
#     4  11  26  50  81 119 166 224 287 351 424 505
#     4  12  29  55  89 127 173 229 287 351 429 513
#
# _framework density 28.378582000000002
#
# number of rings (size 3 to 8) (size 9 to 14) (size 15 to 20)
#    0.000    0.500    0.000    5.250    0.000   21.500 
#    0.000    6.250    0.000    1.500    0.000    0.000 
#    0.000    0.000    0.000    0.000    0.000    0.000 
#
# Total GULP energy -179614.442576 kJ/mol
# GULP energy per Si atom -5612.951331 kJ/mol
# Density = 2.831399 g / cm^3
# Si number density = 28.378582 Si / 1000 Ang^3
#
#
#
# Elastic Constant Matrix: (Units=GPa)
#
#
# Indices 1 2 3 4 5 6 
#
# 1 184.2560 84.1860 99.2199 0.0000 0.0000 0.0000
# 2 84.1860 255.9907 131.0999 0.0000 0.0000 0.0000
# 3 99.2199 131.0999 228.3666 0.0000 0.0000 0.0000
# 4 0.0000 0.0000 0.0000 71.3814 0.0000 0.0000
# 5 0.0000 0.0000 0.0000 0.0000 64.0456 0.0000
# 6 0.0000 0.0000 0.0000 0.0000 0.0000 35.2861
#
#
#
# Elastic Compliance Matrix: (Units=1/GPa)
#
#
# Indices 1 2 3 4 5 6 
#
# 1 0.007297 -0.001099 -0.002539 0.000000 0.000000 0.000000
# 2 -0.001099 0.005699 -0.002794 0.000000 0.000000 0.000000
# 3 -0.002539 -0.002794 0.007086 0.000000 0.000000 0.000000
# 4 0.000000 0.000000 0.000000 0.014009 0.000000 0.000000
# 5 0.000000 0.000000 0.000000 0.000000 0.015614 0.000000
# 6 0.000000 0.000000 0.000000 0.000000 0.000000 0.028340
#
#
# Mechanical properties :
#
#
# Convention : Reuss Voigt Hill
#
# Bulk Modulus (GPa) = 138.56482 144.18053 141.37268
# Shear Modulus (GPa) = 53.58196 57.74978 55.66587
#
# Velocity S-wave (km/s) = 4.34996 4.51597 4.43374
# Velocity P-wave (km/s) = 8.61178 8.83789 8.72557
#
# Compressibility (1/GPa) = 0.00721684
#
# Stress axis : x y z
#
# Youngs Moduli (GPa) = 137.04581 175.47763 141.12155
#
# Poissons Ratio (x) = 0.19289 0.35834
# Poissons Ratio (y) = 0.15065 0.39428
# Poissons Ratio (z) = 0.34799 0.49027
#
# Static dielectric constant tensor:
#      x y z
#    x 2.263730 0.000000 0.000000 
#    y 0.000000 2.071730 0.000000 
#    z 0.000000 0.000000 2.368050 
# 
# From -- ./inp_files/25027.got.cif
#   From: 2010.05.17/outbox.cif.g08.bks.cpg/sg68_13_cif.got.tgz:25027.got - 2010.06.03 18:57:09.
