data_PCOD9510085
_publ_section_title
;
Structure prediction by ZEFSAII (Michael W. Deem and Ramdas Pophale) SiO2 
 PCOD9510085
Probable space group: C C C A
;
_chemical_formula_sum "Si O2"
_cell_formula_units_Z 88
_cell_length_a 22.370192
_cell_length_b 12.520866
_cell_length_c 13.826453
_cell_angle_alpha 90.000000
_cell_angle_beta 90.000000
_cell_angle_gamma 90.000000
_cell_volume 3872.708966
_symmetry_space_group_name_H-M "C C C A"
_symmetry_group_IT_number 68
_space_group.IT_coordinate_system_code '2'
_symmetry_cell_setting 'orthorhombic'
loop_
_space_group_symop_operation_xyz
x,y,z
-x,1/2-y,z
x,1/2-y,1/2-z
-x,y,1/2-z
-x,-y,-z
x,1/2+y,-z
-x,1/2+y,1/2+z
x,-y,1/2+z
1/2+x,1/2+y,z
1/2-x,-y,z
1/2+x,-y,1/2-z
1/2-x,1/2+y,1/2-z
1/2-x,1/2-y,-z
1/2+x,y,-z
1/2-x,y,1/2+z
1/2+x,1/2-y,1/2+z
loop_
_atom_site_type_symbol
_atom_site_label
_atom_site_fract_x
_atom_site_fract_y
_atom_site_fract_z
Si Si1 0.750000 0.500000 0.604589
Si Si2 0.058130 0.029782 0.939459
Si Si3 0.000000 0.446547 0.250000
Si Si4 0.082710 0.750000 0.750000
Si Si5 0.158852 0.358652 0.089297
Si Si6 0.835201 0.844251 0.023775
Si Si7 0.730456 0.368226 0.283467
O O1 0.794496 0.573597 0.540703
O O2 0.715162 0.571668 0.684177
O O3 0.033558 0.017971 0.829723
O O4 0.111536 0.943250 0.949498
O O5 0.093369 0.133661 0.977717
O O6 0.000000 0.000000 0.000000
O O7 0.047700 0.356573 0.284811
O O8 0.122135 0.785124 0.838555
O O9 0.211666 0.407865 0.154668
O O10 0.181130 0.275764 0.009000
O O11 0.820131 0.859694 0.136418
O O12 0.747744 0.250000 0.250000
#
# Coordination Sequence:
#
# PCOD9510085 Si02
#       7
#     8  16   8   8  16  16  16
#     4  12  24  44  72 102 144 174 232 288 358 432
#     4  11  25  42  66  93 130 181 232 286 345 406
#     4   9  20  38  60  89 124 156 232 277 330 397
#     4   9  16  34  66  92 112 170 214 287 334 402
#     4  11  21  42  67  97 137 171 232 281 350 421
#     4  12  26  42  67 103 137 182 229 293 351 431
#     4  12  25  43  69 105 138 183 225 285 365 429
#
# _framework density 22.723112
#
# number of rings (size 3 to 8) (size 9 to 14) (size 15 to 20)
#    0.000    0.909    2.727    4.364    2.545    6.545 
#    0.000    0.000    0.000    0.000    0.000    0.000 
#    0.000    0.000    0.000    0.000    0.000    0.000 
#
# Total GULP energy -245580.088269 kJ/mol
# GULP energy per Si atom -5581.365642 kJ/mol
# Density = 2.267139 g / cm^3
# Si number density = 22.723112 Si / 1000 Ang^3
#
#
#
# Elastic Constant Matrix: (Units=GPa)
#
#
# Indices 1 2 3 4 5 6 
#
# 1 116.8203 9.7964 41.5061 0.0000 0.0000 0.0000
# 2 9.7964 50.8341 40.4173 0.0000 0.0000 0.0000
# 3 41.5061 40.4173 111.9841 0.0000 0.0000 0.0000
# 4 0.0000 0.0000 0.0000 38.5468 0.0000 0.0000
# 5 0.0000 0.0000 0.0000 0.0000 55.5269 0.0000
# 6 0.0000 0.0000 0.0000 0.0000 0.0000 22.0921
#
#
#
# Elastic Compliance Matrix: (Units=1/GPa)
#
#
# Indices 1 2 3 4 5 6 
#
# 1 0.009931 0.001420 -0.004193 0.000000 0.000000 0.000000
# 2 0.001420 0.027792 -0.010557 0.000000 0.000000 0.000000
# 3 -0.004193 -0.010557 0.014294 0.000000 0.000000 0.000000
# 4 0.000000 0.000000 0.000000 0.025942 0.000000 0.000000
# 5 0.000000 0.000000 0.000000 0.000000 0.018009 0.000000
# 6 0.000000 0.000000 0.000000 0.000000 0.000000 0.045265
#
#
# Mechanical properties :
#
#
# Convention : Reuss Voigt Hill
#
# Bulk Modulus (GPa) = 39.43718 51.45312 45.44515
# Shear Modulus (GPa) = 28.35323 35.76109 32.05716
#
# Velocity S-wave (km/s) = 3.53621 3.97139 3.76010
# Velocity P-wave (km/s) = 5.83663 6.61225 6.23651
#
# Compressibility (1/GPa) = 0.02535678
#
# Stress axis : x y z
#
# Youngs Moduli (GPa) = 100.69491 35.98174 69.95750
#
# Poissons Ratio (x) = -0.05111 0.29336
# Poissons Ratio (y) = -0.14302 0.73855
# Poissons Ratio (z) = 0.42226 0.37986
#
# Static dielectric constant tensor:
#      x y z
#    x 1.868160 0.000000 0.000000 
#    y 0.000000 2.729670 0.000000 
#    z 0.000000 0.000000 1.846510 
# 
# From -- ./inp_files/13484.got.cif
#   From: 2010.05.17/outbox.cif.g08.bks.cpg/sg68_7_cif.got.tgz:13484.got - 2010.06.03 18:57:09.
