data_PCOD9510012
_publ_section_title
;
Structure prediction by ZEFSAII (Michael W. Deem and Ramdas Pophale) SiO2 
 PCOD9510012
Probable space group: C C C A
;
_chemical_formula_sum "Si O2"
_cell_formula_units_Z 84
_cell_length_a 11.946571
_cell_length_b 11.668918
_cell_length_c 28.648720
_cell_angle_alpha 90.000000
_cell_angle_beta 90.000000
_cell_angle_gamma 90.000000
_cell_volume 3993.733482
_symmetry_space_group_name_H-M "C C C A"
_symmetry_group_IT_number 68
_space_group.IT_coordinate_system_code '2'
_symmetry_cell_setting 'orthorhombic'
loop_
_space_group_symop_operation_xyz
x,y,z
-x,1/2-y,z
x,1/2-y,1/2-z
-x,y,1/2-z
-x,-y,-z
x,1/2+y,-z
-x,1/2+y,1/2+z
x,-y,1/2+z
1/2+x,1/2+y,z
1/2-x,-y,z
1/2+x,-y,1/2-z
1/2-x,1/2+y,1/2-z
1/2-x,1/2-y,-z
1/2+x,y,-z
1/2-x,y,1/2+z
1/2+x,1/2-y,1/2+z
loop_
_atom_site_type_symbol
_atom_site_label
_atom_site_fract_x
_atom_site_fract_y
_atom_site_fract_z
Si Si1 0.000000 0.250000 0.250000
Si Si2 0.534100 0.015607 0.886642
Si Si3 0.818080 0.241502 0.399910
Si Si4 0.153943 0.907282 0.816687
Si Si5 0.600600 0.338811 0.058402
Si Si6 0.631737 0.942961 0.041274
O O1 0.083590 0.333347 0.220864
O O2 0.616029 0.124347 0.889453
O O3 0.443325 0.028130 0.846417
O O4 0.465848 0.983356 0.934734
O O5 0.605913 0.900993 0.890173
O O6 0.794901 0.313469 0.352800
O O7 0.714714 0.233169 0.434813
O O8 0.894493 0.327704 0.429963
O O9 0.250000 0.000000 0.802740
O O10 0.500000 0.250000 0.051105
O O11 0.626820 0.416133 0.012803
O O12 0.750000 0.000000 0.053303
#
# Coordination Sequence:
#
# PCOD9510012 Si02
#       6
#     4  16  16  16  16  16
#     4  12  24  52  76 104 136 172 224 280 352 420
#     4  11  21  39  61  88 124 170 214 273 333 394
#     4  11  21  39  61  88 124 170 214 273 333 394
#     4  11  23  46  73  99 127 168 213 265 340 412
#     4  12  23  35  53  89 128 174 224 273 320 388
#     4  11  21  35  54  82 122 174 224 271 323 389
#
# _framework density 21.03295
#
# number of rings (size 3 to 8) (size 9 to 14) (size 15 to 20)
#    0.000    0.762    1.905   10.286    0.000    0.000 
#    3.429    0.000    0.000    0.000    0.000    0.000 
#    0.000    0.000    0.000    0.000    0.000    0.000 
#
# Total GULP energy -233839.579232 kJ/mol
# GULP energy per Si atom -5567.609029 kJ/mol
# Density = 2.098508 g / cm^3
# Si number density = 21.032950 Si / 1000 Ang^3
#
#
#
# Elastic Constant Matrix: (Units=GPa)
#
#
# Indices 1 2 3 4 5 6 
#
# 1 71.5193 0.2081 24.7724 0.0000 0.0000 0.0000
# 2 0.2081 70.0665 19.1116 0.0000 0.0000 0.0000
# 3 24.7724 19.1116 89.0391 0.0000 0.0000 0.0000
# 4 0.0000 0.0000 0.0000 -79.3105 0.0000 0.0000
# 5 0.0000 0.0000 0.0000 0.0000 157.1527 0.0000
# 6 0.0000 0.0000 0.0000 0.0000 0.0000 26.0181
#
#
#
# Elastic Compliance Matrix: (Units=1/GPa)
#
#
# Indices 1 2 3 4 5 6 
#
# 1 0.015569 0.001206 -0.004590 0.000000 0.000000 0.000000
# 2 0.001206 0.015253 -0.003609 0.000000 0.000000 0.000000
# 3 -0.004590 -0.003609 0.013283 0.000000 0.000000 0.000000
# 4 0.000000 0.000000 0.000000 -0.012609 0.000000 0.000000
# 5 0.000000 0.000000 0.000000 0.000000 0.006363 0.000000
# 6 0.000000 0.000000 0.000000 0.000000 0.000000 0.038435
#
#
# Mechanical properties :
#
#
# Convention : Reuss Voigt Hill
#
# Bulk Modulus (GPa) = 33.20408 35.42323 34.31365
# Shear Modulus (GPa) = 49.84011 33.20758 41.52384
#
# Velocity S-wave (km/s) = 4.87316 3.97777 4.44805
# Velocity P-wave (km/s) = 6.89090 6.16240 6.53681
#
# Compressibility (1/GPa) = 0.03011678
#
# Stress axis : x y z
#
# Youngs Moduli (GPa) = 64.23146 65.56044 75.28482
#
# Poissons Ratio (x) = -0.07906 0.34558
# Poissons Ratio (y) = -0.07745 0.27174
# Poissons Ratio (z) = 0.29484 0.23664
#
# Static dielectric constant tensor:
#      x y z
#    x 1.850310 0.000000 0.000000 
#    y 0.000000 1.874110 0.000000 
#    z 0.000000 0.000000 1.752790 
# 
# From -- ./inp_files/54617.got.cif
#   From: 2010.05.17/outbox.cif.g08.bks.cpg/sg68_28_cif.got.tgz:54617.got - 2010.06.03 18:57:09.
