data_PCOD9510260
_publ_section_title
;
Structure prediction by ZEFSAII (Michael W. Deem and Ramdas Pophale) SiO2 
 PCOD9510260
Probable space group: C C C A
;
_chemical_formula_sum "Si O2"
_cell_formula_units_Z 80
_cell_length_a 24.337336
_cell_length_b 9.967502
_cell_length_c 16.747531
_cell_angle_alpha 90.000000
_cell_angle_beta 90.000000
_cell_angle_gamma 90.000000
_cell_volume 4062.657022
_symmetry_space_group_name_H-M "C C C A"
_symmetry_group_IT_number 68
_space_group.IT_coordinate_system_code '2'
_symmetry_cell_setting 'orthorhombic'
loop_
_space_group_symop_operation_xyz
x,y,z
-x,1/2-y,z
x,1/2-y,1/2-z
-x,y,1/2-z
-x,-y,-z
x,1/2+y,-z
-x,1/2+y,1/2+z
x,-y,1/2+z
1/2+x,1/2+y,z
1/2-x,-y,z
1/2+x,-y,1/2-z
1/2-x,1/2+y,1/2-z
1/2-x,1/2-y,-z
1/2+x,y,-z
1/2-x,y,1/2+z
1/2+x,1/2-y,1/2+z
loop_
_atom_site_type_symbol
_atom_site_label
_atom_site_fract_x
_atom_site_fract_y
_atom_site_fract_z
Si Si1 0.212839 0.375313 0.028146
Si Si2 0.368669 0.150189 0.819331
Si Si3 0.436135 0.745282 0.446868
Si Si4 0.612555 0.036322 0.437659
Si Si5 0.566180 0.088664 0.261517
O O1 0.250000 0.500000 0.052028
O O2 0.174050 0.350386 0.106064
O O3 0.250000 0.250000 0.000000
O O4 0.175988 0.427548 0.953183
O O5 0.347456 0.250000 0.750000
O O6 0.421505 0.224501 0.855763
O O7 0.393129 0.005383 0.792394
O O8 0.500000 0.750000 0.456897
O O9 0.403612 0.610732 0.467605
O O10 0.416333 0.860718 0.504325
O O11 0.587307 0.054954 0.350420
O O12 0.572913 0.250000 0.250000
O O13 0.500000 0.060378 0.250000
#
# Coordination Sequence:
#
# PCOD9510260 Si02
#       5
#    16  16  16  16  16
#     4  11  26  48  72  95 131 179 238 294 347 399
#     4  11  24  45  67 101 135 175 231 282 346 416
#     4  11  23  38  68  99 140 182 225 271 342 424
#     4  11  24  43  68  99 136 182 232 282 340 419
#     4  11  26  42  69 104 148 179 218 279 352 425
#
# _framework density 19.691545999999999
#
# number of rings (size 3 to 8) (size 9 to 14) (size 15 to 20)
#    0.000    1.000    2.000    4.200   11.200    0.000 
#    3.600    0.000    0.000    0.000    0.000    0.000 
#    0.000    0.000    0.000    0.000    0.000    0.000 
#
# Total GULP energy -222902.221782 kJ/mol
# GULP energy per Si atom -5572.555545 kJ/mol
# Density = 1.964673 g / cm^3
# Si number density = 19.691546 Si / 1000 Ang^3
#
#
#
# Elastic Constant Matrix: (Units=GPa)
#
#
# Indices 1 2 3 4 5 6 
#
# 1 111.5684 73.7591 30.4197 0.0000 0.0000 0.0000
# 2 73.7591 200.2214 47.2645 0.0000 0.0000 0.0000
# 3 30.4197 47.2645 90.5319 0.0000 0.0000 0.0000
# 4 0.0000 0.0000 0.0000 38.6281 0.0000 0.0000
# 5 0.0000 0.0000 0.0000 0.0000 28.9816 0.0000
# 6 0.0000 0.0000 0.0000 0.0000 0.0000 30.8251
#
#
#
# Elastic Compliance Matrix: (Units=1/GPa)
#
#
# Indices 1 2 3 4 5 6 
#
# 1 0.012156 -0.004008 -0.001992 0.000000 0.000000 0.000000
# 2 -0.004008 0.007018 -0.002317 0.000000 0.000000 0.000000
# 3 -0.001992 -0.002317 0.012925 0.000000 0.000000 0.000000
# 4 0.000000 0.000000 0.000000 0.025888 0.000000 0.000000
# 5 0.000000 0.000000 0.000000 0.000000 0.034505 0.000000
# 6 0.000000 0.000000 0.000000 0.000000 0.000000 0.032441
#
#
# Mechanical properties :
#
#
# Convention : Reuss Voigt Hill
#
# Bulk Modulus (GPa) = 64.66444 78.35649 71.51046
# Shear Modulus (GPa) = 34.07817 36.41219 35.24518
#
# Velocity S-wave (km/s) = 4.16456 4.30481 4.23527
# Velocity P-wave (km/s) = 7.48563 8.03660 7.76600
#
# Compressibility (1/GPa) = 0.01546445
#
# Stress axis : x y z
#
# Youngs Moduli (GPa) = 82.26469 142.49268 77.36965
#
# Poissons Ratio (x) = 0.57108 0.15413
# Poissons Ratio (y) = 0.32970 0.17928
# Poissons Ratio (z) = 0.16388 0.33018
#
# Static dielectric constant tensor:
#      x y z
#    x 1.841990 0.000000 0.000000 
#    y 0.000000 1.715860 0.000000 
#    z 0.000000 0.000000 1.709220 
# 
# From -- ./inp_files/33961.got.cif
#   From: 2010.05.17/outbox.cif.g08.bks.cpg/sg68_17_cif.got.tgz:33961.got - 2010.06.03 18:57:09.
