data_PCOD9510741
_publ_section_title
;
Structure prediction by ZEFSAII (Michael W. Deem and Ramdas Pophale) SiO2 
 PCOD9510741
Probable space group: C C C A
;
_chemical_formula_sum "Si O2"
_cell_formula_units_Z 68
_cell_length_a 5.107787
_cell_length_b 24.814037
_cell_length_c 21.391472
_cell_angle_alpha 90.000000
_cell_angle_beta 90.000000
_cell_angle_gamma 90.000000
_cell_volume 2711.258174
_symmetry_space_group_name_H-M "C C C A"
_symmetry_group_IT_number 68
_space_group.IT_coordinate_system_code '2'
_symmetry_cell_setting 'orthorhombic'
loop_
_space_group_symop_operation_xyz
x,y,z
-x,1/2-y,z
x,1/2-y,1/2-z
-x,y,1/2-z
-x,-y,-z
x,1/2+y,-z
-x,1/2+y,1/2+z
x,-y,1/2+z
1/2+x,1/2+y,z
1/2-x,-y,z
1/2+x,-y,1/2-z
1/2-x,1/2+y,1/2-z
1/2-x,1/2-y,-z
1/2+x,y,-z
1/2-x,y,1/2+z
1/2+x,1/2-y,1/2+z
loop_
_atom_site_type_symbol
_atom_site_label
_atom_site_fract_x
_atom_site_fract_y
_atom_site_fract_z
Si Si1 0.500000 0.250000 0.250000
Si Si2 0.500000 0.139665 0.750000
Si Si3 0.500000 0.925525 0.750000
Si Si4 0.373523 0.621671 0.536842
Si Si5 0.250000 0.500000 0.353409
Si Si6 0.750000 0.000000 0.071484
Si Si7 0.366047 0.302949 0.643413
O O1 0.319251 0.216583 0.298626
O O2 0.746079 0.105579 0.727844
O O3 0.412167 0.168543 0.685954
O O4 0.393309 0.958880 0.692072
O O5 0.669436 0.635529 0.518485
O O6 0.357022 0.556216 0.542842
O O7 0.274096 0.656981 0.595567
O O8 0.490767 0.521935 0.393312
O O9 0.500000 0.250000 0.613636
#
# Coordination Sequence:
#
# PCOD9510741 Si02
#       7
#     4   8   8  16   8   8  16
#     4  12  24  52  80 120 158 210 256 334 402 494
#     4  12  24  44  70 110 145 207 247 320 385 478
#     4  12  24  38  65 105 160 191 262 307 394 462
#     4  12  29  51  79 113 153 209 264 331 392 467
#     4  12  23  41  66 108 148 210 245 331 384 460
#     4  12  25  49  76 104 152 204 277 321 390 462
#     4  12  27  47  78 115 158 206 262 324 406 477
#
# _framework density 25.080607000000001
#
# number of rings (size 3 to 8) (size 9 to 14) (size 15 to 20)
#    0.000    0.000    2.353    8.471    3.294    0.941 
#    0.000    0.000    0.000    0.000    0.000    0.000 
#    0.000    0.000    0.000    0.000    0.000    0.000 
#
# Total GULP energy -190103.183541 kJ/mol
# GULP energy per Si atom -5591.270104 kJ/mol
# Density = 2.502352 g / cm^3
# Si number density = 25.080607 Si / 1000 Ang^3
#
#
#
# Elastic Constant Matrix: (Units=GPa)
#
#
# Indices 1 2 3 4 5 6 
#
# 1 113.4381 16.8928 10.9183 0.0000 0.0000 0.0000
# 2 16.8928 110.4350 37.0115 0.0000 0.0000 0.0000
# 3 10.9183 37.0115 85.5152 0.0000 0.0000 0.0000
# 4 0.0000 0.0000 0.0000 20.1501 0.0000 0.0000
# 5 0.0000 0.0000 0.0000 0.0000 45.7946 0.0000
# 6 0.0000 0.0000 0.0000 0.0000 0.0000 16.4497
#
#
#
# Elastic Compliance Matrix: (Units=1/GPa)
#
#
# Indices 1 2 3 4 5 6 
#
# 1 0.009052 -0.001166 -0.000651 0.000000 0.000000 0.000000
# 2 -0.001166 0.010742 -0.004500 0.000000 0.000000 0.000000
# 3 -0.000651 -0.004500 0.013725 0.000000 0.000000 0.000000
# 4 0.000000 0.000000 0.000000 0.049627 0.000000 0.000000
# 5 0.000000 0.000000 0.000000 0.000000 0.021837 0.000000
# 6 0.000000 0.000000 0.000000 0.000000 0.000000 0.060791
#
#
# Mechanical properties :
#
#
# Convention : Reuss Voigt Hill
#
# Bulk Modulus (GPa) = 47.88551 48.78148 48.33349
# Shear Modulus (GPa) = 26.97316 32.78328 29.87822
#
# Velocity S-wave (km/s) = 3.28298 3.61933 3.45525
# Velocity P-wave (km/s) = 5.78832 6.07932 5.93561
#
# Compressibility (1/GPa) = 0.02088315
#
# Stress axis : x y z
#
# Youngs Moduli (GPa) = 110.47611 93.09493 72.86176
#
# Poissons Ratio (x) = 0.10859 0.04742
# Poissons Ratio (y) = 0.12887 0.32789
# Poissons Ratio (z) = 0.07190 0.41894
#
# Static dielectric constant tensor:
#      x y z
#    x 1.841180 0.000000 0.000000 
#    y 0.000000 2.276130 0.000000 
#    z 0.000000 0.000000 2.067150 
# 
# From -- ./inp_files/35123.got.cif
#   From: 2010.05.17/outbox.cif.g08.bks.cpg/sg68_18_cif.got.tgz:35123.got - 2010.06.03 18:57:09.
