data_PCOD9510996
_publ_section_title
;
Structure prediction by ZEFSAII (Michael W. Deem and Ramdas Pophale) SiO2 
 PCOD9510996
Probable space group: F M M M
;
_chemical_formula_sum "Si O2"
_cell_formula_units_Z 144
_cell_length_a 14.122193
_cell_length_b 17.774437
_cell_length_c 32.096083
_cell_angle_alpha 90.000000
_cell_angle_beta 90.000000
_cell_angle_gamma 90.000000
_cell_volume 8056.567134
_symmetry_space_group_name_H-M "F M M M"
_symmetry_group_IT_number 69
_symmetry_cell_setting 'orthorhombic'
loop_
_space_group_symop_operation_xyz
x,y,z
-x,-y,z
x,-y,-z
-x,y,-z
-x,-y,-z
x,y,-z
-x,y,z
x,-y,z
x,1/2+y,1/2+z
-x,1/2-y,1/2+z
x,1/2-y,1/2-z
-x,1/2+y,1/2-z
-x,1/2-y,1/2-z
x,1/2+y,1/2-z
-x,1/2+y,1/2+z
x,1/2-y,1/2+z
1/2+x,y,1/2+z
1/2-x,-y,1/2+z
1/2+x,-y,1/2-z
1/2-x,y,1/2-z
1/2-x,-y,1/2-z
1/2+x,y,1/2-z
1/2-x,y,1/2+z
1/2+x,-y,1/2+z
1/2+x,1/2+y,z
1/2-x,1/2-y,z
1/2+x,1/2-y,-z
1/2-x,1/2+y,-z
1/2-x,1/2-y,-z
1/2+x,1/2+y,-z
1/2-x,1/2+y,z
1/2+x,1/2-y,z
loop_
_atom_site_type_symbol
_atom_site_label
_atom_site_fract_x
_atom_site_fract_y
_atom_site_fract_z
Si Si1 0.500000 0.309832 0.787346
Si Si2 0.000000 0.203089 0.366829
Si Si3 0.317187 0.412834 0.790041
Si Si4 0.286999 0.663221 0.954532
Si Si5 0.000000 0.210072 0.046852
Si Si6 0.787480 0.662542 0.133261
O O1 0.500000 0.250000 0.750000
O O2 0.500000 0.268781 0.832194
O O3 0.407987 0.361135 0.784002
O O4 0.099561 0.161309 0.361260
O O5 0.000000 0.234436 0.414038
O O6 0.343709 0.500000 0.794757
O O7 0.250000 0.405370 0.750000
O O8 0.262469 0.383638 0.830620
O O9 0.250000 0.750000 0.955877
O O10 0.401135 0.665174 0.950244
O O11 0.241251 0.632445 0.912464
O O12 0.263103 0.629965 0.000000
O O13 0.000000 0.244770 0.000000
O O14 0.750000 0.750000 0.135690
#
# Coordination Sequence:
#
# PCOD9510996 Si02
#       6
#    16  16  32  32  16  32
#     4  12  23  37  64  88 111 146 188 237 277 335
#     4  12  20  31  52  89 109 138 193 232 278 331
#     4  11  25  42  58  82 115 151 186 231 287 341
#     4   9  16  26  44  74 112 144 180 231 288 339
#     4  10  16  24  41  71 113 147 172 224 288 336
#     4  11  20  34  56  81 112 147 189 235 283 339
#
# _framework density 17.873616999999999
#
# number of rings (size 3 to 8) (size 9 to 14) (size 15 to 20)
#    0.000    1.333    6.667    1.667    0.000    0.000 
#    0.000    1.667    0.000    0.667    0.000    0.000 
#    0.000   11.556    0.000    0.000    0.000    0.000 
#
# Total GULP energy -200802.708607 kJ/mol
# GULP energy per Si atom -5577.853017 kJ/mol
# Density = 1.783294 g / cm^3
# Si number density = 17.873617 Si / 1000 Ang^3
#
#
#
# Elastic Constant Matrix: (Units=GPa)
#
#
# Indices 1 2 3 4 5 6 
#
# 1 158.2049 55.5690 49.7854 0.0000 0.0000 0.0000
# 2 55.5690 57.0972 69.1084 0.0000 0.0000 0.0000
# 3 49.7854 69.1084 145.5368 0.0000 0.0000 0.0000
# 4 0.0000 0.0000 0.0000 6.9084 0.0000 0.0000
# 5 0.0000 0.0000 0.0000 0.0000 25.0351 0.0000
# 6 0.0000 0.0000 0.0000 0.0000 0.0000 11.1824
#
#
#
# Elastic Compliance Matrix: (Units=1/GPa)
#
#
# Indices 1 2 3 4 5 6 
#
# 1 0.010082 -0.013257 0.002846 0.000000 0.000000 0.000000
# 2 -0.013257 0.058617 -0.023299 0.000000 0.000000 0.000000
# 3 0.002846 -0.023299 0.016961 0.000000 0.000000 0.000000
# 4 0.000000 0.000000 0.000000 0.144751 0.000000 0.000000
# 5 0.000000 0.000000 0.000000 0.000000 0.039944 0.000000
# 6 0.000000 0.000000 0.000000 0.000000 0.000000 0.089426
#
#
# Mechanical properties :
#
#
# Convention : Reuss Voigt Hill
#
# Bulk Modulus (GPa) = 54.82533 78.86274 66.84403
# Shear Modulus (GPa) = 11.53987 21.05025 16.29506
#
# Velocity S-wave (km/s) = 2.54370 3.43553 3.02268
# Velocity P-wave (km/s) = 6.27437 7.74308 7.04709
#
# Compressibility (1/GPa) = 0.01823975
#
# Stress axis : x y z
#
# Youngs Moduli (GPa) = 99.18998 17.05997 58.95821
#
# Poissons Ratio (x) = 0.22616 -0.16781
# Poissons Ratio (y) = 1.31495 1.37369
# Poissons Ratio (z) = -0.28233 0.39749
#
# Static dielectric constant tensor:
#      x y z
#    x 1.615750 0.000000 0.000000 
#    y 0.000000 1.573280 0.000000 
#    z 0.000000 0.000000 1.634370 
# 
# From -- ./inp_files/45640.got.cif
#   From: 2010.05.17/outbox.cif.g08.bks.cpg/sg69_23_cif.got.tgz:45640.got - 2010.06.03 19:29:58.
