data_PCOD9510006
_publ_section_title
;
Structure prediction by ZEFSAII (Michael W. Deem and Ramdas Pophale) SiO2 
 PCOD9510006
Probable space group: C C C A
;
_chemical_formula_sum "Si O2"
_cell_formula_units_Z 96
_cell_length_a 23.478986
_cell_length_b 20.883396
_cell_length_c 9.017622
_cell_angle_alpha 90.000000
_cell_angle_beta 90.000000
_cell_angle_gamma 90.000000
_cell_volume 4421.529097
_symmetry_space_group_name_H-M "C C C A"
_symmetry_group_IT_number 68
_space_group.IT_coordinate_system_code '2'
_symmetry_cell_setting 'orthorhombic'
loop_
_space_group_symop_operation_xyz
x,y,z
-x,1/2-y,z
x,1/2-y,1/2-z
-x,y,1/2-z
-x,-y,-z
x,1/2+y,-z
-x,1/2+y,1/2+z
x,-y,1/2+z
1/2+x,1/2+y,z
1/2-x,-y,z
1/2+x,-y,1/2-z
1/2-x,1/2+y,1/2-z
1/2-x,1/2-y,-z
1/2+x,y,-z
1/2-x,y,1/2+z
1/2+x,1/2-y,1/2+z
loop_
_atom_site_type_symbol
_atom_site_label
_atom_site_fract_x
_atom_site_fract_y
_atom_site_fract_z
Si Si1 0.124688 0.930907 0.839743
Si Si2 0.128954 0.437231 0.809451
Si Si3 0.087717 0.308764 0.346176
Si Si4 0.243338 0.893905 0.312821
Si Si5 0.938237 0.318139 0.819239
Si Si6 0.282479 0.192145 0.573981
O O1 0.094238 0.871954 0.755536
O O2 0.193229 0.921849 0.822092
O O3 0.107131 0.997125 0.762552
O O4 0.115589 0.932937 0.016293
O O5 0.196499 0.434761 0.773533
O O6 0.103057 0.375095 0.729666
O O7 0.065388 0.250000 0.250000
O O8 0.056703 0.316908 0.502870
O O9 0.152451 0.291457 0.395058
O O10 0.250998 0.828215 0.222749
O O11 0.220516 0.871933 0.472610
O O12 0.918237 0.250000 0.750000
O O13 0.000000 0.329885 0.750000
O O14 0.250000 0.250000 0.500000
#
# Coordination Sequence:
#
# PCOD9510006 Si02
#       6
#    16  16  16  16  16  16
#     4  11  25  41  64 103 136 184 227 279 350 418
#     4  12  24  43  67  93 138 182 232 287 346 415
#     4  11  23  43  69 101 143 175 227 289 351 417
#     4  11  22  35  59  92 140 181 226 270 342 417
#     4  11  26  48  74 103 132 177 235 297 361 410
#     4  11  21  34  55  99 136 183 224 272 333 423
#
# _framework density 21.711946000000001
#
# number of rings (size 3 to 8) (size 9 to 14) (size 15 to 20)
#    0.000    0.833    3.333    5.000    4.667    1.333 
#    0.000    9.167    0.000    0.000    0.000    0.000 
#    0.000    0.000    0.000    0.000    0.000    0.000 
#
# Total GULP energy -268547.607785 kJ/mol
# GULP energy per Si atom -5594.741829 kJ/mol
# Density = 2.166253 g / cm^3
# Si number density = 21.711946 Si / 1000 Ang^3
#
#
#
# Elastic Constant Matrix: (Units=GPa)
#
#
# Indices 1 2 3 4 5 6 
#
# 1 34.7681 32.2040 29.6183 0.0000 0.0000 0.0000
# 2 32.2040 131.7956 60.9280 0.0000 0.0000 0.0000
# 3 29.6183 60.9280 194.8272 0.0000 0.0000 0.0000
# 4 0.0000 0.0000 0.0000 32.9566 0.0000 0.0000
# 5 0.0000 0.0000 0.0000 0.0000 18.0815 0.0000
# 6 0.0000 0.0000 0.0000 0.0000 0.0000 4.1139
#
#
#
# Elastic Compliance Matrix: (Units=1/GPa)
#
#
# Indices 1 2 3 4 5 6 
#
# 1 0.039067 -0.007950 -0.003453 0.000000 0.000000 0.000000
# 2 -0.007950 0.010487 -0.002071 0.000000 0.000000 0.000000
# 3 -0.003453 -0.002071 0.006305 0.000000 0.000000 0.000000
# 4 0.000000 0.000000 0.000000 0.030343 0.000000 0.000000
# 5 0.000000 0.000000 0.000000 0.000000 0.055305 0.000000
# 6 0.000000 0.000000 0.000000 0.000000 0.000000 0.243079
#
#
# Mechanical properties :
#
#
# Convention : Reuss Voigt Hill
#
# Bulk Modulus (GPa) = 34.58761 67.43238 51.00999
# Shear Modulus (GPa) = 11.87164 26.93978 19.40571
#
# Velocity S-wave (km/s) = 2.34087 3.52629 2.99286
# Velocity P-wave (km/s) = 4.82400 6.90687 5.95717
#
# Compressibility (1/GPa) = 0.02891209
#
# Stress axis : x y z
#
# Youngs Moduli (GPa) = 25.59719 95.35180 158.59381
#
# Poissons Ratio (x) = 0.75801 0.54762
# Poissons Ratio (y) = 0.20349 0.32848
# Poissons Ratio (z) = 0.08839 0.19749
#
# Static dielectric constant tensor:
#      x y z
#    x 1.792550 0.000000 0.000000 
#    y 0.000000 1.794690 0.000000 
#    z 0.000000 0.000000 1.796670 
# 
# From -- ./inp_files/8929.got.cif
#   From: 2010.05.17/outbox.cif.g08.bks.cpg/sg68_5_cif.got.tgz:8929.got - 2010.06.03 18:57:09.
