data_PCOD9510110
_publ_section_title
;
Structure prediction by ZEFSAII (Michael W. Deem and Ramdas Pophale) SiO2 
 PCOD9510110
Probable space group: C C C A
;
_chemical_formula_sum "Si O2"
_cell_formula_units_Z 56
_cell_length_a 12.068450
_cell_length_b 14.450856
_cell_length_c 14.318775
_cell_angle_alpha 90.000000
_cell_angle_beta 90.000000
_cell_angle_gamma 90.000000
_cell_volume 2497.186243
_symmetry_space_group_name_H-M "C C C A"
_symmetry_group_IT_number 68
_space_group.IT_coordinate_system_code '2'
_symmetry_cell_setting 'orthorhombic'
loop_
_space_group_symop_operation_xyz
x,y,z
-x,1/2-y,z
x,1/2-y,1/2-z
-x,y,1/2-z
-x,-y,-z
x,1/2+y,-z
-x,1/2+y,1/2+z
x,-y,1/2+z
1/2+x,1/2+y,z
1/2-x,-y,z
1/2+x,-y,1/2-z
1/2-x,1/2+y,1/2-z
1/2-x,1/2-y,-z
1/2+x,y,-z
1/2-x,y,1/2+z
1/2+x,1/2-y,1/2+z
loop_
_atom_site_type_symbol
_atom_site_label
_atom_site_fract_x
_atom_site_fract_y
_atom_site_fract_z
Si Si1 0.000000 0.539731 0.250000
Si Si2 0.179337 0.722483 0.643030
Si Si3 0.084229 0.163251 0.903402
Si Si4 0.471291 0.897620 0.096176
O O1 0.919449 0.606726 0.307065
O O2 0.942921 0.476694 0.170671
O O3 0.204231 0.750000 0.750000
O O4 0.292074 0.701384 0.589577
O O5 0.110233 0.810858 0.610147
O O6 0.093965 0.637401 0.626586
O O7 0.000000 0.250000 0.902892
O O8 0.044447 0.093126 0.984947
#
# Coordination Sequence:
#
# PCOD9510110 Si02
#       4
#     8  16  16  16
#     4  12  25  47  66 112 146 178 240 313 359 410
#     4  11  21  45  76  98 138 195 244 283 365 436
#     4  12  26  45  70 105 147 188 237 300 366 433
#     4  11  23  45  74 100 137 193 245 291 352 445
#
# _framework density 22.425238
#
# number of rings (size 3 to 8) (size 9 to 14) (size 15 to 20)
#    0.000    0.571    5.714    4.714    0.000    1.143 
#    5.143    0.000    0.000    0.000    0.000    0.000 
#    0.000    0.000    0.000    0.000    0.000    0.000 
#
# Total GULP energy -156392.501843 kJ/mol
# GULP energy per Si atom -5585.446494 kJ/mol
# Density = 2.237420 g / cm^3
# Si number density = 22.425238 Si / 1000 Ang^3
#
#
#
# Elastic Constant Matrix: (Units=GPa)
#
#
# Indices 1 2 3 4 5 6 
#
# 1 147.5045 51.9357 50.1798 0.0000 0.0000 0.0000
# 2 51.9357 54.7349 39.3177 0.0000 0.0000 0.0000
# 3 50.1798 39.3177 156.3029 0.0000 0.0000 0.0000
# 4 0.0000 0.0000 0.0000 -4.9081 0.0000 0.0000
# 5 0.0000 0.0000 0.0000 0.0000 -7.8999 0.0000
# 6 0.0000 0.0000 0.0000 0.0000 0.0000 11.1617
#
#
#
# Elastic Compliance Matrix: (Units=1/GPa)
#
#
# Indices 1 2 3 4 5 6 
#
# 1 0.010317 -0.009044 -0.001037 0.000000 0.000000 0.000000
# 2 -0.009044 0.030228 -0.004700 0.000000 0.000000 0.000000
# 3 -0.001037 -0.004700 0.007913 0.000000 0.000000 0.000000
# 4 0.000000 0.000000 0.000000 -0.203745 0.000000 0.000000
# 5 0.000000 0.000000 0.000000 0.000000 -0.126584 0.000000
# 6 0.000000 0.000000 0.000000 0.000000 0.000000 0.089592
#
#
# Mechanical properties :
#
#
# Convention : Reuss Voigt Hill
#
# Bulk Modulus (GPa) = 52.92462 71.26761 62.09611
# Shear Modulus (GPa) = -31.96532 14.14470 -8.91031
#
# Velocity S-wave (km/s) = -3.77957 2.51420 -1.99549
# Velocity P-wave (km/s) = 2.14590 6.34644 4.73720
#
# Compressibility (1/GPa) = 0.01889480
#
# Stress axis : x y z
#
# Youngs Moduli (GPa) = 96.93090 33.08220 126.37271
#
# Poissons Ratio (x) = 0.29920 0.13105
# Poissons Ratio (y) = 0.87665 0.59398
# Poissons Ratio (z) = 0.10052 0.15549
#
# Static dielectric constant tensor:
#      x y z
#    x 1.764900 0.000000 0.000000 
#    y 0.000000 1.852840 0.000000 
#    z 0.000000 0.000000 2.112060 
# 
# From -- ./inp_files/20089.got.cif
#   From: 2010.05.17/outbox.cif.g08.bks.cpg/sg68_11_cif.got.tgz:20089.got - 2010.06.03 18:57:09.
