data_PCOD9510804
_publ_section_title
;
Structure prediction by ZEFSAII (Michael W. Deem and Ramdas Pophale) SiO2 
 PCOD9510804
Probable space group: C C C A
;
_chemical_formula_sum "Si O2"
_cell_formula_units_Z 72
_cell_length_a 22.018274
_cell_length_b 8.575905
_cell_length_c 16.756636
_cell_angle_alpha 90.000000
_cell_angle_beta 90.000000
_cell_angle_gamma 90.000000
_cell_volume 3164.099040
_symmetry_space_group_name_H-M "C C C A"
_symmetry_group_IT_number 68
_space_group.IT_coordinate_system_code '2'
_symmetry_cell_setting 'orthorhombic'
loop_
_space_group_symop_operation_xyz
x,y,z
-x,1/2-y,z
x,1/2-y,1/2-z
-x,y,1/2-z
-x,-y,-z
x,1/2+y,-z
-x,1/2+y,1/2+z
x,-y,1/2+z
1/2+x,1/2+y,z
1/2-x,-y,z
1/2+x,-y,1/2-z
1/2-x,1/2+y,1/2-z
1/2-x,1/2-y,-z
1/2+x,y,-z
1/2-x,y,1/2+z
1/2+x,1/2-y,1/2+z
loop_
_atom_site_type_symbol
_atom_site_label
_atom_site_fract_x
_atom_site_fract_y
_atom_site_fract_z
Si Si1 0.943118 0.932215 0.191292
Si Si2 0.437610 0.724487 0.964019
Si Si3 0.250000 0.500000 0.356084
Si Si4 0.324333 0.250000 0.250000
Si Si5 0.374522 0.909156 0.091015
Si Si6 0.084476 0.750000 0.750000
O O1 0.949140 0.851068 0.106008
O O2 0.875157 0.870462 0.214177
O O3 0.000000 0.894782 0.250000
O O4 0.945972 0.118425 0.194843
O O5 0.500000 0.750000 0.012095
O O6 0.417487 0.559205 0.927213
O O7 0.387194 0.779495 0.025295
O O8 0.279831 0.358185 0.303759
O O9 0.304818 0.548461 0.412104
O O10 0.383148 0.851260 0.181734
#
# Coordination Sequence:
#
# PCOD9510804 Si02
#       6
#    16  16   8   8  16   8
#     4  12  24  45  79 113 148 194 254 319 389 457
#     4  12  26  49  75 111 156 195 250 326 397 454
#     4  12  26  48  74 106 154 200 268 308 376 470
#     4  12  24  48  75 109 145 197 252 322 368 448
#     4  12  27  48  74 111 151 205 255 313 391 452
#     4  12  24  46  73 119 148 195 257 308 390 460
#
# _framework density 22.755293000000002
#
# number of rings (size 3 to 8) (size 9 to 14) (size 15 to 20)
#    0.000    0.000    4.444    6.000    0.000    2.667 
#    0.000    0.000    0.000    0.000    0.000    0.000 
#    0.000    0.000    0.000    0.000    0.000    0.000 
#
# Total GULP energy -200722.736605 kJ/mol
# GULP energy per Si atom -5575.631572 kJ/mol
# Density = 2.270350 g / cm^3
# Si number density = 22.755293 Si / 1000 Ang^3
#
#
#
# Elastic Constant Matrix: (Units=GPa)
#
#
# Indices 1 2 3 4 5 6 
#
# 1 131.2176 26.8377 13.5084 0.0000 0.0000 0.0000
# 2 26.8377 122.7643 21.2661 0.0000 0.0000 0.0000
# 3 13.5084 21.2661 87.5326 0.0000 0.0000 0.0000
# 4 0.0000 0.0000 0.0000 21.4084 0.0000 0.0000
# 5 0.0000 0.0000 0.0000 0.0000 -48.7603 0.0000
# 6 0.0000 0.0000 0.0000 0.0000 0.0000 36.2674
#
#
#
# Elastic Compliance Matrix: (Units=1/GPa)
#
#
# Indices 1 2 3 4 5 6 
#
# 1 0.008038 -0.001610 -0.000849 0.000000 0.000000 0.000000
# 2 -0.001610 0.008826 -0.001896 0.000000 0.000000 0.000000
# 3 -0.000849 -0.001896 0.012016 0.000000 0.000000 0.000000
# 4 0.000000 0.000000 0.000000 0.046711 0.000000 0.000000
# 5 0.000000 0.000000 0.000000 0.000000 -0.020508 0.000000
# 6 0.000000 0.000000 0.000000 0.000000 0.000000 0.027573
#
#
# Mechanical properties :
#
#
# Convention : Reuss Voigt Hill
#
# Bulk Modulus (GPa) = 49.57983 51.63767 50.60875
# Shear Modulus (GPa) = 50.97454 20.44325 35.70890
#
# Velocity S-wave (km/s) = 4.73812 3.00058 3.96568
# Velocity P-wave (km/s) = 7.19504 5.89461 6.57705
#
# Compressibility (1/GPa) = 0.02016949
#
# Stress axis : x y z
#
# Youngs Moduli (GPa) = 124.41452 113.30077 83.22253
#
# Poissons Ratio (x) = 0.18242 0.07068
# Poissons Ratio (y) = 0.20031 0.15778
# Poissons Ratio (z) = 0.10566 0.21480
#
# Static dielectric constant tensor:
#      x y z
#    x 1.918490 0.000000 0.000000 
#    y 0.000000 1.921900 0.000000 
#    z 0.000000 0.000000 1.866560 
# 
# From -- ./inp_files/33467.got.cif
#   From: 2010.05.17/outbox.cif.g08.bks.cpg/sg68_17_cif.got.tgz:33467.got - 2010.06.03 18:57:09.
