data_PCOD9510739
_publ_section_title
;
Structure prediction by ZEFSAII (Michael W. Deem and Ramdas Pophale) SiO2 
 PCOD9510739
Probable space group: C C C A
;
_chemical_formula_sum "Si O2"
_cell_formula_units_Z 56
_cell_length_a 19.247931
_cell_length_b 8.868460
_cell_length_c 16.202568
_cell_angle_alpha 90.000000
_cell_angle_beta 90.000000
_cell_angle_gamma 90.000000
_cell_volume 2765.770356
_symmetry_space_group_name_H-M "C C C A"
_symmetry_group_IT_number 68
_space_group.IT_coordinate_system_code '2'
_symmetry_cell_setting 'orthorhombic'
loop_
_space_group_symop_operation_xyz
x,y,z
-x,1/2-y,z
x,1/2-y,1/2-z
-x,y,1/2-z
-x,-y,-z
x,1/2+y,-z
-x,1/2+y,1/2+z
x,-y,1/2+z
1/2+x,1/2+y,z
1/2-x,-y,z
1/2+x,-y,1/2-z
1/2-x,1/2+y,1/2-z
1/2-x,1/2-y,-z
1/2+x,y,-z
1/2-x,y,1/2+z
1/2+x,1/2-y,1/2+z
loop_
_atom_site_type_symbol
_atom_site_label
_atom_site_fract_x
_atom_site_fract_y
_atom_site_fract_z
Si Si1 0.425689 0.748972 0.383139
Si Si2 0.803461 0.750000 0.250000
Si Si3 0.424079 0.004812 0.259065
Si Si4 0.774701 0.672403 0.582809
O O1 0.500000 0.750000 0.427997
O O2 0.430652 0.627610 0.308804
O O3 0.357118 0.692488 0.425905
O O4 0.415359 0.914982 0.344794
O O5 0.856955 0.608735 0.246358
O O6 0.755224 0.753942 0.332012
O O7 0.500000 0.081547 0.250000
O O8 0.750000 0.500000 0.585520
O O9 0.750000 0.750000 0.500000
#
# Coordination Sequence:
#
# PCOD9510739 Si02
#       4
#    16   8  16  16
#     4   9  19  40  64  90 131 175 215 266 334 394
#     4  12  23  40  69  94 136 168 222 274 339 380
#     4   9  18  35  65 100 128 169 220 267 327 402
#     4  12  28  44  66 100 133 173 227 275 332 400
#
# _framework density 20.247523999999999
#
# number of rings (size 3 to 8) (size 9 to 14) (size 15 to 20)
#    0.000    1.714    2.857    3.857    4.000    0.000 
#    0.000    4.286    0.000    0.000    0.000    0.000 
#    0.000    0.000    0.000    0.000    0.000    0.000 
#
# Total GULP energy -156045.436318 kJ/mol
# GULP energy per Si atom -5573.051297 kJ/mol
# Density = 2.020144 g / cm^3
# Si number density = 20.247524 Si / 1000 Ang^3
#
#
#
# Elastic Constant Matrix: (Units=GPa)
#
#
# Indices 1 2 3 4 5 6 
#
# 1 188.6527 39.7075 43.6946 0.0000 0.0000 0.0000
# 2 39.7075 75.2561 19.2322 0.0000 0.0000 0.0000
# 3 43.6946 19.2322 89.3266 0.0000 0.0000 0.0000
# 4 0.0000 0.0000 0.0000 28.2100 0.0000 0.0000
# 5 0.0000 0.0000 0.0000 0.0000 -17.3565 0.0000
# 6 0.0000 0.0000 0.0000 0.0000 0.0000 33.3492
#
#
#
# Elastic Compliance Matrix: (Units=1/GPa)
#
#
# Indices 1 2 3 4 5 6 
#
# 1 0.006478 -0.002760 -0.002574 0.000000 0.000000 0.000000
# 2 -0.002760 0.015238 -0.001931 0.000000 0.000000 0.000000
# 3 -0.002574 -0.001931 0.012870 0.000000 0.000000 0.000000
# 4 0.000000 0.000000 0.000000 0.035448 0.000000 0.000000
# 5 0.000000 0.000000 0.000000 0.000000 -0.057615 0.000000
# 6 0.000000 0.000000 0.000000 0.000000 0.000000 0.029986
#
#
# Mechanical properties :
#
#
# Convention : Reuss Voigt Hill
#
# Bulk Modulus (GPa) = 49.86245 62.05602 55.95924
# Shear Modulus (GPa) = 78.59229 25.54729 52.06979
#
# Velocity S-wave (km/s) = 6.23699 3.55596 5.07666
# Velocity P-wave (km/s) = 8.74909 6.89747 7.87787
#
# Compressibility (1/GPa) = 0.02005517
#
# Stress axis : x y z
#
# Youngs Moduli (GPa) = 154.36943 65.62703 77.70092
#
# Poissons Ratio (x) = 0.18113 0.20004
# Poissons Ratio (y) = 0.42607 0.15001
# Poissons Ratio (z) = 0.39742 0.12670
#
# Static dielectric constant tensor:
#      x y z
#    x 1.733660 0.000000 0.000000 
#    y 0.000000 1.747640 0.000000 
#    z 0.000000 0.000000 1.759660 
# 
# From -- ./inp_files/19064.got.cif
#   From: 2010.05.17/outbox.cif.g08.bks.cpg/sg68_10_cif.got.tgz:19064.got - 2010.06.03 18:57:09.
