data_PCOD9510453
_publ_section_title
;
Structure prediction by ZEFSAII (Michael W. Deem and Ramdas Pophale) SiO2 
 PCOD9510453
Probable space group: C C C A
;
_chemical_formula_sum "Si O2"
_cell_formula_units_Z 48
_cell_length_a 17.912422
_cell_length_b 12.215202
_cell_length_c 9.373607
_cell_angle_alpha 90.000000
_cell_angle_beta 90.000000
_cell_angle_gamma 90.000000
_cell_volume 2050.981328
_symmetry_space_group_name_H-M "C C C A"
_symmetry_group_IT_number 68
_space_group.IT_coordinate_system_code '2'
_symmetry_cell_setting 'orthorhombic'
loop_
_space_group_symop_operation_xyz
x,y,z
-x,1/2-y,z
x,1/2-y,1/2-z
-x,y,1/2-z
-x,-y,-z
x,1/2+y,-z
-x,1/2+y,1/2+z
x,-y,1/2+z
1/2+x,1/2+y,z
1/2-x,-y,z
1/2+x,-y,1/2-z
1/2-x,1/2+y,1/2-z
1/2-x,1/2-y,-z
1/2+x,y,-z
1/2-x,y,1/2+z
1/2+x,1/2-y,1/2+z
loop_
_atom_site_type_symbol
_atom_site_label
_atom_site_fract_x
_atom_site_fract_y
_atom_site_fract_z
Si Si1 0.165193 0.980075 0.614693
Si Si2 0.500000 0.250000 0.991646
Si Si3 0.566424 0.450542 0.341732
Si Si4 0.619074 0.250000 0.750000
O O1 0.109532 0.991964 0.481728
O O2 0.159505 0.860056 0.692219
O O3 0.250000 0.000000 0.572743
O O4 0.133256 0.065098 0.730222
O O5 0.525521 0.153555 0.093645
O O6 0.567012 0.280740 0.884527
O O7 0.500000 0.510570 0.250000
#
# Coordination Sequence:
#
# PCOD9510453 Si02
#       4
#    16   8  16   8
#     4  11  25  46  69 103 144 185 226 288 358 408
#     4   9  21  42  68 106 130 176 242 290 338 406
#     4  11  24  43  71 101 136 182 237 287 336 416
#     4   9  22  42  72  98 143 182 224 292 351 404
#
# _framework density 23.403428999999999
#
# number of rings (size 3 to 8) (size 9 to 14) (size 15 to 20)
#    0.000    1.667    0.000    2.500   14.000    0.000 
#    6.000    5.000    0.000    0.000    0.000    0.000 
#    0.000    0.000    0.000    0.000    0.000    0.000 
#
# Total GULP energy -134033.752008 kJ/mol
# GULP energy per Si atom -5584.739667 kJ/mol
# Density = 2.335016 g / cm^3
# Si number density = 23.403429 Si / 1000 Ang^3
#
#
#
# Elastic Constant Matrix: (Units=GPa)
#
#
# Indices 1 2 3 4 5 6 
#
# 1 125.6279 75.3027 55.5876 0.0000 0.0000 0.0000
# 2 75.3027 105.5140 52.9809 0.0000 0.0000 0.0000
# 3 55.5876 52.9809 178.4412 0.0000 0.0000 0.0000
# 4 0.0000 0.0000 0.0000 23.6033 0.0000 0.0000
# 5 0.0000 0.0000 0.0000 0.0000 13.0454 0.0000
# 6 0.0000 0.0000 0.0000 0.0000 0.0000 24.6430
#
#
#
# Elastic Compliance Matrix: (Units=1/GPa)
#
#
# Indices 1 2 3 4 5 6 
#
# 1 0.014326 -0.009382 -0.001677 0.000000 0.000000 0.000000
# 2 -0.009382 0.017282 -0.002209 0.000000 0.000000 0.000000
# 3 -0.001677 -0.002209 0.006782 0.000000 0.000000 0.000000
# 4 0.000000 0.000000 0.000000 0.042367 0.000000 0.000000
# 5 0.000000 0.000000 0.000000 0.000000 0.076655 0.000000
# 6 0.000000 0.000000 0.000000 0.000000 0.000000 0.040579
#
#
# Mechanical properties :
#
#
# Convention : Reuss Voigt Hill
#
# Bulk Modulus (GPa) = 84.35333 86.36949 85.36141
# Shear Modulus (GPa) = 21.88394 27.30581 24.59488
#
# Velocity S-wave (km/s) = 3.06122 3.41947 3.24529
# Velocity P-wave (km/s) = 6.97253 7.25087 7.11306
#
# Compressibility (1/GPa) = 0.01185490
#
# Stress axis : x y z
#
# Youngs Moduli (GPa) = 69.80517 57.86420 147.44244
#
# Poissons Ratio (x) = 0.54286 0.24729
# Poissons Ratio (y) = 0.65489 0.32564
# Poissons Ratio (z) = 0.11708 0.12780
#
# Static dielectric constant tensor:
#      x y z
#    x 1.860340 0.000000 0.000000 
#    y 0.000000 1.983990 0.000000 
#    z 0.000000 0.000000 1.889930 
# 
# From -- ./inp_files/4553.got.cif
#   From: 2010.05.17/outbox.cif.g08.bks.cpg/sg68_3_cif.got.tgz:4553.got - 2010.06.03 18:57:09.
