data_PCOD9510848
_publ_section_title
;
Structure prediction by ZEFSAII (Michael W. Deem and Ramdas Pophale) SiO2 
 PCOD9510848
Probable space group: C C C A
;
_chemical_formula_sum "Si O2"
_cell_formula_units_Z 104
_cell_length_a 8.603271
_cell_length_b 19.529384
_cell_length_c 20.687386
_cell_angle_alpha 90.000000
_cell_angle_beta 90.000000
_cell_angle_gamma 90.000000
_cell_volume 3475.823907
_symmetry_space_group_name_H-M "C C C A"
_symmetry_group_IT_number 68
_space_group.IT_coordinate_system_code '2'
_symmetry_cell_setting 'orthorhombic'
loop_
_space_group_symop_operation_xyz
x,y,z
-x,1/2-y,z
x,1/2-y,1/2-z
-x,y,1/2-z
-x,-y,-z
x,1/2+y,-z
-x,1/2+y,1/2+z
x,-y,1/2+z
1/2+x,1/2+y,z
1/2-x,-y,z
1/2+x,-y,1/2-z
1/2-x,1/2+y,1/2-z
1/2-x,1/2-y,-z
1/2+x,y,-z
1/2-x,y,1/2+z
1/2+x,1/2-y,1/2+z
loop_
_atom_site_type_symbol
_atom_site_label
_atom_site_fract_x
_atom_site_fract_y
_atom_site_fract_z
Si Si1 0.500000 0.356354 0.250000
Si Si2 0.083644 0.967969 0.545417
Si Si3 0.402213 0.447164 0.803250
Si Si4 0.911797 0.135368 0.542934
Si Si5 0.747694 0.203239 0.451658
Si Si6 0.241860 0.073732 0.338819
Si Si7 0.717488 0.794673 0.311551
O O1 0.616665 0.402099 0.292213
O O2 0.397947 0.310789 0.297660
O O3 0.045750 0.961372 0.620359
O O4 0.021016 0.952065 0.470284
O O5 0.137141 0.875927 0.535665
O O6 0.250000 0.000000 0.536828
O O7 0.250000 0.500000 0.802991
O O8 0.399501 0.441805 0.715053
O O9 0.357390 0.367902 0.809141
O O10 0.831997 0.216570 0.523506
O O11 0.779620 0.119986 0.598507
O O12 0.084602 0.163506 0.557970
O O13 0.813305 0.230216 0.383232
O O14 0.250000 0.000000 0.368112
O O15 0.668564 0.750000 0.250000
#
# Coordination Sequence:
#
# PCOD9510848 Si02
#       7
#     8  16  16  16  16  16  16
#     4  12  27  52  82 112 166 216 277 340 398 510
#     4  12  26  48  82 120 161 216 266 329 416 497
#     4  12  27  50  76 119 163 213 276 342 407 496
#     4  12  25  49  77 116 164 204 271 335 406 497
#     4  12  28  49  80 118 157 211 273 344 411 476
#     4  12  28  49  82 119 165 216 269 334 422 493
#     4  12  29  54  82 114 161 219 275 340 416 485
#
# _framework density 29.920966
#
# number of rings (size 3 to 8) (size 9 to 14) (size 15 to 20)
#    0.000    0.000    4.615    4.846    3.231    4.615 
#    2.769    0.000    0.000    0.000    0.000    0.000 
#    0.000    0.000    0.000    0.000    0.000    0.000 
#
# Total GULP energy -290242.609142 kJ/mol
# GULP energy per Si atom -5581.588637 kJ/mol
# Density = 2.985286 g / cm^3
# Si number density = 29.920966 Si / 1000 Ang^3
#
#
#
# Elastic Constant Matrix: (Units=GPa)
#
#
# Indices 1 2 3 4 5 6 
#
# 1 201.4608 65.1589 98.7377 0.0000 0.0000 0.0000
# 2 65.1589 227.5239 108.1402 0.0000 0.0000 0.0000
# 3 98.7377 108.1402 316.7388 0.0000 0.0000 0.0000
# 4 0.0000 0.0000 0.0000 68.7583 0.0000 0.0000
# 5 0.0000 0.0000 0.0000 0.0000 39.9907 0.0000
# 6 0.0000 0.0000 0.0000 0.0000 0.0000 35.9523
#
#
#
# Elastic Compliance Matrix: (Units=1/GPa)
#
#
# Indices 1 2 3 4 5 6 
#
# 1 0.006043 -0.000997 -0.001543 0.000000 0.000000 0.000000
# 2 -0.000997 0.005411 -0.001537 0.000000 0.000000 0.000000
# 3 -0.001543 -0.001537 0.004163 0.000000 0.000000 0.000000
# 4 0.000000 0.000000 0.000000 0.014544 0.000000 0.000000
# 5 0.000000 0.000000 0.000000 0.000000 0.025006 0.000000
# 6 0.000000 0.000000 0.000000 0.000000 0.000000 0.027815
#
#
# Mechanical properties :
#
#
# Convention : Reuss Voigt Hill
#
# Bulk Modulus (GPa) = 133.99954 143.31078 138.65516
# Shear Modulus (GPa) = 53.40629 60.51937 56.96283
#
# Velocity S-wave (km/s) = 4.22941 4.50226 4.36796
# Velocity P-wave (km/s) = 8.29049 8.66184 8.47820
#
# Compressibility (1/GPa) = 0.00746271
#
# Stress axis : x y z
#
# Youngs Moduli (GPa) = 165.49243 184.80858 240.21749
#
# Poissons Ratio (x) = 0.18425 0.37072
# Poissons Ratio (y) = 0.16499 0.36912
# Poissons Ratio (z) = 0.25540 0.28398
#
# Static dielectric constant tensor:
#      x y z
#    x 2.882700 0.000000 0.000000 
#    y 0.000000 3.483940 0.000000 
#    z 0.000000 0.000000 2.382910 
# 
# From -- ./inp_files/38915.got.cif
#   From: 2010.05.17/outbox.cif.g08.bks.cpg/sg68_20_cif.got.tgz:38915.got - 2010.06.03 18:57:09.
