data_PCOD9510936
_publ_section_title
;
Structure prediction by ZEFSAII (Michael W. Deem and Ramdas Pophale) SiO2 
 PCOD9510936
Probable space group: C C C A
;
_chemical_formula_sum "Si O2"
_cell_formula_units_Z 48
_cell_length_a 9.000000
_cell_length_b 27.000000
_cell_length_c 21.000000
_cell_angle_alpha 90.000000
_cell_angle_beta 90.000000
_cell_angle_gamma 90.000000
_cell_volume 5103.000000
_symmetry_space_group_name_H-M "C C C A"
_symmetry_group_IT_number 68
_space_group.IT_coordinate_system_code '2'
_symmetry_cell_setting 'orthorhombic'
loop_
_space_group_symop_operation_xyz
x,y,z
-x,1/2-y,z
x,1/2-y,1/2-z
-x,y,1/2-z
-x,-y,-z
x,1/2+y,-z
-x,1/2+y,1/2+z
x,-y,1/2+z
1/2+x,1/2+y,z
1/2-x,-y,z
1/2+x,-y,1/2-z
1/2-x,1/2+y,1/2-z
1/2-x,1/2-y,-z
1/2+x,y,-z
1/2-x,y,1/2+z
1/2+x,1/2-y,1/2+z
loop_
_atom_site_type_symbol
_atom_site_label
_atom_site_fract_x
_atom_site_fract_y
_atom_site_fract_z
Si Si1 0.624672 0.099728 0.572724
Si Si2 0.793352 0.941969 0.950123
Si Si3 0.742617 0.309278 0.986704
Si Si4 0.792127 0.942053 0.196034
Si Si5 0.608734 0.596636 0.669939
Si Si6 0.467648 0.308889 0.402151
O O1 0.734713 0.080486 0.516823
O O2 0.465486 0.074011 0.559461
O O3 0.630305 0.159665 0.560183
O O4 0.688141 0.083221 0.641795
O O5 0.706598 0.920424 0.889368
O O6 0.750000 0.000000 0.952374
O O7 0.898938 0.321145 0.952045
O O8 0.750000 0.250000 0.000000
O O9 0.681628 0.321175 0.057325
O O10 0.801891 0.913147 0.264099
O O11 0.961846 0.937595 0.171900
O O12 0.750000 0.000000 0.204605
O O13 0.546187 0.652533 0.656356
O O14 0.500000 0.250000 0.386622
#
# Coordination Sequence:
#
# PCOD9510936 Si02
#       6
#    16  16  16  16  16  16
#     4  12  22  39  64  92 132 169 217 273 333 396
#     4  12  24  38  62  94 129 167 215 271 331 397
#     4  10  20  36  63  95 129 164 212 269 333 393
#     4  11  24  42  63  87 126 175 221 268 329 397
#     4  11  23  42  64  89 131 168 219 275 327 402
#     4  10  20  38  65  97 130 168 218 270 338 399
#
# _framework density 9.4062319999999993
#
# number of rings (size 3 to 8) (size 9 to 14) (size 15 to 20)
#    0.000    1.000    3.333    4.500    0.000    2.000 
#    0.000    1.667    0.000    0.000    0.000    0.000 
#    0.000    0.000    0.000    0.000    0.000    0.000 
#
# Total GULP energy -267258.554431 kJ/mol
# GULP energy per Si atom -5567.886551 kJ/mol
# Density = 0.938482 g / cm^3
# Si number density = 9.406232 Si / 1000 Ang^3
#
#
#
# Elastic Constant Matrix: (Units=GPa)
#
#
# Indices 1 2 3 4 5 6 
#
# 1 95.0054 43.1110 45.1149 0.0000 0.0000 0.0000
# 2 43.1110 153.6358 63.6901 0.0000 0.0000 0.0000
# 3 45.1149 63.6901 129.5754 0.0000 0.0000 0.0000
# 4 0.0000 0.0000 0.0000 37.5744 0.0000 0.0000
# 5 0.0000 0.0000 0.0000 0.0000 42.5037 0.0000
# 6 0.0000 0.0000 0.0000 0.0000 0.0000 35.2869
#
#
#
# Elastic Compliance Matrix: (Units=1/GPa)
#
#
# Indices 1 2 3 4 5 6 
#
# 1 0.013207 -0.002260 -0.003487 0.000000 0.000000 0.000000
# 2 -0.002260 0.008561 -0.003421 0.000000 0.000000 0.000000
# 3 -0.003487 -0.003421 0.010613 0.000000 0.000000 0.000000
# 4 0.000000 0.000000 0.000000 0.026614 0.000000 0.000000
# 5 0.000000 0.000000 0.000000 0.000000 0.023527 0.000000
# 6 0.000000 0.000000 0.000000 0.000000 0.000000 0.028339
#
#
# Mechanical properties :
#
#
# Convention : Reuss Voigt Hill
#
# Bulk Modulus (GPa) = 71.20355 75.78319 73.49337
# Shear Modulus (GPa) = 37.34629 38.15972 37.75301
#
# Velocity S-wave (km/s) = 4.46038 4.50869 4.48460
# Velocity P-wave (km/s) = 8.02857 8.21434 8.12199
#
# Compressibility (1/GPa) = 0.01404424
#
# Stress axis : x y z
#
# Youngs Moduli (GPa) = 75.71458 116.80298 94.22062
#
# Poissons Ratio (x) = 0.26401 0.32859
# Poissons Ratio (y) = 0.17114 0.32235
# Poissons Ratio (z) = 0.26405 0.39961
#
# Static dielectric constant tensor:
#      x y z
#    x 1.685940 0.000000 0.000000 
#    y 0.000000 1.762040 0.000000 
#    z 0.000000 0.000000 1.646910 
# 
# From -- ./inp_files/36487.got.cif
#   From: 2010.05.17/outbox.ucp.g08.bks.cvg/sg68_19_cif.got.tgz:36487.got - 2010.06.11 16:49:25.
