data_PCOD9510134
_publ_section_title
;
Structure prediction by ZEFSAII (Michael W. Deem and Ramdas Pophale) SiO2 
 PCOD9510134
Probable space group: C C C A
;
_chemical_formula_sum "Si O2"
_cell_formula_units_Z 112
_cell_length_a 22.329715
_cell_length_b 19.311749
_cell_length_c 11.235689
_cell_angle_alpha 90.000000
_cell_angle_beta 90.000000
_cell_angle_gamma 90.000000
_cell_volume 4845.119554
_symmetry_space_group_name_H-M "C C C A"
_symmetry_group_IT_number 68
_space_group.IT_coordinate_system_code '2'
_symmetry_cell_setting 'orthorhombic'
loop_
_space_group_symop_operation_xyz
x,y,z
-x,1/2-y,z
x,1/2-y,1/2-z
-x,y,1/2-z
-x,-y,-z
x,1/2+y,-z
-x,1/2+y,1/2+z
x,-y,1/2+z
1/2+x,1/2+y,z
1/2-x,-y,z
1/2+x,-y,1/2-z
1/2-x,1/2+y,1/2-z
1/2-x,1/2-y,-z
1/2+x,y,-z
1/2-x,y,1/2+z
1/2+x,1/2-y,1/2+z
loop_
_atom_site_type_symbol
_atom_site_label
_atom_site_fract_x
_atom_site_fract_y
_atom_site_fract_z
Si Si1 0.566933 0.849521 0.404024
Si Si2 0.408084 0.686480 0.837077
Si Si3 0.393482 0.917153 0.850064
Si Si4 0.251927 0.611855 0.675556
Si Si5 0.565646 0.192117 0.586240
Si Si6 0.872559 0.568179 0.801737
Si Si7 0.728185 0.817750 0.926742
O O1 0.582768 0.875141 0.536373
O O2 0.497300 0.839447 0.371024
O O3 0.587254 0.769513 0.381221
O O4 0.599094 0.906031 0.321515
O O5 0.413436 0.750000 0.750000
O O6 0.421007 0.616215 0.768169
O O7 0.341345 0.689443 0.892517
O O8 0.449463 0.696072 0.948131
O O9 0.322361 0.904034 0.829602
O O10 0.402050 0.999246 0.853710
O O11 0.198849 0.558426 0.706307
O O12 0.244976 0.663834 0.793744
O O13 0.239608 0.628258 0.534380
O O14 0.614439 0.135109 0.617359
O O15 0.750000 0.750000 0.000000
#
# Coordination Sequence:
#
# PCOD9510134 Si02
#       7
#    16  16  16  16  16  16  16
#     4  11  26  49  74 102 143 187 245 299 364 433
#     4  11  22  44  70 102 140 181 245 297 364 433
#     4  11  26  45  68 106 145 188 235 299 361 440
#     4  11  24  41  67 101 148 191 239 288 373 440
#     4  11  25  48  75 103 135 190 243 301 364 430
#     4  12  26  44  73 105 144 190 239 300 364 436
#     4  11  22  37  65 104 138 189 237 303 354 428
#
# _framework density 23.116046000000001
#
# number of rings (size 3 to 8) (size 9 to 14) (size 15 to 20)
#    0.000    0.857    2.857    4.286    4.000    3.429 
#    2.571    2.857    0.000    0.000    0.000    0.000 
#    0.000    0.000    0.000    0.000    0.000    0.000 
#
# Total GULP energy -312079.448661 kJ/mol
# GULP energy per Si atom -5572.847298 kJ/mol
# Density = 2.306343 g / cm^3
# Si number density = 23.116046 Si / 1000 Ang^3
#
#
#
# Elastic Constant Matrix: (Units=GPa)
#
#
# Indices 1 2 3 4 5 6 
#
# 1 61.2936 15.3724 20.9589 0.0000 0.0000 0.0000
# 2 15.3724 88.6767 24.3949 0.0000 0.0000 0.0000
# 3 20.9589 24.3949 156.2233 0.0000 0.0000 0.0000
# 4 0.0000 0.0000 0.0000 16.4186 0.0000 0.0000
# 5 0.0000 0.0000 0.0000 0.0000 -202.9645 0.0000
# 6 0.0000 0.0000 0.0000 0.0000 0.0000 22.7732
#
#
#
# Elastic Compliance Matrix: (Units=1/GPa)
#
#
# Indices 1 2 3 4 5 6 
#
# 1 0.017619 -0.002512 -0.001972 0.000000 0.000000 0.000000
# 2 -0.002512 0.012141 -0.001559 0.000000 0.000000 0.000000
# 3 -0.001972 -0.001559 0.006909 0.000000 0.000000 0.000000
# 4 0.000000 0.000000 0.000000 0.060907 0.000000 0.000000
# 5 0.000000 0.000000 0.000000 0.000000 -0.004927 0.000000
# 6 0.000000 0.000000 0.000000 0.000000 0.000000 0.043911
#
#
# Mechanical properties :
#
#
# Convention : Reuss Voigt Hill
#
# Bulk Modulus (GPa) = 40.67594 47.51623 44.09608
# Shear Modulus (GPa) = 31.87965 -16.39006 7.74479
#
# Velocity S-wave (km/s) = 3.71767 -2.66566 1.83239
# Velocity P-wave (km/s) = 6.00522 3.33554 4.85739
#
# Compressibility (1/GPa) = 0.02458456
#
# Stress axis : x y z
#
# Youngs Moduli (GPa) = 56.75672 82.36395 144.73831
#
# Poissons Ratio (x) = 0.20689 0.28535
# Poissons Ratio (y) = 0.14257 0.22563
# Poissons Ratio (z) = 0.11190 0.12840
#
# Static dielectric constant tensor:
#      x y z
#    x 1.934150 0.000000 0.000000 
#    y 0.000000 1.958630 0.000000 
#    z 0.000000 0.000000 2.015430 
# 
# From -- ./inp_files/16571.got.cif
#   From: 2010.05.17/outbox.cif.g08.bks.cpg/sg68_9_cif.got.tgz:16571.got - 2010.06.03 18:57:09.
