data_PCOD9510516
_publ_section_title
;
Structure prediction by ZEFSAII (Michael W. Deem and Ramdas Pophale) SiO2 
 PCOD9510516
Probable space group: C C C A
;
_chemical_formula_sum "Si O2"
_cell_formula_units_Z 64
_cell_length_a 9.944154
_cell_length_b 18.839505
_cell_length_c 17.189686
_cell_angle_alpha 90.000000
_cell_angle_beta 90.000000
_cell_angle_gamma 90.000000
_cell_volume 3220.366296
_symmetry_space_group_name_H-M "C C C A"
_symmetry_group_IT_number 68
_space_group.IT_coordinate_system_code '2'
_symmetry_cell_setting 'orthorhombic'
loop_
_space_group_symop_operation_xyz
x,y,z
-x,1/2-y,z
x,1/2-y,1/2-z
-x,y,1/2-z
-x,-y,-z
x,1/2+y,-z
-x,1/2+y,1/2+z
x,-y,1/2+z
1/2+x,1/2+y,z
1/2-x,-y,z
1/2+x,-y,1/2-z
1/2-x,1/2+y,1/2-z
1/2-x,1/2-y,-z
1/2+x,y,-z
1/2-x,y,1/2+z
1/2+x,1/2-y,1/2+z
loop_
_atom_site_type_symbol
_atom_site_label
_atom_site_fract_x
_atom_site_fract_y
_atom_site_fract_z
Si Si1 0.149050 0.939706 0.783545
Si Si2 0.876852 0.954471 0.531572
Si Si3 0.865924 0.201587 0.960323
Si Si4 0.144849 0.669892 0.278648
O O1 0.132217 0.951489 0.875290
O O2 0.230754 0.869310 0.761368
O O3 0.000000 0.941200 0.750000
O O4 0.250000 0.000000 0.751766
O O5 0.881624 0.872858 0.505010
O O6 0.750000 0.000000 0.502541
O O7 0.000000 0.000000 0.500000
O O8 0.841019 0.176140 0.871519
O O9 0.000000 0.250000 0.960490
O O10 0.750000 0.250000 0.000000
O O11 0.144127 0.750000 0.250000
O O12 0.000000 0.638186 0.250000
#
# Coordination Sequence:
#
# PCOD9510516 Si02
#       4
#    16  16  16  16
#     4  11  27  45  71 103 139 182 238 291 354 428
#     4  11  27  45  70 102 142 181 231 291 353 419
#     4  12  26  45  75 103 141 188 238 293 356 427
#     4  11  24  46  72  99 141 189 232 289 358 427
#
# _framework density 19.873515999999999
#
# number of rings (size 3 to 8) (size 9 to 14) (size 15 to 20)
#    0.000    0.750    2.500    3.750   17.500    0.500 
#    0.000    0.000    0.000    0.000    0.000    0.000 
#    0.000    0.000    0.000    0.000    0.000    0.000 
#
# Total GULP energy -178756.000180 kJ/mol
# GULP energy per Si atom -5586.125006 kJ/mol
# Density = 1.982828 g / cm^3
# Si number density = 19.873516 Si / 1000 Ang^3
#
#
#
# Elastic Constant Matrix: (Units=GPa)
#
#
# Indices 1 2 3 4 5 6 
#
# 1 200.2332 77.1521 65.3692 0.0000 0.0000 0.0000
# 2 77.1521 129.9046 24.4487 0.0000 0.0000 0.0000
# 3 65.3692 24.4487 101.0779 0.0000 0.0000 0.0000
# 4 0.0000 0.0000 0.0000 41.9286 0.0000 0.0000
# 5 0.0000 0.0000 0.0000 0.0000 35.5860 0.0000
# 6 0.0000 0.0000 0.0000 0.0000 0.0000 57.2259
#
#
#
# Elastic Compliance Matrix: (Units=1/GPa)
#
#
# Indices 1 2 3 4 5 6 
#
# 1 0.007836 -0.003877 -0.004130 0.000000 0.000000 0.000000
# 2 -0.003877 0.009983 0.000092 0.000000 0.000000 0.000000
# 3 -0.004130 0.000092 0.012542 0.000000 0.000000 0.000000
# 4 0.000000 0.000000 0.000000 0.023850 0.000000 0.000000
# 5 0.000000 0.000000 0.000000 0.000000 0.028101 0.000000
# 6 0.000000 0.000000 0.000000 0.000000 0.000000 0.017475
#
#
# Mechanical properties :
#
#
# Convention : Reuss Voigt Hill
#
# Bulk Modulus (GPa) = 68.81148 85.01729 76.91438
# Shear Modulus (GPa) = 41.50755 44.56449 43.03602
#
# Velocity S-wave (km/s) = 4.57506 4.74054 4.65854
# Velocity P-wave (km/s) = 7.91253 8.53438 8.22933
#
# Compressibility (1/GPa) = 0.01453246
#
# Stress axis : x y z
#
# Youngs Moduli (GPa) = 127.61132 100.17026 79.73174
#
# Poissons Ratio (x) = 0.38834 0.32931
# Poissons Ratio (y) = 0.49472 -0.00737
# Poissons Ratio (z) = 0.52706 -0.00926
#
# Static dielectric constant tensor:
#      x y z
#    x 1.662690 0.000000 0.000000 
#    y 0.000000 1.677730 0.000000 
#    z 0.000000 0.000000 1.816190 
# 
# From -- ./inp_files/27845.got.cif
#   From: 2010.05.17/outbox.cif.g08.bks.cpg/sg68_14_cif.got.tgz:27845.got - 2010.06.03 18:57:09.
