data_PCOD9510137
_publ_section_title
;
Structure prediction by ZEFSAII (Michael W. Deem and Ramdas Pophale) SiO2 
 PCOD9510137
Probable space group: C C C A
;
_chemical_formula_sum "Si O2"
_cell_formula_units_Z 88
_cell_length_a 11.765141
_cell_length_b 23.369717
_cell_length_c 18.713227
_cell_angle_alpha 90.000000
_cell_angle_beta 90.000000
_cell_angle_gamma 90.000000
_cell_volume 5145.164630
_symmetry_space_group_name_H-M "C C C A"
_symmetry_group_IT_number 68
_space_group.IT_coordinate_system_code '2'
_symmetry_cell_setting 'orthorhombic'
loop_
_space_group_symop_operation_xyz
x,y,z
-x,1/2-y,z
x,1/2-y,1/2-z
-x,y,1/2-z
-x,-y,-z
x,1/2+y,-z
-x,1/2+y,1/2+z
x,-y,1/2+z
1/2+x,1/2+y,z
1/2-x,-y,z
1/2+x,-y,1/2-z
1/2-x,1/2+y,1/2-z
1/2-x,1/2-y,-z
1/2+x,y,-z
1/2-x,y,1/2+z
1/2+x,1/2-y,1/2+z
loop_
_atom_site_type_symbol
_atom_site_label
_atom_site_fract_x
_atom_site_fract_y
_atom_site_fract_z
Si Si1 0.369484 0.583025 0.259913
Si Si2 0.626168 0.522078 0.087155
Si Si3 0.191977 0.814502 0.243420
Si Si4 0.497334 0.814430 0.868625
Si Si5 0.563653 0.430535 0.437950
Si Si6 0.250000 0.500000 0.148971
O O1 0.500000 0.600029 0.250000
O O2 0.361097 0.554477 0.338072
O O3 0.285151 0.636474 0.252364
O O4 0.332603 0.536448 0.200515
O O5 0.750000 0.500000 0.065691
O O6 0.540119 0.468837 0.091962
O O7 0.577437 0.559826 0.022381
O O8 0.239497 0.750000 0.250000
O O9 0.117741 0.822718 0.171433
O O10 0.099064 0.817325 0.306925
O O11 0.500000 0.750000 0.898766
O O12 0.465162 0.865237 0.921086
O O13 0.675092 0.456333 0.398520
#
# Coordination Sequence:
#
# PCOD9510137 Si02
#       6
#    16  16  16  16  16   8
#     4  12  23  35  57  86 114 151 194 233 292 354
#     4  11  23  36  55  85 118 151 186 233 301 349
#     4   9  19  35  58  85 110 144 191 247 287 329
#     4   9  18  35  62  85 106 145 198 242 279 328
#     4  11  22  38  58  83 118 153 186 239 294 348
#     4  12  22  36  60  86 114 148 190 242 294 344
#
# _framework density 17.103437
#
# number of rings (size 3 to 8) (size 9 to 14) (size 15 to 20)
#    0.000    1.455    5.455    2.182    0.000    0.364 
#    0.000    0.000    4.000    3.273    0.000    0.000 
#    0.000    0.000    0.000    0.000    0.000    0.000 
#
# Total GULP energy -245504.289737 kJ/mol
# GULP energy per Si atom -5579.642949 kJ/mol
# Density = 1.706451 g / cm^3
# Si number density = 17.103437 Si / 1000 Ang^3
#
#
#
# Elastic Constant Matrix: (Units=GPa)
#
#
# Indices 1 2 3 4 5 6 
#
# 1 84.0954 38.7447 0.0542 0.0000 0.0000 0.0000
# 2 38.7447 123.4924 34.6140 0.0000 0.0000 0.0000
# 3 0.0542 34.6140 45.2377 0.0000 0.0000 0.0000
# 4 0.0000 0.0000 0.0000 22.6290 0.0000 0.0000
# 5 0.0000 0.0000 0.0000 0.0000 11.2138 0.0000
# 6 0.0000 0.0000 0.0000 0.0000 0.0000 33.1727
#
#
#
# Elastic Compliance Matrix: (Units=1/GPa)
#
#
# Indices 1 2 3 4 5 6 
#
# 1 0.014566 -0.005811 0.004429 0.000000 0.000000 0.000000
# 2 -0.005811 0.012627 -0.009655 0.000000 0.000000 0.000000
# 3 0.004429 -0.009655 0.029488 0.000000 0.000000 0.000000
# 4 0.000000 0.000000 0.000000 0.044191 0.000000 0.000000
# 5 0.000000 0.000000 0.000000 0.000000 0.089176 0.000000
# 6 0.000000 0.000000 0.000000 0.000000 0.000000 0.030145
#
#
# Mechanical properties :
#
#
# Convention : Reuss Voigt Hill
#
# Bulk Modulus (GPa) = 28.89626 44.40570 36.65098
# Shear Modulus (GPa) = 19.70037 25.36394 22.53215
#
# Velocity S-wave (km/s) = 3.39755 3.85512 3.63355
# Velocity P-wave (km/s) = 5.68532 6.77018 6.25133
#
# Compressibility (1/GPa) = 0.03460655
#
# Stress axis : x y z
#
# Youngs Moduli (GPa) = 68.65382 79.19480 33.91262
#
# Poissons Ratio (x) = 0.46023 -0.15020
# Poissons Ratio (y) = 0.39897 0.32742
# Poissons Ratio (z) = -0.30408 0.76461
#
# Static dielectric constant tensor:
#      x y z
#    x 1.572760 0.000000 0.000000 
#    y 0.000000 1.569740 0.000000 
#    z 0.000000 0.000000 1.576270 
# 
# From -- ./inp_files/29669.got.cif
#   From: 2010.05.17/outbox.cif.g08.bks.cpg/sg68_15_cif.got.tgz:29669.got - 2010.06.03 18:57:09.
