data_PCOD9510087
_publ_section_title
;
Structure prediction by ZEFSAII (Michael W. Deem and Ramdas Pophale) SiO2 
 PCOD9510087
Probable space group: C C C A
;
_chemical_formula_sum "Si O2"
_cell_formula_units_Z 96
_cell_length_a 14.810257
_cell_length_b 21.647980
_cell_length_c 13.739593
_cell_angle_alpha 90.000000
_cell_angle_beta 90.000000
_cell_angle_gamma 90.000000
_cell_volume 4405.080415
_symmetry_space_group_name_H-M "C C C A"
_symmetry_group_IT_number 68
_space_group.IT_coordinate_system_code '2'
_symmetry_cell_setting 'orthorhombic'
loop_
_space_group_symop_operation_xyz
x,y,z
-x,1/2-y,z
x,1/2-y,1/2-z
-x,y,1/2-z
-x,-y,-z
x,1/2+y,-z
-x,1/2+y,1/2+z
x,-y,1/2+z
1/2+x,1/2+y,z
1/2-x,-y,z
1/2+x,-y,1/2-z
1/2-x,1/2+y,1/2-z
1/2-x,1/2-y,-z
1/2+x,y,-z
1/2-x,y,1/2+z
1/2+x,1/2-y,1/2+z
loop_
_atom_site_type_symbol
_atom_site_label
_atom_site_fract_x
_atom_site_fract_y
_atom_site_fract_z
Si Si1 0.833547 0.953639 0.903668
Si Si2 0.603771 0.872350 0.732630
Si Si3 0.906189 0.107393 0.219888
Si Si4 0.263493 0.196110 0.867747
Si Si5 0.139424 0.005672 0.889815
Si Si6 0.722223 0.833566 0.912079
O O1 0.886053 0.941996 0.805171
O O2 0.797376 0.885372 0.925911
O O3 0.750000 0.000000 0.886340
O O4 0.882895 0.976046 0.999835
O O5 0.500000 0.854821 0.750000
O O6 0.663988 0.830588 0.658755
O O7 0.610433 0.940540 0.684864
O O8 0.650686 0.864274 0.838368
O O9 0.829935 0.158044 0.202384
O O10 0.000000 0.137284 0.250000
O O11 0.903225 0.061151 0.129073
O O12 0.255104 0.269705 0.863920
O O13 0.301467 0.182702 0.976539
O O14 0.250000 0.000000 0.883457
#
# Coordination Sequence:
#
# PCOD9510087 Si02
#       6
#    16  16  16  16  16  16
#     4  11  22  40  70  95 132 182 229 287 359 418
#     4  12  24  41  73 105 136 178 238 295 353 420
#     4  12  25  41  67 101 139 185 235 289 354 430
#     4  11  24  45  66  96 140 184 233 286 359 431
#     4  11  21  42  68  99 139 178 232 286 352 429
#     4  11  23  43  71  92 135 187 225 293 362 415
#
# _framework density 21.793018
#
# number of rings (size 3 to 8) (size 9 to 14) (size 15 to 20)
#    0.000    0.667    5.000    3.500    0.000    3.333 
#    0.000    1.667    0.000    0.000    0.000    0.000 
#    0.000    0.000    0.000    0.000    0.000    0.000 
#
# Total GULP energy -268046.055005 kJ/mol
# GULP energy per Si atom -5584.292813 kJ/mol
# Density = 2.174342 g / cm^3
# Si number density = 21.793018 Si / 1000 Ang^3
#
#
#
# Elastic Constant Matrix: (Units=GPa)
#
#
# Indices 1 2 3 4 5 6 
#
# 1 84.8120 34.9577 42.5273 0.0000 0.0000 0.0000
# 2 34.9577 108.1130 22.7473 0.0000 0.0000 0.0000
# 3 42.5273 22.7473 129.3349 0.0000 0.0000 0.0000
# 4 0.0000 0.0000 0.0000 34.3974 0.0000 0.0000
# 5 0.0000 0.0000 0.0000 0.0000 1.4108 0.0000
# 6 0.0000 0.0000 0.0000 0.0000 0.0000 2.3796
#
#
#
# Elastic Compliance Matrix: (Units=1/GPa)
#
#
# Indices 1 2 3 4 5 6 
#
# 1 0.015729 -0.004151 -0.004442 0.000000 0.000000 0.000000
# 2 -0.004151 0.010701 -0.000517 0.000000 0.000000 0.000000
# 3 -0.004442 -0.000517 0.009283 0.000000 0.000000 0.000000
# 4 0.000000 0.000000 0.000000 0.029072 0.000000 0.000000
# 5 0.000000 0.000000 0.000000 0.000000 0.708801 0.000000
# 6 0.000000 0.000000 0.000000 0.000000 0.000000 0.420245
#
#
# Mechanical properties :
#
#
# Convention : Reuss Voigt Hill
#
# Bulk Modulus (GPa) = 57.16649 58.08053 57.62351
# Shear Modulus (GPa) = 4.10549 22.43940 13.27244
#
# Velocity S-wave (km/s) = 1.37402 3.21231 2.47052
# Velocity P-wave (km/s) = 5.36710 6.36140 5.88529
#
# Compressibility (1/GPa) = 0.01749276
#
# Stress axis : x y z
#
# Youngs Moduli (GPa) = 63.57618 93.45205 107.71981
#
# Poissons Ratio (x) = 0.38795 0.47848
# Poissons Ratio (y) = 0.26393 0.05569
# Poissons Ratio (z) = 0.28240 0.04831
#
# Static dielectric constant tensor:
#      x y z
#    x 1.822040 0.000000 0.000000 
#    y 0.000000 1.769870 0.000000 
#    z 0.000000 0.000000 1.935050 
# 
# From -- ./inp_files/22384.got.cif
#   From: 2010.05.17/outbox.cif.g08.bks.cpg/sg68_12_cif.got.tgz:22384.got - 2010.06.03 18:57:09.
