data_PCOD9510612
_publ_section_title
;
Structure prediction by ZEFSAII (Michael W. Deem and Ramdas Pophale) SiO2 
 PCOD9510612
Probable space group: C C C A
;
_chemical_formula_sum "Si O2"
_cell_formula_units_Z 48
_cell_length_a 12.482783
_cell_length_b 10.055068
_cell_length_c 16.354379
_cell_angle_alpha 90.000000
_cell_angle_beta 90.000000
_cell_angle_gamma 90.000000
_cell_volume 2052.723673
_symmetry_space_group_name_H-M "C C C A"
_symmetry_group_IT_number 68
_space_group.IT_coordinate_system_code '2'
_symmetry_cell_setting 'orthorhombic'
loop_
_space_group_symop_operation_xyz
x,y,z
-x,1/2-y,z
x,1/2-y,1/2-z
-x,y,1/2-z
-x,-y,-z
x,1/2+y,-z
-x,1/2+y,1/2+z
x,-y,1/2+z
1/2+x,1/2+y,z
1/2-x,-y,z
1/2+x,-y,1/2-z
1/2-x,1/2+y,1/2-z
1/2-x,1/2-y,-z
1/2+x,y,-z
1/2-x,y,1/2+z
1/2+x,1/2-y,1/2+z
loop_
_atom_site_type_symbol
_atom_site_label
_atom_site_fract_x
_atom_site_fract_y
_atom_site_fract_z
Si Si1 0.750000 0.500000 0.160237
Si Si2 0.665512 0.250000 0.250000
Si Si3 0.638099 0.584177 0.908686
Si Si4 0.552451 0.878474 0.429128
O O1 0.733859 0.367294 0.211262
O O2 0.643959 0.531249 0.110404
O O3 0.613866 0.170828 0.172662
O O4 0.750000 0.500000 0.903945
O O5 0.549486 0.474395 0.928299
O O6 0.615006 0.674630 0.989170
O O7 0.500000 0.750000 0.386201
#
# Coordination Sequence:
#
# PCOD9510612 Si02
#       4
#     8   8  16  16
#     4  12  28  50  78 112 158 202 260 320 398 472
#     4  12  28  49  73 118 154 196 251 331 392 456
#     4  11  25  50  76 111 153 198 260 319 390 470
#     4  11  27  48  80 110 149 212 260 318 385 481
#
# _framework density 23.383565999999998
#
# number of rings (size 3 to 8) (size 9 to 14) (size 15 to 20)
#    0.000    0.667    3.333    2.000    9.333    5.333 
#    0.000    0.000    0.000    0.000    0.000    0.000 
#    0.000    0.000    0.000    0.000    0.000    0.000 
#
# Total GULP energy -133635.358998 kJ/mol
# GULP energy per Si atom -5568.139958 kJ/mol
# Density = 2.333034 g / cm^3
# Si number density = 23.383566 Si / 1000 Ang^3
#
#
#
# Elastic Constant Matrix: (Units=GPa)
#
#
# Indices 1 2 3 4 5 6 
#
# 1 170.7213 44.3355 60.0183 0.0000 0.0000 0.0000
# 2 44.3355 114.9488 38.9154 0.0000 0.0000 0.0000
# 3 60.0183 38.9154 105.7732 0.0000 0.0000 0.0000
# 4 0.0000 0.0000 0.0000 31.4668 0.0000 0.0000
# 5 0.0000 0.0000 0.0000 0.0000 27.9724 0.0000
# 6 0.0000 0.0000 0.0000 0.0000 0.0000 -196.1154
#
#
#
# Elastic Compliance Matrix: (Units=1/GPa)
#
#
# Indices 1 2 3 4 5 6 
#
# 1 0.007590 -0.001679 -0.003689 0.000000 0.000000 0.000000
# 2 -0.001679 0.010308 -0.002840 0.000000 0.000000 0.000000
# 3 -0.003689 -0.002840 0.012593 0.000000 0.000000 0.000000
# 4 0.000000 0.000000 0.000000 0.031780 0.000000 0.000000
# 5 0.000000 0.000000 0.000000 0.000000 0.035750 0.000000
# 6 0.000000 0.000000 0.000000 0.000000 0.000000 -0.005099
#
#
# Mechanical properties :
#
#
# Convention : Reuss Voigt Hill
#
# Bulk Modulus (GPa) = 71.04707 75.33130 73.18919
# Shear Modulus (GPa) = 43.84824 -10.79029 16.52897
#
# Velocity S-wave (km/s) = 4.33503 -2.15046 2.66157
# Velocity P-wave (km/s) = 7.45023 5.11072 6.38848
#
# Compressibility (1/GPa) = 0.01407518
#
# Stress axis : x y z
#
# Youngs Moduli (GPa) = 131.74422 97.00759 79.41169
#
# Poissons Ratio (x) = 0.16284 0.29298
# Poissons Ratio (y) = 0.22114 0.22554
# Poissons Ratio (z) = 0.48606 0.27552
#
# Static dielectric constant tensor:
#      x y z
#    x 1.843340 0.000000 0.000000 
#    y 0.000000 2.232850 0.000000 
#    z 0.000000 0.000000 2.042680 
# 
# From -- ./inp_files/30305.got.cif
#   From: 2010.05.17/outbox.cif.g08.bks.cpg/sg68_16_cif.got.tgz:30305.got - 2010.06.03 18:57:09.
