data_PCOD9510501
_publ_section_title
;
Structure prediction by ZEFSAII (Michael W. Deem and Ramdas Pophale) SiO2 
 PCOD9510501
Probable space group: C C C A
;
_chemical_formula_sum "Si O2"
_cell_formula_units_Z 56
_cell_length_a 12.882660
_cell_length_b 15.338824
_cell_length_c 11.378351
_cell_angle_alpha 90.000000
_cell_angle_beta 90.000000
_cell_angle_gamma 90.000000
_cell_volume 2248.417393
_symmetry_space_group_name_H-M "C C C A"
_symmetry_group_IT_number 68
_space_group.IT_coordinate_system_code '2'
_symmetry_cell_setting 'orthorhombic'
loop_
_space_group_symop_operation_xyz
x,y,z
-x,1/2-y,z
x,1/2-y,1/2-z
-x,y,1/2-z
-x,-y,-z
x,1/2+y,-z
-x,1/2+y,1/2+z
x,-y,1/2+z
1/2+x,1/2+y,z
1/2-x,-y,z
1/2+x,-y,1/2-z
1/2-x,1/2+y,1/2-z
1/2-x,1/2-y,-z
1/2+x,y,-z
1/2-x,y,1/2+z
1/2+x,1/2-y,1/2+z
loop_
_atom_site_type_symbol
_atom_site_label
_atom_site_fract_x
_atom_site_fract_y
_atom_site_fract_z
Si Si1 0.474725 0.464196 0.627265
Si Si2 0.719716 0.680312 0.828546
Si Si3 0.750000 0.500000 0.808280
Si Si4 0.899287 0.698493 0.561285
O O1 0.500000 0.512991 0.750000
O O2 0.500000 0.500000 0.500000
O O3 0.349893 0.462520 0.623713
O O4 0.548849 0.378785 0.636668
O O5 0.659898 0.750000 0.750000
O O6 0.722480 0.592157 0.750156
O O7 0.823337 0.734741 0.869473
O O8 0.662879 0.660455 0.950735
O O9 0.000000 0.750000 0.517014
#
# Coordination Sequence:
#
# PCOD9510501 Si02
#       4
#    16  16   8  16
#     4  12  27  48  76 115 157 208 265 331 399 484
#     4  11  25  45  72 111 152 204 261 330 397 475
#     4  12  24  48  78 110 160 208 272 324 412 486
#     4  11  24  45  73 106 151 203 260 322 400 477
#
# _framework density 24.906407000000002
#
# number of rings (size 3 to 8) (size 9 to 14) (size 15 to 20)
#    0.000    0.571    5.714    1.714    0.000    4.000 
#    0.000    0.000    0.000    0.000    0.000    0.000 
#    0.000    0.000    0.000    0.000    0.000    0.000 
#
# Total GULP energy -155936.061497 kJ/mol
# GULP energy per Si atom -5569.145053 kJ/mol
# Density = 2.484972 g / cm^3
# Si number density = 24.906407 Si / 1000 Ang^3
#
#
#
# Elastic Constant Matrix: (Units=GPa)
#
#
# Indices 1 2 3 4 5 6 
#
# 1 140.8382 1.0692 31.7201 0.0000 0.0000 0.0000
# 2 1.0692 160.7065 22.5380 0.0000 0.0000 0.0000
# 3 31.7201 22.5380 115.2738 0.0000 0.0000 0.0000
# 4 0.0000 0.0000 0.0000 27.1822 0.0000 0.0000
# 5 0.0000 0.0000 0.0000 0.0000 12.1691 0.0000
# 6 0.0000 0.0000 0.0000 0.0000 0.0000 36.3813
#
#
#
# Elastic Compliance Matrix: (Units=1/GPa)
#
#
# Indices 1 2 3 4 5 6 
#
# 1 0.007579 0.000249 -0.002134 0.000000 0.000000 0.000000
# 2 0.000249 0.006406 -0.001321 0.000000 0.000000 0.000000
# 3 -0.002134 -0.001321 0.009521 0.000000 0.000000 0.000000
# 4 0.000000 0.000000 0.000000 0.036789 0.000000 0.000000
# 5 0.000000 0.000000 0.000000 0.000000 0.082176 0.000000
# 6 0.000000 0.000000 0.000000 0.000000 0.000000 0.027487
#
#
# Mechanical properties :
#
#
# Convention : Reuss Voigt Hill
#
# Bulk Modulus (GPa) = 58.50296 58.60811 58.55554
# Shear Modulus (GPa) = 27.46238 39.24591 33.35415
#
# Velocity S-wave (km/s) = 3.32418 3.97386 3.66345
# Velocity P-wave (km/s) = 6.18657 6.68116 6.43861
#
# Compressibility (1/GPa) = 0.01709315
#
# Stress axis : x y z
#
# Youngs Moduli (GPa) = 131.94117 156.10053 105.03589
#
# Poissons Ratio (x) = -0.03885 0.22417
# Poissons Ratio (y) = -0.03284 0.13875
# Poissons Ratio (z) = 0.28159 0.20621
#
# Static dielectric constant tensor:
#      x y z
#    x 1.734910 0.000000 0.000000 
#    y 0.000000 2.109010 0.000000 
#    z 0.000000 0.000000 1.934460 
# 
# From -- ./inp_files/12510.got.cif
#   From: 2010.05.17/outbox.cif.g08.bks.cpg/sg68_7_cif.got.tgz:12510.got - 2010.06.03 18:57:09.
