data_PCOD9510947
_publ_section_title
;
Structure prediction by ZEFSAII (Michael W. Deem and Ramdas Pophale) SiO2 
 PCOD9510947
Probable space group: C C C A
;
_chemical_formula_sum "Si O2"
_cell_formula_units_Z 34
_cell_length_a 9.000000
_cell_length_b 21.000000
_cell_length_c 18.000000
_cell_angle_alpha 90.000000
_cell_angle_beta 90.000000
_cell_angle_gamma 90.000000
_cell_volume 3402.000000
_symmetry_space_group_name_H-M "C C C A"
_symmetry_group_IT_number 68
_space_group.IT_coordinate_system_code '2'
_symmetry_cell_setting 'orthorhombic'
loop_
_space_group_symop_operation_xyz
x,y,z
-x,1/2-y,z
x,1/2-y,1/2-z
-x,y,1/2-z
-x,-y,-z
x,1/2+y,-z
-x,1/2+y,1/2+z
x,-y,1/2+z
1/2+x,1/2+y,z
1/2-x,-y,z
1/2+x,-y,1/2-z
1/2-x,1/2+y,1/2-z
1/2-x,1/2-y,-z
1/2+x,y,-z
1/2-x,y,1/2+z
1/2+x,1/2-y,1/2+z
loop_
_atom_site_type_symbol
_atom_site_label
_atom_site_fract_x
_atom_site_fract_y
_atom_site_fract_z
Si Si1 0.711188 0.661588 0.888289
Si Si2 0.737075 0.189188 0.853218
Si Si3 0.500000 0.750000 0.250000
Si Si4 0.515132 0.174548 0.980482
Si Si5 0.173018 0.070731 0.746521
O O1 0.697216 0.737596 0.863186
O O2 0.718492 0.611269 0.820809
O O3 0.865075 0.655781 0.936233
O O4 0.567421 0.647479 0.940196
O O5 0.599780 0.205542 0.799994
O O6 0.661248 0.167722 0.929444
O O7 0.811665 0.127128 0.816262
O O8 0.500000 0.250000 0.991669
O O9 0.000000 0.055585 0.750000
O O10 0.250000 0.000000 0.738023
#
# Coordination Sequence:
#
# PCOD9510947 Si02
#       5
#    16  16   4  16  16
#     4  11  23  42  69 107 135 173 220 279 341 406
#     4  11  20  40  70 100 135 174 223 283 341 397
#     4  12  16  36  70 100 132 180 206 288 336 408
#     4  10  21  37  69 102 141 170 211 277 335 409
#     4  12  30  46  68  96 136 184 236 285 333 403
#
# _framework density 9.9941209999999998
#
# number of rings (size 3 to 8) (size 9 to 14) (size 15 to 20)
#    0.000    0.941    5.882    2.824   11.529    0.941 
#    0.000    2.353    0.000    0.000    0.000    0.000 
#    0.000    0.000    0.000    0.000    0.000    0.000 
#
# Total GULP energy -189389.228023 kJ/mol
# GULP energy per Si atom -5570.271412 kJ/mol
# Density = 0.997137 g / cm^3
# Si number density = 9.994121 Si / 1000 Ang^3
#
#
#
# Elastic Constant Matrix: (Units=GPa)
#
#
# Indices 1 2 3 4 5 6 
#
# 1 82.1499 45.8966 19.5859 0.0000 0.0000 0.0000
# 2 45.8966 127.9382 36.4570 0.0000 0.0000 0.0000
# 3 19.5859 36.4570 97.1558 0.0000 0.0000 0.0000
# 4 0.0000 0.0000 0.0000 19.9208 0.0000 0.0000
# 5 0.0000 0.0000 0.0000 0.0000 52.0677 0.0000
# 6 0.0000 0.0000 0.0000 0.0000 0.0000 38.5501
#
#
#
# Elastic Compliance Matrix: (Units=1/GPa)
#
#
# Indices 1 2 3 4 5 6 
#
# 1 0.015338 -0.005175 -0.001150 0.000000 0.000000 0.000000
# 2 -0.005175 0.010498 -0.002896 0.000000 0.000000 0.000000
# 3 -0.001150 -0.002896 0.011611 0.000000 0.000000 0.000000
# 4 0.000000 0.000000 0.000000 0.050199 0.000000 0.000000
# 5 0.000000 0.000000 0.000000 0.000000 0.019206 0.000000
# 6 0.000000 0.000000 0.000000 0.000000 0.000000 0.025940
#
#
# Mechanical properties :
#
#
# Convention : Reuss Voigt Hill
#
# Bulk Modulus (GPa) = 52.61676 56.79143 54.70410
# Shear Modulus (GPa) = 31.73206 35.79467 33.76337
#
# Velocity S-wave (km/s) = 3.98871 4.23636 4.11440
# Velocity P-wave (km/s) = 6.89885 7.23900 7.07097
#
# Compressibility (1/GPa) = 0.01900535
#
# Stress axis : x y z
#
# Youngs Moduli (GPa) = 65.19694 95.25727 86.12238
#
# Poissons Ratio (x) = 0.49292 0.09907
# Poissons Ratio (y) = 0.33737 0.24942
# Poissons Ratio (z) = 0.07500 0.27587
#
# Static dielectric constant tensor:
#      x y z
#    x 1.789350 0.000000 0.000000 
#    y 0.000000 1.677990 0.000000 
#    z 0.000000 0.000000 1.863580 
# 
# From -- ./inp_files/27988.got.cif
#   From: 2010.05.17/outbox.ucp.g08.bks.cvg/sg68_14_cif.got.tgz:27988.got - 2010.06.11 16:49:25.
