data_PCOD9510027
_publ_section_title
;
Structure prediction by ZEFSAII (Michael W. Deem and Ramdas Pophale) SiO2 
 PCOD9510027
Probable space group: C C C A
;
_chemical_formula_sum "Si O2"
_cell_formula_units_Z 96
_cell_length_a 14.493348
_cell_length_b 22.154836
_cell_length_c 13.726813
_cell_angle_alpha 90.000000
_cell_angle_beta 90.000000
_cell_angle_gamma 90.000000
_cell_volume 4407.648742
_symmetry_space_group_name_H-M "C C C A"
_symmetry_group_IT_number 68
_space_group.IT_coordinate_system_code '2'
_symmetry_cell_setting 'orthorhombic'
loop_
_space_group_symop_operation_xyz
x,y,z
-x,1/2-y,z
x,1/2-y,1/2-z
-x,y,1/2-z
-x,-y,-z
x,1/2+y,-z
-x,1/2+y,1/2+z
x,-y,1/2+z
1/2+x,1/2+y,z
1/2-x,-y,z
1/2+x,-y,1/2-z
1/2-x,1/2+y,1/2-z
1/2-x,1/2-y,-z
1/2+x,y,-z
1/2-x,y,1/2+z
1/2+x,1/2-y,1/2+z
loop_
_atom_site_type_symbol
_atom_site_label
_atom_site_fract_x
_atom_site_fract_y
_atom_site_fract_z
Si Si1 0.847020 0.023869 0.923755
Si Si2 0.267622 0.611798 0.766754
Si Si3 0.119316 0.222156 0.647570
Si Si4 0.400213 0.606235 0.385740
Si Si5 0.576769 0.855980 0.017743
Si Si6 0.715626 0.838764 0.563074
O O1 0.813184 0.056023 0.823748
O O2 0.898194 0.076240 0.982588
O O3 0.750000 0.000000 0.969567
O O4 0.908443 0.965285 0.905094
O O5 0.307508 0.671448 0.818839
O O6 0.157861 0.611692 0.786376
O O7 0.294677 0.616449 0.654878
O O8 0.088452 0.250000 0.750000
O O9 0.050374 0.185217 0.576561
O O10 0.168109 0.275981 0.589880
O O11 0.496052 0.639830 0.403633
O O12 0.331454 0.632511 0.468758
O O13 0.674823 0.830019 0.051522
#
# Coordination Sequence:
#
# PCOD9510027 Si02
#       6
#    16  16  16  16  16  16
#     4   9  17  40  58  81 124 160 201 262 306 374
#     4   9  20  39  62  86 123 168 207 259 312 382
#     4   9  19  39  63  88 124 165 203 259 312 380
#     4  11  22  38  61  90 124 161 211 261 318 374
#     4  11  21  36  65  90 122 160 209 261 321 376
#     4  11  21  39  64  87 124 169 210 252 326 379
#
# _framework density 21.78032
#
# number of rings (size 3 to 8) (size 9 to 14) (size 15 to 20)
#    0.000    2.000    5.000    1.000    0.000    1.333 
#    9.000   10.000    7.333    3.000    0.000    0.000 
#    0.000    0.000    0.000    0.000    0.000    0.000 
#
# Total GULP energy -267952.695754 kJ/mol
# GULP energy per Si atom -5582.347828 kJ/mol
# Density = 2.173075 g / cm^3
# Si number density = 21.780320 Si / 1000 Ang^3
#
#
#
# Elastic Constant Matrix: (Units=GPa)
#
#
# Indices 1 2 3 4 5 6 
#
# 1 93.4266 26.7988 5.6211 0.0000 0.0000 0.0000
# 2 26.7988 106.5243 17.5748 0.0000 0.0000 0.0000
# 3 5.6211 17.5748 43.9450 0.0000 0.0000 0.0000
# 4 0.0000 0.0000 0.0000 23.9021 0.0000 0.0000
# 5 0.0000 0.0000 0.0000 0.0000 4.3603 0.0000
# 6 0.0000 0.0000 0.0000 0.0000 0.0000 -9.0063
#
#
#
# Elastic Compliance Matrix: (Units=1/GPa)
#
#
# Indices 1 2 3 4 5 6 
#
# 1 0.011541 -0.002848 -0.000337 0.000000 0.000000 0.000000
# 2 -0.002848 0.010753 -0.003936 0.000000 0.000000 0.000000
# 3 -0.000337 -0.003936 0.024373 0.000000 0.000000 0.000000
# 4 0.000000 0.000000 0.000000 0.041837 0.000000 0.000000
# 5 0.000000 0.000000 0.000000 0.000000 0.229342 0.000000
# 6 0.000000 0.000000 0.000000 0.000000 0.000000 -0.111033
#
#
# Mechanical properties :
#
#
# Convention : Reuss Voigt Hill
#
# Bulk Modulus (GPa) = 30.84085 38.20946 34.52515
# Shear Modulus (GPa) = 21.56428 16.77797 19.17113
#
# Velocity S-wave (km/s) = 3.14997 2.77849 2.97004
# Velocity P-wave (km/s) = 5.23645 5.27963 5.25809
#
# Compressibility (1/GPa) = 0.03242453
#
# Stress axis : x y z
#
# Youngs Moduli (GPa) = 86.64967 92.99416 41.02887
#
# Poissons Ratio (x) = 0.26482 0.01384
# Poissons Ratio (y) = 0.24675 0.16150
# Poissons Ratio (z) = 0.02923 0.36605
#
# Static dielectric constant tensor:
#      x y z
#    x 1.837090 0.000000 0.000000 
#    y 0.000000 1.790520 0.000000 
#    z 0.000000 0.000000 1.818130 
# 
# From -- ./inp_files/22364.got.cif
#   From: 2010.05.17/outbox.cif.g08.bks.cpg/sg68_12_cif.got.tgz:22364.got - 2010.06.03 18:57:09.
