data_PCOD9510952
_publ_section_title
;
Structure prediction by ZEFSAII (Michael W. Deem and Ramdas Pophale) SiO2 
 PCOD9510952
Probable space group: C C C A
;
_chemical_formula_sum "Si O2"
_cell_formula_units_Z 44
_cell_length_a 15.000000
_cell_length_b 27.000000
_cell_length_c 12.000000
_cell_angle_alpha 90.000000
_cell_angle_beta 90.000000
_cell_angle_gamma 90.000000
_cell_volume 4860.000000
_symmetry_space_group_name_H-M "C C C A"
_symmetry_group_IT_number 68
_space_group.IT_coordinate_system_code '2'
_symmetry_cell_setting 'orthorhombic'
loop_
_space_group_symop_operation_xyz
x,y,z
-x,1/2-y,z
x,1/2-y,1/2-z
-x,y,1/2-z
-x,-y,-z
x,1/2+y,-z
-x,1/2+y,1/2+z
x,-y,1/2+z
1/2+x,1/2+y,z
1/2-x,-y,z
1/2+x,-y,1/2-z
1/2-x,1/2+y,1/2-z
1/2-x,1/2-y,-z
1/2+x,y,-z
1/2-x,y,1/2+z
1/2+x,1/2-y,1/2+z
loop_
_atom_site_type_symbol
_atom_site_label
_atom_site_fract_x
_atom_site_fract_y
_atom_site_fract_z
Si Si1 0.961137 0.666806 0.125024
Si Si2 0.000000 0.501502 0.250000
Si Si3 0.772252 0.354942 0.729185
Si Si4 0.103093 0.916859 0.396791
Si Si5 0.000000 0.750000 0.938840
Si Si6 0.843997 0.250000 0.250000
Si Si7 0.175005 0.454155 0.367650
O O1 0.855286 0.657939 0.145520
O O2 0.000000 0.680659 0.250000
O O3 0.015898 0.617977 0.087963
O O4 0.981615 0.705355 0.026220
O O5 0.060932 0.537847 0.173721
O O6 0.079064 0.470405 0.312654
O O7 0.825620 0.380697 0.833422
O O8 0.716273 0.302379 0.750675
O O9 0.713466 0.402057 0.684355
O O10 0.150077 0.939943 0.505131
O O11 0.912441 0.753621 0.856948
O O12 0.250000 0.500000 0.359786
#
# Coordination Sequence:
#
# PCOD9510952 Si02
#       7
#    16   8  16  16   8   8  16
#     4  10  22  43  69  96 137 183 239 289 350 418
#     4  12  24  48  66 104 146 180 234 302 352 428
#     4  11  25  45  70 104 143 181 239 288 351 436
#     4  11  23  45  66 102 139 181 236 290 354 426
#     4  11  25  44  70  98 143 185 238 294 362 421
#     4  11  28  46  67 108 146 184 231 298 364 429
#     4  12  26  43  74 104 139 194 236 295 362 423
#
# _framework density 9.0534979999999994
#
# number of rings (size 3 to 8) (size 9 to 14) (size 15 to 20)
#    0.000    0.909    4.545    1.909   10.182    3.636 
#    0.000    0.000    0.000    0.000    0.000    0.000 
#    0.000    0.000    0.000    0.000    0.000    0.000 
#
# Total GULP energy -245038.700578 kJ/mol
# GULP energy per Si atom -5569.061377 kJ/mol
# Density = 0.903289 g / cm^3
# Si number density = 9.053498 Si / 1000 Ang^3
#
#
#
# Elastic Constant Matrix: (Units=GPa)
#
#
# Indices 1 2 3 4 5 6 
#
# 1 157.0875 80.3342 55.3898 0.0000 0.0000 0.0000
# 2 80.3342 163.4069 63.7627 0.0000 0.0000 0.0000
# 3 55.3898 63.7627 103.7910 0.0000 0.0000 0.0000
# 4 0.0000 0.0000 0.0000 42.2152 0.0000 0.0000
# 5 0.0000 0.0000 0.0000 0.0000 38.6318 0.0000
# 6 0.0000 0.0000 0.0000 0.0000 0.0000 51.7865
#
#
#
# Elastic Compliance Matrix: (Units=1/GPa)
#
#
# Indices 1 2 3 4 5 6 
#
# 1 0.009069 -0.003380 -0.002763 0.000000 0.000000 0.000000
# 2 -0.003380 0.009309 -0.003915 0.000000 0.000000 0.000000
# 3 -0.002763 -0.003915 0.013514 0.000000 0.000000 0.000000
# 4 0.000000 0.000000 0.000000 0.023688 0.000000 0.000000
# 5 0.000000 0.000000 0.000000 0.000000 0.025885 0.000000
# 6 0.000000 0.000000 0.000000 0.000000 0.000000 0.019310
#
#
# Mechanical properties :
#
#
# Convention : Reuss Voigt Hill
#
# Bulk Modulus (GPa) = 84.92086 91.47320 88.19703
# Shear Modulus (GPa) = 40.05830 41.51329 40.78579
#
# Velocity S-wave (km/s) = 4.70862 4.79337 4.75119
# Velocity P-wave (km/s) = 8.75002 9.01460 8.88330
#
# Compressibility (1/GPa) = 0.01177567
#
# Stress axis : x y z
#
# Youngs Moduli (GPa) = 110.26815 107.42103 73.99462
#
# Poissons Ratio (x) = 0.36311 0.20446
# Poissons Ratio (y) = 0.37273 0.28969
# Poissons Ratio (z) = 0.30468 0.42056
#
# Static dielectric constant tensor:
#      x y z
#    x 1.634650 0.000000 0.000000 
#    y 0.000000 1.650040 0.000000 
#    z 0.000000 0.000000 1.649980 
# 
# From -- ./inp_files/13476.got.cif
#   From: 2010.05.17/outbox.ucp.g08.bks.cvg/sg68_7_cif.got.tgz:13476.got - 2010.06.11 16:49:25.
