data_PCOD9510766
_publ_section_title
;
Structure prediction by ZEFSAII (Michael W. Deem and Ramdas Pophale) SiO2 
 PCOD9510766
Probable space group: C C C A
;
_chemical_formula_sum "Si O2"
_cell_formula_units_Z 64
_cell_length_a 10.167633
_cell_length_b 15.810234
_cell_length_c 16.610113
_cell_angle_alpha 90.000000
_cell_angle_beta 90.000000
_cell_angle_gamma 90.000000
_cell_volume 2670.119797
_symmetry_space_group_name_H-M "C C C A"
_symmetry_group_IT_number 68
_space_group.IT_coordinate_system_code '2'
_symmetry_cell_setting 'orthorhombic'
loop_
_space_group_symop_operation_xyz
x,y,z
-x,1/2-y,z
x,1/2-y,1/2-z
-x,y,1/2-z
-x,-y,-z
x,1/2+y,-z
-x,1/2+y,1/2+z
x,-y,1/2+z
1/2+x,1/2+y,z
1/2-x,-y,z
1/2+x,-y,1/2-z
1/2-x,1/2+y,1/2-z
1/2-x,1/2-y,-z
1/2+x,y,-z
1/2-x,y,1/2+z
1/2+x,1/2-y,1/2+z
loop_
_atom_site_type_symbol
_atom_site_label
_atom_site_fract_x
_atom_site_fract_y
_atom_site_fract_z
Si Si1 0.723316 0.158862 0.237630
Si Si2 0.750000 0.000000 0.464686
Si Si3 0.313192 0.672004 0.054792
Si Si4 0.551230 0.891824 0.361694
Si Si5 0.500000 0.527477 0.750000
O O1 0.660293 0.250000 0.250000
O O2 0.743328 0.161112 0.141470
O O3 0.854085 0.154099 0.295421
O O4 0.625179 0.085688 0.265773
O O5 0.801578 0.918468 0.511722
O O6 0.640396 0.954806 0.412003
O O7 0.466470 0.669184 0.082598
O O8 0.250000 0.750000 0.000000
O O9 0.458491 0.960906 0.318282
#
# Coordination Sequence:
#
# PCOD9510766 Si02
#       5
#    16   8  16  16   8
#     4  12  26  48  77 111 154 213 278 336 407 511
#     4  12  26  48  76 118 160 208 270 350 442 500
#     4  12  28  48  75 119 164 209 272 352 434 504
#     4  12  25  50  82 111 153 219 278 344 425 523
#     4  12  23  48  79 110 150 202 290 342 403 501
#
# _framework density 23.968961
#
# number of rings (size 3 to 8) (size 9 to 14) (size 15 to 20)
#    0.000    0.000    5.000    4.125    0.000    5.000 
#    4.500    0.000    0.000    0.000    0.000    0.000 
#    0.000    0.000    0.000    0.000    0.000    0.000 
#
# Total GULP energy -178462.428578 kJ/mol
# GULP energy per Si atom -5576.950893 kJ/mol
# Density = 2.391441 g / cm^3
# Si number density = 23.968961 Si / 1000 Ang^3
#
#
#
# Elastic Constant Matrix: (Units=GPa)
#
#
# Indices 1 2 3 4 5 6 
#
# 1 106.9113 69.6918 44.2834 0.0000 0.0000 0.0000
# 2 69.6918 218.1258 77.8720 0.0000 0.0000 0.0000
# 3 44.2834 77.8720 129.3639 0.0000 0.0000 0.0000
# 4 0.0000 0.0000 0.0000 38.0875 0.0000 0.0000
# 5 0.0000 0.0000 0.0000 0.0000 29.3556 0.0000
# 6 0.0000 0.0000 0.0000 0.0000 0.0000 24.8420
#
#
#
# Elastic Compliance Matrix: (Units=1/GPa)
#
#
# Indices 1 2 3 4 5 6 
#
# 1 0.012355 -0.003105 -0.002360 0.000000 0.000000 0.000000
# 2 -0.003105 0.006620 -0.002922 0.000000 0.000000 0.000000
# 3 -0.002360 -0.002922 0.010297 0.000000 0.000000 0.000000
# 4 0.000000 0.000000 0.000000 0.026255 0.000000 0.000000
# 5 0.000000 0.000000 0.000000 0.000000 0.034065 0.000000
# 6 0.000000 0.000000 0.000000 0.000000 0.000000 0.040254
#
#
# Mechanical properties :
#
#
# Convention : Reuss Voigt Hill
#
# Bulk Modulus (GPa) = 80.01585 93.12172 86.56878
# Shear Modulus (GPa) = 33.15938 35.96059 34.55999
#
# Velocity S-wave (km/s) = 3.72348 3.87757 3.80131
# Velocity P-wave (km/s) = 7.20704 7.68002 7.44728
#
# Compressibility (1/GPa) = 0.01249752
#
# Stress axis : x y z
#
# Youngs Moduli (GPa) = 80.93779 151.06511 97.11543
#
# Poissons Ratio (x) = 0.46903 0.22923
# Poissons Ratio (y) = 0.25130 0.28377
# Poissons Ratio (z) = 0.19104 0.44140
#
# Static dielectric constant tensor:
#      x y z
#    x 2.038520 0.000000 0.000000 
#    y 0.000000 1.891080 0.000000 
#    z 0.000000 0.000000 1.789520 
# 
# From -- ./inp_files/20483.got.cif
#   From: 2010.05.17/outbox.cif.g08.bks.cpg/sg68_11_cif.got.tgz:20483.got - 2010.06.03 18:57:09.
