data_PCOD9510427
_publ_section_title
;
Structure prediction by ZEFSAII (Michael W. Deem and Ramdas Pophale) SiO2 
 PCOD9510427
Probable space group: C C C A
;
_chemical_formula_sum "Si O2"
_cell_formula_units_Z 100
_cell_length_a 21.210086
_cell_length_b 22.890303
_cell_length_c 9.414649
_cell_angle_alpha 90.000000
_cell_angle_beta 90.000000
_cell_angle_gamma 90.000000
_cell_volume 4570.861942
_symmetry_space_group_name_H-M "C C C A"
_symmetry_group_IT_number 68
_space_group.IT_coordinate_system_code '2'
_symmetry_cell_setting 'orthorhombic'
loop_
_space_group_symop_operation_xyz
x,y,z
-x,1/2-y,z
x,1/2-y,1/2-z
-x,y,1/2-z
-x,-y,-z
x,1/2+y,-z
-x,1/2+y,1/2+z
x,-y,1/2+z
1/2+x,1/2+y,z
1/2-x,-y,z
1/2+x,-y,1/2-z
1/2-x,1/2+y,1/2-z
1/2-x,1/2-y,-z
1/2+x,y,-z
1/2-x,y,1/2+z
1/2+x,1/2-y,1/2+z
loop_
_atom_site_type_symbol
_atom_site_label
_atom_site_fract_x
_atom_site_fract_y
_atom_site_fract_z
Si Si1 0.816459 0.248628 0.583875
Si Si2 0.198800 0.902356 0.736332
Si Si3 0.628972 0.985412 0.761209
Si Si4 0.057277 0.041939 0.465037
Si Si5 0.093712 0.165669 0.417415
Si Si6 0.176884 0.120013 0.910162
Si Si7 0.000000 0.750000 0.750000
O O1 0.802164 0.250000 0.750000
O O2 0.750000 0.250000 0.500000
O O3 0.862147 0.299938 0.529638
O O4 0.848711 0.185156 0.566187
O O5 0.142681 0.863890 0.805433
O O6 0.198575 0.898325 0.566803
O O7 0.262417 0.879712 0.807304
O O8 0.187033 0.970991 0.764699
O O9 0.614215 0.972997 0.924853
O O10 0.632750 0.926972 0.667453
O O11 0.573881 0.024711 0.695284
O O12 0.052889 0.111552 0.477917
O O13 0.000000 0.000000 0.500000
O O14 0.046188 0.210017 0.343618
#
# Coordination Sequence:
#
# PCOD9510427 Si02
#       7
#    16  16  16  16  16  16   4
#     4  12  25  44  72 109 152 194 239 301 370 459
#     4  11  25  41  68 103 144 182 236 294 362 448
#     4  11  24  42  66 102 138 181 233 292 367 432
#     4  11  25  45  70  97 138 183 241 306 360 433
#     4  11  27  47  72 106 144 194 258 298 382 441
#     4  12  24  40  69 101 145 186 227 288 368 435
#     4  12  28  48  78 104 148 204 258 328 352 468
#
# _framework density 21.877711000000001
#
# number of rings (size 3 to 8) (size 9 to 14) (size 15 to 20)
#    0.000    0.640    3.200    3.840   10.080    2.560 
#    0.000    2.000    0.000    0.000    0.000    0.000 
#    0.000    0.000    0.000    0.000    0.000    0.000 
#
# Total GULP energy -279314.699023 kJ/mol
# GULP energy per Si atom -5586.293980 kJ/mol
# Density = 2.182792 g / cm^3
# Si number density = 21.877711 Si / 1000 Ang^3
#
#
#
# Elastic Constant Matrix: (Units=GPa)
#
#
# Indices 1 2 3 4 5 6 
#
# 1 70.0892 44.7512 15.1512 0.0000 0.0000 0.0000
# 2 44.7512 173.8765 32.4423 0.0000 0.0000 0.0000
# 3 15.1512 32.4423 120.0009 0.0000 0.0000 0.0000
# 4 0.0000 0.0000 0.0000 32.3674 0.0000 0.0000
# 5 0.0000 0.0000 0.0000 0.0000 26.2411 0.0000
# 6 0.0000 0.0000 0.0000 0.0000 0.0000 38.0498
#
#
#
# Elastic Compliance Matrix: (Units=1/GPa)
#
#
# Indices 1 2 3 4 5 6 
#
# 1 0.017192 -0.004233 -0.001026 0.000000 0.000000 0.000000
# 2 -0.004233 0.007099 -0.001385 0.000000 0.000000 0.000000
# 3 -0.001026 -0.001385 0.008837 0.000000 0.000000 0.000000
# 4 0.000000 0.000000 0.000000 0.030895 0.000000 0.000000
# 5 0.000000 0.000000 0.000000 0.000000 0.038108 0.000000
# 6 0.000000 0.000000 0.000000 0.000000 0.000000 0.026281
#
#
# Mechanical properties :
#
#
# Convention : Reuss Voigt Hill
#
# Bulk Modulus (GPa) = 50.40314 60.96176 55.68245
# Shear Modulus (GPa) = 33.71192 37.43978 35.57585
#
# Velocity S-wave (km/s) = 3.92972 4.14130 4.03690
# Velocity P-wave (km/s) = 6.60900 7.12688 6.87282
#
# Compressibility (1/GPa) = 0.01984003
#
# Stress axis : x y z
#
# Youngs Moduli (GPa) = 58.16546 140.86213 113.15799
#
# Poissons Ratio (x) = 0.59632 0.11612
# Poissons Ratio (y) = 0.24624 0.15670
# Poissons Ratio (z) = 0.05969 0.19506
#
# Static dielectric constant tensor:
#      x y z
#    x 1.862120 0.000000 0.000000 
#    y 0.000000 1.877540 0.000000 
#    z 0.000000 0.000000 1.759630 
# 
# From -- ./inp_files/8997.got.cif
#   From: 2010.05.17/outbox.cif.g08.bks.cpg/sg68_5_cif.got.tgz:8997.got - 2010.06.03 18:57:09.
