data_PCOD9510953
_publ_section_title
;
Structure prediction by ZEFSAII (Michael W. Deem and Ramdas Pophale) SiO2 
 PCOD9510953
Probable space group: C C C A
;
_chemical_formula_sum "Si O2"
_cell_formula_units_Z 34
_cell_length_a 18.000000
_cell_length_b 9.000000
_cell_length_c 21.000000
_cell_angle_alpha 90.000000
_cell_angle_beta 90.000000
_cell_angle_gamma 90.000000
_cell_volume 3402.000000
_symmetry_space_group_name_H-M "C C C A"
_symmetry_group_IT_number 68
_space_group.IT_coordinate_system_code '2'
_symmetry_cell_setting 'orthorhombic'
loop_
_space_group_symop_operation_xyz
x,y,z
-x,1/2-y,z
x,1/2-y,1/2-z
-x,y,1/2-z
-x,-y,-z
x,1/2+y,-z
-x,1/2+y,1/2+z
x,-y,1/2+z
1/2+x,1/2+y,z
1/2-x,-y,z
1/2+x,-y,1/2-z
1/2-x,1/2+y,1/2-z
1/2-x,1/2-y,-z
1/2+x,y,-z
1/2-x,y,1/2+z
1/2+x,1/2-y,1/2+z
loop_
_atom_site_type_symbol
_atom_site_label
_atom_site_fract_x
_atom_site_fract_y
_atom_site_fract_z
Si Si1 0.750000 0.500000 0.177639
Si Si2 0.853378 0.250000 0.250000
Si Si3 0.886887 0.487193 0.091085
Si Si4 0.454101 0.022169 0.837205
Si Si5 0.582281 0.323466 0.963342
Si Si6 0.000000 0.750000 0.250000
O O1 0.795417 0.369891 0.216899
O O2 0.817499 0.550343 0.131195
O O3 0.910865 0.147897 0.206310
O O4 0.871630 0.321562 0.061255
O O5 0.958165 0.467101 0.139694
O O6 0.902531 0.596881 0.031019
O O7 0.416754 0.051792 0.906919
O O8 0.454682 0.866461 0.796619
O O9 0.500000 0.250000 0.967607
#
# Coordination Sequence:
#
# PCOD9510953 Si02
#       6
#     8   8  16  16  16   4
#     4  12  28  50  72 108 152 202 244 306 394 452
#     4  12  28  56  74 108 158 204 252 317 374 465
#     4  11  25  45  77 107 148 193 251 312 383 439
#     4  11  25  46  74 106 143 200 256 313 364 445
#     4  10  22  45  74 108 141 186 255 319 362 436
#     4  12  28  32  76 122 136 186 260 308 376 436
#
# _framework density 9.9941209999999998
#
# number of rings (size 3 to 8) (size 9 to 14) (size 15 to 20)
#    0.000    0.941    2.353    4.235   11.529    5.647 
#    0.000    0.000    0.000    0.000    0.000    0.000 
#    0.000    0.000    0.000    0.000    0.000    0.000 
#
# Total GULP energy -189387.751676 kJ/mol
# GULP energy per Si atom -5570.227990 kJ/mol
# Density = 0.997137 g / cm^3
# Si number density = 9.994121 Si / 1000 Ang^3
#
#
#
# Elastic Constant Matrix: (Units=GPa)
#
#
# Indices 1 2 3 4 5 6 
#
# 1 115.5042 36.1125 62.0504 0.0000 0.0000 0.0000
# 2 36.1125 144.3997 73.4680 0.0000 0.0000 0.0000
# 3 62.0504 73.4680 168.3963 0.0000 0.0000 0.0000
# 4 0.0000 0.0000 0.0000 59.7837 0.0000 0.0000
# 5 0.0000 0.0000 0.0000 0.0000 40.9616 0.0000
# 6 0.0000 0.0000 0.0000 0.0000 0.0000 42.0949
#
#
#
# Elastic Compliance Matrix: (Units=1/GPa)
#
#
# Indices 1 2 3 4 5 6 
#
# 1 0.010880 -0.000876 -0.003627 0.000000 0.000000 0.000000
# 2 -0.000876 0.008971 -0.003591 0.000000 0.000000 0.000000
# 3 -0.003627 -0.003591 0.008842 0.000000 0.000000 0.000000
# 4 0.000000 0.000000 0.000000 0.016727 0.000000 0.000000
# 5 0.000000 0.000000 0.000000 0.000000 0.024413 0.000000
# 6 0.000000 0.000000 0.000000 0.000000 0.000000 0.023756
#
#
# Mechanical properties :
#
#
# Convention : Reuss Voigt Hill
#
# Bulk Modulus (GPa) = 79.96774 85.72912 82.84843
# Shear Modulus (GPa) = 43.88063 45.67931 44.77997
#
# Velocity S-wave (km/s) = 4.69051 4.78568 4.73833
# Velocity P-wave (km/s) = 8.33239 8.57437 8.45425
#
# Compressibility (1/GPa) = 0.01250504
#
# Stress axis : x y z
#
# Youngs Moduli (GPa) = 91.91242 111.46474 113.10003
#
# Poissons Ratio (x) = 0.09759 0.41022
# Poissons Ratio (y) = 0.08047 0.40619
# Poissons Ratio (z) = 0.33337 0.40032
#
# Static dielectric constant tensor:
#      x y z
#    x 1.726700 0.000000 0.000000 
#    y 0.000000 1.750910 0.000000 
#    z 0.000000 0.000000 1.765080 
# 
# From -- ./inp_files/39219.got.cif
#   From: 2010.05.17/outbox.ucp.g08.bks.cvg/sg68_20_cif.got.tgz:39219.got - 2010.06.11 16:49:25.
