data_PCOD9510600
_publ_section_title
;
Structure prediction by ZEFSAII (Michael W. Deem and Ramdas Pophale) SiO2 
 PCOD9510600
Probable space group: C C C A
;
_chemical_formula_sum "Si O2"
_cell_formula_units_Z 72
_cell_length_a 13.300616
_cell_length_b 23.576923
_cell_length_c 10.078110
_cell_angle_alpha 90.000000
_cell_angle_beta 90.000000
_cell_angle_gamma 90.000000
_cell_volume 3160.370320
_symmetry_space_group_name_H-M "C C C A"
_symmetry_group_IT_number 68
_space_group.IT_coordinate_system_code '2'
_symmetry_cell_setting 'orthorhombic'
loop_
_space_group_symop_operation_xyz
x,y,z
-x,1/2-y,z
x,1/2-y,1/2-z
-x,y,1/2-z
-x,-y,-z
x,1/2+y,-z
-x,1/2+y,1/2+z
x,-y,1/2+z
1/2+x,1/2+y,z
1/2-x,-y,z
1/2+x,-y,1/2-z
1/2-x,1/2+y,1/2-z
1/2-x,1/2-y,-z
1/2+x,y,-z
1/2-x,y,1/2+z
1/2+x,1/2-y,1/2+z
loop_
_atom_site_type_symbol
_atom_site_label
_atom_site_fract_x
_atom_site_fract_y
_atom_site_fract_z
Si Si1 0.664154 0.623245 0.783875
Si Si2 0.315845 0.216783 0.888226
Si Si3 0.250000 0.000000 0.329456
Si Si4 0.044427 0.040673 0.391791
Si Si5 0.969617 0.151921 0.964413
O O1 0.758027 0.659090 0.840810
O O2 0.691728 0.555959 0.771293
O O3 0.572087 0.643986 0.880124
O O4 0.620811 0.639386 0.639854
O O5 0.325223 0.250000 0.750000
O O6 0.250000 0.250000 0.000000
O O7 0.422973 0.204535 0.956723
O O8 0.337743 0.968507 0.404860
O O9 0.017441 0.104245 0.424710
O O10 0.000000 0.024968 0.250000
O O11 0.000000 0.000000 0.500000
#
# Coordination Sequence:
#
# PCOD9510600 Si02
#       5
#    16  16   8  16  16
#     4  11  25  47  77 113 156 206 247 329 403 474
#     4  12  26  50  80 110 149 204 272 325 394 467
#     4  12  24  44  78 110 160 198 252 320 400 474
#     4  12  26  45  72 111 151 198 255 310 390 479
#     4  11  25  48  75 111 154 200 261 318 403 463
#
# _framework density 22.782140999999999
#
# number of rings (size 3 to 8) (size 9 to 14) (size 15 to 20)
#    0.000    0.444    6.667    1.333    0.000    8.000 
#    0.000    1.111    0.000    0.000    0.000    0.000 
#    0.000    0.000    0.000    0.000    0.000    0.000 
#
# Total GULP energy -200682.734656 kJ/mol
# GULP energy per Si atom -5574.520407 kJ/mol
# Density = 2.273029 g / cm^3
# Si number density = 22.782141 Si / 1000 Ang^3
#
#
#
# Elastic Constant Matrix: (Units=GPa)
#
#
# Indices 1 2 3 4 5 6 
#
# 1 100.9187 42.2353 48.1761 0.0000 0.0000 0.0000
# 2 42.2353 129.0786 55.6591 0.0000 0.0000 0.0000
# 3 48.1761 55.6591 160.1861 0.0000 0.0000 0.0000
# 4 0.0000 0.0000 0.0000 36.0877 0.0000 0.0000
# 5 0.0000 0.0000 0.0000 0.0000 -1.0272 0.0000
# 6 0.0000 0.0000 0.0000 0.0000 0.0000 46.1444
#
#
#
# Elastic Compliance Matrix: (Units=1/GPa)
#
#
# Indices 1 2 3 4 5 6 
#
# 1 0.012421 -0.002886 -0.002733 0.000000 0.000000 0.000000
# 2 -0.002886 0.009783 -0.002531 0.000000 0.000000 0.000000
# 3 -0.002733 -0.002531 0.007944 0.000000 0.000000 0.000000
# 4 0.000000 0.000000 0.000000 0.027710 0.000000 0.000000
# 5 0.000000 0.000000 0.000000 0.000000 -0.973545 0.000000
# 6 0.000000 0.000000 0.000000 0.000000 0.000000 0.021671
#
#
# Mechanical properties :
#
#
# Convention : Reuss Voigt Hill
#
# Bulk Modulus (GPa) = 72.21138 75.81382 74.01260
# Shear Modulus (GPa) = -5.72673 32.51517 13.39422
#
# Velocity S-wave (km/s) = -1.58718 3.78196 2.42735
# Velocity P-wave (km/s) = 5.32977 7.24023 6.35718
#
# Compressibility (1/GPa) = 0.01384823
#
# Stress axis : x y z
#
# Youngs Moduli (GPa) = 80.50626 102.21805 125.87746
#
# Poissons Ratio (x) = 0.29499 0.34402
# Poissons Ratio (y) = 0.23233 0.31864
# Poissons Ratio (z) = 0.22002 0.25875
#
# Static dielectric constant tensor:
#      x y z
#    x 1.919140 0.000000 0.000000 
#    y 0.000000 1.910510 0.000000 
#    z 0.000000 0.000000 1.789180 
# 
# From -- ./inp_files/5215.got.cif
#   From: 2010.05.17/outbox.cif.g08.bks.cpg/sg68_3_cif.got.tgz:5215.got - 2010.06.03 18:57:09.
