data_PCOD9510299
_publ_section_title
;
Structure prediction by ZEFSAII (Michael W. Deem and Ramdas Pophale) SiO2 
 PCOD9510299
Probable space group: C C C A
;
_chemical_formula_sum "Si O2"
_cell_formula_units_Z 64
_cell_length_a 24.951933
_cell_length_b 13.500143
_cell_length_c 8.718084
_cell_angle_alpha 90.000000
_cell_angle_beta 90.000000
_cell_angle_gamma 90.000000
_cell_volume 2936.727253
_symmetry_space_group_name_H-M "C C C A"
_symmetry_group_IT_number 68
_space_group.IT_coordinate_system_code '2'
_symmetry_cell_setting 'orthorhombic'
loop_
_space_group_symop_operation_xyz
x,y,z
-x,1/2-y,z
x,1/2-y,1/2-z
-x,y,1/2-z
-x,-y,-z
x,1/2+y,-z
-x,1/2+y,1/2+z
x,-y,1/2+z
1/2+x,1/2+y,z
1/2-x,-y,z
1/2+x,-y,1/2-z
1/2-x,1/2+y,1/2-z
1/2-x,1/2-y,-z
1/2+x,y,-z
1/2-x,y,1/2+z
1/2+x,1/2-y,1/2+z
loop_
_atom_site_type_symbol
_atom_site_label
_atom_site_fract_x
_atom_site_fract_y
_atom_site_fract_z
Si Si1 0.131543 0.204786 0.420087
Si Si2 0.307906 0.451008 0.411007
Si Si3 0.368921 0.398975 0.111484
Si Si4 0.960024 0.954402 0.622834
O O1 0.136681 0.250000 0.250000
O O2 0.182589 0.137523 0.467444
O O3 0.123971 0.289737 0.546763
O O4 0.080662 0.131583 0.425259
O O5 0.250000 0.500000 0.409419
O O6 0.325467 0.410148 0.245855
O O7 0.348437 0.536862 0.466409
O O8 0.422201 0.453474 0.172341
O O9 0.000000 0.913497 0.750000
O O10 0.000000 0.000000 0.500000
#
# Coordination Sequence:
#
# PCOD9510299 Si02
#       4
#    16  16  16  16
#     4  11  24  44  70 101 137 178 227 279 332 401
#     4  11  24  44  69  97 134 176 221 278 341 399
#     4  11  23  43  67  99 137 174 224 280 332 399
#     4  11  23  41  66  97 136 180 222 272 334 396
#
# _framework density 21.792968999999999
#
# number of rings (size 3 to 8) (size 9 to 14) (size 15 to 20)
#    0.000    1.000    0.000    9.000    0.000    4.500 
#    0.000    7.500    0.000    0.000    0.000    0.000 
#    0.000    0.000    0.000    0.000    0.000    0.000 
#
# Total GULP energy -178960.553514 kJ/mol
# GULP energy per Si atom -5592.517297 kJ/mol
# Density = 2.174337 g / cm^3
# Si number density = 21.792969 Si / 1000 Ang^3
#
#
#
# Elastic Constant Matrix: (Units=GPa)
#
#
# Indices 1 2 3 4 5 6 
#
# 1 139.0085 72.0429 60.6129 0.0000 0.0000 0.0000
# 2 72.0429 159.2560 62.3696 0.0000 0.0000 0.0000
# 3 60.6129 62.3696 122.3944 0.0000 0.0000 0.0000
# 4 0.0000 0.0000 0.0000 39.4341 0.0000 0.0000
# 5 0.0000 0.0000 0.0000 0.0000 34.3682 0.0000
# 6 0.0000 0.0000 0.0000 0.0000 0.0000 28.5609
#
#
#
# Elastic Compliance Matrix: (Units=1/GPa)
#
#
# Indices 1 2 3 4 5 6 
#
# 1 0.010449 -0.003373 -0.003456 0.000000 0.000000 0.000000
# 2 -0.003373 0.008934 -0.002882 0.000000 0.000000 0.000000
# 3 -0.003456 -0.002882 0.011350 0.000000 0.000000 0.000000
# 4 0.000000 0.000000 0.000000 0.025359 0.000000 0.000000
# 5 0.000000 0.000000 0.000000 0.000000 0.029097 0.000000
# 6 0.000000 0.000000 0.000000 0.000000 0.000000 0.035013
#
#
# Mechanical properties :
#
#
# Convention : Reuss Voigt Hill
#
# Bulk Modulus (GPa) = 88.40844 90.07887 89.24365
# Shear Modulus (GPa) = 34.86912 35.51488 35.19200
#
# Velocity S-wave (km/s) = 4.00436 4.04127 4.02286
# Velocity P-wave (km/s) = 7.87625 7.94981 7.91312
#
# Compressibility (1/GPa) = 0.01131114
#
# Stress axis : x y z
#
# Youngs Moduli (GPa) = 95.70396 111.93305 88.10482
#
# Poissons Ratio (x) = 0.37761 0.30445
# Poissons Ratio (y) = 0.32286 0.25391
# Poissons Ratio (z) = 0.33071 0.32258
#
# Static dielectric constant tensor:
#      x y z
#    x 1.800650 0.000000 0.000000 
#    y 0.000000 1.792680 0.000000 
#    z 0.000000 0.000000 1.831510 
# 
# From -- ./inp_files/4996.got.cif
#   From: 2010.05.17/outbox.cif.g08.bks.cpg/sg68_3_cif.got.tgz:4996.got - 2010.06.03 18:57:09.
