data_PCOD9510207
_publ_section_title
;
Structure prediction by ZEFSAII (Michael W. Deem and Ramdas Pophale) SiO2 
 PCOD9510207
Probable space group: C C C A
;
_chemical_formula_sum "Si O2"
_cell_formula_units_Z 88
_cell_length_a 21.336418
_cell_length_b 13.149176
_cell_length_c 14.005993
_cell_angle_alpha 90.000000
_cell_angle_beta 90.000000
_cell_angle_gamma 90.000000
_cell_volume 3929.469791
_symmetry_space_group_name_H-M "C C C A"
_symmetry_group_IT_number 68
_space_group.IT_coordinate_system_code '2'
_symmetry_cell_setting 'orthorhombic'
loop_
_space_group_symop_operation_xyz
x,y,z
-x,1/2-y,z
x,1/2-y,1/2-z
-x,y,1/2-z
-x,-y,-z
x,1/2+y,-z
-x,1/2+y,1/2+z
x,-y,1/2+z
1/2+x,1/2+y,z
1/2-x,-y,z
1/2+x,-y,1/2-z
1/2-x,1/2+y,1/2-z
1/2-x,1/2-y,-z
1/2+x,y,-z
1/2-x,y,1/2+z
1/2+x,1/2-y,1/2+z
loop_
_atom_site_type_symbol
_atom_site_label
_atom_site_fract_x
_atom_site_fract_y
_atom_site_fract_z
Si Si1 0.300876 0.931749 0.099242
Si Si2 0.500000 0.463321 0.250000
Si Si3 0.788776 0.152288 0.202118
Si Si4 0.835104 0.313840 0.922387
Si Si5 0.100167 0.971946 0.888985
Si Si6 0.905618 0.100335 0.904601
O O1 0.359762 0.004885 0.117992
O O2 0.250000 0.000000 0.043279
O O3 0.270630 0.902441 0.199269
O O4 0.316903 0.835940 0.032795
O O5 0.451280 0.531877 0.192397
O O6 0.539086 0.399147 0.172279
O O7 0.821679 0.250000 0.250000
O O8 0.726750 0.177529 0.142693
O O9 0.837258 0.087714 0.140915
O O10 0.880054 0.409597 0.899204
O O11 0.867871 0.206016 0.906077
O O12 0.074182 0.925920 0.987386
#
# Coordination Sequence:
#
# PCOD9510207 Si02
#       6
#    16   8  16  16  16  16
#     4  11  22  42  68 101 146 186 225 288 359 423
#     4  12  26  49  73  98 144 192 241 288 333 416
#     4  12  24  41  72 107 144 183 230 289 361 426
#     4  11  25  42  71 109 143 179 229 296 363 423
#     4  11  25  46  72 103 142 187 238 290 348 419
#     4  11  25  46  72 102 140 186 237 291 351 414
#
# _framework density 22.394880000000001
#
# number of rings (size 3 to 8) (size 9 to 14) (size 15 to 20)
#    0.000    0.727    1.818    6.545    2.545    3.636 
#    0.000    0.455    0.000    0.000    0.000    0.000 
#    0.000    0.000    0.000    0.000    0.000    0.000 
#
# Total GULP energy -246197.591942 kJ/mol
# GULP energy per Si atom -5595.399817 kJ/mol
# Density = 2.234391 g / cm^3
# Si number density = 22.394880 Si / 1000 Ang^3
#
#
#
# Elastic Constant Matrix: (Units=GPa)
#
#
# Indices 1 2 3 4 5 6 
#
# 1 107.8390 44.5049 76.2182 0.0000 0.0000 0.0000
# 2 44.5049 121.6552 59.0435 0.0000 0.0000 0.0000
# 3 76.2182 59.0435 160.6859 0.0000 0.0000 0.0000
# 4 0.0000 0.0000 0.0000 26.5707 0.0000 0.0000
# 5 0.0000 0.0000 0.0000 0.0000 33.7877 0.0000
# 6 0.0000 0.0000 0.0000 0.0000 0.0000 19.9360
#
#
#
# Elastic Compliance Matrix: (Units=1/GPa)
#
#
# Indices 1 2 3 4 5 6 
#
# 1 0.014500 -0.002393 -0.005999 0.000000 0.000000 0.000000
# 2 -0.002393 0.010399 -0.002686 0.000000 0.000000 0.000000
# 3 -0.005999 -0.002686 0.010056 0.000000 0.000000 0.000000
# 4 0.000000 0.000000 0.000000 0.037635 0.000000 0.000000
# 5 0.000000 0.000000 0.000000 0.000000 0.029597 0.000000
# 6 0.000000 0.000000 0.000000 0.000000 0.000000 0.050161
#
#
# Mechanical properties :
#
#
# Convention : Reuss Voigt Hill
#
# Bulk Modulus (GPa) = 78.12820 83.30146 80.71483
# Shear Modulus (GPa) = 27.96895 30.08645 29.02770
#
# Velocity S-wave (km/s) = 3.53781 3.66929 3.60415
# Velocity P-wave (km/s) = 7.18683 7.43162 7.31025
#
# Compressibility (1/GPa) = 0.01279948
#
# Stress axis : x y z
#
# Youngs Moduli (GPa) = 68.96322 96.16264 99.44771
#
# Poissons Ratio (x) = 0.23015 0.59655
# Poissons Ratio (y) = 0.16505 0.26710
# Poissons Ratio (z) = 0.41368 0.25828
#
# Static dielectric constant tensor:
#      x y z
#    x 1.822090 0.000000 0.000000 
#    y 0.000000 1.960010 0.000000 
#    z 0.000000 0.000000 1.862920 
# 
# From -- ./inp_files/25241.got.cif
#   From: 2010.05.17/outbox.cif.g08.bks.cpg/sg68_13_cif.got.tgz:25241.got - 2010.06.03 18:57:09.
