data_PCOD9510621
_publ_section_title
;
Structure prediction by ZEFSAII (Michael W. Deem and Ramdas Pophale) SiO2 
 PCOD9510621
Probable space group: C C C A
;
_chemical_formula_sum "Si O2"
_cell_formula_units_Z 52
_cell_length_a 11.925234
_cell_length_b 9.262133
_cell_length_c 20.317912
_cell_angle_alpha 90.000000
_cell_angle_beta 90.000000
_cell_angle_gamma 90.000000
_cell_volume 2244.176434
_symmetry_space_group_name_H-M "C C C A"
_symmetry_group_IT_number 68
_space_group.IT_coordinate_system_code '2'
_symmetry_cell_setting 'orthorhombic'
loop_
_space_group_symop_operation_xyz
x,y,z
-x,1/2-y,z
x,1/2-y,1/2-z
-x,y,1/2-z
-x,-y,-z
x,1/2+y,-z
-x,1/2+y,1/2+z
x,-y,1/2+z
1/2+x,1/2+y,z
1/2-x,-y,z
1/2+x,-y,1/2-z
1/2-x,1/2+y,1/2-z
1/2-x,1/2-y,-z
1/2+x,y,-z
1/2-x,y,1/2+z
1/2+x,1/2-y,1/2+z
loop_
_atom_site_type_symbol
_atom_site_label
_atom_site_fract_x
_atom_site_fract_y
_atom_site_fract_z
Si Si1 0.827228 0.676726 0.428936
Si Si2 0.000000 0.750000 0.750000
Si Si3 0.369799 0.004343 0.564811
Si Si4 0.096257 0.592876 0.630175
O O1 0.849391 0.581291 0.494457
O O2 0.871581 0.576365 0.370330
O O3 0.693779 0.675984 0.411118
O O4 0.115012 0.669221 0.439565
O O5 0.922033 0.843122 0.701783
O O6 0.473702 0.085005 0.596878
O O7 0.250000 0.000000 0.601948
#
# Coordination Sequence:
#
# PCOD9510621 Si02
#       4
#    16   4  16  16
#     4  11  26  44  75 116 150 188 237 318 390 454
#     4  12  28  52  70  96 142 216 250 302 344 446
#     4  12  24  41  76 115 151 185 231 314 390 457
#     4  11  26  46  71 103 151 196 254 296 376 444
#
# _framework density 23.171085000000001
#
# number of rings (size 3 to 8) (size 9 to 14) (size 15 to 20)
#    0.000    0.615    3.077    4.615    4.308    2.462 
#   16.615    1.538    0.000    0.000    0.000    0.000 
#    0.000    0.000    0.000    0.000    0.000    0.000 
#
# Total GULP energy -145174.728246 kJ/mol
# GULP energy per Si atom -5583.643394 kJ/mol
# Density = 2.311835 g / cm^3
# Si number density = 23.171085 Si / 1000 Ang^3
#
#
#
# Elastic Constant Matrix: (Units=GPa)
#
#
# Indices 1 2 3 4 5 6 
#
# 1 167.0870 43.5929 62.5020 0.0000 0.0000 0.0000
# 2 43.5929 166.7018 75.7920 0.0000 0.0000 0.0000
# 3 62.5020 75.7920 139.3326 0.0000 0.0000 0.0000
# 4 0.0000 0.0000 0.0000 43.2610 0.0000 0.0000
# 5 0.0000 0.0000 0.0000 0.0000 15.6874 0.0000
# 6 0.0000 0.0000 0.0000 0.0000 0.0000 55.2865
#
#
#
# Elastic Compliance Matrix: (Units=1/GPa)
#
#
# Indices 1 2 3 4 5 6 
#
# 1 0.007230 -0.000553 -0.002942 0.000000 0.000000 0.000000
# 2 -0.000553 0.008012 -0.004110 0.000000 0.000000 0.000000
# 3 -0.002942 -0.004110 0.010733 0.000000 0.000000 0.000000
# 4 0.000000 0.000000 0.000000 0.023116 0.000000 0.000000
# 5 0.000000 0.000000 0.000000 0.000000 0.063745 0.000000
# 6 0.000000 0.000000 0.000000 0.000000 0.000000 0.018088
#
#
# Mechanical properties :
#
#
# Convention : Reuss Voigt Hill
#
# Bulk Modulus (GPa) = 92.90556 92.98835 92.94695
# Shear Modulus (GPa) = 33.39518 42.26260 37.82889
#
# Velocity S-wave (km/s) = 3.80049 4.27539 4.04492
# Velocity P-wave (km/s) = 7.70979 8.03681 7.87500
#
# Compressibility (1/GPa) = 0.01076362
#
# Stress axis : x y z
#
# Youngs Moduli (GPa) = 138.31622 124.81167 93.17186
#
# Poissons Ratio (x) = 0.06900 0.27415
# Poissons Ratio (y) = 0.07646 0.38296
# Poissons Ratio (z) = 0.40699 0.51301
#
# Static dielectric constant tensor:
#      x y z
#    x 2.053740 0.000000 0.000000 
#    y 0.000000 2.026670 0.000000 
#    z 0.000000 0.000000 1.828970 
# 
# From -- ./inp_files/28954.got.cif
#   From: 2010.05.17/outbox.cif.g08.bks.cpg/sg68_15_cif.got.tgz:28954.got - 2010.06.03 18:57:09.
