data_PCOD9510208
_publ_section_title
;
Structure prediction by ZEFSAII (Michael W. Deem and Ramdas Pophale) SiO2 
 PCOD9510208
Probable space group: C C C A
;
_chemical_formula_sum "Si O2"
_cell_formula_units_Z 96
_cell_length_a 23.303740
_cell_length_b 19.135833
_cell_length_c 10.542128
_cell_angle_alpha 90.000000
_cell_angle_beta 90.000000
_cell_angle_gamma 90.000000
_cell_volume 4701.119420
_symmetry_space_group_name_H-M "C C C A"
_symmetry_group_IT_number 68
_space_group.IT_coordinate_system_code '2'
_symmetry_cell_setting 'orthorhombic'
loop_
_space_group_symop_operation_xyz
x,y,z
-x,1/2-y,z
x,1/2-y,1/2-z
-x,y,1/2-z
-x,-y,-z
x,1/2+y,-z
-x,1/2+y,1/2+z
x,-y,1/2+z
1/2+x,1/2+y,z
1/2-x,-y,z
1/2+x,-y,1/2-z
1/2-x,1/2+y,1/2-z
1/2-x,1/2-y,-z
1/2+x,y,-z
1/2-x,y,1/2+z
1/2+x,1/2-y,1/2+z
loop_
_atom_site_type_symbol
_atom_site_label
_atom_site_fract_x
_atom_site_fract_y
_atom_site_fract_z
Si Si1 0.439014 0.914255 0.167781
Si Si2 0.730096 0.704438 0.879311
Si Si3 0.605520 0.650606 0.906576
Si Si4 0.444436 0.214160 0.026830
Si Si5 0.558947 0.926512 0.821570
Si Si6 0.149006 0.822879 0.824466
O O1 0.500000 0.905921 0.250000
O O2 0.389570 0.880632 0.255423
O O3 0.428030 0.995586 0.133646
O O4 0.427257 0.877061 0.032085
O O5 0.718410 0.750000 0.750000
O O6 0.672454 0.666292 0.923066
O O7 0.785592 0.655942 0.851521
O O8 0.750000 0.750000 0.000000
O O9 0.601673 0.600252 0.786270
O O10 0.573131 0.723713 0.878095
O O11 0.500000 0.250000 0.959631
O O12 0.388708 0.202059 0.942493
O O13 0.452524 0.137292 0.083366
O O14 0.500000 0.936072 0.750000
O O15 0.154595 0.750000 0.750000
#
# Coordination Sequence:
#
# PCOD9510208 Si02
#       6
#    16  16  16  16  16  16
#     4  11  26  45  65  98 140 182 219 278 359 425
#     4  11  22  42  69 101 137 182 233 298 352 403
#     4  12  23  43  67  98 130 174 232 278 338 420
#     4  12  22  38  67 101 128 165 226 287 334 400
#     4  11  26  40  65  95 138 175 215 279 353 417
#     4  11  23  41  66  99 134 176 229 284 339 413
#
# _framework density 20.420669
#
# number of rings (size 3 to 8) (size 9 to 14) (size 15 to 20)
#    0.000    0.667    5.000    3.500    2.333    1.333 
#    0.000    0.833    0.000    0.000    0.000    0.000 
#    0.000    0.000    0.000    0.000    0.000    0.000 
#
# Total GULP energy -267422.889705 kJ/mol
# GULP energy per Si atom -5571.310202 kJ/mol
# Density = 2.037419 g / cm^3
# Si number density = 20.420669 Si / 1000 Ang^3
#
#
#
# Elastic Constant Matrix: (Units=GPa)
#
#
# Indices 1 2 3 4 5 6 
#
# 1 133.0772 50.3496 22.7042 0.0000 0.0000 0.0000
# 2 50.3496 131.1104 32.8631 0.0000 0.0000 0.0000
# 3 22.7042 32.8631 84.7047 0.0000 0.0000 0.0000
# 4 0.0000 0.0000 0.0000 64.6743 0.0000 0.0000
# 5 0.0000 0.0000 0.0000 0.0000 27.6244 0.0000
# 6 0.0000 0.0000 0.0000 0.0000 0.0000 -0.9775
#
#
#
# Elastic Compliance Matrix: (Units=1/GPa)
#
#
# Indices 1 2 3 4 5 6 
#
# 1 0.008896 -0.003122 -0.001173 0.000000 0.000000 0.000000
# 2 -0.003122 0.009545 -0.002866 0.000000 0.000000 0.000000
# 3 -0.001173 -0.002866 0.013232 0.000000 0.000000 0.000000
# 4 0.000000 0.000000 0.000000 0.015462 0.000000 0.000000
# 5 0.000000 0.000000 0.000000 0.000000 0.036200 0.000000
# 6 0.000000 0.000000 0.000000 0.000000 0.000000 -1.022994
#
#
# Mechanical properties :
#
#
# Convention : Reuss Voigt Hill
#
# Bulk Modulus (GPa) = 57.63806 62.30292 59.97049
# Shear Modulus (GPa) = -5.43742 34.46260 14.51259
#
# Velocity S-wave (km/s) = -1.63355 4.11254 2.66875
# Velocity P-wave (km/s) = 4.97279 7.28880 6.23920
#
# Compressibility (1/GPa) = 0.01734965
#
# Stress axis : x y z
#
# Youngs Moduli (GPa) = 112.41195 104.77166 75.57347
#
# Poissons Ratio (x) = 0.32712 0.08866
# Poissons Ratio (y) = 0.35097 0.21661
# Poissons Ratio (z) = 0.13187 0.30029
#
# Static dielectric constant tensor:
#      x y z
#    x 1.786340 0.000000 0.000000 
#    y 0.000000 2.205000 0.000000 
#    z 0.000000 0.000000 1.780090 
# 
# From -- ./inp_files/16521.got.cif
#   From: 2010.05.17/outbox.cif.g08.bks.cpg/sg68_9_cif.got.tgz:16521.got - 2010.06.03 18:57:09.
