data_PCOD9510302
_publ_section_title
;
Structure prediction by ZEFSAII (Michael W. Deem and Ramdas Pophale) SiO2 
 PCOD9510302
Probable space group: C C C A
;
_chemical_formula_sum "Si O2"
_cell_formula_units_Z 72
_cell_length_a 17.669969
_cell_length_b 11.578656
_cell_length_c 18.757617
_cell_angle_alpha 90.000000
_cell_angle_beta 90.000000
_cell_angle_gamma 90.000000
_cell_volume 3837.705132
_symmetry_space_group_name_H-M "C C C A"
_symmetry_group_IT_number 68
_space_group.IT_coordinate_system_code '2'
_symmetry_cell_setting 'orthorhombic'
loop_
_space_group_symop_operation_xyz
x,y,z
-x,1/2-y,z
x,1/2-y,1/2-z
-x,y,1/2-z
-x,-y,-z
x,1/2+y,-z
-x,1/2+y,1/2+z
x,-y,1/2+z
1/2+x,1/2+y,z
1/2-x,-y,z
1/2+x,-y,1/2-z
1/2-x,1/2+y,1/2-z
1/2-x,1/2-y,-z
1/2+x,y,-z
1/2-x,y,1/2+z
1/2+x,1/2-y,1/2+z
loop_
_atom_site_type_symbol
_atom_site_label
_atom_site_fract_x
_atom_site_fract_y
_atom_site_fract_z
Si Si1 0.214713 0.376577 0.584542
Si Si2 0.500000 0.946671 0.250000
Si Si3 0.500000 0.250000 0.867377
Si Si4 0.139272 0.380931 0.739058
Si Si5 0.750000 0.000000 0.345942
Si Si6 0.158540 0.815413 0.566346
O O1 0.250000 0.500000 0.565953
O O2 0.170871 0.389192 0.658764
O O3 0.164178 0.335049 0.518274
O O4 0.282590 0.284421 0.589171
O O5 0.510351 0.861472 0.183093
O O6 0.426764 0.027753 0.246232
O O7 0.575222 0.223203 0.911601
O O8 0.112807 0.250000 0.750000
O O9 0.206269 0.411025 0.794403
O O10 0.810325 0.069995 0.393766
#
# Coordination Sequence:
#
# PCOD9510302 Si02
#       6
#    16   8   8  16   8  16
#     4  11  23  41  68  95 131 174 223 277 327 409
#     4  11  25  42  64  96 135 167 228 284 334 391
#     4  11  24  44  68  94 129 180 218 280 333 404
#     4  12  24  41  66  97 133 175 221 279 340 395
#     4  12  22  42  72  94 130 176 224 280 326 412
#     4  11  24  44  66  98 132 174 225 274 339 399
#
# _framework density 18.761210999999999
#
# number of rings (size 3 to 8) (size 9 to 14) (size 15 to 20)
#    0.000    0.667    6.667    1.667    0.000    0.000 
#    4.000    2.222    0.000    0.000    0.000    0.000 
#    0.000    0.000    0.000    0.000    0.000    0.000 
#
# Total GULP energy -201212.318388 kJ/mol
# GULP energy per Si atom -5589.231066 kJ/mol
# Density = 1.871851 g / cm^3
# Si number density = 18.761211 Si / 1000 Ang^3
#
#
#
# Elastic Constant Matrix: (Units=GPa)
#
#
# Indices 1 2 3 4 5 6 
#
# 1 126.5024 43.2426 72.4438 0.0000 0.0000 0.0000
# 2 43.2426 115.5453 22.7115 0.0000 0.0000 0.0000
# 3 72.4438 22.7115 86.4948 0.0000 0.0000 0.0000
# 4 0.0000 0.0000 0.0000 36.9976 0.0000 0.0000
# 5 0.0000 0.0000 0.0000 0.0000 27.8933 0.0000
# 6 0.0000 0.0000 0.0000 0.0000 0.0000 40.6959
#
#
#
# Elastic Compliance Matrix: (Units=1/GPa)
#
#
# Indices 1 2 3 4 5 6 
#
# 1 0.016536 -0.003655 -0.012890 0.000000 0.000000 0.000000
# 2 -0.003655 0.009933 0.000453 0.000000 0.000000 0.000000
# 3 -0.012890 0.000453 0.022239 0.000000 0.000000 0.000000
# 4 0.000000 0.000000 0.000000 0.027029 0.000000 0.000000
# 5 0.000000 0.000000 0.000000 0.000000 0.035851 0.000000
# 6 0.000000 0.000000 0.000000 0.000000 0.000000 0.024573
#
#
# Mechanical properties :
#
#
# Convention : Reuss Voigt Hill
#
# Bulk Modulus (GPa) = 60.51860 67.25978 63.88919
# Shear Modulus (GPa) = 28.75999 33.79367 31.27683
#
# Velocity S-wave (km/s) = 3.91954 4.24872 4.08744
# Velocity P-wave (km/s) = 7.26712 7.74578 7.51026
#
# Compressibility (1/GPa) = 0.01652385
#
# Stress axis : x y z
#
# Youngs Moduli (GPa) = 60.47370 100.67003 44.96684
#
# Poissons Ratio (x) = 0.36794 0.57963
# Poissons Ratio (y) = 0.22103 -0.02037
# Poissons Ratio (z) = 0.77951 -0.04559
#
# Static dielectric constant tensor:
#      x y z
#    x 1.619210 0.000000 0.000000 
#    y 0.000000 1.647160 0.000000 
#    z 0.000000 0.000000 1.642680 
# 
# From -- ./inp_files/29436.got.cif
#   From: 2010.05.17/outbox.cif.g08.bks.cpg/sg68_15_cif.got.tgz:29436.got - 2010.06.03 18:57:09.
