data_PCOD9510089
_publ_section_title
;
Structure prediction by ZEFSAII (Michael W. Deem and Ramdas Pophale) SiO2 
 PCOD9510089
Probable space group: C C C A
;
_chemical_formula_sum "Si O2"
_cell_formula_units_Z 80
_cell_length_a 13.909881
_cell_length_b 11.667703
_cell_length_c 23.964066
_cell_angle_alpha 90.000000
_cell_angle_beta 90.000000
_cell_angle_gamma 90.000000
_cell_volume 3889.280689
_symmetry_space_group_name_H-M "C C C A"
_symmetry_group_IT_number 68
_space_group.IT_coordinate_system_code '2'
_symmetry_cell_setting 'orthorhombic'
loop_
_space_group_symop_operation_xyz
x,y,z
-x,1/2-y,z
x,1/2-y,1/2-z
-x,y,1/2-z
-x,-y,-z
x,1/2+y,-z
-x,1/2+y,1/2+z
x,-y,1/2+z
1/2+x,1/2+y,z
1/2-x,-y,z
1/2+x,-y,1/2-z
1/2-x,1/2+y,1/2-z
1/2-x,1/2-y,-z
1/2+x,y,-z
1/2-x,y,1/2+z
1/2+x,1/2-y,1/2+z
loop_
_atom_site_type_symbol
_atom_site_label
_atom_site_fract_x
_atom_site_fract_y
_atom_site_fract_z
Si Si1 0.360170 0.645222 0.157995
Si Si2 0.750000 0.000000 0.573282
Si Si3 0.851485 0.806982 0.017157
Si Si4 0.745543 0.250000 0.750000
Si Si5 0.000000 0.750000 0.391563
Si Si6 0.500000 0.750000 0.424009
Si Si7 0.415164 0.091949 0.293756
O O1 0.280184 0.601760 0.114686
O O2 0.323743 0.750678 0.195703
O O3 0.449404 0.664141 0.117925
O O4 0.386921 0.538995 0.196741
O O5 0.669384 0.937725 0.536453
O O6 0.909525 0.737139 0.065531
O O7 0.750000 0.750000 0.000000
O O8 0.919940 0.804453 0.963593
O O9 0.820168 0.151261 0.731869
O O10 0.041775 0.847946 0.349751
O O11 0.500000 0.103724 0.250000
#
# Coordination Sequence:
#
# PCOD9510089 Si02
#       7
#    16   8  16   8   8   8  16
#     4  12  26  45  67 100 140 177 220 285 345 402
#     4  12  22  44  74  92 138 182 218 280 348 396
#     4  11  24  42  70 101 135 178 228 283 338 403
#     4  12  23  43  68  96 132 182 220 274 338 412
#     4  11  21  42  69  99 134 177 227 280 328 408
#     4  11  28  45  67 101 137 180 229 282 346 404
#     4  12  24  42  69 101 130 178 230 274 336 415
#
# _framework density 20.569357
#
# number of rings (size 3 to 8) (size 9 to 14) (size 15 to 20)
#    0.000    0.400    8.000    0.000    2.800    2.400 
#    0.000    0.000    0.000    0.000    0.000    0.000 
#    0.000    0.000    0.000    0.000    0.000    0.000 
#
# Total GULP energy -222973.687607 kJ/mol
# GULP energy per Si atom -5574.342190 kJ/mol
# Density = 2.052254 g / cm^3
# Si number density = 20.569357 Si / 1000 Ang^3
#
#
#
# Elastic Constant Matrix: (Units=GPa)
#
#
# Indices 1 2 3 4 5 6 
#
# 1 125.9404 22.9564 73.6550 0.0000 0.0000 0.0000
# 2 22.9564 48.9294 46.4173 0.0000 0.0000 0.0000
# 3 73.6550 46.4173 137.0891 0.0000 0.0000 0.0000
# 4 0.0000 0.0000 0.0000 -52.1133 0.0000 0.0000
# 5 0.0000 0.0000 0.0000 0.0000 302.0029 0.0000
# 6 0.0000 0.0000 0.0000 0.0000 0.0000 24.5596
#
#
#
# Elastic Compliance Matrix: (Units=1/GPa)
#
#
# Indices 1 2 3 4 5 6 
#
# 1 0.011594 0.000692 -0.006464 0.000000 0.000000 0.000000
# 2 0.000692 0.030150 -0.010580 0.000000 0.000000 0.000000
# 3 -0.006464 -0.010580 0.014350 0.000000 0.000000 0.000000
# 4 0.000000 0.000000 0.000000 -0.019189 0.000000 0.000000
# 5 0.000000 0.000000 0.000000 0.000000 0.003311 0.000000
# 6 0.000000 0.000000 0.000000 0.000000 0.000000 0.040717
#
#
# Mechanical properties :
#
#
# Convention : Reuss Voigt Hill
#
# Bulk Modulus (GPa) = 42.75309 66.44623 54.59966
# Shear Modulus (GPa) = 41.17444 66.15186 53.66315
#
# Velocity S-wave (km/s) = 4.47893 5.67717 5.11327
# Velocity P-wave (km/s) = 6.89766 8.68028 7.83980
#
# Compressibility (1/GPa) = 0.02339012
#
# Stress axis : x y z
#
# Youngs Moduli (GPa) = 86.24887 33.16742 69.68737
#
# Poissons Ratio (x) = -0.02296 0.45044
# Poissons Ratio (y) = -0.05969 0.73732
# Poissons Ratio (z) = 0.55749 0.35093
#
# Static dielectric constant tensor:
#      x y z
#    x 1.687400 0.000000 0.000000 
#    y 0.000000 1.749860 0.000000 
#    z 0.000000 0.000000 1.770660 
# 
# From -- ./inp_files/45272.got.cif
#   From: 2010.05.17/outbox.cif.g08.bks.cpg/sg68_23_cif.got.tgz:45272.got - 2010.06.03 18:57:09.
