data_PCOD9510152
_publ_section_title
;
Structure prediction by ZEFSAII (Michael W. Deem and Ramdas Pophale) SiO2 
 PCOD9510152
Probable space group: C C C A
;
_chemical_formula_sum "Si O2"
_cell_formula_units_Z 80
_cell_length_a 17.965627
_cell_length_b 8.519817
_cell_length_c 25.545040
_cell_angle_alpha 90.000000
_cell_angle_beta 90.000000
_cell_angle_gamma 90.000000
_cell_volume 3910.022281
_symmetry_space_group_name_H-M "C C C A"
_symmetry_group_IT_number 68
_space_group.IT_coordinate_system_code '2'
_symmetry_cell_setting 'orthorhombic'
loop_
_space_group_symop_operation_xyz
x,y,z
-x,1/2-y,z
x,1/2-y,1/2-z
-x,y,1/2-z
-x,-y,-z
x,1/2+y,-z
-x,1/2+y,1/2+z
x,-y,1/2+z
1/2+x,1/2+y,z
1/2-x,-y,z
1/2+x,-y,1/2-z
1/2-x,1/2+y,1/2-z
1/2-x,1/2-y,-z
1/2+x,y,-z
1/2-x,y,1/2+z
1/2+x,1/2-y,1/2+z
loop_
_atom_site_type_symbol
_atom_site_label
_atom_site_fract_x
_atom_site_fract_y
_atom_site_fract_z
Si Si1 0.331938 0.568186 0.931994
Si Si2 0.579211 0.440502 0.661761
Si Si3 0.831963 0.063855 0.742143
Si Si4 0.666032 0.567078 0.959513
Si Si5 0.405123 0.424939 0.642001
O O1 0.250000 0.500000 0.920308
O O2 0.381688 0.549526 0.881028
O O3 0.329110 0.748454 0.949075
O O4 0.361447 0.470144 0.981878
O O5 0.608865 0.484681 0.718818
O O6 0.490899 0.457500 0.656225
O O7 0.603118 0.262231 0.648437
O O8 0.833893 0.250000 0.750000
O O9 0.750000 0.000000 0.755133
O O10 0.853002 0.013869 0.683460
O O11 0.750000 0.500000 0.956412
O O12 0.616533 0.482806 0.915631
#
# Coordination Sequence:
#
# PCOD9510152 Si02
#       5
#    16  16  16  16  16
#     4  11  22  39  63  90 122 159 203 250 298 354
#     4  11  24  42  63  89 123 160 199 246 301 358
#     4  12  25  42  65  91 121 157 201 248 297 356
#     4  11  22  39  63  90 122 159 203 250 298 354
#     4  11  24  42  63  89 123 160 199 246 301 358
#
# _framework density 20.460242000000001
#
# number of rings (size 3 to 8) (size 9 to 14) (size 15 to 20)
#    0.000    0.800    0.000    9.600    0.000    6.400 
#    0.000    0.000    0.000    0.000    0.000    0.000 
#    0.000    0.000    0.000    0.000    0.000    0.000 
#
# Total GULP energy -223968.498509 kJ/mol
# GULP energy per Si atom -5599.212463 kJ/mol
# Density = 2.041367 g / cm^3
# Si number density = 20.460242 Si / 1000 Ang^3
#
#
#
# Elastic Constant Matrix: (Units=GPa)
#
#
# Indices 1 2 3 4 5 6 
#
# 1 31.2202 -5.8511 -8.2311 0.0000 0.0000 0.0000
# 2 -5.8511 78.6200 -34.1230 0.0000 0.0000 0.0000
# 3 -8.2311 -34.1230 53.4435 0.0000 0.0000 0.0000
# 4 0.0000 0.0000 0.0000 33.5172 0.0000 0.0000
# 5 0.0000 0.0000 0.0000 0.0000 -395.2051 0.0000
# 6 0.0000 0.0000 0.0000 0.0000 0.0000 19.5780
#
#
#
# Elastic Compliance Matrix: (Units=1/GPa)
#
#
# Indices 1 2 3 4 5 6 
#
# 1 0.035995 0.007034 0.010035 0.000000 0.000000 0.000000
# 2 0.007034 0.018970 0.013196 0.000000 0.000000 0.000000
# 3 0.010035 0.013196 0.028682 0.000000 0.000000 0.000000
# 4 0.000000 0.000000 0.000000 0.029835 0.000000 0.000000
# 5 0.000000 0.000000 0.000000 0.000000 -0.002530 0.000000
# 6 0.000000 0.000000 0.000000 0.000000 0.000000 0.051078
#
#
# Mechanical properties :
#
#
# Convention : Reuss Voigt Hill
#
# Bulk Modulus (GPa) = 6.93596 7.43037 7.18317
# Shear Modulus (GPa) = 33.43163 -54.32274 -10.44555
#
# Velocity S-wave (km/s) = 4.04664 -5.15830 -2.26194
# Velocity P-wave (km/s) = 5.02305 5.64251 1.81753
#
# Compressibility (1/GPa) = 0.14417608
#
# Stress axis : x y z
#
# Youngs Moduli (GPa) = 27.78198 52.71458 34.86502
#
# Poissons Ratio (x) = -0.37081 -0.34987
# Poissons Ratio (y) = -0.19542 -0.46006
# Poissons Ratio (z) = -0.27879 -0.69560
#
# Static dielectric constant tensor:
#      x y z
#    x 1.705080 0.000000 0.000000 
#    y 0.000000 1.710650 0.000000 
#    z 0.000000 0.000000 1.701790 
# 
# From -- ./inp_files/55543.got.cif
#   From: 2010.05.17/outbox.cif.g08.bks.cpg/sg68_28_cif.got.tgz:55543.got - 2010.06.03 18:57:09.
