data_PCOD9510258
_publ_section_title
;
Structure prediction by ZEFSAII (Michael W. Deem and Ramdas Pophale) SiO2 
 PCOD9510258
Probable space group: C C C A
;
_chemical_formula_sum "Si O2"
_cell_formula_units_Z 52
_cell_length_a 17.210734
_cell_length_b 4.920099
_cell_length_c 27.285738
_cell_angle_alpha 90.000000
_cell_angle_beta 90.000000
_cell_angle_gamma 90.000000
_cell_volume 2310.515778
_symmetry_space_group_name_H-M "C C C A"
_symmetry_group_IT_number 68
_space_group.IT_coordinate_system_code '2'
_symmetry_cell_setting 'orthorhombic'
loop_
_space_group_symop_operation_xyz
x,y,z
-x,1/2-y,z
x,1/2-y,1/2-z
-x,y,1/2-z
-x,-y,-z
x,1/2+y,-z
-x,1/2+y,1/2+z
x,-y,1/2+z
1/2+x,1/2+y,z
1/2-x,-y,z
1/2+x,-y,1/2-z
1/2-x,1/2+y,1/2-z
1/2-x,1/2-y,-z
1/2+x,y,-z
1/2-x,y,1/2+z
1/2+x,1/2-y,1/2+z
loop_
_atom_site_type_symbol
_atom_site_label
_atom_site_fract_x
_atom_site_fract_y
_atom_site_fract_z
Si Si1 0.344492 0.982310 0.529041
Si Si2 0.374130 0.865893 0.299780
Si Si3 0.000000 0.750000 0.250000
Si Si4 0.836907 0.622184 0.138935
O O1 0.371121 0.279824 0.513674
O O2 0.250000 0.000000 0.528359
O O3 0.364535 0.875473 0.582808
O O4 0.333303 0.750000 0.250000
O O5 0.388269 0.594815 0.331033
O O6 0.445951 0.043475 0.280337
O O7 0.334356 0.086893 0.335018
O O8 0.750000 0.500000 0.139923
#
# Coordination Sequence:
#
# PCOD9510258 Si02
#       4
#    16  16   4  16
#     4   9  17  32  55  84 123 163 193 230 282 363
#     4  12  24  42  62  85 120 162 208 256 295 350
#     4  12  26  48  62  80 114 156 238 250 286 356
#     4  11  23  38  60  96 130 158 196 240 315 373
#
# _framework density 22.505799
#
# number of rings (size 3 to 8) (size 9 to 14) (size 15 to 20)
#    0.000    1.231    3.077    3.231    0.000    7.385 
#    2.769    0.000    0.000    0.000    0.000   21.538 
#    0.000    0.000    0.000    0.000    0.000    0.000 
#
# Total GULP energy -145143.884510 kJ/mol
# GULP energy per Si atom -5582.457097 kJ/mol
# Density = 2.245458 g / cm^3
# Si number density = 22.505799 Si / 1000 Ang^3
#
#
#
# Elastic Constant Matrix: (Units=GPa)
#
#
# Indices 1 2 3 4 5 6 
#
# 1 28.8816 5.2052 9.0189 0.0000 0.0000 0.0000
# 2 5.2052 164.2668 67.1993 0.0000 0.0000 0.0000
# 3 9.0189 67.1993 169.1419 0.0000 0.0000 0.0000
# 4 0.0000 0.0000 0.0000 35.1668 0.0000 0.0000
# 5 0.0000 0.0000 0.0000 0.0000 18.3033 0.0000
# 6 0.0000 0.0000 0.0000 0.0000 0.0000 31.3984
#
#
#
# Elastic Compliance Matrix: (Units=1/GPa)
#
#
# Indices 1 2 3 4 5 6 
#
# 1 0.035234 -0.000415 -0.001714 0.000000 0.000000 0.000000
# 2 -0.000415 0.007274 -0.002868 0.000000 0.000000 0.000000
# 3 -0.001714 -0.002868 0.007143 0.000000 0.000000 0.000000
# 4 0.000000 0.000000 0.000000 0.028436 0.000000 0.000000
# 5 0.000000 0.000000 0.000000 0.000000 0.054635 0.000000
# 6 0.000000 0.000000 0.000000 0.000000 0.000000 0.031849
#
#
# Mechanical properties :
#
#
# Convention : Reuss Voigt Hill
#
# Bulk Modulus (GPa) = 25.21603 58.34856 41.78229
# Shear Modulus (GPa) = 26.62642 35.69818 31.16230
#
# Velocity S-wave (km/s) = 3.44334 3.98700 3.72510
# Velocity P-wave (km/s) = 5.19975 6.86857 6.09158
#
# Compressibility (1/GPa) = 0.03965731
#
# Stress axis : x y z
#
# Youngs Moduli (GPa) = 28.38154 137.47622 139.99874
#
# Poissons Ratio (x) = 0.05711 0.23991
# Poissons Ratio (y) = 0.01179 0.40148
# Poissons Ratio (z) = 0.04864 0.39425
#
# Static dielectric constant tensor:
#      x y z
#    x 1.896750 0.000000 0.000000 
#    y 0.000000 1.815510 0.000000 
#    z 0.000000 0.000000 1.866970 
# 
# From -- ./inp_files/41988.got.cif
#   From: 2010.05.17/outbox.cif.g08.bks.cpg/sg68_21_cif.got.tgz:41988.got - 2010.06.03 18:57:09.
