data_PCOD9510676
_publ_section_title
;
Structure prediction by ZEFSAII (Michael W. Deem and Ramdas Pophale) SiO2 
 PCOD9510676
Probable space group: C C C A
;
_chemical_formula_sum "Si O2"
_cell_formula_units_Z 48
_cell_length_a 23.801656
_cell_length_b 10.933689
_cell_length_c 7.822679
_cell_angle_alpha 90.000000
_cell_angle_beta 90.000000
_cell_angle_gamma 90.000000
_cell_volume 2035.773235
_symmetry_space_group_name_H-M "C C C A"
_symmetry_group_IT_number 68
_space_group.IT_coordinate_system_code '2'
_symmetry_cell_setting 'orthorhombic'
loop_
_space_group_symop_operation_xyz
x,y,z
-x,1/2-y,z
x,1/2-y,1/2-z
-x,y,1/2-z
-x,-y,-z
x,1/2+y,-z
-x,1/2+y,1/2+z
x,-y,1/2+z
1/2+x,1/2+y,z
1/2-x,-y,z
1/2+x,-y,1/2-z
1/2-x,1/2+y,1/2-z
1/2-x,1/2-y,-z
1/2+x,y,-z
1/2-x,y,1/2+z
1/2+x,1/2-y,1/2+z
loop_
_atom_site_type_symbol
_atom_site_label
_atom_site_fract_x
_atom_site_fract_y
_atom_site_fract_z
Si Si1 0.798120 0.750000 0.250000
Si Si2 0.750000 0.500000 0.827557
Si Si3 0.647640 0.169390 0.575783
Si Si4 0.524010 0.872812 0.942983
O O1 0.829678 0.739618 0.428699
O O2 0.910526 0.625308 0.008531
O O3 0.690918 0.446089 0.905853
O O4 0.735058 0.624288 0.729371
O O5 0.641565 0.250000 0.750000
O O6 0.500000 0.750000 0.029261
O O7 0.500000 0.866536 0.750000
O O8 0.500000 0.000000 0.000000
#
# Coordination Sequence:
#
# PCOD9510676 Si02
#       4
#     8   8  16  16
#     4  12  28  50  75 118 171 208 280 330 410 500
#     4  12  28  50  82 126 166 228 272 336 424 516
#     4  12  30  50  85 119 170 223 277 347 422 505
#     4  11  29  52  80 118 156 215 282 345 415 487
#
# _framework density 23.578263
#
# number of rings (size 3 to 8) (size 9 to 14) (size 15 to 20)
#    0.000    0.333    1.667    4.000   18.667    0.000 
#    0.000    0.000    0.000    0.000    0.000    0.000 
#    0.000    0.000    0.000    0.000    0.000    0.000 
#
# Total GULP energy -133654.959306 kJ/mol
# GULP energy per Si atom -5568.956638 kJ/mol
# Density = 2.352460 g / cm^3
# Si number density = 23.578263 Si / 1000 Ang^3
#
#
#
# Elastic Constant Matrix: (Units=GPa)
#
#
# Indices 1 2 3 4 5 6 
#
# 1 198.0192 73.1554 68.8217 0.0000 0.0000 0.0000
# 2 73.1554 205.7966 56.6858 0.0000 0.0000 0.0000
# 3 68.8217 56.6858 155.2172 0.0000 0.0000 0.0000
# 4 0.0000 0.0000 0.0000 28.6123 0.0000 0.0000
# 5 0.0000 0.0000 0.0000 0.0000 17.6271 0.0000
# 6 0.0000 0.0000 0.0000 0.0000 0.0000 -24.0704
#
#
#
# Elastic Compliance Matrix: (Units=1/GPa)
#
#
# Indices 1 2 3 4 5 6 
#
# 1 0.006450 -0.001673 -0.002249 0.000000 0.000000 0.000000
# 2 -0.001673 0.005837 -0.001390 0.000000 0.000000 0.000000
# 3 -0.002249 -0.001390 0.007947 0.000000 0.000000 0.000000
# 4 0.000000 0.000000 0.000000 0.034950 0.000000 0.000000
# 5 0.000000 0.000000 0.000000 0.000000 0.056731 0.000000
# 6 0.000000 0.000000 0.000000 0.000000 0.000000 -0.041545
#
#
# Mechanical properties :
#
#
# Convention : Reuss Voigt Hill
#
# Bulk Modulus (GPa) = 104.05459 106.26209 105.15834
# Shear Modulus (GPa) = 59.38513 28.45849 43.92181
#
# Velocity S-wave (km/s) = 5.02405 3.47793 4.32071
# Velocity P-wave (km/s) = 8.82509 7.82903 8.34194
#
# Compressibility (1/GPa) = 0.00961034
#
# Stress axis : x y z
#
# Youngs Moduli (GPa) = 155.04555 171.32755 125.83181
#
# Poissons Ratio (x) = 0.28669 0.28295
# Poissons Ratio (y) = 0.25944 0.17486
# Poissons Ratio (z) = 0.34864 0.23809
#
# Static dielectric constant tensor:
#      x y z
#    x 1.234450 0.000000 0.000000 
#    y 0.000000 2.214320 0.000000 
#    z 0.000000 0.000000 2.887350 
# 
# From -- ./inp_files/8469.got.cif
#   From: 2010.05.17/outbox.cif.g08.bks.cpg/sg68_5_cif.got.tgz:8469.got - 2010.06.03 18:57:09.
