data_PCOD9510980
_publ_section_title
;
Structure prediction by ZEFSAII (Michael W. Deem and Ramdas Pophale) SiO2 
 PCOD9510980
Probable space group: F M M M
;
_chemical_formula_sum "Si O2"
_cell_formula_units_Z 144
_cell_length_a 33.514835
_cell_length_b 18.016647
_cell_length_c 13.614375
_cell_angle_alpha 90.000000
_cell_angle_beta 90.000000
_cell_angle_gamma 90.000000
_cell_volume 8220.699324
_symmetry_space_group_name_H-M "F M M M"
_symmetry_group_IT_number 69
_symmetry_cell_setting 'orthorhombic'
loop_
_space_group_symop_operation_xyz
x,y,z
-x,-y,z
x,-y,-z
-x,y,-z
-x,-y,-z
x,y,-z
-x,y,z
x,-y,z
x,1/2+y,1/2+z
-x,1/2-y,1/2+z
x,1/2-y,1/2-z
-x,1/2+y,1/2-z
-x,1/2-y,1/2-z
x,1/2+y,1/2-z
-x,1/2+y,1/2+z
x,1/2-y,1/2+z
1/2+x,y,1/2+z
1/2-x,-y,1/2+z
1/2+x,-y,1/2-z
1/2-x,y,1/2-z
1/2-x,-y,1/2-z
1/2+x,y,1/2-z
1/2-x,y,1/2+z
1/2+x,-y,1/2+z
1/2+x,1/2+y,z
1/2-x,1/2-y,z
1/2+x,1/2-y,-z
1/2-x,1/2+y,-z
1/2-x,1/2-y,-z
1/2+x,1/2+y,-z
1/2-x,1/2+y,z
1/2+x,1/2-y,z
loop_
_atom_site_type_symbol
_atom_site_label
_atom_site_fract_x
_atom_site_fract_y
_atom_site_fract_z
Si Si1 0.820695 0.120292 0.115019
Si Si2 0.883840 0.662464 0.769583
Si Si3 0.250000 0.379612 0.250000
Si Si4 0.309156 0.201993 0.109253
Si Si5 0.046158 0.089283 0.613130
O O1 0.861970 0.120185 0.178365
O O2 0.784190 0.084877 0.178491
O O3 0.812123 0.209246 0.113903
O O4 0.823262 0.096710 0.000000
O O5 0.891624 0.750000 0.750000
O O6 0.850345 0.666289 0.854576
O O7 0.923114 0.624105 0.810651
O O8 0.275862 0.329027 0.320872
O O9 0.299394 0.179300 0.000000
O O10 0.055461 0.111464 0.500000
O O11 0.000000 0.109701 0.632523
O O12 0.048796 0.000000 0.617243
#
# Coordination Sequence:
#
# PCOD9510980 Si02
#       5
#    32  32  16  32  32
#     4   9  16  24  35  56  88 123 157 191 227 269
#     4   9  17  28  44  67  95 125 155 189 234 281
#     4  10  15  20  32  54  85 124 159 188 229 274
#     4   9  15  22  34  55  86 120 153 191 231 272
#     4   9  18  33  53  75  96 118 148 190 238 285
#
# _framework density 17.516757999999999
#
# number of rings (size 3 to 8) (size 9 to 14) (size 15 to 20)
#    0.000    2.889    0.000    5.333    0.000    3.111 
#    0.000    0.000    0.000    1.333    0.000   14.000 
#    0.000   14.222    0.000    0.000    0.000    0.000 
#
# Total GULP energy -200434.687125 kJ/mol
# GULP energy per Si atom -5567.630198 kJ/mol
# Density = 1.747689 g / cm^3
# Si number density = 17.516758 Si / 1000 Ang^3
#
#
#
# Elastic Constant Matrix: (Units=GPa)
#
#
# Indices 1 2 3 4 5 6 
#
# 1 131.4325 30.6035 76.5692 0.0000 0.0000 0.0000
# 2 30.6035 27.6916 26.2520 0.0000 0.0000 0.0000
# 3 76.5692 26.2520 153.3363 0.0000 0.0000 0.0000
# 4 0.0000 0.0000 0.0000 3.4922 0.0000 0.0000
# 5 0.0000 0.0000 0.0000 0.0000 20.9496 0.0000
# 6 0.0000 0.0000 0.0000 0.0000 0.0000 58.2710
#
#
#
# Elastic Compliance Matrix: (Units=1/GPa)
#
#
# Indices 1 2 3 4 5 6 
#
# 1 0.012499 -0.009427 -0.004628 0.000000 0.000000 0.000000
# 2 -0.009427 0.050218 -0.003890 0.000000 0.000000 0.000000
# 3 -0.004628 -0.003890 0.009499 0.000000 0.000000 0.000000
# 4 0.000000 0.000000 0.000000 0.286349 0.000000 0.000000
# 5 0.000000 0.000000 0.000000 0.000000 0.047734 0.000000
# 6 0.000000 0.000000 0.000000 0.000000 0.000000 0.017161
#
#
# Mechanical properties :
#
#
# Convention : Reuss Voigt Hill
#
# Bulk Modulus (GPa) = 27.52809 64.36776 45.94792
# Shear Modulus (GPa) = 10.60538 28.47828 19.54183
#
# Velocity S-wave (km/s) = 2.46324 4.03646 3.34370
# Velocity P-wave (km/s) = 4.88257 7.65181 6.41832
#
# Compressibility (1/GPa) = 0.03632654
#
# Stress axis : x y z
#
# Youngs Moduli (GPa) = 80.00371 19.91314 105.27915
#
# Poissons Ratio (x) = 0.18771 0.48721
# Poissons Ratio (y) = 0.75416 0.40958
# Poissons Ratio (z) = 0.37024 0.07747
#
# Static dielectric constant tensor:
#      x y z
#    x 1.602080 0.000000 0.000000 
#    y 0.000000 1.595650 0.000000 
#    z 0.000000 0.000000 1.636700 
# 
# From -- ./inp_files/15586.got.cif
#   From: 2010.05.17/outbox.cif.g08.bks.cpg/sg69_8_cif.got.tgz:15586.got - 2010.06.03 19:29:58.
