data_PCOD9510865
_publ_section_title
;
Structure prediction by ZEFSAII (Michael W. Deem and Ramdas Pophale) SiO2 
 PCOD9510865
Probable space group: C C C A
;
_chemical_formula_sum "Si O2"
_cell_formula_units_Z 64
_cell_length_a 14.190232
_cell_length_b 19.276760
_cell_length_c 9.940444
_cell_angle_alpha 90.000000
_cell_angle_beta 90.000000
_cell_angle_gamma 90.000000
_cell_volume 2719.125917
_symmetry_space_group_name_H-M "C C C A"
_symmetry_group_IT_number 68
_space_group.IT_coordinate_system_code '2'
_symmetry_cell_setting 'orthorhombic'
loop_
_space_group_symop_operation_xyz
x,y,z
-x,1/2-y,z
x,1/2-y,1/2-z
-x,y,1/2-z
-x,-y,-z
x,1/2+y,-z
-x,1/2+y,1/2+z
x,-y,1/2+z
1/2+x,1/2+y,z
1/2-x,-y,z
1/2+x,-y,1/2-z
1/2-x,1/2+y,1/2-z
1/2-x,1/2-y,-z
1/2+x,y,-z
1/2-x,y,1/2+z
1/2+x,1/2-y,1/2+z
loop_
_atom_site_type_symbol
_atom_site_label
_atom_site_fract_x
_atom_site_fract_y
_atom_site_fract_z
Si Si1 0.566368 0.431147 0.496485
Si Si2 0.250000 0.000000 0.118977
Si Si3 0.055428 0.313283 0.026515
Si Si4 0.153439 0.872285 0.233698
Si Si5 0.193568 0.250000 0.250000
O O1 0.500000 0.500000 0.500000
O O2 0.669385 0.458048 0.539126
O O3 0.515205 0.371749 0.586338
O O4 0.583618 0.387841 0.357767
O O5 0.300355 0.053965 0.213473
O O6 0.110072 0.353316 0.910470
O O7 0.000000 0.250000 0.959342
O O8 0.123829 0.273336 0.129718
O O9 0.234129 0.814714 0.250153
#
# Coordination Sequence:
#
# PCOD9510865 Si02
#       5
#    16   8  16  16   8
#     4  12  27  49  76 120 165 215 281 342 424 510
#     4  12  26  46  76 114 164 214 274 340 420 492
#     4  12  26  49  77 117 159 213 275 341 419 501
#     4  12  26  48  79 113 164 214 271 345 418 503
#     4  12  27  50  81 118 162 212 278 353 427 508
#
# _framework density 23.536977
#
# number of rings (size 3 to 8) (size 9 to 14) (size 15 to 20)
#    0.000    0.000    2.500    7.125    3.500    1.000 
#    0.000    0.000    0.000    0.000    0.000    0.000 
#    0.000    0.000    0.000    0.000    0.000    0.000 
#
# Total GULP energy -178691.290960 kJ/mol
# GULP energy per Si atom -5584.102842 kJ/mol
# Density = 2.348341 g / cm^3
# Si number density = 23.536977 Si / 1000 Ang^3
#
#
#
# Elastic Constant Matrix: (Units=GPa)
#
#
# Indices 1 2 3 4 5 6 
#
# 1 99.8688 32.8711 44.9246 0.0000 0.0000 0.0000
# 2 32.8711 166.2838 39.6424 0.0000 0.0000 0.0000
# 3 44.9246 39.6424 104.8469 0.0000 0.0000 0.0000
# 4 0.0000 0.0000 0.0000 43.7283 0.0000 0.0000
# 5 0.0000 0.0000 0.0000 0.0000 98.3529 0.0000
# 6 0.0000 0.0000 0.0000 0.0000 0.0000 76.1599
#
#
#
# Elastic Compliance Matrix: (Units=1/GPa)
#
#
# Indices 1 2 3 4 5 6 
#
# 1 0.012666 -0.001330 -0.004924 0.000000 0.000000 0.000000
# 2 -0.001330 0.006749 -0.001982 0.000000 0.000000 0.000000
# 3 -0.004924 -0.001982 0.012397 0.000000 0.000000 0.000000
# 4 0.000000 0.000000 0.000000 0.022868 0.000000 0.000000
# 5 0.000000 0.000000 0.000000 0.000000 0.010167 0.000000
# 6 0.000000 0.000000 0.000000 0.000000 0.000000 0.013130
#
#
# Mechanical properties :
#
#
# Convention : Reuss Voigt Hill
#
# Bulk Modulus (GPa) = 65.18952 67.31953 66.25452
# Shear Modulus (GPa) = 50.21888 60.55233 55.38560
#
# Velocity S-wave (km/s) = 4.62412 5.07763 4.85617
# Velocity P-wave (km/s) = 7.50112 7.93978 7.72356
#
# Compressibility (1/GPa) = 0.01533989
#
# Stress axis : x y z
#
# Youngs Moduli (GPa) = 78.95176 148.16511 80.66419
#
# Poissons Ratio (x) = 0.19704 0.39721
# Poissons Ratio (y) = 0.10499 0.15988
# Poissons Ratio (z) = 0.38878 0.29367
#
# Static dielectric constant tensor:
#      x y z
#    x 1.674060 0.000000 0.000000 
#    y 0.000000 1.908160 0.000000 
#    z 0.000000 0.000000 1.903210 
# 
# From -- ./inp_files/12853.got.cif
#   From: 2010.05.17/outbox.cif.g08.bks.cpg/sg68_7_cif.got.tgz:12853.got - 2010.06.03 18:57:09.
