data_PCOD9510834
_publ_section_title
;
Structure prediction by ZEFSAII (Michael W. Deem and Ramdas Pophale) SiO2 
 PCOD9510834
Probable space group: C C C A
;
_chemical_formula_sum "Si O2"
_cell_formula_units_Z 64
_cell_length_a 22.196179
_cell_length_b 8.070455
_cell_length_c 14.962796
_cell_angle_alpha 90.000000
_cell_angle_beta 90.000000
_cell_angle_gamma 90.000000
_cell_volume 2680.334483
_symmetry_space_group_name_H-M "C C C A"
_symmetry_group_IT_number 68
_space_group.IT_coordinate_system_code '2'
_symmetry_cell_setting 'orthorhombic'
loop_
_space_group_symop_operation_xyz
x,y,z
-x,1/2-y,z
x,1/2-y,1/2-z
-x,y,1/2-z
-x,-y,-z
x,1/2+y,-z
-x,1/2+y,1/2+z
x,-y,1/2+z
1/2+x,1/2+y,z
1/2-x,-y,z
1/2+x,-y,1/2-z
1/2-x,1/2+y,1/2-z
1/2-x,1/2-y,-z
1/2+x,y,-z
1/2-x,y,1/2+z
1/2+x,1/2-y,1/2+z
loop_
_atom_site_type_symbol
_atom_site_label
_atom_site_fract_x
_atom_site_fract_y
_atom_site_fract_z
Si Si1 0.453525 0.644188 0.524019
Si Si2 0.130783 0.204962 0.652996
Si Si3 0.741919 0.696533 0.397243
Si Si4 0.609062 0.816056 0.347818
O O1 0.500000 0.750000 0.583419
O O2 0.500000 0.500000 0.500000
O O3 0.393166 0.656411 0.582699
O O4 0.432861 0.732757 0.431436
O O5 0.107998 0.250000 0.750000
O O6 0.203073 0.212750 0.651419
O O7 0.112216 0.014988 0.637403
O O8 0.750000 0.500000 0.387891
O O9 0.750000 0.750000 0.500000
O O10 0.676350 0.747718 0.362950
O O11 0.589135 0.750000 0.250000
#
# Coordination Sequence:
#
# PCOD9510834 Si02
#       4
#    16  16  16  16
#     4  12  28  51  75 104 150 200 252 306 370 445
#     4  12  27  48  77 111 150 193 251 312 379 451
#     4  12  25  44  77 109 151 193 243 312 388 453
#     4  12  27  48  77 112 148 194 251 312 381 450
#
# _framework density 23.877617000000001
#
# number of rings (size 3 to 8) (size 9 to 14) (size 15 to 20)
#    0.000    0.000    5.000    4.500    7.000    1.000 
#    0.000    0.000    0.000    0.000    0.000    0.000 
#    0.000    0.000    0.000    0.000    0.000    0.000 
#
# Total GULP energy -178582.882038 kJ/mol
# GULP energy per Si atom -5580.715064 kJ/mol
# Density = 2.382327 g / cm^3
# Si number density = 23.877617 Si / 1000 Ang^3
#
#
#
# Elastic Constant Matrix: (Units=GPa)
#
#
# Indices 1 2 3 4 5 6 
#
# 1 134.5258 30.0462 37.2565 0.0000 0.0000 0.0000
# 2 30.0462 112.7249 4.8978 0.0000 0.0000 0.0000
# 3 37.2565 4.8978 157.1500 0.0000 0.0000 0.0000
# 4 0.0000 0.0000 0.0000 32.7534 0.0000 0.0000
# 5 0.0000 0.0000 0.0000 0.0000 11.0689 0.0000
# 6 0.0000 0.0000 0.0000 0.0000 0.0000 57.5993
#
#
#
# Elastic Compliance Matrix: (Units=1/GPa)
#
#
# Indices 1 2 3 4 5 6 
#
# 1 0.008454 -0.002169 -0.001937 0.000000 0.000000 0.000000
# 2 -0.002169 0.009440 0.000220 0.000000 0.000000 0.000000
# 3 -0.001937 0.000220 0.006816 0.000000 0.000000 0.000000
# 4 0.000000 0.000000 0.000000 0.030531 0.000000 0.000000
# 5 0.000000 0.000000 0.000000 0.000000 0.090343 0.000000
# 6 0.000000 0.000000 0.000000 0.000000 0.000000 0.017361
#
#
# Mechanical properties :
#
#
# Convention : Reuss Voigt Hill
#
# Bulk Modulus (GPa) = 59.03907 60.97796 60.00852
# Shear Modulus (GPa) = 28.35051 42.43098 35.39075
#
# Velocity S-wave (km/s) = 3.44950 4.22004 3.85408
# Velocity P-wave (km/s) = 6.37532 7.02411 6.70757
#
# Compressibility (1/GPa) = 0.01693793
#
# Stress axis : x y z
#
# Youngs Moduli (GPa) = 118.28154 105.93427 146.72140
#
# Poissons Ratio (x) = 0.22981 0.28416
# Poissons Ratio (y) = 0.25659 -0.03229
# Poissons Ratio (z) = 0.22908 -0.02332
#
# Static dielectric constant tensor:
#      x y z
#    x 1.878370 0.000000 0.000000 
#    y 0.000000 2.432200 0.000000 
#    z 0.000000 0.000000 1.746320 
# 
# From -- ./inp_files/25000.got.cif
#   From: 2010.05.17/outbox.cif.g08.bks.cpg/sg68_13_cif.got.tgz:25000.got - 2010.06.03 18:57:09.
