data_PCOD9510756
_publ_section_title
;
Structure prediction by ZEFSAII (Michael W. Deem and Ramdas Pophale) SiO2 
 PCOD9510756
Probable space group: C C C A
;
_chemical_formula_sum "Si O2"
_cell_formula_units_Z 48
_cell_length_a 14.639440
_cell_length_b 4.905152
_cell_length_c 29.818960
_cell_angle_alpha 90.000000
_cell_angle_beta 90.000000
_cell_angle_gamma 90.000000
_cell_volume 2141.260109
_symmetry_space_group_name_H-M "C C C A"
_symmetry_group_IT_number 68
_space_group.IT_coordinate_system_code '2'
_symmetry_cell_setting 'orthorhombic'
loop_
_space_group_symop_operation_xyz
x,y,z
-x,1/2-y,z
x,1/2-y,1/2-z
-x,y,1/2-z
-x,-y,-z
x,1/2+y,-z
-x,1/2+y,1/2+z
x,-y,1/2+z
1/2+x,1/2+y,z
1/2-x,-y,z
1/2+x,-y,1/2-z
1/2-x,1/2+y,1/2-z
1/2-x,1/2-y,-z
1/2+x,y,-z
1/2-x,y,1/2+z
1/2+x,1/2-y,1/2+z
loop_
_atom_site_type_symbol
_atom_site_label
_atom_site_fract_x
_atom_site_fract_y
_atom_site_fract_z
Si Si1 0.184636 0.250000 0.750000
Si Si2 0.000000 0.750000 0.966467
Si Si3 0.168889 0.294468 0.101600
Si Si4 0.893193 0.774440 0.344920
O O1 0.250000 0.500000 0.737639
O O2 0.125907 0.163081 0.706806
O O3 0.910772 0.718028 0.935384
O O4 0.000000 0.500000 0.000000
O O5 0.250000 0.500000 0.082938
O O6 0.142125 0.473258 0.144629
O O7 0.159810 0.985317 0.122274
O O8 0.000000 0.750000 0.355420
#
# Coordination Sequence:
#
# PCOD9510756 Si02
#       4
#     8   8  16  16
#     4  12  25  40  63 102 142 182 238 287 336 407
#     4  12  26  46  72 101 138 171 228 300 364 438
#     4  12  25  45  72 101 137 184 231 287 358 428
#     4  12  23  44  68  99 140 189 234 285 346 418
#
# _framework density 22.416705
#
# number of rings (size 3 to 8) (size 9 to 14) (size 15 to 20)
#    0.000    0.000    3.333    8.500    0.000    1.333 
#    0.000    5.000    0.000    0.000    0.000    0.000 
#    0.000    0.000    0.000    0.000    0.000    0.000 
#
# Total GULP energy -133723.815793 kJ/mol
# GULP energy per Si atom -5571.825658 kJ/mol
# Density = 2.236568 g / cm^3
# Si number density = 22.416705 Si / 1000 Ang^3
#
#
#
# Elastic Constant Matrix: (Units=GPa)
#
#
# Indices 1 2 3 4 5 6 
#
# 1 140.5203 12.5135 27.5805 0.0000 0.0000 0.0000
# 2 12.5135 146.2332 19.3632 0.0000 0.0000 0.0000
# 3 27.5805 19.3632 122.8612 0.0000 0.0000 0.0000
# 4 0.0000 0.0000 0.0000 -170.0608 0.0000 0.0000
# 5 0.0000 0.0000 0.0000 0.0000 29.0834 0.0000
# 6 0.0000 0.0000 0.0000 0.0000 0.0000 29.2927
#
#
#
# Elastic Compliance Matrix: (Units=1/GPa)
#
#
# Indices 1 2 3 4 5 6 
#
# 1 0.007470 -0.000426 -0.001610 0.000000 0.000000 0.000000
# 2 -0.000426 0.007008 -0.001009 0.000000 0.000000 0.000000
# 3 -0.001610 -0.001009 0.008660 0.000000 0.000000 0.000000
# 4 0.000000 0.000000 0.000000 -0.005880 0.000000 0.000000
# 5 0.000000 0.000000 0.000000 0.000000 0.034384 0.000000
# 6 0.000000 0.000000 0.000000 0.000000 0.000000 0.034138
#
#
# Mechanical properties :
#
#
# Convention : Reuss Voigt Hill
#
# Bulk Modulus (GPa) = 58.65517 58.72547 58.69032
# Shear Modulus (GPa) = 51.25426 1.00688 26.13057
#
# Velocity S-wave (km/s) = 4.78685 0.67092 3.41790
# Velocity P-wave (km/s) = 7.53489 5.18211 6.46641
#
# Compressibility (1/GPa) = 0.01704880
#
# Stress axis : x y z
#
# Youngs Moduli (GPa) = 133.86310 142.68504 115.47811
#
# Poissons Ratio (x) = 0.06080 0.18590
# Poissons Ratio (y) = 0.05704 0.11651
# Poissons Ratio (z) = 0.21550 0.14395
#
# Static dielectric constant tensor:
#      x y z
#    x 1.991690 0.000000 0.000000 
#    y 0.000000 1.853340 0.000000 
#    z 0.000000 0.000000 1.744370 
# 
# From -- ./inp_files/47869.got.cif
#   From: 2010.05.17/outbox.cif.g08.bks.cpg/sg68_24_cif.got.tgz:47869.got - 2010.06.03 18:57:09.
