data_PCOD9510786
_publ_section_title
;
Structure prediction by ZEFSAII (Michael W. Deem and Ramdas Pophale) SiO2 
 PCOD9510786
Probable space group: C C C A
;
_chemical_formula_sum "Si O2"
_cell_formula_units_Z 68
_cell_length_a 8.417601
_cell_length_b 26.503456
_cell_length_c 13.705242
_cell_angle_alpha 90.000000
_cell_angle_beta 90.000000
_cell_angle_gamma 90.000000
_cell_volume 3057.578060
_symmetry_space_group_name_H-M "C C C A"
_symmetry_group_IT_number 68
_space_group.IT_coordinate_system_code '2'
_symmetry_cell_setting 'orthorhombic'
loop_
_space_group_symop_operation_xyz
x,y,z
-x,1/2-y,z
x,1/2-y,1/2-z
-x,y,1/2-z
-x,-y,-z
x,1/2+y,-z
-x,1/2+y,1/2+z
x,-y,1/2+z
1/2+x,1/2+y,z
1/2-x,-y,z
1/2+x,-y,1/2-z
1/2-x,1/2+y,1/2-z
1/2-x,1/2-y,-z
1/2+x,y,-z
1/2-x,y,1/2+z
1/2+x,1/2-y,1/2+z
loop_
_atom_site_type_symbol
_atom_site_label
_atom_site_fract_x
_atom_site_fract_y
_atom_site_fract_z
Si Si1 0.171025 0.597971 0.281232
Si Si2 0.842898 0.890247 0.973383
Si Si3 0.000000 0.250000 0.250000
Si Si4 0.500000 0.500000 0.500000
Si Si5 0.862846 0.659629 0.864461
Si Si6 0.250000 0.500000 0.663144
O O1 0.201738 0.597759 0.396139
O O2 0.310566 0.628768 0.230562
O O3 0.185120 0.542852 0.235179
O O4 0.000000 0.618857 0.250000
O O5 0.980536 0.860671 0.917460
O O6 0.904195 0.945290 0.006211
O O7 0.775797 0.854720 0.058734
O O8 0.105242 0.284901 0.178079
O O9 0.396076 0.481002 0.595913
#
# Coordination Sequence:
#
# PCOD9510786 Si02
#       6
#    16  16   4   8  16   8
#     4  12  27  45  71 112 155 207 260 323 392 482
#     4  12  25  47  77 112 159 203 262 321 402 489
#     4  12  28  56  86 112 154 204 278 344 416 458
#     4  12  24  42  70 110 154 208 252 304 400 482
#     4  12  26  51  79 113 152 204 264 340 398 475
#     4  12  28  40  70 112 160 220 260 314 390 492
#
# _framework density 22.239826000000001
#
# number of rings (size 3 to 8) (size 9 to 14) (size 15 to 20)
#    0.000    0.000    7.059    1.412    6.588    0.941 
#    0.000    0.588    0.000    0.000    0.000    0.000 
#    0.000    0.000    0.000    0.000    0.000    0.000 
#
# Total GULP energy -189294.232358 kJ/mol
# GULP energy per Si atom -5567.477422 kJ/mol
# Density = 2.218921 g / cm^3
# Si number density = 22.239826 Si / 1000 Ang^3
#
#
#
# Elastic Constant Matrix: (Units=GPa)
#
#
# Indices 1 2 3 4 5 6 
#
# 1 94.2892 54.1293 49.1853 0.0000 0.0000 0.0000
# 2 54.1293 130.5270 58.0826 0.0000 0.0000 0.0000
# 3 49.1853 58.0826 129.9102 0.0000 0.0000 0.0000
# 4 0.0000 0.0000 0.0000 38.9887 0.0000 0.0000
# 5 0.0000 0.0000 0.0000 0.0000 38.5809 0.0000
# 6 0.0000 0.0000 0.0000 0.0000 0.0000 20.7520
#
#
#
# Elastic Compliance Matrix: (Units=1/GPa)
#
#
# Indices 1 2 3 4 5 6 
#
# 1 0.015200 -0.004672 -0.003666 0.000000 0.000000 0.000000
# 2 -0.004672 0.011000 -0.003149 0.000000 0.000000 0.000000
# 3 -0.003666 -0.003149 0.010494 0.000000 0.000000 0.000000
# 4 0.000000 0.000000 0.000000 0.025648 0.000000 0.000000
# 5 0.000000 0.000000 0.000000 0.000000 0.025920 0.000000
# 6 0.000000 0.000000 0.000000 0.000000 0.000000 0.048188
#
#
# Mechanical properties :
#
#
# Convention : Reuss Voigt Hill
#
# Bulk Modulus (GPa) = 72.89081 75.28010 74.08545
# Shear Modulus (GPa) = 30.48818 32.55294 31.52056
#
# Velocity S-wave (km/s) = 3.70656 3.83001 3.76879
# Velocity P-wave (km/s) = 7.15291 7.31310 7.23345
#
# Compressibility (1/GPa) = 0.01371915
#
# Stress axis : x y z
#
# Youngs Moduli (GPa) = 65.78857 90.90788 95.29587
#
# Poissons Ratio (x) = 0.42474 0.34936
# Poissons Ratio (y) = 0.30738 0.30011
# Poissons Ratio (z) = 0.24118 0.28629
#
# Static dielectric constant tensor:
#      x y z
#    x 1.890470 0.000000 0.000000 
#    y 0.000000 1.781470 0.000000 
#    z 0.000000 0.000000 1.885900 
# 
# From -- ./inp_files/19408.got.cif
#   From: 2010.05.17/outbox.cif.g08.bks.cpg/sg68_10_cif.got.tgz:19408.got - 2010.06.03 18:57:09.
