data_PCOD9510153
_publ_section_title
;
Structure prediction by ZEFSAII (Michael W. Deem and Ramdas Pophale) SiO2 
 PCOD9510153
Probable space group: C C C A
;
_chemical_formula_sum "Si O2"
_cell_formula_units_Z 64
_cell_length_a 28.734049
_cell_length_b 4.836547
_cell_length_c 19.961725
_cell_angle_alpha 90.000000
_cell_angle_beta 90.000000
_cell_angle_gamma 90.000000
_cell_volume 2774.152356
_symmetry_space_group_name_H-M "C C C A"
_symmetry_group_IT_number 68
_space_group.IT_coordinate_system_code '2'
_symmetry_cell_setting 'orthorhombic'
loop_
_space_group_symop_operation_xyz
x,y,z
-x,1/2-y,z
x,1/2-y,1/2-z
-x,y,1/2-z
-x,-y,-z
x,1/2+y,-z
-x,1/2+y,1/2+z
x,-y,1/2+z
1/2+x,1/2+y,z
1/2-x,-y,z
1/2+x,-y,1/2-z
1/2-x,1/2+y,1/2-z
1/2-x,1/2-y,-z
1/2+x,y,-z
1/2-x,y,1/2+z
1/2+x,1/2-y,1/2+z
loop_
_atom_site_type_symbol
_atom_site_label
_atom_site_fract_x
_atom_site_fract_y
_atom_site_fract_z
Si Si1 0.423237 0.750000 0.250000
Si Si2 0.356161 0.626092 0.139391
Si Si3 0.298186 0.847480 0.672514
Si Si4 0.500000 0.750000 0.351162
Si Si5 0.436345 0.456506 0.044841
O O1 0.389120 0.564573 0.204288
O O2 0.459456 0.620862 0.303807
O O3 0.310992 0.434744 0.136013
O O4 0.387472 0.553476 0.076134
O O5 0.338920 0.936906 0.152783
O O6 0.297017 0.750000 0.750000
O O7 0.250000 0.000000 0.658180
O O8 0.473511 0.960653 0.399251
O O9 0.441256 0.143195 0.021674
#
# Coordination Sequence:
#
# PCOD9510153 Si02
#       5
#     8  16  16   8  16
#     4   9  18  38  58  98 128 172 204 254 338 379
#     4  11  22  39  63  91 133 166 206 262 311 388
#     4  12  22  38  63  97 130 160 199 254 328 393
#     4   9  20  36  66  90 132 165 214 270 312 379
#     4  11  23  42  64  90 124 174 224 262 305 361
#
# _framework density 23.07011
#
# number of rings (size 3 to 8) (size 9 to 14) (size 15 to 20)
#    0.000    1.250    2.500    4.500    0.000    0.000 
#    0.000    5.000    0.000   30.000    0.000    0.000 
#    0.000    0.000    0.000    0.000    0.000    0.000 
#
# Total GULP energy -178789.870269 kJ/mol
# GULP energy per Si atom -5587.183446 kJ/mol
# Density = 2.301760 g / cm^3
# Si number density = 23.070110 Si / 1000 Ang^3
#
#
#
# Elastic Constant Matrix: (Units=GPa)
#
#
# Indices 1 2 3 4 5 6 
#
# 1 94.7951 8.3606 23.8788 0.0000 0.0000 0.0000
# 2 8.3606 77.1106 -3.2015 0.0000 0.0000 0.0000
# 3 23.8788 -3.2015 64.7771 0.0000 0.0000 0.0000
# 4 0.0000 0.0000 0.0000 3.7347 0.0000 0.0000
# 5 0.0000 0.0000 0.0000 0.0000 40.6471 0.0000
# 6 0.0000 0.0000 0.0000 0.0000 0.0000 33.9303
#
#
#
# Elastic Compliance Matrix: (Units=1/GPa)
#
#
# Indices 1 2 3 4 5 6 
#
# 1 0.011791 -0.001462 -0.004419 0.000000 0.000000 0.000000
# 2 -0.001462 0.013176 0.001190 0.000000 0.000000 0.000000
# 3 -0.004419 0.001190 0.017125 0.000000 0.000000 0.000000
# 4 0.000000 0.000000 0.000000 0.267760 0.000000 0.000000
# 5 0.000000 0.000000 0.000000 0.000000 0.024602 0.000000
# 6 0.000000 0.000000 0.000000 0.000000 0.000000 0.029472
#
#
# Mechanical properties :
#
#
# Convention : Reuss Voigt Hill
#
# Bulk Modulus (GPa) = 30.57030 32.75097 31.66064
# Shear Modulus (GPa) = 13.01366 29.50542 21.25954
#
# Velocity S-wave (km/s) = 2.37764 3.58011 3.03895
# Velocity P-wave (km/s) = 4.56260 5.59613 5.10559
#
# Compressibility (1/GPa) = 0.03271149
#
# Stress axis : x y z
#
# Youngs Moduli (GPa) = 84.80972 75.89385 58.39324
#
# Poissons Ratio (x) = 0.11095 0.25803
# Poissons Ratio (y) = 0.12398 -0.06949
# Poissons Ratio (z) = 0.37476 -0.09032
#
# Static dielectric constant tensor:
#      x y z
#    x 1.933900 0.000000 0.000000 
#    y 0.000000 1.850370 0.000000 
#    z 0.000000 0.000000 1.898070 
# 
# From -- ./inp_files/34293.got.cif
#   From: 2010.05.17/outbox.cif.g08.bks.cpg/sg68_18_cif.got.tgz:34293.got - 2010.06.03 18:57:09.
