data_PCOD9510407
_publ_section_title
;
Structure prediction by ZEFSAII (Michael W. Deem and Ramdas Pophale) SiO2 
 PCOD9510407
Probable space group: C C C A
;
_chemical_formula_sum "Si O2"
_cell_formula_units_Z 80
_cell_length_a 19.132910
_cell_length_b 17.818006
_cell_length_c 9.222837
_cell_angle_alpha 90.000000
_cell_angle_beta 90.000000
_cell_angle_gamma 90.000000
_cell_volume 3144.160176
_symmetry_space_group_name_H-M "C C C A"
_symmetry_group_IT_number 68
_space_group.IT_coordinate_system_code '2'
_symmetry_cell_setting 'orthorhombic'
loop_
_space_group_symop_operation_xyz
x,y,z
-x,1/2-y,z
x,1/2-y,1/2-z
-x,y,1/2-z
-x,-y,-z
x,1/2+y,-z
-x,1/2+y,1/2+z
x,-y,1/2+z
1/2+x,1/2+y,z
1/2-x,-y,z
1/2+x,-y,1/2-z
1/2-x,1/2+y,1/2-z
1/2-x,1/2-y,-z
1/2+x,y,-z
1/2-x,y,1/2+z
1/2+x,1/2-y,1/2+z
loop_
_atom_site_type_symbol
_atom_site_label
_atom_site_fract_x
_atom_site_fract_y
_atom_site_fract_z
Si Si1 0.465545 0.421075 0.515336
Si Si2 0.314356 0.042666 0.854135
Si Si3 0.688797 0.694820 0.460385
Si Si4 0.565213 0.799552 0.507709
Si Si5 0.130439 0.108713 0.730681
O O1 0.500000 0.500000 0.500000
O O2 0.391954 0.436664 0.591133
O O3 0.521911 0.363084 0.578705
O O4 0.442526 0.398338 0.354225
O O5 0.250000 0.000000 0.936955
O O6 0.334189 0.973568 0.747275
O O7 0.290055 0.130093 0.844321
O O8 0.750000 0.750000 0.500000
O O9 0.618486 0.742903 0.428248
O O10 0.674485 0.654416 0.613945
O O11 0.500000 0.750000 0.567588
O O12 0.612179 0.845718 0.623711
#
# Coordination Sequence:
#
# PCOD9510407 Si02
#       5
#    16  16  16  16  16
#     4  11  24  40  69 103 138 183 234 303 357 432
#     4  11  24  44  65 100 144 188 240 291 367 437
#     4  11  26  44  70 105 144 187 241 305 368 430
#     4  12  22  40  71 106 140 181 245 295 360 423
#     4  11  24  40  72 102 136 182 240 292 355 439
#
# _framework density 25.443995000000001
#
# number of rings (size 3 to 8) (size 9 to 14) (size 15 to 20)
#    0.000    0.800    6.000    2.400    2.800    3.200 
#    0.000    0.000    0.000    0.000    5.200    0.000 
#    0.000    0.000    0.000    0.000    0.000    0.000 
#
# Total GULP energy -222855.626791 kJ/mol
# GULP energy per Si atom -5571.390670 kJ/mol
# Density = 2.538608 g / cm^3
# Si number density = 25.443995 Si / 1000 Ang^3
#
#
#
# Elastic Constant Matrix: (Units=GPa)
#
#
# Indices 1 2 3 4 5 6 
#
# 1 147.1648 95.6878 28.2180 0.0000 0.0000 0.0000
# 2 95.6878 224.4196 33.5519 0.0000 0.0000 0.0000
# 3 28.2180 33.5519 52.7882 0.0000 0.0000 0.0000
# 4 0.0000 0.0000 0.0000 31.1840 0.0000 0.0000
# 5 0.0000 0.0000 0.0000 0.0000 27.5824 0.0000
# 6 0.0000 0.0000 0.0000 0.0000 0.0000 98.9966
#
#
#
# Elastic Compliance Matrix: (Units=1/GPa)
#
#
# Indices 1 2 3 4 5 6 
#
# 1 0.009774 -0.003742 -0.002846 0.000000 0.000000 0.000000
# 2 -0.003742 0.006356 -0.002040 0.000000 0.000000 0.000000
# 3 -0.002846 -0.002040 0.021762 0.000000 0.000000 0.000000
# 4 0.000000 0.000000 0.000000 0.032068 0.000000 0.000000
# 5 0.000000 0.000000 0.000000 0.000000 0.036255 0.000000
# 6 0.000000 0.000000 0.000000 0.000000 0.000000 0.010101
#
#
# Mechanical properties :
#
#
# Convention : Reuss Voigt Hill
#
# Bulk Modulus (GPa) = 48.45942 82.14312 65.30127
# Shear Modulus (GPa) = 35.59970 49.34691 42.47330
#
# Velocity S-wave (km/s) = 3.74457 4.40868 4.09012
# Velocity P-wave (km/s) = 6.14675 7.63343 6.93007
#
# Compressibility (1/GPa) = 0.02063582
#
# Stress axis : x y z
#
# Youngs Moduli (GPa) = 102.31404 157.32317 45.95231
#
# Poissons Ratio (x) = 0.58867 0.13080
# Poissons Ratio (y) = 0.38284 0.09374
# Poissons Ratio (z) = 0.29122 0.32092
#
# Static dielectric constant tensor:
#      x y z
#    x 2.135370 0.000000 0.000000 
#    y 0.000000 2.244310 0.000000 
#    z 0.000000 0.000000 2.040070 
# 
# From -- ./inp_files/23474.got.cif
#   From: 2010.05.17/outbox.cif.g08.bks.cpg/sg68_12_cif.got.tgz:23474.got - 2010.06.03 18:57:09.
