data_PCOD9510746
_publ_section_title
;
Structure prediction by ZEFSAII (Michael W. Deem and Ramdas Pophale) SiO2 
 PCOD9510746
Probable space group: C C C A
;
_chemical_formula_sum "Si O2"
_cell_formula_units_Z 64
_cell_length_a 16.075720
_cell_length_b 10.280974
_cell_length_c 16.089001
_cell_angle_alpha 90.000000
_cell_angle_beta 90.000000
_cell_angle_gamma 90.000000
_cell_volume 2659.094506
_symmetry_space_group_name_H-M "C C C A"
_symmetry_group_IT_number 68
_space_group.IT_coordinate_system_code '2'
_symmetry_cell_setting 'orthorhombic'
loop_
_space_group_symop_operation_xyz
x,y,z
-x,1/2-y,z
x,1/2-y,1/2-z
-x,y,1/2-z
-x,-y,-z
x,1/2+y,-z
-x,1/2+y,1/2+z
x,-y,1/2+z
1/2+x,1/2+y,z
1/2-x,-y,z
1/2+x,-y,1/2-z
1/2-x,1/2+y,1/2-z
1/2-x,1/2-y,-z
1/2+x,y,-z
1/2-x,y,1/2+z
1/2+x,1/2-y,1/2+z
loop_
_atom_site_type_symbol
_atom_site_label
_atom_site_fract_x
_atom_site_fract_y
_atom_site_fract_z
Si Si1 0.750000 0.000000 0.963111
Si Si2 0.000000 0.750000 0.600272
Si Si3 0.692796 0.187173 0.336879
Si Si4 0.467040 0.973743 0.664412
Si Si5 0.098513 0.374210 0.541293
O O1 0.753875 0.872082 0.905185
O O2 0.835486 0.986440 0.015551
O O3 0.003406 0.877573 0.656996
O O4 0.924639 0.716781 0.536620
O O5 0.722179 0.250000 0.250000
O O6 0.642277 0.297523 0.384639
O O7 0.629168 0.065039 0.328452
O O8 0.500000 0.914864 0.750000
O O9 0.511045 0.918132 0.581828
#
# Coordination Sequence:
#
# PCOD9510746 Si02
#       5
#     8   8  16  16  16
#     4  12  28  48  66 114 150 188 244 288 376 442
#     4  12  23  42  71 106 142 180 244 300 347 426
#     4  12  25  47  73 102 146 190 237 298 365 431
#     4  12  24  45  74 106 138 188 244 299 355 422
#     4  12  24  45  78 103 142 192 239 301 354 429
#
# _framework density 24.068345000000001
#
# number of rings (size 3 to 8) (size 9 to 14) (size 15 to 20)
#    0.000    0.000    7.500    3.375    0.000    1.000 
#    4.500    0.000    0.000    0.000    0.000    0.000 
#    0.000    0.000    0.000    0.000    0.000    0.000 
#
# Total GULP energy -178521.737005 kJ/mol
# GULP energy per Si atom -5578.804281 kJ/mol
# Density = 2.401356 g / cm^3
# Si number density = 24.068345 Si / 1000 Ang^3
#
#
#
# Elastic Constant Matrix: (Units=GPa)
#
#
# Indices 1 2 3 4 5 6 
#
# 1 62.9736 -0.7278 -0.8733 0.0000 0.0000 0.0000
# 2 -0.7278 83.3589 0.6896 0.0000 0.0000 0.0000
# 3 -0.8733 0.6896 87.1402 0.0000 0.0000 0.0000
# 4 0.0000 0.0000 0.0000 33.8180 0.0000 0.0000
# 5 0.0000 0.0000 0.0000 0.0000 15.2613 0.0000
# 6 0.0000 0.0000 0.0000 0.0000 0.0000 754.0221
#
#
#
# Elastic Compliance Matrix: (Units=1/GPa)
#
#
# Indices 1 2 3 4 5 6 
#
# 1 0.015883 0.000137 0.000158 0.000000 0.000000 0.000000
# 2 0.000137 0.011998 -0.000094 0.000000 0.000000 0.000000
# 3 0.000158 -0.000094 0.011478 0.000000 0.000000 0.000000
# 4 0.000000 0.000000 0.000000 0.029570 0.000000 0.000000
# 5 0.000000 0.000000 0.000000 0.000000 0.065525 0.000000
# 6 0.000000 0.000000 0.000000 0.000000 0.000000 0.001326
#
#
# Mechanical properties :
#
#
# Convention : Reuss Voigt Hill
#
# Bulk Modulus (GPa) = 25.14860 25.73883 25.44372
# Shear Modulus (GPa) = 33.64016 176.24590 104.94303
#
# Velocity S-wave (km/s) = 3.74263 8.56658 6.61035
# Velocity P-wave (km/s) = 5.39888 10.41948 8.29800
#
# Compressibility (1/GPa) = 0.03976365
#
# Stress axis : x y z
#
# Youngs Moduli (GPa) = 62.95856 83.34518 87.12255
#
# Poissons Ratio (x) = -0.01145 -0.01377
# Poissons Ratio (y) = -0.00865 0.00815
# Poissons Ratio (z) = -0.00995 0.00780
#
# Static dielectric constant tensor:
#      x y z
#    x 2.016080 0.000000 0.000000 
#    y 0.000000 1.374820 0.000000 
#    z 0.000000 0.000000 1.934080 
# 
# From -- ./inp_files/20526.got.cif
#   From: 2010.05.17/outbox.cif.g08.bks.cpg/sg68_11_cif.got.tgz:20526.got - 2010.06.03 18:57:09.
