data_PCOD9510519
_publ_section_title
;
Structure prediction by ZEFSAII (Michael W. Deem and Ramdas Pophale) SiO2 
 PCOD9510519
Probable space group: C C C A
;
_chemical_formula_sum "Si O2"
_cell_formula_units_Z 96
_cell_length_a 20.730872
_cell_length_b 15.184449
_cell_length_c 13.652710
_cell_angle_alpha 90.000000
_cell_angle_beta 90.000000
_cell_angle_gamma 90.000000
_cell_volume 4297.693829
_symmetry_space_group_name_H-M "C C C A"
_symmetry_group_IT_number 68
_space_group.IT_coordinate_system_code '2'
_symmetry_cell_setting 'orthorhombic'
loop_
_space_group_symop_operation_xyz
x,y,z
-x,1/2-y,z
x,1/2-y,1/2-z
-x,y,1/2-z
-x,-y,-z
x,1/2+y,-z
-x,1/2+y,1/2+z
x,-y,1/2+z
1/2+x,1/2+y,z
1/2-x,-y,z
1/2+x,-y,1/2-z
1/2-x,1/2+y,1/2-z
1/2-x,1/2-y,-z
1/2+x,y,-z
1/2-x,y,1/2+z
1/2+x,1/2-y,1/2+z
loop_
_atom_site_type_symbol
_atom_site_label
_atom_site_fract_x
_atom_site_fract_y
_atom_site_fract_z
Si Si1 0.156827 0.335029 0.304696
Si Si2 0.945112 0.964626 0.105176
Si Si3 0.751345 0.106122 0.141021
Si Si4 0.133749 0.813244 0.473262
Si Si5 0.410847 0.484017 0.319804
Si Si6 0.368238 0.385501 0.493499
O O1 0.128681 0.250000 0.250000
O O2 0.220638 0.357898 0.242975
O O3 0.165962 0.319773 0.419396
O O4 0.108509 0.416406 0.299018
O O5 0.923884 0.884125 0.036177
O O6 0.916462 0.943093 0.212589
O O7 0.020663 0.975238 0.125518
O O8 0.914471 0.054159 0.061770
O O9 0.686838 0.154176 0.104960
O O10 0.750000 0.000000 0.148592
O O11 0.803615 0.123569 0.055963
O O12 0.110035 0.712834 0.464902
O O13 0.360157 0.439622 0.392941
#
# Coordination Sequence:
#
# PCOD9510519 Si02
#       6
#    16  16  16  16  16  16
#     4  12  24  45  71 104 143 185 245 300 363 432
#     4  11  24  48  70 104 147 185 243 296 363 433
#     4  12  24  46  68 100 143 187 238 297 361 439
#     4  12  26  45  71 105 145 187 242 293 365 442
#     4  11  24  46  75 100 144 190 234 306 359 430
#     4  12  24  44  70 103 142 189 235 299 364 429
#
# _framework density 22.337561000000001
#
# number of rings (size 3 to 8) (size 9 to 14) (size 15 to 20)
#    0.000    0.333    6.667    1.000    0.000    4.667 
#    0.000    6.667    0.000    0.000    0.000    0.000 
#    0.000    0.000    0.000    0.000    0.000    0.000 
#
# Total GULP energy -268434.645219 kJ/mol
# GULP energy per Si atom -5592.388442 kJ/mol
# Density = 2.228672 g / cm^3
# Si number density = 22.337561 Si / 1000 Ang^3
#
#
#
# Elastic Constant Matrix: (Units=GPa)
#
#
# Indices 1 2 3 4 5 6 
#
# 1 61.2723 40.1034 43.3141 0.0000 0.0000 0.0000
# 2 40.1034 176.2580 38.7433 0.0000 0.0000 0.0000
# 3 43.3141 38.7433 123.4262 0.0000 0.0000 0.0000
# 4 0.0000 0.0000 0.0000 38.9875 0.0000 0.0000
# 5 0.0000 0.0000 0.0000 0.0000 11.0839 0.0000
# 6 0.0000 0.0000 0.0000 0.0000 0.0000 8.1954
#
#
#
# Elastic Compliance Matrix: (Units=1/GPa)
#
#
# Indices 1 2 3 4 5 6 
#
# 1 0.023929 -0.003865 -0.007184 0.000000 0.000000 0.000000
# 2 -0.003865 0.006718 -0.000752 0.000000 0.000000 0.000000
# 3 -0.007184 -0.000752 0.010859 0.000000 0.000000 0.000000
# 4 0.000000 0.000000 0.000000 0.025649 0.000000 0.000000
# 5 0.000000 0.000000 0.000000 0.000000 0.090221 0.000000
# 6 0.000000 0.000000 0.000000 0.000000 0.000000 0.122020
#
#
# Mechanical properties :
#
#
# Convention : Reuss Voigt Hill
#
# Bulk Modulus (GPa) = 55.85672 67.25316 61.55494
# Shear Modulus (GPa) = 16.18287 27.57305 21.87796
#
# Velocity S-wave (km/s) = 2.69452 3.51719 3.13297
# Velocity P-wave (km/s) = 5.89411 6.83134 6.37996
#
# Compressibility (1/GPa) = 0.01790295
#
# Stress axis : x y z
#
# Youngs Moduli (GPa) = 41.79021 148.84585 92.08678
#
# Poissons Ratio (x) = 0.57534 0.66156
# Poissons Ratio (y) = 0.16153 0.06929
# Poissons Ratio (z) = 0.30023 0.11199
#
# Static dielectric constant tensor:
#      x y z
#    x 1.845810 0.000000 0.000000 
#    y 0.000000 1.843300 0.000000 
#    z 0.000000 0.000000 1.847030 
# 
# From -- ./inp_files/24430.got.cif
#   From: 2010.05.17/outbox.cif.g08.bks.cpg/sg68_13_cif.got.tgz:24430.got - 2010.06.03 18:57:09.
