data_PCOD9510740
_publ_section_title
;
Structure prediction by ZEFSAII (Michael W. Deem and Ramdas Pophale) SiO2 
 PCOD9510740
Probable space group: C C C A
;
_chemical_formula_sum "Si O2"
_cell_formula_units_Z 80
_cell_length_a 8.791248
_cell_length_b 16.563544
_cell_length_c 25.196601
_cell_angle_alpha 90.000000
_cell_angle_beta 90.000000
_cell_angle_gamma 90.000000
_cell_volume 3668.983478
_symmetry_space_group_name_H-M "C C C A"
_symmetry_group_IT_number 68
_space_group.IT_coordinate_system_code '2'
_symmetry_cell_setting 'orthorhombic'
loop_
_space_group_symop_operation_xyz
x,y,z
-x,1/2-y,z
x,1/2-y,1/2-z
-x,y,1/2-z
-x,-y,-z
x,1/2+y,-z
-x,1/2+y,1/2+z
x,-y,1/2+z
1/2+x,1/2+y,z
1/2-x,-y,z
1/2+x,-y,1/2-z
1/2-x,1/2+y,1/2-z
1/2-x,1/2-y,-z
1/2+x,y,-z
1/2-x,y,1/2+z
1/2+x,1/2-y,1/2+z
loop_
_atom_site_type_symbol
_atom_site_label
_atom_site_fract_x
_atom_site_fract_y
_atom_site_fract_z
Si Si1 0.373559 0.072335 0.109197
Si Si2 0.685619 0.584435 0.938672
Si Si3 0.295481 0.675222 0.461229
Si Si4 0.932861 0.513071 0.808319
Si Si5 0.439411 0.333544 0.616735
O O1 0.507367 0.073217 0.066122
O O2 0.293705 0.156684 0.093472
O O3 0.250000 0.000000 0.106596
O O4 0.471001 0.058584 0.162906
O O5 0.750000 0.500000 0.919728
O O6 0.764818 0.653207 0.902165
O O7 0.727453 0.601410 0.998854
O O8 0.250000 0.750000 0.500000
O O9 0.466876 0.667103 0.438968
O O10 0.750000 0.500000 0.805299
O O11 0.968589 0.591605 0.844635
O O12 0.000000 0.524380 0.750000
O O13 0.500000 0.250000 0.641513
#
# Coordination Sequence:
#
# PCOD9510740 Si02
#       5
#    16  16  16  16  16
#     4  12  23  43  70 104 143 192 255 317 365 449
#     4  12  23  41  65 100 145 193 243 296 361 459
#     4  12  26  40  64 107 155 203 238 292 373 460
#     4  12  26  50  80 110 138 192 261 332 393 447
#     4  12  24  46  68 106 150 190 244 307 382 463
#
# _framework density 21.804404999999999
#
# number of rings (size 3 to 8) (size 9 to 14) (size 15 to 20)
#    0.000    0.000    8.000    2.400    0.000    2.800 
#    0.000    0.000    0.000    0.000    0.000    0.000 
#    0.000    0.000    0.000    0.000    0.000    0.000 
#
# Total GULP energy -222766.271835 kJ/mol
# GULP energy per Si atom -5569.156796 kJ/mol
# Density = 2.175478 g / cm^3
# Si number density = 21.804405 Si / 1000 Ang^3
#
#
#
# Elastic Constant Matrix: (Units=GPa)
#
#
# Indices 1 2 3 4 5 6 
#
# 1 160.6413 47.7127 42.2020 0.0000 0.0000 0.0000
# 2 47.7127 112.1820 49.7439 0.0000 0.0000 0.0000
# 3 42.2020 49.7439 138.5095 0.0000 0.0000 0.0000
# 4 0.0000 0.0000 0.0000 5.1583 0.0000 0.0000
# 5 0.0000 0.0000 0.0000 0.0000 38.7304 0.0000
# 6 0.0000 0.0000 0.0000 0.0000 0.0000 27.0956
#
#
#
# Elastic Compliance Matrix: (Units=1/GPa)
#
#
# Indices 1 2 3 4 5 6 
#
# 1 0.007324 -0.002528 -0.001324 0.000000 0.000000 0.000000
# 2 -0.002528 0.011475 -0.003351 0.000000 0.000000 0.000000
# 3 -0.001324 -0.003351 0.008826 0.000000 0.000000 0.000000
# 4 0.000000 0.000000 0.000000 0.193863 0.000000 0.000000
# 5 0.000000 0.000000 0.000000 0.000000 0.025819 0.000000
# 6 0.000000 0.000000 0.000000 0.000000 0.000000 0.036906
#
#
# Mechanical properties :
#
#
# Convention : Reuss Voigt Hill
#
# Bulk Modulus (GPa) = 75.64088 76.73890 76.18989
# Shear Modulus (GPa) = 16.50026 32.30848 24.40437
#
# Velocity S-wave (km/s) = 2.75387 3.85351 3.34913
# Velocity P-wave (km/s) = 6.69908 7.42092 7.06922
#
# Compressibility (1/GPa) = 0.01322036
#
# Stress axis : x y z
#
# Youngs Moduli (GPa) = 136.54509 87.14501 113.29626
#
# Poissons Ratio (x) = 0.22030 0.14995
# Poissons Ratio (y) = 0.34518 0.37965
# Poissons Ratio (z) = 0.18072 0.29201
#
# Static dielectric constant tensor:
#      x y z
#    x 2.250630 0.000000 0.000000 
#    y 0.000000 1.944920 0.000000 
#    z 0.000000 0.000000 1.757980 
# 
# From -- ./inp_files/49113.got.cif
#   From: 2010.05.17/outbox.cif.g08.bks.cpg/sg68_25_cif.got.tgz:49113.got - 2010.06.03 18:57:09.
