data_PCOD9510964
_publ_section_title
;
Structure prediction by ZEFSAII (Michael W. Deem and Ramdas Pophale) SiO2 
 PCOD9510964
Probable space group: C C C A
;
_chemical_formula_sum "Si O2"
_cell_formula_units_Z 34
_cell_length_a 9.000000
_cell_length_b 18.000000
_cell_length_c 21.000000
_cell_angle_alpha 90.000000
_cell_angle_beta 90.000000
_cell_angle_gamma 90.000000
_cell_volume 3402.000000
_symmetry_space_group_name_H-M "C C C A"
_symmetry_group_IT_number 68
_space_group.IT_coordinate_system_code '2'
_symmetry_cell_setting 'orthorhombic'
loop_
_space_group_symop_operation_xyz
x,y,z
-x,1/2-y,z
x,1/2-y,1/2-z
-x,y,1/2-z
-x,-y,-z
x,1/2+y,-z
-x,1/2+y,1/2+z
x,-y,1/2+z
1/2+x,1/2+y,z
1/2-x,-y,z
1/2+x,-y,1/2-z
1/2-x,1/2+y,1/2-z
1/2-x,1/2-y,-z
1/2+x,y,-z
1/2-x,y,1/2+z
1/2+x,1/2-y,1/2+z
loop_
_atom_site_type_symbol
_atom_site_label
_atom_site_fract_x
_atom_site_fract_y
_atom_site_fract_z
Si Si1 0.000000 0.750000 0.250000
Si Si2 0.752630 0.706833 0.347970
Si Si3 0.449966 0.854875 0.176331
Si Si4 0.763278 0.585532 0.568110
Si Si5 0.460995 0.827773 0.967289
O O1 0.116434 0.796330 0.294202
O O2 0.615010 0.649762 0.354160
O O3 0.654222 0.780720 0.331461
O O4 0.848122 0.699407 0.411991
O O5 0.500000 0.865508 0.250000
O O6 0.344281 0.910579 0.137329
O O7 0.750000 0.500000 0.550691
O O8 0.605362 0.629499 0.561550
O O9 0.874653 0.623119 0.517977
O O10 0.500000 0.750000 0.001352
#
# Coordination Sequence:
#
# PCOD9510964 Si02
#       5
#     4  16  16  16  16
#     4  12  16  34  56 104 144 154 218 296 366 390
#     4  11  21  36  68 103 135 173 230 300 349 410
#     4  11  22  42  66  99 141 187 233 291 361 422
#     4  12  27  46  68 103 152 191 236 293 366 426
#     4  12  24  43  71 105 137 188 244 297 347 424
#
# _framework density 9.9941209999999998
#
# number of rings (size 3 to 8) (size 9 to 14) (size 15 to 20)
#    0.000    0.471    5.882    3.529    3.294    0.000 
#    0.000    2.353    0.000    0.000    0.000    0.000 
#    0.000    0.000    0.000    0.000    0.000    0.000 
#
# Total GULP energy -189527.393775 kJ/mol
# GULP energy per Si atom -5574.335111 kJ/mol
# Density = 0.997137 g / cm^3
# Si number density = 9.994121 Si / 1000 Ang^3
#
#
#
# Elastic Constant Matrix: (Units=GPa)
#
#
# Indices 1 2 3 4 5 6 
#
# 1 175.2149 48.1797 45.4276 0.0000 0.0000 0.0000
# 2 48.1797 117.0315 37.4805 0.0000 0.0000 0.0000
# 3 45.4276 37.4805 106.9176 0.0000 0.0000 0.0000
# 4 0.0000 0.0000 0.0000 -25.2866 0.0000 0.0000
# 5 0.0000 0.0000 0.0000 0.0000 29.4686 0.0000
# 6 0.0000 0.0000 0.0000 0.0000 0.0000 22.3076
#
#
#
# Elastic Compliance Matrix: (Units=1/GPa)
#
#
# Indices 1 2 3 4 5 6 
#
# 1 0.006854 -0.002128 -0.002166 0.000000 0.000000 0.000000
# 2 -0.002128 0.010286 -0.002702 0.000000 0.000000 0.000000
# 3 -0.002166 -0.002702 0.011220 0.000000 0.000000 0.000000
# 4 0.000000 0.000000 0.000000 -0.039547 0.000000 0.000000
# 5 0.000000 0.000000 0.000000 0.000000 0.033934 0.000000
# 6 0.000000 0.000000 0.000000 0.000000 0.000000 0.044828
#
#
# Mechanical properties :
#
#
# Convention : Reuss Voigt Hill
#
# Bulk Modulus (GPa) = 69.59500 73.48216 71.53858
# Shear Modulus (GPa) = 57.89900 23.16967 40.53433
#
# Velocity S-wave (km/s) = 5.38789 3.40834 4.50812
# Velocity P-wave (km/s) = 8.57901 7.23406 7.93508
#
# Compressibility (1/GPa) = 0.01436885
#
# Stress axis : x y z
#
# Youngs Moduli (GPa) = 145.89949 97.21974 89.12279
#
# Poissons Ratio (x) = 0.20688 0.19306
# Poissons Ratio (y) = 0.31046 0.24078
# Poissons Ratio (z) = 0.31605 0.26266
#
# Static dielectric constant tensor:
#      x y z
#    x 1.700240 0.000000 0.000000 
#    y 0.000000 1.760390 0.000000 
#    z 0.000000 0.000000 1.770460 
# 
# From -- ./inp_files/35848.got.cif
#   From: 2010.05.17/outbox.ucp.g08.bks.cvg/sg68_18_cif.got.tgz:35848.got - 2010.06.11 16:49:25.
