data_PCOD9510880
_publ_section_title
;
Structure prediction by ZEFSAII (Michael W. Deem and Ramdas Pophale) SiO2 
 PCOD9510880
Probable space group: C C C A
;
_chemical_formula_sum "Si O2"
_cell_formula_units_Z 28
_cell_length_a 21.204895
_cell_length_b 4.699289
_cell_length_c 10.999867
_cell_angle_alpha 90.000000
_cell_angle_beta 90.000000
_cell_angle_gamma 90.000000
_cell_volume 1096.113975
_symmetry_space_group_name_H-M "C C C A"
_symmetry_group_IT_number 68
_space_group.IT_coordinate_system_code '2'
_symmetry_cell_setting 'orthorhombic'
loop_
_space_group_symop_operation_xyz
x,y,z
-x,1/2-y,z
x,1/2-y,1/2-z
-x,y,1/2-z
-x,-y,-z
x,1/2+y,-z
-x,1/2+y,1/2+z
x,-y,1/2+z
1/2+x,1/2+y,z
1/2-x,-y,z
1/2+x,-y,1/2-z
1/2-x,1/2+y,1/2-z
1/2-x,1/2-y,-z
1/2+x,y,-z
1/2-x,y,1/2+z
1/2+x,1/2-y,1/2+z
loop_
_atom_site_type_symbol
_atom_site_label
_atom_site_fract_x
_atom_site_fract_y
_atom_site_fract_z
Si Si1 0.500000 0.750000 0.250000
Si Si2 0.207277 0.250000 0.750000
Si Si3 0.904558 0.097523 0.916253
O O1 0.543931 0.541387 0.170564
O O2 0.250000 0.500000 0.694454
O O3 0.162075 0.405755 0.847241
O O4 0.910240 0.922027 0.041285
#
# Coordination Sequence:
#
# PCOD9510880 Si02
#       3
#     4   8  16
#     4  12  26  50  76 112 154 186 244 308 364 444
#     4  12  27  49  74 107 151 194 248 304 356 434
#     4  12  27  47  76 109 146 195 242 300 370 433
#
# _framework density 25.544788
#
# number of rings (size 3 to 8) (size 9 to 14) (size 15 to 20)
#    0.000    0.000    0.000   10.286    0.000   14.857 
#    0.000    0.000    0.000    0.000    0.000    0.000 
#    0.000    0.000    0.000    0.000    0.000    0.000 
#
# Total GULP energy -78520.896446 kJ/mol
# GULP energy per Si atom -5608.635460 kJ/mol
# Density = 2.548665 g / cm^3
# Si number density = 25.544788 Si / 1000 Ang^3
#
#
#
# Elastic Constant Matrix: (Units=GPa)
#
#
# Indices 1 2 3 4 5 6 
#
# 1 181.1693 71.4085 62.0628 0.0000 0.0000 0.0000
# 2 71.4085 136.7644 23.6838 0.0000 0.0000 0.0000
# 3 62.0628 23.6838 94.8922 0.0000 0.0000 0.0000
# 4 0.0000 0.0000 0.0000 41.6225 0.0000 0.0000
# 5 0.0000 0.0000 0.0000 0.0000 -13.6348 0.0000
# 6 0.0000 0.0000 0.0000 0.0000 0.0000 94.0633
#
#
#
# Elastic Compliance Matrix: (Units=1/GPa)
#
#
# Indices 1 2 3 4 5 6 
#
# 1 0.008570 -0.003662 -0.004691 0.000000 0.000000 0.000000
# 2 -0.003662 0.009207 0.000097 0.000000 0.000000 0.000000
# 3 -0.004691 0.000097 0.013582 0.000000 0.000000 0.000000
# 4 0.000000 0.000000 0.000000 0.024025 0.000000 0.000000
# 5 0.000000 0.000000 0.000000 0.000000 -0.073341 0.000000
# 6 0.000000 0.000000 0.000000 0.000000 0.000000 0.010631
#
#
# Mechanical properties :
#
#
# Convention : Reuss Voigt Hill
#
# Bulk Modulus (GPa) = 67.35275 80.79292 74.07284
# Shear Modulus (GPa) = 353.69617 41.45491 197.57554
#
# Velocity S-wave (km/s) = 11.77972 4.03281 8.80413
# Velocity P-wave (km/s) = 14.54096 7.30625 11.50697
#
# Compressibility (1/GPa) = 0.01484720
#
# Stress axis : x y z
#
# Youngs Moduli (GPa) = 116.68195 108.61029 73.62587
#
# Poissons Ratio (x) = 0.39778 0.34539
# Poissons Ratio (y) = 0.42734 -0.00717
# Poissons Ratio (z) = 0.54738 -0.01057
#
# Static dielectric constant tensor:
#      x y z
#    x 1.987060 0.000000 0.000000 
#    y 0.000000 1.930600 0.000000 
#    z 0.000000 0.000000 1.970850 
# 
# From -- ./inp_files/3007.got.cif
#   From: 2010.05.17/outbox.cif.g08.bks.cpg/sg68_2_cif.got.tgz:3007.got - 2010.06.03 18:57:09.
