data_PCOD9510352
_publ_section_title
;
Structure prediction by ZEFSAII (Michael W. Deem and Ramdas Pophale) SiO2 
 PCOD9510352
Probable space group: C C C A
;
_chemical_formula_sum "Si O2"
_cell_formula_units_Z 48
_cell_length_a 9.326170
_cell_length_b 23.253008
_cell_length_c 10.028036
_cell_angle_alpha 90.000000
_cell_angle_beta 90.000000
_cell_angle_gamma 90.000000
_cell_volume 2174.694985
_symmetry_space_group_name_H-M "C C C A"
_symmetry_group_IT_number 68
_space_group.IT_coordinate_system_code '2'
_symmetry_cell_setting 'orthorhombic'
loop_
_space_group_symop_operation_xyz
x,y,z
-x,1/2-y,z
x,1/2-y,1/2-z
-x,y,1/2-z
-x,-y,-z
x,1/2+y,-z
-x,1/2+y,1/2+z
x,-y,1/2+z
1/2+x,1/2+y,z
1/2-x,-y,z
1/2+x,-y,1/2-z
1/2-x,1/2+y,1/2-z
1/2-x,1/2-y,-z
1/2+x,y,-z
1/2-x,y,1/2+z
1/2+x,1/2-y,1/2+z
loop_
_atom_site_type_symbol
_atom_site_label
_atom_site_fract_x
_atom_site_fract_y
_atom_site_fract_z
Si Si1 0.087154 0.480129 0.372752
Si Si2 0.353583 0.846870 0.128892
Si Si3 0.335358 0.303188 0.575714
O O1 0.250000 0.500000 0.376636
O O2 0.092311 0.411367 0.355370
O O3 0.000000 0.506155 0.250000
O O4 0.000000 0.500000 0.500000
O O5 0.301973 0.816965 0.268058
O O6 0.492070 0.810009 0.078271
O O7 0.229027 0.851711 0.019877
O O8 0.250000 0.250000 0.500000
#
# Coordination Sequence:
#
# PCOD9510352 Si02
#       3
#    16  16  16
#     4  12  26  46  74 107 155 200 257 319 392 470
#     4  11  25  46  68 110 145 191 256 308 376 467
#     4  11  23  44  73 100 146 189 246 315 376 448
#
# _framework density 22.072061000000001
#
# number of rings (size 3 to 8) (size 9 to 14) (size 15 to 20)
#    0.000    0.667    3.333    5.000    4.667    4.000 
#    0.000    3.333    0.000    0.000    0.000    0.000 
#    0.000    0.000    0.000    0.000    0.000    0.000 
#
# Total GULP energy -133733.676300 kJ/mol
# GULP energy per Si atom -5572.236512 kJ/mol
# Density = 2.202182 g / cm^3
# Si number density = 22.072061 Si / 1000 Ang^3
#
#
#
# Elastic Constant Matrix: (Units=GPa)
#
#
# Indices 1 2 3 4 5 6 
#
# 1 173.9549 41.6357 127.8393 0.0000 0.0000 0.0000
# 2 41.6357 125.6911 36.2616 0.0000 0.0000 0.0000
# 3 127.8393 36.2616 233.2441 0.0000 0.0000 0.0000
# 4 0.0000 0.0000 0.0000 23.9895 0.0000 0.0000
# 5 0.0000 0.0000 0.0000 0.0000 62.0946 0.0000
# 6 0.0000 0.0000 0.0000 0.0000 0.0000 40.4951
#
#
#
# Elastic Compliance Matrix: (Units=1/GPa)
#
#
# Indices 1 2 3 4 5 6 
#
# 1 0.010006 -0.001814 -0.005202 0.000000 0.000000 0.000000
# 2 -0.001814 0.008658 -0.000352 0.000000 0.000000 0.000000
# 3 -0.005202 -0.000352 0.007193 0.000000 0.000000 0.000000
# 4 0.000000 0.000000 0.000000 0.041685 0.000000 0.000000
# 5 0.000000 0.000000 0.000000 0.000000 0.016104 0.000000
# 6 0.000000 0.000000 0.000000 0.000000 0.000000 0.024694
#
#
# Mechanical properties :
#
#
# Convention : Reuss Voigt Hill
#
# Bulk Modulus (GPa) = 89.91328 104.92926 97.42127
# Shear Modulus (GPa) = 39.43716 47.12607 43.28161
#
# Velocity S-wave (km/s) = 4.23158 4.62573 4.43304
# Velocity P-wave (km/s) = 8.04361 8.72768 8.39262
#
# Compressibility (1/GPa) = 0.01112183
#
# Stress axis : x y z
#
# Youngs Moduli (GPa) = 99.94274 115.49541 139.01798
#
# Poissons Ratio (x) = 0.20947 0.72319
# Poissons Ratio (y) = 0.18126 0.04894
# Poissons Ratio (z) = 0.51991 0.04066
#
# Static dielectric constant tensor:
#      x y z
#    x 1.854960 0.000000 0.000000 
#    y 0.000000 1.905940 0.000000 
#    z 0.000000 0.000000 1.827070 
# 
# From -- ./inp_files/10404.got.cif
#   From: 2010.05.17/outbox.cif.g08.bks.cpg/sg68_6_cif.got.tgz:10404.got - 2010.06.03 18:57:09.
