data_PCOD9510876
_publ_section_title
;
Structure prediction by ZEFSAII (Michael W. Deem and Ramdas Pophale) SiO2 
 PCOD9510876
Probable space group: C C C A
;
_chemical_formula_sum "Si O2"
_cell_formula_units_Z 60
_cell_length_a 27.134289
_cell_length_b 10.624556
_cell_length_c 9.272163
_cell_angle_alpha 90.000000
_cell_angle_beta 90.000000
_cell_angle_gamma 90.000000
_cell_volume 2673.069766
_symmetry_space_group_name_H-M "C C C A"
_symmetry_group_IT_number 68
_space_group.IT_coordinate_system_code '2'
_symmetry_cell_setting 'orthorhombic'
loop_
_space_group_symop_operation_xyz
x,y,z
-x,1/2-y,z
x,1/2-y,1/2-z
-x,y,1/2-z
-x,-y,-z
x,1/2+y,-z
-x,1/2+y,1/2+z
x,-y,1/2+z
1/2+x,1/2+y,z
1/2-x,-y,z
1/2+x,-y,1/2-z
1/2-x,1/2+y,1/2-z
1/2-x,1/2-y,-z
1/2+x,y,-z
1/2-x,y,1/2+z
1/2+x,1/2-y,1/2+z
loop_
_atom_site_type_symbol
_atom_site_label
_atom_site_fract_x
_atom_site_fract_y
_atom_site_fract_z
Si Si1 0.500000 0.750000 0.750000
Si Si2 0.454124 0.593380 0.502523
Si Si3 0.587122 0.750000 0.250000
Si Si4 0.791668 0.607232 0.213479
Si Si5 0.355068 0.951854 0.435904
O O1 0.464049 0.670967 0.647415
O O2 0.500000 0.500000 0.500000
O O3 0.447603 0.684105 0.367187
O O4 0.403623 0.517216 0.502314
O O5 0.623301 0.653033 0.329603
O O6 0.774715 0.750000 0.250000
O O7 0.750000 0.500000 0.197169
O O8 0.824914 0.554968 0.344783
O O9 0.822733 0.605313 0.065080
#
# Coordination Sequence:
#
# PCOD9510876 Si02
#       5
#     4  16   8  16  16
#     4  12  28  42  76 108 156 204 260 316 382 466
#     4  12  27  48  73 115 157 210 259 321 388 473
#     4  12  26  49  78 109 158 207 262 320 399 468
#     4  12  30  52  84 117 158 205 268 334 405 478
#     4  12  27  51  79 116 156 208 264 326 400 473
#
# _framework density 22.446103000000001
#
# number of rings (size 3 to 8) (size 9 to 14) (size 15 to 20)
#    0.000    0.000    2.667    5.600    7.467    5.867 
#    0.000    0.000    0.000    0.000    0.000    0.000 
#    0.000    0.000    0.000    0.000    0.000    0.000 
#
# Total GULP energy -168143.266120 kJ/mol
# GULP energy per Si atom -5604.775537 kJ/mol
# Density = 2.239501 g / cm^3
# Si number density = 22.446103 Si / 1000 Ang^3
#
#
#
# Elastic Constant Matrix: (Units=GPa)
#
#
# Indices 1 2 3 4 5 6 
#
# 1 124.6542 67.6613 43.8479 0.0000 0.0000 0.0000
# 2 67.6613 173.8363 79.7800 0.0000 0.0000 0.0000
# 3 43.8479 79.7800 139.4157 0.0000 0.0000 0.0000
# 4 0.0000 0.0000 0.0000 53.5791 0.0000 0.0000
# 5 0.0000 0.0000 0.0000 0.0000 38.8536 0.0000
# 6 0.0000 0.0000 0.0000 0.0000 0.0000 79.5595
#
#
#
# Elastic Compliance Matrix: (Units=1/GPa)
#
#
# Indices 1 2 3 4 5 6 
#
# 1 0.010338 -0.003433 -0.001287 0.000000 0.000000 0.000000
# 2 -0.003433 0.008942 -0.004037 0.000000 0.000000 0.000000
# 3 -0.001287 -0.004037 0.009888 0.000000 0.000000 0.000000
# 4 0.000000 0.000000 0.000000 0.018664 0.000000 0.000000
# 5 0.000000 0.000000 0.000000 0.000000 0.025738 0.000000
# 6 0.000000 0.000000 0.000000 0.000000 0.000000 0.012569
#
#
# Mechanical properties :
#
#
# Convention : Reuss Voigt Hill
#
# Bulk Modulus (GPa) = 85.81216 91.16496 88.48856
# Shear Modulus (GPa) = 46.49548 50.83958 48.66753
#
# Velocity S-wave (km/s) = 4.55623 4.76433 4.66144
# Velocity P-wave (km/s) = 8.12356 8.42427 8.27528
#
# Compressibility (1/GPa) = 0.01165336
#
# Stress axis : x y z
#
# Youngs Moduli (GPa) = 96.72615 111.83670 101.13643
#
# Poissons Ratio (x) = 0.38398 0.13014
# Poissons Ratio (y) = 0.33210 0.40828
# Poissons Ratio (z) = 0.12447 0.45148
#
# Static dielectric constant tensor:
#      x y z
#    x 1.796920 0.000000 0.000000 
#    y 0.000000 1.866710 0.000000 
#    z 0.000000 0.000000 1.861560 
# 
# From -- ./inp_files/3956.got.cif
#   From: 2010.05.17/outbox.cif.g08.bks.cpg/sg68_2_cif.got.tgz:3956.got - 2010.06.03 18:57:09.
