data_PCOD9510315
_publ_section_title
;
Structure prediction by ZEFSAII (Michael W. Deem and Ramdas Pophale) SiO2 
 PCOD9510315
Probable space group: C C C A
;
_chemical_formula_sum "Si O2"
_cell_formula_units_Z 96
_cell_length_a 13.933687
_cell_length_b 15.639685
_cell_length_c 19.994059
_cell_angle_alpha 90.000000
_cell_angle_beta 90.000000
_cell_angle_gamma 90.000000
_cell_volume 4357.074858
_symmetry_space_group_name_H-M "C C C A"
_symmetry_group_IT_number 68
_space_group.IT_coordinate_system_code '2'
_symmetry_cell_setting 'orthorhombic'
loop_
_space_group_symop_operation_xyz
x,y,z
-x,1/2-y,z
x,1/2-y,1/2-z
-x,y,1/2-z
-x,-y,-z
x,1/2+y,-z
-x,1/2+y,1/2+z
x,-y,1/2+z
1/2+x,1/2+y,z
1/2-x,-y,z
1/2+x,-y,1/2-z
1/2-x,1/2+y,1/2-z
1/2-x,1/2-y,-z
1/2+x,y,-z
1/2-x,y,1/2+z
1/2+x,1/2-y,1/2+z
loop_
_atom_site_type_symbol
_atom_site_label
_atom_site_fract_x
_atom_site_fract_y
_atom_site_fract_z
Si Si1 0.773695 0.399707 0.662681
Si Si2 0.000000 0.750000 0.850631
Si Si3 0.618082 0.063140 0.066622
Si Si4 0.007739 0.647986 0.325306
Si Si5 0.470359 0.607111 0.047959
Si Si6 0.827952 0.250000 0.250000
Si Si7 0.775166 0.347864 0.512875
O O1 0.750000 0.500000 0.677922
O O2 0.887710 0.385378 0.654972
O O3 0.733030 0.329602 0.717341
O O4 0.742183 0.377497 0.586550
O O5 0.015209 0.670397 0.898839
O O6 0.904902 0.727632 0.808240
O O7 0.577219 0.118784 0.126663
O O8 0.587502 0.967559 0.085328
O O9 0.554634 0.077065 0.000070
O O10 0.721566 0.093614 0.042318
O O11 0.000000 0.750000 0.324786
O O12 0.000000 0.615510 0.250000
O O13 0.389040 0.646715 0.999794
O O14 0.750000 0.250000 0.500000
#
# Coordination Sequence:
#
# PCOD9510315 Si02
#       7
#    16   8  16  16  16   8  16
#     4  12  26  47  75 107 147 202 258 317 386 462
#     4  11  26  44  70  96 145 188 234 298 383 444
#     4  11  24  40  69 102 140 181 243 307 359 445
#     4  11  25  45  69 102 146 194 248 307 376 449
#     4  11  23  42  66 102 137 182 241 301 373 434
#     4  11  26  48  69 102 148 194 245 302 372 469
#     4  12  24  42  74 107 149 191 246 309 378 443
#
# _framework density 22.033131000000001
#
# number of rings (size 3 to 8) (size 9 to 14) (size 15 to 20)
#    0.000    0.667    1.667    6.500    5.833    2.667 
#    0.000    0.000    0.000    0.000    0.000    0.000 
#    0.000    0.000    0.000    0.000    0.000    0.000 
#
# Total GULP energy -267952.148626 kJ/mol
# GULP energy per Si atom -5582.336430 kJ/mol
# Density = 2.198298 g / cm^3
# Si number density = 22.033131 Si / 1000 Ang^3
#
#
#
# Elastic Constant Matrix: (Units=GPa)
#
#
# Indices 1 2 3 4 5 6 
#
# 1 78.5676 -2.5761 12.6597 0.0000 0.0000 0.0000
# 2 -2.5761 100.1606 32.6008 0.0000 0.0000 0.0000
# 3 12.6597 32.6008 116.4073 0.0000 0.0000 0.0000
# 4 0.0000 0.0000 0.0000 17.8841 0.0000 0.0000
# 5 0.0000 0.0000 0.0000 0.0000 11.3747 0.0000
# 6 0.0000 0.0000 0.0000 0.0000 0.0000 -3.6854
#
#
#
# Elastic Compliance Matrix: (Units=1/GPa)
#
#
# Indices 1 2 3 4 5 6 
#
# 1 0.013024 0.000876 -0.001662 0.000000 0.000000 0.000000
# 2 0.000876 0.011044 -0.003188 0.000000 0.000000 0.000000
# 3 -0.001662 -0.003188 0.009664 0.000000 0.000000 0.000000
# 4 0.000000 0.000000 0.000000 0.055916 0.000000 0.000000
# 5 0.000000 0.000000 0.000000 0.000000 0.087914 0.000000
# 6 0.000000 0.000000 0.000000 0.000000 0.000000 -0.271337
#
#
# Mechanical properties :
#
#
# Convention : Reuss Voigt Hill
#
# Bulk Modulus (GPa) = 38.78309 42.27825 40.53067
# Shear Modulus (GPa) = -64.74027 21.94474 -21.39776
#
# Velocity S-wave (km/s) = -5.42650 3.15935 -3.11973
# Velocity P-wave (km/s) = 4.64997 5.70428 2.33630
#
# Compressibility (1/GPa) = 0.02578443
#
# Stress axis : x y z
#
# Youngs Moduli (GPa) = 76.77918 90.54499 103.47522
#
# Poissons Ratio (x) = -0.07930 0.17195
# Poissons Ratio (y) = -0.06725 0.32991
# Poissons Ratio (z) = 0.12759 0.28868
#
# Static dielectric constant tensor:
#      x y z
#    x 1.621020 0.000000 0.000000 
#    y 0.000000 1.841650 0.000000 
#    z 0.000000 0.000000 1.829590 
# 
# From -- ./inp_files/38606.got.cif
#   From: 2010.05.17/outbox.cif.g08.bks.cpg/sg68_20_cif.got.tgz:38606.got - 2010.06.03 18:57:09.
