data_PCOD9510628
_publ_section_title
;
Structure prediction by ZEFSAII (Michael W. Deem and Ramdas Pophale) SiO2 
 PCOD9510628
Probable space group: C C C A
;
_chemical_formula_sum "Si O2"
_cell_formula_units_Z 56
_cell_length_a 11.609370
_cell_length_b 16.123388
_cell_length_c 13.229961
_cell_angle_alpha 90.000000
_cell_angle_beta 90.000000
_cell_angle_gamma 90.000000
_cell_volume 2476.415547
_symmetry_space_group_name_H-M "C C C A"
_symmetry_group_IT_number 68
_space_group.IT_coordinate_system_code '2'
_symmetry_cell_setting 'orthorhombic'
loop_
_space_group_symop_operation_xyz
x,y,z
-x,1/2-y,z
x,1/2-y,1/2-z
-x,y,1/2-z
-x,-y,-z
x,1/2+y,-z
-x,1/2+y,1/2+z
x,-y,1/2+z
1/2+x,1/2+y,z
1/2-x,-y,z
1/2+x,-y,1/2-z
1/2-x,1/2+y,1/2-z
1/2-x,1/2-y,-z
1/2+x,y,-z
1/2-x,y,1/2+z
1/2+x,1/2-y,1/2+z
loop_
_atom_site_type_symbol
_atom_site_label
_atom_site_fract_x
_atom_site_fract_y
_atom_site_fract_z
Si Si1 0.301766 0.750000 0.750000
Si Si2 0.540245 0.934484 0.418787
Si Si3 0.375841 0.782523 0.969524
Si Si4 0.171572 0.923896 0.779397
O O1 0.374633 0.765434 0.850440
O O2 0.228639 0.836212 0.746165
O O3 0.618147 0.873769 0.485249
O O4 0.613308 0.962108 0.321515
O O5 0.424119 0.901371 0.363461
O O6 0.500000 0.000000 0.500000
O O7 0.500000 0.750000 0.008436
O O8 0.250000 0.750000 0.000000
O O9 0.250000 0.000000 0.818553
#
# Coordination Sequence:
#
# PCOD9510628 Si02
#       4
#     8  16  16  16
#     4  12  25  47  76 110 155 204 263 334 399 486
#     4  11  26  46  76 107 159 211 267 334 405 483
#     4  12  26  47  75 113 152 204 263 324 397 477
#     4  11  26  47  75 112 156 209 273 333 404 483
#
# _framework density 22.613329
#
# number of rings (size 3 to 8) (size 9 to 14) (size 15 to 20)
#    0.000    0.571    2.857    3.857    4.000    4.571 
#    0.000    0.000    0.000    0.000    0.000    0.000 
#    0.000    0.000    0.000    0.000    0.000    0.000 
#
# Total GULP energy -156067.259171 kJ/mol
# GULP energy per Si atom -5573.830685 kJ/mol
# Density = 2.256186 g / cm^3
# Si number density = 22.613329 Si / 1000 Ang^3
#
#
#
# Elastic Constant Matrix: (Units=GPa)
#
#
# Indices 1 2 3 4 5 6 
#
# 1 139.0341 54.4074 58.7046 0.0000 0.0000 0.0000
# 2 54.4074 89.2527 51.9991 0.0000 0.0000 0.0000
# 3 58.7046 51.9991 144.3732 0.0000 0.0000 0.0000
# 4 0.0000 0.0000 0.0000 36.9630 0.0000 0.0000
# 5 0.0000 0.0000 0.0000 0.0000 28.1985 0.0000
# 6 0.0000 0.0000 0.0000 0.0000 0.0000 35.6473
#
#
#
# Elastic Compliance Matrix: (Units=1/GPa)
#
#
# Indices 1 2 3 4 5 6 
#
# 1 0.010053 -0.004742 -0.002380 0.000000 0.000000 0.000000
# 2 -0.004742 0.016416 -0.003985 0.000000 0.000000 0.000000
# 3 -0.002380 -0.003985 0.009329 0.000000 0.000000 0.000000
# 4 0.000000 0.000000 0.000000 0.027054 0.000000 0.000000
# 5 0.000000 0.000000 0.000000 0.000000 0.035463 0.000000
# 6 0.000000 0.000000 0.000000 0.000000 0.000000 0.028053
#
#
# Mechanical properties :
#
#
# Convention : Reuss Voigt Hill
#
# Bulk Modulus (GPa) = 73.60455 78.09802 75.85128
# Shear Modulus (GPa) = 32.65661 33.99836 33.32748
#
# Velocity S-wave (km/s) = 3.80430 3.88166 3.84317
# Velocity P-wave (km/s) = 7.20533 7.39601 7.30129
#
# Compressibility (1/GPa) = 0.01358612
#
# Stress axis : x y z
#
# Youngs Moduli (GPa) = 99.47455 60.91631 107.18900
#
# Poissons Ratio (x) = 0.28884 0.25510
# Poissons Ratio (y) = 0.47166 0.42710
# Poissons Ratio (z) = 0.23674 0.24273
#
# Static dielectric constant tensor:
#      x y z
#    x 1.944800 0.000000 0.000000 
#    y 0.000000 1.881890 0.000000 
#    z 0.000000 0.000000 1.538700 
# 
# From -- ./inp_files/20104.got.cif
#   From: 2010.05.17/outbox.cif.g08.bks.cpg/sg68_11_cif.got.tgz:20104.got - 2010.06.03 18:57:09.
