data_PCOD9510226
_publ_section_title
;
Structure prediction by ZEFSAII (Michael W. Deem and Ramdas Pophale) SiO2 
 PCOD9510226
Probable space group: C C C A
;
_chemical_formula_sum "Si O2"
_cell_formula_units_Z 112
_cell_length_a 11.307995
_cell_length_b 15.159329
_cell_length_c 30.986505
_cell_angle_alpha 90.000000
_cell_angle_beta 90.000000
_cell_angle_gamma 90.000000
_cell_volume 5311.756778
_symmetry_space_group_name_H-M "C C C A"
_symmetry_group_IT_number 68
_space_group.IT_coordinate_system_code '2'
_symmetry_cell_setting 'orthorhombic'
loop_
_space_group_symop_operation_xyz
x,y,z
-x,1/2-y,z
x,1/2-y,1/2-z
-x,y,1/2-z
-x,-y,-z
x,1/2+y,-z
-x,1/2+y,1/2+z
x,-y,1/2+z
1/2+x,1/2+y,z
1/2-x,-y,z
1/2+x,-y,1/2-z
1/2-x,1/2+y,1/2-z
1/2-x,1/2-y,-z
1/2+x,y,-z
1/2-x,y,1/2+z
1/2+x,1/2-y,1/2+z
loop_
_atom_site_type_symbol
_atom_site_label
_atom_site_fract_x
_atom_site_fract_y
_atom_site_fract_z
Si Si1 0.013000 0.854036 0.920268
Si Si2 0.980665 0.353265 0.322519
Si Si3 0.363058 0.771450 0.851413
Si Si4 0.240701 0.598018 0.814819
Si Si5 0.264508 0.601092 0.717101
Si Si6 0.623365 0.550474 0.010132
Si Si7 0.766094 0.602906 0.426629
O O1 0.030828 0.889338 0.871457
O O2 0.136608 0.872223 0.943529
O O3 0.000000 0.750000 0.918231
O O4 0.906009 0.896785 0.946285
O O5 0.866404 0.363351 0.293283
O O6 0.000000 0.250000 0.326846
O O7 0.101894 0.391625 0.305121
O O8 0.500000 0.750000 0.859792
O O9 0.291080 0.680399 0.842099
O O10 0.350320 0.836070 0.810053
O O11 0.304837 0.829548 0.889536
O O12 0.250000 0.500000 0.834513
O O13 0.299165 0.600603 0.767334
O O14 0.250000 0.500000 0.702430
O O15 0.750000 0.500000 0.015046
O O16 0.500000 0.500000 0.000000
O O17 0.644885 0.606625 0.966673
O O18 0.750000 0.500000 0.412489
#
# Coordination Sequence:
#
# PCOD9510226 Si02
#       7
#    16  16  16  16  16  16  16
#     4  11  23  42  70 102 141 182 229 293 353 426
#     4  11  22  43  70  96 133 179 233 285 343 413
#     4  12  26  44  67 102 142 186 235 295 357 428
#     4  11  26  44  64 102 140 178 234 293 350 415
#     4  11  24  42  71  98 133 188 231 284 359 420
#     4  11  23  46  73 107 141 185 238 293 359 438
#     4  11  23  47  74  99 142 186 240 287 365 434
#
# _framework density 21.085301999999999
#
# number of rings (size 3 to 8) (size 9 to 14) (size 15 to 20)
#    0.000    0.857    5.714    2.143    2.000    3.429 
#    5.143    0.000    0.000    0.000    0.000    0.000 
#    0.000    0.000    0.000    0.000    0.000    0.000 
#
# Total GULP energy -312469.821922 kJ/mol
# GULP energy per Si atom -5579.818249 kJ/mol
# Density = 2.103731 g / cm^3
# Si number density = 21.085302 Si / 1000 Ang^3
#
#
#
# Elastic Constant Matrix: (Units=GPa)
#
#
# Indices 1 2 3 4 5 6 
#
# 1 100.0507 32.1566 21.9002 0.0000 0.0000 0.0000
# 2 32.1566 111.6603 29.0670 0.0000 0.0000 0.0000
# 3 21.9002 29.0670 71.5502 0.0000 0.0000 0.0000
# 4 0.0000 0.0000 0.0000 43.2816 0.0000 0.0000
# 5 0.0000 0.0000 0.0000 0.0000 31.5085 0.0000
# 6 0.0000 0.0000 0.0000 0.0000 0.0000 39.6862
#
#
#
# Elastic Compliance Matrix: (Units=1/GPa)
#
#
# Indices 1 2 3 4 5 6 
#
# 1 0.011373 -0.002649 -0.002405 0.000000 0.000000 0.000000
# 2 -0.002649 0.010632 -0.003508 0.000000 0.000000 0.000000
# 3 -0.002405 -0.003508 0.016138 0.000000 0.000000 0.000000
# 4 0.000000 0.000000 0.000000 0.023104 0.000000 0.000000
# 5 0.000000 0.000000 0.000000 0.000000 0.031737 0.000000
# 6 0.000000 0.000000 0.000000 0.000000 0.000000 0.025198
#
#
# Mechanical properties :
#
#
# Convention : Reuss Voigt Hill
#
# Bulk Modulus (GPa) = 47.57906 49.94541 48.76223
# Shear Modulus (GPa) = 35.13400 36.23777 35.68588
#
# Velocity S-wave (km/s) = 4.08644 4.15013 4.11841
# Velocity P-wave (km/s) = 6.69920 6.83400 6.76693
#
# Compressibility (1/GPa) = 0.02101765
#
# Stress axis : x y z
#
# Youngs Moduli (GPa) = 87.92927 94.05623 61.96746
#
# Poissons Ratio (x) = 0.24917 0.14902
# Poissons Ratio (y) = 0.23294 0.21740
# Poissons Ratio (z) = 0.21145 0.32998
#
# Static dielectric constant tensor:
#      x y z
#    x 1.672940 0.000000 0.000000 
#    y 0.000000 0.657570 0.000000 
#    z 0.000000 0.000000 1.828780 
# 
# From -- ./inp_files/54832.got.cif
#   From: 2010.05.17/outbox.cif.g08.bks.cpg/sg68_28_cif.got.tgz:54832.got - 2010.06.03 18:57:09.
