data_PCOD9510483
_publ_section_title
;
Structure prediction by ZEFSAII (Michael W. Deem and Ramdas Pophale) SiO2 
 PCOD9510483
Probable space group: C C C A
;
_chemical_formula_sum "Si O2"
_cell_formula_units_Z 88
_cell_length_a 11.047777
_cell_length_b 15.506649
_cell_length_c 23.543864
_cell_angle_alpha 90.000000
_cell_angle_beta 90.000000
_cell_angle_gamma 90.000000
_cell_volume 4033.393521
_symmetry_space_group_name_H-M "C C C A"
_symmetry_group_IT_number 68
_space_group.IT_coordinate_system_code '2'
_symmetry_cell_setting 'orthorhombic'
loop_
_space_group_symop_operation_xyz
x,y,z
-x,1/2-y,z
x,1/2-y,1/2-z
-x,y,1/2-z
-x,-y,-z
x,1/2+y,-z
-x,1/2+y,1/2+z
x,-y,1/2+z
1/2+x,1/2+y,z
1/2-x,-y,z
1/2+x,-y,1/2-z
1/2-x,1/2+y,1/2-z
1/2-x,1/2-y,-z
1/2+x,y,-z
1/2-x,y,1/2+z
1/2+x,1/2-y,1/2+z
loop_
_atom_site_type_symbol
_atom_site_label
_atom_site_fract_x
_atom_site_fract_y
_atom_site_fract_z
Si Si1 0.873536 0.401700 0.236053
Si Si2 0.372148 0.802800 0.018303
Si Si3 0.569975 0.415013 0.413021
Si Si4 0.250000 0.000000 0.831142
Si Si5 0.189247 0.750000 0.250000
Si Si6 0.000000 0.250000 0.650999
Si Si7 0.869280 0.053220 0.394596
O O1 0.852270 0.468195 0.287402
O O2 0.767467 0.334177 0.240995
O O3 0.873641 0.442047 0.173758
O O4 0.000000 0.357649 0.250000
O O5 0.500000 0.750000 0.017035
O O6 0.361621 0.851215 0.078742
O O7 0.250000 0.750000 0.000000
O O8 0.386018 0.880568 0.973274
O O9 0.685180 0.432491 0.372653
O O10 0.492928 0.335991 0.386425
O O11 0.487578 0.500286 0.414740
O O12 0.110886 0.760043 0.306361
O O13 0.750000 0.000000 0.411521
#
# Coordination Sequence:
#
# PCOD9510483 Si02
#       7
#    16  16  16   8   8   8  16
#     4  12  25  44  68 107 149 191 238 304 366 440
#     4  12  30  51  78 110 152 195 254 311 371 446
#     4  12  26  49  76 106 146 194 248 303 375 433
#     4  12  26  44  74 108 148 186 246 300 368 446
#     4  11  25  40  68 106 145 191 244 290 368 437
#     4  11  24  44  74 102 144 196 239 300 360 450
#     4  12  27  46  78 107 152 194 247 304 373 436
#
# _framework density 21.817855999999999
#
# number of rings (size 3 to 8) (size 9 to 14) (size 15 to 20)
#    0.000    0.182    5.455    3.000    6.364    1.455 
#    0.000    0.000    0.000    0.000    0.000    0.000 
#    0.000    0.000    0.000    0.000    0.000    0.000 
#
# Total GULP energy -246058.470790 kJ/mol
# GULP energy per Si atom -5592.237972 kJ/mol
# Density = 2.176820 g / cm^3
# Si number density = 21.817856 Si / 1000 Ang^3
#
#
#
# Elastic Constant Matrix: (Units=GPa)
#
#
# Indices 1 2 3 4 5 6 
#
# 1 110.6165 24.9998 23.2060 0.0000 0.0000 0.0000
# 2 24.9998 65.3381 11.7787 0.0000 0.0000 0.0000
# 3 23.2060 11.7787 80.7240 0.0000 0.0000 0.0000
# 4 0.0000 0.0000 0.0000 31.0058 0.0000 0.0000
# 5 0.0000 0.0000 0.0000 0.0000 24.3607 0.0000
# 6 0.0000 0.0000 0.0000 0.0000 0.0000 51.9841
#
#
#
# Elastic Compliance Matrix: (Units=1/GPa)
#
#
# Indices 1 2 3 4 5 6 
#
# 1 0.010352 -0.003517 -0.002463 0.000000 0.000000 0.000000
# 2 -0.003517 0.016913 -0.001457 0.000000 0.000000 0.000000
# 3 -0.002463 -0.001457 0.013308 0.000000 0.000000 0.000000
# 4 0.000000 0.000000 0.000000 0.032252 0.000000 0.000000
# 5 0.000000 0.000000 0.000000 0.000000 0.041050 0.000000
# 6 0.000000 0.000000 0.000000 0.000000 0.000000 0.019237
#
#
# Mechanical properties :
#
#
# Convention : Reuss Voigt Hill
#
# Bulk Modulus (GPa) = 38.90961 41.84976 40.37968
# Shear Modulus (GPa) = 31.93840 34.58307 33.26074
#
# Velocity S-wave (km/s) = 3.83020 3.98563 3.90869
# Velocity P-wave (km/s) = 6.11826 6.35636 6.23845
#
# Compressibility (1/GPa) = 0.02570059
#
# Stress axis : x y z
#
# Youngs Moduli (GPa) = 96.60244 59.12522 75.14038
#
# Poissons Ratio (x) = 0.20793 0.18505
# Poissons Ratio (y) = 0.33974 0.10947
# Poissons Ratio (z) = 0.23790 0.08614
#
# Static dielectric constant tensor:
#      x y z
#    x 1.831560 0.000000 0.000000 
#    y 0.000000 1.791120 0.000000 
#    z 0.000000 0.000000 1.789570 
# 
# From -- ./inp_files/44272.got.cif
#   From: 2010.05.17/outbox.cif.g08.bks.cpg/sg68_23_cif.got.tgz:44272.got - 2010.06.03 18:57:09.
