data_PCOD9510185
_publ_section_title
;
Structure prediction by ZEFSAII (Michael W. Deem and Ramdas Pophale) SiO2 
 PCOD9510185
Probable space group: C C C A
;
_chemical_formula_sum "Si O2"
_cell_formula_units_Z 64
_cell_length_a 29.818725
_cell_length_b 10.931103
_cell_length_c 9.170789
_cell_angle_alpha 90.000000
_cell_angle_beta 90.000000
_cell_angle_gamma 90.000000
_cell_volume 2989.232929
_symmetry_space_group_name_H-M "C C C A"
_symmetry_group_IT_number 68
_space_group.IT_coordinate_system_code '2'
_symmetry_cell_setting 'orthorhombic'
loop_
_space_group_symop_operation_xyz
x,y,z
-x,1/2-y,z
x,1/2-y,1/2-z
-x,y,1/2-z
-x,-y,-z
x,1/2+y,-z
-x,1/2+y,1/2+z
x,-y,1/2+z
1/2+x,1/2+y,z
1/2-x,-y,z
1/2+x,-y,1/2-z
1/2-x,1/2+y,1/2-z
1/2-x,1/2-y,-z
1/2+x,y,-z
1/2-x,y,1/2+z
1/2+x,1/2-y,1/2+z
loop_
_atom_site_type_symbol
_atom_site_label
_atom_site_fract_x
_atom_site_fract_y
_atom_site_fract_z
Si Si1 0.622431 0.873073 0.650792
Si Si2 0.482143 0.881976 0.914812
Si Si3 0.763704 0.833166 0.370025
Si Si4 0.673751 0.047268 0.867903
O O1 0.622138 0.750000 0.750000
O O2 0.571490 0.886739 0.595736
O O3 0.639593 0.987135 0.751900
O O4 0.651727 0.878951 0.501245
O O5 0.500000 0.750000 0.973541
O O6 0.500000 0.889321 0.750000
O O7 0.500000 0.000000 0.000000
O O8 0.786760 0.750000 0.250000
O O9 0.750000 0.750000 0.500000
O O10 0.798374 0.931815 0.429012
O O11 0.717130 0.883508 0.301562
#
# Coordination Sequence:
#
# PCOD9510185 Si02
#       4
#    16  16  16  16
#     4  12  24  43  69 101 136 175 237 289 346 425
#     4  11  24  48  73 102 141 185 229 294 367 425
#     4  11  22  41  61  92 140 179 225 271 338 401
#     4  11  24  39  66  99 134 183 226 284 338 406
#
# _framework density 21.410176
#
# number of rings (size 3 to 8) (size 9 to 14) (size 15 to 20)
#    0.000    0.750    2.500    6.750    0.000    4.500 
#    0.000    0.000    0.000    0.000    0.000    0.000 
#    0.000    0.000    0.000    0.000    0.000    0.000 
#
# Total GULP energy -178552.541917 kJ/mol
# GULP energy per Si atom -5579.766935 kJ/mol
# Density = 2.136145 g / cm^3
# Si number density = 21.410176 Si / 1000 Ang^3
#
#
#
# Elastic Constant Matrix: (Units=GPa)
#
#
# Indices 1 2 3 4 5 6 
#
# 1 186.5800 53.0663 28.4018 0.0000 0.0000 0.0000
# 2 53.0663 123.6741 29.5828 0.0000 0.0000 0.0000
# 3 28.4018 29.5828 58.8494 0.0000 0.0000 0.0000
# 4 0.0000 0.0000 0.0000 41.3101 0.0000 0.0000
# 5 0.0000 0.0000 0.0000 0.0000 32.9601 0.0000
# 6 0.0000 0.0000 0.0000 0.0000 0.0000 29.0239
#
#
#
# Elastic Compliance Matrix: (Units=1/GPa)
#
#
# Indices 1 2 3 4 5 6 
#
# 1 0.006288 -0.002242 -0.001908 0.000000 0.000000 0.000000
# 2 -0.002242 0.009990 -0.003940 0.000000 0.000000 0.000000
# 3 -0.001908 -0.003940 0.019894 0.000000 0.000000 0.000000
# 4 0.000000 0.000000 0.000000 0.024207 0.000000 0.000000
# 5 0.000000 0.000000 0.000000 0.000000 0.030340 0.000000
# 6 0.000000 0.000000 0.000000 0.000000 0.000000 0.034454
#
#
# Mechanical properties :
#
#
# Convention : Reuss Voigt Hill
#
# Bulk Modulus (GPa) = 50.01790 65.68946 57.85368
# Shear Modulus (GPa) = 33.78025 37.86233 35.82129
#
# Velocity S-wave (km/s) = 3.97642 4.20983 4.09479
# Velocity P-wave (km/s) = 6.67046 7.37416 7.03112
#
# Compressibility (1/GPa) = 0.01999284
#
# Stress axis : x y z
#
# Youngs Moduli (GPa) = 159.04424 100.09979 50.26692
#
# Poissons Ratio (x) = 0.22438 0.09589
# Poissons Ratio (y) = 0.35651 0.19805
# Poissons Ratio (z) = 0.30341 0.39440
#
# Static dielectric constant tensor:
#      x y z
#    x 1.868250 0.000000 0.000000 
#    y 0.000000 1.883340 0.000000 
#    z 0.000000 0.000000 1.704360 
# 
# From -- ./inp_files/4052.got.cif
#   From: 2010.05.17/outbox.cif.g08.bks.cpg/sg68_3_cif.got.tgz:4052.got - 2010.06.03 18:57:09.
