data_PCOD9510835
_publ_section_title
;
Structure prediction by ZEFSAII (Michael W. Deem and Ramdas Pophale) SiO2 
 PCOD9510835
Probable space group: C C C A
;
_chemical_formula_sum "Si O2"
_cell_formula_units_Z 48
_cell_length_a 15.808518
_cell_length_b 14.798934
_cell_length_c 8.156852
_cell_angle_alpha 90.000000
_cell_angle_beta 90.000000
_cell_angle_gamma 90.000000
_cell_volume 1908.289118
_symmetry_space_group_name_H-M "C C C A"
_symmetry_group_IT_number 68
_space_group.IT_coordinate_system_code '2'
_symmetry_cell_setting 'orthorhombic'
loop_
_space_group_symop_operation_xyz
x,y,z
-x,1/2-y,z
x,1/2-y,1/2-z
-x,y,1/2-z
-x,-y,-z
x,1/2+y,-z
-x,1/2+y,1/2+z
x,-y,1/2+z
1/2+x,1/2+y,z
1/2-x,-y,z
1/2+x,-y,1/2-z
1/2-x,1/2+y,1/2-z
1/2-x,1/2-y,-z
1/2+x,y,-z
1/2-x,y,1/2+z
1/2+x,1/2-y,1/2+z
loop_
_atom_site_type_symbol
_atom_site_label
_atom_site_fract_x
_atom_site_fract_y
_atom_site_fract_z
Si Si1 0.344414 0.534848 0.072961
Si Si2 0.345000 0.727267 0.939574
Si Si3 0.577952 0.111581 0.876485
O O1 0.250000 0.500000 0.048307
O O2 0.348852 0.574152 0.256482
O O3 0.362928 0.622051 0.962746
O O4 0.411842 0.456739 0.029982
O O5 0.353800 0.750000 0.750000
O O6 0.250000 0.750000 0.000000
O O7 0.404269 0.789833 0.052182
O O8 0.500000 0.108647 0.750000
#
# Coordination Sequence:
#
# PCOD9510835 Si02
#       3
#    16  16  16
#     4  12  25  45  77 112 155 209 267 329 400 489
#     4  12  26  47  78 115 155 211 273 330 398 483
#     4  12  27  49  77 117 163 206 267 334 408 474
#
# _framework density 25.153420000000001
#
# number of rings (size 3 to 8) (size 9 to 14) (size 15 to 20)
#    0.000    0.000    3.333    7.000    0.000    2.667 
#    0.000    1.667    0.000    0.000    0.000    0.000 
#    0.000    0.000    0.000    0.000    0.000    0.000 
#
# Total GULP energy -134565.601814 kJ/mol
# GULP energy per Si atom -5606.900076 kJ/mol
# Density = 2.509617 g / cm^3
# Si number density = 25.153420 Si / 1000 Ang^3
#
#
#
# Elastic Constant Matrix: (Units=GPa)
#
#
# Indices 1 2 3 4 5 6 
#
# 1 115.2559 49.2965 29.7299 0.0000 0.0000 0.0000
# 2 49.2965 173.2165 31.6058 0.0000 0.0000 0.0000
# 3 29.7299 31.6058 149.6541 0.0000 0.0000 0.0000
# 4 0.0000 0.0000 0.0000 44.8954 0.0000 0.0000
# 5 0.0000 0.0000 0.0000 0.0000 21.8584 0.0000
# 6 0.0000 0.0000 0.0000 0.0000 0.0000 31.8516
#
#
#
# Elastic Compliance Matrix: (Units=1/GPa)
#
#
# Indices 1 2 3 4 5 6 
#
# 1 0.010179 -0.002629 -0.001467 0.000000 0.000000 0.000000
# 2 -0.002629 0.006684 -0.000889 0.000000 0.000000 0.000000
# 3 -0.001467 -0.000889 0.007161 0.000000 0.000000 0.000000
# 4 0.000000 0.000000 0.000000 0.022274 0.000000 0.000000
# 5 0.000000 0.000000 0.000000 0.000000 0.045749 0.000000
# 6 0.000000 0.000000 0.000000 0.000000 0.000000 0.031396
#
#
# Mechanical properties :
#
#
# Convention : Reuss Voigt Hill
#
# Bulk Modulus (GPa) = 71.15715 73.26565 72.21140
# Shear Modulus (GPa) = 36.20612 41.55402 38.88007
#
# Velocity S-wave (km/s) = 3.79807 4.06892 3.93583
# Velocity P-wave (km/s) = 6.89815 7.16000 7.03029
#
# Compressibility (1/GPa) = 0.01405340
#
# Stress axis : x y z
#
# Youngs Moduli (GPa) = 98.23827 149.61852 139.63977
#
# Poissons Ratio (x) = 0.39340 0.20484
# Poissons Ratio (y) = 0.25830 0.12417
# Poissons Ratio (z) = 0.14411 0.13304
#
# Static dielectric constant tensor:
#      x y z
#    x 2.044860 0.000000 0.000000 
#    y 0.000000 1.998470 0.000000 
#    z 0.000000 0.000000 2.053820 
# 
# From -- ./inp_files/4418.got.cif
#   From: 2010.05.17/outbox.cif.g08.bks.cpg/sg68_3_cif.got.tgz:4418.got - 2010.06.03 18:57:09.
