data_PCOD9510438
_publ_section_title
;
Structure prediction by ZEFSAII (Michael W. Deem and Ramdas Pophale) SiO2 
 PCOD9510438
Probable space group: C C C A
;
_chemical_formula_sum "Si O2"
_cell_formula_units_Z 64
_cell_length_a 17.249615
_cell_length_b 10.702473
_cell_length_c 16.213560
_cell_angle_alpha 90.000000
_cell_angle_beta 90.000000
_cell_angle_gamma 90.000000
_cell_volume 2993.242688
_symmetry_space_group_name_H-M "C C C A"
_symmetry_group_IT_number 68
_space_group.IT_coordinate_system_code '2'
_symmetry_cell_setting 'orthorhombic'
loop_
_space_group_symop_operation_xyz
x,y,z
-x,1/2-y,z
x,1/2-y,1/2-z
-x,y,1/2-z
-x,-y,-z
x,1/2+y,-z
-x,1/2+y,1/2+z
x,-y,1/2+z
1/2+x,1/2+y,z
1/2-x,-y,z
1/2+x,-y,1/2-z
1/2-x,1/2+y,1/2-z
1/2-x,1/2-y,-z
1/2+x,y,-z
1/2-x,y,1/2+z
1/2+x,1/2-y,1/2+z
loop_
_atom_site_type_symbol
_atom_site_label
_atom_site_fract_x
_atom_site_fract_y
_atom_site_fract_z
Si Si1 0.000000 0.935357 0.750000
Si Si2 0.117704 0.582377 0.964873
Si Si3 0.852249 0.798476 0.670079
Si Si4 0.250000 0.000000 0.425359
Si Si5 0.521094 0.384338 0.095966
O O1 0.071465 0.858111 0.787652
O O2 0.017168 0.020755 0.671497
O O3 0.125460 0.685788 0.892625
O O4 0.102218 0.435403 0.941356
O O5 0.194623 0.584663 0.018481
O O6 0.043082 0.609383 0.022611
O O7 0.805291 0.750000 0.750000
O O8 0.805086 0.908523 0.626515
O O9 0.500000 0.250000 0.131275
#
# Coordination Sequence:
#
# PCOD9510438 Si02
#       5
#     8  16  16   8  16
#     4  12  24  48  72 106 147 189 250 310 370 441
#     4  11  25  44  75 105 144 193 247 307 373 449
#     4  12  26  46  75 103 149 198 248 307 380 453
#     4  12  26  50  66 110 150 192 250 312 380 460
#     4  11  24  42  72 108 141 187 248 304 364 440
#
# _framework density 21.381492999999999
#
# number of rings (size 3 to 8) (size 9 to 14) (size 15 to 20)
#    0.000    0.500    5.000    3.000    3.500    1.000 
#    4.500    0.000    0.000    0.000    0.000    0.000 
#    0.000    0.000    0.000    0.000    0.000    0.000 
#
# Total GULP energy -178302.424429 kJ/mol
# GULP energy per Si atom -5571.950763 kJ/mol
# Density = 2.133283 g / cm^3
# Si number density = 21.381493 Si / 1000 Ang^3
#
#
#
# Elastic Constant Matrix: (Units=GPa)
#
#
# Indices 1 2 3 4 5 6 
#
# 1 94.9970 63.3194 60.9708 0.0000 0.0000 0.0000
# 2 63.3194 151.0813 67.6946 0.0000 0.0000 0.0000
# 3 60.9708 67.6946 152.5112 0.0000 0.0000 0.0000
# 4 0.0000 0.0000 0.0000 55.3528 0.0000 0.0000
# 5 0.0000 0.0000 0.0000 0.0000 29.8484 0.0000
# 6 0.0000 0.0000 0.0000 0.0000 0.0000 -45.4368
#
#
#
# Elastic Compliance Matrix: (Units=1/GPa)
#
#
# Indices 1 2 3 4 5 6 
#
# 1 0.016733 -0.005013 -0.004465 0.000000 0.000000 0.000000
# 2 -0.005013 0.009764 -0.002330 0.000000 0.000000 0.000000
# 3 -0.004465 -0.002330 0.009376 0.000000 0.000000 0.000000
# 4 0.000000 0.000000 0.000000 0.018066 0.000000 0.000000
# 5 0.000000 0.000000 0.000000 0.000000 0.033503 0.000000
# 6 0.000000 0.000000 0.000000 0.000000 0.000000 -0.022009
#
#
# Mechanical properties :
#
#
# Convention : Reuss Voigt Hill
#
# Bulk Modulus (GPa) = 81.57506 86.95101 84.26304
# Shear Modulus (GPa) = 53.68651 21.72654 37.70652
#
# Velocity S-wave (km/s) = 5.01631 3.19115 4.20398
# Velocity P-wave (km/s) = 8.47267 7.37107 7.94100
#
# Compressibility (1/GPa) = 0.01225865
#
# Stress axis : x y z
#
# Youngs Moduli (GPa) = 59.76124 102.42033 106.65601
#
# Poissons Ratio (x) = 0.51339 0.47619
# Poissons Ratio (y) = 0.29956 0.24849
# Poissons Ratio (z) = 0.26682 0.23862
#
# Static dielectric constant tensor:
#      x y z
#    x 1.907670 0.000000 0.000000 
#    y 0.000000 1.878090 0.000000 
#    z 0.000000 0.000000 1.913610 
# 
# From -- ./inp_files/23204.got.cif
#   From: 2010.05.17/outbox.cif.g08.bks.cpg/sg68_12_cif.got.tgz:23204.got - 2010.06.03 18:57:09.
