data_PCOD9510161
_publ_section_title
;
Structure prediction by ZEFSAII (Michael W. Deem and Ramdas Pophale) SiO2 
 PCOD9510161
Probable space group: C C C A
;
_chemical_formula_sum "Si O2"
_cell_formula_units_Z 64
_cell_length_a 16.651609
_cell_length_b 7.286445
_cell_length_c 23.578243
_cell_angle_alpha 90.000000
_cell_angle_beta 90.000000
_cell_angle_gamma 90.000000
_cell_volume 2860.772583
_symmetry_space_group_name_H-M "C C C A"
_symmetry_group_IT_number 68
_space_group.IT_coordinate_system_code '2'
_symmetry_cell_setting 'orthorhombic'
loop_
_space_group_symop_operation_xyz
x,y,z
-x,1/2-y,z
x,1/2-y,1/2-z
-x,y,1/2-z
-x,-y,-z
x,1/2+y,-z
-x,1/2+y,1/2+z
x,-y,1/2+z
1/2+x,1/2+y,z
1/2-x,-y,z
1/2+x,-y,1/2-z
1/2-x,1/2+y,1/2-z
1/2-x,1/2-y,-z
1/2+x,y,-z
1/2-x,y,1/2+z
1/2+x,1/2-y,1/2+z
loop_
_atom_site_type_symbol
_atom_site_label
_atom_site_fract_x
_atom_site_fract_y
_atom_site_fract_z
Si Si1 0.115379 0.477670 0.910006
Si Si2 0.336258 0.911437 0.881318
Si Si3 0.088693 0.176209 0.467577
Si Si4 0.987499 0.030832 0.686986
O O1 0.167091 0.310922 0.883124
O O2 0.145730 0.665629 0.939621
O O3 0.051421 0.530099 0.860833
O O4 0.083050 0.374935 0.966427
O O5 0.396111 0.986590 0.833040
O O6 0.250000 0.000000 0.876460
O O7 0.380450 0.992856 0.937087
O O8 0.000000 0.250000 0.453339
O O9 0.000000 0.250000 0.688326
O O10 0.000000 0.957732 0.750000
#
# Coordination Sequence:
#
# PCOD9510161 Si02
#       4
#    16  16  16  16
#     4  11  22  39  66  93 124 172 220 261 313 387
#     4  11  24  40  62  96 134 162 205 269 333 380
#     4  12  21  37  65  95 124 170 220 258 313 390
#     4   9  19  40  70  89 118 171 223 260 311 379
#
# _framework density 22.371580000000002
#
# number of rings (size 3 to 8) (size 9 to 14) (size 15 to 20)
#    0.000    1.250    5.000    3.000    0.000    2.000 
#    0.000    2.500   22.000    0.000    0.000    0.000 
#    0.000    0.000    0.000    0.000    0.000    0.000 
#
# Total GULP energy -178251.519593 kJ/mol
# GULP energy per Si atom -5570.359987 kJ/mol
# Density = 2.232066 g / cm^3
# Si number density = 22.371580 Si / 1000 Ang^3
#
#
#
# Elastic Constant Matrix: (Units=GPa)
#
#
# Indices 1 2 3 4 5 6 
#
# 1 103.5218 -4.8339 38.0873 0.0000 0.0000 0.0000
# 2 -4.8339 110.7148 10.5399 0.0000 0.0000 0.0000
# 3 38.0873 10.5399 167.0459 0.0000 0.0000 0.0000
# 4 0.0000 0.0000 0.0000 11.7924 0.0000 0.0000
# 5 0.0000 0.0000 0.0000 0.0000 6.3250 0.0000
# 6 0.0000 0.0000 0.0000 0.0000 0.0000 14.8567
#
#
#
# Elastic Compliance Matrix: (Units=1/GPa)
#
#
# Indices 1 2 3 4 5 6 
#
# 1 0.010598 0.000697 -0.002460 0.000000 0.000000 0.000000
# 2 0.000697 0.009133 -0.000735 0.000000 0.000000 0.000000
# 3 -0.002460 -0.000735 0.006594 0.000000 0.000000 0.000000
# 4 0.000000 0.000000 0.000000 0.084800 0.000000 0.000000
# 5 0.000000 0.000000 0.000000 0.000000 0.158102 0.000000
# 6 0.000000 0.000000 0.000000 0.000000 0.000000 0.067310
#
#
# Mechanical properties :
#
#
# Convention : Reuss Voigt Hill
#
# Bulk Modulus (GPa) = 46.88912 52.09655 49.49284
# Shear Modulus (GPa) = 14.34136 29.09411 21.71774
#
# Velocity S-wave (km/s) = 2.53465 3.61015 3.11910
# Velocity P-wave (km/s) = 5.43789 6.38084 5.92814
#
# Compressibility (1/GPa) = 0.02132691
#
# Stress axis : x y z
#
# Youngs Moduli (GPa) = 94.36173 109.49748 151.65959
#
# Poissons Ratio (x) = -0.07631 0.37312
# Poissons Ratio (y) = -0.06576 0.11149
# Poissons Ratio (z) = 0.23215 0.08049
#
# Static dielectric constant tensor:
#      x y z
#    x 1.851330 0.000000 0.000000 
#    y 0.000000 1.931340 0.000000 
#    z 0.000000 0.000000 1.859180 
# 
# From -- ./inp_files/39110.got.cif
#   From: 2010.05.17/outbox.cif.g08.bks.cpg/sg68_20_cif.got.tgz:39110.got - 2010.06.03 18:57:09.
