data_PCOD9510416
_publ_section_title
;
Structure prediction by ZEFSAII (Michael W. Deem and Ramdas Pophale) SiO2 
 PCOD9510416
Probable space group: C C C A
;
_chemical_formula_sum "Si O2"
_cell_formula_units_Z 64
_cell_length_a 16.716612
_cell_length_b 19.347022
_cell_length_c 9.335490
_cell_angle_alpha 90.000000
_cell_angle_beta 90.000000
_cell_angle_gamma 90.000000
_cell_volume 3019.252996
_symmetry_space_group_name_H-M "C C C A"
_symmetry_group_IT_number 68
_space_group.IT_coordinate_system_code '2'
_symmetry_cell_setting 'orthorhombic'
loop_
_space_group_symop_operation_xyz
x,y,z
-x,1/2-y,z
x,1/2-y,1/2-z
-x,y,1/2-z
-x,-y,-z
x,1/2+y,-z
-x,1/2+y,1/2+z
x,-y,1/2+z
1/2+x,1/2+y,z
1/2-x,-y,z
1/2+x,-y,1/2-z
1/2-x,1/2+y,1/2-z
1/2-x,1/2-y,-z
1/2+x,y,-z
1/2-x,y,1/2+z
1/2+x,1/2-y,1/2+z
loop_
_atom_site_type_symbol
_atom_site_label
_atom_site_fract_x
_atom_site_fract_y
_atom_site_fract_z
Si Si1 0.556840 0.465190 0.883879
Si Si2 0.587562 0.269058 0.419368
Si Si3 0.175087 0.639142 0.483928
Si Si4 0.833186 0.903970 0.152660
O O1 0.500000 0.450933 0.750000
O O2 0.627457 0.520552 0.850001
O O3 0.500000 0.500000 0.000000
O O4 0.598559 0.398248 0.948101
O O5 0.500000 0.250000 0.475794
O O6 0.587894 0.250000 0.250000
O O7 0.655859 0.221021 0.489332
O O8 0.605391 0.349998 0.420927
O O9 0.180321 0.617355 0.317581
O O10 0.251698 0.610141 0.567113
#
# Coordination Sequence:
#
# PCOD9510416 Si02
#       4
#    16  16  16  16
#     4  12  25  42  67  96 130 171 224 274 331 396
#     4   9  19  39  68  93 127 170 222 270 327 388
#     4  11  24  42  65  97 131 172 218 272 332 395
#     4  11  24  41  67  95 130 174 217 271 333 398
#
# _framework density 21.197295
#
# number of rings (size 3 to 8) (size 9 to 14) (size 15 to 20)
#    0.000    1.250    2.500    3.000    7.000    2.000 
#    0.000    0.000    0.000    0.000    0.000    0.000 
#    0.000    0.000    0.000    0.000    0.000    0.000 
#
# Total GULP energy -178845.102102 kJ/mol
# GULP energy per Si atom -5588.909441 kJ/mol
# Density = 2.114905 g / cm^3
# Si number density = 21.197295 Si / 1000 Ang^3
#
#
#
# Elastic Constant Matrix: (Units=GPa)
#
#
# Indices 1 2 3 4 5 6 
#
# 1 117.0925 12.6900 44.9118 0.0000 0.0000 0.0000
# 2 12.6900 80.8255 11.0731 0.0000 0.0000 0.0000
# 3 44.9118 11.0731 98.8680 0.0000 0.0000 0.0000
# 4 0.0000 0.0000 0.0000 20.0760 0.0000 0.0000
# 5 0.0000 0.0000 0.0000 0.0000 48.4834 0.0000
# 6 0.0000 0.0000 0.0000 0.0000 0.0000 -39.7464
#
#
#
# Elastic Compliance Matrix: (Units=1/GPa)
#
#
# Indices 1 2 3 4 5 6 
#
# 1 0.010422 -0.001003 -0.004622 0.000000 0.000000 0.000000
# 2 -0.001003 0.012662 -0.000962 0.000000 0.000000 0.000000
# 3 -0.004622 -0.000962 0.012322 0.000000 0.000000 0.000000
# 4 0.000000 0.000000 0.000000 0.049811 0.000000 0.000000
# 5 0.000000 0.000000 0.000000 0.000000 0.020626 0.000000
# 6 0.000000 0.000000 0.000000 0.000000 0.000000 -0.025160
#
#
# Mechanical properties :
#
#
# Convention : Reuss Voigt Hill
#
# Bulk Modulus (GPa) = 44.98320 48.23730 46.61025
# Shear Modulus (GPa) = 49.37451 20.97001 35.17226
#
# Velocity S-wave (km/s) = 4.83150 3.14869 4.07785
# Velocity P-wave (km/s) = 7.23822 6.00206 6.64893
#
# Compressibility (1/GPa) = 0.02223052
#
# Stress axis : x y z
#
# Youngs Moduli (GPa) = 95.95359 78.97851 81.15700
#
# Poissons Ratio (x) = 0.07922 0.37509
# Poissons Ratio (y) = 0.09625 0.07811
# Poissons Ratio (z) = 0.44348 0.07601
#
# Static dielectric constant tensor:
#      x y z
#    x 1.693640 0.000000 0.000000 
#    y 0.000000 1.732570 0.000000 
#    z 0.000000 0.000000 1.498530 
# 
# From -- ./inp_files/5792.got.cif
#   From: 2010.05.17/outbox.cif.g08.bks.cpg/sg68_3_cif.got.tgz:5792.got - 2010.06.03 18:57:09.
