data_PCOD9510718
_publ_section_title
;
Structure prediction by ZEFSAII (Michael W. Deem and Ramdas Pophale) SiO2 
 PCOD9510718
Probable space group: C C C A
;
_chemical_formula_sum "Si O2"
_cell_formula_units_Z 104
_cell_length_a 22.612063
_cell_length_b 9.107277
_cell_length_c 24.554293
_cell_angle_alpha 90.000000
_cell_angle_beta 90.000000
_cell_angle_gamma 90.000000
_cell_volume 5056.571664
_symmetry_space_group_name_H-M "C C C A"
_symmetry_group_IT_number 68
_space_group.IT_coordinate_system_code '2'
_symmetry_cell_setting 'orthorhombic'
loop_
_space_group_symop_operation_xyz
x,y,z
-x,1/2-y,z
x,1/2-y,1/2-z
-x,y,1/2-z
-x,-y,-z
x,1/2+y,-z
-x,1/2+y,1/2+z
x,-y,1/2+z
1/2+x,1/2+y,z
1/2-x,-y,z
1/2+x,-y,1/2-z
1/2-x,1/2+y,1/2-z
1/2-x,1/2-y,-z
1/2+x,y,-z
1/2-x,y,1/2+z
1/2+x,1/2-y,1/2+z
loop_
_atom_site_type_symbol
_atom_site_label
_atom_site_fract_x
_atom_site_fract_y
_atom_site_fract_z
Si Si1 0.550001 0.044373 0.705782
Si Si2 0.599238 0.233656 0.448168
Si Si3 0.270635 0.164068 0.445561
Si Si4 0.500000 0.250000 0.620791
Si Si5 0.000000 0.250000 0.645210
Si Si6 0.293832 0.142486 0.638675
Si Si7 0.094740 0.094461 0.057549
Si Si8 0.649297 0.250000 0.750000
O O1 0.500000 0.078409 0.750000
O O2 0.545825 0.159585 0.656702
O O3 0.610275 0.103172 0.734322
O O4 0.528084 0.883662 0.682315
O O5 0.660020 0.315383 0.434948
O O6 0.554125 0.223895 0.397502
O O7 0.581821 0.308739 0.504448
O O8 0.609567 0.065786 0.463500
O O9 0.250000 0.250000 0.500000
O O10 0.240434 0.230873 0.392818
O O11 0.250000 0.000000 0.454044
O O12 0.465355 0.122636 0.589910
O O13 0.351690 0.121884 0.599963
O O14 0.313251 0.196872 0.698014
O O15 0.250000 0.000000 0.639833
#
# Coordination Sequence:
#
# PCOD9510718 Si02
#       8
#    16  16  16   8   8  16  16   8
#     4  12  23  47  72 103 139 192 243 297 376 461
#     4  12  27  44  70 108 148 192 241 303 369 449
#     4  12  25  44  74 106 146 200 248 299 370 447
#     4  12  22  42  74  98 142 186 242 296 360 448
#     4  12  30  44  70 114 152 183 239 310 386 440
#     4  12  26  49  73 107 143 189 251 310 362 436
#     4  12  25  43  71 105 145 191 237 301 361 443
#     4  12  27  46  84 102 142 203 258 310 384 456
#
# _framework density 20.567294
#
# number of rings (size 3 to 8) (size 9 to 14) (size 15 to 20)
#    0.000    0.000    7.692    2.077    4.308    1.846 
#    0.000    0.000    0.000    0.000    0.000    0.000 
#    0.000    0.000    0.000    0.000    0.000    0.000 
#
# Total GULP energy -289751.912191 kJ/mol
# GULP energy per Si atom -5572.152158 kJ/mol
# Density = 2.052048 g / cm^3
# Si number density = 20.567294 Si / 1000 Ang^3
#
#
#
# Elastic Constant Matrix: (Units=GPa)
#
#
# Indices 1 2 3 4 5 6 
#
# 1 92.1154 23.9986 39.3895 0.0000 0.0000 0.0000
# 2 23.9986 116.2154 58.4096 0.0000 0.0000 0.0000
# 3 39.3895 58.4096 122.5434 0.0000 0.0000 0.0000
# 4 0.0000 0.0000 0.0000 61.6954 0.0000 0.0000
# 5 0.0000 0.0000 0.0000 0.0000 47.4375 0.0000
# 6 0.0000 0.0000 0.0000 0.0000 0.0000 30.4508
#
#
#
# Elastic Compliance Matrix: (Units=1/GPa)
#
#
# Indices 1 2 3 4 5 6 
#
# 1 0.012635 -0.000747 -0.003705 0.000000 0.000000 0.000000
# 2 -0.000747 0.011360 -0.005174 0.000000 0.000000 0.000000
# 3 -0.003705 -0.005174 0.011818 0.000000 0.000000 0.000000
# 4 0.000000 0.000000 0.000000 0.016209 0.000000 0.000000
# 5 0.000000 0.000000 0.000000 0.000000 0.021080 0.000000
# 6 0.000000 0.000000 0.000000 0.000000 0.000000 0.032840
#
#
# Mechanical properties :
#
#
# Convention : Reuss Voigt Hill
#
# Bulk Modulus (GPa) = 60.38968 63.82997 62.10982
# Shear Modulus (GPa) = 38.25144 41.85516 40.05330
#
# Velocity S-wave (km/s) = 4.31724 4.51603 4.41775
# Velocity P-wave (km/s) = 7.36730 7.63510 7.50240
#
# Compressibility (1/GPa) = 0.01655912
#
# Stress axis : x y z
#
# Youngs Moduli (GPa) = 79.14548 88.03139 84.61854
#
# Poissons Ratio (x) = 0.06575 0.31354
# Poissons Ratio (y) = 0.05911 0.43785
# Poissons Ratio (z) = 0.29326 0.45551
#
# Static dielectric constant tensor:
#      x y z
#    x 1.632690 0.000000 0.000000 
#    y 0.000000 1.533610 0.000000 
#    z 0.000000 0.000000 1.770370 
# 
# From -- ./inp_files/51871.got.cif
#   From: 2010.05.17/outbox.cif.g08.bks.cpg/sg68_26_cif.got.tgz:51871.got - 2010.06.03 18:57:09.
