data_PCOD9510300
_publ_section_title
;
Structure prediction by ZEFSAII (Michael W. Deem and Ramdas Pophale) SiO2 
 PCOD9510300
Probable space group: C C C A
;
_chemical_formula_sum "Si O2"
_cell_formula_units_Z 96
_cell_length_a 8.706426
_cell_length_b 22.411281
_cell_length_c 25.684284
_cell_angle_alpha 90.000000
_cell_angle_beta 90.000000
_cell_angle_gamma 90.000000
_cell_volume 5011.572962
_symmetry_space_group_name_H-M "C C C A"
_symmetry_group_IT_number 68
_space_group.IT_coordinate_system_code '2'
_symmetry_cell_setting 'orthorhombic'
loop_
_space_group_symop_operation_xyz
x,y,z
-x,1/2-y,z
x,1/2-y,1/2-z
-x,y,1/2-z
-x,-y,-z
x,1/2+y,-z
-x,1/2+y,1/2+z
x,-y,1/2+z
1/2+x,1/2+y,z
1/2-x,-y,z
1/2+x,-y,1/2-z
1/2-x,1/2+y,1/2-z
1/2-x,1/2-y,-z
1/2+x,y,-z
1/2-x,y,1/2+z
1/2+x,1/2-y,1/2+z
loop_
_atom_site_type_symbol
_atom_site_label
_atom_site_fract_x
_atom_site_fract_y
_atom_site_fract_z
Si Si1 0.037329 0.132523 0.906375
Si Si2 0.899781 0.115324 0.097137
Si Si3 0.422517 0.184825 0.198637
Si Si4 0.104617 0.204264 0.495937
Si Si5 0.564453 0.002869 0.441734
Si Si6 0.557807 0.817718 0.305660
O O1 0.217870 0.124250 0.893196
O O2 0.960410 0.150688 0.853243
O O3 0.978007 0.180857 0.950524
O O4 0.980042 0.067984 0.922548
O O5 0.976753 0.050255 0.089198
O O6 0.995161 0.147154 0.143630
O O7 0.897626 0.146378 0.039972
O O8 0.500000 0.250000 0.193919
O O9 0.500000 0.157410 0.250000
O O10 0.240238 0.187013 0.200817
O O11 0.250000 0.250000 0.500000
O O12 0.000000 0.250000 0.464438
O O13 0.500000 0.000000 0.500000
O O14 0.750000 0.000000 0.440621
O O15 0.500000 0.750000 0.310582
O O16 0.500000 0.843051 0.250000
#
# Coordination Sequence:
#
# PCOD9510300 Si02
#       6
#    16  16  16  16  16  16
#     4  12  25  43  66  94 132 174 221 272 331 392
#     4  12  25  43  67  94 133 173 221 272 329 394
#     4  11  23  41  67  97 133 173 218 270 330 392
#     4  12  26  39  61  98 136 172 213 268 332 394
#     4  12  26  44  65  92 128 176 223 270 326 393
#     4  11  23  41  66  98 133 173 218 270 331 392
#
# _framework density 19.155663000000001
#
# number of rings (size 3 to 8) (size 9 to 14) (size 15 to 20)
#    0.000    0.333    3.333    7.500    7.000    0.000 
#    0.000    0.833    0.000    0.000    0.000    0.000 
#    0.000    0.000    0.000    0.000    0.000    0.000 
#
# Total GULP energy -267315.576580 kJ/mol
# GULP energy per Si atom -5569.074512 kJ/mol
# Density = 1.911206 g / cm^3
# Si number density = 19.155663 Si / 1000 Ang^3
#
#
#
# Elastic Constant Matrix: (Units=GPa)
#
#
# Indices 1 2 3 4 5 6 
#
# 1 184.6483 36.8242 48.7285 0.0000 0.0000 0.0000
# 2 36.8242 103.9508 47.1420 0.0000 0.0000 0.0000
# 3 48.7285 47.1420 136.5984 0.0000 0.0000 0.0000
# 4 0.0000 0.0000 0.0000 41.5743 0.0000 0.0000
# 5 0.0000 0.0000 0.0000 0.0000 26.8058 0.0000
# 6 0.0000 0.0000 0.0000 0.0000 0.0000 30.3441
#
#
#
# Elastic Compliance Matrix: (Units=1/GPa)
#
#
# Indices 1 2 3 4 5 6 
#
# 1 0.006146 -0.001402 -0.001709 0.000000 0.000000 0.000000
# 2 -0.001402 0.011725 -0.003546 0.000000 0.000000 0.000000
# 3 -0.001709 -0.003546 0.009154 0.000000 0.000000 0.000000
# 4 0.000000 0.000000 0.000000 0.024053 0.000000 0.000000
# 5 0.000000 0.000000 0.000000 0.000000 0.037305 0.000000
# 6 0.000000 0.000000 0.000000 0.000000 0.000000 0.032955
#
#
# Mechanical properties :
#
#
# Convention : Reuss Voigt Hill
#
# Bulk Modulus (GPa) = 72.93438 76.73189 74.83313
# Shear Modulus (GPa) = 35.91339 39.24504 37.57922
#
# Velocity S-wave (km/s) = 4.33461 4.53122 4.43400
# Velocity P-wave (km/s) = 7.95041 8.21705 8.08483
#
# Compressibility (1/GPa) = 0.01371096
#
# Stress axis : x y z
#
# Youngs Moduli (GPa) = 162.70016 85.28835 109.24153
#
# Poissons Ratio (x) = 0.11961 0.18664
# Poissons Ratio (y) = 0.22818 0.38738
# Poissons Ratio (z) = 0.27798 0.30244
#
# Static dielectric constant tensor:
#      x y z
#    x 1.741250 0.000000 0.000000 
#    y 0.000000 1.651960 0.000000 
#    z 0.000000 0.000000 1.622050 
# 
# From -- ./inp_files/49308.got.cif
#   From: 2010.05.17/outbox.cif.g08.bks.cpg/sg68_25_cif.got.tgz:49308.got - 2010.06.03 18:57:09.
