data_PCOD9510703
_publ_section_title
;
Structure prediction by ZEFSAII (Michael W. Deem and Ramdas Pophale) SiO2 
 PCOD9510703
Probable space group: C C C A
;
_chemical_formula_sum "Si O2"
_cell_formula_units_Z 60
_cell_length_a 7.982522
_cell_length_b 12.353333
_cell_length_c 26.634349
_cell_angle_alpha 90.000000
_cell_angle_beta 90.000000
_cell_angle_gamma 90.000000
_cell_volume 2626.433196
_symmetry_space_group_name_H-M "C C C A"
_symmetry_group_IT_number 68
_space_group.IT_coordinate_system_code '2'
_symmetry_cell_setting 'orthorhombic'
loop_
_space_group_symop_operation_xyz
x,y,z
-x,1/2-y,z
x,1/2-y,1/2-z
-x,y,1/2-z
-x,-y,-z
x,1/2+y,-z
-x,1/2+y,1/2+z
x,-y,1/2+z
1/2+x,1/2+y,z
1/2-x,-y,z
1/2+x,-y,1/2-z
1/2-x,1/2+y,1/2-z
1/2-x,1/2-y,-z
1/2+x,y,-z
1/2-x,y,1/2+z
1/2+x,1/2-y,1/2+z
loop_
_atom_site_type_symbol
_atom_site_label
_atom_site_fract_x
_atom_site_fract_y
_atom_site_fract_z
Si Si1 0.701744 0.622050 0.667020
Si Si2 0.500000 0.750000 0.750000
Si Si3 0.705809 0.897041 0.047097
Si Si4 0.962005 0.140301 0.941976
Si Si5 0.000000 0.750000 0.878455
O O1 0.750000 0.500000 0.678359
O O2 0.604656 0.674709 0.712775
O O3 0.599913 0.623649 0.614462
O O4 0.862978 0.693698 0.655598
O O5 0.865782 0.788323 0.051943
O O6 0.582369 0.838885 0.085469
O O7 0.617478 0.033136 0.055966
O O8 0.649831 0.891571 0.989213
#
# Coordination Sequence:
#
# PCOD9510703 Si02
#       5
#    16   4  16  16   8
#     4  12  27  48  75 101 134 177 227 287 355 407
#     4  12  28  52  72  98 132 164 224 304 348 418
#     4  12  23  37  64 100 145 190 231 268 326 403
#     4  12  21  42  64  97 146 187 226 280 332 394
#     4  12  24  44  70 102 138 180 226 278 332 414
#
# _framework density 22.844669
#
# number of rings (size 3 to 8) (size 9 to 14) (size 15 to 20)
#    0.000    0.000    5.333    5.600    0.000    2.667 
#    0.000    1.333    0.000    0.000    0.000    0.000 
#    0.000    0.000    0.000    0.000    0.000    0.000 
#
# Total GULP energy -167459.195918 kJ/mol
# GULP energy per Si atom -5581.973197 kJ/mol
# Density = 2.279267 g / cm^3
# Si number density = 22.844669 Si / 1000 Ang^3
#
#
#
# Elastic Constant Matrix: (Units=GPa)
#
#
# Indices 1 2 3 4 5 6 
#
# 1 181.9700 70.6298 133.7730 0.0000 0.0000 0.0000
# 2 70.6298 242.6645 117.0614 0.0000 0.0000 0.0000
# 3 133.7730 117.0614 223.9324 0.0000 0.0000 0.0000
# 4 0.0000 0.0000 0.0000 37.3039 0.0000 0.0000
# 5 0.0000 0.0000 0.0000 0.0000 176.1207 0.0000
# 6 0.0000 0.0000 0.0000 0.0000 0.0000 38.1932
#
#
#
# Elastic Compliance Matrix: (Units=1/GPa)
#
#
# Indices 1 2 3 4 5 6 
#
# 1 0.009799 -0.000038 -0.005834 0.000000 0.000000 0.000000
# 2 -0.000038 0.005511 -0.002858 0.000000 0.000000 0.000000
# 3 -0.005834 -0.002858 0.009445 0.000000 0.000000 0.000000
# 4 0.000000 0.000000 0.000000 0.026807 0.000000 0.000000
# 5 0.000000 0.000000 0.000000 0.000000 0.005678 0.000000
# 6 0.000000 0.000000 0.000000 0.000000 0.000000 0.026183
#
#
# Mechanical properties :
#
#
# Convention : Reuss Voigt Hill
#
# Bulk Modulus (GPa) = 137.08670 143.49948 140.29309
# Shear Modulus (GPa) = 48.39675 72.13043 60.26359
#
# Velocity S-wave (km/s) = 4.60772 5.62520 5.14169
# Velocity P-wave (km/s) = 9.40461 10.25388 9.83841
#
# Compressibility (1/GPa) = 0.00729465
#
# Stress axis : x y z
#
# Youngs Moduli (GPa) = 102.05386 181.46546 105.87861
#
# Poissons Ratio (x) = 0.00685 0.61768
# Poissons Ratio (y) = 0.00385 0.30262
# Poissons Ratio (z) = 0.59537 0.51866
#
# Static dielectric constant tensor:
#      x y z
#    x -22.685220 0.000000 0.000000 
#    y 0.000000 -67.740240 0.000000 
#    z 0.000000 0.000000 1.662960 
# 
# From -- ./inp_files/42696.got.cif
#   From: 2010.05.17/outbox.cif.g08.bks.cpg/sg68_22_cif.got.tgz:42696.got - 2010.06.03 18:57:09.
