data_PCOD9510500
_publ_section_title
;
Structure prediction by ZEFSAII (Michael W. Deem and Ramdas Pophale) SiO2 
 PCOD9510500
Probable space group: C C C A
;
_chemical_formula_sum "Si O2"
_cell_formula_units_Z 72
_cell_length_a 21.050262
_cell_length_b 15.890653
_cell_length_c 9.690071
_cell_angle_alpha 90.000000
_cell_angle_beta 90.000000
_cell_angle_gamma 90.000000
_cell_volume 3241.352093
_symmetry_space_group_name_H-M "C C C A"
_symmetry_group_IT_number 68
_space_group.IT_coordinate_system_code '2'
_symmetry_cell_setting 'orthorhombic'
loop_
_space_group_symop_operation_xyz
x,y,z
-x,1/2-y,z
x,1/2-y,1/2-z
-x,y,1/2-z
-x,-y,-z
x,1/2+y,-z
-x,1/2+y,1/2+z
x,-y,1/2+z
1/2+x,1/2+y,z
1/2-x,-y,z
1/2+x,-y,1/2-z
1/2-x,1/2+y,1/2-z
1/2-x,1/2-y,-z
1/2+x,y,-z
1/2-x,y,1/2+z
1/2+x,1/2-y,1/2+z
loop_
_atom_site_type_symbol
_atom_site_label
_atom_site_fract_x
_atom_site_fract_y
_atom_site_fract_z
Si Si1 0.311080 0.223141 0.090797
Si Si2 0.179548 0.476464 0.871136
Si Si3 0.500000 0.392928 0.250000
Si Si4 0.558733 0.196270 0.515488
Si Si5 0.601100 0.481376 0.879663
O O1 0.305065 0.250000 0.250000
O O2 0.320445 0.123197 0.105773
O O3 0.377071 0.249473 0.015605
O O4 0.250000 0.250000 0.000000
O O5 0.250000 0.500000 0.911267
O O6 0.161641 0.509570 0.720598
O O7 0.124798 0.510149 0.970737
O O8 0.465266 0.338280 0.366403
O O9 0.450298 0.454072 0.175957
O O10 0.500000 0.250000 0.572011
O O11 0.575554 0.113846 0.606226
#
# Coordination Sequence:
#
# PCOD9510500 Si02
#       5
#    16  16   8  16  16
#     4  11  26  47  70 104 146 194 246 310 373 445
#     4  11  26  44  77 103 146 194 252 305 376 450
#     4  12  21  46  77 100 148 190 258 300 371 456
#     4  11  25  44  74 106 147 196 246 307 379 441
#     4  11  24  45  72 109 137 196 250 311 365 451
#
# _framework density 22.212952000000001
#
# number of rings (size 3 to 8) (size 9 to 14) (size 15 to 20)
#    0.000    0.889    4.444    3.000    9.333    0.000 
#    0.000    0.556    0.000    0.000    0.000    0.000 
#    0.000    0.000    0.000    0.000    0.000    0.000 
#
# Total GULP energy -201292.435921 kJ/mol
# GULP energy per Si atom -5591.456553 kJ/mol
# Density = 2.216239 g / cm^3
# Si number density = 22.212952 Si / 1000 Ang^3
#
#
#
# Elastic Constant Matrix: (Units=GPa)
#
#
# Indices 1 2 3 4 5 6 
#
# 1 149.7910 45.6345 21.6761 0.0000 0.0000 0.0000
# 2 45.6345 63.3575 28.2108 0.0000 0.0000 0.0000
# 3 21.6761 28.2108 60.6141 0.0000 0.0000 0.0000
# 4 0.0000 0.0000 0.0000 36.7156 0.0000 0.0000
# 5 0.0000 0.0000 0.0000 0.0000 39.6109 0.0000
# 6 0.0000 0.0000 0.0000 0.0000 0.0000 40.2600
#
#
#
# Elastic Compliance Matrix: (Units=1/GPa)
#
#
# Indices 1 2 3 4 5 6 
#
# 1 0.008556 -0.006055 -0.000242 0.000000 0.000000 0.000000
# 2 -0.006055 0.024194 -0.009095 0.000000 0.000000 0.000000
# 3 -0.000242 -0.009095 0.020817 0.000000 0.000000 0.000000
# 4 0.000000 0.000000 0.000000 0.027236 0.000000 0.000000
# 5 0.000000 0.000000 0.000000 0.000000 0.025246 0.000000
# 6 0.000000 0.000000 0.000000 0.000000 0.000000 0.024839
#
#
# Mechanical properties :
#
#
# Convention : Reuss Voigt Hill
#
# Bulk Modulus (GPa) = 43.89028 51.64504 47.76766
# Shear Modulus (GPa) = 29.53947 35.20004 32.36975
#
# Velocity S-wave (km/s) = 3.65064 3.98510 3.82153
# Velocity P-wave (km/s) = 6.12955 6.66897 6.40494
#
# Compressibility (1/GPa) = 0.02278409
#
# Stress axis : x y z
#
# Youngs Moduli (GPa) = 116.88356 41.33219 48.03715
#
# Poissons Ratio (x) = 0.25025 0.01160
# Poissons Ratio (y) = 0.70770 0.43691
# Poissons Ratio (z) = 0.02823 0.37592
#
# Static dielectric constant tensor:
#      x y z
#    x 1.889760 0.000000 0.000000 
#    y 0.000000 1.002350 0.000000 
#    z 0.000000 0.000000 1.867720 
# 
# From -- ./inp_files/7860.got.cif
#   From: 2010.05.17/outbox.cif.g08.bks.cpg/sg68_4_cif.got.tgz:7860.got - 2010.06.03 18:57:09.
