data_PCOD9510884
_publ_section_title
;
Structure prediction by ZEFSAII (Michael W. Deem and Ramdas Pophale) SiO2 
 PCOD9510884
Probable space group: C C C A
;
_chemical_formula_sum "Si O2"
_cell_formula_units_Z 60
_cell_length_a 8.941078
_cell_length_b 18.051210
_cell_length_c 15.482506
_cell_angle_alpha 90.000000
_cell_angle_beta 90.000000
_cell_angle_gamma 90.000000
_cell_volume 2498.834303
_symmetry_space_group_name_H-M "C C C A"
_symmetry_group_IT_number 68
_space_group.IT_coordinate_system_code '2'
_symmetry_cell_setting 'orthorhombic'
loop_
_space_group_symop_operation_xyz
x,y,z
-x,1/2-y,z
x,1/2-y,1/2-z
-x,y,1/2-z
-x,-y,-z
x,1/2+y,-z
-x,1/2+y,1/2+z
x,-y,1/2+z
1/2+x,1/2+y,z
1/2-x,-y,z
1/2+x,-y,1/2-z
1/2-x,1/2+y,1/2-z
1/2-x,1/2-y,-z
1/2+x,y,-z
1/2-x,y,1/2+z
1/2+x,1/2-y,1/2+z
loop_
_atom_site_type_symbol
_atom_site_label
_atom_site_fract_x
_atom_site_fract_y
_atom_site_fract_z
Si Si1 0.500000 0.250000 0.250000
Si Si2 0.000000 0.047681 0.250000
Si Si3 0.753160 0.141288 0.335511
Si Si4 0.995825 0.551798 0.416850
Si Si5 0.380775 0.692409 0.500518
O O1 0.623974 0.195148 0.296421
O O2 0.149060 0.096172 0.233229
O O3 0.034607 0.995632 0.331944
O O4 0.657745 0.087909 0.398338
O O5 0.883818 0.171796 0.399303
O O6 0.885906 0.619924 0.440444
O O7 0.000000 0.500000 0.500000
O O8 0.500000 0.750000 0.534418
O O9 0.250000 0.750000 0.500000
#
# Coordination Sequence:
#
# PCOD9510884 Si02
#       5
#     4   8  16  16  16
#     4  12  30  54  80 120 186 212 278 360 414 522
#     4  12  29  53  85 126 165 222 292 346 425 510
#     4  12  28  54  79 127 163 227 279 348 429 500
#     4  12  27  55  82 120 169 215 279 353 416 501
#     4  12  26  51  85 117 160 221 281 346 426 503
#
# _framework density 24.011195000000001
#
# number of rings (size 3 to 8) (size 9 to 14) (size 15 to 20)
#    0.000    0.000    5.333    3.200    3.733    0.000 
#   24.000    0.000    0.000    0.000    0.000    0.000 
#    0.000    0.000    0.000    0.000    0.000    0.000 
#
# Total GULP energy -167416.595712 kJ/mol
# GULP energy per Si atom -5580.553190 kJ/mol
# Density = 2.395654 g / cm^3
# Si number density = 24.011195 Si / 1000 Ang^3
#
#
#
# Elastic Constant Matrix: (Units=GPa)
#
#
# Indices 1 2 3 4 5 6 
#
# 1 110.9803 72.4042 47.3968 0.0000 0.0000 0.0000
# 2 72.4042 180.7321 111.0090 0.0000 0.0000 0.0000
# 3 47.3968 111.0090 179.2717 0.0000 0.0000 0.0000
# 4 0.0000 0.0000 0.0000 48.6458 0.0000 0.0000
# 5 0.0000 0.0000 0.0000 0.0000 47.3017 0.0000
# 6 0.0000 0.0000 0.0000 0.0000 0.0000 42.9024
#
#
#
# Elastic Compliance Matrix: (Units=1/GPa)
#
#
# Indices 1 2 3 4 5 6 
#
# 1 0.012210 -0.004694 -0.000321 0.000000 0.000000 0.000000
# 2 -0.004694 0.010734 -0.005406 0.000000 0.000000 0.000000
# 3 -0.000321 -0.005406 0.009010 0.000000 0.000000 0.000000
# 4 0.000000 0.000000 0.000000 0.020557 0.000000 0.000000
# 5 0.000000 0.000000 0.000000 0.000000 0.021141 0.000000
# 6 0.000000 0.000000 0.000000 0.000000 0.000000 0.023309
#
#
# Mechanical properties :
#
#
# Convention : Reuss Voigt Hill
#
# Bulk Modulus (GPa) = 89.99198 103.62268 96.80733
# Shear Modulus (GPa) = 41.14971 43.78158 42.46565
#
# Velocity S-wave (km/s) = 4.14426 4.27474 4.21001
# Velocity P-wave (km/s) = 7.77563 8.22279 8.00233
#
# Compressibility (1/GPa) = 0.01111210
#
# Stress axis : x y z
#
# Youngs Moduli (GPa) = 81.89699 93.16351 110.98362
#
# Poissons Ratio (x) = 0.43733 0.03568
# Poissons Ratio (y) = 0.38444 0.59992
# Poissons Ratio (z) = 0.02633 0.50360
#
# Static dielectric constant tensor:
#      x y z
#    x 1.907710 0.000000 0.000000 
#    y 0.000000 1.775530 0.000000 
#    z 0.000000 0.000000 2.080950 
# 
# From -- ./inp_files/27732.got.cif
#   From: 2010.05.17/outbox.cif.g08.bks.cpg/sg68_14_cif.got.tgz:27732.got - 2010.06.03 18:57:09.
