data_PCOD9510976
_publ_section_title
;
Structure prediction by ZEFSAII (Michael W. Deem and Ramdas Pophale) SiO2 
 PCOD9510976
Probable space group: C C C A
;
_chemical_formula_sum "Si O2"
_cell_formula_units_Z 48
_cell_length_a 21.000000
_cell_length_b 15.000000
_cell_length_c 15.000000
_cell_angle_alpha 90.000000
_cell_angle_beta 90.000000
_cell_angle_gamma 90.000000
_cell_volume 4725.000000
_symmetry_space_group_name_H-M "C C C A"
_symmetry_group_IT_number 68
_space_group.IT_coordinate_system_code '2'
_symmetry_cell_setting 'orthorhombic'
loop_
_space_group_symop_operation_xyz
x,y,z
-x,1/2-y,z
x,1/2-y,1/2-z
-x,y,1/2-z
-x,-y,-z
x,1/2+y,-z
-x,1/2+y,1/2+z
x,-y,1/2+z
1/2+x,1/2+y,z
1/2-x,-y,z
1/2+x,-y,1/2-z
1/2-x,1/2+y,1/2-z
1/2-x,1/2-y,-z
1/2+x,y,-z
1/2-x,y,1/2+z
1/2+x,1/2-y,1/2+z
loop_
_atom_site_type_symbol
_atom_site_label
_atom_site_fract_x
_atom_site_fract_y
_atom_site_fract_z
Si Si1 0.825972 0.819756 0.330924
Si Si2 0.813999 0.120490 0.378656
Si Si3 0.000000 0.250000 0.396248
Si Si4 0.624636 0.490538 0.261521
Si Si5 0.825343 0.996255 0.546077
Si Si6 0.000000 0.601008 0.750000
Si Si7 0.632445 0.790656 0.023149
O O1 0.814950 0.750000 0.250000
O O2 0.761352 0.868943 0.363193
O O3 0.851332 0.771342 0.419993
O O4 0.870847 0.900372 0.296492
O O5 0.837527 0.070215 0.289597
O O6 0.835076 0.220359 0.408321
O O7 0.838687 0.057362 0.459561
O O8 0.017344 0.332720 0.331308
O O9 0.058577 0.220289 0.455854
O O10 0.649616 0.468515 0.359788
O O11 0.556838 0.535897 0.273943
O O12 0.847440 0.893506 0.537784
O O13 0.750000 0.000000 0.552234
#
# Coordination Sequence:
#
# PCOD9510976 Si02
#       7
#    16  16   8  16  16   8  16
#     4  12  27  47  69 108 149 194 242 299 379 449
#     4  12  25  46  72 108 150 185 240 300 369 445
#     4  11  24  48  71 104 142 184 257 298 358 455
#     4  12  25  45  71 106 143 189 245 307 361 437
#     4  12  24  43  70 108 146 186 239 304 373 437
#     4  11  24  46  73 100 142 190 247 308 364 445
#     4  12  25  45  75 106 144 195 243 307 367 439
#
# _framework density 10.15873
#
# number of rings (size 3 to 8) (size 9 to 14) (size 15 to 20)
#    0.000    0.167    6.667    3.000    4.667    0.000 
#    6.000    2.500    0.000    0.000    0.000    0.000 
#    0.000    0.000    0.000    0.000    0.000    0.000 
#
# Total GULP energy -268176.383175 kJ/mol
# GULP energy per Si atom -5587.007983 kJ/mol
# Density = 1.013561 g / cm^3
# Si number density = 10.158730 Si / 1000 Ang^3
#
#
#
# Elastic Constant Matrix: (Units=GPa)
#
#
# Indices 1 2 3 4 5 6 
#
# 1 59.8124 15.6240 14.0637 0.0000 0.0000 0.0000
# 2 15.6240 102.1686 4.2951 0.0000 0.0000 0.0000
# 3 14.0637 4.2951 99.1639 0.0000 0.0000 0.0000
# 4 0.0000 0.0000 0.0000 39.7366 0.0000 0.0000
# 5 0.0000 0.0000 0.0000 0.0000 12.2953 0.0000
# 6 0.0000 0.0000 0.0000 0.0000 0.0000 34.4388
#
#
#
# Elastic Compliance Matrix: (Units=1/GPa)
#
#
# Indices 1 2 3 4 5 6 
#
# 1 0.017983 -0.002648 -0.002436 0.000000 0.000000 0.000000
# 2 -0.002648 0.010195 -0.000066 0.000000 0.000000 0.000000
# 3 -0.002436 -0.000066 0.010433 0.000000 0.000000 0.000000
# 4 0.000000 0.000000 0.000000 0.025166 0.000000 0.000000
# 5 0.000000 0.000000 0.000000 0.000000 0.081332 0.000000
# 6 0.000000 0.000000 0.000000 0.000000 0.000000 0.029037
#
#
# Mechanical properties :
#
#
# Convention : Reuss Voigt Hill
#
# Bulk Modulus (GPa) = 35.32039 36.56784 35.94411
# Shear Modulus (GPa) = 25.78883 32.43829 29.11356
#
# Velocity S-wave (km/s) = 3.56658 4.00005 3.78952
# Velocity P-wave (km/s) = 5.86367 6.27464 6.07264
#
# Compressibility (1/GPa) = 0.02831226
#
# Stress axis : x y z
#
# Youngs Moduli (GPa) = 55.60728 98.08337 95.85320
#
# Poissons Ratio (x) = 0.25969 0.23347
# Poissons Ratio (y) = 0.14723 0.00634
# Poissons Ratio (z) = 0.13545 0.00648
#
# Static dielectric constant tensor:
#      x y z
#    x 1.746750 0.000000 0.000000 
#    y 0.000000 1.680190 0.000000 
#    z 0.000000 0.000000 1.795390 
# 
# From -- ./inp_files/24481.got.cif
#   From: 2010.05.17/outbox.ucp.g08.bks.cvg/sg68_13_cif.got.tgz:24481.got - 2010.06.11 16:49:25.
