data_PCOD9510655
_publ_section_title
;
Structure prediction by ZEFSAII (Michael W. Deem and Ramdas Pophale) SiO2 
 PCOD9510655
Probable space group: C C C A
;
_chemical_formula_sum "Si O2"
_cell_formula_units_Z 48
_cell_length_a 5.218106
_cell_length_b 19.422013
_cell_length_c 19.742387
_cell_angle_alpha 90.000000
_cell_angle_beta 90.000000
_cell_angle_gamma 90.000000
_cell_volume 2000.814373
_symmetry_space_group_name_H-M "C C C A"
_symmetry_group_IT_number 68
_space_group.IT_coordinate_system_code '2'
_symmetry_cell_setting 'orthorhombic'
loop_
_space_group_symop_operation_xyz
x,y,z
-x,1/2-y,z
x,1/2-y,1/2-z
-x,y,1/2-z
-x,-y,-z
x,1/2+y,-z
-x,1/2+y,1/2+z
x,-y,1/2+z
1/2+x,1/2+y,z
1/2-x,-y,z
1/2+x,-y,1/2-z
1/2-x,1/2+y,1/2-z
1/2-x,1/2-y,-z
1/2+x,y,-z
1/2-x,y,1/2+z
1/2+x,1/2-y,1/2+z
loop_
_atom_site_type_symbol
_atom_site_label
_atom_site_fract_x
_atom_site_fract_y
_atom_site_fract_z
Si Si1 0.731365 0.639623 0.043698
Si Si2 0.750000 0.000000 0.870061
Si Si3 0.500000 0.250000 0.131878
Si Si4 0.500000 0.558237 0.250000
Si Si5 0.500000 0.648044 0.750000
O O1 0.776813 0.568605 0.084862
O O2 0.797674 0.708195 0.086578
O O3 0.442313 0.640036 0.016275
O O4 0.985774 0.986836 0.818295
O O5 0.412110 0.307628 0.185118
O O6 0.253468 0.604768 0.262421
#
# Coordination Sequence:
#
# PCOD9510655 Si02
#       5
#    16   8   8   8   8
#     4  12  29  49  77 108 155 208 253 309 373 464
#     4  12  28  50  80 112 158 192 266 308 400 444
#     4  11  26  52  76 112 150 201 256 318 380 459
#     4  12  27  48  78 114 147 200 240 336 377 457
#     4  11  27  47  80 113 151 191 254 328 386 436
#
# _framework density 23.990228999999999
#
# number of rings (size 3 to 8) (size 9 to 14) (size 15 to 20)
#    0.000    0.333    3.333    3.000    4.667    8.000 
#    0.000    0.000    0.000    0.000    0.000    0.000 
#    0.000    0.000    0.000    0.000    0.000    0.000 
#
# Total GULP energy -134151.638421 kJ/mol
# GULP energy per Si atom -5589.651601 kJ/mol
# Density = 2.393563 g / cm^3
# Si number density = 23.990229 Si / 1000 Ang^3
#
#
#
# Elastic Constant Matrix: (Units=GPa)
#
#
# Indices 1 2 3 4 5 6 
#
# 1 75.7158 46.2826 -1.7414 0.0000 0.0000 0.0000
# 2 46.2826 145.7300 50.7661 0.0000 0.0000 0.0000
# 3 -1.7414 50.7661 96.1036 0.0000 0.0000 0.0000
# 4 0.0000 0.0000 0.0000 106.4234 0.0000 0.0000
# 5 0.0000 0.0000 0.0000 0.0000 26.0908 0.0000
# 6 0.0000 0.0000 0.0000 0.0000 0.0000 30.5701
#
#
#
# Elastic Compliance Matrix: (Units=1/GPa)
#
#
# Indices 1 2 3 4 5 6 
#
# 1 0.017560 -0.006970 0.004000 0.000000 0.000000 0.000000
# 2 -0.006970 0.011176 -0.006030 0.000000 0.000000 0.000000
# 3 0.004000 -0.006030 0.013663 0.000000 0.000000 0.000000
# 4 0.000000 0.000000 0.000000 0.009396 0.000000 0.000000
# 5 0.000000 0.000000 0.000000 0.000000 0.038328 0.000000
# 6 0.000000 0.000000 0.000000 0.000000 0.000000 0.032712
#
#
# Mechanical properties :
#
#
# Convention : Reuss Voigt Hill
#
# Bulk Modulus (GPa) = 40.98500 56.46266 48.72383
# Shear Modulus (GPa) = 33.56392 47.43299 40.49846
#
# Velocity S-wave (km/s) = 3.74447 4.45137 4.11313
# Velocity P-wave (km/s) = 5.98463 7.07152 6.55066
#
# Compressibility (1/GPa) = 0.02439917
#
# Stress axis : x y z
#
# Youngs Moduli (GPa) = 56.94723 89.47406 73.18860
#
# Poissons Ratio (x) = 0.62368 -0.29278
# Poissons Ratio (y) = 0.39695 0.44134
# Poissons Ratio (z) = -0.22781 0.53955
#
# Static dielectric constant tensor:
#      x y z
#    x 1.856680 0.000000 0.000000 
#    y 0.000000 1.964280 0.000000 
#    z 0.000000 0.000000 1.989260 
# 
# From -- ./inp_files/33344.got.cif
#   From: 2010.05.17/outbox.cif.g08.bks.cpg/sg68_17_cif.got.tgz:33344.got - 2010.06.03 18:57:09.
