data_PCOD9510842
_publ_section_title
;
Structure prediction by ZEFSAII (Michael W. Deem and Ramdas Pophale) SiO2 
 PCOD9510842
Probable space group: C C C A
;
_chemical_formula_sum "Si O2"
_cell_formula_units_Z 56
_cell_length_a 18.976009
_cell_length_b 8.375287
_cell_length_c 13.581531
_cell_angle_alpha 90.000000
_cell_angle_beta 90.000000
_cell_angle_gamma 90.000000
_cell_volume 2158.506223
_symmetry_space_group_name_H-M "C C C A"
_symmetry_group_IT_number 68
_space_group.IT_coordinate_system_code '2'
_symmetry_cell_setting 'orthorhombic'
loop_
_space_group_symop_operation_xyz
x,y,z
-x,1/2-y,z
x,1/2-y,1/2-z
-x,y,1/2-z
-x,-y,-z
x,1/2+y,-z
-x,1/2+y,1/2+z
x,-y,1/2+z
1/2+x,1/2+y,z
1/2-x,-y,z
1/2+x,-y,1/2-z
1/2-x,1/2+y,1/2-z
1/2-x,1/2-y,-z
1/2+x,y,-z
1/2-x,y,1/2+z
1/2+x,1/2-y,1/2+z
loop_
_atom_site_type_symbol
_atom_site_label
_atom_site_fract_x
_atom_site_fract_y
_atom_site_fract_z
Si Si1 0.644743 0.366781 0.463593
Si Si2 0.500000 0.750000 0.058639
Si Si3 0.597168 0.915883 0.194900
Si Si4 0.680455 0.441931 0.151202
O O1 0.565685 0.305760 0.492902
O O2 0.644085 0.524260 0.395886
O O3 0.681073 0.227748 0.401731
O O4 0.675492 0.424687 0.566219
O O5 0.524481 0.886610 0.136156
O O6 0.613932 0.750000 0.250000
O O7 0.612687 0.046201 0.278174
O O8 0.750000 0.500000 0.208780
#
# Coordination Sequence:
#
# PCOD9510842 Si02
#       4
#    16   8  16  16
#     4  12  26  49  76 111 150 204 250 322 389 457
#     4  12  25  48  79 106 156 194 263 314 403 446
#     4  12  26  46  75 111 150 197 252 326 376 453
#     4  12  27  48  76 112 152 203 256 314 387 467
#
# _framework density 25.943868999999999
#
# number of rings (size 3 to 8) (size 9 to 14) (size 15 to 20)
#    0.000    0.000    5.714    3.000    0.000    3.429 
#    0.000    1.429    0.000    0.000    0.000    0.000 
#    0.000    0.000    0.000    0.000    0.000    0.000 
#
# Total GULP energy -156512.299636 kJ/mol
# GULP energy per Si atom -5589.724987 kJ/mol
# Density = 2.588482 g / cm^3
# Si number density = 25.943869 Si / 1000 Ang^3
#
#
#
# Elastic Constant Matrix: (Units=GPa)
#
#
# Indices 1 2 3 4 5 6 
#
# 1 93.2952 30.2489 23.6742 0.0000 0.0000 0.0000
# 2 30.2489 91.8193 19.0410 0.0000 0.0000 0.0000
# 3 23.6742 19.0410 104.6005 0.0000 0.0000 0.0000
# 4 0.0000 0.0000 0.0000 56.2829 0.0000 0.0000
# 5 0.0000 0.0000 0.0000 0.0000 32.3960 0.0000
# 6 0.0000 0.0000 0.0000 0.0000 0.0000 23.3314
#
#
#
# Elastic Compliance Matrix: (Units=1/GPa)
#
#
# Indices 1 2 3 4 5 6 
#
# 1 0.012450 -0.003655 -0.002152 0.000000 0.000000 0.000000
# 2 -0.003655 0.012391 -0.001428 0.000000 0.000000 0.000000
# 3 -0.002152 -0.001428 0.010307 0.000000 0.000000 0.000000
# 4 0.000000 0.000000 0.000000 0.017767 0.000000 0.000000
# 5 0.000000 0.000000 0.000000 0.000000 0.030868 0.000000
# 6 0.000000 0.000000 0.000000 0.000000 0.000000 0.042861
#
#
# Mechanical properties :
#
#
# Convention : Reuss Voigt Hill
#
# Bulk Modulus (GPa) = 48.36363 48.40482 48.38422
# Shear Modulus (GPa) = 33.78175 36.85211 35.31693
#
# Velocity S-wave (km/s) = 3.61239 3.77298 3.69356
# Velocity P-wave (km/s) = 6.00677 6.13829 6.07288
#
# Compressibility (1/GPa) = 0.02067669
#
# Stress axis : x y z
#
# Youngs Moduli (GPa) = 80.32150 80.70160 97.01803
#
# Poissons Ratio (x) = 0.29498 0.20882
# Poissons Ratio (y) = 0.29359 0.13858
# Poissons Ratio (z) = 0.17289 0.11527
#
# Static dielectric constant tensor:
#      x y z
#    x 2.116280 0.000000 0.000000 
#    y 0.000000 2.027500 0.000000 
#    z 0.000000 0.000000 2.001120 
# 
# From -- ./inp_files/24127.got.cif
#   From: 2010.05.17/outbox.cif.g08.bks.cpg/sg68_13_cif.got.tgz:24127.got - 2010.06.03 18:57:09.
