data_PCOD9510143
_publ_section_title
;
Structure prediction by ZEFSAII (Michael W. Deem and Ramdas Pophale) SiO2 
 PCOD9510143
Probable space group: C C C A
;
_chemical_formula_sum "Si O2"
_cell_formula_units_Z 96
_cell_length_a 15.002668
_cell_length_b 14.987663
_cell_length_c 21.683329
_cell_angle_alpha 90.000000
_cell_angle_beta 90.000000
_cell_angle_gamma 90.000000
_cell_volume 4875.603470
_symmetry_space_group_name_H-M "C C C A"
_symmetry_group_IT_number 68
_space_group.IT_coordinate_system_code '2'
_symmetry_cell_setting 'orthorhombic'
loop_
_space_group_symop_operation_xyz
x,y,z
-x,1/2-y,z
x,1/2-y,1/2-z
-x,y,1/2-z
-x,-y,-z
x,1/2+y,-z
-x,1/2+y,1/2+z
x,-y,1/2+z
1/2+x,1/2+y,z
1/2-x,-y,z
1/2+x,-y,1/2-z
1/2-x,1/2+y,1/2-z
1/2-x,1/2-y,-z
1/2+x,y,-z
1/2-x,y,1/2+z
1/2+x,1/2-y,1/2+z
loop_
_atom_site_type_symbol
_atom_site_label
_atom_site_fract_x
_atom_site_fract_y
_atom_site_fract_z
Si Si1 0.227033 0.752004 0.854868
Si Si2 0.812295 0.414025 0.572585
Si Si3 0.641289 0.250000 0.250000
Si Si4 0.000000 0.604685 0.250000
Si Si5 0.006748 0.990648 0.124300
Si Si6 0.826970 0.430291 0.426487
Si Si7 0.946838 0.830839 0.814574
O O1 0.269519 0.676057 0.899123
O O2 0.302360 0.782887 0.807734
O O3 0.185076 0.837599 0.889188
O O4 0.153452 0.703013 0.812342
O O5 0.750000 0.500000 0.589461
O O6 0.814365 0.409204 0.498578
O O7 0.914437 0.431776 0.594578
O O8 0.579948 0.168444 0.270496
O O9 0.025862 0.550080 0.189425
O O10 0.921235 0.019551 0.084431
O O11 0.052079 0.082749 0.144344
O O12 0.750000 0.500000 0.407493
O O13 0.000000 0.750000 0.845936
O O14 0.000000 0.845733 0.750000
#
# Coordination Sequence:
#
# PCOD9510143 Si02
#       7
#    16  16   8   8  16  16  16
#     4  12  23  43  68  96 135 172 219 276 339 396
#     4  11  24  44  69  98 129 175 225 274 333 398
#     4  11  24  40  63  94 134 172 211 266 334 401
#     4  11  24  40  63  94 134 172 215 264 330 411
#     4  12  22  43  67  95 133 173 221 274 336 396
#     4  11  26  45  66  95 133 175 228 276 323 397
#     4  11  22  38  64 101 129 165 210 272 332 398
#
# _framework density 19.689871
#
# number of rings (size 3 to 8) (size 9 to 14) (size 15 to 20)
#    0.000    0.667    5.833    3.000    0.000    0.000 
#    0.000    0.000    3.667    0.000    0.000    0.000 
#    0.000    0.000    0.000    0.000    0.000    0.000 
#
# Total GULP energy -267796.091802 kJ/mol
# GULP energy per Si atom -5579.085246 kJ/mol
# Density = 1.964506 g / cm^3
# Si number density = 19.689871 Si / 1000 Ang^3
#
#
#
# Elastic Constant Matrix: (Units=GPa)
#
#
# Indices 1 2 3 4 5 6 
#
# 1 116.0761 29.2460 30.1155 0.0000 0.0000 0.0000
# 2 29.2460 76.9457 20.1748 0.0000 0.0000 0.0000
# 3 30.1155 20.1748 69.8625 0.0000 0.0000 0.0000
# 4 0.0000 0.0000 0.0000 401.7498 0.0000 0.0000
# 5 0.0000 0.0000 0.0000 0.0000 30.7850 0.0000
# 6 0.0000 0.0000 0.0000 0.0000 0.0000 -12.3451
#
#
#
# Elastic Compliance Matrix: (Units=1/GPa)
#
#
# Indices 1 2 3 4 5 6 
#
# 1 0.010293 -0.002974 -0.003578 0.000000 0.000000 0.000000
# 2 -0.002974 0.014920 -0.003027 0.000000 0.000000 0.000000
# 3 -0.003578 -0.003027 0.016730 0.000000 0.000000 0.000000
# 4 0.000000 0.000000 0.000000 0.002489 0.000000 0.000000
# 5 0.000000 0.000000 0.000000 0.000000 0.032483 0.000000
# 6 0.000000 0.000000 0.000000 0.000000 0.000000 -0.081004
#
#
# Mechanical properties :
#
#
# Convention : Reuss Voigt Hill
#
# Bulk Modulus (GPa) = 43.88705 46.88411 45.38558
# Shear Modulus (GPa) = 220.61563 96.26114 158.43839
#
# Velocity S-wave (km/s) = 10.59663 6.99963 8.98007
# Velocity P-wave (km/s) = 13.11699 9.44401 11.42902
#
# Compressibility (1/GPa) = 0.02278576
#
# Stress axis : x y z
#
# Youngs Moduli (GPa) = 97.15680 67.02367 59.77206
#
# Poissons Ratio (x) = 0.19933 0.21386
# Poissons Ratio (y) = 0.28894 0.18091
# Poissons Ratio (z) = 0.34763 0.20286
#
# Static dielectric constant tensor:
#      x y z
#    x 1.723940 0.000000 0.000000 
#    y 0.000000 1.698590 0.000000 
#    z 0.000000 0.000000 1.766440 
# 
# From -- ./inp_files/38636.got.cif
#   From: 2010.05.17/outbox.cif.g08.bks.cpg/sg68_20_cif.got.tgz:38636.got - 2010.06.03 18:57:09.
