data_PCOD9510320
_publ_section_title
;
Structure prediction by ZEFSAII (Michael W. Deem and Ramdas Pophale) SiO2 
 PCOD9510320
Probable space group: C C C A
;
_chemical_formula_sum "Si O2"
_cell_formula_units_Z 72
_cell_length_a 22.593014
_cell_length_b 9.794187
_cell_length_c 13.728014
_cell_angle_alpha 90.000000
_cell_angle_beta 90.000000
_cell_angle_gamma 90.000000
_cell_volume 3037.737739
_symmetry_space_group_name_H-M "C C C A"
_symmetry_group_IT_number 68
_space_group.IT_coordinate_system_code '2'
_symmetry_cell_setting 'orthorhombic'
loop_
_space_group_symop_operation_xyz
x,y,z
-x,1/2-y,z
x,1/2-y,1/2-z
-x,y,1/2-z
-x,-y,-z
x,1/2+y,-z
-x,1/2+y,1/2+z
x,-y,1/2+z
1/2+x,1/2+y,z
1/2-x,-y,z
1/2+x,-y,1/2-z
1/2-x,1/2+y,1/2-z
1/2-x,1/2-y,-z
1/2+x,y,-z
1/2-x,y,1/2+z
1/2+x,1/2-y,1/2+z
loop_
_atom_site_type_symbol
_atom_site_label
_atom_site_fract_x
_atom_site_fract_y
_atom_site_fract_z
Si Si1 0.823497 0.750000 0.250000
Si Si2 0.962933 0.369840 0.958721
Si Si3 0.397571 0.769158 0.148913
Si Si4 0.157552 0.486671 0.613605
Si Si5 0.818114 0.519122 0.112998
O O1 0.805777 0.613673 0.315432
O O2 0.842857 0.661435 0.154655
O O3 0.935495 0.290500 0.052197
O O4 0.000000 0.250000 0.906971
O O5 0.909660 0.426730 0.892938
O O6 0.000000 0.500000 0.000000
O O7 0.431709 0.750000 0.250000
O O8 0.351912 0.644381 0.139735
O O9 0.359667 0.905274 0.157357
O O10 0.179248 0.493709 0.502617
O O11 0.750000 0.500000 0.139671
#
# Coordination Sequence:
#
# PCOD9510320 Si02
#       5
#     8  16  16  16  16
#     4  12  26  44  73 104 138 186 241 286 358 432
#     4  11  23  42  68 100 138 184 232 289 359 423
#     4  11  23  44  67  97 142 181 228 297 356 419
#     4  11  25  46  70 100 142 186 234 296 356 422
#     4  11  26  44  72 102 141 187 240 295 361 432
#
# _framework density 23.70185
#
# number of rings (size 3 to 8) (size 9 to 14) (size 15 to 20)
#    0.000    0.889    4.444    2.667    4.667    4.889 
#    0.000    2.778    0.000    0.000    0.000    0.000 
#    0.000    0.000    0.000    0.000    0.000    0.000 
#
# Total GULP energy -200488.489050 kJ/mol
# GULP energy per Si atom -5569.124696 kJ/mol
# Density = 2.364790 g / cm^3
# Si number density = 23.701850 Si / 1000 Ang^3
#
#
#
# Elastic Constant Matrix: (Units=GPa)
#
#
# Indices 1 2 3 4 5 6 
#
# 1 58.4673 7.5599 -22.8186 0.0000 0.0000 0.0000
# 2 7.5599 164.4834 -7.1647 0.0000 0.0000 0.0000
# 3 -22.8186 -7.1647 83.1756 0.0000 0.0000 0.0000
# 4 0.0000 0.0000 0.0000 55.9419 0.0000 0.0000
# 5 0.0000 0.0000 0.0000 0.0000 0.6924 0.0000
# 6 0.0000 0.0000 0.0000 0.0000 0.0000 3.5300
#
#
#
# Elastic Compliance Matrix: (Units=1/GPa)
#
#
# Indices 1 2 3 4 5 6 
#
# 1 0.019225 -0.000656 0.005218 0.000000 0.000000 0.000000
# 2 -0.000656 0.006125 0.000348 0.000000 0.000000 0.000000
# 3 0.005218 0.000348 0.013484 0.000000 0.000000 0.000000
# 4 0.000000 0.000000 0.000000 0.017876 0.000000 0.000000
# 5 0.000000 0.000000 0.000000 0.000000 1.444188 0.000000
# 6 0.000000 0.000000 0.000000 0.000000 0.000000 0.283286
#
#
# Mechanical properties :
#
#
# Convention : Reuss Voigt Hill
#
# Bulk Modulus (GPa) = 20.55434 29.03107 24.79271
# Shear Modulus (GPa) = 2.79239 33.93618 18.36428
#
# Velocity S-wave (km/s) = 1.08659 3.78801 2.78655
# Velocity P-wave (km/s) = 3.20392 5.60420 4.56466
#
# Compressibility (1/GPa) = 0.04865152
#
# Stress axis : x y z
#
# Youngs Moduli (GPa) = 52.01620 163.26683 74.16141
#
# Poissons Ratio (x) = 0.10716 -0.38695
# Poissons Ratio (y) = 0.03414 -0.02577
# Poissons Ratio (z) = -0.27140 -0.05674
#
# Static dielectric constant tensor:
#      x y z
#    x 1.482750 0.000000 0.000000 
#    y 0.000000 1.848510 0.000000 
#    z 0.000000 0.000000 2.147440 
# 
# From -- ./inp_files/19486.got.cif
#   From: 2010.05.17/outbox.cif.g08.bks.cpg/sg68_10_cif.got.tgz:19486.got - 2010.06.03 18:57:09.
