data_PCOD9510124
_publ_section_title
;
Structure prediction by ZEFSAII (Michael W. Deem and Ramdas Pophale) SiO2 
 PCOD9510124
Probable space group: C C C A
;
_chemical_formula_sum "Si O2"
_cell_formula_units_Z 68
_cell_length_a 8.494506
_cell_length_b 14.334263
_cell_length_c 30.084022
_cell_angle_alpha 90.000000
_cell_angle_beta 90.000000
_cell_angle_gamma 90.000000
_cell_volume 3663.105219
_symmetry_space_group_name_H-M "C C C A"
_symmetry_group_IT_number 68
_space_group.IT_coordinate_system_code '2'
_symmetry_cell_setting 'orthorhombic'
loop_
_space_group_symop_operation_xyz
x,y,z
-x,1/2-y,z
x,1/2-y,1/2-z
-x,y,1/2-z
-x,-y,-z
x,1/2+y,-z
-x,1/2+y,1/2+z
x,-y,1/2+z
1/2+x,1/2+y,z
1/2-x,-y,z
1/2+x,-y,1/2-z
1/2-x,1/2+y,1/2-z
1/2-x,1/2-y,-z
1/2+x,y,-z
1/2-x,y,1/2+z
1/2+x,1/2-y,1/2+z
loop_
_atom_site_type_symbol
_atom_site_label
_atom_site_fract_x
_atom_site_fract_y
_atom_site_fract_z
Si Si1 0.059151 0.353625 0.441345
Si Si2 0.074146 0.853030 0.034079
Si Si3 0.901941 0.566023 0.291769
Si Si4 0.062841 0.482217 0.610421
Si Si5 0.000000 0.250000 0.750000
O O1 0.240780 0.351627 0.455827
O O2 0.000000 0.250000 0.430952
O O3 0.960112 0.388705 0.484258
O O4 0.027202 0.422313 0.400804
O O5 0.000000 0.750000 0.034543
O O6 0.989346 0.911866 0.071991
O O7 0.750000 0.500000 0.293444
O O8 0.976168 0.555952 0.340609
O O9 0.895783 0.677020 0.279274
O O10 0.000000 0.528020 0.250000
O O11 0.250000 0.500000 0.607803
#
# Coordination Sequence:
#
# PCOD9510124 Si02
#       5
#    16  16  16  16   4
#     4  11  22  39  55  87 121 162 208 257 309 368
#     4  11  22  36  60  83 119 165 207 257 309 367
#     4   9  21  41  66  95 125 161 206 258 317 382
#     4  11  22  38  59  88 121 158 202 253 306 373
#     4   8  20  44  70  90 128 164 198 260 324 366
#
# _framework density 18.563486000000001
#
# number of rings (size 3 to 8) (size 9 to 14) (size 15 to 20)
#    0.706    0.941    0.000    7.059    1.647    1.882 
#    0.000    0.588    0.000    0.000    0.000    0.000 
#    0.000    0.000    0.000    0.000    0.000    0.000 
#
# Total GULP energy -189537.654481 kJ/mol
# GULP energy per Si atom -5574.636897 kJ/mol
# Density = 1.852123 g / cm^3
# Si number density = 18.563486 Si / 1000 Ang^3
#
#
#
# Elastic Constant Matrix: (Units=GPa)
#
#
# Indices 1 2 3 4 5 6 
#
# 1 84.2202 21.3920 8.6300 0.0000 0.0000 0.0000
# 2 21.3920 112.8825 65.4177 0.0000 0.0000 0.0000
# 3 8.6300 65.4177 116.2674 0.0000 0.0000 0.0000
# 4 0.0000 0.0000 0.0000 18.4266 0.0000 0.0000
# 5 0.0000 0.0000 0.0000 0.0000 29.3528 0.0000
# 6 0.0000 0.0000 0.0000 0.0000 0.0000 29.3929
#
#
#
# Elastic Compliance Matrix: (Units=1/GPa)
#
#
# Indices 1 2 3 4 5 6 
#
# 1 0.012502 -0.002718 0.000601 0.000000 0.000000 0.000000
# 2 -0.002718 0.013736 -0.007527 0.000000 0.000000 0.000000
# 3 0.000601 -0.007527 0.012791 0.000000 0.000000 0.000000
# 4 0.000000 0.000000 0.000000 0.054270 0.000000 0.000000
# 5 0.000000 0.000000 0.000000 0.000000 0.034068 0.000000
# 6 0.000000 0.000000 0.000000 0.000000 0.000000 0.034022
#
#
# Mechanical properties :
#
#
# Convention : Reuss Voigt Hill
#
# Bulk Modulus (GPa) = 50.65158 56.02772 53.33965
# Shear Modulus (GPa) = 26.70145 29.96314 28.33229
#
# Velocity S-wave (km/s) = 3.79672 4.02193 3.91095
# Velocity P-wave (km/s) = 6.82385 7.19827 7.01356
#
# Compressibility (1/GPa) = 0.01974272
#
# Stress axis : x y z
#
# Youngs Moduli (GPa) = 79.98515 72.80361 78.17954
#
# Poissons Ratio (x) = 0.19785 -0.04699
# Poissons Ratio (y) = 0.21737 0.58843
# Poissons Ratio (z) = -0.04808 0.54796
#
# Static dielectric constant tensor:
#      x y z
#    x 1.680090 0.000000 0.000000 
#    y 0.000000 1.691220 0.000000 
#    z 0.000000 0.000000 1.646150 
# 
# From -- ./inp_files/48873.got.cif
#   From: 2010.05.17/outbox.cif.g08.bks.cpg/sg68_25_cif.got.tgz:48873.got - 2010.06.03 18:57:09.
