data_PCOD9510805
_publ_section_title
;
Structure prediction by ZEFSAII (Michael W. Deem and Ramdas Pophale) SiO2 
 PCOD9510805
Probable space group: C C C A
;
_chemical_formula_sum "Si O2"
_cell_formula_units_Z 88
_cell_length_a 19.901415
_cell_length_b 16.317629
_cell_length_c 10.518543
_cell_angle_alpha 90.000000
_cell_angle_beta 90.000000
_cell_angle_gamma 90.000000
_cell_volume 3415.832745
_symmetry_space_group_name_H-M "C C C A"
_symmetry_group_IT_number 68
_space_group.IT_coordinate_system_code '2'
_symmetry_cell_setting 'orthorhombic'
loop_
_space_group_symop_operation_xyz
x,y,z
-x,1/2-y,z
x,1/2-y,1/2-z
-x,y,1/2-z
-x,-y,-z
x,1/2+y,-z
-x,1/2+y,1/2+z
x,-y,1/2+z
1/2+x,1/2+y,z
1/2-x,-y,z
1/2+x,-y,1/2-z
1/2-x,1/2+y,1/2-z
1/2-x,1/2-y,-z
1/2+x,y,-z
1/2-x,y,1/2+z
1/2+x,1/2-y,1/2+z
loop_
_atom_site_type_symbol
_atom_site_label
_atom_site_fract_x
_atom_site_fract_y
_atom_site_fract_z
Si Si1 0.500000 0.907956 0.750000
Si Si2 0.094097 0.820563 0.052434
Si Si3 0.117592 0.848334 0.579436
Si Si4 0.072023 0.433941 0.178809
Si Si5 0.268987 0.166600 0.178987
Si Si6 0.312588 0.463758 0.111895
O O1 0.553809 0.850995 0.822443
O O2 0.466015 0.979211 0.836141
O O3 0.173566 0.839651 0.070924
O O4 0.088837 0.727140 0.003490
O O5 0.065343 0.876386 0.940840
O O6 0.068318 0.881968 0.689957
O O7 0.191713 0.824568 0.635205
O O8 0.138173 0.919971 0.484654
O O9 0.148567 0.464688 0.182248
O O10 0.287626 0.250000 0.250000
O O11 0.284312 0.096543 0.281236
O O12 0.250000 0.500000 0.035496
#
# Coordination Sequence:
#
# PCOD9510805 Si02
#       6
#     8  16  16  16  16  16
#     4  12  28  52  80 110 154 210 282 340 393 474
#     4  12  26  50  78 113 158 210 271 334 406 491
#     4  12  27  46  79 117 163 210 260 331 416 502
#     4  12  26  49  75 111 156 206 268 337 399 471
#     4  12  24  46  72 117 159 202 256 324 407 497
#     4  12  25  42  72 112 159 205 259 319 406 488
#
# _framework density 25.762385999999999
#
# number of rings (size 3 to 8) (size 9 to 14) (size 15 to 20)
#    0.000    0.000    5.455    4.909    2.545    0.000 
#    0.000    9.545    0.000    0.000    0.000    0.000 
#    0.000    0.000    0.000    0.000    0.000    0.000 
#
# Total GULP energy -246309.349559 kJ/mol
# GULP energy per Si atom -5597.939763 kJ/mol
# Density = 2.570375 g / cm^3
# Si number density = 25.762386 Si / 1000 Ang^3
#
#
#
# Elastic Constant Matrix: (Units=GPa)
#
#
# Indices 1 2 3 4 5 6 
#
# 1 68.5158 28.2138 5.9896 0.0000 0.0000 0.0000
# 2 28.2138 94.7869 46.2466 0.0000 0.0000 0.0000
# 3 5.9896 46.2466 73.1234 0.0000 0.0000 0.0000
# 4 0.0000 0.0000 0.0000 50.7668 0.0000 0.0000
# 5 0.0000 0.0000 0.0000 0.0000 8.8690 0.0000
# 6 0.0000 0.0000 0.0000 0.0000 0.0000 39.9178
#
#
#
# Elastic Compliance Matrix: (Units=1/GPa)
#
#
# Indices 1 2 3 4 5 6 
#
# 1 0.016972 -0.006325 0.002610 0.000000 0.000000 0.000000
# 2 -0.006325 0.017616 -0.010623 0.000000 0.000000 0.000000
# 3 0.002610 -0.010623 0.020180 0.000000 0.000000 0.000000
# 4 0.000000 0.000000 0.000000 0.019698 0.000000 0.000000
# 5 0.000000 0.000000 0.000000 0.000000 0.112753 0.000000
# 6 0.000000 0.000000 0.000000 0.000000 0.000000 0.025051
#
#
# Mechanical properties :
#
#
# Convention : Reuss Voigt Hill
#
# Bulk Modulus (GPa) = 38.32647 44.14735 41.23691
# Shear Modulus (GPa) = 20.02868 30.30912 25.16890
#
# Velocity S-wave (km/s) = 2.79128 3.43372 3.12903
# Velocity P-wave (km/s) = 5.02967 5.73534 5.39406
#
# Compressibility (1/GPa) = 0.02609163
#
# Stress axis : x y z
#
# Youngs Moduli (GPa) = 58.92188 56.76793 49.55390
#
# Poissons Ratio (x) = 0.35907 -0.12935
# Poissons Ratio (y) = 0.37269 0.52640
# Poissons Ratio (z) = -0.15380 0.60303
#
# Static dielectric constant tensor:
#      x y z
#    x 2.214710 0.000000 0.000000 
#    y 0.000000 1.908150 0.000000 
#    z 0.000000 0.000000 2.044160 
# 
# From -- ./inp_files/16321.got.cif
#   From: 2010.05.17/outbox.cif.g08.bks.cpg/sg68_9_cif.got.tgz:16321.got - 2010.06.03 18:57:09.
