data_PCOD9510915
_publ_section_title
;
Structure prediction by ZEFSAII (Michael W. Deem and Ramdas Pophale) SiO2 
 PCOD9510915
Probable space group: C C C A
;
_chemical_formula_sum "Si O2"
_cell_formula_units_Z 128
_cell_length_a 15.159677
_cell_length_b 23.238340
_cell_length_c 17.150634
_cell_angle_alpha 90.000000
_cell_angle_beta 90.000000
_cell_angle_gamma 90.000000
_cell_volume 6041.923591
_symmetry_space_group_name_H-M "C C C A"
_symmetry_group_IT_number 68
_space_group.IT_coordinate_system_code '2'
_symmetry_cell_setting 'orthorhombic'
loop_
_space_group_symop_operation_xyz
x,y,z
-x,1/2-y,z
x,1/2-y,1/2-z
-x,y,1/2-z
-x,-y,-z
x,1/2+y,-z
-x,1/2+y,1/2+z
x,-y,1/2+z
1/2+x,1/2+y,z
1/2-x,-y,z
1/2+x,-y,1/2-z
1/2-x,1/2+y,1/2-z
1/2-x,1/2-y,-z
1/2+x,y,-z
1/2-x,y,1/2+z
1/2+x,1/2-y,1/2+z
loop_
_atom_site_type_symbol
_atom_site_label
_atom_site_fract_x
_atom_site_fract_y
_atom_site_fract_z
Si Si1 0.106174 0.633991 0.928089
Si Si2 0.354409 0.008109 0.588837
Si Si3 0.391706 0.816372 0.750000
Si Si4 0.145591 0.008109 0.411163
Si Si5 0.102892 0.615260 0.104088
Si Si6 0.608193 0.250000 0.659385
Si Si7 0.102892 0.384740 0.895912
Si Si8 0.893826 0.633991 0.928089
O O1 0.125912 0.573016 0.886233
O O2 0.136993 0.691767 0.885253
O O3 0.000000 0.637718 0.931770
O O4 0.140656 0.626410 0.017374
O O5 0.250000 0.000000 0.587704
O O6 0.389166 0.000000 0.500000
O O7 0.391132 0.951418 0.629672
O O8 0.370181 0.750000 0.750000
O O9 0.500000 0.821595 0.750000
O O10 0.357420 0.846451 0.827946
O O11 0.357420 0.846451 0.672054
O O12 0.125912 0.073016 0.386233
O O13 0.250000 0.000000 0.412296
O O14 0.108868 0.951418 0.370328
O O15 1.000000 0.630280 0.097684
O O16 0.500000 0.250000 0.658545
O O17 0.635071 0.250000 0.750000
O O18 0.636993 0.191767 0.614747
O O19 0.140656 0.373590 0.982626
#
# Coordination Sequence:
#
# PCOD9510915 Si02
#       8
#    16  16  16  16  16  16  16  16
#     4   9  17  30  53  77  99 130 165 202 245 295
#     4   9  17  31  52  73 100 129 165 204 246 292
#     4   9  18  30  47  72 102 129 159 206 250 286
#     4   9  17  31  52  73 100 129 165 204 246 292
#     4   9  17  30  50  75  99 126 165 204 244 291
#     4   9  18  32  50  76 103 127 162 206 249 292
#     4   9  17  30  50  75  99 126 165 204 244 291
#     4   9  17  30  53  77  99 130 165 202 245 295
#
# _framework density 21.185306000000001
#
# number of rings (size 3 to 8) (size 9 to 14) (size 15 to 20)
#    0.000    3.000    0.000    0.750    1.750    3.000 
#    2.250    0.625    2.750    3.000    0.000    0.000 
#    0.000    0.000    0.000    0.000    0.000    0.000 
#
# Total GULP energy -356692.991852 kJ/mol
# GULP energy per Si atom -5573.327998 kJ/mol
# Density = 2.113709 g / cm^3
# Si number density = 21.185306 Si / 1000 Ang^3
#
#
#
# Elastic Constant Matrix: (Units=GPa)
#
#
# Indices 1 2 3 4 5 6 
#
# 1 32.7011 -2.4573 6.9886 0.0000 0.0000 0.0000
# 2 -2.4573 226.3120 99.1484 0.0000 0.0000 0.0000
# 3 6.9886 99.1484 95.6403 0.0000 0.0000 0.0000
# 4 0.0000 0.0000 0.0000 28.9904 0.0000 0.0000
# 5 0.0000 0.0000 0.0000 0.0000 8.2614 0.0000
# 6 0.0000 0.0000 0.0000 0.0000 0.0000 -26.1832
#
#
#
# Elastic Compliance Matrix: (Units=1/GPa)
#
#
# Indices 1 2 3 4 5 6 
#
# 1 0.031818 0.002499 -0.004916 0.000000 0.000000 0.000000
# 2 0.002499 0.008292 -0.008778 0.000000 0.000000 0.000000
# 3 -0.004916 -0.008778 0.019915 0.000000 0.000000 0.000000
# 4 0.000000 0.000000 0.000000 0.034494 0.000000 0.000000
# 5 0.000000 0.000000 0.000000 0.000000 0.121044 0.000000
# 6 0.000000 0.000000 0.000000 0.000000 0.000000 -0.038192
#
#
# Mechanical properties :
#
#
# Convention : Reuss Voigt Hill
#
# Bulk Modulus (GPa) = 26.57082 62.44587 44.50835
# Shear Modulus (GPa) = 23.55083 18.94530 21.24807
#
# Velocity S-wave (km/s) = 3.33777 2.99367 3.17039
# Velocity P-wave (km/s) = 5.23676 6.44123 5.86997
#
# Compressibility (1/GPa) = 0.03763527
#
# Stress axis : x y z
#
# Youngs Moduli (GPa) = 31.42841 120.60269 50.21224
#
# Poissons Ratio (x) = -0.30140 0.24683
# Poissons Ratio (y) = -0.07854 0.44078
# Poissons Ratio (z) = 0.15450 1.05870
#
# Static dielectric constant tensor:
#      x y z
#    x 1.778550 0.000000 0.000000 
#    y 0.000000 1.987020 0.000000 
#    z 0.000000 0.000000 1.787880 
# 
# From -- ./inp_files/33258.got.cif
#   From: 2010.05.17/outbox.cif.g08.bks.cpg/sg68_17_cif.got.tgz:33258.got - 2010.06.03 18:57:09.
