data_PCOD9510331
_publ_section_title
;
Structure prediction by ZEFSAII (Michael W. Deem and Ramdas Pophale) SiO2 
 PCOD9510331
Probable space group: C C C A
;
_chemical_formula_sum "Si O2"
_cell_formula_units_Z 92
_cell_length_a 21.396065
_cell_length_b 23.741810
_cell_length_c 8.724340
_cell_angle_alpha 90.000000
_cell_angle_beta 90.000000
_cell_angle_gamma 90.000000
_cell_volume 4431.801662
_symmetry_space_group_name_H-M "C C C A"
_symmetry_group_IT_number 68
_space_group.IT_coordinate_system_code '2'
_symmetry_cell_setting 'orthorhombic'
loop_
_space_group_symop_operation_xyz
x,y,z
-x,1/2-y,z
x,1/2-y,1/2-z
-x,y,1/2-z
-x,-y,-z
x,1/2+y,-z
-x,1/2+y,1/2+z
x,-y,1/2+z
1/2+x,1/2+y,z
1/2-x,-y,z
1/2+x,-y,1/2-z
1/2-x,1/2+y,1/2-z
1/2-x,1/2-y,-z
1/2+x,y,-z
1/2-x,y,1/2+z
1/2+x,1/2-y,1/2+z
loop_
_atom_site_type_symbol
_atom_site_label
_atom_site_fract_x
_atom_site_fract_y
_atom_site_fract_z
Si Si1 0.712650 0.198343 0.428539
Si Si2 0.366788 0.567795 0.223801
Si Si3 0.887494 0.946040 0.082420
Si Si4 0.000000 0.250000 0.250000
Si Si5 0.577614 0.170958 0.525330
Si Si6 0.236769 0.379664 0.669114
Si Si7 0.500000 0.883662 0.750000
O O1 0.750000 0.250000 0.500000
O O2 0.639540 0.202198 0.463460
O O3 0.736622 0.140850 0.507657
O O4 0.725415 0.179840 0.255627
O O5 0.377972 0.510591 0.130595
O O6 0.390573 0.561857 0.398623
O O7 0.399872 0.617643 0.127686
O O8 0.293007 0.582525 0.234251
O O9 0.827779 0.912132 0.148883
O O10 0.948861 0.921392 0.162897
O O11 0.041297 0.211397 0.360190
O O12 0.535799 0.152049 0.380903
#
# Coordination Sequence:
#
# PCOD9510331 Si02
#       7
#    16  16  16   4  16  16   8
#     4  11  24  43  71 104 138 180 236 298 358 421
#     4  11  26  44  73 102 141 180 239 297 364 422
#     4  12  25  43  71 103 140 190 229 297 359 435
#     4  12  28  48  72  96 152 192 236 298 346 430
#     4  11  27  48  70 105 141 190 243 291 358 426
#     4  11  23  43  69 105 140 177 232 300 357 430
#     4  12  26  48  72 100 148 182 244 286 346 446
#
# _framework density 20.759050999999999
#
# number of rings (size 3 to 8) (size 9 to 14) (size 15 to 20)
#    0.000    0.696    3.478    3.130    7.304    6.609 
#    3.130    0.000    0.000    0.000    0.000    0.000 
#    0.000    0.000    0.000    0.000    0.000    0.000 
#
# Total GULP energy -257135.521889 kJ/mol
# GULP energy per Si atom -5589.902650 kJ/mol
# Density = 2.071180 g / cm^3
# Si number density = 20.759051 Si / 1000 Ang^3
#
#
#
# Elastic Constant Matrix: (Units=GPa)
#
#
# Indices 1 2 3 4 5 6 
#
# 1 164.6546 64.0909 65.5930 0.0000 0.0000 0.0000
# 2 64.0909 106.3330 51.3605 0.0000 0.0000 0.0000
# 3 65.5930 51.3605 150.4615 0.0000 0.0000 0.0000
# 4 0.0000 0.0000 0.0000 19.9410 0.0000 0.0000
# 5 0.0000 0.0000 0.0000 0.0000 26.9595 0.0000
# 6 0.0000 0.0000 0.0000 0.0000 0.0000 38.1905
#
#
#
# Elastic Compliance Matrix: (Units=1/GPa)
#
#
# Indices 1 2 3 4 5 6 
#
# 1 0.008585 -0.004032 -0.002367 0.000000 0.000000 0.000000
# 2 -0.004032 0.013154 -0.002733 0.000000 0.000000 0.000000
# 3 -0.002367 -0.002733 0.008611 0.000000 0.000000 0.000000
# 4 0.000000 0.000000 0.000000 0.050148 0.000000 0.000000
# 5 0.000000 0.000000 0.000000 0.000000 0.037093 0.000000
# 6 0.000000 0.000000 0.000000 0.000000 0.000000 0.026184
#
#
# Mechanical properties :
#
#
# Convention : Reuss Voigt Hill
#
# Bulk Modulus (GPa) = 82.72202 87.05977 84.89089
# Shear Modulus (GPa) = 30.10836 33.04520 31.57678
#
# Velocity S-wave (km/s) = 3.81251 3.99412 3.90437
# Velocity P-wave (km/s) = 7.70165 7.95613 7.82992
#
# Compressibility (1/GPa) = 0.01208868
#
# Stress axis : x y z
#
# Youngs Moduli (GPa) = 116.47729 76.02029 116.13435
#
# Poissons Ratio (x) = 0.30649 0.27484
# Poissons Ratio (y) = 0.46960 0.31736
# Poissons Ratio (z) = 0.27565 0.20774
#
# Static dielectric constant tensor:
#      x y z
#    x 1.720100 0.000000 0.000000 
#    y 0.000000 1.703650 0.000000 
#    z 0.000000 0.000000 1.771130 
# 
# From -- ./inp_files/7184.got.cif
#   From: 2010.05.17/outbox.cif.g08.bks.cpg/sg68_4_cif.got.tgz:7184.got - 2010.06.03 18:57:09.
