data_PCOD9510710
_publ_section_title
;
Structure prediction by ZEFSAII (Michael W. Deem and Ramdas Pophale) SiO2 
 PCOD9510710
Probable space group: C C C A
;
_chemical_formula_sum "Si O2"
_cell_formula_units_Z 108
_cell_length_a 14.252205
_cell_length_b 22.180919
_cell_length_c 14.519478
_cell_angle_alpha 90.000000
_cell_angle_beta 90.000000
_cell_angle_gamma 90.000000
_cell_volume 4589.999090
_symmetry_space_group_name_H-M "C C C A"
_symmetry_group_IT_number 68
_space_group.IT_coordinate_system_code '2'
_symmetry_cell_setting 'orthorhombic'
loop_
_space_group_symop_operation_xyz
x,y,z
-x,1/2-y,z
x,1/2-y,1/2-z
-x,y,1/2-z
-x,-y,-z
x,1/2+y,-z
-x,1/2+y,1/2+z
x,-y,1/2+z
1/2+x,1/2+y,z
1/2-x,-y,z
1/2+x,-y,1/2-z
1/2-x,1/2+y,1/2-z
1/2-x,1/2-y,-z
1/2+x,y,-z
1/2-x,y,1/2+z
1/2+x,1/2-y,1/2+z
loop_
_atom_site_type_symbol
_atom_site_label
_atom_site_fract_x
_atom_site_fract_y
_atom_site_fract_z
Si Si1 0.000000 0.250000 0.250000
Si Si2 0.037150 0.685940 0.396561
Si Si3 0.260756 0.270550 0.355311
Si Si4 0.038977 0.349281 0.102359
Si Si5 0.657908 0.113472 0.894746
Si Si6 0.704856 0.557960 0.751873
Si Si7 0.000000 0.913725 0.250000
Si Si8 0.250037 0.137419 0.415707
O O1 0.949797 0.202578 0.180051
O O2 0.148921 0.690095 0.383977
O O3 0.012749 0.679129 0.503438
O O4 0.996845 0.631384 0.337485
O O5 0.000000 0.750000 0.362076
O O6 0.269167 0.250000 0.250000
O O7 0.175101 0.316331 0.366901
O O8 0.256439 0.210007 0.415437
O O9 0.140026 0.378905 0.085725
O O10 0.952698 0.394161 0.123442
O O11 0.727488 0.072961 0.833920
O O12 0.691875 0.110026 0.000100
O O13 0.750000 0.500000 0.799326
O O14 0.595003 0.549247 0.734724
O O15 0.711034 0.614527 0.819259
#
# Coordination Sequence:
#
# PCOD9510710 Si02
#       8
#     4  16  16  16  16  16   8  16
#     4  12  24  36  50  90 140 192 224 256 328 416
#     4  12  22  39  67 107 141 185 226 282 350 426
#     4  12  22  40  67 103 147 178 223 287 349 425
#     4  12  25  39  62  95 145 188 230 271 342 426
#     4  12  25  45  68 100 142 184 231 289 355 419
#     4  12  28  49  74 101 135 184 247 303 350 408
#     4  12  23  48  75 102 136 178 236 298 356 408
#     4  12  25  44  69 103 142 187 234 286 355 424
#
# _framework density 23.529418
#
# number of rings (size 3 to 8) (size 9 to 14) (size 15 to 20)
#    0.000    0.000    5.185    6.000    2.074    1.778 
#    0.000    0.000    0.000    5.333    0.000    0.000 
#    0.000    0.000    0.000    0.000    0.000    0.000 
#
# Total GULP energy -302372.100717 kJ/mol
# GULP energy per Si atom -5599.483347 kJ/mol
# Density = 2.347586 g / cm^3
# Si number density = 23.529418 Si / 1000 Ang^3
#
#
#
# Elastic Constant Matrix: (Units=GPa)
#
#
# Indices 1 2 3 4 5 6 
#
# 1 177.6266 15.6129 10.4212 0.0000 0.0000 0.0000
# 2 15.6129 38.4407 -7.6784 0.0000 0.0000 0.0000
# 3 10.4212 -7.6784 115.8838 0.0000 0.0000 0.0000
# 4 0.0000 0.0000 0.0000 10.7909 0.0000 0.0000
# 5 0.0000 0.0000 0.0000 0.0000 32.0151 0.0000
# 6 0.0000 0.0000 0.0000 0.0000 0.0000 24.0759
#
#
#
# Elastic Compliance Matrix: (Units=1/GPa)
#
#
# Indices 1 2 3 4 5 6 
#
# 1 0.005893 -0.002533 -0.000698 0.000000 0.000000 0.000000
# 2 -0.002533 0.027452 0.002047 0.000000 0.000000 0.000000
# 3 -0.000698 0.002047 0.008828 0.000000 0.000000 0.000000
# 4 0.000000 0.000000 0.000000 0.092671 0.000000 0.000000
# 5 0.000000 0.000000 0.000000 0.000000 0.031235 0.000000
# 6 0.000000 0.000000 0.000000 0.000000 0.000000 0.041535
#
#
# Mechanical properties :
#
#
# Convention : Reuss Voigt Hill
#
# Bulk Modulus (GPa) = 25.12276 40.96252 33.04264
# Shear Modulus (GPa) = 22.39635 34.28274 28.33955
#
# Velocity S-wave (km/s) = 3.08855 3.82123 3.47426
# Velocity P-wave (km/s) = 4.83934 6.07585 5.49250
#
# Compressibility (1/GPa) = 0.03980454
#
# Stress axis : x y z
#
# Youngs Moduli (GPa) = 169.68218 36.42764 113.27982
#
# Poissons Ratio (x) = 0.09227 0.07905
# Poissons Ratio (y) = 0.42981 -0.23185
# Poissons Ratio (z) = 0.11841 -0.07456
#
# Static dielectric constant tensor:
#      x y z
#    x 2.020620 0.000000 0.000000 
#    y 0.000000 1.860290 0.000000 
#    z 0.000000 0.000000 1.880260 
# 
# From -- ./inp_files/22669.got.cif
#   From: 2010.05.17/outbox.cif.g08.bks.cpg/sg68_12_cif.got.tgz:22669.got - 2010.06.03 18:57:09.
