data_PCOD9510479
_publ_section_title
;
Structure prediction by ZEFSAII (Michael W. Deem and Ramdas Pophale) SiO2 
 PCOD9510479
Probable space group: C C C A
;
_chemical_formula_sum "Si O2"
_cell_formula_units_Z 48
_cell_length_a 12.035769
_cell_length_b 16.044097
_cell_length_c 11.511506
_cell_angle_alpha 90.000000
_cell_angle_beta 90.000000
_cell_angle_gamma 90.000000
_cell_volume 2222.906865
_symmetry_space_group_name_H-M "C C C A"
_symmetry_group_IT_number 68
_space_group.IT_coordinate_system_code '2'
_symmetry_cell_setting 'orthorhombic'
loop_
_space_group_symop_operation_xyz
x,y,z
-x,1/2-y,z
x,1/2-y,1/2-z
-x,y,1/2-z
-x,-y,-z
x,1/2+y,-z
-x,1/2+y,1/2+z
x,-y,1/2+z
1/2+x,1/2+y,z
1/2-x,-y,z
1/2+x,-y,1/2-z
1/2-x,1/2+y,1/2-z
1/2-x,1/2-y,-z
1/2+x,y,-z
1/2-x,y,1/2+z
1/2+x,1/2-y,1/2+z
loop_
_atom_site_type_symbol
_atom_site_label
_atom_site_fract_x
_atom_site_fract_y
_atom_site_fract_z
Si Si1 0.818158 0.085549 0.217572
Si Si2 0.025060 0.154319 0.091304
Si Si3 0.591712 0.164742 0.175337
O O1 0.869386 0.119476 0.337933
O O2 0.719205 0.140894 0.168735
O O3 0.921873 0.095030 0.128852
O O4 0.750000 0.000000 0.233463
O O5 0.000000 0.250000 0.127090
O O6 0.046103 0.160634 0.954667
O O7 0.598995 0.250000 0.250000
O O8 0.500000 0.112603 0.250000
#
# Coordination Sequence:
#
# PCOD9510479 Si02
#       3
#    16  16  16
#     4  11  27  44  70 107 147 192 240 295 370 431
#     4  11  24  49  75 103 144 194 244 304 353 427
#     4  11  24  44  73 105 140 185 252 297 354 426
#
# _framework density 21.593347000000001
#
# number of rings (size 3 to 8) (size 9 to 14) (size 15 to 20)
#    0.000    1.000    3.333    4.000    9.333    5.333 
#    0.000    0.000    0.000    0.000    0.000    0.000 
#    0.000    0.000    0.000    0.000    0.000    0.000 
#
# Total GULP energy -133636.065888 kJ/mol
# GULP energy per Si atom -5568.169412 kJ/mol
# Density = 2.154420 g / cm^3
# Si number density = 21.593347 Si / 1000 Ang^3
#
#
#
# Elastic Constant Matrix: (Units=GPa)
#
#
# Indices 1 2 3 4 5 6 
#
# 1 141.5901 38.6442 74.7458 0.0000 0.0000 0.0000
# 2 38.6442 93.9703 48.8315 0.0000 0.0000 0.0000
# 3 74.7458 48.8315 238.8302 0.0000 0.0000 0.0000
# 4 0.0000 0.0000 0.0000 -2.1771 0.0000 0.0000
# 5 0.0000 0.0000 0.0000 0.0000 -5.5658 0.0000
# 6 0.0000 0.0000 0.0000 0.0000 0.0000 28.7210
#
#
#
# Elastic Compliance Matrix: (Units=1/GPa)
#
#
# Indices 1 2 3 4 5 6 
#
# 1 0.008953 -0.002490 -0.002293 0.000000 0.000000 0.000000
# 2 -0.002490 0.012599 -0.001797 0.000000 0.000000 0.000000
# 3 -0.002293 -0.001797 0.005272 0.000000 0.000000 0.000000
# 4 0.000000 0.000000 0.000000 -0.459323 0.000000 0.000000
# 5 0.000000 0.000000 0.000000 0.000000 -0.179667 0.000000
# 6 0.000000 0.000000 0.000000 0.000000 0.000000 0.034818
#
#
# Mechanical properties :
#
#
# Convention : Reuss Voigt Hill
#
# Bulk Modulus (GPa) = 73.18163 88.75929 80.97046
# Shear Modulus (GPa) = -8.93440 25.00689 8.03625
#
# Velocity S-wave (km/s) = -2.03631 3.40675 1.93125
# Velocity P-wave (km/s) = 5.33251 7.52787 6.52321
#
# Compressibility (1/GPa) = 0.01366463
#
# Stress axis : x y z
#
# Youngs Moduli (GPa) = 111.69897 79.36876 189.68229
#
# Poissons Ratio (x) = 0.19765 0.43489
# Poissons Ratio (y) = 0.27816 0.34081
# Poissons Ratio (z) = 0.25609 0.14260
#
# Static dielectric constant tensor:
#      x y z
#    x 3.061630 0.000000 0.000000 
#    y 0.000000 1.571540 0.000000 
#    z 0.000000 0.000000 1.753080 
# 
# From -- ./inp_files/11254.got.cif
#   From: 2010.05.17/outbox.cif.g08.bks.cpg/sg68_6_cif.got.tgz:11254.got - 2010.06.03 18:57:09.
