data_PCOD9510855
_publ_section_title
;
Structure prediction by ZEFSAII (Michael W. Deem and Ramdas Pophale) SiO2 
 PCOD9510855
Probable space group: C C C A
;
_chemical_formula_sum "Si O2"
_cell_formula_units_Z 56
_cell_length_a 15.791470
_cell_length_b 16.088162
_cell_length_c 9.253632
_cell_angle_alpha 90.000000
_cell_angle_beta 90.000000
_cell_angle_gamma 90.000000
_cell_volume 2350.938211
_symmetry_space_group_name_H-M "C C C A"
_symmetry_group_IT_number 68
_space_group.IT_coordinate_system_code '2'
_symmetry_cell_setting 'orthorhombic'
loop_
_space_group_symop_operation_xyz
x,y,z
-x,1/2-y,z
x,1/2-y,1/2-z
-x,y,1/2-z
-x,-y,-z
x,1/2+y,-z
-x,1/2+y,1/2+z
x,-y,1/2+z
1/2+x,1/2+y,z
1/2-x,-y,z
1/2+x,-y,1/2-z
1/2-x,1/2+y,1/2-z
1/2-x,1/2-y,-z
1/2+x,y,-z
1/2-x,y,1/2+z
1/2+x,1/2-y,1/2+z
loop_
_atom_site_type_symbol
_atom_site_label
_atom_site_fract_x
_atom_site_fract_y
_atom_site_fract_z
Si Si1 0.209070 0.083855 0.233829
Si Si2 0.820835 0.184416 0.551034
Si Si3 0.456318 0.930606 0.400376
Si Si4 0.000000 0.250000 0.975963
O O1 0.167917 0.130063 0.096343
O O2 0.281253 0.137342 0.312633
O O3 0.142812 0.062520 0.361908
O O4 0.250000 0.000000 0.177207
O O5 0.750000 0.250000 0.500000
O O6 0.911637 0.221388 0.593863
O O7 0.500000 0.946318 0.250000
O O8 0.472222 0.834703 0.442822
O O9 0.500000 0.000000 0.500000
#
# Coordination Sequence:
#
# PCOD9510855 Si02
#       4
#    16  16  16   8
#     4  12  27  47  74 114 160 196 259 328 386 467
#     4  12  26  47  78 110 151 208 259 313 393 466
#     4  12  27  48  81 113 152 208 263 319 400 469
#     4  12  25  52  79 106 157 212 255 320 397 472
#
# _framework density 23.820277000000001
#
# number of rings (size 3 to 8) (size 9 to 14) (size 15 to 20)
#    0.000    0.000    5.714    3.857    4.000    0.000 
#    0.000    3.571    0.000    0.000    0.000    0.000 
#    0.000    0.000    0.000    0.000    0.000    0.000 
#
# Total GULP energy -156612.287997 kJ/mol
# GULP energy per Si atom -5593.296000 kJ/mol
# Density = 2.376606 g / cm^3
# Si number density = 23.820277 Si / 1000 Ang^3
#
#
#
# Elastic Constant Matrix: (Units=GPa)
#
#
# Indices 1 2 3 4 5 6 
#
# 1 192.4189 43.8704 39.4845 0.0000 0.0000 0.0000
# 2 43.8704 133.4034 61.2123 0.0000 0.0000 0.0000
# 3 39.4845 61.2123 126.2222 0.0000 0.0000 0.0000
# 4 0.0000 0.0000 0.0000 29.6332 0.0000 0.0000
# 5 0.0000 0.0000 0.0000 0.0000 28.9914 0.0000
# 6 0.0000 0.0000 0.0000 0.0000 0.0000 39.8609
#
#
#
# Elastic Compliance Matrix: (Units=1/GPa)
#
#
# Indices 1 2 3 4 5 6 
#
# 1 0.005741 -0.001369 -0.001132 0.000000 0.000000 0.000000
# 2 -0.001369 0.009968 -0.004406 0.000000 0.000000 0.000000
# 3 -0.001132 -0.004406 0.010413 0.000000 0.000000 0.000000
# 4 0.000000 0.000000 0.000000 0.033746 0.000000 0.000000
# 5 0.000000 0.000000 0.000000 0.000000 0.034493 0.000000
# 6 0.000000 0.000000 0.000000 0.000000 0.000000 0.025087
#
#
# Mechanical properties :
#
#
# Convention : Reuss Voigt Hill
#
# Bulk Modulus (GPa) = 81.24040 82.35322 81.79681
# Shear Modulus (GPa) = 36.39938 40.19558 38.29748
#
# Velocity S-wave (km/s) = 3.91331 4.11232 4.01405
# Velocity P-wave (km/s) = 7.38907 7.56280 7.47644
#
# Compressibility (1/GPa) = 0.01230915
#
# Stress axis : x y z
#
# Youngs Moduli (GPa) = 174.17473 100.32397 96.03036
#
# Poissons Ratio (x) = 0.13729 0.10874
# Poissons Ratio (y) = 0.23836 0.42309
# Poissons Ratio (z) = 0.19722 0.44201
#
# Static dielectric constant tensor:
#      x y z
#    x 1.927210 0.000000 0.000000 
#    y 0.000000 1.882470 0.000000 
#    z 0.000000 0.000000 1.836550 
# 
# From -- ./inp_files/12521.got.cif
#   From: 2010.05.17/outbox.cif.g08.bks.cpg/sg68_7_cif.got.tgz:12521.got - 2010.06.03 18:57:09.
