data_PCOD9510250
_publ_section_title
;
Structure prediction by ZEFSAII (Michael W. Deem and Ramdas Pophale) SiO2 
 PCOD9510250
Probable space group: C C C A
;
_chemical_formula_sum "Si O2"
_cell_formula_units_Z 56
_cell_length_a 10.554758
_cell_length_b 14.635414
_cell_length_c 14.519318
_cell_angle_alpha 90.000000
_cell_angle_beta 90.000000
_cell_angle_gamma 90.000000
_cell_volume 2242.846283
_symmetry_space_group_name_H-M "C C C A"
_symmetry_group_IT_number 68
_space_group.IT_coordinate_system_code '2'
_symmetry_cell_setting 'orthorhombic'
loop_
_space_group_symop_operation_xyz
x,y,z
-x,1/2-y,z
x,1/2-y,1/2-z
-x,y,1/2-z
-x,-y,-z
x,1/2+y,-z
-x,1/2+y,1/2+z
x,-y,1/2+z
1/2+x,1/2+y,z
1/2-x,-y,z
1/2+x,-y,1/2-z
1/2-x,1/2+y,1/2-z
1/2-x,1/2-y,-z
1/2+x,y,-z
1/2-x,y,1/2+z
1/2+x,1/2-y,1/2+z
loop_
_atom_site_type_symbol
_atom_site_label
_atom_site_fract_x
_atom_site_fract_y
_atom_site_fract_z
Si Si1 0.555575 0.550020 0.848899
Si Si2 0.334439 0.750000 0.250000
Si Si3 0.680164 0.876029 0.098895
Si Si4 0.292075 0.391572 0.393957
O O1 0.500000 0.520166 0.750000
O O2 0.588685 0.462993 0.910442
O O3 0.690811 0.599078 0.845730
O O4 0.443999 0.611556 0.886347
O O5 0.393905 0.688887 0.168952
O O6 0.264091 0.676667 0.318147
O O7 0.732514 0.856401 0.997383
O O8 0.250000 0.500000 0.384470
#
# Coordination Sequence:
#
# PCOD9510250 Si02
#       4
#    16   8  16  16
#     4  11  22  45  77 101 142 194 249 293 369 435
#     4  12  26  47  71 116 146 190 247 313 370 438
#     4  11  25  45  72 108 143 194 245 303 368 443
#     4  12  25  46  77 104 149 197 243 305 372 447
#
# _framework density 24.968274999999998
#
# number of rings (size 3 to 8) (size 9 to 14) (size 15 to 20)
#    0.000    0.571    5.714    3.429    0.000    2.286 
#    0.000    6.429    0.000    0.000    0.000    0.000 
#    0.000    0.000    0.000    0.000    0.000    0.000 
#
# Total GULP energy -156116.876951 kJ/mol
# GULP energy per Si atom -5575.602748 kJ/mol
# Density = 2.491145 g / cm^3
# Si number density = 24.968275 Si / 1000 Ang^3
#
#
#
# Elastic Constant Matrix: (Units=GPa)
#
#
# Indices 1 2 3 4 5 6 
#
# 1 83.1671 9.9385 -11.0126 0.0000 0.0000 0.0000
# 2 9.9385 87.3938 43.1133 0.0000 0.0000 0.0000
# 3 -11.0126 43.1133 181.3463 0.0000 0.0000 0.0000
# 4 0.0000 0.0000 0.0000 24.6776 0.0000 0.0000
# 5 0.0000 0.0000 0.0000 0.0000 36.2612 0.0000
# 6 0.0000 0.0000 0.0000 0.0000 0.0000 19.5454
#
#
#
# Elastic Compliance Matrix: (Units=1/GPa)
#
#
# Indices 1 2 3 4 5 6 
#
# 1 0.012429 -0.002023 0.001236 0.000000 0.000000 0.000000
# 2 -0.002023 0.013292 -0.003283 0.000000 0.000000 0.000000
# 3 0.001236 -0.003283 0.006370 0.000000 0.000000 0.000000
# 4 0.000000 0.000000 0.000000 0.040523 0.000000 0.000000
# 5 0.000000 0.000000 0.000000 0.000000 0.027578 0.000000
# 6 0.000000 0.000000 0.000000 0.000000 0.000000 0.051163
#
#
# Mechanical properties :
#
#
# Convention : Reuss Voigt Hill
#
# Bulk Modulus (GPa) = 41.75231 48.44284 45.09758
# Shear Modulus (GPa) = 29.85458 36.75472 33.30465
#
# Velocity S-wave (km/s) = 3.46164 3.84090 3.65619
# Velocity P-wave (km/s) = 5.72151 6.25411 5.99373
#
# Compressibility (1/GPa) = 0.02395077
#
# Stress axis : x y z
#
# Youngs Moduli (GPa) = 80.45451 75.23281 156.98988
#
# Poissons Ratio (x) = 0.15220 -0.19400
# Poissons Ratio (y) = 0.16277 0.51538
# Poissons Ratio (z) = -0.09942 0.24698
#
# Static dielectric constant tensor:
#      x y z
#    x 2.140520 0.000000 0.000000 
#    y 0.000000 2.033410 0.000000 
#    z 0.000000 0.000000 2.044550 
# 
# From -- ./inp_files/20133.got.cif
#   From: 2010.05.17/outbox.cif.g08.bks.cpg/sg68_11_cif.got.tgz:20133.got - 2010.06.03 18:57:09.
