data_PCOD9510490
_publ_section_title
;
Structure prediction by ZEFSAII (Michael W. Deem and Ramdas Pophale) SiO2 
 PCOD9510490
Probable space group: C C C A
;
_chemical_formula_sum "Si O2"
_cell_formula_units_Z 96
_cell_length_a 25.807947
_cell_length_b 18.533639
_cell_length_c 9.392311
_cell_angle_alpha 90.000000
_cell_angle_beta 90.000000
_cell_angle_gamma 90.000000
_cell_volume 4492.484861
_symmetry_space_group_name_H-M "C C C A"
_symmetry_group_IT_number 68
_space_group.IT_coordinate_system_code '2'
_symmetry_cell_setting 'orthorhombic'
loop_
_space_group_symop_operation_xyz
x,y,z
-x,1/2-y,z
x,1/2-y,1/2-z
-x,y,1/2-z
-x,-y,-z
x,1/2+y,-z
-x,1/2+y,1/2+z
x,-y,1/2+z
1/2+x,1/2+y,z
1/2-x,-y,z
1/2+x,-y,1/2-z
1/2-x,1/2+y,1/2-z
1/2-x,1/2-y,-z
1/2+x,y,-z
1/2-x,y,1/2+z
1/2+x,1/2-y,1/2+z
loop_
_atom_site_type_symbol
_atom_site_label
_atom_site_fract_x
_atom_site_fract_y
_atom_site_fract_z
Si Si1 0.553861 0.899663 0.413210
Si Si2 0.208068 0.713101 0.097928
Si Si3 0.411858 0.772417 0.914753
Si Si4 0.868886 0.530928 0.065239
Si Si5 0.798949 0.548452 0.336716
Si Si6 0.062008 0.859417 0.899971
O O1 0.569576 0.852996 0.550376
O O2 0.569755 0.855738 0.269798
O O3 0.491824 0.903281 0.415210
O O4 0.584725 0.974294 0.405507
O O5 0.212535 0.750000 0.250000
O O6 0.149186 0.727464 0.049258
O O7 0.217150 0.627933 0.114230
O O8 0.250000 0.750000 0.000000
O O9 0.419005 0.750000 0.750000
O O10 0.440836 0.716365 0.018351
O O11 0.840267 0.554742 0.208779
O O12 0.827267 0.490772 0.966949
O O13 0.892638 0.596958 0.977537
O O14 0.750000 0.500000 0.291897
#
# Coordination Sequence:
#
# PCOD9510490 Si02
#       6
#    16  16  16  16  16  16
#     4  11  24  45  67 104 138 186 235 287 357 428
#     4  11  27  46  70 102 139 181 240 293 356 425
#     4  11  24  45  68 101 142 181 236 295 354 424
#     4  12  24  48  69 102 143 182 235 293 358 425
#     4  12  28  46  75 103 143 188 240 298 364 430
#     4  11  25  42  71  99 141 187 232 290 356 427
#
# _framework density 21.369019000000002
#
# number of rings (size 3 to 8) (size 9 to 14) (size 15 to 20)
#    0.000    0.667    3.333    4.000    7.000    4.000 
#    0.000    0.000    0.000    0.000    0.000    0.000 
#    0.000    0.000    0.000    0.000    0.000    0.000 
#
# Total GULP energy -268674.966279 kJ/mol
# GULP energy per Si atom -5597.395131 kJ/mol
# Density = 2.132038 g / cm^3
# Si number density = 21.369019 Si / 1000 Ang^3
#
#
#
# Elastic Constant Matrix: (Units=GPa)
#
#
# Indices 1 2 3 4 5 6 
#
# 1 83.9750 29.9742 20.9017 0.0000 0.0000 0.0000
# 2 29.9742 102.3747 16.6637 0.0000 0.0000 0.0000
# 3 20.9017 16.6637 68.2046 0.0000 0.0000 0.0000
# 4 0.0000 0.0000 0.0000 36.3023 0.0000 0.0000
# 5 0.0000 0.0000 0.0000 0.0000 100.5393 0.0000
# 6 0.0000 0.0000 0.0000 0.0000 0.0000 36.5162
#
#
#
# Elastic Compliance Matrix: (Units=1/GPa)
#
#
# Indices 1 2 3 4 5 6 
#
# 1 0.014029 -0.003549 -0.003432 0.000000 0.000000 0.000000
# 2 -0.003549 0.011070 -0.001617 0.000000 0.000000 0.000000
# 3 -0.003432 -0.001617 0.016109 0.000000 0.000000 0.000000
# 4 0.000000 0.000000 0.000000 0.027546 0.000000 0.000000
# 5 0.000000 0.000000 0.000000 0.000000 0.009946 0.000000
# 6 0.000000 0.000000 0.000000 0.000000 0.000000 0.027385
#
#
# Mechanical properties :
#
#
# Convention : Reuss Voigt Hill
#
# Bulk Modulus (GPa) = 41.64634 43.29259 42.46947
# Shear Modulus (GPa) = 38.08450 47.13921 42.61186
#
# Velocity S-wave (km/s) = 4.22623 4.70186 4.47037
# Velocity P-wave (km/s) = 6.58377 7.05551 6.82372
#
# Compressibility (1/GPa) = 0.02401171
#
# Stress axis : x y z
#
# Youngs Moduli (GPa) = 71.27891 90.33139 62.07827
#
# Poissons Ratio (x) = 0.32058 0.21307
# Poissons Ratio (y) = 0.25297 0.10039
# Poissons Ratio (z) = 0.24465 0.14607
#
# Static dielectric constant tensor:
#      x y z
#    x 1.822080 0.000000 0.000000 
#    y 0.000000 1.312540 0.000000 
#    z 0.000000 0.000000 1.750390 
# 
# From -- ./inp_files/8907.got.cif
#   From: 2010.05.17/outbox.cif.g08.bks.cpg/sg68_5_cif.got.tgz:8907.got - 2010.06.03 18:57:09.
