data_PCOD9510554
_publ_section_title
;
Structure prediction by ZEFSAII (Michael W. Deem and Ramdas Pophale) SiO2 
 PCOD9510554
Probable space group: C C C A
;
_chemical_formula_sum "Si O2"
_cell_formula_units_Z 64
_cell_length_a 21.512679
_cell_length_b 13.822803
_cell_length_c 10.278675
_cell_angle_alpha 90.000000
_cell_angle_beta 90.000000
_cell_angle_gamma 90.000000
_cell_volume 3056.523576
_symmetry_space_group_name_H-M "C C C A"
_symmetry_group_IT_number 68
_space_group.IT_coordinate_system_code '2'
_symmetry_cell_setting 'orthorhombic'
loop_
_space_group_symop_operation_xyz
x,y,z
-x,1/2-y,z
x,1/2-y,1/2-z
-x,y,1/2-z
-x,-y,-z
x,1/2+y,-z
-x,1/2+y,1/2+z
x,-y,1/2+z
1/2+x,1/2+y,z
1/2-x,-y,z
1/2+x,-y,1/2-z
1/2-x,1/2+y,1/2-z
1/2-x,1/2-y,-z
1/2+x,y,-z
1/2-x,y,1/2+z
1/2+x,1/2-y,1/2+z
loop_
_atom_site_type_symbol
_atom_site_label
_atom_site_fract_x
_atom_site_fract_y
_atom_site_fract_z
Si Si1 0.208850 0.887454 0.534133
Si Si2 0.835206 0.490800 0.288828
Si Si3 0.071174 0.646269 0.294277
Si Si4 0.655310 0.680900 0.479478
O O1 0.191065 0.962234 0.647343
O O2 0.279162 0.847303 0.550903
O O3 0.163024 0.795095 0.541834
O O4 0.200681 0.939252 0.392957
O O5 0.896897 0.552901 0.266362
O O6 0.843967 0.386872 0.354403
O O7 0.098911 0.750000 0.250000
O O8 0.093490 0.649994 0.443185
O O9 0.000000 0.646287 0.250000
#
# Coordination Sequence:
#
# PCOD9510554 Si02
#       4
#    16  16  16  16
#     4  11  26  41  70 107 145 177 226 296 359 424
#     4  12  24  43  69 102 137 184 233 286 352 416
#     4  11  25  45  69  98 138 191 233 285 352 425
#     4  11  25  43  68 103 146 180 232 288 357 423
#
# _framework density 20.938821000000001
#
# number of rings (size 3 to 8) (size 9 to 14) (size 15 to 20)
#    0.000    0.750    5.000    1.500    7.000    1.000 
#    0.000    0.000    0.000    1.500    0.000    0.000 
#    0.000    0.000    0.000    0.000    0.000    0.000 
#
# Total GULP energy -178441.182888 kJ/mol
# GULP energy per Si atom -5576.286965 kJ/mol
# Density = 2.089116 g / cm^3
# Si number density = 20.938821 Si / 1000 Ang^3
#
#
#
# Elastic Constant Matrix: (Units=GPa)
#
#
# Indices 1 2 3 4 5 6 
#
# 1 103.9808 42.8734 41.5165 0.0000 0.0000 0.0000
# 2 42.8734 158.8854 34.7615 0.0000 0.0000 0.0000
# 3 41.5165 34.7615 77.1586 0.0000 0.0000 0.0000
# 4 0.0000 0.0000 0.0000 43.2223 0.0000 0.0000
# 5 0.0000 0.0000 0.0000 0.0000 -3.0467 0.0000
# 6 0.0000 0.0000 0.0000 0.0000 0.0000 36.2501
#
#
#
# Elastic Compliance Matrix: (Units=1/GPa)
#
#
# Indices 1 2 3 4 5 6 
#
# 1 0.012893 -0.002176 -0.005957 0.000000 0.000000 0.000000
# 2 -0.002176 0.007349 -0.002140 0.000000 0.000000 0.000000
# 3 -0.005957 -0.002140 0.017130 0.000000 0.000000 0.000000
# 4 0.000000 0.000000 0.000000 0.023136 0.000000 0.000000
# 5 0.000000 0.000000 0.000000 0.000000 -0.328228 0.000000
# 6 0.000000 0.000000 0.000000 0.000000 0.000000 0.027586
#
#
# Mechanical properties :
#
#
# Convention : Reuss Voigt Hill
#
# Bulk Modulus (GPa) = 59.43238 64.25861 61.84550
# Shear Modulus (GPa) = -23.36675 30.01006 3.32165
#
# Velocity S-wave (km/s) = -3.34421 3.78990 1.26087
# Velocity P-wave (km/s) = 3.67883 7.06446 5.63206
#
# Compressibility (1/GPa) = 0.01682584
#
# Stress axis : x y z
#
# Youngs Moduli (GPa) = 77.56349 136.06955 58.37785
#
# Poissons Ratio (x) = 0.29604 0.34775
# Poissons Ratio (y) = 0.16875 0.12495
# Poissons Ratio (z) = 0.46204 0.29123
#
# Static dielectric constant tensor:
#      x y z
#    x 1.775880 0.000000 0.000000 
#    y 0.000000 1.774720 0.000000 
#    z 0.000000 0.000000 1.827730 
# 
# From -- ./inp_files/7733.got.cif
#   From: 2010.05.17/outbox.cif.g08.bks.cpg/sg68_4_cif.got.tgz:7733.got - 2010.06.03 18:57:09.
