data_PCOD9510057
_publ_section_title
;
Structure prediction by ZEFSAII (Michael W. Deem and Ramdas Pophale) SiO2 
 PCOD9510057
Probable space group: C C C A
;
_chemical_formula_sum "Si O2"
_cell_formula_units_Z 96
_cell_length_a 17.346599
_cell_length_b 14.543025
_cell_length_c 17.587413
_cell_angle_alpha 90.000000
_cell_angle_beta 90.000000
_cell_angle_gamma 90.000000
_cell_volume 4436.812255
_symmetry_space_group_name_H-M "C C C A"
_symmetry_group_IT_number 68
_space_group.IT_coordinate_system_code '2'
_symmetry_cell_setting 'orthorhombic'
loop_
_space_group_symop_operation_xyz
x,y,z
-x,1/2-y,z
x,1/2-y,1/2-z
-x,y,1/2-z
-x,-y,-z
x,1/2+y,-z
-x,1/2+y,1/2+z
x,-y,1/2+z
1/2+x,1/2+y,z
1/2-x,-y,z
1/2+x,-y,1/2-z
1/2-x,1/2+y,1/2-z
1/2-x,1/2-y,-z
1/2+x,y,-z
1/2-x,y,1/2+z
1/2+x,1/2-y,1/2+z
loop_
_atom_site_type_symbol
_atom_site_label
_atom_site_fract_x
_atom_site_fract_y
_atom_site_fract_z
Si Si1 0.184456 0.068548 0.332667
Si Si2 0.925452 0.950091 0.795540
Si Si3 0.430930 0.319446 0.936136
Si Si4 0.232121 0.755277 0.911024
Si Si5 0.590329 0.507181 0.975030
Si Si6 0.319042 0.926034 0.612661
O O1 0.132880 0.101210 0.261847
O O2 0.235719 0.145545 0.374120
O O3 0.250000 0.000000 0.303087
O O4 0.125032 0.020936 0.393320
O O5 0.951232 0.887523 0.866542
O O6 0.000000 0.978223 0.750000
O O7 0.880303 0.038296 0.826655
O O8 0.500000 0.250000 0.956318
O O9 0.358511 0.264928 0.904628
O O10 0.398249 0.385330 0.003162
O O11 0.283576 0.674112 0.875564
O O12 0.250000 0.750000 0.000000
O O13 0.637569 0.440800 0.032242
O O14 0.500000 0.500000 0.000000
O O15 0.250000 0.000000 0.611473
#
# Coordination Sequence:
#
# PCOD9510057 Si02
#       6
#    16  16  16  16  16  16
#     4  12  25  41  65 100 135 176 232 284 342 414
#     4  11  24  44  66  95 139 182 224 292 355 414
#     4  11  24  42  67 101 133 175 233 285 349 413
#     4  12  23  40  70  99 131 177 229 290 341 413
#     4  11  21  39  65  96 140 174 220 289 340 406
#     4  11  21  44  67  94 135 179 228 282 350 412
#
# _framework density 21.637156000000001
#
# number of rings (size 3 to 8) (size 9 to 14) (size 15 to 20)
#    0.000    0.667    5.000    6.000    0.000    2.333 
#    0.000    0.000    0.000    1.000    0.000    0.000 
#    0.000    0.000    0.000    0.000    0.000    0.000 
#
# Total GULP energy -268079.071828 kJ/mol
# GULP energy per Si atom -5584.980663 kJ/mol
# Density = 2.158791 g / cm^3
# Si number density = 21.637156 Si / 1000 Ang^3
#
#
#
# Elastic Constant Matrix: (Units=GPa)
#
#
# Indices 1 2 3 4 5 6 
#
# 1 97.0698 16.2857 7.3396 0.0000 0.0000 0.0000
# 2 16.2857 87.4381 14.6562 0.0000 0.0000 0.0000
# 3 7.3396 14.6562 78.9343 0.0000 0.0000 0.0000
# 4 0.0000 0.0000 0.0000 13.0067 0.0000 0.0000
# 5 0.0000 0.0000 0.0000 0.0000 44.0674 0.0000
# 6 0.0000 0.0000 0.0000 0.0000 0.0000 41.6019
#
#
#
# Elastic Compliance Matrix: (Units=1/GPa)
#
#
# Indices 1 2 3 4 5 6 
#
# 1 0.010666 -0.001879 -0.000643 0.000000 0.000000 0.000000
# 2 -0.001879 0.012135 -0.002078 0.000000 0.000000 0.000000
# 3 -0.000643 -0.002078 0.013114 0.000000 0.000000 0.000000
# 4 0.000000 0.000000 0.000000 0.076884 0.000000 0.000000
# 5 0.000000 0.000000 0.000000 0.000000 0.022693 0.000000
# 6 0.000000 0.000000 0.000000 0.000000 0.000000 0.024037
#
#
# Mechanical properties :
#
#
# Convention : Reuss Voigt Hill
#
# Bulk Modulus (GPa) = 37.43234 37.77833 37.60533
# Shear Modulus (GPa) = 28.14780 34.74591 31.44685
#
# Velocity S-wave (km/s) = 3.61071 4.01165 3.81645
# Velocity P-wave (km/s) = 5.89242 6.24144 6.06944
#
# Compressibility (1/GPa) = 0.02671487
#
# Stress axis : x y z
#
# Youngs Moduli (GPa) = 93.75861 82.40636 76.25169
#
# Poissons Ratio (x) = 0.15482 0.04902
# Poissons Ratio (y) = 0.17615 0.15849
# Poissons Ratio (z) = 0.06028 0.17128
#
# Static dielectric constant tensor:
#      x y z
#    x 1.849650 0.000000 0.000000 
#    y 0.000000 1.975450 0.000000 
#    z 0.000000 0.000000 1.818530 
# 
# From -- ./inp_files/38563.got.cif
#   From: 2010.05.17/outbox.cif.g08.bks.cpg/sg68_20_cif.got.tgz:38563.got - 2010.06.03 18:57:09.
