data_PCOD9510165
_publ_section_title
;
Structure prediction by ZEFSAII (Michael W. Deem and Ramdas Pophale) SiO2 
 PCOD9510165
Probable space group: C C C A
;
_chemical_formula_sum "Si O2"
_cell_formula_units_Z 48
_cell_length_a 16.146376
_cell_length_b 9.542810
_cell_length_c 14.192911
_cell_angle_alpha 90.000000
_cell_angle_beta 90.000000
_cell_angle_gamma 90.000000
_cell_volume 2186.869251
_symmetry_space_group_name_H-M "C C C A"
_symmetry_group_IT_number 68
_space_group.IT_coordinate_system_code '2'
_symmetry_cell_setting 'orthorhombic'
loop_
_space_group_symop_operation_xyz
x,y,z
-x,1/2-y,z
x,1/2-y,1/2-z
-x,y,1/2-z
-x,-y,-z
x,1/2+y,-z
-x,1/2+y,1/2+z
x,-y,1/2+z
1/2+x,1/2+y,z
1/2-x,-y,z
1/2+x,-y,1/2-z
1/2-x,1/2+y,1/2-z
1/2-x,1/2-y,-z
1/2+x,y,-z
1/2-x,y,1/2+z
1/2+x,1/2-y,1/2+z
loop_
_atom_site_type_symbol
_atom_site_label
_atom_site_fract_x
_atom_site_fract_y
_atom_site_fract_z
Si Si1 0.417082 0.654502 0.325475
Si Si2 0.688862 0.619880 0.995542
Si Si3 0.835312 0.085820 0.722659
O O1 0.500000 0.750000 0.336319
O O2 0.366758 0.750000 0.250000
O O3 0.381808 0.642007 0.428908
O O4 0.407250 0.501416 0.277128
O O5 0.750000 0.500000 0.029566
O O6 0.656663 0.584151 0.891148
O O7 0.750000 0.750000 0.000000
O O8 0.833085 0.250000 0.750000
O O9 0.750000 0.000000 0.743669
#
# Coordination Sequence:
#
# PCOD9510165 Si02
#       3
#    16  16  16
#     4  11  24  44  65  93 139 183 219 276 347 411
#     4  11  22  39  69 103 130 172 232 286 338 406
#     4  11  22  41  71 102 134 176 230 286 343 412
#
# _framework density 21.949186000000001
#
# number of rings (size 3 to 8) (size 9 to 14) (size 15 to 20)
#    0.000    1.000    0.000   10.000    0.000    0.000 
#    0.000   30.000    0.000    0.000    0.000    0.000 
#    0.000    0.000    0.000    0.000    0.000    0.000 
#
# Total GULP energy -133806.864896 kJ/mol
# GULP energy per Si atom -5575.286037 kJ/mol
# Density = 2.189923 g / cm^3
# Si number density = 21.949186 Si / 1000 Ang^3
#
#
#
# Elastic Constant Matrix: (Units=GPa)
#
#
# Indices 1 2 3 4 5 6 
#
# 1 132.5854 80.7969 82.0248 0.0000 0.0000 0.0000
# 2 80.7969 207.6743 45.6410 0.0000 0.0000 0.0000
# 3 82.0248 45.6410 187.6599 0.0000 0.0000 0.0000
# 4 0.0000 0.0000 0.0000 34.5367 0.0000 0.0000
# 5 0.0000 0.0000 0.0000 0.0000 6.2959 0.0000
# 6 0.0000 0.0000 0.0000 0.0000 0.0000 34.4002
#
#
#
# Elastic Compliance Matrix: (Units=1/GPa)
#
#
# Indices 1 2 3 4 5 6 
#
# 1 0.012837 -0.003974 -0.004645 0.000000 0.000000 0.000000
# 2 -0.003974 0.006317 0.000200 0.000000 0.000000 0.000000
# 3 -0.004645 0.000200 0.007310 0.000000 0.000000 0.000000
# 4 0.000000 0.000000 0.000000 0.028955 0.000000 0.000000
# 5 0.000000 0.000000 0.000000 0.000000 0.158832 0.000000
# 6 0.000000 0.000000 0.000000 0.000000 0.000000 0.029070
#
#
# Mechanical properties :
#
#
# Convention : Reuss Voigt Hill
#
# Bulk Modulus (GPa) = 103.85389 104.98279 104.41834
# Shear Modulus (GPa) = 18.98494 36.34369 27.66432
#
# Velocity S-wave (km/s) = 2.94419 4.07358 3.55403
# Velocity P-wave (km/s) = 7.67958 8.37014 8.03228
#
# Compressibility (1/GPa) = 0.00962891
#
# Stress axis : x y z
#
# Youngs Moduli (GPa) = 77.89816 158.29923 136.79554
#
# Poissons Ratio (x) = 0.62903 0.63537
# Poissons Ratio (y) = 0.30954 -0.02742
# Poissons Ratio (z) = 0.36181 -0.03173
#
# Static dielectric constant tensor:
#      x y z
#    x 1.933220 0.000000 0.000000 
#    y 0.000000 1.819250 0.000000 
#    z 0.000000 0.000000 1.803400 
# 
# From -- ./inp_files/18770.got.cif
#   From: 2010.05.17/outbox.cif.g08.bks.cpg/sg68_10_cif.got.tgz:18770.got - 2010.06.03 18:57:09.
