data_PCOD9510900
_publ_section_title
;
Structure prediction by ZEFSAII (Michael W. Deem and Ramdas Pophale) SiO2 
 PCOD9510900
Probable space group: C C C A
;
_chemical_formula_sum "Si O2"
_cell_formula_units_Z 48
_cell_length_a 18.343716
_cell_length_b 9.944169
_cell_length_c 9.605520
_cell_angle_alpha 90.000000
_cell_angle_beta 90.000000
_cell_angle_gamma 90.000000
_cell_volume 1752.171835
_symmetry_space_group_name_H-M "C C C A"
_symmetry_group_IT_number 68
_space_group.IT_coordinate_system_code '2'
_symmetry_cell_setting 'orthorhombic'
loop_
_space_group_symop_operation_xyz
x,y,z
-x,1/2-y,z
x,1/2-y,1/2-z
-x,y,1/2-z
-x,-y,-z
x,1/2+y,-z
-x,1/2+y,1/2+z
x,-y,1/2+z
1/2+x,1/2+y,z
1/2-x,-y,z
1/2+x,-y,1/2-z
1/2-x,1/2+y,1/2-z
1/2-x,1/2-y,-z
1/2+x,y,-z
1/2-x,y,1/2+z
1/2+x,1/2-y,1/2+z
loop_
_atom_site_type_symbol
_atom_site_label
_atom_site_fract_x
_atom_site_fract_y
_atom_site_fract_z
Si Si1 0.302985 0.371811 0.537273
Si Si2 0.414861 0.551914 0.271090
Si Si3 0.080118 0.692315 0.064117
O O1 0.250000 0.500000 0.521960
O O2 0.250000 0.250000 0.500000
O O3 0.347159 0.384195 0.682936
O O4 0.402164 0.097877 0.569799
O O5 0.500000 0.597631 0.250000
O O6 0.631687 0.322233 0.062128
O O7 0.416906 0.406730 0.194438
O O8 0.000000 0.750000 0.049148
#
# Coordination Sequence:
#
# PCOD9510900 Si02
#       3
#    16  16  16
#     4  12  27  56  88 134 187 248 314 410 495 570
#     4  12  27  55  89 130 189 247 323 401 484 585
#     4  12  28  57  91 134 184 253 325 404 485 599
#
# _framework density 27.394573000000001
#
# number of rings (size 3 to 8) (size 9 to 14) (size 15 to 20)
#    0.000    0.000    6.667    2.000    0.000    0.667 
#   12.000    0.000    0.000    0.000    0.000    0.000 
#    0.000    0.000    0.000    0.000    0.000    0.000 
#
# Total GULP energy -134084.013277 kJ/mol
# GULP energy per Si atom -5586.833887 kJ/mol
# Density = 2.733222 g / cm^3
# Si number density = 27.394573 Si / 1000 Ang^3
#
#
#
# Elastic Constant Matrix: (Units=GPa)
#
#
# Indices 1 2 3 4 5 6 
#
# 1 270.8196 117.6044 99.6714 0.0000 0.0000 0.0000
# 2 117.6044 277.2247 112.3563 0.0000 0.0000 0.0000
# 3 99.6714 112.3563 264.8543 0.0000 0.0000 0.0000
# 4 0.0000 0.0000 0.0000 -5.4930 0.0000 0.0000
# 5 0.0000 0.0000 0.0000 0.0000 36.2588 0.0000
# 6 0.0000 0.0000 0.0000 0.0000 0.0000 54.6965
#
#
#
# Elastic Compliance Matrix: (Units=1/GPa)
#
#
# Indices 1 2 3 4 5 6 
#
# 1 0.004794 -0.001573 -0.001137 0.000000 0.000000 0.000000
# 2 -0.001573 0.004872 -0.001475 0.000000 0.000000 0.000000
# 3 -0.001137 -0.001475 0.004829 0.000000 0.000000 0.000000
# 4 0.000000 0.000000 0.000000 -0.182051 0.000000 0.000000
# 5 0.000000 0.000000 0.000000 0.000000 0.027580 0.000000
# 6 0.000000 0.000000 0.000000 0.000000 0.000000 0.018283
#
#
# Mechanical properties :
#
#
# Convention : Reuss Voigt Hill
#
# Bulk Modulus (GPa) = 163.24051 163.57363 163.40707
# Shear Modulus (GPa) = -44.93101 49.31022 2.18960
#
# Velocity S-wave (km/s) = -4.05426 4.24724 0.89500
# Velocity P-wave (km/s) = 6.14833 9.15925 7.80045
#
# Compressibility (1/GPa) = 0.00612593
#
# Stress axis : x y z
#
# Youngs Moduli (GPa) = 208.59667 205.24413 207.07474
#
# Poissons Ratio (x) = 0.32284 0.23540
# Poissons Ratio (y) = 0.32811 0.30543
# Poissons Ratio (z) = 0.23713 0.30273
#
# Static dielectric constant tensor:
#      x y z
#    x 2.179670 0.000000 0.000000 
#    y 0.000000 2.335960 0.000000 
#    z 0.000000 0.000000 2.115360 
# 
# From -- ./inp_files/24045.got.cif
#   From: 2010.05.17/outbox.cif.g08.bks.cpg/sg68_13_cif.got.tgz:24045.got - 2010.06.03 18:57:09.
