data_PCOD9510425
_publ_section_title
;
Structure prediction by ZEFSAII (Michael W. Deem and Ramdas Pophale) SiO2 
 PCOD9510425
Probable space group: C C C A
;
_chemical_formula_sum "Si O2"
_cell_formula_units_Z 64
_cell_length_a 7.527051
_cell_length_b 26.066100
_cell_length_c 14.682279
_cell_angle_alpha 90.000000
_cell_angle_beta 90.000000
_cell_angle_gamma 90.000000
_cell_volume 2880.675826
_symmetry_space_group_name_H-M "C C C A"
_symmetry_group_IT_number 68
_space_group.IT_coordinate_system_code '2'
_symmetry_cell_setting 'orthorhombic'
loop_
_space_group_symop_operation_xyz
x,y,z
-x,1/2-y,z
x,1/2-y,1/2-z
-x,y,1/2-z
-x,-y,-z
x,1/2+y,-z
-x,1/2+y,1/2+z
x,-y,1/2+z
1/2+x,1/2+y,z
1/2-x,-y,z
1/2+x,-y,1/2-z
1/2-x,1/2+y,1/2-z
1/2-x,1/2-y,-z
1/2+x,y,-z
1/2-x,y,1/2+z
1/2+x,1/2-y,1/2+z
loop_
_atom_site_type_symbol
_atom_site_label
_atom_site_fract_x
_atom_site_fract_y
_atom_site_fract_z
Si Si1 0.131790 0.887973 0.068932
Si Si2 0.209724 0.692015 0.274425
Si Si3 0.723484 0.388596 0.867750
Si Si4 0.500000 0.533153 0.250000
Si Si5 0.250000 0.500000 0.893752
O O1 0.217547 0.842018 0.131036
O O2 0.237697 0.943061 0.064411
O O3 0.932520 0.895121 0.108336
O O4 0.124261 0.876388 0.961932
O O5 0.267334 0.750000 0.250000
O O6 0.303301 0.658722 0.198368
O O7 0.000000 0.691737 0.250000
O O8 0.645552 0.434081 0.805495
O O9 0.583021 0.499879 0.171632
#
# Coordination Sequence:
#
# PCOD9510425 Si02
#       5
#    16  16  16   8   8
#     4  11  24  42  65 102 131 176 218 269 328 392
#     4   9  20  43  69  94 131 174 217 273 325 382
#     4  11  24  43  68  96 136 168 225 268 329 392
#     4  12  24  40  67  96 129 182 214 270 326 396
#     4  12  24  40  66  96 136 174 218 268 326 396
#
# _framework density 22.217010999999999
#
# number of rings (size 3 to 8) (size 9 to 14) (size 15 to 20)
#    0.000    1.250    2.500    3.000    1.750    6.000 
#    0.000    0.625    0.000    0.000    0.000    0.000 
#    0.000    0.000    0.000    0.000    0.000    0.000 
#
# Total GULP energy -178218.943097 kJ/mol
# GULP energy per Si atom -5569.341972 kJ/mol
# Density = 2.216644 g / cm^3
# Si number density = 22.217011 Si / 1000 Ang^3
#
#
#
# Elastic Constant Matrix: (Units=GPa)
#
#
# Indices 1 2 3 4 5 6 
#
# 1 53.0267 17.9585 18.3768 0.0000 0.0000 0.0000
# 2 17.9585 127.2040 54.6600 0.0000 0.0000 0.0000
# 3 18.3768 54.6600 136.3983 0.0000 0.0000 0.0000
# 4 0.0000 0.0000 0.0000 7.6666 0.0000 0.0000
# 5 0.0000 0.0000 0.0000 0.0000 125.6777 0.0000
# 6 0.0000 0.0000 0.0000 0.0000 0.0000 14.1938
#
#
#
# Elastic Compliance Matrix: (Units=1/GPa)
#
#
# Indices 1 2 3 4 5 6 
#
# 1 0.020208 -0.002033 -0.001908 0.000000 0.000000 0.000000
# 2 -0.002033 0.009701 -0.003614 0.000000 0.000000 0.000000
# 3 -0.001908 -0.003614 0.009037 0.000000 0.000000 0.000000
# 4 0.000000 0.000000 0.000000 0.130435 0.000000 0.000000
# 5 0.000000 0.000000 0.000000 0.000000 0.007957 0.000000
# 6 0.000000 0.000000 0.000000 0.000000 0.000000 0.070453
#
#
# Mechanical properties :
#
#
# Convention : Reuss Voigt Hill
#
# Bulk Modulus (GPa) = 41.95229 55.40218 48.67724
# Shear Modulus (GPa) = 18.46065 44.54989 31.50527
#
# Velocity S-wave (km/s) = 2.88570 4.48282 3.76981
# Velocity P-wave (km/s) = 5.47969 7.19619 6.39579
#
# Compressibility (1/GPa) = 0.02383660
#
# Stress axis : x y z
#
# Youngs Moduli (GPa) = 49.48493 103.07934 110.66011
#
# Poissons Ratio (x) = 0.20958 0.21112
# Poissons Ratio (y) = 0.10061 0.39990
# Poissons Ratio (z) = 0.09441 0.37250
#
# Static dielectric constant tensor:
#      x y z
#    x 1.949790 0.000000 0.000000 
#    y 0.000000 2.097240 0.000000 
#    z 0.000000 0.000000 1.812720 
# 
# From -- ./inp_files/19259.got.cif
#   From: 2010.05.17/outbox.cif.g08.bks.cpg/sg68_10_cif.got.tgz:19259.got - 2010.06.03 18:57:09.
