data_PCOD9510823
_publ_section_title
;
Structure prediction by ZEFSAII (Michael W. Deem and Ramdas Pophale) SiO2 
 PCOD9510823
Probable space group: C C C A
;
_chemical_formula_sum "Si O2"
_cell_formula_units_Z 68
_cell_length_a 19.370482
_cell_length_b 15.905427
_cell_length_c 8.652026
_cell_angle_alpha 90.000000
_cell_angle_beta 90.000000
_cell_angle_gamma 90.000000
_cell_volume 2665.652763
_symmetry_space_group_name_H-M "C C C A"
_symmetry_group_IT_number 68
_space_group.IT_coordinate_system_code '2'
_symmetry_cell_setting 'orthorhombic'
loop_
_space_group_symop_operation_xyz
x,y,z
-x,1/2-y,z
x,1/2-y,1/2-z
-x,y,1/2-z
-x,-y,-z
x,1/2+y,-z
-x,1/2+y,1/2+z
x,-y,1/2+z
1/2+x,1/2+y,z
1/2-x,-y,z
1/2+x,-y,1/2-z
1/2-x,1/2+y,1/2-z
1/2-x,1/2-y,-z
1/2+x,y,-z
1/2-x,y,1/2+z
1/2+x,1/2-y,1/2+z
loop_
_atom_site_type_symbol
_atom_site_label
_atom_site_fract_x
_atom_site_fract_y
_atom_site_fract_z
Si Si1 0.553077 0.039395 0.622618
Si Si2 0.313982 0.065568 0.342683
Si Si3 0.500000 0.750000 0.750000
Si Si4 0.621144 0.669150 0.590299
Si Si5 0.689032 0.701364 0.085535
O O1 0.500000 0.074978 0.750000
O O2 0.606542 0.103845 0.544653
O O3 0.500000 0.000000 0.500000
O O4 0.610260 0.974049 0.684450
O O5 0.317741 0.138115 0.207511
O O6 0.309319 0.106170 0.516251
O O7 0.250000 0.000000 0.324862
O O8 0.550226 0.682959 0.673481
O O9 0.626355 0.760305 0.511497
O O10 0.684299 0.750000 0.250000
O O11 0.750000 0.750000 0.000000
#
# Coordination Sequence:
#
# PCOD9510823 Si02
#       5
#    16  16   4  16  16
#     4  12  27  48  76 117 164 215 280 341 419 496
#     4  12  27  52  82 120 165 216 274 354 429 502
#     4  12  24  52  82 108 164 212 274 328 424 480
#     4  12  26  48  82 113 158 219 272 342 412 501
#     4  12  28  49  78 114 157 210 274 336 417 499
#
# _framework density 25.509698
#
# number of rings (size 3 to 8) (size 9 to 14) (size 15 to 20)
#    0.000    0.000    4.706    4.235    3.294    4.706 
#    0.000    1.176    0.000    0.000    0.000    0.000 
#    0.000    0.000    0.000    0.000    0.000    0.000 
#
# Total GULP energy -189414.053533 kJ/mol
# GULP energy per Si atom -5571.001574 kJ/mol
# Density = 2.545164 g / cm^3
# Si number density = 25.509698 Si / 1000 Ang^3
#
#
#
# Elastic Constant Matrix: (Units=GPa)
#
#
# Indices 1 2 3 4 5 6 
#
# 1 103.5887 12.3520 36.5621 0.0000 0.0000 0.0000
# 2 12.3520 90.6010 37.3466 0.0000 0.0000 0.0000
# 3 36.5621 37.3466 136.4852 0.0000 0.0000 0.0000
# 4 0.0000 0.0000 0.0000 42.9401 0.0000 0.0000
# 5 0.0000 0.0000 0.0000 0.0000 61.9779 0.0000
# 6 0.0000 0.0000 0.0000 0.0000 0.0000 94.6954
#
#
#
# Elastic Compliance Matrix: (Units=1/GPa)
#
#
# Indices 1 2 3 4 5 6 
#
# 1 0.010669 -0.000312 -0.002773 0.000000 0.000000 0.000000
# 2 -0.000312 0.012450 -0.003323 0.000000 0.000000 0.000000
# 3 -0.002773 -0.003323 0.008979 0.000000 0.000000 0.000000
# 4 0.000000 0.000000 0.000000 0.023288 0.000000 0.000000
# 5 0.000000 0.000000 0.000000 0.000000 0.016135 0.000000
# 6 0.000000 0.000000 0.000000 0.000000 0.000000 0.010560
#
#
# Mechanical properties :
#
#
# Convention : Reuss Voigt Hill
#
# Bulk Modulus (GPa) = 51.85977 55.91073 53.88525
# Shear Modulus (GPa) = 49.34655 56.21695 52.78175
#
# Velocity S-wave (km/s) = 4.40298 4.69950 4.55366
# Velocity P-wave (km/s) = 6.79867 7.17022 6.98692
#
# Compressibility (1/GPa) = 0.01928277
#
# Stress axis : x y z
#
# Youngs Moduli (GPa) = 93.72580 80.32304 111.37177
#
# Poissons Ratio (x) = 0.02503 0.30882
# Poissons Ratio (y) = 0.02920 0.37011
# Poissons Ratio (z) = 0.25989 0.26693
#
# Static dielectric constant tensor:
#      x y z
#    x 5.120960 0.000000 0.000000 
#    y 0.000000 2.515220 0.000000 
#    z 0.000000 0.000000 1.616790 
# 
# From -- ./inp_files/6830.got.cif
#   From: 2010.05.17/outbox.cif.g08.bks.cpg/sg68_4_cif.got.tgz:6830.got - 2010.06.03 18:57:09.
