data_PCOD9510008
_publ_section_title
;
Structure prediction by ZEFSAII (Michael W. Deem and Ramdas Pophale) SiO2 
 PCOD9510008
Probable space group: C C C A
;
_chemical_formula_sum "Si O2"
_cell_formula_units_Z 80
_cell_length_a 13.537371
_cell_length_b 14.732628
_cell_length_c 21.511790
_cell_angle_alpha 90.000000
_cell_angle_beta 90.000000
_cell_angle_gamma 90.000000
_cell_volume 4290.334007
_symmetry_space_group_name_H-M "C C C A"
_symmetry_group_IT_number 68
_space_group.IT_coordinate_system_code '2'
_symmetry_cell_setting 'orthorhombic'
loop_
_space_group_symop_operation_xyz
x,y,z
-x,1/2-y,z
x,1/2-y,1/2-z
-x,y,1/2-z
-x,-y,-z
x,1/2+y,-z
-x,1/2+y,1/2+z
x,-y,1/2+z
1/2+x,1/2+y,z
1/2-x,-y,z
1/2+x,-y,1/2-z
1/2-x,1/2+y,1/2-z
1/2-x,1/2-y,-z
1/2+x,y,-z
1/2-x,y,1/2+z
1/2+x,1/2-y,1/2+z
loop_
_atom_site_type_symbol
_atom_site_label
_atom_site_fract_x
_atom_site_fract_y
_atom_site_fract_z
Si Si1 0.145095 0.328030 0.013006
Si Si2 0.849447 0.540149 0.101892
Si Si3 0.198753 0.590762 0.105338
Si Si4 0.083459 0.119584 0.013921
Si Si5 0.515874 0.851767 0.676397
O O1 0.213953 0.353222 0.071529
O O2 0.135659 0.218809 0.010894
O O3 0.032333 0.361497 0.018075
O O4 0.178790 0.383759 0.950984
O O5 0.750000 0.500000 0.133240
O O6 0.890798 0.451599 0.066951
O O7 0.933978 0.584048 0.144464
O O8 0.250000 0.500000 0.127425
O O9 0.129232 0.628981 0.158753
O O10 0.120388 0.572846 0.049602
O O11 0.500000 0.750000 0.651465
O O12 0.500000 0.854116 0.750000
#
# Coordination Sequence:
#
# PCOD9510008 Si02
#       5
#    16  16  16  16  16
#     4  11  21  34  57  99 134 170 195 258 325 396
#     4  12  22  37  62  95 130 161 210 263 324 381
#     4  12  21  37  65  92 129 165 210 258 322 384
#     4  11  21  34  58  98 140 160 201 254 334 382
#     4  11  27  47  65  87 125 175 223 267 313 383
#
# _framework density 18.646567000000001
#
# number of rings (size 3 to 8) (size 9 to 14) (size 15 to 20)
#    0.000    0.600    6.000    3.600    2.800    0.800 
#    0.000    0.000    0.000    0.000    0.000    0.000 
#    0.000    0.000    0.000    0.000    0.000    0.000 
#
# Total GULP energy -223149.656942 kJ/mol
# GULP energy per Si atom -5578.741424 kJ/mol
# Density = 1.860413 g / cm^3
# Si number density = 18.646567 Si / 1000 Ang^3
#
#
#
# Elastic Constant Matrix: (Units=GPa)
#
#
# Indices 1 2 3 4 5 6 
#
# 1 119.4356 55.2329 22.7139 0.0000 0.0000 0.0000
# 2 55.2329 115.7527 15.8637 0.0000 0.0000 0.0000
# 3 22.7139 15.8637 35.9246 0.0000 0.0000 0.0000
# 4 0.0000 0.0000 0.0000 15.5458 0.0000 0.0000
# 5 0.0000 0.0000 0.0000 0.0000 20.5897 0.0000
# 6 0.0000 0.0000 0.0000 0.0000 0.0000 47.6075
#
#
#
# Elastic Compliance Matrix: (Units=1/GPa)
#
#
# Indices 1 2 3 4 5 6 
#
# 1 0.011589 -0.004817 -0.005200 0.000000 0.000000 0.000000
# 2 -0.004817 0.011198 -0.001899 0.000000 0.000000 0.000000
# 3 -0.005200 -0.001899 0.031963 0.000000 0.000000 0.000000
# 4 0.000000 0.000000 0.000000 0.064326 0.000000 0.000000
# 5 0.000000 0.000000 0.000000 0.000000 0.048568 0.000000
# 6 0.000000 0.000000 0.000000 0.000000 0.000000 0.021005
#
#
# Mechanical properties :
#
#
# Convention : Reuss Voigt Hill
#
# Bulk Modulus (GPa) = 32.34499 50.97043 41.65771
# Shear Modulus (GPa) = 22.44282 28.56876 25.50579
#
# Velocity S-wave (km/s) = 3.47304 3.91848 3.70246
# Velocity P-wave (km/s) = 5.78504 6.91860 6.37706
#
# Compressibility (1/GPa) = 0.03091669
#
# Stress axis : x y z
#
# Youngs Moduli (GPa) = 86.28507 89.30141 31.28654
#
# Poissons Ratio (x) = 0.43020 0.16270
# Poissons Ratio (y) = 0.41567 0.05941
# Poissons Ratio (z) = 0.44871 0.16958
#
# Static dielectric constant tensor:
#      x y z
#    x 1.717160 0.000000 0.000000 
#    y 0.000000 1.706780 0.000000 
#    z 0.000000 0.000000 1.621460 
# 
# From -- ./inp_files/38367.got.cif
#   From: 2010.05.17/outbox.cif.g08.bks.cpg/sg68_20_cif.got.tgz:38367.got - 2010.06.03 18:57:09.
