data_PCOD9510290
_publ_section_title
;
Structure prediction by ZEFSAII (Michael W. Deem and Ramdas Pophale) SiO2 
 PCOD9510290
Probable space group: C C C A
;
_chemical_formula_sum "Si O2"
_cell_formula_units_Z 68
_cell_length_a 24.067860
_cell_length_b 21.986980
_cell_length_c 4.845814
_cell_angle_alpha 90.000000
_cell_angle_beta 90.000000
_cell_angle_gamma 90.000000
_cell_volume 2564.305703
_symmetry_space_group_name_H-M "C C C A"
_symmetry_group_IT_number 68
_space_group.IT_coordinate_system_code '2'
_symmetry_cell_setting 'orthorhombic'
loop_
_space_group_symop_operation_xyz
x,y,z
-x,1/2-y,z
x,1/2-y,1/2-z
-x,y,1/2-z
-x,-y,-z
x,1/2+y,-z
-x,1/2+y,1/2+z
x,-y,1/2+z
1/2+x,1/2+y,z
1/2-x,-y,z
1/2+x,-y,1/2-z
1/2-x,1/2+y,1/2-z
1/2-x,1/2-y,-z
1/2+x,y,-z
1/2-x,y,1/2+z
1/2+x,1/2-y,1/2+z
loop_
_atom_site_type_symbol
_atom_site_label
_atom_site_fract_x
_atom_site_fract_y
_atom_site_fract_z
Si Si1 0.215446 0.915243 0.131055
Si Si2 0.596368 0.037993 0.190124
Si Si3 0.000000 0.250000 0.750000
Si Si4 0.162597 0.206374 0.492968
Si Si5 0.052736 0.858211 0.938062
O O1 0.232509 0.931319 0.822075
O O2 0.160011 0.945437 0.247720
O O3 0.204107 0.842967 0.122722
O O4 0.561970 0.092777 0.320738
O O5 0.584906 0.022204 0.874298
O O6 0.034798 0.205932 0.562199
O O7 0.183502 0.250000 0.250000
O O8 0.115136 0.162170 0.347118
O O9 0.145163 0.250000 0.750000
O O10 0.000000 0.875395 0.750000
#
# Coordination Sequence:
#
# PCOD9510290 Si02
#       5
#    16  16   4  16  16
#     4  11  24  42  68 101 133 180 235 286 350 418
#     4  11  27  48  71 101 140 183 233 294 350 409
#     4  12  22  44  72 102 132 184 222 282 342 420
#     4  11  23  41  64  97 143 182 225 286 348 418
#     4  11  26  43  71 102 140 184 237 283 347 424
#
# _framework density 26.517899
#
# number of rings (size 3 to 8) (size 9 to 14) (size 15 to 20)
#    0.000    0.941    1.176    4.588    3.294   10.353 
#    0.000    0.000    0.000    0.000    0.000    0.000 
#    0.000    0.000    0.000    0.000    0.000    0.000 
#
# Total GULP energy -190407.807470 kJ/mol
# GULP energy per Si atom -5600.229631 kJ/mol
# Density = 2.645754 g / cm^3
# Si number density = 26.517899 Si / 1000 Ang^3
#
#
#
# Elastic Constant Matrix: (Units=GPa)
#
#
# Indices 1 2 3 4 5 6 
#
# 1 94.1530 29.2176 19.6611 0.0000 0.0000 0.0000
# 2 29.2176 102.0924 2.1048 0.0000 0.0000 0.0000
# 3 19.6611 2.1048 93.2650 0.0000 0.0000 0.0000
# 4 0.0000 0.0000 0.0000 86.2533 0.0000 0.0000
# 5 0.0000 0.0000 0.0000 0.0000 37.4071 0.0000
# 6 0.0000 0.0000 0.0000 0.0000 0.0000 49.7564
#
#
#
# Elastic Compliance Matrix: (Units=1/GPa)
#
#
# Indices 1 2 3 4 5 6 
#
# 1 0.012211 -0.003443 -0.002496 0.000000 0.000000 0.000000
# 2 -0.003443 0.010770 0.000483 0.000000 0.000000 0.000000
# 3 -0.002496 0.000483 0.011238 0.000000 0.000000 0.000000
# 4 0.000000 0.000000 0.000000 0.011594 0.000000 0.000000
# 5 0.000000 0.000000 0.000000 0.000000 0.026733 0.000000
# 6 0.000000 0.000000 0.000000 0.000000 0.000000 0.020098
#
#
# Mechanical properties :
#
#
# Convention : Reuss Voigt Hill
#
# Bulk Modulus (GPa) = 42.90887 43.49750 43.20318
# Shear Modulus (GPa) = 44.91343 50.58515 47.74929
#
# Velocity S-wave (km/s) = 4.11993 4.37233 4.24800
# Velocity P-wave (km/s) = 6.23281 6.47521 6.35517
#
# Compressibility (1/GPa) = 0.02330521
#
# Stress axis : x y z
#
# Youngs Moduli (GPa) = 81.89480 92.84649 88.98767
#
# Poissons Ratio (x) = 0.31968 0.22215
# Poissons Ratio (y) = 0.28197 -0.04296
# Poissons Ratio (z) = 0.20445 -0.04482
#
# Static dielectric constant tensor:
#      x y z
#    x 2.271820 0.000000 0.000000 
#    y 0.000000 2.069680 0.000000 
#    z 0.000000 0.000000 2.012810 
# 
# From -- ./inp_files/1540.got.cif
#   From: 2010.05.17/outbox.cif.g08.bks.cpg/sg68_1_cif.got.tgz:1540.got - 2010.06.03 18:57:09.
