data_PCOD9510401
_publ_section_title
;
Structure prediction by ZEFSAII (Michael W. Deem and Ramdas Pophale) SiO2 
 PCOD9510401
Probable space group: C C C A
;
_chemical_formula_sum "Si O2"
_cell_formula_units_Z 88
_cell_length_a 13.203333
_cell_length_b 26.439402
_cell_length_c 13.822852
_cell_angle_alpha 90.000000
_cell_angle_beta 90.000000
_cell_angle_gamma 90.000000
_cell_volume 4825.394923
_symmetry_space_group_name_H-M "C C C A"
_symmetry_group_IT_number 68
_space_group.IT_coordinate_system_code '2'
_symmetry_cell_setting 'orthorhombic'
loop_
_space_group_symop_operation_xyz
x,y,z
-x,1/2-y,z
x,1/2-y,1/2-z
-x,y,1/2-z
-x,-y,-z
x,1/2+y,-z
-x,1/2+y,1/2+z
x,-y,1/2+z
1/2+x,1/2+y,z
1/2-x,-y,z
1/2+x,-y,1/2-z
1/2-x,1/2+y,1/2-z
1/2-x,1/2-y,-z
1/2+x,y,-z
1/2-x,y,1/2+z
1/2+x,1/2-y,1/2+z
loop_
_atom_site_type_symbol
_atom_site_label
_atom_site_fract_x
_atom_site_fract_y
_atom_site_fract_z
Si Si1 0.743630 0.622519 0.516270
Si Si2 0.250000 0.500000 0.253820
Si Si3 0.877320 0.306433 0.139850
Si Si4 0.620250 0.954724 0.588915
Si Si5 0.610442 0.313130 0.868944
Si Si6 0.887365 0.030755 0.911394
O O1 0.790357 0.664050 0.585859
O O2 0.837580 0.593217 0.467761
O O3 0.676383 0.649904 0.434572
O O4 0.679131 0.581123 0.575730
O O5 0.303928 0.461790 0.179207
O O6 0.158203 0.492925 0.330274
O O7 0.868927 0.246718 0.116950
O O8 0.871448 0.318476 0.254085
O O9 0.991480 0.321984 0.110589
O O10 0.501724 0.953851 0.614030
O O11 0.623650 0.002203 0.514274
#
# Coordination Sequence:
#
# PCOD9510401 Si02
#       6
#    16   8  16  16  16  16
#     4  12  20  36  60  88 112 148 186 238 288 332
#     4  12  20  44  56  80 110 164 180 234 284 330
#     4   9  20  38  59  84 113 147 188 231 279 339
#     4  11  24  40  57  83 116 150 192 235 280 339
#     4   9  20  38  59  84 113 147 188 231 279 339
#     4  11  24  40  57  83 116 150 192 235 280 339
#
# _framework density 18.23685
#
# number of rings (size 3 to 8) (size 9 to 14) (size 15 to 20)
#    0.000    1.455    3.636    3.273    2.545    0.000 
#    0.000    0.000    0.000    0.000    0.000    7.636 
#    0.000    0.000    0.000    0.000    0.000    0.000 
#
# Total GULP energy -245208.448922 kJ/mol
# GULP energy per Si atom -5572.919294 kJ/mol
# Density = 1.819534 g / cm^3
# Si number density = 18.236850 Si / 1000 Ang^3
#
#
#
# Elastic Constant Matrix: (Units=GPa)
#
#
# Indices 1 2 3 4 5 6 
#
# 1 108.6306 49.7255 34.8595 0.0000 0.0000 0.0000
# 2 49.7255 59.8318 29.6127 0.0000 0.0000 0.0000
# 3 34.8595 29.6127 56.7804 0.0000 0.0000 0.0000
# 4 0.0000 0.0000 0.0000 13.4336 0.0000 0.0000
# 5 0.0000 0.0000 0.0000 0.0000 26.4385 0.0000
# 6 0.0000 0.0000 0.0000 0.0000 0.0000 28.4254
#
#
#
# Elastic Compliance Matrix: (Units=1/GPa)
#
#
# Indices 1 2 3 4 5 6 
#
# 1 0.015429 -0.010965 -0.003754 0.000000 0.000000 0.000000
# 2 -0.010965 0.030321 -0.009082 0.000000 0.000000 0.000000
# 3 -0.003754 -0.009082 0.024653 0.000000 0.000000 0.000000
# 4 0.000000 0.000000 0.000000 0.074440 0.000000 0.000000
# 5 0.000000 0.000000 0.000000 0.000000 0.037824 0.000000
# 6 0.000000 0.000000 0.000000 0.000000 0.000000 0.035180
#
#
# Mechanical properties :
#
#
# Convention : Reuss Voigt Hill
#
# Bulk Modulus (GPa) = 43.85589 50.40424 47.13006
# Shear Modulus (GPa) = 18.31171 21.06253 19.68712
#
# Velocity S-wave (km/s) = 3.17220 3.40213 3.28918
# Velocity P-wave (km/s) = 6.12514 6.56745 6.35014
#
# Compressibility (1/GPa) = 0.02280196
#
# Stress axis : x y z
#
# Youngs Moduli (GPa) = 64.81092 32.97994 40.56347
#
# Poissons Ratio (x) = 0.36164 0.15227
# Poissons Ratio (y) = 0.71067 0.36838
# Poissons Ratio (z) = 0.24330 0.29951
#
# Static dielectric constant tensor:
#      x y z
#    x 1.632800 0.000000 0.000000 
#    y 0.000000 1.603480 0.000000 
#    z 0.000000 0.000000 1.635480 
# 
# From -- ./inp_files/21149.got.cif
#   From: 2010.05.17/outbox.cif.g08.bks.cpg/sg68_11_cif.got.tgz:21149.got - 2010.06.03 18:57:09.
