data_PCOD9510950
_publ_section_title
;
Structure prediction by ZEFSAII (Michael W. Deem and Ramdas Pophale) SiO2 
 PCOD9510950
Probable space group: C C C A
;
_chemical_formula_sum "Si O2"
_cell_formula_units_Z 52
_cell_length_a 27.000000
_cell_length_b 9.000000
_cell_length_c 21.000000
_cell_angle_alpha 90.000000
_cell_angle_beta 90.000000
_cell_angle_gamma 90.000000
_cell_volume 5103.000000
_symmetry_space_group_name_H-M "C C C A"
_symmetry_group_IT_number 68
_space_group.IT_coordinate_system_code '2'
_symmetry_cell_setting 'orthorhombic'
loop_
_space_group_symop_operation_xyz
x,y,z
-x,1/2-y,z
x,1/2-y,1/2-z
-x,y,1/2-z
-x,-y,-z
x,1/2+y,-z
-x,1/2+y,1/2+z
x,-y,1/2+z
1/2+x,1/2+y,z
1/2-x,-y,z
1/2+x,-y,1/2-z
1/2-x,1/2+y,1/2-z
1/2-x,1/2-y,-z
1/2+x,y,-z
1/2-x,y,1/2+z
1/2+x,1/2-y,1/2+z
loop_
_atom_site_type_symbol
_atom_site_label
_atom_site_fract_x
_atom_site_fract_y
_atom_site_fract_z
Si Si1 0.306636 0.978134 0.365368
Si Si2 0.102700 0.017313 0.628592
Si Si3 0.124751 0.301828 0.555627
Si Si4 0.179329 0.803235 0.564082
Si Si5 0.750000 0.500000 0.120957
Si Si6 0.965857 0.887671 0.963516
Si Si7 0.328890 0.918872 0.728450
O O1 0.325124 0.815534 0.380950
O O2 0.250000 0.000000 0.387114
O O3 0.343560 0.081853 0.404552
O O4 0.308951 0.001154 0.290400
O O5 0.104064 0.185646 0.605578
O O6 0.120849 0.011714 0.700524
O O7 0.143305 0.936015 0.584111
O O8 0.052849 0.946341 0.604135
O O9 0.162837 0.238230 0.502767
O O10 0.079222 0.355756 0.512240
O O11 0.232908 0.870890 0.573756
O O12 0.709438 0.433494 0.169833
O O13 0.000000 0.750000 0.951702
O O14 0.000000 0.000000 0.000000
O O15 0.335501 0.750000 0.750000
#
# Coordination Sequence:
#
# PCOD9510950 Si02
#       7
#    16  16  16  16   8  16  16
#     4  12  25  39  64  91 132 183 227 261 312 393
#     4  10  22  39  61  95 125 163 211 274 323 380
#     4  11  23  42  62 100 131 160 212 270 334 389
#     4  10  23  37  57  87 127 166 209 273 323 367
#     4  10  22  34  56  80 126 172 230 264 298 372
#     4  11  22  41  72 100 126 161 208 268 344 414
#     4  11  21  39  59  85 125 175 226 258 308 378
#
# _framework density 10.190084000000001
#
# number of rings (size 3 to 8) (size 9 to 14) (size 15 to 20)
#    0.000    1.231    3.846    2.769    5.385    2.462 
#    0.000    0.000    0.000    0.923    4.000    0.000 
#    0.000    0.000    0.000    0.000    0.000    0.000 
#
# Total GULP energy -289545.821208 kJ/mol
# GULP energy per Si atom -5568.188869 kJ/mol
# Density = 1.016689 g / cm^3
# Si number density = 10.190084 Si / 1000 Ang^3
#
#
#
# Elastic Constant Matrix: (Units=GPa)
#
#
# Indices 1 2 3 4 5 6 
#
# 1 100.7400 48.8146 48.1119 0.0000 0.0000 0.0000
# 2 48.8146 70.6120 15.9253 0.0000 0.0000 0.0000
# 3 48.1119 15.9253 41.3822 0.0000 0.0000 0.0000
# 4 0.0000 0.0000 0.0000 29.2811 0.0000 0.0000
# 5 0.0000 0.0000 0.0000 0.0000 36.6699 0.0000
# 6 0.0000 0.0000 0.0000 0.0000 0.0000 70.9245
#
#
#
# Elastic Compliance Matrix: (Units=1/GPa)
#
#
# Indices 1 2 3 4 5 6 
#
# 1 0.032715 -0.015372 -0.032120 0.000000 0.000000 0.000000
# 2 -0.015372 0.022731 0.009124 0.000000 0.000000 0.000000
# 3 -0.032120 0.009124 0.057997 0.000000 0.000000 0.000000
# 4 0.000000 0.000000 0.000000 0.034152 0.000000 0.000000
# 5 0.000000 0.000000 0.000000 0.000000 0.027270 0.000000
# 6 0.000000 0.000000 0.000000 0.000000 0.000000 0.014100
#
#
# Mechanical properties :
#
#
# Convention : Reuss Voigt Hill
#
# Bulk Modulus (GPa) = 27.24211 48.71533 37.97872
# Shear Modulus (GPa) = 17.98979 34.03392 26.01186
#
# Velocity S-wave (km/s) = 2.97427 4.09094 3.57645
# Velocity P-wave (km/s) = 5.01907 6.80217 5.97748
#
# Compressibility (1/GPa) = 0.03670788
#
# Stress axis : x y z
#
# Youngs Moduli (GPa) = 30.56681 43.99277 17.24237
#
# Poissons Ratio (x) = 0.67627 0.55382
# Poissons Ratio (y) = 0.46988 -0.15733
# Poissons Ratio (z) = 0.98180 -0.40141
#
# Static dielectric constant tensor:
#      x y z
#    x 1.805610 0.000000 0.000000 
#    y 0.000000 1.867730 0.000000 
#    z 0.000000 0.000000 1.560060 
# 
# From -- ./inp_files/41326.got.cif
#   From: 2010.05.17/outbox.ucp.g08.bks.cvg/sg68_21_cif.got.tgz:41326.got - 2010.06.11 16:49:25.
