data_PCOD9510887
_publ_section_title
;
Structure prediction by ZEFSAII (Michael W. Deem and Ramdas Pophale) SiO2 
 PCOD9510887
Probable space group: C C C A
;
_chemical_formula_sum "Si O2"
_cell_formula_units_Z 28
_cell_length_a 17.444718
_cell_length_b 11.900130
_cell_length_c 4.823836
_cell_angle_alpha 90.000000
_cell_angle_beta 90.000000
_cell_angle_gamma 90.000000
_cell_volume 1001.401398
_symmetry_space_group_name_H-M "C C C A"
_symmetry_group_IT_number 68
_space_group.IT_coordinate_system_code '2'
_symmetry_cell_setting 'orthorhombic'
loop_
_space_group_symop_operation_xyz
x,y,z
-x,1/2-y,z
x,1/2-y,1/2-z
-x,y,1/2-z
-x,-y,-z
x,1/2+y,-z
-x,1/2+y,1/2+z
x,-y,1/2+z
1/2+x,1/2+y,z
1/2-x,-y,z
1/2+x,-y,1/2-z
1/2-x,1/2+y,1/2-z
1/2-x,1/2-y,-z
1/2+x,y,-z
1/2-x,y,1/2+z
1/2+x,1/2-y,1/2+z
loop_
_atom_site_type_symbol
_atom_site_label
_atom_site_fract_x
_atom_site_fract_y
_atom_site_fract_z
Si Si1 0.250000 0.750000 0.000000
Si Si2 0.000000 0.250000 0.750000
Si Si3 0.371251 0.916938 0.572373
O O1 0.185427 0.750000 0.750000
O O2 0.295975 0.652828 0.809186
O O3 0.943216 0.335245 0.595352
O O4 0.371691 0.977590 0.279638
#
# Coordination Sequence:
#
# PCOD9510887 Si02
#       3
#     8   4  16
#     4  12  26  52  78 120 160 208 276 340 392 502
#     4  12  28  58  80 124 168 216 280 338 400 520
#     4  12  29  52  82 118 162 217 268 337 413 477
#
# _framework density 27.960813999999999
#
# number of rings (size 3 to 8) (size 9 to 14) (size 15 to 20)
#    0.000    0.000    2.857    5.143    0.000    9.143 
#    0.000    0.000    0.000    0.000    0.000    0.000 
#    0.000    0.000    0.000    0.000    0.000    0.000 
#
# Total GULP energy -77970.072048 kJ/mol
# GULP energy per Si atom -5569.290861 kJ/mol
# Density = 2.789717 g / cm^3
# Si number density = 27.960814 Si / 1000 Ang^3
#
#
#
# Elastic Constant Matrix: (Units=GPa)
#
#
# Indices 1 2 3 4 5 6 
#
# 1 190.3481 70.6301 -14.6349 0.0000 0.0000 0.0000
# 2 70.6301 165.9134 -2.3214 0.0000 0.0000 0.0000
# 3 -14.6349 -2.3214 152.3354 0.0000 0.0000 0.0000
# 4 0.0000 0.0000 0.0000 37.0199 0.0000 0.0000
# 5 0.0000 0.0000 0.0000 0.0000 32.5043 0.0000
# 6 0.0000 0.0000 0.0000 0.0000 0.0000 56.5527
#
#
#
# Elastic Compliance Matrix: (Units=1/GPa)
#
#
# Indices 1 2 3 4 5 6 
#
# 1 0.006287 -0.002669 0.000563 0.000000 0.000000 0.000000
# 2 -0.002669 0.007161 -0.000147 0.000000 0.000000 0.000000
# 3 0.000563 -0.000147 0.006616 0.000000 0.000000 0.000000
# 4 0.000000 0.000000 0.000000 0.027013 0.000000 0.000000
# 5 0.000000 0.000000 0.000000 0.000000 0.030765 0.000000
# 6 0.000000 0.000000 0.000000 0.000000 0.000000 0.017683
#
#
# Mechanical properties :
#
#
# Convention : Reuss Voigt Hill
#
# Bulk Modulus (GPa) = 64.26873 68.43827 66.35350
# Shear Modulus (GPa) = 47.52118 55.54360 51.53239
#
# Velocity S-wave (km/s) = 4.12705 4.46183 4.29770
# Velocity P-wave (km/s) = 6.76352 7.14657 6.95768
#
# Compressibility (1/GPa) = 0.01555967
#
# Stress axis : x y z
#
# Youngs Moduli (GPa) = 159.05777 139.64165 151.14102
#
# Poissons Ratio (x) = 0.37264 -0.08514
# Poissons Ratio (y) = 0.42445 0.02225
# Poissons Ratio (z) = -0.08960 0.02056
#
# Static dielectric constant tensor:
#      x y z
#    x 1.789180 0.000000 0.000000 
#    y 0.000000 2.710150 0.000000 
#    z 0.000000 0.000000 1.210190 
# 
# From -- ./inp_files/50.got.cif
#   From: 2010.05.17/outbox.cif.g08.bks.cpg/sg68_1_cif.got.tgz:50.got - 2010.06.03 18:57:09.
