data_PCOD9510674
_publ_section_title
;
Structure prediction by ZEFSAII (Michael W. Deem and Ramdas Pophale) SiO2 
 PCOD9510674
Probable space group: C C C A
;
_chemical_formula_sum "Si O2"
_cell_formula_units_Z 60
_cell_length_a 11.097890
_cell_length_b 12.082146
_cell_length_c 19.346375
_cell_angle_alpha 90.000000
_cell_angle_beta 90.000000
_cell_angle_gamma 90.000000
_cell_volume 2594.084370
_symmetry_space_group_name_H-M "C C C A"
_symmetry_group_IT_number 68
_space_group.IT_coordinate_system_code '2'
_symmetry_cell_setting 'orthorhombic'
loop_
_space_group_symop_operation_xyz
x,y,z
-x,1/2-y,z
x,1/2-y,1/2-z
-x,y,1/2-z
-x,-y,-z
x,1/2+y,-z
-x,1/2+y,1/2+z
x,-y,1/2+z
1/2+x,1/2+y,z
1/2-x,-y,z
1/2+x,-y,1/2-z
1/2-x,1/2+y,1/2-z
1/2-x,1/2-y,-z
1/2+x,y,-z
1/2-x,y,1/2+z
1/2+x,1/2-y,1/2+z
loop_
_atom_site_type_symbol
_atom_site_label
_atom_site_fract_x
_atom_site_fract_y
_atom_site_fract_z
Si Si1 0.250000 0.000000 0.256267
Si Si2 0.000000 0.250000 0.250000
Si Si3 0.125759 0.182892 0.002132
Si Si4 0.060781 0.129413 0.852041
Si Si5 0.582469 0.084088 0.849711
O O1 0.157861 0.925062 0.300595
O O2 0.311357 0.909578 0.205610
O O3 0.021626 0.343376 0.187860
O O4 0.120473 0.117923 0.074040
O O5 0.000000 0.250000 0.003126
O O6 0.250000 0.250000 0.000000
O O7 0.118407 0.122632 0.928537
O O8 0.000000 0.250000 0.838794
O O9 0.952956 0.042796 0.851435
#
# Coordination Sequence:
#
# PCOD9510674 Si02
#       5
#     8   4  16  16  16
#     4  12  28  46  84 118 160 218 260 350 418 492
#     4  12  24  48  74 108 158 204 274 318 418 488
#     4  11  28  51  83 117 160 216 274 345 411 503
#     4  11  28  54  78 118 163 214 281 343 414 501
#     4  12  27  50  77 116 160 210 266 344 413 498
#
# _framework density 23.129548
#
# number of rings (size 3 to 8) (size 9 to 14) (size 15 to 20)
#    0.000    0.533    4.000    0.800   14.933    3.200 
#    0.000    0.000    0.000    0.000    0.000    0.000 
#    0.000    0.000    0.000    0.000    0.000    0.000 
#
# Total GULP energy -167062.106807 kJ/mol
# GULP energy per Si atom -5568.736894 kJ/mol
# Density = 2.307690 g / cm^3
# Si number density = 23.129548 Si / 1000 Ang^3
#
#
#
# Elastic Constant Matrix: (Units=GPa)
#
#
# Indices 1 2 3 4 5 6 
#
# 1 114.0071 24.2509 52.2429 0.0000 0.0000 0.0000
# 2 24.2509 128.1327 34.3872 0.0000 0.0000 0.0000
# 3 52.2429 34.3872 177.0425 0.0000 0.0000 0.0000
# 4 0.0000 0.0000 0.0000 62.1370 0.0000 0.0000
# 5 0.0000 0.0000 0.0000 0.0000 86.6474 0.0000
# 6 0.0000 0.0000 0.0000 0.0000 0.0000 15.0890
#
#
#
# Elastic Compliance Matrix: (Units=1/GPa)
#
#
# Indices 1 2 3 4 5 6 
#
# 1 0.010314 -0.001198 -0.002811 0.000000 0.000000 0.000000
# 2 -0.001198 0.008373 -0.001273 0.000000 0.000000 0.000000
# 3 -0.002811 -0.001273 0.006725 0.000000 0.000000 0.000000
# 4 0.000000 0.000000 0.000000 0.016093 0.000000 0.000000
# 5 0.000000 0.000000 0.000000 0.000000 0.011541 0.000000
# 6 0.000000 0.000000 0.000000 0.000000 0.000000 0.066274
#
#
# Mechanical properties :
#
#
# Convention : Reuss Voigt Hill
#
# Bulk Modulus (GPa) = 67.34462 71.21604 69.28033
# Shear Modulus (GPa) = 37.08297 53.32808 45.20552
#
# Velocity S-wave (km/s) = 4.00843 4.80690 4.42571
# Velocity P-wave (km/s) = 7.11357 7.85273 7.49227
#
# Compressibility (1/GPa) = 0.01484900
#
# Stress axis : x y z
#
# Youngs Moduli (GPa) = 96.95317 119.43601 148.69757
#
# Poissons Ratio (x) = 0.14305 0.41798
# Poissons Ratio (y) = 0.11612 0.18926
# Poissons Ratio (z) = 0.27253 0.15202
#
# Static dielectric constant tensor:
#      x y z
#    x 2.036480 0.000000 0.000000 
#    y 0.000000 1.877240 0.000000 
#    z 0.000000 0.000000 2.010830 
# 
# From -- ./inp_files/37061.got.cif
#   From: 2010.05.17/outbox.cif.g08.bks.cpg/sg68_19_cif.got.tgz:37061.got - 2010.06.03 18:57:09.
