data_PCOD9510931
_publ_section_title
;
Structure prediction by ZEFSAII (Michael W. Deem and Ramdas Pophale) SiO2 
 PCOD9510931
Probable space group: C C C A
;
_chemical_formula_sum "Si O2"
_cell_formula_units_Z 46
_cell_length_a 21.000000
_cell_length_b 12.000000
_cell_length_c 18.000000
_cell_angle_alpha 90.000000
_cell_angle_beta 90.000000
_cell_angle_gamma 90.000000
_cell_volume 4536.000000
_symmetry_space_group_name_H-M "C C C A"
_symmetry_group_IT_number 68
_space_group.IT_coordinate_system_code '2'
_symmetry_cell_setting 'orthorhombic'
loop_
_space_group_symop_operation_xyz
x,y,z
-x,1/2-y,z
x,1/2-y,1/2-z
-x,y,1/2-z
-x,-y,-z
x,1/2+y,-z
-x,1/2+y,1/2+z
x,-y,1/2+z
1/2+x,1/2+y,z
1/2-x,-y,z
1/2+x,-y,1/2-z
1/2-x,1/2+y,1/2-z
1/2-x,1/2-y,-z
1/2+x,y,-z
1/2-x,y,1/2+z
1/2+x,1/2-y,1/2+z
loop_
_atom_site_type_symbol
_atom_site_label
_atom_site_fract_x
_atom_site_fract_y
_atom_site_fract_z
Si Si1 0.722279 0.125856 0.842886
Si Si2 0.500000 0.250000 0.750000
Si Si3 0.500000 0.250000 0.005873
Si Si4 0.091022 0.621084 0.236976
Si Si5 0.735296 0.376839 0.322322
Si Si6 0.018074 0.942564 0.124737
Si Si7 0.078209 0.340249 0.386565
O O1 0.721847 0.122526 0.752695
O O2 0.755031 0.250896 0.857665
O O3 0.652316 0.137633 0.877264
O O4 0.750000 0.000000 0.863613
O O5 0.452987 0.187127 0.693403
O O6 0.439359 0.251601 0.950047
O O7 0.508384 0.350338 0.063424
O O8 0.072959 0.750000 0.250000
O O9 0.162478 0.617844 0.206819
O O10 0.077834 0.572367 0.318473
O O11 0.043412 0.562913 0.178693
O O12 0.750000 0.500000 0.359438
O O13 0.035431 0.056906 0.086256
#
# Coordination Sequence:
#
# PCOD9510931 Si02
#       7
#    16   4   8  16  16  16  16
#     4  10  20  35  56  83 121 160 200 245 302 373
#     4  10  20  40  56  92 124 146 200 256 308 378
#     4  11  24  40  56  85 126 160 212 257 306 374
#     4  11  19  35  64  96 119 150 202 265 315 371
#     4  10  20  34  59  93 125 160 199 254 314 373
#     4  11  21  38  62  91 119 157 202 261 318 366
#     4  11  24  37  61  87 121 167 200 252 318 371
#
# _framework density 10.141093
#
# number of rings (size 3 to 8) (size 9 to 14) (size 15 to 20)
#    0.000    1.391    3.478    5.217    0.000    2.783 
#    0.000    0.000    0.000   10.435    0.000    1.217 
#    0.000    0.000    0.000    0.000    0.000    0.000 
#
# Total GULP energy -256074.236673 kJ/mol
# GULP energy per Si atom -5566.831232 kJ/mol
# Density = 1.011801 g / cm^3
# Si number density = 10.141093 Si / 1000 Ang^3
#
#
#
# Elastic Constant Matrix: (Units=GPa)
#
#
# Indices 1 2 3 4 5 6 
#
# 1 140.1143 35.6520 39.1644 0.0000 0.0000 0.0000
# 2 35.6520 119.8129 16.7452 0.0000 0.0000 0.0000
# 3 39.1644 16.7452 80.6367 0.0000 0.0000 0.0000
# 4 0.0000 0.0000 0.0000 16.5662 0.0000 0.0000
# 5 0.0000 0.0000 0.0000 0.0000 7.5497 0.0000
# 6 0.0000 0.0000 0.0000 0.0000 0.0000 169.8925
#
#
#
# Elastic Compliance Matrix: (Units=1/GPa)
#
#
# Indices 1 2 3 4 5 6 
#
# 1 0.008727 -0.002064 -0.003810 0.000000 0.000000 0.000000
# 2 -0.002064 0.009084 -0.000884 0.000000 0.000000 0.000000
# 3 -0.003810 -0.000884 0.014435 0.000000 0.000000 0.000000
# 4 0.000000 0.000000 0.000000 0.060364 0.000000 0.000000
# 5 0.000000 0.000000 0.000000 0.000000 0.132456 0.000000
# 6 0.000000 0.000000 0.000000 0.000000 0.000000 0.005886
#
#
# Mechanical properties :
#
#
# Convention : Reuss Voigt Hill
#
# Bulk Modulus (GPa) = 53.38946 58.18745 55.78846
# Shear Modulus (GPa) = 19.94320 55.40186 37.67253
#
# Velocity S-wave (km/s) = 3.13914 5.23210 4.31445
# Velocity P-wave (km/s) = 6.28645 8.07781 7.23776
#
# Compressibility (1/GPa) = 0.01873029
#
# Stress axis : x y z
#
# Youngs Moduli (GPa) = 114.58305 110.08171 69.27454
#
# Poissons Ratio (x) = 0.22726 0.26394
# Poissons Ratio (y) = 0.23655 0.06122
# Poissons Ratio (z) = 0.43657 0.09729
#
# Static dielectric constant tensor:
#      x y z
#    x 1.719900 0.000000 0.000000 
#    y 0.000000 3.370430 0.000000 
#    z 0.000000 0.000000 1.703230 
# 
# From -- ./inp_files/32847.got.cif
#   From: 2010.05.17/outbox.ucp.g08.bks.cvg/sg68_17_cif.got.tgz:32847.got - 2010.06.11 16:49:25.
