data_PCOD9510677
_publ_section_title
;
Structure prediction by ZEFSAII (Michael W. Deem and Ramdas Pophale) SiO2 
 PCOD9510677
Probable space group: C C C A
;
_chemical_formula_sum "Si O2"
_cell_formula_units_Z 68
_cell_length_a 17.894568
_cell_length_b 8.380754
_cell_length_c 25.207221
_cell_angle_alpha 90.000000
_cell_angle_beta 90.000000
_cell_angle_gamma 90.000000
_cell_volume 3780.326236
_symmetry_space_group_name_H-M "C C C A"
_symmetry_group_IT_number 68
_space_group.IT_coordinate_system_code '2'
_symmetry_cell_setting 'orthorhombic'
loop_
_space_group_symop_operation_xyz
x,y,z
-x,1/2-y,z
x,1/2-y,1/2-z
-x,y,1/2-z
-x,-y,-z
x,1/2+y,-z
-x,1/2+y,1/2+z
x,-y,1/2+z
1/2+x,1/2+y,z
1/2-x,-y,z
1/2+x,-y,1/2-z
1/2-x,1/2+y,1/2-z
1/2-x,1/2-y,-z
1/2+x,y,-z
1/2-x,y,1/2+z
1/2+x,1/2-y,1/2+z
loop_
_atom_site_type_symbol
_atom_site_label
_atom_site_fract_x
_atom_site_fract_y
_atom_site_fract_z
Si Si1 0.919979 0.814972 0.053002
Si Si2 0.837802 0.989349 0.959362
Si Si3 0.545307 0.514957 0.836110
Si Si4 0.000000 0.250000 0.750000
Si Si5 0.076928 0.693206 0.873251
O O1 0.867425 0.661538 0.057951
O O2 0.934392 0.896607 0.109506
O O3 0.000000 0.750000 0.033718
O O4 0.882212 0.935180 0.011742
O O5 0.860669 0.863649 0.913388
O O6 0.750000 0.000000 0.968884
O O7 0.548863 0.635177 0.787683
O O8 0.591317 0.348148 0.836906
O O9 0.458842 0.452757 0.840250
O O10 0.000000 0.750000 0.903789
#
# Coordination Sequence:
#
# PCOD9510677 Si02
#       5
#    16  16  16   4  16
#     4  12  20  37  52  79 110 161 185 227 275 333
#     4  12  23  33  54  84 121 154 193 222 265 333
#     4   9  20  32  60  77 112 137 190 231 289 324
#     4  12  16  34  52 100 100 126 180 264 286 316
#     4   8  18  38  52  82 112 158 174 222 281 338
#
# _framework density 17.987866
#
# number of rings (size 3 to 8) (size 9 to 14) (size 15 to 20)
#    1.412    0.000    3.529    3.529    0.000    1.882 
#    0.000    0.000    0.000    0.000    0.000   32.941 
#    0.000    0.000    0.000    0.000    0.000    0.000 
#
# Total GULP energy -189272.769531 kJ/mol
# GULP energy per Si atom -5566.846163 kJ/mol
# Density = 1.794692 g / cm^3
# Si number density = 17.987866 Si / 1000 Ang^3
#
#
#
# Elastic Constant Matrix: (Units=GPa)
#
#
# Indices 1 2 3 4 5 6 
#
# 1 79.3813 27.3028 16.6113 0.0000 0.0000 0.0000
# 2 27.3028 127.1348 65.1861 0.0000 0.0000 0.0000
# 3 16.6113 65.1861 90.4154 0.0000 0.0000 0.0000
# 4 0.0000 0.0000 0.0000 -2.4998 0.0000 0.0000
# 5 0.0000 0.0000 0.0000 0.0000 -3.0891 0.0000
# 6 0.0000 0.0000 0.0000 0.0000 0.0000 16.3207
#
#
#
# Elastic Compliance Matrix: (Units=1/GPa)
#
#
# Indices 1 2 3 4 5 6 
#
# 1 0.013624 -0.002606 -0.000624 0.000000 0.000000 0.000000
# 2 -0.002606 0.012977 -0.008877 0.000000 0.000000 0.000000
# 3 -0.000624 -0.008877 0.017575 0.000000 0.000000 0.000000
# 4 0.000000 0.000000 0.000000 -0.400033 0.000000 0.000000
# 5 0.000000 0.000000 0.000000 0.000000 -0.323716 0.000000
# 6 0.000000 0.000000 0.000000 0.000000 0.000000 0.061272
#
#
# Mechanical properties :
#
#
# Convention : Reuss Voigt Hill
#
# Bulk Modulus (GPa) = 50.09652 57.23687 53.66669
# Shear Modulus (GPa) = -8.51162 14.66845 3.07842
#
# Velocity S-wave (km/s) = -2.17764 2.85873 1.30962
# Velocity P-wave (km/s) = 4.64627 6.54104 5.67332
#
# Compressibility (1/GPa) = 0.01996147
#
# Stress axis : x y z
#
# Youngs Moduli (GPa) = 73.39822 77.06058 56.89955
#
# Poissons Ratio (x) = 0.20080 0.03553
# Poissons Ratio (y) = 0.19125 0.50510
# Poissons Ratio (z) = 0.04584 0.68407
#
# Static dielectric constant tensor:
#      x y z
#    x 1.612830 0.000000 0.000000 
#    y 0.000000 1.701250 0.000000 
#    z 0.000000 0.000000 1.614480 
# 
# From -- ./inp_files/39188.got.cif
#   From: 2010.05.17/outbox.cif.g08.bks.cpg/sg68_20_cif.got.tgz:39188.got - 2010.06.03 18:57:09.
