data_PCOD9510082
_publ_section_title
;
Structure prediction by ZEFSAII (Michael W. Deem and Ramdas Pophale) SiO2 
 PCOD9510082
Probable space group: C C C A
;
_chemical_formula_sum "Si O2"
_cell_formula_units_Z 116
_cell_length_a 9.044956
_cell_length_b 22.732455
_cell_length_c 25.320153
_cell_angle_alpha 90.000000
_cell_angle_beta 90.000000
_cell_angle_gamma 90.000000
_cell_volume 5206.179338
_symmetry_space_group_name_H-M "C C C A"
_symmetry_group_IT_number 68
_space_group.IT_coordinate_system_code '2'
_symmetry_cell_setting 'orthorhombic'
loop_
_space_group_symop_operation_xyz
x,y,z
-x,1/2-y,z
x,1/2-y,1/2-z
-x,y,1/2-z
-x,-y,-z
x,1/2+y,-z
-x,1/2+y,1/2+z
x,-y,1/2+z
1/2+x,1/2+y,z
1/2-x,-y,z
1/2+x,-y,1/2-z
1/2-x,1/2+y,1/2-z
1/2-x,1/2-y,-z
1/2+x,y,-z
1/2-x,y,1/2+z
1/2+x,1/2-y,1/2+z
loop_
_atom_site_type_symbol
_atom_site_label
_atom_site_fract_x
_atom_site_fract_y
_atom_site_fract_z
Si Si1 0.955651 0.340850 0.690914
Si Si2 0.797118 0.398172 0.601718
Si Si3 0.318292 0.843274 0.429099
Si Si4 0.066012 0.567367 0.040689
Si Si5 0.137098 0.790016 0.033014
Si Si6 0.000000 0.250000 0.250000
Si Si7 0.507860 0.450341 0.581192
Si Si8 0.250537 0.271583 0.668594
O O1 0.897688 0.391587 0.653267
O O2 0.827226 0.290268 0.686134
O O3 0.000000 0.357170 0.750000
O O4 0.109383 0.314315 0.670669
O O5 0.786375 0.331593 0.576841
O O6 0.656048 0.437573 0.613797
O O7 0.894811 0.425834 0.555841
O O8 0.163416 0.875487 0.444573
O O9 0.410052 0.829269 0.482439
O O10 0.406152 0.896011 0.402284
O O11 0.307180 0.787304 0.390460
O O12 0.090478 0.508667 0.075638
O O13 0.072607 0.556519 0.978623
O O14 0.000000 0.750000 0.052960
O O15 0.250000 0.750000 0.000000
O O16 0.885619 0.282054 0.290538
#
# Coordination Sequence:
#
# PCOD9510082 Si02
#       8
#    16  16  16  16  16   4  16  16
#     4  11  23  45  64  92 124 176 219 266 327 406
#     4  12  23  39  63  92 126 173 226 262 328 404
#     4  12  23  39  59  94 127 175 212 265 331 386
#     4  11  21  42  62  90 133 176 220 266 323 402
#     4  12  24  36  51  86 133 170 204 254 317 393
#     4  12  24  42  64 100 128 162 224 276 322 390
#     4  11  23  38  64  96 131 168 223 276 322 387
#     4  11  24  40  64  91 129 164 217 266 324 395
#
# _framework density 22.281213999999999
#
# number of rings (size 3 to 8) (size 9 to 14) (size 15 to 20)
#    0.000    0.552    5.517    3.724    4.828    2.207 
#    0.000    0.000    0.000    0.000    8.966    0.000 
#    0.000    0.000    0.000    0.000    0.000    0.000 
#
# Total GULP energy -323134.264256 kJ/mol
# GULP energy per Si atom -5571.280418 kJ/mol
# Density = 2.223050 g / cm^3
# Si number density = 22.281214 Si / 1000 Ang^3
#
#
#
# Elastic Constant Matrix: (Units=GPa)
#
#
# Indices 1 2 3 4 5 6 
#
# 1 104.8600 21.7557 11.5551 0.0000 0.0000 0.0000
# 2 21.7557 75.7015 9.8952 0.0000 0.0000 0.0000
# 3 11.5551 9.8952 110.3315 0.0000 0.0000 0.0000
# 4 0.0000 0.0000 0.0000 7.6755 0.0000 0.0000
# 5 0.0000 0.0000 0.0000 0.0000 33.5577 0.0000
# 6 0.0000 0.0000 0.0000 0.0000 0.0000 26.6573
#
#
#
# Elastic Compliance Matrix: (Units=1/GPa)
#
#
# Indices 1 2 3 4 5 6 
#
# 1 0.010213 -0.002829 -0.000816 0.000000 0.000000 0.000000
# 2 -0.002829 0.014150 -0.000973 0.000000 0.000000 0.000000
# 3 -0.000816 -0.000973 0.009236 0.000000 0.000000 0.000000
# 4 0.000000 0.000000 0.000000 0.130285 0.000000 0.000000
# 5 0.000000 0.000000 0.000000 0.000000 0.029799 0.000000
# 6 0.000000 0.000000 0.000000 0.000000 0.000000 0.037513
#
#
# Mechanical properties :
#
#
# Convention : Reuss Voigt Hill
#
# Bulk Modulus (GPa) = 41.04279 41.92279 41.48279
# Shear Modulus (GPa) = 20.11638 30.09055 25.10347
#
# Velocity S-wave (km/s) = 3.00799 3.67889 3.36022
# Velocity P-wave (km/s) = 5.52488 6.07468 5.80630
#
# Compressibility (1/GPa) = 0.02436481
#
# Stress axis : x y z
#
# Youngs Moduli (GPa) = 97.91174 70.67228 108.26847
#
# Poissons Ratio (x) = 0.19990 0.08834
# Poissons Ratio (y) = 0.27694 0.10532
# Poissons Ratio (z) = 0.07989 0.06875
#
# Static dielectric constant tensor:
#      x y z
#    x 1.911770 0.000000 0.000000 
#    y 0.000000 2.173070 0.000000 
#    z 0.000000 0.000000 1.874680 
# 
# From -- ./inp_files/49630.got.cif
#   From: 2010.05.17/outbox.cif.g08.bks.cpg/sg68_25_cif.got.tgz:49630.got - 2010.06.03 18:57:09.
