data_PCOD9510195
_publ_section_title
;
Structure prediction by ZEFSAII (Michael W. Deem and Ramdas Pophale) SiO2 
 PCOD9510195
Probable space group: C C C A
;
_chemical_formula_sum "Si O2"
_cell_formula_units_Z 72
_cell_length_a 17.181813
_cell_length_b 15.217596
_cell_length_c 13.813007
_cell_angle_alpha 90.000000
_cell_angle_beta 90.000000
_cell_angle_gamma 90.000000
_cell_volume 3611.630152
_symmetry_space_group_name_H-M "C C C A"
_symmetry_group_IT_number 68
_space_group.IT_coordinate_system_code '2'
_symmetry_cell_setting 'orthorhombic'
loop_
_space_group_symop_operation_xyz
x,y,z
-x,1/2-y,z
x,1/2-y,1/2-z
-x,y,1/2-z
-x,-y,-z
x,1/2+y,-z
-x,1/2+y,1/2+z
x,-y,1/2+z
1/2+x,1/2+y,z
1/2-x,-y,z
1/2+x,-y,1/2-z
1/2-x,1/2+y,1/2-z
1/2-x,1/2-y,-z
1/2+x,y,-z
1/2-x,y,1/2+z
1/2+x,1/2-y,1/2+z
loop_
_atom_site_type_symbol
_atom_site_label
_atom_site_fract_x
_atom_site_fract_y
_atom_site_fract_z
Si Si1 0.500000 0.750000 0.250000
Si Si2 0.395006 0.628164 0.113142
Si Si3 0.272616 0.208942 0.354122
Si Si4 0.662322 0.963461 0.723689
Si Si5 0.390135 0.643185 0.895267
Si Si6 0.000000 0.750000 0.250000
O O1 0.447451 0.690311 0.179670
O O2 0.307667 0.668811 0.108663
O O3 0.388281 0.534471 0.166743
O O4 0.421717 0.622346 0.001653
O O5 0.252839 0.250000 0.250000
O O6 0.331432 0.128030 0.335035
O O7 0.318020 0.287926 0.405743
O O8 0.636377 0.941085 0.832793
O O9 0.750000 0.000000 0.728186
O O10 0.449332 0.690959 0.822503
#
# Coordination Sequence:
#
# PCOD9510195 Si02
#       6
#     4  16  16  16  16   4
#     4  12  26  44  56  90 142 166 194 252 310 388
#     4  11  23  41  63  93 126 166 207 248 319 367
#     4   9  17  40  68  91 121 158 208 266 298 357
#     4   9  20  39  64  96 125 148 209 272 299 353
#     4  11  22  41  68  90 121 169 209 253 312 364
#     4  12  22  40  64  90 128 156 218 248 290 388
#
# _framework density 19.935597000000001
#
# number of rings (size 3 to 8) (size 9 to 14) (size 15 to 20)
#    0.000    1.778    4.444    1.333    0.000    3.556 
#    4.000    2.222    0.000    0.000    0.000    0.000 
#    0.000    0.000    0.000    0.000    0.000    0.000 
#
# Total GULP energy -200833.103475 kJ/mol
# GULP energy per Si atom -5578.697319 kJ/mol
# Density = 1.989022 g / cm^3
# Si number density = 19.935597 Si / 1000 Ang^3
#
#
#
# Elastic Constant Matrix: (Units=GPa)
#
#
# Indices 1 2 3 4 5 6 
#
# 1 51.7697 24.2358 39.3633 0.0000 0.0000 0.0000
# 2 24.2358 102.0563 82.8730 0.0000 0.0000 0.0000
# 3 39.3633 82.8730 179.7470 0.0000 0.0000 0.0000
# 4 0.0000 0.0000 0.0000 13.0096 0.0000 0.0000
# 5 0.0000 0.0000 0.0000 0.0000 33.6748 0.0000
# 6 0.0000 0.0000 0.0000 0.0000 0.0000 30.3215
#
#
#
# Elastic Compliance Matrix: (Units=1/GPa)
#
#
# Indices 1 2 3 4 5 6 
#
# 1 0.023491 -0.002240 -0.004112 0.000000 0.000000 0.000000
# 2 -0.002240 0.015876 -0.006829 0.000000 0.000000 0.000000
# 3 -0.004112 -0.006829 0.009612 0.000000 0.000000 0.000000
# 4 0.000000 0.000000 0.000000 0.076866 0.000000 0.000000
# 5 0.000000 0.000000 0.000000 0.000000 0.029696 0.000000
# 6 0.000000 0.000000 0.000000 0.000000 0.000000 0.032980
#
#
# Mechanical properties :
#
#
# Convention : Reuss Voigt Hill
#
# Bulk Modulus (GPa) = 44.21199 69.61300 56.91250
# Shear Modulus (GPa) = 22.47976 27.87457 25.17717
#
# Velocity S-wave (km/s) = 3.36165 3.74335 3.55762
# Velocity P-wave (km/s) = 6.10681 7.32655 6.74431
#
# Compressibility (1/GPa) = 0.02261830
#
# Stress axis : x y z
#
# Youngs Moduli (GPa) = 42.56912 62.98863 104.03185
#
# Poissons Ratio (x) = 0.14107 0.42776
# Poissons Ratio (y) = 0.09534 0.71045
# Poissons Ratio (z) = 0.17504 0.43016
#
# Static dielectric constant tensor:
#      x y z
#    x 1.724340 0.000000 0.000000 
#    y 0.000000 1.734730 0.000000 
#    z 0.000000 0.000000 1.689290 
# 
# From -- ./inp_files/23386.got.cif
#   From: 2010.05.17/outbox.cif.g08.bks.cpg/sg68_12_cif.got.tgz:23386.got - 2010.06.03 18:57:09.
