data_PCOD9510929
_publ_section_title
;
Structure prediction by ZEFSAII (Michael W. Deem and Ramdas Pophale) SiO2 
 PCOD9510929
Probable space group: C C C A
;
_chemical_formula_sum "Si O2"
_cell_formula_units_Z 50
_cell_length_a 21.000000
_cell_length_b 9.000000
_cell_length_c 30.000000
_cell_angle_alpha 90.000000
_cell_angle_beta 90.000000
_cell_angle_gamma 90.000000
_cell_volume 5670.000000
_symmetry_space_group_name_H-M "C C C A"
_symmetry_group_IT_number 68
_space_group.IT_coordinate_system_code '2'
_symmetry_cell_setting 'orthorhombic'
loop_
_space_group_symop_operation_xyz
x,y,z
-x,1/2-y,z
x,1/2-y,1/2-z
-x,y,1/2-z
-x,-y,-z
x,1/2+y,-z
-x,1/2+y,1/2+z
x,-y,1/2+z
1/2+x,1/2+y,z
1/2-x,-y,z
1/2+x,-y,1/2-z
1/2-x,1/2+y,1/2-z
1/2-x,1/2-y,-z
1/2+x,y,-z
1/2-x,y,1/2+z
1/2+x,1/2-y,1/2+z
loop_
_atom_site_type_symbol
_atom_site_label
_atom_site_fract_x
_atom_site_fract_y
_atom_site_fract_z
Si Si1 0.435401 0.401649 0.663859
Si Si2 0.141976 0.085629 0.481764
Si Si3 0.685284 0.907183 0.915134
Si Si4 0.060441 0.082599 0.115903
Si Si5 0.945636 0.149383 0.483046
Si Si6 0.818475 0.943678 0.112005
Si Si7 0.500000 0.750000 0.250000
O O1 0.425413 0.244471 0.637507
O O2 0.501106 0.474787 0.645313
O O3 0.375543 0.502952 0.646083
O O4 0.455083 0.348309 0.715140
O O5 0.176086 0.085034 0.530433
O O6 0.117665 0.252237 0.475179
O O7 0.078615 0.986200 0.488163
O O8 0.173465 0.024012 0.436760
O O9 0.684740 0.734240 0.898907
O O10 0.750000 0.000000 0.905002
O O11 0.624304 0.986499 0.891516
O O12 0.033632 0.101694 0.065986
O O13 0.000000 0.250000 0.504810
O O14 0.750000 0.000000 0.129734
#
# Coordination Sequence:
#
# PCOD9510929 Si02
#       7
#    16  16  16  16  16  16   4
#     4  10  19  40  67  95 115 149 187 237 312 378
#     4  11  22  33  49  77 118 172 218 253 287 333
#     4  11  24  37  52  82 124 176 220 252 290 330
#     4   9  18  35  59  80 117 153 192 251 293 353
#     4  11  18  32  47  75 115 160 205 255 293 329
#     4  12  24  37  59  86 122 165 210 256 292 350
#     4   8  20  40  76  98 120 136 176 236 316 388
#
# _framework density 8.8183419999999995
#
# number of rings (size 3 to 8) (size 9 to 14) (size 15 to 20)
#    0.000    1.600    4.800    1.920    2.240    3.200 
#    0.000    0.000    0.000   15.360    0.000    0.000 
#    0.000    0.000    0.000    0.000    0.000    0.000 
#
# Total GULP energy -278543.136686 kJ/mol
# GULP energy per Si atom -5570.862734 kJ/mol
# Density = 0.879827 g / cm^3
# Si number density = 8.818342 Si / 1000 Ang^3
#
#
#
# Elastic Constant Matrix: (Units=GPa)
#
#
# Indices 1 2 3 4 5 6 
#
# 1 131.3202 49.9999 44.2469 0.0000 0.0000 0.0000
# 2 49.9999 102.3983 22.0080 0.0000 0.0000 0.0000
# 3 44.2469 22.0080 93.7639 0.0000 0.0000 0.0000
# 4 0.0000 0.0000 0.0000 20.2918 0.0000 0.0000
# 5 0.0000 0.0000 0.0000 0.0000 24.1137 0.0000
# 6 0.0000 0.0000 0.0000 0.0000 0.0000 34.0242
#
#
#
# Elastic Compliance Matrix: (Units=1/GPa)
#
#
# Indices 1 2 3 4 5 6 
#
# 1 0.010604 -0.004320 -0.003990 0.000000 0.000000 0.000000
# 2 -0.004320 0.012045 -0.000788 0.000000 0.000000 0.000000
# 3 -0.003990 -0.000788 0.012733 0.000000 0.000000 0.000000
# 4 0.000000 0.000000 0.000000 0.049281 0.000000 0.000000
# 5 0.000000 0.000000 0.000000 0.000000 0.041470 0.000000
# 6 0.000000 0.000000 0.000000 0.000000 0.000000 0.029391
#
#
# Mechanical properties :
#
#
# Convention : Reuss Voigt Hill
#
# Bulk Modulus (GPa) = 58.19185 62.22135 60.20660
# Shear Modulus (GPa) = 27.86286 29.76776 28.81531
#
# Velocity S-wave (km/s) = 3.97901 4.11278 4.04645
# Velocity P-wave (km/s) = 7.36047 7.60982 7.48618
#
# Compressibility (1/GPa) = 0.01718454
#
# Stress axis : x y z
#
# Youngs Moduli (GPa) = 94.30050 83.02308 78.53583
#
# Poissons Ratio (x) = 0.35870 0.31337
# Poissons Ratio (y) = 0.40742 0.06191
# Poissons Ratio (z) = 0.37627 0.06545
#
# Static dielectric constant tensor:
#      x y z
#    x 1.686170 0.000000 0.000000 
#    y 0.000000 1.642670 0.000000 
#    z 0.000000 0.000000 1.581340 
# 
# From -- ./inp_files/55802.got.cif
#   From: 2010.05.17/outbox.ucp.g08.bks.cvg/sg68_28_cif.got.tgz:55802.got - 2010.06.11 16:49:25.
