data_PCOD9510109
_publ_section_title
;
Structure prediction by ZEFSAII (Michael W. Deem and Ramdas Pophale) SiO2 
 PCOD9510109
Probable space group: C C C A
;
_chemical_formula_sum "Si O2"
_cell_formula_units_Z 96
_cell_length_a 15.418846
_cell_length_b 12.873152
_cell_length_c 21.202923
_cell_angle_alpha 90.000000
_cell_angle_beta 90.000000
_cell_angle_gamma 90.000000
_cell_volume 4208.550126
_symmetry_space_group_name_H-M "C C C A"
_symmetry_group_IT_number 68
_space_group.IT_coordinate_system_code '2'
_symmetry_cell_setting 'orthorhombic'
loop_
_space_group_symop_operation_xyz
x,y,z
-x,1/2-y,z
x,1/2-y,1/2-z
-x,y,1/2-z
-x,-y,-z
x,1/2+y,-z
-x,1/2+y,1/2+z
x,-y,1/2+z
1/2+x,1/2+y,z
1/2-x,-y,z
1/2+x,-y,1/2-z
1/2-x,1/2+y,1/2-z
1/2-x,1/2-y,-z
1/2+x,y,-z
1/2-x,y,1/2+z
1/2+x,1/2-y,1/2+z
loop_
_atom_site_type_symbol
_atom_site_label
_atom_site_fract_x
_atom_site_fract_y
_atom_site_fract_z
Si Si1 0.315284 0.401260 0.628975
Si Si2 0.940100 0.845858 0.138934
Si Si3 0.505478 0.042154 0.569872
Si Si4 0.151681 0.977297 0.113317
Si Si5 0.698879 0.254472 0.065674
Si Si6 0.396877 0.008729 0.256941
O O1 0.250000 0.500000 0.613099
O O2 0.403937 0.403597 0.586523
O O3 0.266404 0.293666 0.616576
O O4 0.348612 0.423770 0.699749
O O5 0.995388 0.944243 0.117697
O O6 0.881286 0.823870 0.077967
O O7 0.890566 0.886570 0.200526
O O8 0.000000 0.750000 0.155101
O O9 0.407366 0.073880 0.586798
O O10 0.500000 0.000000 0.500000
O O11 0.151317 0.862456 0.081180
O O12 0.143186 0.975099 0.188919
O O13 0.250000 0.000000 0.096874
O O14 0.750000 0.250000 0.000000
O O15 0.500000 0.984905 0.250000
#
# Coordination Sequence:
#
# PCOD9510109 Si02
#       6
#    16  16  16  16  16  16
#     4  11  22  43  69 101 137 181 225 294 361 410
#     4  11  22  42  67 101 129 171 229 295 338 394
#     4  11  23  41  67  96 138 179 225 281 348 414
#     4  12  27  45  67 102 137 184 233 295 348 415
#     4  12  26  43  67 104 139 180 234 286 353 429
#     4  11  21  45  71  98 137 175 237 292 354 419
#
# _framework density 22.810706
#
# number of rings (size 3 to 8) (size 9 to 14) (size 15 to 20)
#    0.000    0.667    8.333    1.500    2.333    3.667 
#    0.000    0.833    0.000    1.000    0.000    0.000 
#    0.000    0.000    0.000    0.000    0.000    0.000 
#
# Total GULP energy -267289.760237 kJ/mol
# GULP energy per Si atom -5568.536672 kJ/mol
# Density = 2.275879 g / cm^3
# Si number density = 22.810706 Si / 1000 Ang^3
#
#
#
# Elastic Constant Matrix: (Units=GPa)
#
#
# Indices 1 2 3 4 5 6 
#
# 1 105.2695 -0.8962 13.6321 0.0000 0.0000 0.0000
# 2 -0.8962 17.8874 -8.5201 0.0000 0.0000 0.0000
# 3 13.6321 -8.5201 105.8187 0.0000 0.0000 0.0000
# 4 0.0000 0.0000 0.0000 17.0536 0.0000 0.0000
# 5 0.0000 0.0000 0.0000 0.0000 38.8290 0.0000
# 6 0.0000 0.0000 0.0000 0.0000 0.0000 34.9479
#
#
#
# Elastic Compliance Matrix: (Units=1/GPa)
#
#
# Indices 1 2 3 4 5 6 
#
# 1 0.009661 -0.000113 -0.001254 0.000000 0.000000 0.000000
# 2 -0.000113 0.058136 0.004695 0.000000 0.000000 0.000000
# 3 -0.001254 0.004695 0.009990 0.000000 0.000000 0.000000
# 4 0.000000 0.000000 0.000000 0.058639 0.000000 0.000000
# 5 0.000000 0.000000 0.000000 0.000000 0.025754 0.000000
# 6 0.000000 0.000000 0.000000 0.000000 0.000000 0.028614
#
#
# Mechanical properties :
#
#
# Convention : Reuss Voigt Hill
#
# Bulk Modulus (GPa) = 11.84217 26.37856 19.11037
# Shear Modulus (GPa) = 23.55337 33.15009 28.35173
#
# Velocity S-wave (km/s) = 3.21683 3.81631 3.52932
# Velocity P-wave (km/s) = 4.35891 5.56850 5.00041
#
# Compressibility (1/GPa) = 0.08444396
#
# Stress axis : x y z
#
# Youngs Moduli (GPa) = 103.51102 17.20103 100.10324
#
# Poissons Ratio (x) = 0.00195 0.12550
# Poissons Ratio (y) = 0.01171 -0.47003
# Poissons Ratio (z) = 0.12977 -0.08077
#
# Static dielectric constant tensor:
#      x y z
#    x 2.366170 0.000000 0.000000 
#    y 0.000000 1.503470 0.000000 
#    z 0.000000 0.000000 1.835810 
# 
# From -- ./inp_files/38535.got.cif
#   From: 2010.05.17/outbox.cif.g08.bks.cpg/sg68_20_cif.got.tgz:38535.got - 2010.06.03 18:57:09.
