data_PCOD9510172
_publ_section_title
;
Structure prediction by ZEFSAII (Michael W. Deem and Ramdas Pophale) SiO2 
 PCOD9510172
Probable space group: C C C A
;
_chemical_formula_sum "Si O2"
_cell_formula_units_Z 112
_cell_length_a 14.303303
_cell_length_b 12.382625
_cell_length_c 25.020050
_cell_angle_alpha 90.000000
_cell_angle_beta 90.000000
_cell_angle_gamma 90.000000
_cell_volume 4431.362037
_symmetry_space_group_name_H-M "C C C A"
_symmetry_group_IT_number 68
_space_group.IT_coordinate_system_code '2'
_symmetry_cell_setting 'orthorhombic'
loop_
_space_group_symop_operation_xyz
x,y,z
-x,1/2-y,z
x,1/2-y,1/2-z
-x,y,1/2-z
-x,-y,-z
x,1/2+y,-z
-x,1/2+y,1/2+z
x,-y,1/2+z
1/2+x,1/2+y,z
1/2-x,-y,z
1/2+x,-y,1/2-z
1/2-x,1/2+y,1/2-z
1/2-x,1/2-y,-z
1/2+x,y,-z
1/2-x,y,1/2+z
1/2+x,1/2-y,1/2+z
loop_
_atom_site_type_symbol
_atom_site_label
_atom_site_fract_x
_atom_site_fract_y
_atom_site_fract_z
Si Si1 0.139568 0.025947 0.574011
Si Si2 0.105489 0.201704 0.802192
Si Si3 0.851249 0.178759 0.112782
Si Si4 0.878474 0.055223 0.210230
Si Si5 0.415492 0.393862 0.826930
Si Si6 0.134885 0.512710 0.042125
Si Si7 0.838729 0.737383 0.416868
O O1 0.106552 0.972409 0.519193
O O2 0.125333 0.151754 0.560706
O O3 0.250000 0.000000 0.579613
O O4 0.096837 0.988908 0.629901
O O5 0.152040 0.250000 0.750000
O O6 0.155185 0.247730 0.853551
O O7 0.000000 0.250000 0.804906
O O8 0.107932 0.072756 0.796164
O O9 0.815009 0.105892 0.163316
O O10 0.893121 0.285341 0.140210
O O11 0.903099 0.089547 0.075798
O O12 0.771149 0.223286 0.073193
O O13 0.857820 0.086817 0.271689
O O14 0.978565 0.105414 0.193715
O O15 0.250000 0.500000 0.043598
O O16 0.111488 0.625817 0.069824
#
# Coordination Sequence:
#
# PCOD9510172 Si02
#       7
#    16  16  16  16  16  16  16
#     4  11  22  40  66  98 127 166 218 270 315 379
#     4  11  22  40  65  89 127 173 212 257 322 391
#     4  11  22  40  62  96 129 169 213 264 322 382
#     4  11  23  42  63  92 131 175 216 253 329 390
#     4  11  23  41  65  95 130 171 215 263 319 386
#     4   9  22  38  64  91 127 173 205 263 329 381
#     4  11  22  41  64  97 130 163 217 268 325 377
#
# _framework density 25.274395999999999
#
# number of rings (size 3 to 8) (size 9 to 14) (size 15 to 20)
#    0.000    1.286    2.857    4.286    2.000    4.000 
#    2.571    0.714    0.000    0.000    0.000    0.000 
#    0.000    0.000    0.000    0.000    0.000    0.000 
#
# Total GULP energy -313105.739449 kJ/mol
# GULP energy per Si atom -5591.173919 kJ/mol
# Density = 2.521687 g / cm^3
# Si number density = 25.274396 Si / 1000 Ang^3
#
#
#
# Elastic Constant Matrix: (Units=GPa)
#
#
# Indices 1 2 3 4 5 6 
#
# 1 51.9952 7.1101 -0.4278 0.0000 0.0000 0.0000
# 2 7.1101 149.9584 6.7722 0.0000 0.0000 0.0000
# 3 -0.4278 6.7722 124.8327 0.0000 0.0000 0.0000
# 4 0.0000 0.0000 0.0000 26.5314 0.0000 0.0000
# 5 0.0000 0.0000 0.0000 0.0000 19.2786 0.0000
# 6 0.0000 0.0000 0.0000 0.0000 0.0000 22.5207
#
#
#
# Elastic Compliance Matrix: (Units=1/GPa)
#
#
# Indices 1 2 3 4 5 6 
#
# 1 0.019360 -0.000923 0.000116 0.000000 0.000000 0.000000
# 2 -0.000923 0.006729 -0.000368 0.000000 0.000000 0.000000
# 3 0.000116 -0.000368 0.008031 0.000000 0.000000 0.000000
# 4 0.000000 0.000000 0.000000 0.037691 0.000000 0.000000
# 5 0.000000 0.000000 0.000000 0.000000 0.051871 0.000000
# 6 0.000000 0.000000 0.000000 0.000000 0.000000 0.044404
#
#
# Mechanical properties :
#
#
# Convention : Reuss Voigt Hill
#
# Bulk Modulus (GPa) = 31.47640 39.29949 35.38794
# Shear Modulus (GPa) = 27.62042 34.55492 31.08767
#
# Velocity S-wave (km/s) = 3.30937 3.70157 3.51095
# Velocity P-wave (km/s) = 5.20418 5.81822 5.51974
#
# Compressibility (1/GPa) = 0.03176984
#
# Stress axis : x y z
#
# Youngs Moduli (GPa) = 51.65356 148.61234 124.51605
#
# Poissons Ratio (x) = 0.13720 -0.01450
# Poissons Ratio (y) = 0.04769 0.04585
# Poissons Ratio (z) = -0.00601 0.05472
#
# Static dielectric constant tensor:
#      x y z
#    x 2.273800 0.000000 0.000000 
#    y 0.000000 1.999450 0.000000 
#    z 0.000000 0.000000 1.973030 
# 
# From -- ./inp_files/46669.got.cif
#   From: 2010.05.17/outbox.cif.g08.bks.cpg/sg68_24_cif.got.tgz:46669.got - 2010.06.03 18:57:09.
