data_PCOD9510763
_publ_section_title
;
Structure prediction by ZEFSAII (Michael W. Deem and Ramdas Pophale) SiO2 
 PCOD9510763
Probable space group: C C C A
;
_chemical_formula_sum "Si O2"
_cell_formula_units_Z 88
_cell_length_a 14.757124
_cell_length_b 24.271148
_cell_length_c 11.196270
_cell_angle_alpha 90.000000
_cell_angle_beta 90.000000
_cell_angle_gamma 90.000000
_cell_volume 4010.194233
_symmetry_space_group_name_H-M "C C C A"
_symmetry_group_IT_number 68
_space_group.IT_coordinate_system_code '2'
_symmetry_cell_setting 'orthorhombic'
loop_
_space_group_symop_operation_xyz
x,y,z
-x,1/2-y,z
x,1/2-y,1/2-z
-x,y,1/2-z
-x,-y,-z
x,1/2+y,-z
-x,1/2+y,1/2+z
x,-y,1/2+z
1/2+x,1/2+y,z
1/2-x,-y,z
1/2+x,-y,1/2-z
1/2-x,1/2+y,1/2-z
1/2-x,1/2-y,-z
1/2+x,y,-z
1/2-x,y,1/2+z
1/2+x,1/2-y,1/2+z
loop_
_atom_site_type_symbol
_atom_site_label
_atom_site_fract_x
_atom_site_fract_y
_atom_site_fract_z
Si Si1 0.786585 0.336681 0.834433
Si Si2 0.778760 0.936669 0.029672
Si Si3 0.855061 0.869619 0.397030
Si Si4 0.146962 0.250000 0.250000
Si Si5 0.898351 0.249507 0.985399
Si Si6 0.985114 0.046802 0.602842
O O1 0.738398 0.392349 0.878172
O O2 0.862889 0.353158 0.740395
O O3 0.713182 0.301430 0.765346
O O4 0.834811 0.296796 0.930064
O O5 0.883960 0.934125 0.066154
O O6 0.750000 0.000000 0.036101
O O7 0.735192 0.907828 0.912699
O O8 0.855878 0.811030 0.463786
O O9 0.940713 0.906968 0.427368
O O10 0.095963 0.258023 0.373207
O O11 0.000000 0.250000 0.933635
O O12 0.000000 0.033865 0.750000
O O13 0.000000 0.000000 0.500000
#
# Coordination Sequence:
#
# PCOD9510763 Si02
#       6
#    16  16  16   8  16  16
#     4  12  24  45  76 104 146 197 250 317 379 465
#     4  12  26  47  74 110 151 201 254 315 389 462
#     4  12  25  46  77 110 147 203 256 315 391 460
#     4  12  23  46  71 104 150 198 250 314 389 469
#     4  12  26  44  71 111 150 193 254 320 394 456
#     4  12  27  51  78 113 155 202 266 323 384 474
#
# _framework density 21.944075000000002
#
# number of rings (size 3 to 8) (size 9 to 14) (size 15 to 20)
#    0.000    0.000    7.273    3.000    0.000    2.909 
#    0.000    1.818    0.000    0.000    0.000    0.000 
#    0.000    0.000    0.000    0.000    0.000    0.000 
#
# Total GULP energy -245230.606221 kJ/mol
# GULP energy per Si atom -5573.422869 kJ/mol
# Density = 2.189413 g / cm^3
# Si number density = 21.944075 Si / 1000 Ang^3
#
#
#
# Elastic Constant Matrix: (Units=GPa)
#
#
# Indices 1 2 3 4 5 6 
#
# 1 118.4329 43.4508 36.3726 0.0000 0.0000 0.0000
# 2 43.4508 166.1433 70.0713 0.0000 0.0000 0.0000
# 3 36.3726 70.0713 124.7367 0.0000 0.0000 0.0000
# 4 0.0000 0.0000 0.0000 29.4287 0.0000 0.0000
# 5 0.0000 0.0000 0.0000 0.0000 32.5117 0.0000
# 6 0.0000 0.0000 0.0000 0.0000 0.0000 13.6755
#
#
#
# Elastic Compliance Matrix: (Units=1/GPa)
#
#
# Indices 1 2 3 4 5 6 
#
# 1 0.009648 -0.001752 -0.001829 0.000000 0.000000 0.000000
# 2 -0.001752 0.008206 -0.004099 0.000000 0.000000 0.000000
# 3 -0.001829 -0.004099 0.010853 0.000000 0.000000 0.000000
# 4 0.000000 0.000000 0.000000 0.033980 0.000000 0.000000
# 5 0.000000 0.000000 0.000000 0.000000 0.030758 0.000000
# 6 0.000000 0.000000 0.000000 0.000000 0.000000 0.073123
#
#
# Mechanical properties :
#
#
# Convention : Reuss Voigt Hill
#
# Bulk Modulus (GPa) = 74.92328 78.78911 76.85620
# Shear Modulus (GPa) = 26.82735 32.41774 29.62255
#
# Velocity S-wave (km/s) = 3.50027 3.84772 3.67810
# Velocity P-wave (km/s) = 7.11005 7.46474 7.28955
#
# Compressibility (1/GPa) = 0.01334699
#
# Stress axis : x y z
#
# Youngs Moduli (GPa) = 103.64760 121.86663 92.14203
#
# Poissons Ratio (x) = 0.21348 0.16856
# Poissons Ratio (y) = 0.18156 0.37767
# Poissons Ratio (z) = 0.18960 0.49951
#
# Static dielectric constant tensor:
#      x y z
#    x 1.956870 0.000000 0.000000 
#    y 0.000000 1.839440 0.000000 
#    z 0.000000 0.000000 1.963980 
# 
# From -- ./inp_files/13327.got.cif
#   From: 2010.05.17/outbox.cif.g08.bks.cpg/sg68_7_cif.got.tgz:13327.got - 2010.06.03 18:57:09.
