data_PCOD9510743
_publ_section_title
;
Structure prediction by ZEFSAII (Michael W. Deem and Ramdas Pophale) SiO2 
 PCOD9510743
Probable space group: C C C A
;
_chemical_formula_sum "Si O2"
_cell_formula_units_Z 52
_cell_length_a 7.050730
_cell_length_b 15.475349
_cell_length_c 17.955589
_cell_angle_alpha 90.000000
_cell_angle_beta 90.000000
_cell_angle_gamma 90.000000
_cell_volume 1959.179339
_symmetry_space_group_name_H-M "C C C A"
_symmetry_group_IT_number 68
_space_group.IT_coordinate_system_code '2'
_symmetry_cell_setting 'orthorhombic'
loop_
_space_group_symop_operation_xyz
x,y,z
-x,1/2-y,z
x,1/2-y,1/2-z
-x,y,1/2-z
-x,-y,-z
x,1/2+y,-z
-x,1/2+y,1/2+z
x,-y,1/2+z
1/2+x,1/2+y,z
1/2-x,-y,z
1/2+x,-y,1/2-z
1/2-x,1/2+y,1/2-z
1/2-x,1/2-y,-z
1/2+x,y,-z
1/2-x,y,1/2+z
1/2+x,1/2-y,1/2+z
loop_
_atom_site_type_symbol
_atom_site_label
_atom_site_fract_x
_atom_site_fract_y
_atom_site_fract_z
Si Si1 0.444117 0.152928 0.414986
Si Si2 0.500000 0.250000 0.750000
Si Si3 0.759605 0.091308 0.312995
Si Si4 0.086577 0.073647 0.431564
O O1 0.500000 0.250000 0.431568
O O2 0.554740 0.118140 0.343605
O O3 0.218383 0.152774 0.405413
O O4 0.518714 0.096196 0.485364
O O5 0.645943 0.321633 0.716729
O O6 0.903410 0.065784 0.380673
O O7 0.750000 0.000000 0.267830
O O8 0.250000 0.000000 0.425443
#
# Coordination Sequence:
#
# PCOD9510743 Si02
#       4
#    16   4  16  16
#     4  12  24  40  72 118 158 191 237 306 391 467
#     4  12  32  56  78 102 148 214 276 318 370 446
#     4  12  27  53  78 108 152 199 258 322 374 453
#     4  12  23  41  74 114 153 192 239 301 394 469
#
# _framework density 26.541725
#
# number of rings (size 3 to 8) (size 9 to 14) (size 15 to 20)
#    0.000    0.000    6.154    4.615    2.154    1.231 
#    5.538    1.538    0.000    0.000    0.000    0.000 
#    0.000    0.000    0.000    0.000    0.000    0.000 
#
# Total GULP energy -145462.686645 kJ/mol
# GULP energy per Si atom -5594.718717 kJ/mol
# Density = 2.648132 g / cm^3
# Si number density = 26.541725 Si / 1000 Ang^3
#
#
#
# Elastic Constant Matrix: (Units=GPa)
#
#
# Indices 1 2 3 4 5 6 
#
# 1 158.4450 5.4697 14.1423 0.0000 0.0000 0.0000
# 2 5.4697 168.7272 40.8833 0.0000 0.0000 0.0000
# 3 14.1423 40.8833 50.9443 0.0000 0.0000 0.0000
# 4 0.0000 0.0000 0.0000 28.8508 0.0000 0.0000
# 5 0.0000 0.0000 0.0000 0.0000 24.8321 0.0000
# 6 0.0000 0.0000 0.0000 0.0000 0.0000 55.6197
#
#
#
# Elastic Compliance Matrix: (Units=1/GPa)
#
#
# Indices 1 2 3 4 5 6 
#
# 1 0.006482 0.000280 -0.002025 0.000000 0.000000 0.000000
# 2 0.000280 0.007370 -0.005992 0.000000 0.000000 0.000000
# 3 -0.002025 -0.005992 0.025000 0.000000 0.000000 0.000000
# 4 0.000000 0.000000 0.000000 0.034661 0.000000 0.000000
# 5 0.000000 0.000000 0.000000 0.000000 0.040271 0.000000
# 6 0.000000 0.000000 0.000000 0.000000 0.000000 0.017979
#
#
# Mechanical properties :
#
#
# Convention : Reuss Voigt Hill
#
# Bulk Modulus (GPa) = 42.77236 55.45635 49.11436
# Shear Modulus (GPa) = 32.25224 43.03526 37.64375
#
# Velocity S-wave (km/s) = 3.48969 4.03105 3.77010
# Velocity P-wave (km/s) = 5.69099 6.52727 6.12342
#
# Compressibility (1/GPa) = 0.02337958
#
# Stress axis : x y z
#
# Youngs Moduli (GPa) = 154.26474 135.69417 40.00017
#
# Poissons Ratio (x) = -0.03805 0.08098
# Poissons Ratio (y) = -0.04326 0.23968
# Poissons Ratio (z) = 0.31232 0.81307
#
# Static dielectric constant tensor:
#      x y z
#    x 2.047220 0.000000 0.000000 
#    y 0.000000 2.265100 0.000000 
#    z 0.000000 0.000000 2.120440 
# 
# From -- ./inp_files/35500.got.cif
#   From: 2010.05.17/outbox.cif.g08.bks.cpg/sg68_18_cif.got.tgz:35500.got - 2010.06.03 18:57:09.
