data_PCOD9510488
_publ_section_title
;
Structure prediction by ZEFSAII (Michael W. Deem and Ramdas Pophale) SiO2 
 PCOD9510488
Probable space group: C C C A
;
_chemical_formula_sum "Si O2"
_cell_formula_units_Z 88
_cell_length_a 14.473905
_cell_length_b 11.696987
_cell_length_c 26.569152
_cell_angle_alpha 90.000000
_cell_angle_beta 90.000000
_cell_angle_gamma 90.000000
_cell_volume 4498.186092
_symmetry_space_group_name_H-M "C C C A"
_symmetry_group_IT_number 68
_space_group.IT_coordinate_system_code '2'
_symmetry_cell_setting 'orthorhombic'
loop_
_space_group_symop_operation_xyz
x,y,z
-x,1/2-y,z
x,1/2-y,1/2-z
-x,y,1/2-z
-x,-y,-z
x,1/2+y,-z
-x,1/2+y,1/2+z
x,-y,1/2+z
1/2+x,1/2+y,z
1/2-x,-y,z
1/2+x,-y,1/2-z
1/2-x,1/2+y,1/2-z
1/2-x,1/2-y,-z
1/2+x,y,-z
1/2-x,y,1/2+z
1/2+x,1/2-y,1/2+z
loop_
_atom_site_type_symbol
_atom_site_label
_atom_site_fract_x
_atom_site_fract_y
_atom_site_fract_z
Si Si1 0.750000 0.000000 0.034074
Si Si2 0.323371 0.601881 0.878559
Si Si3 0.500000 0.250000 0.597608
Si Si4 0.196497 0.675517 0.619712
Si Si5 0.250000 0.000000 0.795089
Si Si6 0.582358 0.037909 0.964165
Si Si7 0.395463 0.374955 0.268256
O O1 0.704880 0.905612 0.070674
O O2 0.827233 0.943529 0.998513
O O3 0.250000 0.500000 0.870372
O O4 0.262116 0.714720 0.888167
O O5 0.387752 0.559968 0.924324
O O6 0.382638 0.617764 0.828038
O O7 0.588813 0.204657 0.627574
O O8 0.545696 0.350621 0.564529
O O9 0.231550 0.605561 0.667764
O O10 0.335002 0.970020 0.759321
O O11 0.500000 0.000000 0.000000
O O12 0.362229 0.250000 0.250000
O O13 0.500000 0.385982 0.250000
#
# Coordination Sequence:
#
# PCOD9510488 Si02
#       7
#     8  16   8  16   8  16  16
#     4  11  24  45  64  96 138 185 224 285 344 402
#     4  12  24  44  70  96 136 182 225 281 350 410
#     4  12  24  42  64 101 138 170 235 280 334 408
#     4  11  25  42  69  98 139 179 228 286 342 410
#     4  11  24  45  70 104 138 173 226 289 346 408
#     4  12  26  42  66 100 136 182 230 280 343 408
#     4  11  25  45  71  99 134 176 225 279 344 416
#
# _framework density 19.563441999999998
#
# number of rings (size 3 to 8) (size 9 to 14) (size 15 to 20)
#    0.000    0.545    7.273    0.000    5.091    1.455 
#    0.000    0.000    0.000    1.091    0.000    0.000 
#    0.000    0.000    0.000    0.000    0.000    0.000 
#
# Total GULP energy -245939.372665 kJ/mol
# GULP energy per Si atom -5589.531197 kJ/mol
# Density = 1.951891 g / cm^3
# Si number density = 19.563442 Si / 1000 Ang^3
#
#
#
# Elastic Constant Matrix: (Units=GPa)
#
#
# Indices 1 2 3 4 5 6 
#
# 1 117.7369 31.2098 42.4351 0.0000 0.0000 0.0000
# 2 31.2098 95.2498 21.7639 0.0000 0.0000 0.0000
# 3 42.4351 21.7639 106.1704 0.0000 0.0000 0.0000
# 4 0.0000 0.0000 0.0000 -18.0709 0.0000 0.0000
# 5 0.0000 0.0000 0.0000 0.0000 26.1427 0.0000
# 6 0.0000 0.0000 0.0000 0.0000 0.0000 38.7294
#
#
#
# Elastic Compliance Matrix: (Units=1/GPa)
#
#
# Indices 1 2 3 4 5 6 
#
# 1 0.010505 -0.002605 -0.003665 0.000000 0.000000 0.000000
# 2 -0.002605 0.011660 -0.001349 0.000000 0.000000 0.000000
# 3 -0.003665 -0.001349 0.011160 0.000000 0.000000 0.000000
# 4 0.000000 0.000000 0.000000 -0.055338 0.000000 0.000000
# 5 0.000000 0.000000 0.000000 0.000000 0.038252 0.000000
# 6 0.000000 0.000000 0.000000 0.000000 0.000000 0.025820
#
#
# Mechanical properties :
#
#
# Convention : Reuss Voigt Hill
#
# Bulk Modulus (GPa) = 55.28472 56.66385 55.97429
# Shear Modulus (GPa) = 78.95621 24.27679 51.61650
#
# Velocity S-wave (km/s) = 6.35977 3.52650 5.14212
# Velocity P-wave (km/s) = 9.06915 6.75342 7.99556
#
# Compressibility (1/GPa) = 0.01808818
#
# Stress axis : x y z
#
# Youngs Moduli (GPa) = 95.19441 85.75997 89.60450
#
# Poissons Ratio (x) = 0.22338 0.32838
# Poissons Ratio (y) = 0.24795 0.12090
# Poissons Ratio (z) = 0.34886 0.11571
#
# Static dielectric constant tensor:
#      x y z
#    x 1.661280 0.000000 0.000000 
#    y 0.000000 1.701040 0.000000 
#    z 0.000000 0.000000 1.664910 
# 
# From -- ./inp_files/44286.got.cif
#   From: 2010.05.17/outbox.cif.g08.bks.cpg/sg68_23_cif.got.tgz:44286.got - 2010.06.03 18:57:09.
