data_PCOD9510240
_publ_section_title
;
Structure prediction by ZEFSAII (Michael W. Deem and Ramdas Pophale) SiO2 
 PCOD9510240
Probable space group: C C C A
;
_chemical_formula_sum "Si O2"
_cell_formula_units_Z 112
_cell_length_a 29.000837
_cell_length_b 10.817545
_cell_length_c 15.154360
_cell_angle_alpha 90.000000
_cell_angle_beta 90.000000
_cell_angle_gamma 90.000000
_cell_volume 4754.193378
_symmetry_space_group_name_H-M "C C C A"
_symmetry_group_IT_number 68
_space_group.IT_coordinate_system_code '2'
_symmetry_cell_setting 'orthorhombic'
loop_
_space_group_symop_operation_xyz
x,y,z
-x,1/2-y,z
x,1/2-y,1/2-z
-x,y,1/2-z
-x,-y,-z
x,1/2+y,-z
-x,1/2+y,1/2+z
x,-y,1/2+z
1/2+x,1/2+y,z
1/2-x,-y,z
1/2+x,-y,1/2-z
1/2-x,1/2+y,1/2-z
1/2-x,1/2-y,-z
1/2+x,y,-z
1/2-x,y,1/2+z
1/2+x,1/2-y,1/2+z
loop_
_atom_site_type_symbol
_atom_site_label
_atom_site_fract_x
_atom_site_fract_y
_atom_site_fract_z
Si Si1 0.606404 0.394846 0.243252
Si Si2 0.649609 0.275207 0.850967
Si Si3 0.426678 0.539591 0.947578
Si Si4 0.302044 0.751106 0.971896
Si Si5 0.713309 0.614597 0.702301
Si Si6 0.640966 0.527373 0.907246
Si Si7 0.450762 0.235155 0.571808
O O1 0.597381 0.250000 0.250000
O O2 0.581434 0.445113 0.156793
O O3 0.661330 0.415985 0.233831
O O4 0.598052 0.452006 0.339950
O O5 0.659413 0.250000 0.750000
O O6 0.668093 0.412112 0.870002
O O7 0.594751 0.257983 0.868955
O O8 0.672745 0.213844 0.935257
O O9 0.449966 0.406431 0.961651
O O10 0.378947 0.521178 0.000508
O O11 0.447234 0.663395 0.992549
O O12 0.298163 0.639014 0.901277
O O13 0.327831 0.853757 0.913728
O O14 0.250000 0.750000 0.000000
O O15 0.726578 0.750000 0.750000
O O16 0.750000 0.500000 0.713337
O O17 0.500000 0.250000 0.618037
#
# Coordination Sequence:
#
# PCOD9510240 Si02
#       7
#    16  16  16  16  16  16  16
#     4  11  22  44  72  98 142 196 245 297 374 453
#     4  11  26  48  73 106 149 197 250 312 379 455
#     4  11  23  43  75 109 153 197 245 307 377 460
#     4  12  27  45  70 104 145 195 248 307 376 449
#     4  11  25  46  71 104 144 195 251 319 379 444
#     4  11  23  42  71 102 141 195 247 301 373 443
#     4  11  23  43  76 114 153 199 251 309 384 455
#
# _framework density 23.558150999999999
#
# number of rings (size 3 to 8) (size 9 to 14) (size 15 to 20)
#    0.000    0.857    4.286    3.857    4.000    2.000 
#    0.000    1.429    0.000    9.000    0.000    0.000 
#    0.000    0.000    0.000    0.000    0.000    0.000 
#
# Total GULP energy -311827.956788 kJ/mol
# GULP energy per Si atom -5568.356371 kJ/mol
# Density = 2.350453 g / cm^3
# Si number density = 23.558151 Si / 1000 Ang^3
#
#
#
# Elastic Constant Matrix: (Units=GPa)
#
#
# Indices 1 2 3 4 5 6 
#
# 1 91.6012 18.8521 38.7833 0.0000 0.0000 0.0000
# 2 18.8521 108.8032 20.6420 0.0000 0.0000 0.0000
# 3 38.7833 20.6420 145.3660 0.0000 0.0000 0.0000
# 4 0.0000 0.0000 0.0000 20.6255 0.0000 0.0000
# 5 0.0000 0.0000 0.0000 0.0000 -230.5393 0.0000
# 6 0.0000 0.0000 0.0000 0.0000 0.0000 26.5625
#
#
#
# Elastic Compliance Matrix: (Units=1/GPa)
#
#
# Indices 1 2 3 4 5 6 
#
# 1 0.012567 -0.001584 -0.003128 0.000000 0.000000 0.000000
# 2 -0.001584 0.009645 -0.000947 0.000000 0.000000 0.000000
# 3 -0.003128 -0.000947 0.007848 0.000000 0.000000 0.000000
# 4 0.000000 0.000000 0.000000 0.048484 0.000000 0.000000
# 5 0.000000 0.000000 0.000000 0.000000 -0.004338 0.000000
# 6 0.000000 0.000000 0.000000 0.000000 0.000000 0.037647
#
#
# Mechanical properties :
#
#
# Convention : Reuss Voigt Hill
#
# Bulk Modulus (GPa) = 53.35480 55.81391 54.58435
# Shear Modulus (GPa) = 38.63420 -18.83738 9.89841
#
# Velocity S-wave (km/s) = 4.05402 -2.83081 2.05203
# Velocity P-wave (km/s) = 6.67913 3.61369 5.36980
#
# Compressibility (1/GPa) = 0.01874246
#
# Stress axis : x y z
#
# Youngs Moduli (GPa) = 79.57181 103.68032 127.41790
#
# Poissons Ratio (x) = 0.16424 0.39856
# Poissons Ratio (y) = 0.12605 0.12066
# Poissons Ratio (z) = 0.24890 0.09818
#
# Static dielectric constant tensor:
#      x y z
#    x 1.905290 0.000000 0.000000 
#    y 0.000000 2.628170 0.000000 
#    z 0.000000 0.000000 2.233920 
# 
# From -- ./inp_files/26412.got.cif
#   From: 2010.05.17/outbox.cif.g08.bks.cpg/sg68_14_cif.got.tgz:26412.got - 2010.06.03 18:57:09.
