data_PCOD9510333
_publ_section_title
;
Structure prediction by ZEFSAII (Michael W. Deem and Ramdas Pophale) SiO2 
 PCOD9510333
Probable space group: C C C A
;
_chemical_formula_sum "Si O2"
_cell_formula_units_Z 104
_cell_length_a 27.433328
_cell_length_b 18.553318
_cell_length_c 8.677409
_cell_angle_alpha 90.000000
_cell_angle_beta 90.000000
_cell_angle_gamma 90.000000
_cell_volume 4416.621196
_symmetry_space_group_name_H-M "C C C A"
_symmetry_group_IT_number 68
_space_group.IT_coordinate_system_code '2'
_symmetry_cell_setting 'orthorhombic'
loop_
_space_group_symop_operation_xyz
x,y,z
-x,1/2-y,z
x,1/2-y,1/2-z
-x,y,1/2-z
-x,-y,-z
x,1/2+y,-z
-x,1/2+y,1/2+z
x,-y,1/2+z
1/2+x,1/2+y,z
1/2-x,-y,z
1/2+x,-y,1/2-z
1/2-x,1/2+y,1/2-z
1/2-x,1/2-y,-z
1/2+x,y,-z
1/2-x,y,1/2+z
1/2+x,1/2-y,1/2+z
loop_
_atom_site_type_symbol
_atom_site_label
_atom_site_fract_x
_atom_site_fract_y
_atom_site_fract_z
Si Si1 0.182909 0.116658 0.765901
Si Si2 0.625466 0.250000 0.250000
Si Si3 0.539758 0.810069 0.950987
Si Si4 0.238426 0.583101 0.936128
Si Si5 0.868202 0.105579 0.321011
Si Si6 0.580061 0.750000 0.250000
Si Si7 0.500000 0.563414 0.750000
Si Si8 0.601577 0.485136 0.375483
O O1 0.159638 0.190330 0.823965
O O2 0.212767 0.125338 0.609252
O O3 0.138909 0.060009 0.766425
O O4 0.222835 0.090354 0.887525
O O5 0.590145 0.291227 0.133389
O O6 0.500000 0.750000 0.907988
O O7 0.520289 0.885244 0.886732
O O8 0.548623 0.796007 0.129618
O O9 0.250000 0.500000 0.903843
O O10 0.189731 0.605345 0.845002
O O11 0.888824 0.186496 0.330348
O O12 0.890446 0.054739 0.459638
O O13 0.882028 0.066890 0.158862
O O14 0.453969 0.521978 0.680141
#
# Coordination Sequence:
#
# PCOD9510333 Si02
#       8
#    16   8  16  16  16   8   8  16
#     4  11  24  41  68 103 138 187 242 302 362 448
#     4  12  23  43  70 102 148 188 246 302 374 450
#     4  12  22  44  73 101 143 206 246 301 381 449
#     4  11  23  43  72 101 139 191 246 301 380 443
#     4  11  27  48  73 109 152 193 245 316 379 447
#     4  12  29  47  72 112 158 190 250 324 382 440
#     4  12  23  44  80 103 142 198 254 302 366 457
#     4  11  25  47  73 109 142 194 252 305 373 450
#
# _framework density 23.547412999999999
#
# number of rings (size 3 to 8) (size 9 to 14) (size 15 to 20)
#    0.000    0.615    4.615    3.462    4.308    3.077 
#    2.769    0.000    0.000    0.000    0.000    0.000 
#    0.000    0.000    0.000    0.000    0.000    0.000 
#
# Total GULP energy -290864.943001 kJ/mol
# GULP energy per Si atom -5593.556596 kJ/mol
# Density = 2.349382 g / cm^3
# Si number density = 23.547413 Si / 1000 Ang^3
#
#
#
# Elastic Constant Matrix: (Units=GPa)
#
#
# Indices 1 2 3 4 5 6 
#
# 1 120.8779 20.1648 35.9991 0.0000 0.0000 0.0000
# 2 20.1648 81.8813 13.5907 0.0000 0.0000 0.0000
# 3 35.9991 13.5907 79.6478 0.0000 0.0000 0.0000
# 4 0.0000 0.0000 0.0000 28.1815 0.0000 0.0000
# 5 0.0000 0.0000 0.0000 0.0000 33.4980 0.0000
# 6 0.0000 0.0000 0.0000 0.0000 0.0000 -69.7218
#
#
#
# Elastic Compliance Matrix: (Units=1/GPa)
#
#
# Indices 1 2 3 4 5 6 
#
# 1 0.009791 -0.001726 -0.004131 0.000000 0.000000 0.000000
# 2 -0.001726 0.012873 -0.001417 0.000000 0.000000 0.000000
# 3 -0.004131 -0.001417 0.014664 0.000000 0.000000 0.000000
# 4 0.000000 0.000000 0.000000 0.035484 0.000000 0.000000
# 5 0.000000 0.000000 0.000000 0.000000 0.029853 0.000000
# 6 0.000000 0.000000 0.000000 0.000000 0.000000 -0.014343
#
#
# Mechanical properties :
#
#
# Convention : Reuss Voigt Hill
#
# Bulk Modulus (GPa) = 43.89477 46.87957 45.38717
# Shear Modulus (GPa) = 45.26448 12.56837 28.91643
#
# Velocity S-wave (km/s) = 4.38913 2.31280 3.50810
# Velocity P-wave (km/s) = 6.66089 5.20422 5.97709
#
# Compressibility (1/GPa) = 0.02278176
#
# Stress axis : x y z
#
# Youngs Moduli (GPa) = 102.13587 77.68265 68.19404
#
# Poissons Ratio (x) = 0.13405 0.28170
# Poissons Ratio (y) = 0.17624 0.09661
# Poissons Ratio (z) = 0.42191 0.11005
#
# Static dielectric constant tensor:
#      x y z
#    x 1.869640 0.000000 0.000000 
#    y 0.000000 1.891990 0.000000 
#    z 0.000000 0.000000 1.992430 
# 
# From -- ./inp_files/9036.got.cif
#   From: 2010.05.17/outbox.cif.g08.bks.cpg/sg68_5_cif.got.tgz:9036.got - 2010.06.03 18:57:09.
