data_PCOD9510896
_publ_section_title
;
Structure prediction by ZEFSAII (Michael W. Deem and Ramdas Pophale) SiO2 
 PCOD9510896
Probable space group: C C C A
;
_chemical_formula_sum "Si O2"
_cell_formula_units_Z 64
_cell_length_a 9.646879
_cell_length_b 26.808712
_cell_length_c 10.081476
_cell_angle_alpha 90.000000
_cell_angle_beta 90.000000
_cell_angle_gamma 90.000000
_cell_volume 2607.275364
_symmetry_space_group_name_H-M "C C C A"
_symmetry_group_IT_number 68
_space_group.IT_coordinate_system_code '2'
_symmetry_cell_setting 'orthorhombic'
loop_
_space_group_symop_operation_xyz
x,y,z
-x,1/2-y,z
x,1/2-y,1/2-z
-x,y,1/2-z
-x,-y,-z
x,1/2+y,-z
-x,1/2+y,1/2+z
x,-y,1/2+z
1/2+x,1/2+y,z
1/2-x,-y,z
1/2+x,-y,1/2-z
1/2-x,1/2+y,1/2-z
1/2-x,1/2-y,-z
1/2+x,y,-z
1/2-x,y,1/2+z
1/2+x,1/2-y,1/2+z
loop_
_atom_site_type_symbol
_atom_site_label
_atom_site_fract_x
_atom_site_fract_y
_atom_site_fract_z
Si Si1 0.762021 0.626529 0.924754
Si Si2 0.369379 0.532883 0.947733
Si Si3 0.500000 0.388240 0.250000
Si Si4 0.500000 0.170476 0.750000
Si Si5 0.752941 0.715246 0.624400
O O1 0.618662 0.638395 0.843262
O O2 0.888592 0.639114 0.828978
O O3 0.779905 0.567570 0.950746
O O4 0.787751 0.661218 0.056683
O O5 0.250000 0.500000 0.881398
O O6 0.426166 0.574082 0.849665
O O7 0.500000 0.500000 0.000000
O O8 0.411003 0.204123 0.655420
O O9 0.698820 0.750000 0.750000
O O10 0.750000 0.750000 0.500000
#
# Coordination Sequence:
#
# PCOD9510896 Si02
#       5
#    16  16   8   8  16
#     4  12  28  53  83 125 167 228 290 360 441 530
#     4  12  28  50  76 120 167 227 294 356 434 519
#     4  12  28  51  82 120 172 231 285 359 438 532
#     4  12  27  51  84 119 170 213 276 363 427 510
#     4  12  27  53  82 122 167 218 279 355 439 520
#
# _framework density 24.546697999999999
#
# number of rings (size 3 to 8) (size 9 to 14) (size 15 to 20)
#    0.000    0.000    5.000    3.375    7.000    0.000 
#    0.000    1.250    0.000    0.000    0.000    0.000 
#    0.000    0.000    0.000    0.000    0.000    0.000 
#
# Total GULP energy -178349.616641 kJ/mol
# GULP energy per Si atom -5573.425520 kJ/mol
# Density = 2.449083 g / cm^3
# Si number density = 24.546698 Si / 1000 Ang^3
#
#
#
# Elastic Constant Matrix: (Units=GPa)
#
#
# Indices 1 2 3 4 5 6 
#
# 1 102.3885 39.0967 31.8748 0.0000 0.0000 0.0000
# 2 39.0967 134.3848 40.5168 0.0000 0.0000 0.0000
# 3 31.8748 40.5168 132.3428 0.0000 0.0000 0.0000
# 4 0.0000 0.0000 0.0000 23.9258 0.0000 0.0000
# 5 0.0000 0.0000 0.0000 0.0000 41.9474 0.0000
# 6 0.0000 0.0000 0.0000 0.0000 0.0000 63.2228
#
#
#
# Elastic Compliance Matrix: (Units=1/GPa)
#
#
# Indices 1 2 3 4 5 6 
#
# 1 0.011408 -0.002744 -0.001908 0.000000 0.000000 0.000000
# 2 -0.002744 0.008858 -0.002051 0.000000 0.000000 0.000000
# 3 -0.001908 -0.002051 0.008644 0.000000 0.000000 0.000000
# 4 0.000000 0.000000 0.000000 0.041796 0.000000 0.000000
# 5 0.000000 0.000000 0.000000 0.000000 0.023839 0.000000
# 6 0.000000 0.000000 0.000000 0.000000 0.000000 0.015817
#
#
# Mechanical properties :
#
#
# Convention : Reuss Voigt Hill
#
# Bulk Modulus (GPa) = 64.49648 65.78808 65.14228
# Shear Modulus (GPa) = 38.77909 42.99439 40.88674
#
# Velocity S-wave (km/s) = 3.97899 4.18967 4.08569
# Velocity P-wave (km/s) = 6.88781 7.08970 6.98948
#
# Compressibility (1/GPa) = 0.01550472
#
# Stress axis : x y z
#
# Youngs Moduli (GPa) = 87.65516 112.89260 115.69368
#
# Poissons Ratio (x) = 0.30976 0.22070
# Poissons Ratio (y) = 0.24052 0.23729
# Poissons Ratio (z) = 0.16722 0.23154
#
# Static dielectric constant tensor:
#      x y z
#    x 2.141390 0.000000 0.000000 
#    y 0.000000 1.741150 0.000000 
#    z 0.000000 0.000000 -2.853570 
# 
# From -- ./inp_files/10811.got.cif
#   From: 2010.05.17/outbox.cif.g08.bks.cpg/sg68_6_cif.got.tgz:10811.got - 2010.06.03 18:57:09.
