data_PCOD9510512
_publ_section_title
;
Structure prediction by ZEFSAII (Michael W. Deem and Ramdas Pophale) SiO2 
 PCOD9510512
Probable space group: C C C A
;
_chemical_formula_sum "Si O2"
_cell_formula_units_Z 80
_cell_length_a 8.734626
_cell_length_b 17.151531
_cell_length_c 23.793740
_cell_angle_alpha 90.000000
_cell_angle_beta 90.000000
_cell_angle_gamma 90.000000
_cell_volume 3564.592741
_symmetry_space_group_name_H-M "C C C A"
_symmetry_group_IT_number 68
_space_group.IT_coordinate_system_code '2'
_symmetry_cell_setting 'orthorhombic'
loop_
_space_group_symop_operation_xyz
x,y,z
-x,1/2-y,z
x,1/2-y,1/2-z
-x,y,1/2-z
-x,-y,-z
x,1/2+y,-z
-x,1/2+y,1/2+z
x,-y,1/2+z
1/2+x,1/2+y,z
1/2-x,-y,z
1/2+x,-y,1/2-z
1/2-x,1/2+y,1/2-z
1/2-x,1/2-y,-z
1/2+x,y,-z
1/2-x,y,1/2+z
1/2+x,1/2-y,1/2+z
loop_
_atom_site_type_symbol
_atom_site_label
_atom_site_fract_x
_atom_site_fract_y
_atom_site_fract_z
Si Si1 0.383975 0.940263 0.356752
Si Si2 0.494572 0.342086 0.072858
Si Si3 0.124369 0.444011 0.827461
Si Si4 0.183317 0.084955 0.471991
Si Si5 0.684288 0.838644 0.239919
O O1 0.438636 0.921114 0.419775
O O2 0.313632 0.867525 0.324042
O O3 0.250000 0.000000 0.368909
O O4 0.494860 0.990415 0.316440
O O5 0.500000 0.250000 0.078992
O O6 0.549510 0.383513 0.129958
O O7 0.325836 0.367872 0.053601
O O8 0.607190 0.372588 0.024058
O O9 0.250000 0.500000 0.855934
O O10 0.212230 0.397601 0.777606
O O11 0.250000 0.000000 0.487924
O O12 0.736563 0.750000 0.250000
O O13 0.500000 0.839715 0.250000
#
# Coordination Sequence:
#
# PCOD9510512 Si02
#       5
#    16  16  16  16  16
#     4  11  24  46  71 105 141 186 238 291 348 425
#     4  12  27  46  70 109 144 188 236 301 361 413
#     4  12  25  46  75 103 139 190 238 289 351 436
#     4  11  24  47  74 101 144 188 243 289 348 435
#     4  11  26  45  69 105 143 184 237 299 360 419
#
# _framework density 22.442958000000001
#
# number of rings (size 3 to 8) (size 9 to 14) (size 15 to 20)
#    0.000    0.600    6.000    2.400    5.600    0.000 
#    3.600    1.000    0.000    0.000    0.000    0.000 
#    0.000    0.000    0.000    0.000    0.000    0.000 
#
# Total GULP energy -223356.079196 kJ/mol
# GULP energy per Si atom -5583.901980 kJ/mol
# Density = 2.239188 g / cm^3
# Si number density = 22.442958 Si / 1000 Ang^3
#
#
#
# Elastic Constant Matrix: (Units=GPa)
#
#
# Indices 1 2 3 4 5 6 
#
# 1 71.8744 18.2915 14.8152 0.0000 0.0000 0.0000
# 2 18.2915 170.8223 38.5100 0.0000 0.0000 0.0000
# 3 14.8152 38.5100 92.3945 0.0000 0.0000 0.0000
# 4 0.0000 0.0000 0.0000 18.7988 0.0000 0.0000
# 5 0.0000 0.0000 0.0000 0.0000 29.8604 0.0000
# 6 0.0000 0.0000 0.0000 0.0000 0.0000 30.7262
#
#
#
# Elastic Compliance Matrix: (Units=1/GPa)
#
#
# Indices 1 2 3 4 5 6 
#
# 1 0.014588 -0.001142 -0.001863 0.000000 0.000000 0.000000
# 2 -0.001142 0.006551 -0.002547 0.000000 0.000000 0.000000
# 3 -0.001863 -0.002547 0.012184 0.000000 0.000000 0.000000
# 4 0.000000 0.000000 0.000000 0.053195 0.000000 0.000000
# 5 0.000000 0.000000 0.000000 0.000000 0.033489 0.000000
# 6 0.000000 0.000000 0.000000 0.000000 0.000000 0.032546
#
#
# Mechanical properties :
#
#
# Convention : Reuss Voigt Hill
#
# Bulk Modulus (GPa) = 45.00988 53.14716 49.07852
# Shear Modulus (GPa) = 29.22917 33.44204 31.33560
#
# Velocity S-wave (km/s) = 3.61276 3.86436 3.74067
# Velocity P-wave (km/s) = 6.12385 6.60632 6.36965
#
# Compressibility (1/GPa) = 0.02221735
#
# Stress axis : x y z
#
# Youngs Moduli (GPa) = 68.55030 152.65896 82.07794
#
# Poissons Ratio (x) = 0.17434 0.15292
# Poissons Ratio (y) = 0.07829 0.20906
# Poissons Ratio (z) = 0.12772 0.38884
#
# Static dielectric constant tensor:
#      x y z
#    x 1.928950 0.000000 0.000000 
#    y 0.000000 1.807760 0.000000 
#    z 0.000000 0.000000 1.912480 
# 
# From -- ./inp_files/49134.got.cif
#   From: 2010.05.17/outbox.cif.g08.bks.cpg/sg68_25_cif.got.tgz:49134.got - 2010.06.03 18:57:09.
