data_PCOD9510118
_publ_section_title
;
Structure prediction by ZEFSAII (Michael W. Deem and Ramdas Pophale) SiO2 
 PCOD9510118
Probable space group: C C C A
;
_chemical_formula_sum "Si O2"
_cell_formula_units_Z 96
_cell_length_a 24.261268
_cell_length_b 20.619643
_cell_length_c 8.953720
_cell_angle_alpha 90.000000
_cell_angle_beta 90.000000
_cell_angle_gamma 90.000000
_cell_volume 4479.176192
_symmetry_space_group_name_H-M "C C C A"
_symmetry_group_IT_number 68
_space_group.IT_coordinate_system_code '2'
_symmetry_cell_setting 'orthorhombic'
loop_
_space_group_symop_operation_xyz
x,y,z
-x,1/2-y,z
x,1/2-y,1/2-z
-x,y,1/2-z
-x,-y,-z
x,1/2+y,-z
-x,1/2+y,1/2+z
x,-y,1/2+z
1/2+x,1/2+y,z
1/2-x,-y,z
1/2+x,-y,1/2-z
1/2-x,1/2+y,1/2-z
1/2-x,1/2-y,-z
1/2+x,y,-z
1/2-x,y,1/2+z
1/2+x,1/2-y,1/2+z
loop_
_atom_site_type_symbol
_atom_site_label
_atom_site_fract_x
_atom_site_fract_y
_atom_site_fract_z
Si Si1 0.286086 0.942866 0.048951
Si Si2 0.906957 0.443562 0.148542
Si Si3 0.868077 0.182871 0.172875
Si Si4 0.242173 0.144349 0.791630
Si Si5 0.128844 0.816730 0.177295
Si Si6 0.942404 0.071088 0.678288
O O1 0.284230 0.879044 0.946600
O O2 0.250000 0.000000 0.982112
O O3 0.347741 0.964807 0.080842
O O4 0.256385 0.920235 0.199119
O O5 0.894308 0.378089 0.240108
O O6 0.928813 0.500070 0.255041
O O7 0.943636 0.431522 0.001460
O O8 0.884970 0.250000 0.250000
O O9 0.801245 0.177398 0.185048
O O10 0.882904 0.180529 0.998511
O O11 0.194954 0.180988 0.701282
O O12 0.108198 0.750000 0.250000
O O13 0.103051 0.878068 0.263005
O O14 0.000000 0.091862 0.750000
#
# Coordination Sequence:
#
# PCOD9510118 Si02
#       6
#    16  16  16  16  16  16
#     4  11  22  35  59  97 140 178 218 264 323 406
#     4  11  25  43  69  99 136 175 223 279 338 402
#     4  11  25  43  66 101 140 183 222 267 333 412
#     4  11  22  37  61  94 138 181 221 262 325 402
#     4  12  25  43  68  97 137 178 227 279 340 404
#     4  12  26  47  72  99 129 172 229 289 349 398
#
# _framework density 21.432513
#
# number of rings (size 3 to 8) (size 9 to 14) (size 15 to 20)
#    0.000    0.667    3.333    4.500    7.000    1.667 
#    0.000    0.000    0.000    3.500    0.000    0.000 
#    0.000    0.000    0.000    0.000    0.000    0.000 
#
# Total GULP energy -268499.407052 kJ/mol
# GULP energy per Si atom -5593.737647 kJ/mol
# Density = 2.138373 g / cm^3
# Si number density = 21.432513 Si / 1000 Ang^3
#
#
#
# Elastic Constant Matrix: (Units=GPa)
#
#
# Indices 1 2 3 4 5 6 
#
# 1 53.7399 14.5343 15.3074 0.0000 0.0000 0.0000
# 2 14.5343 100.7444 44.0033 0.0000 0.0000 0.0000
# 3 15.3074 44.0033 143.3239 0.0000 0.0000 0.0000
# 4 0.0000 0.0000 0.0000 17.6306 0.0000 0.0000
# 5 0.0000 0.0000 0.0000 0.0000 19.1715 0.0000
# 6 0.0000 0.0000 0.0000 0.0000 0.0000 5.7725
#
#
#
# Elastic Compliance Matrix: (Units=1/GPa)
#
#
# Indices 1 2 3 4 5 6 
#
# 1 0.019609 -0.002211 -0.001416 0.000000 0.000000 0.000000
# 2 -0.002211 0.011713 -0.003360 0.000000 0.000000 0.000000
# 3 -0.001416 -0.003360 0.008160 0.000000 0.000000 0.000000
# 4 0.000000 0.000000 0.000000 0.056720 0.000000 0.000000
# 5 0.000000 0.000000 0.000000 0.000000 0.052161 0.000000
# 6 0.000000 0.000000 0.000000 0.000000 0.000000 0.173236
#
#
# Mechanical properties :
#
#
# Convention : Reuss Voigt Hill
#
# Bulk Modulus (GPa) = 39.20118 49.49980 44.35049
# Shear Modulus (GPa) = 14.53177 23.44579 18.98878
#
# Velocity S-wave (km/s) = 2.60672 3.31106 2.97977
# Velocity P-wave (km/s) = 5.23356 6.14518 5.70760
#
# Compressibility (1/GPa) = 0.02550944
#
# Stress axis : x y z
#
# Youngs Moduli (GPa) = 50.99626 85.37831 122.54980
#
# Poissons Ratio (x) = 0.18875 0.17348
# Poissons Ratio (y) = 0.11274 0.41175
# Poissons Ratio (z) = 0.07219 0.28686
#
# Static dielectric constant tensor:
#      x y z
#    x 1.761200 0.000000 0.000000 
#    y 0.000000 1.756420 0.000000 
#    z 0.000000 0.000000 1.776700 
# 
# From -- ./inp_files/7263.got.cif
#   From: 2010.05.17/outbox.cif.g08.bks.cpg/sg68_4_cif.got.tgz:7263.got - 2010.06.03 18:57:09.
