data_PCOD9510232
_publ_section_title
;
Structure prediction by ZEFSAII (Michael W. Deem and Ramdas Pophale) SiO2 
 PCOD9510232
Probable space group: C C C A
;
_chemical_formula_sum "Si O2"
_cell_formula_units_Z 112
_cell_length_a 21.260063
_cell_length_b 16.665959
_cell_length_c 14.886986
_cell_angle_alpha 90.000000
_cell_angle_beta 90.000000
_cell_angle_gamma 90.000000
_cell_volume 5274.747029
_symmetry_space_group_name_H-M "C C C A"
_symmetry_group_IT_number 68
_space_group.IT_coordinate_system_code '2'
_symmetry_cell_setting 'orthorhombic'
loop_
_space_group_symop_operation_xyz
x,y,z
-x,1/2-y,z
x,1/2-y,1/2-z
-x,y,1/2-z
-x,-y,-z
x,1/2+y,-z
-x,1/2+y,1/2+z
x,-y,1/2+z
1/2+x,1/2+y,z
1/2-x,-y,z
1/2+x,-y,1/2-z
1/2-x,1/2+y,1/2-z
1/2-x,1/2-y,-z
1/2+x,y,-z
1/2-x,y,1/2+z
1/2+x,1/2-y,1/2+z
loop_
_atom_site_type_symbol
_atom_site_label
_atom_site_fract_x
_atom_site_fract_y
_atom_site_fract_z
Si Si1 0.916103 0.285561 0.651575
Si Si2 0.678059 0.845839 0.240872
Si Si3 0.615066 0.951046 0.370995
Si Si4 0.000479 0.062094 0.643021
Si Si5 0.618812 0.371575 0.439713
Si Si6 0.296098 0.607395 0.865460
Si Si7 0.757037 0.404095 0.429585
O O1 0.931178 0.250000 0.750000
O O2 0.965265 0.353359 0.622773
O O3 0.909465 0.215172 0.579872
O O4 0.849308 0.329016 0.659439
O O5 0.672590 0.750000 0.250000
O O6 0.620238 0.894866 0.283939
O O7 0.737804 0.877726 0.299452
O O8 0.691527 0.871154 0.139010
O O9 0.627667 0.896830 0.457742
O O10 0.547785 0.992702 0.387438
O O11 0.667728 0.021489 0.361749
O O12 0.000000 0.056558 0.750000
O O13 0.930027 0.066152 0.605457
O O14 0.688829 0.371836 0.399848
O O15 0.274122 0.618349 0.968409
O O16 0.750000 0.500000 0.425253
#
# Coordination Sequence:
#
# PCOD9510232 Si02
#       7
#    16  16  16  16  16  16  16
#     4  11  23  40  70 106 136 173 223 296 351 400
#     4  12  26  41  66 101 143 178 223 278 345 409
#     4  11  25  45  67  97 141 184 227 285 340 419
#     4  11  25  43  72  98 133 179 238 288 344 411
#     4  12  23  41  68 100 137 174 227 284 352 397
#     4  11  22  44  66 101 142 181 223 277 341 417
#     4  12  24  40  70 100 135 181 226 271 339 418
#
# _framework density 21.233245
#
# number of rings (size 3 to 8) (size 9 to 14) (size 15 to 20)
#    0.000    0.571    4.286    4.286    6.000    1.143 
#    0.000    0.000    3.143    0.000    0.000    0.000 
#    0.000    0.000    0.000    0.000    0.000    0.000 
#
# Total GULP energy -313267.922650 kJ/mol
# GULP energy per Si atom -5594.070047 kJ/mol
# Density = 2.118492 g / cm^3
# Si number density = 21.233245 Si / 1000 Ang^3
#
#
#
# Elastic Constant Matrix: (Units=GPa)
#
#
# Indices 1 2 3 4 5 6 
#
# 1 59.9222 7.0966 -1.2414 0.0000 0.0000 0.0000
# 2 7.0966 80.9197 25.6502 0.0000 0.0000 0.0000
# 3 -1.2414 25.6502 72.8963 0.0000 0.0000 0.0000
# 4 0.0000 0.0000 0.0000 12.4696 0.0000 0.0000
# 5 0.0000 0.0000 0.0000 0.0000 23.5688 0.0000
# 6 0.0000 0.0000 0.0000 0.0000 0.0000 3.2479
#
#
#
# Elastic Compliance Matrix: (Units=1/GPa)
#
#
# Indices 1 2 3 4 5 6 
#
# 1 0.016917 -0.001773 0.000912 0.000000 0.000000 0.000000
# 2 -0.001773 0.014095 -0.004990 0.000000 0.000000 0.000000
# 3 0.000912 -0.004990 0.015489 0.000000 0.000000 0.000000
# 4 0.000000 0.000000 0.000000 0.080195 0.000000 0.000000
# 5 0.000000 0.000000 0.000000 0.000000 0.042429 0.000000
# 6 0.000000 0.000000 0.000000 0.000000 0.000000 0.307896
#
#
# Mechanical properties :
#
#
# Convention : Reuss Voigt Hill
#
# Bulk Modulus (GPa) = 28.73537 30.74988 29.74263
# Shear Modulus (GPa) = 9.99355 20.00611 14.99983
#
# Velocity S-wave (km/s) = 2.17181 3.07287 2.66076
# Velocity P-wave (km/s) = 4.45551 5.20609 4.84536
#
# Compressibility (1/GPa) = 0.03480031
#
# Stress axis : x y z
#
# Youngs Moduli (GPa) = 59.11168 70.94675 64.56018
#
# Poissons Ratio (x) = 0.12576 -0.05887
# Poissons Ratio (y) = 0.10478 0.32215
# Poissons Ratio (z) = -0.05390 0.35401
#
# Static dielectric constant tensor:
#      x y z
#    x 1.829080 0.000000 0.000000 
#    y 0.000000 1.779520 0.000000 
#    z 0.000000 0.000000 1.748350 
# 
# From -- ./inp_files/25468.got.cif
#   From: 2010.05.17/outbox.cif.g08.bks.cpg/sg68_13_cif.got.tgz:25468.got - 2010.06.03 18:57:09.
