data_PCOD9510223
_publ_section_title
;
Structure prediction by ZEFSAII (Michael W. Deem and Ramdas Pophale) SiO2 
 PCOD9510223
Probable space group: C C C A
;
_chemical_formula_sum "Si O2"
_cell_formula_units_Z 116
_cell_length_a 22.522794
_cell_length_b 8.725551
_cell_length_c 29.573671
_cell_angle_alpha 90.000000
_cell_angle_beta 90.000000
_cell_angle_gamma 90.000000
_cell_volume 5811.929841
_symmetry_space_group_name_H-M "C C C A"
_symmetry_group_IT_number 68
_space_group.IT_coordinate_system_code '2'
_symmetry_cell_setting 'orthorhombic'
loop_
_space_group_symop_operation_xyz
x,y,z
-x,1/2-y,z
x,1/2-y,1/2-z
-x,y,1/2-z
-x,-y,-z
x,1/2+y,-z
-x,1/2+y,1/2+z
x,-y,1/2+z
1/2+x,1/2+y,z
1/2-x,-y,z
1/2+x,-y,1/2-z
1/2-x,1/2+y,1/2-z
1/2-x,1/2-y,-z
1/2+x,y,-z
1/2-x,y,1/2+z
1/2+x,1/2-y,1/2+z
loop_
_atom_site_type_symbol
_atom_site_label
_atom_site_fract_x
_atom_site_fract_y
_atom_site_fract_z
Si Si1 0.821908 0.996430 0.529440
Si Si2 0.648420 0.204394 0.615258
Si Si3 0.500000 0.250000 0.750000
Si Si4 0.145079 0.334707 0.938598
Si Si5 0.570224 0.003650 0.372139
Si Si6 0.729695 0.665257 0.645640
Si Si7 0.385501 0.733895 0.803048
Si Si8 0.948155 0.536228 0.828103
O O1 0.846585 0.161384 0.544558
O O2 0.750000 0.000000 0.527453
O O3 0.841345 0.872959 0.566915
O O4 0.846844 0.945341 0.481098
O O5 0.610838 0.361018 0.613670
O O6 0.712164 0.237025 0.636856
O O7 0.610197 0.097094 0.647508
O O8 0.463301 0.139291 0.784084
O O9 0.085278 0.368875 0.910047
O O10 0.197521 0.364769 0.902387
O O11 0.592032 0.073450 0.324099
O O12 0.503102 0.956096 0.362929
O O13 0.750000 0.500000 0.664741
O O14 0.679620 0.749652 0.674859
O O15 0.379773 0.750000 0.750000
O O16 0.433562 0.861285 0.816634
#
# Coordination Sequence:
#
# PCOD9510223 Si02
#       8
#    16  16   4  16  16  16  16  16
#     4  12  24  37  67 109 142 183 235 285 340 432
#     4  12  23  42  67  97 140 175 229 282 350 412
#     4  12  24  48  70 104 128 176 254 292 338 416
#     4  11  23  40  67 104 140 182 231 284 346 403
#     4  11  23  46  68  95 135 185 228 292 344 409
#     4  11  22  43  68  97 142 182 218 285 355 414
#     4  11  25  43  68  99 134 178 232 285 354 422
#     4  12  26  44  71  99 130 181 235 289 347 409
#
# _framework density 19.958947999999999
#
# number of rings (size 3 to 8) (size 9 to 14) (size 15 to 20)
#    0.000    0.552    5.517    4.552    0.000    0.552 
#    3.724    0.690    0.000    3.310    0.000    0.000 
#    0.000    0.000    0.000    0.000    0.000    0.000 
#
# Total GULP energy -324208.654232 kJ/mol
# GULP energy per Si atom -5589.804383 kJ/mol
# Density = 1.991352 g / cm^3
# Si number density = 19.958948 Si / 1000 Ang^3
#
#
#
# Elastic Constant Matrix: (Units=GPa)
#
#
# Indices 1 2 3 4 5 6 
#
# 1 82.9436 17.3410 20.3896 0.0000 0.0000 0.0000
# 2 17.3410 83.0049 28.8388 0.0000 0.0000 0.0000
# 3 20.3896 28.8388 103.2648 0.0000 0.0000 0.0000
# 4 0.0000 0.0000 0.0000 25.4897 0.0000 0.0000
# 5 0.0000 0.0000 0.0000 0.0000 3.2026 0.0000
# 6 0.0000 0.0000 0.0000 0.0000 0.0000 33.5668
#
#
#
# Elastic Compliance Matrix: (Units=1/GPa)
#
#
# Indices 1 2 3 4 5 6 
#
# 1 0.012969 -0.002015 -0.001998 0.000000 0.000000 0.000000
# 2 -0.002015 0.013655 -0.003416 0.000000 0.000000 0.000000
# 3 -0.001998 -0.003416 0.011032 0.000000 0.000000 0.000000
# 4 0.000000 0.000000 0.000000 0.039232 0.000000 0.000000
# 5 0.000000 0.000000 0.000000 0.000000 0.312247 0.000000
# 6 0.000000 0.000000 0.000000 0.000000 0.000000 0.029791
#
#
# Mechanical properties :
#
#
# Convention : Reuss Voigt Hill
#
# Bulk Modulus (GPa) = 43.86201 44.70580 44.28390
# Shear Modulus (GPa) = 11.32803 25.96141 18.64472
#
# Velocity S-wave (km/s) = 2.38495 3.61049 3.05971
# Velocity P-wave (km/s) = 5.44131 6.31097 5.89220
#
# Compressibility (1/GPa) = 0.02279877
#
# Stress axis : x y z
#
# Youngs Moduli (GPa) = 77.10783 73.23222 90.64380
#
# Poissons Ratio (x) = 0.14758 0.18110
# Poissons Ratio (y) = 0.15539 0.30960
# Poissons Ratio (z) = 0.15405 0.25013
#
# Static dielectric constant tensor:
#      x y z
#    x 1.703570 0.000000 0.000000 
#    y 0.000000 1.789230 0.000000 
#    z 0.000000 0.000000 1.681310 
# 
# From -- ./inp_files/52213.got.cif
#   From: 2010.05.17/outbox.cif.g08.bks.cpg/sg68_27_cif.got.tgz:52213.got - 2010.06.03 18:57:09.
