data_PCOD9510594
_publ_section_title
;
Structure prediction by ZEFSAII (Michael W. Deem and Ramdas Pophale) SiO2 
 PCOD9510594
Probable space group: C C C A
;
_chemical_formula_sum "Si O2"
_cell_formula_units_Z 88
_cell_length_a 24.744291
_cell_length_b 13.651405
_cell_length_c 12.085149
_cell_angle_alpha 90.000000
_cell_angle_beta 90.000000
_cell_angle_gamma 90.000000
_cell_volume 4082.294905
_symmetry_space_group_name_H-M "C C C A"
_symmetry_group_IT_number 68
_space_group.IT_coordinate_system_code '2'
_symmetry_cell_setting 'orthorhombic'
loop_
_space_group_symop_operation_xyz
x,y,z
-x,1/2-y,z
x,1/2-y,1/2-z
-x,y,1/2-z
-x,-y,-z
x,1/2+y,-z
-x,1/2+y,1/2+z
x,-y,1/2+z
1/2+x,1/2+y,z
1/2-x,-y,z
1/2+x,-y,1/2-z
1/2-x,1/2+y,1/2-z
1/2-x,1/2-y,-z
1/2+x,y,-z
1/2-x,y,1/2+z
1/2+x,1/2-y,1/2+z
loop_
_atom_site_type_symbol
_atom_site_label
_atom_site_fract_x
_atom_site_fract_y
_atom_site_fract_z
Si Si1 0.300504 0.927174 0.381273
Si Si2 0.606790 0.459021 0.273084
Si Si3 0.256468 0.750000 0.250000
Si Si4 0.946780 0.811992 0.073113
Si Si5 0.443130 0.654851 0.312104
Si Si6 0.162006 0.185671 0.598456
O O1 0.288951 0.848648 0.282188
O O2 0.318130 0.865719 0.487593
O O3 0.250000 0.000000 0.397113
O O4 0.350056 0.998620 0.357846
O O5 0.560987 0.402261 0.342655
O O6 0.586481 0.553510 0.208090
O O7 0.638701 0.389369 0.189154
O O8 0.215240 0.735422 0.351645
O O9 0.889290 0.756002 0.080749
O O10 0.000000 0.750000 0.104807
O O11 0.952211 0.833775 0.942669
O O12 0.416927 0.750000 0.250000
O O13 0.500000 0.646100 0.250000
#
# Coordination Sequence:
#
# PCOD9510594 Si02
#       6
#    16  16   8  16  16  16
#     4  12  27  46  78 108 149 206 251 323 387 441
#     4  12  27  46  74 112 152 190 262 309 370 466
#     4  12  26  50  73 108 153 198 256 318 384 454
#     4  12  26  49  78 110 153 203 243 316 387 451
#     4  11  25  47  71 107 152 194 256 303 373 454
#     4  12  26  49  73 114 150 194 262 309 382 466
#
# _framework density 21.556502999999999
#
# number of rings (size 3 to 8) (size 9 to 14) (size 15 to 20)
#    0.000    0.182    5.455    2.727    8.909    1.455 
#    0.000    0.000    0.000    0.000    0.000    0.000 
#    0.000    0.000    0.000    0.000    0.000    0.000 
#
# Total GULP energy -246066.951647 kJ/mol
# GULP energy per Si atom -5592.430719 kJ/mol
# Density = 2.150744 g / cm^3
# Si number density = 21.556503 Si / 1000 Ang^3
#
#
#
# Elastic Constant Matrix: (Units=GPa)
#
#
# Indices 1 2 3 4 5 6 
#
# 1 79.7193 35.1123 25.5223 0.0000 0.0000 0.0000
# 2 35.1123 95.1473 25.6883 0.0000 0.0000 0.0000
# 3 25.5223 25.6883 74.7786 0.0000 0.0000 0.0000
# 4 0.0000 0.0000 0.0000 55.7206 0.0000 0.0000
# 5 0.0000 0.0000 0.0000 0.0000 1.3861 0.0000
# 6 0.0000 0.0000 0.0000 0.0000 0.0000 63.3201
#
#
#
# Elastic Compliance Matrix: (Units=1/GPa)
#
#
# Indices 1 2 3 4 5 6 
#
# 1 0.015881 -0.004847 -0.003755 0.000000 0.000000 0.000000
# 2 -0.004847 0.013064 -0.002833 0.000000 0.000000 0.000000
# 3 -0.003755 -0.002833 0.015628 0.000000 0.000000 0.000000
# 4 0.000000 0.000000 0.000000 0.017947 0.000000 0.000000
# 5 0.000000 0.000000 0.000000 0.000000 0.721424 0.000000
# 6 0.000000 0.000000 0.000000 0.000000 0.000000 0.015793
#
#
# Mechanical properties :
#
#
# Convention : Reuss Voigt Hill
#
# Bulk Modulus (GPa) = 46.07970 46.92123 46.50047
# Shear Modulus (GPa) = 6.02525 34.97351 20.49938
#
# Velocity S-wave (km/s) = 1.67367 4.03229 3.08711
# Velocity P-wave (km/s) = 5.01573 6.59492 5.85878
#
# Compressibility (1/GPa) = 0.02170153
#
# Stress axis : x y z
#
# Youngs Moduli (GPa) = 62.96827 76.54864 63.98820
#
# Poissons Ratio (x) = 0.37101 0.24030
# Poissons Ratio (y) = 0.30519 0.18131
# Poissons Ratio (z) = 0.23647 0.21690
#
# Static dielectric constant tensor:
#      x y z
#    x 1.773770 0.000000 0.000000 
#    y 0.000000 1.935820 0.000000 
#    z 0.000000 0.000000 1.744910 
# 
# From -- ./inp_files/16300.got.cif
#   From: 2010.05.17/outbox.cif.g08.bks.cpg/sg68_9_cif.got.tgz:16300.got - 2010.06.03 18:57:09.
