data_PCOD9510988
_publ_section_title
;
Structure prediction by ZEFSAII (Michael W. Deem and Ramdas Pophale) SiO2 
 PCOD9510988
Probable space group: F M M M
;
_chemical_formula_sum "Si O2"
_cell_formula_units_Z 136
_cell_length_a 34.011641
_cell_length_b 14.078609
_cell_length_c 11.608053
_cell_angle_alpha 90.000000
_cell_angle_beta 90.000000
_cell_angle_gamma 90.000000
_cell_volume 5558.360574
_symmetry_space_group_name_H-M "F M M M"
_symmetry_group_IT_number 69
_symmetry_cell_setting 'orthorhombic'
loop_
_space_group_symop_operation_xyz
x,y,z
-x,-y,z
x,-y,-z
-x,y,-z
-x,-y,-z
x,y,-z
-x,y,z
x,-y,z
x,1/2+y,1/2+z
-x,1/2-y,1/2+z
x,1/2-y,1/2-z
-x,1/2+y,1/2-z
-x,1/2-y,1/2-z
x,1/2+y,1/2-z
-x,1/2+y,1/2+z
x,1/2-y,1/2+z
1/2+x,y,1/2+z
1/2-x,-y,1/2+z
1/2+x,-y,1/2-z
1/2-x,y,1/2-z
1/2-x,-y,1/2-z
1/2+x,y,1/2-z
1/2-x,y,1/2+z
1/2+x,-y,1/2+z
1/2+x,1/2+y,z
1/2-x,1/2-y,z
1/2+x,1/2-y,-z
1/2-x,1/2+y,-z
1/2-x,1/2-y,-z
1/2+x,1/2+y,-z
1/2-x,1/2+y,z
1/2+x,1/2-y,z
loop_
_atom_site_type_symbol
_atom_site_label
_atom_site_fract_x
_atom_site_fract_y
_atom_site_fract_z
Si Si1 0.000000 0.147999 0.000000
Si Si2 0.918050 0.389537 0.500000
Si Si3 0.581294 0.886591 0.135492
Si Si4 0.855543 0.612532 0.702066
Si Si5 0.000000 0.607745 0.234292
Si Si6 0.269026 0.146565 0.631420
O O1 0.954658 0.181657 0.000000
O O2 0.000000 0.103953 0.128397
O O3 0.932993 0.500000 0.500000
O O4 0.890241 0.379178 0.391010
O O5 0.622714 0.849233 0.184214
O O6 0.540699 0.848481 0.189583
O O7 0.582008 0.000000 0.165568
O O8 0.579895 0.878814 0.000000
O O9 0.845999 0.500000 0.714837
O O10 0.815266 0.655832 0.658038
O O11 0.000000 0.500000 0.187192
O O12 0.264371 0.105456 0.500000
O O13 0.250000 0.103636 0.750000
O O14 0.250000 0.250000 0.624590
#
# Coordination Sequence:
#
# PCOD9510988 Si02
#       6
#     8  16  32  32  16  32
#     4  12  17  22  40  70 108 156 198 222 263 320
#     4  10  17  26  43  71 109 146 184 226 263 308
#     4   9  17  27  40  64 103 149 190 229 273 326
#     4  10  19  32  52  77 107 146 188 233 282 329
#     4  10  16  22  35  59  98 148 195 230 264 312
#     4  10  22  40  60  81 107 141 179 236 290 349
#
# _framework density 24.467645000000001
#
# number of rings (size 3 to 8) (size 9 to 14) (size 15 to 20)
#    0.000    2.118    3.529    1.412    0.000    2.824 
#    0.000    0.000    0.000    0.000    0.000    0.000 
#    0.000   15.059    1.882    0.000    0.000    0.000 
#
# Total GULP energy -189758.003827 kJ/mol
# GULP energy per Si atom -5581.117760 kJ/mol
# Density = 2.441196 g / cm^3
# Si number density = 24.467645 Si / 1000 Ang^3
#
#
#
# Elastic Constant Matrix: (Units=GPa)
#
#
# Indices 1 2 3 4 5 6 
#
# 1 209.0206 36.5726 71.6530 0.0000 0.0000 0.0000
# 2 36.5726 92.6389 10.7030 0.0000 0.0000 0.0000
# 3 71.6530 10.7030 178.0601 0.0000 0.0000 0.0000
# 4 0.0000 0.0000 0.0000 6.1073 0.0000 0.0000
# 5 0.0000 0.0000 0.0000 0.0000 17.9874 0.0000
# 6 0.0000 0.0000 0.0000 0.0000 0.0000 24.8427
#
#
#
# Elastic Compliance Matrix: (Units=1/GPa)
#
#
# Indices 1 2 3 4 5 6 
#
# 1 0.005922 -0.002077 -0.002258 0.000000 0.000000 0.000000
# 2 -0.002077 0.011599 0.000139 0.000000 0.000000 0.000000
# 3 -0.002258 0.000139 0.006516 0.000000 0.000000 0.000000
# 4 0.000000 0.000000 0.000000 0.163739 0.000000 0.000000
# 5 0.000000 0.000000 0.000000 0.000000 0.055595 0.000000
# 6 0.000000 0.000000 0.000000 0.000000 0.000000 0.040253
#
#
# Mechanical properties :
#
#
# Convention : Reuss Voigt Hill
#
# Bulk Modulus (GPa) = 63.92305 79.73076 71.82690
# Shear Modulus (GPa) = 16.82195 33.84020 25.33107
#
# Velocity S-wave (km/s) = 2.62490 3.72298 3.22108
# Velocity P-wave (km/s) = 5.94719 7.15107 6.57673
#
# Compressibility (1/GPa) = 0.01564381
#
# Stress axis : x y z
#
# Youngs Moduli (GPa) = 168.87032 86.21780 153.45820
#
# Poissons Ratio (x) = 0.17907 0.34652
# Poissons Ratio (y) = 0.35073 -0.02127
# Poissons Ratio (z) = 0.38133 -0.01195
#
# Static dielectric constant tensor:
#      x y z
#    x 1.905650 0.000000 0.000000 
#    y 0.000000 2.055210 0.000000 
#    z 0.000000 0.000000 1.968290 
# 
# From -- ./inp_files/12181.got.cif
#   From: 2010.05.17/outbox.cif.g08.bks.cpg/sg69_7_cif.got.tgz:12181.got - 2010.06.03 19:29:58.
