data_PCOD9510623
_publ_section_title
;
Structure prediction by ZEFSAII (Michael W. Deem and Ramdas Pophale) SiO2 
 PCOD9510623
Probable space group: C C C A
;
_chemical_formula_sum "Si O2"
_cell_formula_units_Z 56
_cell_length_a 5.129461
_cell_length_b 18.770441
_cell_length_c 24.839535
_cell_angle_alpha 90.000000
_cell_angle_beta 90.000000
_cell_angle_gamma 90.000000
_cell_volume 2391.606196
_symmetry_space_group_name_H-M "C C C A"
_symmetry_group_IT_number 68
_space_group.IT_coordinate_system_code '2'
_symmetry_cell_setting 'orthorhombic'
loop_
_space_group_symop_operation_xyz
x,y,z
-x,1/2-y,z
x,1/2-y,1/2-z
-x,y,1/2-z
-x,-y,-z
x,1/2+y,-z
-x,1/2+y,1/2+z
x,-y,1/2+z
1/2+x,1/2+y,z
1/2-x,-y,z
1/2+x,-y,1/2-z
1/2-x,1/2+y,1/2-z
1/2-x,1/2-y,-z
1/2+x,y,-z
1/2-x,y,1/2+z
1/2+x,1/2-y,1/2+z
loop_
_atom_site_type_symbol
_atom_site_label
_atom_site_fract_x
_atom_site_fract_y
_atom_site_fract_z
Si Si1 0.250000 0.500000 0.200379
Si Si2 0.407243 0.896787 0.032769
Si Si3 0.000000 0.250000 0.661221
Si Si4 0.250000 0.500000 0.874264
Si Si5 0.500000 0.371244 0.250000
Si Si6 0.500000 0.250000 0.586116
O O1 0.499340 0.493560 0.162660
O O2 0.272067 0.427226 0.234693
O O3 0.308838 0.935038 0.086151
O O4 0.416611 0.814375 0.047929
O O5 0.697139 0.915261 0.013144
O O6 0.946463 0.318167 0.699963
O O7 0.748444 0.233680 0.624313
#
# Coordination Sequence:
#
# PCOD9510623 Si02
#       6
#     8  16   8   8   8   8
#     4  12  25  43  68  98 134 176 226 281 337 402
#     4  12  24  42  67  97 134 176 224 277 336 402
#     4  11  26  45  70  99 138 179 228 281 342 407
#     4  12  25  43  66  96 134 176 224 277 337 402
#     4  11  26  46  70 101 136 180 228 283 342 408
#     4  12  24  44  68  99 134 177 226 282 338 404
#
# _framework density 23.415225
#
# number of rings (size 3 to 8) (size 9 to 14) (size 15 to 20)
#    0.000    0.286    0.000    9.429    0.000    6.857 
#    0.000    0.000    0.000    0.000    0.000    0.000 
#    0.000    0.000    0.000    0.000    0.000    0.000 
#
# Total GULP energy -156842.340680 kJ/mol
# GULP energy per Si atom -5601.512167 kJ/mol
# Density = 2.336193 g / cm^3
# Si number density = 23.415225 Si / 1000 Ang^3
#
#
#
# Elastic Constant Matrix: (Units=GPa)
#
#
# Indices 1 2 3 4 5 6 
#
# 1 166.2713 44.6702 59.1630 0.0000 0.0000 0.0000
# 2 44.6702 161.2467 41.0931 0.0000 0.0000 0.0000
# 3 59.1630 41.0931 84.9684 0.0000 0.0000 0.0000
# 4 0.0000 0.0000 0.0000 50.4728 0.0000 0.0000
# 5 0.0000 0.0000 0.0000 0.0000 55.3293 0.0000
# 6 0.0000 0.0000 0.0000 0.0000 0.0000 33.3133
#
#
#
# Elastic Compliance Matrix: (Units=1/GPa)
#
#
# Indices 1 2 3 4 5 6 
#
# 1 0.008113 -0.000922 -0.005204 0.000000 0.000000 0.000000
# 2 -0.000922 0.007178 -0.002830 0.000000 0.000000 0.000000
# 3 -0.005204 -0.002830 0.016761 0.000000 0.000000 0.000000
# 4 0.000000 0.000000 0.000000 0.019813 0.000000 0.000000
# 5 0.000000 0.000000 0.000000 0.000000 0.018074 0.000000
# 6 0.000000 0.000000 0.000000 0.000000 0.000000 0.030018
#
#
# Mechanical properties :
#
#
# Convention : Reuss Voigt Hill
#
# Bulk Modulus (GPa) = 70.70942 78.03767 74.37354
# Shear Modulus (GPa) = 40.78933 45.66042 43.22487
#
# Velocity S-wave (km/s) = 4.17826 4.42071 4.30119
# Velocity P-wave (km/s) = 7.31715 7.71083 7.51657
#
# Compressibility (1/GPa) = 0.01414239
#
# Stress axis : x y z
#
# Youngs Moduli (GPa) = 123.25263 139.31154 59.66245
#
# Poissons Ratio (x) = 0.12838 0.31046
# Poissons Ratio (y) = 0.11358 0.16884
# Poissons Ratio (z) = 0.64136 0.39424
#
# Static dielectric constant tensor:
#      x y z
#    x 1.657590 0.000000 0.000000 
#    y 0.000000 1.951600 0.000000 
#    z 0.000000 0.000000 1.897570 
# 
# From -- ./inp_files/42022.got.cif
#   From: 2010.05.17/outbox.cif.g08.bks.cpg/sg68_22_cif.got.tgz:42022.got - 2010.06.03 18:57:09.
