data_PCOD9510905
_publ_section_title
;
Structure prediction by ZEFSAII (Michael W. Deem and Ramdas Pophale) SiO2 
 PCOD9510905
Probable space group: C C C A
;
_chemical_formula_sum "Si O2"
_cell_formula_units_Z 44
_cell_length_a 5.553325
_cell_length_b 26.832566
_cell_length_c 13.738813
_cell_angle_alpha 90.000000
_cell_angle_beta 90.000000
_cell_angle_gamma 90.000000
_cell_volume 2047.219970
_symmetry_space_group_name_H-M "C C C A"
_symmetry_group_IT_number 68
_space_group.IT_coordinate_system_code '2'
_symmetry_cell_setting 'orthorhombic'
loop_
_space_group_symop_operation_xyz
x,y,z
-x,1/2-y,z
x,1/2-y,1/2-z
-x,y,1/2-z
-x,-y,-z
x,1/2+y,-z
-x,1/2+y,1/2+z
x,-y,1/2+z
1/2+x,1/2+y,z
1/2-x,-y,z
1/2+x,-y,1/2-z
1/2-x,1/2+y,1/2-z
1/2-x,1/2-y,-z
1/2+x,y,-z
1/2-x,y,1/2+z
1/2+x,1/2-y,1/2+z
loop_
_atom_site_type_symbol
_atom_site_label
_atom_site_fract_x
_atom_site_fract_y
_atom_site_fract_z
Si Si1 0.890029 0.198091 0.641594
Si Si2 0.071700 0.091736 0.946168
Si Si3 0.500000 0.530316 0.750000
Si Si4 0.000000 0.250000 0.250000
O O1 0.926180 0.151032 0.574646
O O2 0.623979 0.212371 0.674107
O O3 0.000000 0.250000 0.603255
O O4 0.000000 0.189031 0.750000
O O5 0.044679 0.063979 0.844223
O O6 0.331779 0.078950 0.992365
O O7 0.250000 0.500000 0.764723
#
# Coordination Sequence:
#
# PCOD9510905 Si02
#       4
#    16  16   8   4
#     4   9  20  39  65 100 143 195 231 282 337 420
#     4  12  28  45  74 111 141 182 240 289 351 434
#     4  12  28  53  79 100 141 186 231 308 374 412
#     4   8  18  34  68  90 144 202 244 260 338 408
#
# _framework density 21.492560999999998
#
# number of rings (size 3 to 8) (size 9 to 14) (size 15 to 20)
#    0.000    1.818    1.818    2.182   10.182    7.273 
#    0.000    0.000    0.000    0.000    0.000    0.000 
#    0.000    0.000    0.000    0.000    0.000    0.000 
#
# Total GULP energy -122727.682387 kJ/mol
# GULP energy per Si atom -5578.531018 kJ/mol
# Density = 2.144364 g / cm^3
# Si number density = 21.492561 Si / 1000 Ang^3
#
#
#
# Elastic Constant Matrix: (Units=GPa)
#
#
# Indices 1 2 3 4 5 6 
#
# 1 144.6185 47.5796 60.2505 0.0000 0.0000 0.0000
# 2 47.5796 78.5203 42.3778 0.0000 0.0000 0.0000
# 3 60.2505 42.3778 106.0178 0.0000 0.0000 0.0000
# 4 0.0000 0.0000 0.0000 -58.2731 0.0000 0.0000
# 5 0.0000 0.0000 0.0000 0.0000 93.4037 0.0000
# 6 0.0000 0.0000 0.0000 0.0000 0.0000 45.3474
#
#
#
# Elastic Compliance Matrix: (Units=1/GPa)
#
#
# Indices 1 2 3 4 5 6 
#
# 1 0.009861 -0.003762 -0.004100 0.000000 0.000000 0.000000
# 2 -0.003762 0.017674 -0.004927 0.000000 0.000000 0.000000
# 3 -0.004100 -0.004927 0.013732 0.000000 0.000000 0.000000
# 4 0.000000 0.000000 0.000000 -0.017161 0.000000 0.000000
# 5 0.000000 0.000000 0.000000 0.000000 0.010706 0.000000
# 6 0.000000 0.000000 0.000000 0.000000 0.000000 0.022052
#
#
# Mechanical properties :
#
#
# Convention : Reuss Voigt Hill
#
# Bulk Modulus (GPa) = 63.74004 69.95250 66.84627
# Shear Modulus (GPa) = 57.03080 28.02552 42.52816
#
# Velocity S-wave (km/s) = 5.15681 3.61496 4.45313
# Velocity P-wave (km/s) = 8.07330 7.07403 7.59013
#
# Compressibility (1/GPa) = 0.01568873
#
# Stress axis : x y z
#
# Youngs Moduli (GPa) = 101.41293 56.57930 72.82396
#
# Poissons Ratio (x) = 0.21287 0.29858
# Poissons Ratio (y) = 0.38155 0.35878
# Poissons Ratio (z) = 0.41579 0.27875
#
# Static dielectric constant tensor:
#      x y z
#    x 1.853710 0.000000 0.000000 
#    y 0.000000 1.757320 0.000000 
#    z 0.000000 0.000000 1.748630 
# 
# From -- ./inp_files/18166.got.cif
#   From: 2010.05.17/outbox.cif.g08.bks.cpg/sg68_10_cif.got.tgz:18166.got - 2010.06.03 18:57:09.
