data_PCOD9510714
_publ_section_title
;
Structure prediction by ZEFSAII (Michael W. Deem and Ramdas Pophale) SiO2 
 PCOD9510714
Probable space group: C C C A
;
_chemical_formula_sum "Si O2"
_cell_formula_units_Z 88
_cell_length_a 28.897445
_cell_length_b 5.208559
_cell_length_c 24.746202
_cell_angle_alpha 90.000000
_cell_angle_beta 90.000000
_cell_angle_gamma 90.000000
_cell_volume 3724.651017
_symmetry_space_group_name_H-M "C C C A"
_symmetry_group_IT_number 68
_space_group.IT_coordinate_system_code '2'
_symmetry_cell_setting 'orthorhombic'
loop_
_space_group_symop_operation_xyz
x,y,z
-x,1/2-y,z
x,1/2-y,1/2-z
-x,y,1/2-z
-x,-y,-z
x,1/2+y,-z
-x,1/2+y,1/2+z
x,-y,1/2+z
1/2+x,1/2+y,z
1/2-x,-y,z
1/2+x,-y,1/2-z
1/2-x,1/2+y,1/2-z
1/2-x,1/2-y,-z
1/2+x,y,-z
1/2-x,y,1/2+z
1/2+x,1/2-y,1/2+z
loop_
_atom_site_type_symbol
_atom_site_label
_atom_site_fract_x
_atom_site_fract_y
_atom_site_fract_z
Si Si1 0.909759 0.164709 0.689849
Si Si2 0.051289 0.165395 0.144404
Si Si3 0.796958 0.386399 0.057239
Si Si4 0.250000 0.000000 0.782408
Si Si5 0.901471 0.591846 0.529821
Si Si6 0.317753 0.624110 0.625090
O O1 0.893352 0.250000 0.750000
O O2 0.945131 0.386638 0.671500
O O3 0.870758 0.153176 0.642628
O O4 0.930821 0.880948 0.686253
O O5 0.082804 0.155695 0.090387
O O6 0.000000 0.250000 0.128394
O O7 0.750000 0.500000 0.028749
O O8 0.845338 0.414093 0.025833
O O9 0.801063 0.603212 0.103399
O O10 0.801746 0.105681 0.084852
O O11 0.237115 0.750000 0.750000
O O12 0.292633 0.931942 0.819585
O O13 0.918298 0.315876 0.509889
#
# Coordination Sequence:
#
# PCOD9510714 Si02
#       6
#    16  16  16   8  16  16
#     4  12  25  45  73 105 143 191 237 283 353 429
#     4  12  27  48  74 105 143 182 232 298 361 425
#     4  12  23  43  71  98 138 184 232 286 352 416
#     4  12  24  36  58  98 136 178 246 288 330 412
#     4  12  26  46  75 103 138 180 235 295 360 425
#     4  12  22  42  65  95 138 192 230 286 346 407
#
# _framework density 23.626376
#
# number of rings (size 3 to 8) (size 9 to 14) (size 15 to 20)
#    0.000    0.000    5.455    4.909    0.000    5.091 
#    0.000    0.000    0.000    0.000    0.000    0.000 
#    0.000    0.000    0.000    0.000    0.000    0.000 
#
# Total GULP energy -246089.888784 kJ/mol
# GULP energy per Si atom -5592.952018 kJ/mol
# Density = 2.357260 g / cm^3
# Si number density = 23.626376 Si / 1000 Ang^3
#
#
#
# Elastic Constant Matrix: (Units=GPa)
#
#
# Indices 1 2 3 4 5 6 
#
# 1 82.9815 44.0775 4.0670 0.0000 0.0000 0.0000
# 2 44.0775 137.3995 63.3710 0.0000 0.0000 0.0000
# 3 4.0670 63.3710 97.4075 0.0000 0.0000 0.0000
# 4 0.0000 0.0000 0.0000 77.6070 0.0000 0.0000
# 5 0.0000 0.0000 0.0000 0.0000 14.1299 0.0000
# 6 0.0000 0.0000 0.0000 0.0000 0.0000 28.6006
#
#
#
# Elastic Compliance Matrix: (Units=1/GPa)
#
#
# Indices 1 2 3 4 5 6 
#
# 1 0.015393 -0.006632 0.003672 0.000000 0.000000 0.000000
# 2 -0.006632 0.013255 -0.008347 0.000000 0.000000 0.000000
# 3 0.003672 -0.008347 0.015543 0.000000 0.000000 0.000000
# 4 0.000000 0.000000 0.000000 0.012885 0.000000 0.000000
# 5 0.000000 0.000000 0.000000 0.000000 0.070772 0.000000
# 6 0.000000 0.000000 0.000000 0.000000 0.000000 0.034964
#
#
# Mechanical properties :
#
#
# Convention : Reuss Voigt Hill
#
# Bulk Modulus (GPa) = 46.34260 60.09107 53.21683
# Shear Modulus (GPa) = 25.95805 37.81904 31.88854
#
# Velocity S-wave (km/s) = 3.31824 4.00523 3.67781
# Velocity P-wave (km/s) = 5.85989 6.84677 6.37247
#
# Compressibility (1/GPa) = 0.02157842
#
# Stress axis : x y z
#
# Youngs Moduli (GPa) = 64.96263 75.44321 64.33814
#
# Poissons Ratio (x) = 0.50031 -0.23623
# Poissons Ratio (y) = 0.43081 0.53700
# Poissons Ratio (z) = -0.23852 0.62969
#
# Static dielectric constant tensor:
#      x y z
#    x 2.013650 0.000000 0.000000 
#    y 0.000000 1.890110 0.000000 
#    z 0.000000 0.000000 1.871440 
# 
# From -- ./inp_files/47484.got.cif
#   From: 2010.05.17/outbox.cif.g08.bks.cpg/sg68_24_cif.got.tgz:47484.got - 2010.06.03 18:57:09.
