data_PCOD9510946
_publ_section_title
;
Structure prediction by ZEFSAII (Michael W. Deem and Ramdas Pophale) SiO2 
 PCOD9510946
Probable space group: C C C A
;
_chemical_formula_sum "Si O2"
_cell_formula_units_Z 52
_cell_length_a 9.000000
_cell_length_b 21.000000
_cell_length_c 27.000000
_cell_angle_alpha 90.000000
_cell_angle_beta 90.000000
_cell_angle_gamma 90.000000
_cell_volume 5103.000000
_symmetry_space_group_name_H-M "C C C A"
_symmetry_group_IT_number 68
_space_group.IT_coordinate_system_code '2'
_symmetry_cell_setting 'orthorhombic'
loop_
_space_group_symop_operation_xyz
x,y,z
-x,1/2-y,z
x,1/2-y,1/2-z
-x,y,1/2-z
-x,-y,-z
x,1/2+y,-z
-x,1/2+y,1/2+z
x,-y,1/2+z
1/2+x,1/2+y,z
1/2-x,-y,z
1/2+x,-y,1/2-z
1/2-x,1/2+y,1/2-z
1/2-x,1/2-y,-z
1/2+x,y,-z
1/2-x,y,1/2+z
1/2+x,1/2-y,1/2+z
loop_
_atom_site_type_symbol
_atom_site_label
_atom_site_fract_x
_atom_site_fract_y
_atom_site_fract_z
Si Si1 0.976295 0.035748 0.690493
Si Si2 0.797045 0.929528 0.560352
Si Si3 0.305642 0.633932 0.865081
Si Si4 0.500000 0.750000 0.850318
Si Si5 0.476004 0.611072 0.307700
Si Si6 0.273779 0.141525 0.342665
Si Si7 0.655894 0.934983 0.454106
O O1 0.823603 0.074763 0.682894
O O2 0.000000 0.037677 0.750000
O O3 0.085344 0.079423 0.656865
O O4 0.002588 0.962598 0.673768
O O5 0.739846 0.877193 0.599439
O O6 0.708258 0.918374 0.509440
O O7 0.975808 0.934699 0.550666
O O8 0.750000 0.000000 0.578700
O O9 0.392696 0.698858 0.875979
O O10 0.219556 0.612588 0.913592
O O11 0.181795 0.638763 0.822632
O O12 0.615693 0.698455 0.826699
O O13 0.500000 0.607161 0.250000
O O14 0.605902 0.654844 0.328291
O O15 0.750000 0.000000 0.444112
#
# Coordination Sequence:
#
# PCOD9510946 Si02
#       7
#    16  16  16   8  16  16  16
#     4  10  21  37  64  99 130 161 198 251 321 383
#     4  11  23  38  67 103 132 159 199 252 320 382
#     4  11  23  42  63  88 129 168 209 255 309 360
#     4  10  28  44  63  78 122 174 224 254 295 366
#     4  11  21  38  65  99 126 153 201 261 321 378
#     4  11  23  42  63  88 129 168 209 255 309 360
#     4  11  23  38  67 103 132 159 199 252 320 382
#
# _framework density 10.190084000000001
#
# number of rings (size 3 to 8) (size 9 to 14) (size 15 to 20)
#    0.000    1.231    1.538    5.538    8.615    3.077 
#    0.000   15.385    0.000    0.000    0.000    0.000 
#    0.000    0.000    0.000    0.000    0.000    0.000 
#
# Total GULP energy -289898.621591 kJ/mol
# GULP energy per Si atom -5574.973492 kJ/mol
# Density = 1.016689 g / cm^3
# Si number density = 10.190084 Si / 1000 Ang^3
#
#
#
# Elastic Constant Matrix: (Units=GPa)
#
#
# Indices 1 2 3 4 5 6 
#
# 1 108.9181 33.0742 4.8759 0.0000 0.0000 0.0000
# 2 33.0742 73.7352 25.9974 0.0000 0.0000 0.0000
# 3 4.8759 25.9974 62.3314 0.0000 0.0000 0.0000
# 4 0.0000 0.0000 0.0000 3.3473 0.0000 0.0000
# 5 0.0000 0.0000 0.0000 0.0000 25.4827 0.0000
# 6 0.0000 0.0000 0.0000 0.0000 0.0000 29.1258
#
#
#
# Elastic Compliance Matrix: (Units=1/GPa)
#
#
# Indices 1 2 3 4 5 6 
#
# 1 0.010728 -0.005295 0.001369 0.000000 0.000000 0.000000
# 2 -0.005295 0.018513 -0.007307 0.000000 0.000000 0.000000
# 3 0.001369 -0.007307 0.018984 0.000000 0.000000 0.000000
# 4 0.000000 0.000000 0.000000 0.298748 0.000000 0.000000
# 5 0.000000 0.000000 0.000000 0.000000 0.039242 0.000000
# 6 0.000000 0.000000 0.000000 0.000000 0.000000 0.034334
#
#
# Mechanical properties :
#
#
# Convention : Reuss Voigt Hill
#
# Bulk Modulus (GPa) = 38.82116 41.43107 40.12611
# Shear Modulus (GPa) = 11.07170 23.66029 17.36600
#
# Velocity S-wave (km/s) = 2.33332 3.41096 2.92225
# Velocity P-wave (km/s) = 5.13313 5.99050 5.57831
#
# Compressibility (1/GPa) = 0.02575915
#
# Stress axis : x y z
#
# Youngs Moduli (GPa) = 93.21655 54.01476 52.67591
#
# Poissons Ratio (x) = 0.28599 -0.07212
# Poissons Ratio (y) = 0.49355 0.38493
# Poissons Ratio (z) = -0.12763 0.39471
#
# Static dielectric constant tensor:
#      x y z
#    x 1.783520 0.000000 0.000000 
#    y 0.000000 1.717290 0.000000 
#    z 0.000000 0.000000 1.759410 
# 
# From -- ./inp_files/49427.got.cif
#   From: 2010.05.17/outbox.ucp.g08.bks.cvg/sg68_25_cif.got.tgz:49427.got - 2010.06.11 16:49:25.
