data_PCOD9510765
_publ_section_title
;
Structure prediction by ZEFSAII (Michael W. Deem and Ramdas Pophale) SiO2 
 PCOD9510765
Probable space group: C C C A
;
_chemical_formula_sum "Si O2"
_cell_formula_units_Z 72
_cell_length_a 7.740950
_cell_length_b 25.579654
_cell_length_c 16.459686
_cell_angle_alpha 90.000000
_cell_angle_beta 90.000000
_cell_angle_gamma 90.000000
_cell_volume 3259.195965
_symmetry_space_group_name_H-M "C C C A"
_symmetry_group_IT_number 68
_space_group.IT_coordinate_system_code '2'
_symmetry_cell_setting 'orthorhombic'
loop_
_space_group_symop_operation_xyz
x,y,z
-x,1/2-y,z
x,1/2-y,1/2-z
-x,y,1/2-z
-x,-y,-z
x,1/2+y,-z
-x,1/2+y,1/2+z
x,-y,1/2+z
1/2+x,1/2+y,z
1/2-x,-y,z
1/2+x,-y,1/2-z
1/2-x,1/2+y,1/2-z
1/2-x,1/2-y,-z
1/2+x,y,-z
1/2-x,y,1/2+z
1/2+x,1/2-y,1/2+z
loop_
_atom_site_type_symbol
_atom_site_label
_atom_site_fract_x
_atom_site_fract_y
_atom_site_fract_z
Si Si1 0.154937 0.215351 0.567254
Si Si2 0.500000 0.911028 0.750000
Si Si3 0.058333 0.112670 0.463207
Si Si4 0.132719 0.449357 0.586794
Si Si5 0.157459 0.648476 0.813182
O O1 0.250000 0.250000 0.500000
O O2 0.081655 0.163629 0.520549
O O3 0.279280 0.200519 0.641165
O O4 0.000000 0.250000 0.599992
O O5 0.545219 0.946851 0.673717
O O6 0.670717 0.877514 0.774399
O O7 0.240342 0.100593 0.421836
O O8 0.007467 0.063477 0.518687
O O9 0.918869 0.117325 0.391403
O O10 0.250000 0.500000 0.578951
O O11 0.000000 0.653953 0.750000
#
# Coordination Sequence:
#
# PCOD9510765 Si02
#       5
#    16   8  16  16  16
#     4  12  24  45  78 110 146 204 260 316 393 474
#     4  12  26  46  73 112 158 204 247 330 400 458
#     4  12  23  47  74 106 152 201 257 322 381 463
#     4  12  25  44  77 112 152 205 260 319 392 474
#     4  12  26  47  78 107 160 202 252 325 401 454
#
# _framework density 22.091336999999999
#
# number of rings (size 3 to 8) (size 9 to 14) (size 15 to 20)
#    0.000    0.000    8.889    0.667    0.000    1.778 
#    0.000    8.333    0.000    0.000    0.000    0.000 
#    0.000    0.000    0.000    0.000    0.000    0.000 
#
# Total GULP energy -201269.790015 kJ/mol
# GULP energy per Si atom -5590.827500 kJ/mol
# Density = 2.204106 g / cm^3
# Si number density = 22.091337 Si / 1000 Ang^3
#
#
#
# Elastic Constant Matrix: (Units=GPa)
#
#
# Indices 1 2 3 4 5 6 
#
# 1 126.8480 41.5917 67.8274 0.0000 0.0000 0.0000
# 2 41.5917 96.6859 54.4825 0.0000 0.0000 0.0000
# 3 67.8274 54.4825 166.7753 0.0000 0.0000 0.0000
# 4 0.0000 0.0000 0.0000 -38.6547 0.0000 0.0000
# 5 0.0000 0.0000 0.0000 0.0000 56.6586 0.0000
# 6 0.0000 0.0000 0.0000 0.0000 0.0000 52.0804
#
#
#
# Elastic Compliance Matrix: (Units=1/GPa)
#
#
# Indices 1 2 3 4 5 6 
#
# 1 0.010585 -0.002608 -0.003453 0.000000 0.000000 0.000000
# 2 -0.002608 0.013319 -0.003290 0.000000 0.000000 0.000000
# 3 -0.003453 -0.003290 0.008475 0.000000 0.000000 0.000000
# 4 0.000000 0.000000 0.000000 -0.025870 0.000000 0.000000
# 5 0.000000 0.000000 0.000000 0.000000 0.017650 0.000000
# 6 0.000000 0.000000 0.000000 0.000000 0.000000 0.019201
#
#
# Mechanical properties :
#
#
# Convention : Reuss Voigt Hill
#
# Bulk Modulus (GPa) = 73.11658 79.79028 76.45343
# Shear Modulus (GPa) = 75.05219 29.11071 52.08145
#
# Velocity S-wave (km/s) = 5.83501 3.63401 4.86073
# Velocity P-wave (km/s) = 8.86373 7.33518 8.13543
#
# Compressibility (1/GPa) = 0.01367679
#
# Stress axis : x y z
#
# Youngs Moduli (GPa) = 94.47521 75.08266 117.98898
#
# Poissons Ratio (x) = 0.19578 0.40742
# Poissons Ratio (y) = 0.24635 0.38824
# Poissons Ratio (z) = 0.32622 0.24706
#
# Static dielectric constant tensor:
#      x y z
#    x 2.215720 0.000000 0.000000 
#    y 0.000000 1.836090 0.000000 
#    z 0.000000 0.000000 1.803980 
# 
# From -- ./inp_files/19450.got.cif
#   From: 2010.05.17/outbox.cif.g08.bks.cpg/sg68_10_cif.got.tgz:19450.got - 2010.06.03 18:57:09.
