data_PCOD9510397
_publ_section_title
;
Structure prediction by ZEFSAII (Michael W. Deem and Ramdas Pophale) SiO2 
 PCOD9510397
Probable space group: C C C A
;
_chemical_formula_sum "Si O2"
_cell_formula_units_Z 88
_cell_length_a 29.424162
_cell_length_b 11.799844
_cell_length_c 10.643046
_cell_angle_alpha 90.000000
_cell_angle_beta 90.000000
_cell_angle_gamma 90.000000
_cell_volume 3695.271121
_symmetry_space_group_name_H-M "C C C A"
_symmetry_group_IT_number 68
_space_group.IT_coordinate_system_code '2'
_symmetry_cell_setting 'orthorhombic'
loop_
_space_group_symop_operation_xyz
x,y,z
-x,1/2-y,z
x,1/2-y,1/2-z
-x,y,1/2-z
-x,-y,-z
x,1/2+y,-z
-x,1/2+y,1/2+z
x,-y,1/2+z
1/2+x,1/2+y,z
1/2-x,-y,z
1/2+x,-y,1/2-z
1/2-x,1/2+y,1/2-z
1/2-x,1/2-y,-z
1/2+x,y,-z
1/2-x,y,1/2+z
1/2+x,1/2-y,1/2+z
loop_
_atom_site_type_symbol
_atom_site_label
_atom_site_fract_x
_atom_site_fract_y
_atom_site_fract_z
Si Si1 0.369897 0.050000 0.695087
Si Si2 0.287151 0.076985 0.843787
Si Si3 0.570212 0.250000 0.750000
Si Si4 0.662461 0.270142 0.495252
Si Si5 0.573523 0.330703 0.129842
Si Si6 0.000000 0.750000 0.538714
Si Si7 0.276445 0.750000 0.750000
O O1 0.327682 0.008876 0.778021
O O2 0.397254 0.144222 0.774435
O O3 0.348162 0.116818 0.576102
O O4 0.404549 0.950680 0.663950
O O5 0.257158 0.142525 0.739124
O O6 0.250000 0.000000 0.913558
O O7 0.311186 0.175274 0.923301
O O8 0.538652 0.290286 0.635331
O O9 0.613011 0.228879 0.450923
O O10 0.693131 0.274090 0.370997
O O11 0.565697 0.250000 0.250000
O O12 0.526903 0.336586 0.050758
#
# Coordination Sequence:
#
# PCOD9510397 Si02
#       7
#    16  16   8  16  16   8   8
#     4  12  25  52  81 109 159 209 256 327 397 473
#     4  12  26  44  75 110 154 208 269 321 380 459
#     4  11  23  52  83 112 148 202 263 308 397 487
#     4  12  25  48  73 106 158 207 262 322 393 461
#     4  12  28  49  77 115 156 195 260 327 402 474
#     4  11  25  52  76 116 151 189 258 322 390 491
#     4  12  25  46  67 111 154 201 271 314 373 456
#
# _framework density 23.814222000000001
#
# number of rings (size 3 to 8) (size 9 to 14) (size 15 to 20)
#    0.000    0.182    6.364    1.909    2.545    2.909 
#    6.545    0.000    0.000    0.000    0.000    0.000 
#    0.000    0.000    0.000    0.000    0.000    0.000 
#
# Total GULP energy -246097.280991 kJ/mol
# GULP energy per Si atom -5593.120023 kJ/mol
# Density = 2.376002 g / cm^3
# Si number density = 23.814222 Si / 1000 Ang^3
#
#
#
# Elastic Constant Matrix: (Units=GPa)
#
#
# Indices 1 2 3 4 5 6 
#
# 1 165.5696 52.0504 65.9550 0.0000 0.0000 0.0000
# 2 52.0504 103.3208 51.1931 0.0000 0.0000 0.0000
# 3 65.9550 51.1931 121.8893 0.0000 0.0000 0.0000
# 4 0.0000 0.0000 0.0000 20.7829 0.0000 0.0000
# 5 0.0000 0.0000 0.0000 0.0000 24.3810 0.0000
# 6 0.0000 0.0000 0.0000 0.0000 0.0000 32.1146
#
#
#
# Elastic Compliance Matrix: (Units=1/GPa)
#
#
# Indices 1 2 3 4 5 6 
#
# 1 0.008154 -0.002427 -0.003393 0.000000 0.000000 0.000000
# 2 -0.002427 0.012944 -0.004123 0.000000 0.000000 0.000000
# 3 -0.003393 -0.004123 0.011772 0.000000 0.000000 0.000000
# 4 0.000000 0.000000 0.000000 0.048116 0.000000 0.000000
# 5 0.000000 0.000000 0.000000 0.000000 0.041015 0.000000
# 6 0.000000 0.000000 0.000000 0.000000 0.000000 0.031138
#
#
# Mechanical properties :
#
#
# Convention : Reuss Voigt Hill
#
# Bulk Modulus (GPa) = 77.01783 81.01964 79.01874
# Shear Modulus (GPa) = 28.19199 30.22779 29.20989
#
# Velocity S-wave (km/s) = 3.44442 3.56661 3.50605
# Velocity P-wave (km/s) = 6.94478 7.14537 7.04579
#
# Compressibility (1/GPa) = 0.01298401
#
# Stress axis : x y z
#
# Youngs Moduli (GPa) = 122.63458 77.25495 84.94719
#
# Poissons Ratio (x) = 0.18748 0.28824
# Poissons Ratio (y) = 0.29760 0.35027
# Poissons Ratio (z) = 0.41612 0.31855
#
# Static dielectric constant tensor:
#      x y z
#    x 1.885470 0.000000 0.000000 
#    y 0.000000 1.939950 0.000000 
#    z 0.000000 0.000000 1.974510 
# 
# From -- ./inp_files/17661.got.cif
#   From: 2010.05.17/outbox.cif.g08.bks.cpg/sg68_9_cif.got.tgz:17661.got - 2010.06.03 18:57:09.
