data_PCOD9510691
_publ_section_title
;
Structure prediction by ZEFSAII (Michael W. Deem and Ramdas Pophale) SiO2 
 PCOD9510691
Probable space group: C C C A
;
_chemical_formula_sum "Si O2"
_cell_formula_units_Z 96
_cell_length_a 22.629161
_cell_length_b 17.477840
_cell_length_c 10.617014
_cell_angle_alpha 90.000000
_cell_angle_beta 90.000000
_cell_angle_gamma 90.000000
_cell_volume 4199.123054
_symmetry_space_group_name_H-M "C C C A"
_symmetry_group_IT_number 68
_space_group.IT_coordinate_system_code '2'
_symmetry_cell_setting 'orthorhombic'
loop_
_space_group_symop_operation_xyz
x,y,z
-x,1/2-y,z
x,1/2-y,1/2-z
-x,y,1/2-z
-x,-y,-z
x,1/2+y,-z
-x,1/2+y,1/2+z
x,-y,1/2+z
1/2+x,1/2+y,z
1/2-x,-y,z
1/2+x,-y,1/2-z
1/2-x,1/2+y,1/2-z
1/2-x,1/2-y,-z
1/2+x,y,-z
1/2-x,y,1/2+z
1/2+x,1/2-y,1/2+z
loop_
_atom_site_type_symbol
_atom_site_label
_atom_site_fract_x
_atom_site_fract_y
_atom_site_fract_z
Si Si1 0.658929 0.750000 0.750000
Si Si2 0.750000 0.500000 0.729723
Si Si3 0.855505 0.970597 0.948809
Si Si4 0.864360 0.630031 0.938126
Si Si5 0.766840 0.358530 0.912897
Si Si6 0.564975 0.137807 0.812869
Si Si7 0.566956 0.259668 0.436609
O O1 0.708407 0.715614 0.846195
O O2 0.606635 0.797393 0.671715
O O3 0.808817 0.493707 0.648064
O O4 0.749619 0.424218 0.812286
O O5 0.913452 0.940080 0.879617
O O6 0.816624 0.899780 0.002444
O O7 0.869533 0.038505 0.045687
O O8 0.797602 0.654614 0.970878
O O9 0.887721 0.651779 0.799140
O O10 0.903319 0.677055 0.037699
O O11 0.500000 0.136556 0.750000
O O12 0.567019 0.197754 0.927948
O O13 0.500000 0.250000 0.398695
#
# Coordination Sequence:
#
# PCOD9510691 Si02
#       7
#     8   8  16  16  16  16  16
#     4  12  29  44  72 110 145 188 248 308 372 448
#     4  12  20  42  70 100 148 188 224 292 376 434
#     4  12  23  45  73 108 146 192 238 302 377 444
#     4  12  25  42  76 111 143 190 246 301 372 450
#     4  12  24  42  69 111 149 185 235 306 376 447
#     4  12  26  48  74 103 145 195 251 305 370 442
#     4  12  27  50  72  99 142 199 246 302 367 439
#
# _framework density 22.861916999999998
#
# number of rings (size 3 to 8) (size 9 to 14) (size 15 to 20)
#    0.000    0.000    8.333    1.750    2.333    1.333 
#    0.000    0.000    0.000    0.000    0.000    0.000 
#    0.000    0.000    0.000    0.000    0.000    0.000 
#
# Total GULP energy -267430.462383 kJ/mol
# GULP energy per Si atom -5571.467966 kJ/mol
# Density = 2.280988 g / cm^3
# Si number density = 22.861917 Si / 1000 Ang^3
#
#
#
# Elastic Constant Matrix: (Units=GPa)
#
#
# Indices 1 2 3 4 5 6 
#
# 1 136.6843 47.8794 30.5357 0.0000 0.0000 0.0000
# 2 47.8794 47.7765 36.4385 0.0000 0.0000 0.0000
# 3 30.5357 36.4385 90.2419 0.0000 0.0000 0.0000
# 4 0.0000 0.0000 0.0000 54.6429 0.0000 0.0000
# 5 0.0000 0.0000 0.0000 0.0000 42.1784 0.0000
# 6 0.0000 0.0000 0.0000 0.0000 0.0000 27.9021
#
#
#
# Elastic Compliance Matrix: (Units=1/GPa)
#
#
# Indices 1 2 3 4 5 6 
#
# 1 0.011347 -0.012200 0.001087 0.000000 0.000000 0.000000
# 2 -0.012200 0.043363 -0.013381 0.000000 0.000000 0.000000
# 3 0.001087 -0.013381 0.016117 0.000000 0.000000 0.000000
# 4 0.000000 0.000000 0.000000 0.018301 0.000000 0.000000
# 5 0.000000 0.000000 0.000000 0.000000 0.023709 0.000000
# 6 0.000000 0.000000 0.000000 0.000000 0.000000 0.035840
#
#
# Mechanical properties :
#
#
# Convention : Reuss Voigt Hill
#
# Bulk Modulus (GPa) = 45.79305 56.04553 50.91929
# Shear Modulus (GPa) = 24.39693 35.60131 29.99912
#
# Velocity S-wave (km/s) = 3.27026 3.95046 3.62634
# Velocity P-wave (km/s) = 5.85946 6.73618 6.31306
#
# Compressibility (1/GPa) = 0.02183738
#
# Stress axis : x y z
#
# Youngs Moduli (GPa) = 88.12905 23.06122 62.04750
#
# Poissons Ratio (x) = 0.28135 -0.06743
# Poissons Ratio (y) = 1.07520 0.83026
# Poissons Ratio (z) = -0.09577 0.30858
#
# Static dielectric constant tensor:
#      x y z
#    x 1.854470 0.000000 0.000000 
#    y 0.000000 1.898730 0.000000 
#    z 0.000000 0.000000 1.963510 
# 
# From -- ./inp_files/16474.got.cif
#   From: 2010.05.17/outbox.cif.g08.bks.cpg/sg68_9_cif.got.tgz:16474.got - 2010.06.03 18:57:09.
