data_PCOD9510435
_publ_section_title
;
Structure prediction by ZEFSAII (Michael W. Deem and Ramdas Pophale) SiO2 
 PCOD9510435
Probable space group: C C C A
;
_chemical_formula_sum "Si O2"
_cell_formula_units_Z 48
_cell_length_a 11.436046
_cell_length_b 10.282851
_cell_length_c 19.953700
_cell_angle_alpha 90.000000
_cell_angle_beta 90.000000
_cell_angle_gamma 90.000000
_cell_volume 2346.458485
_symmetry_space_group_name_H-M "C C C A"
_symmetry_group_IT_number 68
_space_group.IT_coordinate_system_code '2'
_symmetry_cell_setting 'orthorhombic'
loop_
_space_group_symop_operation_xyz
x,y,z
-x,1/2-y,z
x,1/2-y,1/2-z
-x,y,1/2-z
-x,-y,-z
x,1/2+y,-z
-x,1/2+y,1/2+z
x,-y,1/2+z
1/2+x,1/2+y,z
1/2-x,-y,z
1/2+x,-y,1/2-z
1/2-x,1/2+y,1/2-z
1/2-x,1/2-y,-z
1/2+x,y,-z
1/2-x,y,1/2+z
1/2+x,1/2-y,1/2+z
loop_
_atom_site_type_symbol
_atom_site_label
_atom_site_fract_x
_atom_site_fract_y
_atom_site_fract_z
Si Si1 0.123818 0.825412 0.189163
Si Si2 0.000000 0.750000 0.865994
Si Si3 0.722635 0.148094 0.941785
Si Si4 0.000000 0.936937 0.750000
O O1 0.185449 0.750000 0.250000
O O2 0.193719 0.827363 0.121457
O O3 0.000000 0.750000 0.178997
O O4 0.094916 0.968885 0.215954
O O5 0.093532 0.677273 0.912694
O O6 0.949512 0.646356 0.811917
O O7 0.750000 0.000000 0.963763
O O8 0.750000 0.250000 0.000000
#
# Coordination Sequence:
#
# PCOD9510435 Si02
#       4
#    16   8  16   8
#     4   9  21  42  70 101 133 174 235 301 365 418
#     4  11  24  42  72 104 133 184 246 300 373 426
#     4  12  28  45  68 100 147 194 238 296 360 450
#     4   9  19  42  72 102 133 171 236 318 348 431
#
# _framework density 20.45636
#
# number of rings (size 3 to 8) (size 9 to 14) (size 15 to 20)
#    0.000    2.000    3.333    0.000    7.000    6.667 
#    0.000    0.000    0.000    0.000    0.000    0.000 
#    0.000    0.000    0.000    0.000    0.000    0.000 
#
# Total GULP energy -133978.300457 kJ/mol
# GULP energy per Si atom -5582.429186 kJ/mol
# Density = 2.040980 g / cm^3
# Si number density = 20.456360 Si / 1000 Ang^3
#
#
#
# Elastic Constant Matrix: (Units=GPa)
#
#
# Indices 1 2 3 4 5 6 
#
# 1 83.0696 42.9983 43.8694 0.0000 0.0000 0.0000
# 2 42.9983 159.8655 83.0788 0.0000 0.0000 0.0000
# 3 43.8694 83.0788 151.6134 0.0000 0.0000 0.0000
# 4 0.0000 0.0000 0.0000 75.4927 0.0000 0.0000
# 5 0.0000 0.0000 0.0000 0.0000 25.4996 0.0000
# 6 0.0000 0.0000 0.0000 0.0000 0.0000 16.5944
#
#
#
# Elastic Compliance Matrix: (Units=1/GPa)
#
#
# Indices 1 2 3 4 5 6 
#
# 1 0.014874 -0.002466 -0.002952 0.000000 0.000000 0.000000
# 2 -0.002466 0.009155 -0.004303 0.000000 0.000000 0.000000
# 3 -0.002952 -0.004303 0.009808 0.000000 0.000000 0.000000
# 4 0.000000 0.000000 0.000000 0.013246 0.000000 0.000000
# 5 0.000000 0.000000 0.000000 0.000000 0.039216 0.000000
# 6 0.000000 0.000000 0.000000 0.000000 0.000000 0.060261
#
#
# Mechanical properties :
#
#
# Convention : Reuss Voigt Hill
#
# Bulk Modulus (GPa) = 69.47608 81.60458 75.54033
# Shear Modulus (GPa) = 29.27386 38.49081 33.88234
#
# Velocity S-wave (km/s) = 3.78701 4.34245 4.07421
# Velocity P-wave (km/s) = 7.29101 8.06977 7.69025
#
# Compressibility (1/GPa) = 0.01439344
#
# Stress axis : x y z
#
# Youngs Moduli (GPa) = 67.23223 109.23356 101.95996
#
# Poissons Ratio (x) = 0.26940 0.30102
# Poissons Ratio (y) = 0.16581 0.43872
# Poissons Ratio (z) = 0.19849 0.47001
#
# Static dielectric constant tensor:
#      x y z
#    x 1.792830 0.000000 0.000000 
#    y 0.000000 1.784080 0.000000 
#    z 0.000000 0.000000 1.685460 
# 
# From -- ./inp_files/28836.got.cif
#   From: 2010.05.17/outbox.cif.g08.bks.cpg/sg68_15_cif.got.tgz:28836.got - 2010.06.03 18:57:09.
