data_PCOD9510361
_publ_section_title
;
Structure prediction by ZEFSAII (Michael W. Deem and Ramdas Pophale) SiO2 
 PCOD9510361
Probable space group: C C C A
;
_chemical_formula_sum "Si O2"
_cell_formula_units_Z 80
_cell_length_a 8.518125
_cell_length_b 20.725575
_cell_length_c 20.674254
_cell_angle_alpha 90.000000
_cell_angle_beta 90.000000
_cell_angle_gamma 90.000000
_cell_volume 3649.895621
_symmetry_space_group_name_H-M "C C C A"
_symmetry_group_IT_number 68
_space_group.IT_coordinate_system_code '2'
_symmetry_cell_setting 'orthorhombic'
loop_
_space_group_symop_operation_xyz
x,y,z
-x,1/2-y,z
x,1/2-y,1/2-z
-x,y,1/2-z
-x,-y,-z
x,1/2+y,-z
-x,1/2+y,1/2+z
x,-y,1/2+z
1/2+x,1/2+y,z
1/2-x,-y,z
1/2+x,-y,1/2-z
1/2-x,1/2+y,1/2-z
1/2-x,1/2-y,-z
1/2+x,y,-z
1/2-x,y,1/2+z
1/2+x,1/2-y,1/2+z
loop_
_atom_site_type_symbol
_atom_site_label
_atom_site_fract_x
_atom_site_fract_y
_atom_site_fract_z
Si Si1 0.289779 0.362081 0.636978
Si Si2 0.432024 0.117230 0.114036
Si Si3 0.184483 0.267598 0.819805
Si Si4 0.500000 0.075077 0.750000
Si Si5 0.881928 0.197081 0.017281
Si Si6 0.250000 0.000000 0.659758
O O1 0.267874 0.284543 0.637108
O O2 0.398221 0.385931 0.695557
O O3 0.356275 0.364584 0.564410
O O4 0.111206 0.388980 0.639912
O O5 0.319099 0.158543 0.162136
O O6 0.346605 0.049091 0.114121
O O7 0.435536 0.162100 0.049989
O O8 0.246778 0.250000 0.750000
O O9 0.000000 0.250000 0.821146
O O10 0.377471 0.033232 0.707494
O O11 0.000000 0.250000 0.044778
O O12 0.750000 0.250000 0.000000
#
# Coordination Sequence:
#
# PCOD9510361 Si02
#       6
#    16  16  16   8  16   8
#     4  11  24  43  73 103 139 179 239 306 363 420
#     4  11  23  45  69 101 144 192 233 288 363 430
#     4   9  17  33  62  97 130 172 222 288 359 417
#     4  12  28  48  71 102 139 194 250 300 356 430
#     4  12  23  43  76 112 146 184 233 299 371 430
#     4  12  28  48  70  96 146 198 244 294 350 436
#
# _framework density 21.918436
#
# number of rings (size 3 to 8) (size 9 to 14) (size 15 to 20)
#    0.000    1.000    4.000    3.000    2.800    4.800 
#    0.000    6.000    0.000    0.000    0.000    0.000 
#    0.000    0.000    0.000    0.000    0.000    0.000 
#
# Total GULP energy -222698.113870 kJ/mol
# GULP energy per Si atom -5567.452847 kJ/mol
# Density = 2.186855 g / cm^3
# Si number density = 21.918436 Si / 1000 Ang^3
#
#
#
# Elastic Constant Matrix: (Units=GPa)
#
#
# Indices 1 2 3 4 5 6 
#
# 1 110.2255 55.7281 24.5051 0.0000 0.0000 0.0000
# 2 55.7281 98.1449 27.3459 0.0000 0.0000 0.0000
# 3 24.5051 27.3459 85.3839 0.0000 0.0000 0.0000
# 4 0.0000 0.0000 0.0000 23.6847 0.0000 0.0000
# 5 0.0000 0.0000 0.0000 0.0000 33.9064 0.0000
# 6 0.0000 0.0000 0.0000 0.0000 0.0000 37.7308
#
#
#
# Elastic Compliance Matrix: (Units=1/GPa)
#
#
# Indices 1 2 3 4 5 6 
#
# 1 0.012896 -0.006908 -0.001489 0.000000 0.000000 0.000000
# 2 -0.006908 0.014887 -0.002786 0.000000 0.000000 0.000000
# 3 -0.001489 -0.002786 0.013031 0.000000 0.000000 0.000000
# 4 0.000000 0.000000 0.000000 0.042221 0.000000 0.000000
# 5 0.000000 0.000000 0.000000 0.000000 0.029493 0.000000
# 6 0.000000 0.000000 0.000000 0.000000 0.000000 0.026504
#
#
# Mechanical properties :
#
#
# Convention : Reuss Voigt Hill
#
# Bulk Modulus (GPa) = 54.19888 56.54584 55.37236
# Shear Modulus (GPa) = 29.84260 31.47607 30.65934
#
# Velocity S-wave (km/s) = 3.69389 3.79364 3.74410
# Velocity P-wave (km/s) = 6.55548 6.71143 6.63391
#
# Compressibility (1/GPa) = 0.01845056
#
# Stress axis : x y z
#
# Youngs Moduli (GPa) = 77.54580 67.17130 76.73898
#
# Poissons Ratio (x) = 0.46399 0.11425
# Poissons Ratio (y) = 0.53565 0.21376
# Poissons Ratio (z) = 0.11545 0.18711
#
# Static dielectric constant tensor:
#      x y z
#    x 1.587070 0.000000 0.000000 
#    y 0.000000 1.820340 0.000000 
#    z 0.000000 0.000000 2.174400 
# 
# From -- ./inp_files/43057.got.cif
#   From: 2010.05.17/outbox.cif.g08.bks.cpg/sg68_22_cif.got.tgz:43057.got - 2010.06.03 18:57:09.
