data_PCOD9510559
_publ_section_title
;
Structure prediction by ZEFSAII (Michael W. Deem and Ramdas Pophale) SiO2 
 PCOD9510559
Probable space group: C C C A
;
_chemical_formula_sum "Si O2"
_cell_formula_units_Z 116
_cell_length_a 26.440116
_cell_length_b 22.514096
_cell_length_c 8.688669
_cell_angle_alpha 90.000000
_cell_angle_beta 90.000000
_cell_angle_gamma 90.000000
_cell_volume 5172.150131
_symmetry_space_group_name_H-M "C C C A"
_symmetry_group_IT_number 68
_space_group.IT_coordinate_system_code '2'
_symmetry_cell_setting 'orthorhombic'
loop_
_space_group_symop_operation_xyz
x,y,z
-x,1/2-y,z
x,1/2-y,1/2-z
-x,y,1/2-z
-x,-y,-z
x,1/2+y,-z
-x,1/2+y,1/2+z
x,-y,1/2+z
1/2+x,1/2+y,z
1/2-x,-y,z
1/2+x,-y,1/2-z
1/2-x,1/2+y,1/2-z
1/2-x,1/2-y,-z
1/2+x,y,-z
1/2-x,y,1/2+z
1/2+x,1/2-y,1/2+z
loop_
_atom_site_type_symbol
_atom_site_label
_atom_site_fract_x
_atom_site_fract_y
_atom_site_fract_z
Si Si1 0.551797 0.360925 0.107915
Si Si2 0.478761 0.440007 0.926244
Si Si3 0.000000 0.250000 0.750000
Si Si4 0.279022 0.706688 0.887724
Si Si5 0.814682 0.379524 0.108783
Si Si6 0.848101 0.619898 0.952271
Si Si7 0.383639 0.417384 0.114389
Si Si8 0.192909 0.514820 0.337903
O O1 0.536102 0.294121 0.151858
O O2 0.577949 0.391727 0.256732
O O3 0.502133 0.388361 0.031173
O O4 0.593001 0.379386 0.981424
O O5 0.500000 0.436383 0.750000
O O6 0.500000 0.500000 0.000000
O O7 0.418943 0.439756 0.971610
O O8 0.291078 0.750000 0.750000
O O9 0.238844 0.652691 0.869390
O O10 0.250000 0.750000 0.000000
O O11 0.327697 0.677180 0.958705
O O12 0.839532 0.371210 0.273405
O O13 0.814308 0.450366 0.089352
O O14 0.847368 0.365254 0.956687
O O15 0.817380 0.564402 0.028443
O O16 0.348156 0.463900 0.210547
O O17 0.250000 0.500000 0.273365
#
# Coordination Sequence:
#
# PCOD9510559 Si02
#       8
#    16  16   4  16  16  16  16  16
#     4  11  26  49  75 111 141 199 249 310 383 442
#     4  12  26  48  79 110 154 194 250 315 381 461
#     4  12  24  52  78 104 152 188 262 310 376 456
#     4  12  27  47  68  99 140 196 251 307 361 443
#     4  12  26  44  71 106 148 187 247 303 368 451
#     4  11  26  46  72 103 146 193 250 302 379 445
#     4  11  26  44  74 110 148 189 248 300 387 445
#     4  11  25  44  72 108 150 191 240 308 377 448
#
# _framework density 22.427810999999998
#
# number of rings (size 3 to 8) (size 9 to 14) (size 15 to 20)
#    0.000    0.552    4.138    2.483   14.483    1.103 
#    0.000    0.345    0.000    0.000    0.000    0.000 
#    0.000    0.000    0.000    0.000    0.000    0.000 
#
# Total GULP energy -323208.640699 kJ/mol
# GULP energy per Si atom -5572.562771 kJ/mol
# Density = 2.237676 g / cm^3
# Si number density = 22.427811 Si / 1000 Ang^3
#
#
#
# Elastic Constant Matrix: (Units=GPa)
#
#
# Indices 1 2 3 4 5 6 
#
# 1 97.4039 19.9851 5.1586 0.0000 0.0000 0.0000
# 2 19.9851 96.3610 17.7839 0.0000 0.0000 0.0000
# 3 5.1586 17.7839 93.6839 0.0000 0.0000 0.0000
# 4 0.0000 0.0000 0.0000 29.2830 0.0000 0.0000
# 5 0.0000 0.0000 0.0000 0.0000 25.3990 0.0000
# 6 0.0000 0.0000 0.0000 0.0000 0.0000 34.7978
#
#
#
# Elastic Compliance Matrix: (Units=1/GPa)
#
#
# Indices 1 2 3 4 5 6 
#
# 1 0.010726 -0.002192 -0.000174 0.000000 0.000000 0.000000
# 2 -0.002192 0.011203 -0.002006 0.000000 0.000000 0.000000
# 3 -0.000174 -0.002006 0.011065 0.000000 0.000000 0.000000
# 4 0.000000 0.000000 0.000000 0.034150 0.000000 0.000000
# 5 0.000000 0.000000 0.000000 0.000000 0.039372 0.000000
# 6 0.000000 0.000000 0.000000 0.000000 0.000000 0.028737
#
#
# Mechanical properties :
#
#
# Convention : Reuss Voigt Hill
#
# Bulk Modulus (GPa) = 41.24131 41.47823 41.35977
# Shear Modulus (GPa) = 32.87768 34.19737 33.53752
#
# Velocity S-wave (km/s) = 3.83290 3.90907 3.87118
# Velocity P-wave (km/s) = 6.16576 6.23769 6.20183
#
# Compressibility (1/GPa) = 0.02424753
#
# Stress axis : x y z
#
# Youngs Moduli (GPa) = 93.23511 89.26578 90.37861
#
# Poissons Ratio (x) = 0.19569 0.01577
# Poissons Ratio (y) = 0.20440 0.18129
# Poissons Ratio (z) = 0.01626 0.17905
#
# Static dielectric constant tensor:
#      x y z
#    x 2.117610 0.000000 0.000000 
#    y 0.000000 1.809350 0.000000 
#    z 0.000000 0.000000 1.827060 
# 
# From -- ./inp_files/9178.got.cif
#   From: 2010.05.17/outbox.cif.g08.bks.cpg/sg68_5_cif.got.tgz:9178.got - 2010.06.03 18:57:09.
