data_PCOD9510689
_publ_section_title
;
Structure prediction by ZEFSAII (Michael W. Deem and Ramdas Pophale) SiO2 
 PCOD9510689
Probable space group: C C C A
;
_chemical_formula_sum "Si O2"
_cell_formula_units_Z 64
_cell_length_a 28.428543
_cell_length_b 8.403372
_cell_length_c 11.667609
_cell_angle_alpha 90.000000
_cell_angle_beta 90.000000
_cell_angle_gamma 90.000000
_cell_volume 2787.340712
_symmetry_space_group_name_H-M "C C C A"
_symmetry_group_IT_number 68
_space_group.IT_coordinate_system_code '2'
_symmetry_cell_setting 'orthorhombic'
loop_
_space_group_symop_operation_xyz
x,y,z
-x,1/2-y,z
x,1/2-y,1/2-z
-x,y,1/2-z
-x,-y,-z
x,1/2+y,-z
-x,1/2+y,1/2+z
x,-y,1/2+z
1/2+x,1/2+y,z
1/2-x,-y,z
1/2+x,-y,1/2-z
1/2-x,1/2+y,1/2-z
1/2-x,1/2-y,-z
1/2+x,y,-z
1/2-x,y,1/2+z
1/2+x,1/2-y,1/2+z
loop_
_atom_site_type_symbol
_atom_site_label
_atom_site_fract_x
_atom_site_fract_y
_atom_site_fract_z
Si Si1 0.819731 0.750000 0.750000
Si Si2 0.372508 0.947249 0.443501
Si Si3 0.250000 0.000000 0.635623
Si Si4 0.672747 0.227921 0.384920
Si Si5 0.965832 0.123822 0.161228
O O1 0.849583 0.817678 0.643056
O O2 0.786707 0.604071 0.709315
O O3 0.369593 0.883616 0.572627
O O4 0.426399 0.968666 0.406016
O O5 0.340287 0.101722 0.433758
O O6 0.218770 0.133242 0.572307
O O7 0.677079 0.250000 0.250000
O O8 0.941974 0.250000 0.250000
O O9 0.000000 0.250000 0.093863
O O10 0.000000 0.030688 0.250000
#
# Coordination Sequence:
#
# PCOD9510689 Si02
#       5
#     8  16   8  16  16
#     4  12  20  40  71  90 134 192 237 306 360 436
#     4  12  23  43  74 102 143 195 245 307 368 441
#     4  12  24  46  62 104 146 184 254 308 366 428
#     4  12  28  45  67 108 145 194 254 305 368 445
#     4   6  15  37  72 105 134 187 232 287 378 433
#
# _framework density 22.960953
#
# number of rings (size 3 to 8) (size 9 to 14) (size 15 to 20)
#    1.500    0.000    5.000    1.500    0.000    5.000 
#    0.000    1.250    0.000    0.000    0.000    0.000 
#    0.000    0.000    0.000    0.000    0.000    0.000 
#
# Total GULP energy -178172.194526 kJ/mol
# GULP energy per Si atom -5567.881079 kJ/mol
# Density = 2.290869 g / cm^3
# Si number density = 22.960953 Si / 1000 Ang^3
#
#
#
# Elastic Constant Matrix: (Units=GPa)
#
#
# Indices 1 2 3 4 5 6 
#
# 1 128.5984 46.2760 38.7291 0.0000 0.0000 0.0000
# 2 46.2760 120.6760 34.6024 0.0000 0.0000 0.0000
# 3 38.7291 34.6024 35.9487 0.0000 0.0000 0.0000
# 4 0.0000 0.0000 0.0000 24.9388 0.0000 0.0000
# 5 0.0000 0.0000 0.0000 0.0000 37.7431 0.0000
# 6 0.0000 0.0000 0.0000 0.0000 0.0000 -3.3613
#
#
#
# Elastic Compliance Matrix: (Units=1/GPa)
#
#
# Indices 1 2 3 4 5 6 
#
# 1 0.011635 -0.001198 -0.011382 0.000000 0.000000 0.000000
# 2 -0.001198 0.011569 -0.009845 0.000000 0.000000 0.000000
# 3 -0.011382 -0.009845 0.049555 0.000000 0.000000 0.000000
# 4 0.000000 0.000000 0.000000 0.040098 0.000000 0.000000
# 5 0.000000 0.000000 0.000000 0.000000 0.026495 0.000000
# 6 0.000000 0.000000 0.000000 0.000000 0.000000 -0.297505
#
#
# Mechanical properties :
#
#
# Convention : Reuss Voigt Hill
#
# Bulk Modulus (GPa) = 35.82923 58.27088 47.05006
# Shear Modulus (GPa) = -48.07719 22.90517 -12.58601
#
# Velocity S-wave (km/s) = -4.58084 3.16186 -2.34380
# Velocity P-wave (km/s) = 3.51291 6.22601 3.63474
#
# Compressibility (1/GPa) = 0.02791017
#
# Stress axis : x y z
#
# Youngs Moduli (GPa) = 85.94737 86.43774 20.17942
#
# Poissons Ratio (x) = 0.10357 0.22967
# Poissons Ratio (y) = 0.10298 0.19866
# Poissons Ratio (z) = 0.97822 0.85097
#
# Static dielectric constant tensor:
#      x y z
#    x 1.903260 0.000000 0.000000 
#    y 0.000000 1.892680 0.000000 
#    z 0.000000 0.000000 1.857470 
# 
# From -- ./inp_files/17473.got.cif
#   From: 2010.05.17/outbox.cif.g08.bks.cpg/sg68_9_cif.got.tgz:17473.got - 2010.06.03 18:57:09.
