data_PCOD9510640
_publ_section_title
;
Structure prediction by ZEFSAII (Michael W. Deem and Ramdas Pophale) SiO2 
 PCOD9510640
Probable space group: C C C A
;
_chemical_formula_sum "Si O2"
_cell_formula_units_Z 64
_cell_length_a 13.838082
_cell_length_b 16.181718
_cell_length_c 11.359617
_cell_angle_alpha 90.000000
_cell_angle_beta 90.000000
_cell_angle_gamma 90.000000
_cell_volume 2543.690202
_symmetry_space_group_name_H-M "C C C A"
_symmetry_group_IT_number 68
_space_group.IT_coordinate_system_code '2'
_symmetry_cell_setting 'orthorhombic'
loop_
_space_group_symop_operation_xyz
x,y,z
-x,1/2-y,z
x,1/2-y,1/2-z
-x,y,1/2-z
-x,-y,-z
x,1/2+y,-z
-x,1/2+y,1/2+z
x,-y,1/2+z
1/2+x,1/2+y,z
1/2-x,-y,z
1/2+x,-y,1/2-z
1/2-x,1/2+y,1/2-z
1/2-x,1/2-y,-z
1/2+x,y,-z
1/2-x,y,1/2+z
1/2+x,1/2-y,1/2+z
loop_
_atom_site_type_symbol
_atom_site_label
_atom_site_fract_x
_atom_site_fract_y
_atom_site_fract_z
Si Si1 0.529046 0.395634 0.867272
Si Si2 0.355640 0.822205 0.578558
Si Si3 0.846839 0.356240 0.986415
Si Si4 0.156586 0.456892 0.734425
O O1 0.500000 0.346285 0.750000
O O2 0.431154 0.403454 0.943738
O O3 0.581369 0.476246 0.814489
O O4 0.601993 0.352023 0.954836
O O5 0.238840 0.827771 0.572483
O O6 0.384082 0.726110 0.581268
O O7 0.385959 0.887698 0.678034
O O8 0.805978 0.412615 0.883251
O O9 0.250000 0.500000 0.792919
#
# Coordination Sequence:
#
# PCOD9510640 Si02
#       4
#    16  16  16  16
#     4  12  28  47  78 112 151 197 261 317 387 462
#     4  11  27  49  75 108 157 204 254 323 388 468
#     4  11  26  49  75 111 154 205 259 315 393 463
#     4  12  26  46  77 112 155 200 258 321 385 462
#
# _framework density 25.160297
#
# number of rings (size 3 to 8) (size 9 to 14) (size 15 to 20)
#    0.000    0.500    2.500    3.750   10.500    2.000 
#    0.000    2.500    0.000    0.000    0.000    0.000 
#    0.000    0.000    0.000    0.000    0.000    0.000 
#
# Total GULP energy -179082.553281 kJ/mol
# GULP energy per Si atom -5596.329790 kJ/mol
# Density = 2.510303 g / cm^3
# Si number density = 25.160297 Si / 1000 Ang^3
#
#
#
# Elastic Constant Matrix: (Units=GPa)
#
#
# Indices 1 2 3 4 5 6 
#
# 1 100.8303 19.4908 19.8007 0.0000 0.0000 0.0000
# 2 19.4908 133.7146 52.3931 0.0000 0.0000 0.0000
# 3 19.8007 52.3931 91.7568 0.0000 0.0000 0.0000
# 4 0.0000 0.0000 0.0000 29.6885 0.0000 0.0000
# 5 0.0000 0.0000 0.0000 0.0000 47.1271 0.0000
# 6 0.0000 0.0000 0.0000 0.0000 0.0000 6.0481
#
#
#
# Elastic Compliance Matrix: (Units=1/GPa)
#
#
# Indices 1 2 3 4 5 6 
#
# 1 0.010426 -0.000822 -0.001780 0.000000 0.000000 0.000000
# 2 -0.000822 0.009699 -0.005361 0.000000 0.000000 0.000000
# 3 -0.001780 -0.005361 0.014344 0.000000 0.000000 0.000000
# 4 0.000000 0.000000 0.000000 0.033683 0.000000 0.000000
# 5 0.000000 0.000000 0.000000 0.000000 0.021219 0.000000
# 6 0.000000 0.000000 0.000000 0.000000 0.000000 0.165341
#
#
# Mechanical properties :
#
#
# Convention : Reuss Voigt Hill
#
# Bulk Modulus (GPa) = 53.93133 56.63010 55.28071
# Shear Modulus (GPa) = 18.06235 32.21388 25.13812
#
# Velocity S-wave (km/s) = 2.68226 3.58207 3.16431
# Velocity P-wave (km/s) = 5.57443 6.29801 5.94723
#
# Compressibility (1/GPa) = 0.01854210
#
# Stress axis : x y z
#
# Youngs Moduli (GPa) = 95.91203 103.10437 69.71782
#
# Poissons Ratio (x) = 0.08476 0.12413
# Poissons Ratio (y) = 0.07885 0.37373
# Poissons Ratio (z) = 0.17077 0.55271
#
# Static dielectric constant tensor:
#      x y z
#    x 2.042660 0.000000 0.000000 
#    y 0.000000 1.998370 0.000000 
#    z 0.000000 0.000000 1.951650 
# 
# From -- ./inp_files/12785.got.cif
#   From: 2010.05.17/outbox.cif.g08.bks.cpg/sg68_7_cif.got.tgz:12785.got - 2010.06.03 18:57:09.
