data_PCOD9510937
_publ_section_title
;
Structure prediction by ZEFSAII (Michael W. Deem and Ramdas Pophale) SiO2 
 PCOD9510937
Probable space group: C C C A
;
_chemical_formula_sum "Si O2"
_cell_formula_units_Z 56
_cell_length_a 30.000000
_cell_length_b 15.000000
_cell_length_c 12.000000
_cell_angle_alpha 90.000000
_cell_angle_beta 90.000000
_cell_angle_gamma 90.000000
_cell_volume 5400.000000
_symmetry_space_group_name_H-M "C C C A"
_symmetry_group_IT_number 68
_space_group.IT_coordinate_system_code '2'
_symmetry_cell_setting 'orthorhombic'
loop_
_space_group_symop_operation_xyz
x,y,z
-x,1/2-y,z
x,1/2-y,1/2-z
-x,y,1/2-z
-x,-y,-z
x,1/2+y,-z
-x,1/2+y,1/2+z
x,-y,1/2+z
1/2+x,1/2+y,z
1/2-x,-y,z
1/2+x,-y,1/2-z
1/2-x,1/2+y,1/2-z
1/2-x,1/2-y,-z
1/2+x,y,-z
1/2-x,y,1/2+z
1/2+x,1/2-y,1/2+z
loop_
_atom_site_type_symbol
_atom_site_label
_atom_site_fract_x
_atom_site_fract_y
_atom_site_fract_z
Si Si1 0.837127 0.968139 0.190409
Si Si2 0.551461 0.224835 0.369279
Si Si3 0.397672 0.377207 0.016075
Si Si4 0.264675 0.150017 0.200970
Si Si5 0.099041 0.448905 0.896980
Si Si6 0.682278 0.626814 0.480546
Si Si7 0.829846 0.301257 0.150844
O O1 0.792268 0.918945 0.226607
O O2 0.871435 0.985948 0.292967
O O3 0.822487 0.048242 0.109344
O O4 0.866819 0.899171 0.120511
O O5 0.500000 0.250000 0.368427
O O6 0.572215 0.250000 0.250000
O O7 0.572861 0.291287 0.459440
O O8 0.559185 0.119340 0.375392
O O9 0.417960 0.470948 0.975147
O O10 0.363381 0.355230 0.919961
O O11 0.274336 0.250000 0.250000
O O12 0.211526 0.143441 0.197172
O O13 0.280862 0.126022 0.076454
O O14 0.135005 0.383946 0.957142
O O15 0.689196 0.721753 0.424054
O O16 0.854082 0.250000 0.250000
#
# Coordination Sequence:
#
# PCOD9510937 Si02
#       7
#    16  16  16  16  16  16  16
#     4  10  21  38  63  89 128 171 215 270 316 381
#     4  11  23  42  72 103 129 162 209 267 327 400
#     4  11  22  40  68  91 130 174 209 270 326 391
#     4  10  22  38  60  86 124 169 227 276 320 370
#     4  10  21  39  64  97 125 166 216 258 329 390
#     4  10  20  37  60  87 121 172 221 263 323 382
#     4  11  22  38  57  87 124 171 221 273 325 373
#
# _framework density 10.370369999999999
#
# number of rings (size 3 to 8) (size 9 to 14) (size 15 to 20)
#    0.000    1.571    2.857    2.143    2.000    1.714 
#    0.000   25.000    0.000    0.429    0.000    0.000 
#    0.000    0.000    0.000    0.000    0.000    0.000 
#
# Total GULP energy -312016.806632 kJ/mol
# GULP energy per Si atom -5571.728690 kJ/mol
# Density = 1.034677 g / cm^3
# Si number density = 10.370370 Si / 1000 Ang^3
#
#
#
# Elastic Constant Matrix: (Units=GPa)
#
#
# Indices 1 2 3 4 5 6 
#
# 1 42.2850 48.0946 35.7043 0.0000 0.0000 0.0000
# 2 48.0946 61.7281 29.0342 0.0000 0.0000 0.0000
# 3 35.7043 29.0342 77.9044 0.0000 0.0000 0.0000
# 4 0.0000 0.0000 0.0000 33.6506 0.0000 0.0000
# 5 0.0000 0.0000 0.0000 0.0000 15.8568 0.0000
# 6 0.0000 0.0000 0.0000 0.0000 0.0000 -10.0187
#
#
#
# Elastic Compliance Matrix: (Units=1/GPa)
#
#
# Indices 1 2 3 4 5 6 
#
# 1 0.465371 -0.318015 -0.094762 0.000000 0.000000 0.000000
# 2 -0.318015 0.236962 0.057436 0.000000 0.000000 0.000000
# 3 -0.094762 0.057436 0.034861 0.000000 0.000000 0.000000
# 4 0.000000 0.000000 0.000000 0.029717 0.000000 0.000000
# 5 0.000000 0.000000 0.000000 0.000000 0.063064 0.000000
# 6 0.000000 0.000000 0.000000 0.000000 0.000000 -0.099813
#
#
# Mechanical properties :
#
#
# Convention : Reuss Voigt Hill
#
# Bulk Modulus (GPa) = 37.72145 45.28709 41.50427
# Shear Modulus (GPa) = 3.44903 12.50338 7.97620
#
# Velocity S-wave (km/s) = 1.29094 2.45795 1.96317
# Velocity P-wave (km/s) = 4.52202 5.47152 5.01927
#
# Compressibility (1/GPa) = 0.02651011
#
# Stress axis : x y z
#
# Youngs Moduli (GPa) = 2.14882 4.22008 28.68540
#
# Poissons Ratio (x) = 1.34205 2.71830
# Poissons Ratio (y) = 0.68336 -1.64757
# Poissons Ratio (z) = 0.20363 -0.24238
#
# Static dielectric constant tensor:
#      x y z
#    x 1.724400 0.000000 0.000000 
#    y 0.000000 1.763830 0.000000 
#    z 0.000000 0.000000 1.807730 
# 
# From -- ./inp_files/17799.got.cif
#   From: 2010.05.17/outbox.ucp.g08.bks.cvg/sg68_9_cif.got.tgz:17799.got - 2010.06.11 16:49:25.
