data_PCOD9510423
_publ_section_title
;
Structure prediction by ZEFSAII (Michael W. Deem and Ramdas Pophale) SiO2 
 PCOD9510423
Probable space group: C C C A
;
_chemical_formula_sum "Si O2"
_cell_formula_units_Z 64
_cell_length_a 24.081476
_cell_length_b 10.661013
_cell_length_c 10.884659
_cell_angle_alpha 90.000000
_cell_angle_beta 90.000000
_cell_angle_gamma 90.000000
_cell_volume 2794.450383
_symmetry_space_group_name_H-M "C C C A"
_symmetry_group_IT_number 68
_space_group.IT_coordinate_system_code '2'
_symmetry_cell_setting 'orthorhombic'
loop_
_space_group_symop_operation_xyz
x,y,z
-x,1/2-y,z
x,1/2-y,1/2-z
-x,y,1/2-z
-x,-y,-z
x,1/2+y,-z
-x,1/2+y,1/2+z
x,-y,1/2+z
1/2+x,1/2+y,z
1/2-x,-y,z
1/2+x,-y,1/2-z
1/2-x,1/2+y,1/2-z
1/2-x,1/2-y,-z
1/2+x,y,-z
1/2-x,y,1/2+z
1/2+x,1/2-y,1/2+z
loop_
_atom_site_type_symbol
_atom_site_label
_atom_site_fract_x
_atom_site_fract_y
_atom_site_fract_z
Si Si1 0.259196 0.363322 0.653012
Si Si2 0.500000 0.446613 0.250000
Si Si3 0.590210 0.750000 0.750000
Si Si4 0.550424 0.175015 0.879899
Si Si5 0.342739 0.748215 0.982051
O O1 0.261190 0.250000 0.750000
O O2 0.250000 0.500000 0.710045
O O3 0.314801 0.353194 0.571466
O O4 0.207371 0.336436 0.562876
O O5 0.450464 0.359005 0.202733
O O6 0.527288 0.538105 0.150032
O O7 0.628656 0.801977 0.858375
O O8 0.500000 0.250000 0.945068
O O9 0.558096 0.250000 0.750000
O O10 0.608614 0.180358 0.947022
#
# Coordination Sequence:
#
# PCOD9510423 Si02
#       5
#    16   8   8  16  16
#     4  11  27  50  74 106 143 191 253 318 378 442
#     4   9  23  42  66 100 149 177 234 290 350 449
#     4  11  24  42  62 110 142 186 229 290 362 450
#     4   9  21  44  67 100 135 187 236 291 364 435
#     4  11  25  44  70 104 142 190 240 303 371 444
#
# _framework density 22.902536000000001
#
# number of rings (size 3 to 8) (size 9 to 14) (size 15 to 20)
#    0.000    2.000    1.250    0.750    7.000   11.000 
#    0.000    0.000    0.000    0.000    0.000    0.000 
#    0.000    0.000    0.000    0.000    0.000    0.000 
#
# Total GULP energy -178882.413588 kJ/mol
# GULP energy per Si atom -5590.075425 kJ/mol
# Density = 2.285041 g / cm^3
# Si number density = 22.902536 Si / 1000 Ang^3
#
#
#
# Elastic Constant Matrix: (Units=GPa)
#
#
# Indices 1 2 3 4 5 6 
#
# 1 162.1911 41.1623 59.4804 0.0000 0.0000 0.0000
# 2 41.1623 135.2521 43.3506 0.0000 0.0000 0.0000
# 3 59.4804 43.3506 95.3355 0.0000 0.0000 0.0000
# 4 0.0000 0.0000 0.0000 12.6936 0.0000 0.0000
# 5 0.0000 0.0000 0.0000 0.0000 38.1280 0.0000
# 6 0.0000 0.0000 0.0000 0.0000 0.0000 5.0933
#
#
#
# Elastic Compliance Matrix: (Units=1/GPa)
#
#
# Indices 1 2 3 4 5 6 
#
# 1 0.008107 -0.000990 -0.004607 0.000000 0.000000 0.000000
# 2 -0.000990 0.008776 -0.003373 0.000000 0.000000 0.000000
# 3 -0.004607 -0.003373 0.014897 0.000000 0.000000 0.000000
# 4 0.000000 0.000000 0.000000 0.078780 0.000000 0.000000
# 5 0.000000 0.000000 0.000000 0.000000 0.026227 0.000000
# 6 0.000000 0.000000 0.000000 0.000000 0.000000 0.196337
#
#
# Mechanical properties :
#
#
# Convention : Reuss Voigt Hill
#
# Bulk Modulus (GPa) = 72.25891 75.64059 73.94975
# Shear Modulus (GPa) = 14.05764 27.76865 20.91315
#
# Velocity S-wave (km/s) = 2.48019 3.48583 3.02509
# Velocity P-wave (km/s) = 6.31038 7.02141 6.67537
#
# Compressibility (1/GPa) = 0.01383912
#
# Stress axis : x y z
#
# Youngs Moduli (GPa) = 123.35639 113.94687 67.12542
#
# Poissons Ratio (x) = 0.11285 0.30927
# Poissons Ratio (y) = 0.12217 0.22639
# Poissons Ratio (z) = 0.56835 0.38431
#
# Static dielectric constant tensor:
#      x y z
#    x 1.839650 0.000000 0.000000 
#    y 0.000000 1.839460 0.000000 
#    z 0.000000 0.000000 1.920090 
# 
# From -- ./inp_files/16131.got.cif
#   From: 2010.05.17/outbox.cif.g08.bks.cpg/sg68_9_cif.got.tgz:16131.got - 2010.06.03 18:57:09.
