data_PCOD9510818
_publ_section_title
;
Structure prediction by ZEFSAII (Michael W. Deem and Ramdas Pophale) SiO2 
 PCOD9510818
Probable space group: C C C A
;
_chemical_formula_sum "Si O2"
_cell_formula_units_Z 56
_cell_length_a 16.845869
_cell_length_b 5.065907
_cell_length_c 27.316210
_cell_angle_alpha 90.000000
_cell_angle_beta 90.000000
_cell_angle_gamma 90.000000
_cell_volume 2331.154590
_symmetry_space_group_name_H-M "C C C A"
_symmetry_group_IT_number 68
_space_group.IT_coordinate_system_code '2'
_symmetry_cell_setting 'orthorhombic'
loop_
_space_group_symop_operation_xyz
x,y,z
-x,1/2-y,z
x,1/2-y,1/2-z
-x,y,1/2-z
-x,-y,-z
x,1/2+y,-z
-x,1/2+y,1/2+z
x,-y,1/2+z
1/2+x,1/2+y,z
1/2-x,-y,z
1/2+x,-y,1/2-z
1/2-x,1/2+y,1/2-z
1/2-x,1/2-y,-z
1/2+x,y,-z
1/2-x,y,1/2+z
1/2+x,1/2-y,1/2+z
loop_
_atom_site_type_symbol
_atom_site_label
_atom_site_fract_x
_atom_site_fract_y
_atom_site_fract_z
Si Si1 0.500000 0.250000 0.085420
Si Si2 0.750000 0.500000 0.114464
Si Si3 0.669862 0.678967 0.306897
Si Si4 0.500000 0.250000 0.653333
Si Si5 0.835957 0.829222 0.033216
O O1 0.520630 0.503432 0.118367
O O2 0.425649 0.319602 0.051895
O O3 0.684206 0.600876 0.151983
O O4 0.786111 0.725001 0.079673
O O5 0.676179 0.750000 0.250000
O O6 0.750000 0.500000 0.315075
O O7 0.575576 0.630340 0.316270
O O8 0.824346 0.616578 0.989912
#
# Coordination Sequence:
#
# PCOD9510818 Si02
#       5
#     8   8  16   8  16
#     4  12  24  49  75 109 156 205 255 329 390 468
#     4  12  26  48  72 106 156 198 260 324 392 468
#     4  12  27  50  80 115 154 209 260 331 399 479
#     4  12  27  49  82 115 158 205 262 323 403 470
#     4  12  26  45  73 109 150 204 260 318 390 467
#
# _framework density 24.022432999999999
#
# number of rings (size 3 to 8) (size 9 to 14) (size 15 to 20)
#    0.000    0.000    4.286    5.571    4.000    0.000 
#    0.000    1.429    0.000    0.000    0.000    0.000 
#    0.000    0.000    0.000    0.000    0.000    0.000 
#
# Total GULP energy -156425.272237 kJ/mol
# GULP energy per Si atom -5586.616866 kJ/mol
# Density = 2.396776 g / cm^3
# Si number density = 24.022433 Si / 1000 Ang^3
#
#
#
# Elastic Constant Matrix: (Units=GPa)
#
#
# Indices 1 2 3 4 5 6 
#
# 1 164.5294 36.4831 62.6618 0.0000 0.0000 0.0000
# 2 36.4831 119.9830 49.9966 0.0000 0.0000 0.0000
# 3 62.6618 49.9966 173.9127 0.0000 0.0000 0.0000
# 4 0.0000 0.0000 0.0000 31.3270 0.0000 0.0000
# 5 0.0000 0.0000 0.0000 0.0000 108.8768 0.0000
# 6 0.0000 0.0000 0.0000 0.0000 0.0000 32.5584
#
#
#
# Elastic Compliance Matrix: (Units=1/GPa)
#
#
# Indices 1 2 3 4 5 6 
#
# 1 0.007209 -0.001261 -0.002235 0.000000 0.000000 0.000000
# 2 -0.001261 0.009689 -0.002331 0.000000 0.000000 0.000000
# 3 -0.002235 -0.002331 0.007225 0.000000 0.000000 0.000000
# 4 0.000000 0.000000 0.000000 0.031921 0.000000 0.000000
# 5 0.000000 0.000000 0.000000 0.000000 0.009185 0.000000
# 6 0.000000 0.000000 0.000000 0.000000 0.000000 0.030714
#
#
# Mechanical properties :
#
#
# Convention : Reuss Voigt Hill
#
# Bulk Modulus (GPa) = 80.19411 84.07867 82.13639
# Shear Modulus (GPa) = 44.74127 55.17135 49.95631
#
# Velocity S-wave (km/s) = 4.32033 4.79755 4.56518
# Velocity P-wave (km/s) = 7.63822 8.10954 7.87741
#
# Compressibility (1/GPa) = 0.01246974
#
# Stress axis : x y z
#
# Youngs Moduli (GPa) = 138.72214 103.20696 138.39964
#
# Poissons Ratio (x) = 0.13011 0.30931
# Poissons Ratio (y) = 0.17488 0.32265
# Poissons Ratio (z) = 0.31003 0.24060
#
# Static dielectric constant tensor:
#      x y z
#    x 2.087800 0.000000 0.000000 
#    y 0.000000 1.952160 0.000000 
#    z 0.000000 0.000000 1.848710 
# 
# From -- ./inp_files/51170.got.cif
#   From: 2010.05.17/outbox.cif.g08.bks.cpg/sg68_26_cif.got.tgz:51170.got - 2010.06.03 18:57:09.
