data_PCOD9510949
_publ_section_title
;
Structure prediction by ZEFSAII (Michael W. Deem and Ramdas Pophale) SiO2 
 PCOD9510949
Probable space group: C C C A
;
_chemical_formula_sum "Si O2"
_cell_formula_units_Z 44
_cell_length_a 15.000000
_cell_length_b 24.000000
_cell_length_c 12.000000
_cell_angle_alpha 90.000000
_cell_angle_beta 90.000000
_cell_angle_gamma 90.000000
_cell_volume 4320.000000
_symmetry_space_group_name_H-M "C C C A"
_symmetry_group_IT_number 68
_space_group.IT_coordinate_system_code '2'
_symmetry_cell_setting 'orthorhombic'
loop_
_space_group_symop_operation_xyz
x,y,z
-x,1/2-y,z
x,1/2-y,1/2-z
-x,y,1/2-z
-x,-y,-z
x,1/2+y,-z
-x,1/2+y,1/2+z
x,-y,1/2+z
1/2+x,1/2+y,z
1/2-x,-y,z
1/2+x,-y,1/2-z
1/2-x,1/2+y,1/2-z
1/2-x,1/2-y,-z
1/2+x,y,-z
1/2-x,y,1/2+z
1/2+x,1/2-y,1/2+z
loop_
_atom_site_type_symbol
_atom_site_label
_atom_site_fract_x
_atom_site_fract_y
_atom_site_fract_z
Si Si1 0.250000 0.000000 0.344415
Si Si2 0.402467 0.369849 0.002272
Si Si3 0.402182 0.814232 0.218684
Si Si4 0.397590 0.007102 0.531512
Si Si5 0.225396 0.875747 0.285180
Si Si6 0.431151 0.897776 0.648206
O O1 0.335509 0.997528 0.425333
O O2 0.253627 0.058334 0.281648
O O3 0.393401 0.321724 0.913573
O O4 0.384616 0.428466 0.937866
O O5 0.329933 0.366159 0.100547
O O6 0.502612 0.374157 0.053544
O O7 0.401433 0.750000 0.250000
O O8 0.500000 0.838179 0.250000
O O9 0.317744 0.843667 0.275501
O O10 0.500000 0.000000 0.500000
O O11 0.387426 0.956872 0.616391
O O12 0.152567 0.861513 0.189264
O O13 0.500000 0.907004 0.750000
#
# Coordination Sequence:
#
# PCOD9510949 Si02
#       6
#     8  16  16  16  16  16
#     4  10  22  34  54  98 128 170 216 258 326 400
#     4   9  21  41  62  91 130 167 211 272 316 384
#     4  11  27  45  64  92 121 169 233 273 332 382
#     4   9  19  33  54  87 131 170 203 246 322 381
#     4  10  23  39  64  95 130 171 218 263 330 395
#     4   9  19  36  60  95 130 166 209 251 322 401
#
# _framework density 10.185185000000001
#
# number of rings (size 3 to 8) (size 9 to 14) (size 15 to 20)
#    0.000    2.364    0.000    1.091   12.727    1.455 
#    0.000    1.818    0.000    3.818    0.000    0.000 
#    0.000    0.000    0.000    0.000    0.000    0.000 
#
# Total GULP energy -245311.543472 kJ/mol
# GULP energy per Si atom -5575.262352 kJ/mol
# Density = 1.016200 g / cm^3
# Si number density = 10.185185 Si / 1000 Ang^3
#
#
#
# Elastic Constant Matrix: (Units=GPa)
#
#
# Indices 1 2 3 4 5 6 
#
# 1 174.8922 52.7694 46.4804 0.0000 0.0000 0.0000
# 2 52.7694 74.2799 49.2499 0.0000 0.0000 0.0000
# 3 46.4804 49.2499 58.1055 0.0000 0.0000 0.0000
# 4 0.0000 0.0000 0.0000 20.9460 0.0000 0.0000
# 5 0.0000 0.0000 0.0000 0.0000 2.4547 0.0000
# 6 0.0000 0.0000 0.0000 0.0000 0.0000 23.4911
#
#
#
# Elastic Compliance Matrix: (Units=1/GPa)
#
#
# Indices 1 2 3 4 5 6 
#
# 1 0.007563 -0.003109 -0.003415 0.000000 0.000000 0.000000
# 2 -0.003109 0.032013 -0.024647 0.000000 0.000000 0.000000
# 3 -0.003415 -0.024647 0.040833 0.000000 0.000000 0.000000
# 4 0.000000 0.000000 0.000000 0.047742 0.000000 0.000000
# 5 0.000000 0.000000 0.000000 0.000000 0.407387 0.000000
# 6 0.000000 0.000000 0.000000 0.000000 0.000000 0.042569
#
#
# Mechanical properties :
#
#
# Convention : Reuss Voigt Hill
#
# Bulk Modulus (GPa) = 55.35007 67.14188 61.24597
# Shear Modulus (GPa) = 7.73428 19.96356 13.84892
#
# Velocity S-wave (km/s) = 1.95066 3.13394 2.61023
# Velocity P-wave (km/s) = 5.68368 6.79173 6.26226
#
# Compressibility (1/GPa) = 0.01806683
#
# Stress axis : x y z
#
# Youngs Moduli (GPa) = 132.21458 31.23738 24.49003
#
# Poissons Ratio (x) = 0.09711 0.08364
# Poissons Ratio (y) = 0.41102 0.60361
# Poissons Ratio (z) = 0.45156 0.76991
#
# Static dielectric constant tensor:
#      x y z
#    x 1.723950 0.000000 0.000000 
#    y 0.000000 1.716260 0.000000 
#    z 0.000000 0.000000 1.774200 
# 
# From -- ./inp_files/13311.got.cif
#   From: 2010.05.17/outbox.ucp.g08.bks.cvg/sg68_7_cif.got.tgz:13311.got - 2010.06.11 16:49:25.
