data_PCOD9510400
_publ_section_title
;
Structure prediction by ZEFSAII (Michael W. Deem and Ramdas Pophale) SiO2 
 PCOD9510400
Probable space group: C C C A
;
_chemical_formula_sum "Si O2"
_cell_formula_units_Z 80
_cell_length_a 25.432590
_cell_length_b 17.180081
_cell_length_c 9.317255
_cell_angle_alpha 90.000000
_cell_angle_beta 90.000000
_cell_angle_gamma 90.000000
_cell_volume 4071.025088
_symmetry_space_group_name_H-M "C C C A"
_symmetry_group_IT_number 68
_space_group.IT_coordinate_system_code '2'
_symmetry_cell_setting 'orthorhombic'
loop_
_space_group_symop_operation_xyz
x,y,z
-x,1/2-y,z
x,1/2-y,1/2-z
-x,y,1/2-z
-x,-y,-z
x,1/2+y,-z
-x,1/2+y,1/2+z
x,-y,1/2+z
1/2+x,1/2+y,z
1/2-x,-y,z
1/2+x,-y,1/2-z
1/2-x,1/2+y,1/2-z
1/2-x,1/2-y,-z
1/2+x,y,-z
1/2-x,y,1/2+z
1/2+x,1/2-y,1/2+z
loop_
_atom_site_type_symbol
_atom_site_label
_atom_site_fract_x
_atom_site_fract_y
_atom_site_fract_z
Si Si1 0.548809 0.847750 0.433718
Si Si2 0.150200 0.071646 0.016115
Si Si3 0.433628 0.669361 0.088270
Si Si4 0.727034 0.693603 0.881241
Si Si5 0.171858 0.584831 0.646954
O O1 0.588249 0.910665 0.498794
O O2 0.556626 0.841237 0.260348
O O3 0.488296 0.865058 0.472365
O O4 0.564718 0.758268 0.468146
O O5 0.159745 0.068111 0.186423
O O6 0.179518 0.144846 0.946273
O O7 0.172465 0.995386 0.939743
O O8 0.375950 0.633158 0.072810
O O9 0.712980 0.750000 0.750000
O O10 0.774295 0.633199 0.849503
O O11 0.750000 0.750000 0.000000
#
# Coordination Sequence:
#
# PCOD9510400 Si02
#       5
#    16  16  16  16  16
#     4   8  15  32  58  89 116 155 204 250 298 357
#     4  11  24  40  59  90 126 159 199 252 308 370
#     4   8  15  31  60  87 116 156 204 250 297 359
#     4  12  25  42  65  88 116 159 208 260 306 366
#     4  11  24  39  60  90 125 158 201 251 308 369
#
# _framework density 19.651069
#
# number of rings (size 3 to 8) (size 9 to 14) (size 15 to 20)
#    0.000    2.000    2.000    3.000    5.600    2.400 
#    0.000    0.000    0.000    0.000    0.000    0.000 
#    0.000    0.000    0.000    0.000    0.000    0.000 
#
# Total GULP energy -222872.052195 kJ/mol
# GULP energy per Si atom -5571.801305 kJ/mol
# Density = 1.960634 g / cm^3
# Si number density = 19.651069 Si / 1000 Ang^3
#
#
#
# Elastic Constant Matrix: (Units=GPa)
#
#
# Indices 1 2 3 4 5 6 
#
# 1 85.9762 20.1169 11.6032 0.0000 0.0000 0.0000
# 2 20.1169 65.9756 27.5175 0.0000 0.0000 0.0000
# 3 11.6032 27.5175 60.5857 0.0000 0.0000 0.0000
# 4 0.0000 0.0000 0.0000 26.6616 0.0000 0.0000
# 5 0.0000 0.0000 0.0000 0.0000 17.7699 0.0000
# 6 0.0000 0.0000 0.0000 0.0000 0.0000 -23.9841
#
#
#
# Elastic Compliance Matrix: (Units=1/GPa)
#
#
# Indices 1 2 3 4 5 6 
#
# 1 0.012558 -0.003486 -0.000822 0.000000 0.000000 0.000000
# 2 -0.003486 0.019667 -0.008265 0.000000 0.000000 0.000000
# 3 -0.000822 -0.008265 0.020417 0.000000 0.000000 0.000000
# 4 0.000000 0.000000 0.000000 0.037507 0.000000 0.000000
# 5 0.000000 0.000000 0.000000 0.000000 0.056275 0.000000
# 6 0.000000 0.000000 0.000000 0.000000 0.000000 -0.041694
#
#
# Mechanical properties :
#
#
# Convention : Reuss Voigt Hill
#
# Bulk Modulus (GPa) = 36.36895 36.77920 36.57408
# Shear Modulus (GPa) = 35.96059 14.30947 25.13503
#
# Velocity S-wave (km/s) = 4.28244 2.70140 3.58028
# Velocity P-wave (km/s) = 6.55743 5.33731 5.97858
#
# Compressibility (1/GPa) = 0.02749598
#
# Stress axis : x y z
#
# Youngs Moduli (GPa) = 79.63208 50.84554 48.97931
#
# Poissons Ratio (x) = 0.17727 0.04024
# Poissons Ratio (y) = 0.27763 0.40482
# Poissons Ratio (z) = 0.06542 0.42024
#
# Static dielectric constant tensor:
#      x y z
#    x 1.622710 0.000000 0.000000 
#    y 0.000000 1.714920 0.000000 
#    z 0.000000 0.000000 1.390450 
# 
# From -- ./inp_files/6221.got.cif
#   From: 2010.05.17/outbox.cif.g08.bks.cpg/sg68_4_cif.got.tgz:6221.got - 2010.06.03 18:57:09.
