data_PCOD9510035
_publ_section_title
;
Structure prediction by ZEFSAII (Michael W. Deem and Ramdas Pophale) SiO2 
 PCOD9510035
Probable space group: C C C A
;
_chemical_formula_sum "Si O2"
_cell_formula_units_Z 112
_cell_length_a 25.485360
_cell_length_b 12.254712
_cell_length_c 16.684503
_cell_angle_alpha 90.000000
_cell_angle_beta 90.000000
_cell_angle_gamma 90.000000
_cell_volume 5210.833018
_symmetry_space_group_name_H-M "C C C A"
_symmetry_group_IT_number 68
_space_group.IT_coordinate_system_code '2'
_symmetry_cell_setting 'orthorhombic'
loop_
_space_group_symop_operation_xyz
x,y,z
-x,1/2-y,z
x,1/2-y,1/2-z
-x,y,1/2-z
-x,-y,-z
x,1/2+y,-z
-x,1/2+y,1/2+z
x,-y,1/2+z
1/2+x,1/2+y,z
1/2-x,-y,z
1/2+x,-y,1/2-z
1/2-x,1/2+y,1/2-z
1/2-x,1/2-y,-z
1/2+x,y,-z
1/2-x,y,1/2+z
1/2+x,1/2-y,1/2+z
loop_
_atom_site_type_symbol
_atom_site_label
_atom_site_fract_x
_atom_site_fract_y
_atom_site_fract_z
Si Si1 0.057938 0.246751 0.154659
Si Si2 0.594138 0.993122 0.401292
Si Si3 0.116917 0.401645 0.569039
Si Si4 0.005574 0.620841 0.158442
Si Si5 0.306461 0.267260 0.963660
Si Si6 0.193038 0.552706 0.823302
Si Si7 0.151953 0.093643 0.348098
O O1 0.053091 0.250000 0.250000
O O2 0.094607 0.351018 0.140223
O O3 0.000000 0.250000 0.117502
O O4 0.082046 0.131603 0.127581
O O5 0.542883 0.065258 0.387312
O O6 0.607692 0.982771 0.494183
O O7 0.645345 0.027699 0.350268
O O8 0.061003 0.390372 0.612907
O O9 0.148452 0.300673 0.528662
O O10 0.152142 0.465877 0.632908
O O11 0.000000 0.750000 0.163597
O O12 0.000000 0.575883 0.250000
O O13 0.304147 0.363060 0.897206
O O14 0.316634 0.157785 0.914760
O O15 0.250000 0.250000 0.000000
O O16 0.250000 0.500000 0.812231
O O17 0.173772 0.609373 0.741222
#
# Coordination Sequence:
#
# PCOD9510035 Si02
#       7
#    16  16  16  16  16  16  16
#     4  11  21  37  70 103 133 177 227 295 355 410
#     4  11  23  43  67 101 139 176 236 291 352 424
#     4  11  26  42  70 104 132 189 228 296 364 417
#     4  11  26  45  67  97 144 188 232 286 349 439
#     4  11  27  45  71 101 145 183 239 298 359 426
#     4  11  25  44  73 100 138 188 234 295 358 423
#     4  12  23  47  69 102 141 177 242 293 355 440
#
# _framework density 21.493683000000001
#
# number of rings (size 3 to 8) (size 9 to 14) (size 15 to 20)
#    0.000    0.857    4.286    2.571   10.000    0.571 
#    0.000    0.000    0.000    0.000    0.000    0.000 
#    0.000    0.000    0.000    0.000    0.000    0.000 
#
# Total GULP energy -312629.600113 kJ/mol
# GULP energy per Si atom -5582.671431 kJ/mol
# Density = 2.144476 g / cm^3
# Si number density = 21.493683 Si / 1000 Ang^3
#
#
#
# Elastic Constant Matrix: (Units=GPa)
#
#
# Indices 1 2 3 4 5 6 
#
# 1 173.7810 29.2800 65.1977 0.0000 0.0000 0.0000
# 2 29.2800 48.4655 20.9951 0.0000 0.0000 0.0000
# 3 65.1977 20.9951 107.2378 0.0000 0.0000 0.0000
# 4 0.0000 0.0000 0.0000 13.4452 0.0000 0.0000
# 5 0.0000 0.0000 0.0000 0.0000 29.6926 0.0000
# 6 0.0000 0.0000 0.0000 0.0000 0.0000 37.7982
#
#
#
# Elastic Compliance Matrix: (Units=1/GPa)
#
#
# Indices 1 2 3 4 5 6 
#
# 1 0.007813 -0.002909 -0.004181 0.000000 0.000000 0.000000
# 2 -0.002909 0.023629 -0.002857 0.000000 0.000000 0.000000
# 3 -0.004181 -0.002857 0.012426 0.000000 0.000000 0.000000
# 4 0.000000 0.000000 0.000000 0.074376 0.000000 0.000000
# 5 0.000000 0.000000 0.000000 0.000000 0.033678 0.000000
# 6 0.000000 0.000000 0.000000 0.000000 0.000000 0.026456
#
#
# Mechanical properties :
#
#
# Convention : Reuss Voigt Hill
#
# Bulk Modulus (GPa) = 41.71247 62.26999 51.99123
# Shear Modulus (GPa) = 24.24084 30.45463 27.34773
#
# Velocity S-wave (km/s) = 3.36193 3.76827 3.57089
# Velocity P-wave (km/s) = 5.87530 6.92585 6.42209
#
# Compressibility (1/GPa) = 0.02397365
#
# Stress axis : x y z
#
# Youngs Moduli (GPa) = 127.99294 42.32169 80.47566
#
# Poissons Ratio (x) = 0.12312 0.33643
# Poissons Ratio (y) = 0.37235 0.22995
# Poissons Ratio (z) = 0.53507 0.12093
#
# Static dielectric constant tensor:
#      x y z
#    x 1.896260 0.000000 0.000000 
#    y 0.000000 1.783350 0.000000 
#    z 0.000000 0.000000 1.801530 
# 
# From -- ./inp_files/25486.got.cif
#   From: 2010.05.17/outbox.cif.g08.bks.cpg/sg68_13_cif.got.tgz:25486.got - 2010.06.03 18:57:09.
