data_PCOD9510116
_publ_section_title
;
Structure prediction by ZEFSAII (Michael W. Deem and Ramdas Pophale) SiO2 
 PCOD9510116
Probable space group: C C C A
;
_chemical_formula_sum "Si O2"
_cell_formula_units_Z 64
_cell_length_a 19.571565
_cell_length_b 9.899594
_cell_length_c 16.499532
_cell_angle_alpha 90.000000
_cell_angle_beta 90.000000
_cell_angle_gamma 90.000000
_cell_volume 3196.793358
_symmetry_space_group_name_H-M "C C C A"
_symmetry_group_IT_number 68
_space_group.IT_coordinate_system_code '2'
_symmetry_cell_setting 'orthorhombic'
loop_
_space_group_symop_operation_xyz
x,y,z
-x,1/2-y,z
x,1/2-y,1/2-z
-x,y,1/2-z
-x,-y,-z
x,1/2+y,-z
-x,1/2+y,1/2+z
x,-y,1/2+z
1/2+x,1/2+y,z
1/2-x,-y,z
1/2+x,-y,1/2-z
1/2-x,1/2+y,1/2-z
1/2-x,1/2-y,-z
1/2+x,y,-z
1/2-x,y,1/2+z
1/2+x,1/2-y,1/2+z
loop_
_atom_site_type_symbol
_atom_site_label
_atom_site_fract_x
_atom_site_fract_y
_atom_site_fract_z
Si Si1 0.304795 0.695439 0.340048
Si Si2 0.829050 0.475641 0.404570
Si Si3 0.833431 0.066962 0.909408
Si Si4 0.080206 0.284264 0.659459
O O1 0.292676 0.750000 0.250000
O O2 0.340528 0.817925 0.386515
O O3 0.234498 0.649857 0.383638
O O4 0.345240 0.554479 0.345799
O O5 0.750000 0.500000 0.375591
O O6 0.828757 0.494838 0.501314
O O7 0.885652 0.572691 0.364809
O O8 0.891272 0.177236 0.904448
O O9 0.106511 0.250000 0.750000
O O10 0.000000 0.250000 0.661117
#
# Coordination Sequence:
#
# PCOD9510116 Si02
#       4
#    16  16  16  16
#     4  11  22  34  61  96 123 157 205 266 315 364
#     4  12  22  39  66  94 127 164 211 265 319 373
#     4  11  22  39  60  93 125 163 206 264 313 377
#     4  11  25  44  64  89 129 175 211 254 318 390
#
# _framework density 20.020060999999998
#
# number of rings (size 3 to 8) (size 9 to 14) (size 15 to 20)
#    0.000    0.750    5.000    4.500    3.500    1.000 
#    0.000    1.250    0.000    4.500    0.000    0.000 
#    0.000    0.000    0.000    0.000    0.000    0.000 
#
# Total GULP energy -178475.136819 kJ/mol
# GULP energy per Si atom -5577.348026 kJ/mol
# Density = 1.997449 g / cm^3
# Si number density = 20.020061 Si / 1000 Ang^3
#
#
#
# Elastic Constant Matrix: (Units=GPa)
#
#
# Indices 1 2 3 4 5 6 
#
# 1 53.5579 49.6188 17.2444 0.0000 0.0000 0.0000
# 2 49.6188 162.8818 38.9489 0.0000 0.0000 0.0000
# 3 17.2444 38.9489 110.2191 0.0000 0.0000 0.0000
# 4 0.0000 0.0000 0.0000 35.9649 0.0000 0.0000
# 5 0.0000 0.0000 0.0000 0.0000 14.5977 0.0000
# 6 0.0000 0.0000 0.0000 0.0000 0.0000 14.3336
#
#
#
# Elastic Compliance Matrix: (Units=1/GPa)
#
#
# Indices 1 2 3 4 5 6 
#
# 1 0.026208 -0.007650 -0.001397 0.000000 0.000000 0.000000
# 2 -0.007650 0.008939 -0.001962 0.000000 0.000000 0.000000
# 3 -0.001397 -0.001962 0.009985 0.000000 0.000000 0.000000
# 4 0.000000 0.000000 0.000000 0.027805 0.000000 0.000000
# 5 0.000000 0.000000 0.000000 0.000000 0.068504 0.000000
# 6 0.000000 0.000000 0.000000 0.000000 0.000000 0.069766
#
#
# Mechanical properties :
#
#
# Convention : Reuss Voigt Hill
#
# Bulk Modulus (GPa) = 43.26344 59.80923 51.53634
# Shear Modulus (GPa) = 20.75291 27.70233 24.22762
#
# Velocity S-wave (km/s) = 3.22313 3.72389 3.48252
# Velocity P-wave (km/s) = 5.95889 6.95911 6.47833
#
# Compressibility (1/GPa) = 0.02311420
#
# Stress axis : x y z
#
# Youngs Moduli (GPa) = 38.15568 111.87020 100.15274
#
# Poissons Ratio (x) = 0.85578 0.13993
# Poissons Ratio (y) = 0.29188 0.19650
# Poissons Ratio (z) = 0.05331 0.21948
#
# Static dielectric constant tensor:
#      x y z
#    x 1.791040 0.000000 0.000000 
#    y 0.000000 1.734610 0.000000 
#    z 0.000000 0.000000 1.747190 
# 
# From -- ./inp_files/32519.got.cif
#   From: 2010.05.17/outbox.cif.g08.bks.cpg/sg68_17_cif.got.tgz:32519.got - 2010.06.03 18:57:09.
