data_PCOD9510571
_publ_section_title
;
Structure prediction by ZEFSAII (Michael W. Deem and Ramdas Pophale) SiO2 
 PCOD9510571
Probable space group: C C C A
;
_chemical_formula_sum "Si O2"
_cell_formula_units_Z 64
_cell_length_a 16.944597
_cell_length_b 10.060728
_cell_length_c 16.027553
_cell_angle_alpha 90.000000
_cell_angle_beta 90.000000
_cell_angle_gamma 90.000000
_cell_volume 2732.296801
_symmetry_space_group_name_H-M "C C C A"
_symmetry_group_IT_number 68
_space_group.IT_coordinate_system_code '2'
_symmetry_cell_setting 'orthorhombic'
loop_
_space_group_symop_operation_xyz
x,y,z
-x,1/2-y,z
x,1/2-y,1/2-z
-x,y,1/2-z
-x,-y,-z
x,1/2+y,-z
-x,1/2+y,1/2+z
x,-y,1/2+z
1/2+x,1/2+y,z
1/2-x,-y,z
1/2+x,-y,1/2-z
1/2-x,1/2+y,1/2-z
1/2-x,1/2-y,-z
1/2+x,y,-z
1/2-x,y,1/2+z
1/2+x,1/2-y,1/2+z
loop_
_atom_site_type_symbol
_atom_site_label
_atom_site_fract_x
_atom_site_fract_y
_atom_site_fract_z
Si Si1 0.486296 0.102158 0.926267
Si Si2 0.715829 0.798395 0.911917
Si Si3 0.644904 0.950870 0.342163
Si Si4 0.838780 0.534481 0.347001
O O1 0.500000 0.250000 0.959395
O O2 0.555392 0.088263 0.857631
O O3 0.402734 0.062498 0.887305
O O4 0.500000 0.000000 0.000000
O O5 0.792677 0.831129 0.854478
O O6 0.656931 0.687715 0.875138
O O7 0.669651 0.938403 0.910943
O O8 0.750000 0.750000 0.000000
O O9 0.655296 0.016253 0.252135
O O10 0.750000 0.500000 0.373574
#
# Coordination Sequence:
#
# PCOD9510571 Si02
#       4
#    16  16  16  16
#     4  12  30  51  76 113 156 207 259 323 397 468
#     4  11  25  45  75 115 156 200 258 317 390 458
#     4  11  26  48  76 111 156 206 258 318 392 465
#     4  12  26  46  79 112 154 204 258 324 384 468
#
# _framework density 23.423518000000001
#
# number of rings (size 3 to 8) (size 9 to 14) (size 15 to 20)
#    0.000    0.500    2.500    4.500   14.000    4.000 
#    0.000    2.500    0.000    0.000    0.000    0.000 
#    0.000    0.000    0.000    0.000    0.000    0.000 
#
# Total GULP energy -179216.394098 kJ/mol
# GULP energy per Si atom -5600.512316 kJ/mol
# Density = 2.337021 g / cm^3
# Si number density = 23.423518 Si / 1000 Ang^3
#
#
#
# Elastic Constant Matrix: (Units=GPa)
#
#
# Indices 1 2 3 4 5 6 
#
# 1 150.1865 42.6125 16.8641 0.0000 0.0000 0.0000
# 2 42.6125 156.3986 43.8986 0.0000 0.0000 0.0000
# 3 16.8641 43.8986 120.2751 0.0000 0.0000 0.0000
# 4 0.0000 0.0000 0.0000 30.2546 0.0000 0.0000
# 5 0.0000 0.0000 0.0000 0.0000 26.4570 0.0000
# 6 0.0000 0.0000 0.0000 0.0000 0.0000 42.7316
#
#
#
# Elastic Compliance Matrix: (Units=1/GPa)
#
#
# Indices 1 2 3 4 5 6 
#
# 1 0.007228 -0.001877 -0.000328 0.000000 0.000000 0.000000
# 2 -0.001877 0.007611 -0.002515 0.000000 0.000000 0.000000
# 3 -0.000328 -0.002515 0.009278 0.000000 0.000000 0.000000
# 4 0.000000 0.000000 0.000000 0.033053 0.000000 0.000000
# 5 0.000000 0.000000 0.000000 0.000000 0.037797 0.000000
# 6 0.000000 0.000000 0.000000 0.000000 0.000000 0.023402
#
#
# Mechanical properties :
#
#
# Convention : Reuss Voigt Hill
#
# Bulk Modulus (GPa) = 68.13493 70.40119 69.26806
# Shear Modulus (GPa) = 37.67847 41.45433 39.56640
#
# Velocity S-wave (km/s) = 4.01505 4.21143 4.11441
# Velocity P-wave (km/s) = 7.11657 7.33275 7.22547
#
# Compressibility (1/GPa) = 0.01467676
#
# Stress axis : x y z
#
# Youngs Moduli (GPa) = 138.35355 131.38485 107.77999
#
# Poissons Ratio (x) = 0.24663 0.03538
# Poissons Ratio (y) = 0.25971 0.27104
# Poissons Ratio (z) = 0.04542 0.33040
#
# Static dielectric constant tensor:
#      x y z
#    x 1.896870 0.000000 0.000000 
#    y 0.000000 1.980770 0.000000 
#    z 0.000000 0.000000 1.866720 
# 
# From -- ./inp_files/23183.got.cif
#   From: 2010.05.17/outbox.cif.g08.bks.cpg/sg68_12_cif.got.tgz:23183.got - 2010.06.03 18:57:09.
