data_PCOD9510553
_publ_section_title
;
Structure prediction by ZEFSAII (Michael W. Deem and Ramdas Pophale) SiO2 
 PCOD9510553
Probable space group: C C C A
;
_chemical_formula_sum "Si O2"
_cell_formula_units_Z 64
_cell_length_a 11.553889
_cell_length_b 8.984133
_cell_length_c 23.402983
_cell_angle_alpha 90.000000
_cell_angle_beta 90.000000
_cell_angle_gamma 90.000000
_cell_volume 2429.268846
_symmetry_space_group_name_H-M "C C C A"
_symmetry_group_IT_number 68
_space_group.IT_coordinate_system_code '2'
_symmetry_cell_setting 'orthorhombic'
loop_
_space_group_symop_operation_xyz
x,y,z
-x,1/2-y,z
x,1/2-y,1/2-z
-x,y,1/2-z
-x,-y,-z
x,1/2+y,-z
-x,1/2+y,1/2+z
x,-y,1/2+z
1/2+x,1/2+y,z
1/2-x,-y,z
1/2+x,-y,1/2-z
1/2-x,1/2+y,1/2-z
1/2-x,1/2-y,-z
1/2+x,y,-z
1/2-x,y,1/2+z
1/2+x,1/2-y,1/2+z
loop_
_atom_site_type_symbol
_atom_site_label
_atom_site_fract_x
_atom_site_fract_y
_atom_site_fract_z
Si Si1 0.912291 0.881860 0.473773
Si Si2 0.011754 0.920890 0.141028
Si Si3 0.626239 0.165365 0.593219
Si Si4 0.836144 0.863034 0.802066
O O1 0.888139 0.932275 0.409143
O O2 0.830460 0.844136 0.527523
O O3 0.000000 0.750000 0.460273
O O4 0.000000 0.000000 0.500000
O O5 0.000000 0.750000 0.160461
O O6 0.046275 0.044747 0.186967
O O7 0.897028 0.996545 0.114130
O O8 0.500000 0.250000 0.587802
O O9 0.688204 0.261110 0.641739
O O10 0.838337 0.750000 0.750000
O O11 0.750000 0.000000 0.792505
#
# Coordination Sequence:
#
# PCOD9510553 Si02
#       4
#    16  16  16  16
#     4   8  13  26  54  91 123 145 173 226 292 346
#     4   9  18  35  64  96 118 145 189 239 291 356
#     4   8  16  33  59  89 120 153 192 235 283 351
#     4  11  25  43  58  79 118 165 204 247 297 342
#
# _framework density 26.345374
#
# number of rings (size 3 to 8) (size 9 to 14) (size 15 to 20)
#    0.000    3.000    0.000    1.500    0.000    6.500 
#    0.000    2.500    0.000    1.500    0.000    0.000 
#    0.000    0.000    0.000    0.000    0.000    0.000 
#
# Total GULP energy -178399.148302 kJ/mol
# GULP energy per Si atom -5574.973384 kJ/mol
# Density = 2.628541 g / cm^3
# Si number density = 26.345374 Si / 1000 Ang^3
#
#
#
# Elastic Constant Matrix: (Units=GPa)
#
#
# Indices 1 2 3 4 5 6 
#
# 1 39.2813 33.3988 40.1224 0.0000 0.0000 0.0000
# 2 33.3988 223.5528 74.9785 0.0000 0.0000 0.0000
# 3 40.1224 74.9785 183.1030 0.0000 0.0000 0.0000
# 4 0.0000 0.0000 0.0000 41.6403 0.0000 0.0000
# 5 0.0000 0.0000 0.0000 0.0000 -10.0028 0.0000
# 6 0.0000 0.0000 0.0000 0.0000 0.0000 42.6292
#
#
#
# Elastic Compliance Matrix: (Units=1/GPa)
#
#
# Indices 1 2 3 4 5 6 
#
# 1 0.034487 -0.003035 -0.006314 0.000000 0.000000 0.000000
# 2 -0.003035 0.005452 -0.001568 0.000000 0.000000 0.000000
# 3 -0.006314 -0.001568 0.007487 0.000000 0.000000 0.000000
# 4 0.000000 0.000000 0.000000 0.024015 0.000000 0.000000
# 5 0.000000 0.000000 0.000000 0.000000 -0.099972 0.000000
# 6 0.000000 0.000000 0.000000 0.000000 0.000000 0.023458
#
#
# Mechanical properties :
#
#
# Convention : Reuss Voigt Hill
#
# Bulk Modulus (GPa) = 39.07295 82.54850 60.81073
# Shear Modulus (GPa) = 197.68895 34.68248 116.18572
#
# Velocity S-wave (km/s) = 8.67181 3.63223 6.64806
# Velocity P-wave (km/s) = 10.72988 6.99943 9.05876
#
# Compressibility (1/GPa) = 0.02559315
#
# Stress axis : x y z
#
# Youngs Moduli (GPa) = 28.99637 183.40564 133.56467
#
# Poissons Ratio (x) = 0.55656 0.84337
# Poissons Ratio (y) = 0.08799 0.20940
# Poissons Ratio (z) = 0.18309 0.28753
#
# Static dielectric constant tensor:
#      x y z
#    x 2.272850 0.000000 0.000000 
#    y 0.000000 1.891910 0.000000 
#    z 0.000000 0.000000 2.248940 
# 
# From -- ./inp_files/44992.got.cif
#   From: 2010.05.17/outbox.cif.g08.bks.cpg/sg68_23_cif.got.tgz:44992.got - 2010.06.03 18:57:09.
