data_PCOD9510826
_publ_section_title
;
Structure prediction by ZEFSAII (Michael W. Deem and Ramdas Pophale) SiO2 
 PCOD9510826
Probable space group: C C C A
;
_chemical_formula_sum "Si O2"
_cell_formula_units_Z 52
_cell_length_a 20.073399
_cell_length_b 14.837049
_cell_length_c 7.170335
_cell_angle_alpha 90.000000
_cell_angle_beta 90.000000
_cell_angle_gamma 90.000000
_cell_volume 2135.540906
_symmetry_space_group_name_H-M "C C C A"
_symmetry_group_IT_number 68
_space_group.IT_coordinate_system_code '2'
_symmetry_cell_setting 'orthorhombic'
loop_
_space_group_symop_operation_xyz
x,y,z
-x,1/2-y,z
x,1/2-y,1/2-z
-x,y,1/2-z
-x,-y,-z
x,1/2+y,-z
-x,1/2+y,1/2+z
x,-y,1/2+z
1/2+x,1/2+y,z
1/2-x,-y,z
1/2+x,-y,1/2-z
1/2-x,1/2+y,1/2-z
1/2-x,1/2-y,-z
1/2+x,y,-z
1/2-x,y,1/2+z
1/2+x,1/2-y,1/2+z
loop_
_atom_site_type_symbol
_atom_site_label
_atom_site_fract_x
_atom_site_fract_y
_atom_site_fract_z
Si Si1 0.000000 0.250000 0.250000
Si Si2 0.606052 0.114791 0.740095
Si Si3 0.645041 0.083220 0.353241
Si Si4 0.222562 0.649733 0.995817
O O1 0.948672 0.322546 0.161520
O O2 0.599997 0.126739 0.516143
O O3 0.608892 0.009108 0.792993
O O4 0.677315 0.145825 0.812915
O O5 0.715855 0.080895 0.465210
O O6 0.671745 0.130054 0.165410
O O7 0.250000 0.750000 0.000000
#
# Coordination Sequence:
#
# PCOD9510826 Si02
#       4
#     4  16  16  16
#     4  12  32  56  74 100 154 218 284 314 358 468
#     4  12  27  50  74 110 154 209 260 316 384 458
#     4  12  25  44  79 116 156 194 246 325 405 465
#     4  12  25  43  76 122 157 190 244 320 406 472
#
# _framework density 24.349805
#
# number of rings (size 3 to 8) (size 9 to 14) (size 15 to 20)
#    0.000    0.000    6.154    3.692    0.000    1.231 
#    0.000    1.538    0.000    0.000    0.000    0.000 
#    0.000    0.000    0.000    0.000    0.000    0.000 
#
# Total GULP energy -144977.569401 kJ/mol
# GULP energy per Si atom -5576.060362 kJ/mol
# Density = 2.429438 g / cm^3
# Si number density = 24.349805 Si / 1000 Ang^3
#
#
#
# Elastic Constant Matrix: (Units=GPa)
#
#
# Indices 1 2 3 4 5 6 
#
# 1 82.4243 33.0519 5.4914 0.0000 0.0000 0.0000
# 2 33.0519 131.3574 47.3406 0.0000 0.0000 0.0000
# 3 5.4914 47.3406 165.5744 0.0000 0.0000 0.0000
# 4 0.0000 0.0000 0.0000 27.5491 0.0000 0.0000
# 5 0.0000 0.0000 0.0000 0.0000 12.0296 0.0000
# 6 0.0000 0.0000 0.0000 0.0000 0.0000 46.9484
#
#
#
# Elastic Compliance Matrix: (Units=1/GPa)
#
#
# Indices 1 2 3 4 5 6 
#
# 1 0.013545 -0.003619 0.000586 0.000000 0.000000 0.000000
# 2 -0.003619 0.009454 -0.002583 0.000000 0.000000 0.000000
# 3 0.000586 -0.002583 0.006759 0.000000 0.000000 0.000000
# 4 0.000000 0.000000 0.000000 0.036299 0.000000 0.000000
# 5 0.000000 0.000000 0.000000 0.000000 0.083129 0.000000
# 6 0.000000 0.000000 0.000000 0.000000 0.000000 0.021300
#
#
# Mechanical properties :
#
#
# Convention : Reuss Voigt Hill
#
# Bulk Modulus (GPa) = 53.98308 61.23598 57.60953
# Shear Modulus (GPa) = 26.61088 36.87024 31.74056
#
# Velocity S-wave (km/s) = 3.30943 3.89548 3.61435
# Velocity P-wave (km/s) = 6.06803 6.74063 6.41315
#
# Compressibility (1/GPa) = 0.01852432
#
# Stress axis : x y z
#
# Youngs Moduli (GPa) = 73.83031 105.77094 147.95689
#
# Poissons Ratio (x) = 0.38279 -0.08663
# Poissons Ratio (y) = 0.26720 0.38219
# Poissons Ratio (z) = -0.04323 0.27322
#
# Static dielectric constant tensor:
#      x y z
#    x 1.996060 0.000000 0.000000 
#    y 0.000000 1.998360 0.000000 
#    z 0.000000 0.000000 2.042410 
# 
# From -- ./inp_files/6598.got.cif
#   From: 2010.05.17/outbox.cif.g08.bks.cpg/sg68_4_cif.got.tgz:6598.got - 2010.06.03 18:57:09.
