data_PCOD9510509
_publ_section_title
;
Structure prediction by ZEFSAII (Michael W. Deem and Ramdas Pophale) SiO2 
 PCOD9510509
Probable space group: C C C A
;
_chemical_formula_sum "Si O2"
_cell_formula_units_Z 68
_cell_length_a 30.734962
_cell_length_b 5.134208
_cell_length_c 17.028379
_cell_angle_alpha 90.000000
_cell_angle_beta 90.000000
_cell_angle_gamma 90.000000
_cell_volume 2687.072890
_symmetry_space_group_name_H-M "C C C A"
_symmetry_group_IT_number 68
_space_group.IT_coordinate_system_code '2'
_symmetry_cell_setting 'orthorhombic'
loop_
_space_group_symop_operation_xyz
x,y,z
-x,1/2-y,z
x,1/2-y,1/2-z
-x,y,1/2-z
-x,-y,-z
x,1/2+y,-z
-x,1/2+y,1/2+z
x,-y,1/2+z
1/2+x,1/2+y,z
1/2-x,-y,z
1/2+x,-y,1/2-z
1/2-x,1/2+y,1/2-z
1/2-x,1/2-y,-z
1/2+x,y,-z
1/2-x,y,1/2+z
1/2+x,1/2-y,1/2+z
loop_
_atom_site_type_symbol
_atom_site_label
_atom_site_fract_x
_atom_site_fract_y
_atom_site_fract_z
Si Si1 0.500000 0.250000 0.750000
Si Si2 0.959864 0.431679 0.889336
Si Si3 0.388947 0.257977 0.549428
Si Si4 0.373597 0.359478 0.338056
Si Si5 0.223858 0.750976 0.345856
O O1 0.527427 0.434461 0.807083
O O2 0.940558 0.669625 0.941379
O O3 0.917698 0.250305 0.876664
O O4 0.000000 0.250000 0.913350
O O5 0.374285 0.511685 0.502115
O O6 0.374550 0.167351 0.637373
O O7 0.376465 0.250000 0.250000
O O8 0.326688 0.259183 0.366175
O O9 0.225127 0.750000 0.250000
O O10 0.250000 0.500000 0.373464
O O11 0.250000 0.000000 0.374023
#
# Coordination Sequence:
#
# PCOD9510509 Si02
#       5
#     4  16  16  16  16
#     4  12  26  44  72 110 160 178 262 310 356 430
#     4  12  25  45  70 105 144 197 247 306 362 432
#     4  12  27  49  72 107 150 197 248 303 366 439
#     4  11  24  45  78 108 144 193 245 304 373 435
#     4   9  20  38  65 106 143 176 231 304 369 433
#
# _framework density 25.306348
#
# number of rings (size 3 to 8) (size 9 to 14) (size 15 to 20)
#    0.000    0.941    2.353    4.588    3.294    0.941 
#    2.118    0.000    0.000    4.235    0.000    0.000 
#    0.000    0.000    0.000    0.000    0.000    0.000 
#
# Total GULP energy -189855.286247 kJ/mol
# GULP energy per Si atom -5583.979007 kJ/mol
# Density = 2.524875 g / cm^3
# Si number density = 25.306348 Si / 1000 Ang^3
#
#
#
# Elastic Constant Matrix: (Units=GPa)
#
#
# Indices 1 2 3 4 5 6 
#
# 1 208.5272 82.9862 25.6152 0.0000 0.0000 0.0000
# 2 82.9862 202.9374 45.9506 0.0000 0.0000 0.0000
# 3 25.6152 45.9506 88.9310 0.0000 0.0000 0.0000
# 4 0.0000 0.0000 0.0000 23.3057 0.0000 0.0000
# 5 0.0000 0.0000 0.0000 0.0000 29.9529 0.0000
# 6 0.0000 0.0000 0.0000 0.0000 0.0000 47.6425
#
#
#
# Elastic Compliance Matrix: (Units=1/GPa)
#
#
# Indices 1 2 3 4 5 6 
#
# 1 0.005747 -0.002237 -0.000499 0.000000 0.000000 0.000000
# 2 -0.002237 0.006451 -0.002689 0.000000 0.000000 0.000000
# 3 -0.000499 -0.002689 0.012778 0.000000 0.000000 0.000000
# 4 0.000000 0.000000 0.000000 0.042908 0.000000 0.000000
# 5 0.000000 0.000000 0.000000 0.000000 0.033386 0.000000
# 6 0.000000 0.000000 0.000000 0.000000 0.000000 0.020990
#
#
# Mechanical properties :
#
#
# Convention : Reuss Voigt Hill
#
# Bulk Modulus (GPa) = 70.79521 89.94442 80.36982
# Shear Modulus (GPa) = 36.27938 43.23645 39.75791
#
# Velocity S-wave (km/s) = 3.79041 4.13791 3.96797
# Velocity P-wave (km/s) = 6.86966 7.64520 7.26779
#
# Compressibility (1/GPa) = 0.01412525
#
# Stress axis : x y z
#
# Youngs Moduli (GPa) = 173.99882 155.00774 78.25973
#
# Poissons Ratio (x) = 0.34676 0.03909
# Poissons Ratio (y) = 0.38925 0.21044
# Poissons Ratio (z) = 0.08691 0.41682
#
# Static dielectric constant tensor:
#      x y z
#    x 1.929080 0.000000 0.000000 
#    y 0.000000 2.157100 0.000000 
#    z 0.000000 0.000000 2.101220 
# 
# From -- ./inp_files/41499.got.cif
#   From: 2010.05.17/outbox.cif.g08.bks.cpg/sg68_21_cif.got.tgz:41499.got - 2010.06.03 18:57:09.
