data_PCOD9510328
_publ_section_title
;
Structure prediction by ZEFSAII (Michael W. Deem and Ramdas Pophale) SiO2 
 PCOD9510328
Probable space group: C C C A
;
_chemical_formula_sum "Si O2"
_cell_formula_units_Z 52
_cell_length_a 6.666292
_cell_length_b 12.539259
_cell_length_c 23.227636
_cell_angle_alpha 90.000000
_cell_angle_beta 90.000000
_cell_angle_gamma 90.000000
_cell_volume 1941.606501
_symmetry_space_group_name_H-M "C C C A"
_symmetry_group_IT_number 68
_space_group.IT_coordinate_system_code '2'
_symmetry_cell_setting 'orthorhombic'
loop_
_space_group_symop_operation_xyz
x,y,z
-x,1/2-y,z
x,1/2-y,1/2-z
-x,y,1/2-z
-x,-y,-z
x,1/2+y,-z
-x,1/2+y,1/2+z
x,-y,1/2+z
1/2+x,1/2+y,z
1/2-x,-y,z
1/2+x,-y,1/2-z
1/2-x,1/2+y,1/2-z
1/2-x,1/2-y,-z
1/2+x,y,-z
1/2-x,y,1/2+z
1/2+x,1/2-y,1/2+z
loop_
_atom_site_type_symbol
_atom_site_label
_atom_site_fract_x
_atom_site_fract_y
_atom_site_fract_z
Si Si1 0.622211 0.642464 0.194667
Si Si2 0.500000 0.750000 0.750000
Si Si3 0.617800 0.163667 0.493832
Si Si4 0.036003 0.498129 0.097279
O O1 0.500000 0.750000 0.179380
O O2 0.500000 0.599198 0.250000
O O3 0.597723 0.566274 0.141583
O O4 0.847042 0.677790 0.212321
O O5 0.368494 0.196963 0.502697
O O6 0.606819 0.078092 0.545042
O O7 0.573380 0.100107 0.432844
O O8 0.250000 0.500000 0.130577
#
# Coordination Sequence:
#
# PCOD9510328 Si02
#       4
#    16   4  16  16
#     4   9  20  45  83 117 160 209 274 342 412 489
#     4   8  18  44  88 118 168 218 274 344 412 492
#     4  11  23  45  73 114 163 209 265 328 410 489
#     4  11  23  42  81 117 159 215 271 335 411 494
#
# _framework density 26.781943999999999
#
# number of rings (size 3 to 8) (size 9 to 14) (size 15 to 20)
#    0.000    2.154    3.077    0.923    0.000    0.000 
#    0.000   24.615   40.615    0.923    0.000    0.000 
#    0.000    0.000    0.000    0.000    0.000    0.000 
#
# Total GULP energy -145090.164234 kJ/mol
# GULP energy per Si atom -5580.390932 kJ/mol
# Density = 2.672099 g / cm^3
# Si number density = 26.781944 Si / 1000 Ang^3
#
#
#
# Elastic Constant Matrix: (Units=GPa)
#
#
# Indices 1 2 3 4 5 6 
#
# 1 317.2401 114.1123 89.6924 0.0000 0.0000 0.0000
# 2 114.1123 145.4315 75.7792 0.0000 0.0000 0.0000
# 3 89.6924 75.7792 97.3319 0.0000 0.0000 0.0000
# 4 0.0000 0.0000 0.0000 92.7592 0.0000 0.0000
# 5 0.0000 0.0000 0.0000 0.0000 8.7163 0.0000
# 6 0.0000 0.0000 0.0000 0.0000 0.0000 67.8000
#
#
#
# Elastic Compliance Matrix: (Units=1/GPa)
#
#
# Indices 1 2 3 4 5 6 
#
# 1 0.004719 -0.002418 -0.002466 0.000000 0.000000 0.000000
# 2 -0.002418 0.012808 -0.007744 0.000000 0.000000 0.000000
# 3 -0.002466 -0.007744 0.018576 0.000000 0.000000 0.000000
# 4 0.000000 0.000000 0.000000 0.010781 0.000000 0.000000
# 5 0.000000 0.000000 0.000000 0.000000 0.114727 0.000000
# 6 0.000000 0.000000 0.000000 0.000000 0.000000 0.014749
#
#
# Mechanical properties :
#
#
# Convention : Reuss Voigt Hill
#
# Bulk Modulus (GPa) = 92.18974 124.35237 108.27105
# Shear Modulus (GPa) = 24.36254 52.54974 38.45614
#
# Velocity S-wave (km/s) = 3.01933 4.43440 3.79344
# Velocity P-wave (km/s) = 6.83024 8.52941 7.72668
#
# Compressibility (1/GPa) = 0.01084719
#
# Stress axis : x y z
#
# Youngs Moduli (GPa) = 211.90169 78.07392 53.83197
#
# Poissons Ratio (x) = 0.18876 0.13277
# Poissons Ratio (y) = 0.51232 0.41689
# Poissons Ratio (z) = 0.52264 0.60462
#
# Static dielectric constant tensor:
#      x y z
#    x 2.491020 0.000000 0.000000 
#    y 0.000000 2.154720 0.000000 
#    z 0.000000 0.000000 1.986830 
# 
# From -- ./inp_files/34827.got.cif
#   From: 2010.05.17/outbox.cif.g08.bks.cpg/sg68_18_cif.got.tgz:34827.got - 2010.06.03 18:57:09.
