data_PCOD9510319
_publ_section_title
;
Structure prediction by ZEFSAII (Michael W. Deem and Ramdas Pophale) SiO2 
 PCOD9510319
Probable space group: C C C A
;
_chemical_formula_sum "Si O2"
_cell_formula_units_Z 96
_cell_length_a 23.928079
_cell_length_b 14.871935
_cell_length_c 13.454871
_cell_angle_alpha 90.000000
_cell_angle_beta 90.000000
_cell_angle_gamma 90.000000
_cell_volume 4788.007817
_symmetry_space_group_name_H-M "C C C A"
_symmetry_group_IT_number 68
_space_group.IT_coordinate_system_code '2'
_symmetry_cell_setting 'orthorhombic'
loop_
_space_group_symop_operation_xyz
x,y,z
-x,1/2-y,z
x,1/2-y,1/2-z
-x,y,1/2-z
-x,-y,-z
x,1/2+y,-z
-x,1/2+y,1/2+z
x,-y,1/2+z
1/2+x,1/2+y,z
1/2-x,-y,z
1/2+x,-y,1/2-z
1/2-x,1/2+y,1/2-z
1/2-x,1/2-y,-z
1/2+x,y,-z
1/2-x,y,1/2+z
1/2+x,1/2-y,1/2+z
loop_
_atom_site_type_symbol
_atom_site_label
_atom_site_fract_x
_atom_site_fract_y
_atom_site_fract_z
Si Si1 0.000000 0.750000 0.570740
Si Si2 0.321691 0.250000 0.250000
Si Si3 0.250000 0.500000 0.549163
Si Si4 0.049986 0.569693 0.009522
Si Si5 0.859249 0.579855 0.661771
Si Si6 0.914420 0.250000 0.250000
Si Si7 0.643807 0.931903 0.671310
Si Si8 0.246875 0.663523 0.427836
O O1 0.978127 0.668096 0.503509
O O2 0.950649 0.769713 0.650753
O O3 0.356725 0.173335 0.303777
O O4 0.284243 0.302451 0.330209
O O5 0.298655 0.547001 0.612635
O O6 0.220263 0.578917 0.485650
O O7 0.092336 0.561272 0.917194
O O8 0.088558 0.551494 0.105660
O O9 0.000000 0.500000 0.000000
O O10 0.878377 0.662096 0.730835
O O11 0.851922 0.493503 0.731023
O O12 0.805540 0.619076 0.604791
O O13 0.250000 0.750000 0.500000
#
# Coordination Sequence:
#
# PCOD9510319 Si02
#       8
#     8   8   8  16  16   8  16  16
#     4   9  20  40  62  93 128 166 228 285 330 395
#     4  12  25  44  67 103 144 180 227 282 348 412
#     4  12  24  46  66 100 144 178 232 276 346 414
#     4  11  24  45  67  99 133 180 229 285 341 407
#     4  11  23  42  67  99 131 180 222 279 341 403
#     4   9  19  36  67  94 124 171 227 278 333 400
#     4  12  26  44  68 104 140 184 229 280 346 415
#     4  12  24  44  67 100 139 178 227 280 340 413
#
# _framework density 20.050091999999999
#
# number of rings (size 3 to 8) (size 9 to 14) (size 15 to 20)
#    0.000    0.833    3.333    3.500    2.333    3.333 
#    0.000    0.000    0.000    0.000    0.000    0.000 
#    0.000    0.000    0.000    0.000    0.000    0.000 
#
# Total GULP energy -268167.146781 kJ/mol
# GULP energy per Si atom -5586.815558 kJ/mol
# Density = 2.000446 g / cm^3
# Si number density = 20.050092 Si / 1000 Ang^3
#
#
#
# Elastic Constant Matrix: (Units=GPa)
#
#
# Indices 1 2 3 4 5 6 
#
# 1 94.7229 47.6507 35.6658 0.0000 0.0000 0.0000
# 2 47.6507 134.4592 55.3836 0.0000 0.0000 0.0000
# 3 35.6658 55.3836 75.0226 0.0000 0.0000 0.0000
# 4 0.0000 0.0000 0.0000 52.3838 0.0000 0.0000
# 5 0.0000 0.0000 0.0000 0.0000 -1.3650 0.0000
# 6 0.0000 0.0000 0.0000 0.0000 0.0000 37.7294
#
#
#
# Elastic Compliance Matrix: (Units=1/GPa)
#
#
# Indices 1 2 3 4 5 6 
#
# 1 0.013716 -0.003125 -0.004213 0.000000 0.000000 0.000000
# 2 -0.003125 0.011399 -0.006929 0.000000 0.000000 0.000000
# 3 -0.004213 -0.006929 0.020448 0.000000 0.000000 0.000000
# 4 0.000000 0.000000 0.000000 0.019090 0.000000 0.000000
# 5 0.000000 0.000000 0.000000 0.000000 -0.732584 0.000000
# 6 0.000000 0.000000 0.000000 0.000000 0.000000 0.026505
#
#
# Mechanical properties :
#
#
# Convention : Reuss Voigt Hill
#
# Bulk Modulus (GPa) = 58.73124 64.62276 61.67700
# Shear Modulus (GPa) = -8.23430 28.78328 10.27449
#
# Velocity S-wave (km/s) = -2.02874 3.79300 2.26617
# Velocity P-wave (km/s) = 4.88550 7.17517 6.13805
#
# Compressibility (1/GPa) = 0.01702671
#
# Stress axis : x y z
#
# Youngs Moduli (GPa) = 72.90920 87.72806 48.90537
#
# Poissons Ratio (x) = 0.27417 0.20605
# Poissons Ratio (y) = 0.22786 0.33888
# Poissons Ratio (z) = 0.30719 0.60789
#
# Static dielectric constant tensor:
#      x y z
#    x 1.695150 0.000000 0.000000 
#    y 0.000000 1.701090 0.000000 
#    z 0.000000 0.000000 1.800290 
# 
# From -- ./inp_files/24519.got.cif
#   From: 2010.05.17/outbox.cif.g08.bks.cpg/sg68_13_cif.got.tgz:24519.got - 2010.06.03 18:57:09.
