data_PCOD9510048
_publ_section_title
;
Structure prediction by ZEFSAII (Michael W. Deem and Ramdas Pophale) SiO2 
 PCOD9510048
Probable space group: C C C A
;
_chemical_formula_sum "Si O2"
_cell_formula_units_Z 128
_cell_length_a 22.395526
_cell_length_b 12.170256
_cell_length_c 22.915974
_cell_angle_alpha 90.000000
_cell_angle_beta 90.000000
_cell_angle_gamma 90.000000
_cell_volume 6245.961481
_symmetry_space_group_name_H-M "C C C A"
_symmetry_group_IT_number 68
_space_group.IT_coordinate_system_code '2'
_symmetry_cell_setting 'orthorhombic'
loop_
_space_group_symop_operation_xyz
x,y,z
-x,1/2-y,z
x,1/2-y,1/2-z
-x,y,1/2-z
-x,-y,-z
x,1/2+y,-z
-x,1/2+y,1/2+z
x,-y,1/2+z
1/2+x,1/2+y,z
1/2-x,-y,z
1/2+x,-y,1/2-z
1/2-x,1/2+y,1/2-z
1/2-x,1/2-y,-z
1/2+x,y,-z
1/2-x,y,1/2+z
1/2+x,1/2-y,1/2+z
loop_
_atom_site_type_symbol
_atom_site_label
_atom_site_fract_x
_atom_site_fract_y
_atom_site_fract_z
Si Si1 0.184405 0.054368 0.263985
Si Si2 0.905271 0.985738 0.549188
Si Si3 0.324466 0.820863 0.918690
Si Si4 0.884622 0.407942 0.572880
Si Si5 0.608173 0.152441 0.203968
Si Si6 0.502973 0.371415 0.380497
Si Si7 0.806418 0.916852 0.868026
Si Si8 0.692434 0.834812 0.111892
O O1 0.175850 0.101692 0.199508
O O2 0.186530 0.133497 0.319863
O O3 0.250000 0.000000 0.264523
O O4 0.134073 0.961404 0.272012
O O5 0.863923 0.094599 0.544236
O O6 0.962001 0.033232 0.584452
O O7 0.918973 0.932469 0.487107
O O8 0.863007 0.897606 0.582368
O O9 0.340195 0.695503 0.935958
O O10 0.350223 0.825602 0.852611
O O11 0.257099 0.865250 0.915186
O O12 0.850693 0.515334 0.592157
O O13 0.933000 0.392015 0.624165
O O14 0.613777 0.250000 0.250000
O O15 0.541492 0.142100 0.178160
O O16 0.500000 0.250000 0.410414
O O17 0.802605 0.796035 0.894169
O O18 0.750000 0.000000 0.866238
#
# Coordination Sequence:
#
# PCOD9510048 Si02
#       8
#    16  16  16  16  16  16  16  16
#     4  11  21  38  66  97 139 177 216 267 335 417
#     4  11  25  42  70  96 128 183 222 280 348 394
#     4  11  22  42  65 101 136 169 224 280 332 410
#     4  12  25  46  65  96 138 168 232 291 332 405
#     4  11  22  38  68 101 132 170 221 280 343 390
#     4  11  23  45  68  96 129 170 231 286 335 402
#     4  11  26  40  62 100 134 180 219 273 341 402
#     4  12  22  43  66  97 139 179 225 268 339 421
#
# _framework density 20.493241999999999
#
# number of rings (size 3 to 8) (size 9 to 14) (size 15 to 20)
#    0.000    0.750    7.500    1.875    3.500    1.750 
#    0.000    0.625    0.000    0.000    3.250    0.000 
#    0.000    0.000    0.000    0.000    0.000    0.000 
#
# Total GULP energy -356980.011650 kJ/mol
# GULP energy per Si atom -5577.812682 kJ/mol
# Density = 2.044660 g / cm^3
# Si number density = 20.493242 Si / 1000 Ang^3
#
#
#
# Elastic Constant Matrix: (Units=GPa)
#
#
# Indices 1 2 3 4 5 6 
#
# 1 60.9505 33.9152 22.5467 0.0000 0.0000 0.0000
# 2 33.9152 107.2194 1.3035 0.0000 0.0000 0.0000
# 3 22.5467 1.3035 23.7294 0.0000 0.0000 0.0000
# 4 0.0000 0.0000 0.0000 -24.3210 0.0000 0.0000
# 5 0.0000 0.0000 0.0000 0.0000 4.5074 0.0000
# 6 0.0000 0.0000 0.0000 0.0000 0.0000 33.4133
#
#
#
# Elastic Compliance Matrix: (Units=1/GPa)
#
#
# Indices 1 2 3 4 5 6 
#
# 1 0.033827 -0.010316 -0.031574 0.000000 0.000000 0.000000
# 2 -0.010316 0.012479 0.009117 0.000000 0.000000 0.000000
# 3 -0.031574 0.009117 0.071642 0.000000 0.000000 0.000000
# 4 0.000000 0.000000 0.000000 -0.041117 0.000000 0.000000
# 5 0.000000 0.000000 0.000000 0.000000 0.221858 0.000000
# 6 0.000000 0.000000 0.000000 0.000000 0.000000 0.029928
#
#
# Mechanical properties :
#
#
# Convention : Reuss Voigt Hill
#
# Bulk Modulus (GPa) = 19.08406 34.15890 26.62148
# Shear Modulus (GPa) = 12.14677 11.66219 11.90448
#
# Velocity S-wave (km/s) = 2.43723 2.38812 2.41280
# Velocity P-wave (km/s) = 4.15364 4.93039 4.55858
#
# Compressibility (1/GPa) = 0.05239975
#
# Stress axis : x y z
#
# Youngs Moduli (GPa) = 29.56213 80.13456 13.95831
#
# Poissons Ratio (x) = 0.82668 0.44073
# Poissons Ratio (y) = 0.30497 -0.12725
# Poissons Ratio (z) = 0.93341 -0.73055
#
# Static dielectric constant tensor:
#      x y z
#    x 1.766850 0.000000 0.000000 
#    y 0.000000 1.776870 0.000000 
#    z 0.000000 0.000000 1.740920 
# 
# From -- ./inp_files/44739.got.cif
#   From: 2010.05.17/outbox.cif.g08.bks.cpg/sg68_23_cif.got.tgz:44739.got - 2010.06.03 18:57:09.
