data_PCOD9510970
_publ_section_title
;
Structure prediction by ZEFSAII (Michael W. Deem and Ramdas Pophale) SiO2 
 PCOD9510970
Probable space group: C C C A
;
_chemical_formula_sum "Si O2"
_cell_formula_units_Z 28
_cell_length_a 12.000000
_cell_length_b 15.000000
_cell_length_c 15.000000
_cell_angle_alpha 90.000000
_cell_angle_beta 90.000000
_cell_angle_gamma 90.000000
_cell_volume 2700.000000
_symmetry_space_group_name_H-M "C C C A"
_symmetry_group_IT_number 68
_space_group.IT_coordinate_system_code '2'
_symmetry_cell_setting 'orthorhombic'
loop_
_space_group_symop_operation_xyz
x,y,z
-x,1/2-y,z
x,1/2-y,1/2-z
-x,y,1/2-z
-x,-y,-z
x,1/2+y,-z
-x,1/2+y,1/2+z
x,-y,1/2+z
1/2+x,1/2+y,z
1/2-x,-y,z
1/2+x,-y,1/2-z
1/2-x,1/2+y,1/2-z
1/2-x,1/2-y,-z
1/2+x,y,-z
1/2-x,y,1/2+z
1/2+x,1/2-y,1/2+z
loop_
_atom_site_type_symbol
_atom_site_label
_atom_site_fract_x
_atom_site_fract_y
_atom_site_fract_z
Si Si1 0.366754 0.244370 0.356509
Si Si2 0.643187 0.062939 0.410410
Si Si3 0.500000 0.531290 0.250000
Si Si4 0.319215 0.910362 0.386020
O O1 0.500000 0.250000 0.386623
O O2 0.370942 0.250000 0.250000
O O3 0.318564 0.338151 0.386806
O O4 0.278113 0.166857 0.385479
O O5 0.617416 0.074217 0.517763
O O6 0.750000 0.000000 0.406209
O O7 0.557358 0.028473 0.331362
O O8 0.591275 0.590333 0.304558
O O9 0.250000 0.000000 0.370060
#
# Coordination Sequence:
#
# PCOD9510970 Si02
#       4
#    16  16   8  16
#     4  11  22  41  68  95 130 177 223 272 335 403
#     4  11  24  43  66  95 132 176 224 275 336 404
#     4  12  22  42  70  96 136 178 220 282 342 398
#     4  11  24  42  66  99 134 175 227 280 337 402
#
# _framework density 10.370369999999999
#
# number of rings (size 3 to 8) (size 9 to 14) (size 15 to 20)
#    0.000    0.857    0.000    9.429    0.000    2.286 
#    0.000    9.286    0.000    0.000    0.000    0.000 
#    0.000    0.000    0.000    0.000    0.000    0.000 
#
# Total GULP energy -155975.114829 kJ/mol
# GULP energy per Si atom -5570.539815 kJ/mol
# Density = 1.034677 g / cm^3
# Si number density = 10.370370 Si / 1000 Ang^3
#
#
#
# Elastic Constant Matrix: (Units=GPa)
#
#
# Indices 1 2 3 4 5 6 
#
# 1 104.8338 62.6017 61.2596 0.0000 0.0000 0.0000
# 2 62.6017 162.3239 22.2114 0.0000 0.0000 0.0000
# 3 61.2596 22.2114 151.4915 0.0000 0.0000 0.0000
# 4 0.0000 0.0000 0.0000 35.8903 0.0000 0.0000
# 5 0.0000 0.0000 0.0000 0.0000 30.3941 0.0000
# 6 0.0000 0.0000 0.0000 0.0000 0.0000 29.3756
#
#
#
# Elastic Compliance Matrix: (Units=1/GPa)
#
#
# Indices 1 2 3 4 5 6 
#
# 1 0.016132 -0.005438 -0.005726 0.000000 0.000000 0.000000
# 2 -0.005438 0.008120 0.001009 0.000000 0.000000 0.000000
# 3 -0.005726 0.001009 0.008769 0.000000 0.000000 0.000000
# 4 0.000000 0.000000 0.000000 0.027863 0.000000 0.000000
# 5 0.000000 0.000000 0.000000 0.000000 0.032901 0.000000
# 6 0.000000 0.000000 0.000000 0.000000 0.000000 0.034042
#
#
# Mechanical properties :
#
#
# Convention : Reuss Voigt Hill
#
# Bulk Modulus (GPa) = 78.68253 78.97720 78.82987
# Shear Modulus (GPa) = 32.81387 37.30375 35.05881
#
# Velocity S-wave (km/s) = 3.98187 4.24556 4.11583
# Velocity P-wave (km/s) = 7.69149 7.88632 7.78951
#
# Compressibility (1/GPa) = 0.01270930
#
# Stress axis : x y z
#
# Youngs Moduli (GPa) = 61.98711 123.15634 114.04176
#
# Poissons Ratio (x) = 0.66973 0.65303
# Poissons Ratio (y) = 0.33709 -0.11501
# Poissons Ratio (z) = 0.35495 -0.12421
#
# Static dielectric constant tensor:
#      x y z
#    x 1.835430 0.000000 0.000000 
#    y 0.000000 1.762130 0.000000 
#    z 0.000000 0.000000 1.923520 
# 
# From -- ./inp_files/20087.got.cif
#   From: 2010.05.17/outbox.ucp.g08.bks.cvg/sg68_11_cif.got.tgz:20087.got - 2010.06.11 16:49:25.
