data_PCOD9510271
_publ_section_title
;
Structure prediction by ZEFSAII (Michael W. Deem and Ramdas Pophale) SiO2 
 PCOD9510271
Probable space group: C C C A
;
_chemical_formula_sum "Si O2"
_cell_formula_units_Z 64
_cell_length_a 23.369602
_cell_length_b 22.015132
_cell_length_c 4.958229
_cell_angle_alpha 90.000000
_cell_angle_beta 90.000000
_cell_angle_gamma 90.000000
_cell_volume 2550.933816
_symmetry_space_group_name_H-M "C C C A"
_symmetry_group_IT_number 68
_space_group.IT_coordinate_system_code '2'
_symmetry_cell_setting 'orthorhombic'
loop_
_space_group_symop_operation_xyz
x,y,z
-x,1/2-y,z
x,1/2-y,1/2-z
-x,y,1/2-z
-x,-y,-z
x,1/2+y,-z
-x,1/2+y,1/2+z
x,-y,1/2+z
1/2+x,1/2+y,z
1/2-x,-y,z
1/2+x,-y,1/2-z
1/2-x,1/2+y,1/2-z
1/2-x,1/2-y,-z
1/2+x,y,-z
1/2-x,y,1/2+z
1/2+x,1/2-y,1/2+z
loop_
_atom_site_type_symbol
_atom_site_label
_atom_site_fract_x
_atom_site_fract_y
_atom_site_fract_z
Si Si1 0.060635 0.603790 0.197830
Si Si2 0.216491 0.828470 0.064229
Si Si3 0.409897 0.317106 0.672172
Si Si4 0.821884 0.539703 0.203816
O O1 0.057947 0.658959 0.410245
O O2 0.112013 0.560824 0.294089
O O3 0.000000 0.571895 0.250000
O O4 0.078482 0.634059 0.911595
O O5 0.268348 0.809427 0.868510
O O6 0.156498 0.812409 0.925596
O O7 0.211449 0.901231 0.103083
O O8 0.428309 0.250000 0.750000
O O9 0.811599 0.515666 0.502722
#
# Coordination Sequence:
#
# PCOD9510271 Si02
#       4
#    16  16  16  16
#     4  11  24  42  64  93 128 165 211 264 317 380
#     4  11  23  40  62  90 123 160 205 255 308 370
#     4  11  24  42  64  93 128 165 211 264 317 380
#     4  11  23  40  62  90 123 160 205 255 308 370
#
# _framework density 25.088853
#
# number of rings (size 3 to 8) (size 9 to 14) (size 15 to 20)
#    0.000    1.000    0.000    9.000    0.000    8.000 
#    0.000    0.000    0.000    0.000    0.000    0.000 
#    0.000    0.000    0.000    0.000    0.000    0.000 
#
# Total GULP energy -179148.501814 kJ/mol
# GULP energy per Si atom -5598.390682 kJ/mol
# Density = 2.503175 g / cm^3
# Si number density = 25.088853 Si / 1000 Ang^3
#
#
#
# Elastic Constant Matrix: (Units=GPa)
#
#
# Indices 1 2 3 4 5 6 
#
# 1 138.3056 15.9440 39.6819 0.0000 0.0000 0.0000
# 2 15.9440 54.3225 -0.3819 0.0000 0.0000 0.0000
# 3 39.6819 -0.3819 146.7757 0.0000 0.0000 0.0000
# 4 0.0000 0.0000 0.0000 30.9471 0.0000 0.0000
# 5 0.0000 0.0000 0.0000 0.0000 25.8764 0.0000
# 6 0.0000 0.0000 0.0000 0.0000 0.0000 13.1633
#
#
#
# Elastic Compliance Matrix: (Units=1/GPa)
#
#
# Indices 1 2 3 4 5 6 
#
# 1 0.008141 -0.002405 -0.002207 0.000000 0.000000 0.000000
# 2 -0.002405 0.019119 0.000700 0.000000 0.000000 0.000000
# 3 -0.002207 0.000700 0.007412 0.000000 0.000000 0.000000
# 4 0.000000 0.000000 0.000000 0.032313 0.000000 0.000000
# 5 0.000000 0.000000 0.000000 0.000000 0.038645 0.000000
# 6 0.000000 0.000000 0.000000 0.000000 0.000000 0.075969
#
#
# Mechanical properties :
#
#
# Convention : Reuss Voigt Hill
#
# Bulk Modulus (GPa) = 37.24736 49.98798 43.61767
# Shear Modulus (GPa) = 25.20510 32.94135 29.07322
#
# Velocity S-wave (km/s) = 3.17303 3.62745 3.40782
# Velocity P-wave (km/s) = 5.32002 6.12472 5.73649
#
# Compressibility (1/GPa) = 0.02684754
#
# Stress axis : x y z
#
# Youngs Moduli (GPa) = 122.83671 52.30300 134.92232
#
# Poissons Ratio (x) = 0.12578 0.29780
# Poissons Ratio (y) = 0.29541 -0.09444
# Poissons Ratio (z) = 0.27113 -0.03661
#
# Static dielectric constant tensor:
#      x y z
#    x 2.111780 0.000000 0.000000 
#    y 0.000000 2.053250 0.000000 
#    z 0.000000 0.000000 1.919680 
# 
# From -- ./inp_files/1386.got.cif
#   From: 2010.05.17/outbox.cif.g08.bks.cpg/sg68_1_cif.got.tgz:1386.got - 2010.06.03 18:57:09.
