data_PCOD9510556
_publ_section_title
;
Structure prediction by ZEFSAII (Michael W. Deem and Ramdas Pophale) SiO2 
 PCOD9510556
Probable space group: C C C A
;
_chemical_formula_sum "Si O2"
_cell_formula_units_Z 72
_cell_length_a 15.504978
_cell_length_b 12.922809
_cell_length_c 16.668851
_cell_angle_alpha 90.000000
_cell_angle_beta 90.000000
_cell_angle_gamma 90.000000
_cell_volume 3339.902158
_symmetry_space_group_name_H-M "C C C A"
_symmetry_group_IT_number 68
_space_group.IT_coordinate_system_code '2'
_symmetry_cell_setting 'orthorhombic'
loop_
_space_group_symop_operation_xyz
x,y,z
-x,1/2-y,z
x,1/2-y,1/2-z
-x,y,1/2-z
-x,-y,-z
x,1/2+y,-z
-x,1/2+y,1/2+z
x,-y,1/2+z
1/2+x,1/2+y,z
1/2-x,-y,z
1/2+x,-y,1/2-z
1/2-x,1/2+y,1/2-z
1/2-x,1/2-y,-z
1/2+x,y,-z
1/2-x,y,1/2+z
1/2+x,1/2-y,1/2+z
loop_
_atom_site_type_symbol
_atom_site_label
_atom_site_fract_x
_atom_site_fract_y
_atom_site_fract_z
Si Si1 0.250000 0.000000 0.653682
Si Si2 0.672491 0.648513 0.783670
Si Si3 0.913449 0.498361 0.404602
Si Si4 0.089107 0.603133 0.929190
Si Si5 0.803627 0.799383 0.574430
O O1 0.259537 0.688860 0.649986
O O2 0.169542 0.964353 0.601136
O O3 0.625021 0.750000 0.750000
O O4 0.617173 0.560822 0.827341
O O5 0.721764 0.593056 0.711339
O O6 0.924328 0.581068 0.476314
O O7 0.843902 0.413557 0.434774
O O8 0.002086 0.438038 0.389329
O O9 0.117376 0.720226 0.912881
O O10 0.750000 0.750000 0.500000
#
# Coordination Sequence:
#
# PCOD9510556 Si02
#       5
#     8  16  16  16  16
#     4  12  24  44  70 104 138 186 238 292 376 438
#     4  12  25  44  71 105 144 191 244 299 372 441
#     4  11  25  45  68 107 147 184 240 308 360 438
#     4  11  25  43  72 103 141 188 239 294 369 438
#     4  12  22  42  74 103 140 193 246 295 357 450
#
# _framework density 21.557518000000002
#
# number of rings (size 3 to 8) (size 9 to 14) (size 15 to 20)
#    0.000    0.444    6.667    2.000    0.000    0.889 
#    0.000    2.222    0.000    0.000    0.000    0.000 
#    0.000    0.000    0.000    0.000    0.000    0.000 
#
# Total GULP energy -201341.993156 kJ/mol
# GULP energy per Si atom -5592.833143 kJ/mol
# Density = 2.150845 g / cm^3
# Si number density = 21.557518 Si / 1000 Ang^3
#
#
#
# Elastic Constant Matrix: (Units=GPa)
#
#
# Indices 1 2 3 4 5 6 
#
# 1 94.9211 41.8892 23.3991 0.0000 0.0000 0.0000
# 2 41.8892 123.1602 19.6819 0.0000 0.0000 0.0000
# 3 23.3991 19.6819 43.7418 0.0000 0.0000 0.0000
# 4 0.0000 0.0000 0.0000 41.0812 0.0000 0.0000
# 5 0.0000 0.0000 0.0000 0.0000 11.0821 0.0000
# 6 0.0000 0.0000 0.0000 0.0000 0.0000 33.0754
#
#
#
# Elastic Compliance Matrix: (Units=1/GPa)
#
#
# Indices 1 2 3 4 5 6 
#
# 1 0.013550 -0.003718 -0.005576 0.000000 0.000000 0.000000
# 2 -0.003718 0.009769 -0.002407 0.000000 0.000000 0.000000
# 3 -0.005576 -0.002407 0.026927 0.000000 0.000000 0.000000
# 4 0.000000 0.000000 0.000000 0.024342 0.000000 0.000000
# 5 0.000000 0.000000 0.000000 0.000000 0.090235 0.000000
# 6 0.000000 0.000000 0.000000 0.000000 0.000000 0.030234
#
#
# Mechanical properties :
#
#
# Convention : Reuss Voigt Hill
#
# Bulk Modulus (GPa) = 37.25007 47.97373 42.61190
# Shear Modulus (GPa) = 21.98712 28.83792 25.41252
#
# Velocity S-wave (km/s) = 3.19710 3.66145 3.43713
# Velocity P-wave (km/s) = 5.56286 6.33854 5.96333
#
# Compressibility (1/GPa) = 0.02684559
#
# Stress axis : x y z
#
# Youngs Moduli (GPa) = 73.79989 102.36923 37.13740
#
# Poissons Ratio (x) = 0.38057 0.20707
# Poissons Ratio (y) = 0.27436 0.08938
# Poissons Ratio (z) = 0.41149 0.24637
#
# Static dielectric constant tensor:
#      x y z
#    x 1.781940 0.000000 0.000000 
#    y 0.000000 1.810990 0.000000 
#    z 0.000000 0.000000 1.780430 
# 
# From -- ./inp_files/39282.got.cif
#   From: 2010.05.17/outbox.cif.g08.bks.cpg/sg68_20_cif.got.tgz:39282.got - 2010.06.03 18:57:09.
