data_PCOD9510557
_publ_section_title
;
Structure prediction by ZEFSAII (Michael W. Deem and Ramdas Pophale) SiO2 
 PCOD9510557
Probable space group: C C C A
;
_chemical_formula_sum "Si O2"
_cell_formula_units_Z 68
_cell_length_a 16.555621
_cell_length_b 8.770344
_cell_length_c 21.794421
_cell_angle_alpha 90.000000
_cell_angle_beta 90.000000
_cell_angle_gamma 90.000000
_cell_volume 3164.517048
_symmetry_space_group_name_H-M "C C C A"
_symmetry_group_IT_number 68
_space_group.IT_coordinate_system_code '2'
_symmetry_cell_setting 'orthorhombic'
loop_
_space_group_symop_operation_xyz
x,y,z
-x,1/2-y,z
x,1/2-y,1/2-z
-x,y,1/2-z
-x,-y,-z
x,1/2+y,-z
-x,1/2+y,1/2+z
x,-y,1/2+z
1/2+x,1/2+y,z
1/2-x,-y,z
1/2+x,-y,1/2-z
1/2-x,1/2+y,1/2-z
1/2-x,1/2-y,-z
1/2+x,y,-z
1/2-x,y,1/2+z
1/2+x,1/2-y,1/2+z
loop_
_atom_site_type_symbol
_atom_site_label
_atom_site_fract_x
_atom_site_fract_y
_atom_site_fract_z
Si Si1 0.164458 0.419306 0.433106
Si Si2 0.690558 0.778895 0.179095
Si Si3 0.000000 0.250000 0.750000
Si Si4 0.088884 0.276756 0.970252
Si Si5 0.372053 0.613955 0.656363
O O1 0.250000 0.500000 0.442739
O O2 0.161571 0.357866 0.364095
O O3 0.151662 0.277782 0.478486
O O4 0.100750 0.549820 0.449658
O O5 0.673059 0.750000 0.250000
O O6 0.787385 0.800229 0.171256
O O7 0.649147 0.935750 0.157880
O O8 0.059301 0.346208 0.705852
O O9 0.100778 0.172330 0.910174
O O10 0.000000 0.250000 0.995775
#
# Coordination Sequence:
#
# PCOD9510557 Si02
#       5
#    16  16   4  16  16
#     4  12  26  45  73 105 141 187 245 289 349 425
#     4  11  26  44  71 105 141 186 236 293 351 426
#     4  12  24  48  74 108 140 190 236 292 360 428
#     4  12  26  46  71 103 147 188 235 298 364 415
#     4  11  25  43  73 102 143 182 238 289 357 421
#
# _framework density 21.48827
#
# number of rings (size 3 to 8) (size 9 to 14) (size 15 to 20)
#    0.000    0.471    4.706    2.824    9.882    0.000 
#    0.000    2.941    0.000    0.000    0.000    0.000 
#    0.000    0.000    0.000    0.000    0.000    0.000 
#
# Total GULP energy -190384.224949 kJ/mol
# GULP energy per Si atom -5599.536028 kJ/mol
# Density = 2.143936 g / cm^3
# Si number density = 21.488270 Si / 1000 Ang^3
#
#
#
# Elastic Constant Matrix: (Units=GPa)
#
#
# Indices 1 2 3 4 5 6 
#
# 1 69.6780 29.9867 21.4518 0.0000 0.0000 0.0000
# 2 29.9867 96.8849 32.6598 0.0000 0.0000 0.0000
# 3 21.4518 32.6598 126.1569 0.0000 0.0000 0.0000
# 4 0.0000 0.0000 0.0000 28.9902 0.0000 0.0000
# 5 0.0000 0.0000 0.0000 0.0000 17.3741 0.0000
# 6 0.0000 0.0000 0.0000 0.0000 0.0000 22.4600
#
#
#
# Elastic Compliance Matrix: (Units=1/GPa)
#
#
# Indices 1 2 3 4 5 6 
#
# 1 0.016869 -0.004661 -0.001662 0.000000 0.000000 0.000000
# 2 -0.004661 0.012596 -0.002468 0.000000 0.000000 0.000000
# 3 -0.001662 -0.002468 0.008848 0.000000 0.000000 0.000000
# 4 0.000000 0.000000 0.000000 0.034494 0.000000 0.000000
# 5 0.000000 0.000000 0.000000 0.000000 0.057557 0.000000
# 6 0.000000 0.000000 0.000000 0.000000 0.000000 0.044524
#
#
# Mechanical properties :
#
#
# Convention : Reuss Voigt Hill
#
# Bulk Modulus (GPa) = 48.23610 51.21292 49.72451
# Shear Modulus (GPa) = 25.07756 27.67296 26.37526
#
# Velocity S-wave (km/s) = 3.41990 3.59251 3.50726
# Velocity P-wave (km/s) = 6.17176 6.41037 6.29220
#
# Compressibility (1/GPa) = 0.02073136
#
# Stress axis : x y z
#
# Youngs Moduli (GPa) = 59.27946 79.38881 113.01688
#
# Poissons Ratio (x) = 0.37003 0.18781
# Poissons Ratio (y) = 0.27630 0.27897
# Poissons Ratio (z) = 0.09851 0.19596
#
# Static dielectric constant tensor:
#      x y z
#    x 1.781340 0.000000 0.000000 
#    y 0.000000 1.776400 0.000000 
#    z 0.000000 0.000000 1.741480 
# 
# From -- ./inp_files/35852.got.cif
#   From: 2010.05.17/outbox.cif.g08.bks.cpg/sg68_18_cif.got.tgz:35852.got - 2010.06.03 18:57:09.
