data_PCOD9510917
_publ_section_title
;
Structure prediction by ZEFSAII (Michael W. Deem and Ramdas Pophale) SiO2 
 PCOD9510917
Probable space group: C C C A
;
_chemical_formula_sum "Si O2"
_cell_formula_units_Z 44
_cell_length_a 18.000000
_cell_length_b 21.000000
_cell_length_c 12.000000
_cell_angle_alpha 90.000000
_cell_angle_beta 90.000000
_cell_angle_gamma 90.000000
_cell_volume 4536.000000
_symmetry_space_group_name_H-M "C C C A"
_symmetry_group_IT_number 68
_space_group.IT_coordinate_system_code '2'
_symmetry_cell_setting 'orthorhombic'
loop_
_space_group_symop_operation_xyz
x,y,z
-x,1/2-y,z
x,1/2-y,1/2-z
-x,y,1/2-z
-x,-y,-z
x,1/2+y,-z
-x,1/2+y,1/2+z
x,-y,1/2+z
1/2+x,1/2+y,z
1/2-x,-y,z
1/2+x,-y,1/2-z
1/2-x,1/2+y,1/2-z
1/2-x,1/2-y,-z
1/2+x,y,-z
1/2-x,y,1/2+z
1/2+x,1/2-y,1/2+z
loop_
_atom_site_type_symbol
_atom_site_label
_atom_site_fract_x
_atom_site_fract_y
_atom_site_fract_z
Si Si1 0.722765 0.426797 0.324107
Si Si2 0.345336 0.674355 0.247852
Si Si3 0.446329 0.398045 0.593816
Si Si4 0.000000 0.991890 0.250000
Si Si5 0.381262 0.097467 0.533644
Si Si6 0.629287 0.048020 0.389898
O O1 0.750000 0.500000 0.352751
O O2 0.785025 0.371992 0.311779
O O3 0.661123 0.403648 0.414826
O O4 0.690194 0.432383 0.198953
O O5 0.330104 0.750000 0.250000
O O6 0.420072 0.657937 0.176294
O O7 0.352836 0.647660 0.374094
O O8 0.451986 0.461230 0.671536
O O9 0.528662 0.393582 0.538840
O O10 0.384571 0.411033 0.499759
O O11 0.052169 0.949468 0.176159
O O12 0.364179 0.026388 0.579424
#
# Coordination Sequence:
#
# PCOD9510917 Si02
#       6
#    16  16  16   8  16  16
#     4  12  25  42  66 101 137 180 223 279 347 407
#     4  12  27  45  67  94 138 183 227 274 336 418
#     4  11  21  40  66  98 131 171 225 282 335 392
#     4  10  16  36  59 104 133 158 218 278 342 382
#     4  11  23  41  67  97 131 172 225 281 335 394
#     4  11  20  35  65 100 132 166 214 285 338 392
#
# _framework density 9.7001760000000008
#
# number of rings (size 3 to 8) (size 9 to 14) (size 15 to 20)
#    0.000    0.727    5.455    5.455    5.091    2.182 
#    0.000    0.000    0.000    0.000    0.000    0.000 
#    0.000    0.000    0.000    0.000    0.000    0.000 
#
# Total GULP energy -245673.373784 kJ/mol
# GULP energy per Si atom -5583.485768 kJ/mol
# Density = 0.967810 g / cm^3
# Si number density = 9.700176 Si / 1000 Ang^3
#
#
#
# Elastic Constant Matrix: (Units=GPa)
#
#
# Indices 1 2 3 4 5 6 
#
# 1 81.9727 53.8028 64.2356 0.0000 0.0000 0.0000
# 2 53.8028 111.8981 35.7796 0.0000 0.0000 0.0000
# 3 64.2356 35.7796 114.6394 0.0000 0.0000 0.0000
# 4 0.0000 0.0000 0.0000 19.4784 0.0000 0.0000
# 5 0.0000 0.0000 0.0000 0.0000 51.1665 0.0000
# 6 0.0000 0.0000 0.0000 0.0000 0.0000 20.2854
#
#
#
# Elastic Compliance Matrix: (Units=1/GPa)
#
#
# Indices 1 2 3 4 5 6 
#
# 1 0.028844 -0.009666 -0.013146 0.000000 0.000000 0.000000
# 2 -0.009666 0.013166 0.001307 0.000000 0.000000 0.000000
# 3 -0.013146 0.001307 0.015681 0.000000 0.000000 0.000000
# 4 0.000000 0.000000 0.000000 0.051339 0.000000 0.000000
# 5 0.000000 0.000000 0.000000 0.000000 0.019544 0.000000
# 6 0.000000 0.000000 0.000000 0.000000 0.000000 0.049297
#
#
# Mechanical properties :
#
#
# Convention : Reuss Voigt Hill
#
# Bulk Modulus (GPa) = 68.10801 68.46068 68.28435
# Shear Modulus (GPa) = 22.14597 28.49887 25.32242
#
# Velocity S-wave (km/s) = 3.38231 3.83689 3.61675
# Velocity P-wave (km/s) = 7.10184 7.41579 7.26051
#
# Compressibility (1/GPa) = 0.01468256
#
# Stress axis : x y z
#
# Youngs Moduli (GPa) = 34.66872 75.95126 63.77124
#
# Poissons Ratio (x) = 0.73412 0.83831
# Poissons Ratio (y) = 0.33510 -0.08333
# Poissons Ratio (z) = 0.45574 -0.09924
#
# Static dielectric constant tensor:
#      x y z
#    x 1.778800 0.000000 0.000000 
#    y 0.000000 1.620850 0.000000 
#    z 0.000000 0.000000 1.731330 
# 
# From -- ./inp_files/14456.got.cif
#   From: 2010.05.17/outbox.ucp.g08.bks.cvg/sg68_8_cif.got.tgz:14456.got - 2010.06.11 16:49:25.
