data_PCOD9510576
_publ_section_title
;
Structure prediction by ZEFSAII (Michael W. Deem and Ramdas Pophale) SiO2 
 PCOD9510576
Probable space group: C C C A
;
_chemical_formula_sum "Si O2"
_cell_formula_units_Z 52
_cell_length_a 21.851720
_cell_length_b 8.397135
_cell_length_c 12.838043
_cell_angle_alpha 90.000000
_cell_angle_beta 90.000000
_cell_angle_gamma 90.000000
_cell_volume 2355.676168
_symmetry_space_group_name_H-M "C C C A"
_symmetry_group_IT_number 68
_space_group.IT_coordinate_system_code '2'
_symmetry_cell_setting 'orthorhombic'
loop_
_space_group_symop_operation_xyz
x,y,z
-x,1/2-y,z
x,1/2-y,1/2-z
-x,y,1/2-z
-x,-y,-z
x,1/2+y,-z
-x,1/2+y,1/2+z
x,-y,1/2+z
1/2+x,1/2+y,z
1/2-x,-y,z
1/2+x,-y,1/2-z
1/2-x,1/2+y,1/2-z
1/2-x,1/2-y,-z
1/2+x,y,-z
1/2-x,y,1/2+z
1/2+x,1/2-y,1/2+z
loop_
_atom_site_type_symbol
_atom_site_label
_atom_site_fract_x
_atom_site_fract_y
_atom_site_fract_z
Si Si1 0.266297 0.191427 0.142161
Si Si2 0.148177 0.778691 0.551079
Si Si3 0.500000 0.250000 0.250000
Si Si4 0.559560 0.437492 0.060766
O O1 0.293733 0.250000 0.250000
O O2 0.310248 0.264783 0.053498
O O3 0.250000 0.000000 0.131473
O O4 0.199055 0.272712 0.133199
O O5 0.089523 0.676281 0.525002
O O6 0.115948 0.943130 0.580816
O O7 0.539627 0.355751 0.168974
O O8 0.500000 0.500000 0.000000
#
# Coordination Sequence:
#
# PCOD9510576 Si02
#       4
#    16  16   4  16
#     4  11  26  42  71 107 142 192 240 295 369 444
#     4  11  25  46  70 102 147 186 235 309 362 425
#     4  12  28  44  78 110 144 208 250 292 382 438
#     4  12  25  47  74 104 146 193 244 308 363 432
#
# _framework density 22.074342000000001
#
# number of rings (size 3 to 8) (size 9 to 14) (size 15 to 20)
#    0.000    0.615    6.154    0.000    6.462    2.462 
#    0.000    1.538    0.000    0.000    0.000    0.000 
#    0.000    0.000    0.000    0.000    0.000    0.000 
#
# Total GULP energy -144800.563227 kJ/mol
# GULP energy per Si atom -5569.252432 kJ/mol
# Density = 2.202410 g / cm^3
# Si number density = 22.074342 Si / 1000 Ang^3
#
#
#
# Elastic Constant Matrix: (Units=GPa)
#
#
# Indices 1 2 3 4 5 6 
#
# 1 144.4577 57.9036 56.7359 0.0000 0.0000 0.0000
# 2 57.9036 52.0840 4.4911 0.0000 0.0000 0.0000
# 3 56.7359 4.4911 98.0316 0.0000 0.0000 0.0000
# 4 0.0000 0.0000 0.0000 91.8009 0.0000 0.0000
# 5 0.0000 0.0000 0.0000 0.0000 26.0730 0.0000
# 6 0.0000 0.0000 0.0000 0.0000 0.0000 -0.2999
#
#
#
# Elastic Compliance Matrix: (Units=1/GPa)
#
#
# Indices 1 2 3 4 5 6 
#
# 1 0.018988 -0.020242 -0.010062 0.000000 0.000000 0.000000
# 2 -0.020242 0.040855 0.009843 0.000000 0.000000 0.000000
# 3 -0.010062 0.009843 0.015573 0.000000 0.000000 0.000000
# 4 0.000000 0.000000 0.000000 0.010893 0.000000 0.000000
# 5 0.000000 0.000000 0.000000 0.000000 0.038354 0.000000
# 6 0.000000 0.000000 0.000000 0.000000 0.000000 -3.334534
#
#
# Mechanical properties :
#
#
# Convention : Reuss Voigt Hill
#
# Bulk Modulus (GPa) = 28.98985 59.20384 44.09685
# Shear Modulus (GPa) = -1.58356 35.21098 16.81371
#
# Velocity S-wave (km/s) = -0.84790 3.99821 2.76286
# Velocity P-wave (km/s) = 3.49324 6.94210 5.49525
#
# Compressibility (1/GPa) = 0.03449484
#
# Stress axis : x y z
#
# Youngs Moduli (GPa) = 52.66488 24.47695 64.21280
#
# Poissons Ratio (x) = 0.49546 0.64611
# Poissons Ratio (y) = 1.06604 -0.63207
# Poissons Ratio (z) = 0.52991 -0.24094
#
# Static dielectric constant tensor:
#      x y z
#    x 1.809670 0.000000 0.000000 
#    y 0.000000 0.983730 0.000000 
#    z 0.000000 0.000000 1.671590 
# 
# From -- ./inp_files/10509.got.cif
#   From: 2010.05.17/outbox.cif.g08.bks.cpg/sg68_6_cif.got.tgz:10509.got - 2010.06.03 18:57:09.
