data_PCOD9510897
_publ_section_title
;
Structure prediction by ZEFSAII (Michael W. Deem and Ramdas Pophale) SiO2 
 PCOD9510897
Probable space group: C C C A
;
_chemical_formula_sum "Si O2"
_cell_formula_units_Z 64
_cell_length_a 11.770066
_cell_length_b 16.041464
_cell_length_c 14.123774
_cell_angle_alpha 90.000000
_cell_angle_beta 90.000000
_cell_angle_gamma 90.000000
_cell_volume 2666.696917
_symmetry_space_group_name_H-M "C C C A"
_symmetry_group_IT_number 68
_space_group.IT_coordinate_system_code '2'
_symmetry_cell_setting 'orthorhombic'
loop_
_space_group_symop_operation_xyz
x,y,z
-x,1/2-y,z
x,1/2-y,1/2-z
-x,y,1/2-z
-x,-y,-z
x,1/2+y,-z
-x,1/2+y,1/2+z
x,-y,1/2+z
1/2+x,1/2+y,z
1/2-x,-y,z
1/2+x,-y,1/2-z
1/2-x,1/2+y,1/2-z
1/2-x,1/2-y,-z
1/2+x,y,-z
1/2-x,y,1/2+z
1/2+x,1/2-y,1/2+z
loop_
_atom_site_type_symbol
_atom_site_label
_atom_site_fract_x
_atom_site_fract_y
_atom_site_fract_z
Si Si1 0.487004 0.622444 0.850464
Si Si2 0.639124 0.460556 0.871091
Si Si3 0.040267 0.338544 0.450135
Si Si4 0.735314 0.844313 0.298745
O O1 0.500000 0.665113 0.750000
O O2 0.551769 0.533747 0.842789
O O3 0.350791 0.625193 0.850780
O O4 0.553968 0.664664 0.937033
O O5 0.750000 0.500000 0.919756
O O6 0.562298 0.402707 0.936252
O O7 0.691577 0.406558 0.784548
O O8 0.144966 0.355225 0.383059
O O9 0.000000 0.250000 0.414824
O O10 0.740226 0.750000 0.250000
#
# Coordination Sequence:
#
# PCOD9510897 Si02
#       4
#    16  16  16  16
#     4  12  29  50  79 119 162 205 264 331 394 469
#     4  12  27  52  80 118 159 208 264 331 401 470
#     4  12  29  50  83 116 161 212 270 320 403 482
#     4  12  28  52  85 115 159 210 268 330 400 474
#
# _framework density 23.999728000000001
#
# number of rings (size 3 to 8) (size 9 to 14) (size 15 to 20)
#    0.000    0.000    5.000    3.000    7.000    1.000 
#    0.000    0.000    0.000    0.000    0.000    0.000 
#    0.000    0.000    0.000    0.000    0.000    0.000 
#
# Total GULP energy -178665.041906 kJ/mol
# GULP energy per Si atom -5583.282560 kJ/mol
# Density = 2.394510 g / cm^3
# Si number density = 23.999728 Si / 1000 Ang^3
#
#
#
# Elastic Constant Matrix: (Units=GPa)
#
#
# Indices 1 2 3 4 5 6 
#
# 1 152.3105 50.9045 39.7103 0.0000 0.0000 0.0000
# 2 50.9045 134.7906 -2.1223 0.0000 0.0000 0.0000
# 3 39.7103 -2.1223 84.9662 0.0000 0.0000 0.0000
# 4 0.0000 0.0000 0.0000 15.6494 0.0000 0.0000
# 5 0.0000 0.0000 0.0000 0.0000 -46.5668 0.0000
# 6 0.0000 0.0000 0.0000 0.0000 0.0000 1894.4087
#
#
#
# Elastic Compliance Matrix: (Units=1/GPa)
#
#
# Indices 1 2 3 4 5 6 
#
# 1 0.008790 -0.003386 -0.004193 0.000000 0.000000 0.000000
# 2 -0.003386 0.008726 0.001800 0.000000 0.000000 0.000000
# 3 -0.004193 0.001800 0.013774 0.000000 0.000000 0.000000
# 4 0.000000 0.000000 0.000000 0.063900 0.000000 0.000000
# 5 0.000000 0.000000 0.000000 0.000000 -0.021475 0.000000
# 6 0.000000 0.000000 0.000000 0.000000 0.000000 0.000528
#
#
# Mechanical properties :
#
#
# Convention : Reuss Voigt Hill
#
# Bulk Modulus (GPa) = 50.67487 61.00582 55.84035
# Shear Modulus (GPa) = 54.12548 391.60323 222.86436
#
# Velocity S-wave (km/s) = 4.75410 12.78765 9.64691
# Velocity P-wave (km/s) = 7.16212 15.60470 12.14089
#
# Compressibility (1/GPa) = 0.01973365
#
# Stress axis : x y z
#
# Youngs Moduli (GPa) = 113.76241 114.60142 72.60086
#
# Poissons Ratio (x) = 0.38801 0.30440
# Poissons Ratio (y) = 0.38517 -0.13071
# Poissons Ratio (z) = 0.47699 -0.20632
#
# Static dielectric constant tensor:
#      x y z
#    x 1.946030 0.000000 0.000000 
#    y 0.000000 1.974050 0.000000 
#    z 0.000000 0.000000 2.007710 
# 
# From -- ./inp_files/20458.got.cif
#   From: 2010.05.17/outbox.cif.g08.bks.cpg/sg68_11_cif.got.tgz:20458.got - 2010.06.03 18:57:09.
