data_PCOD9510671
_publ_section_title
;
Structure prediction by ZEFSAII (Michael W. Deem and Ramdas Pophale) SiO2 
 PCOD9510671
Probable space group: C C C A
;
_chemical_formula_sum "Si O2"
_cell_formula_units_Z 80
_cell_length_a 15.825959
_cell_length_b 11.067445
_cell_length_c 20.633238
_cell_angle_alpha 90.000000
_cell_angle_beta 90.000000
_cell_angle_gamma 90.000000
_cell_volume 3613.972108
_symmetry_space_group_name_H-M "C C C A"
_symmetry_group_IT_number 68
_space_group.IT_coordinate_system_code '2'
_symmetry_cell_setting 'orthorhombic'
loop_
_space_group_symop_operation_xyz
x,y,z
-x,1/2-y,z
x,1/2-y,1/2-z
-x,y,1/2-z
-x,-y,-z
x,1/2+y,-z
-x,1/2+y,1/2+z
x,-y,1/2+z
1/2+x,1/2+y,z
1/2-x,-y,z
1/2+x,-y,1/2-z
1/2-x,1/2+y,1/2-z
1/2-x,1/2-y,-z
1/2+x,y,-z
1/2-x,y,1/2+z
1/2+x,1/2-y,1/2+z
loop_
_atom_site_type_symbol
_atom_site_label
_atom_site_fract_x
_atom_site_fract_y
_atom_site_fract_z
Si Si1 0.762599 0.241694 0.132370
Si Si2 0.000000 0.043749 0.750000
Si Si3 0.349316 0.108479 0.460904
Si Si4 0.500000 0.250000 0.979063
Si Si5 0.750000 0.000000 0.927524
Si Si6 0.075412 0.588898 0.629198
Si Si7 0.637790 0.750000 0.750000
O O1 0.733132 0.176124 0.066115
O O2 0.753108 0.382488 0.116879
O O3 0.855204 0.190323 0.147922
O O4 0.698003 0.216458 0.190233
O O5 0.077834 0.134974 0.735500
O O6 0.022089 0.959108 0.810694
O O7 0.420841 0.205620 0.478882
O O8 0.327193 0.025515 0.522634
O O9 0.378152 0.025534 0.401903
O O10 0.522383 0.357873 0.930254
#
# Coordination Sequence:
#
# PCOD9510671 Si02
#       7
#    16   8  16   8   8  16   8
#     4  12  26  47  76 106 144 196 253 297 368 444
#     4  11  28  49  74 102 148 193 247 312 370 432
#     4  12  24  47  74 108 151 192 242 303 369 450
#     4  12  28  41  70 117 150 186 234 302 388 432
#     4  12  24  44  76 112 150 188 244 310 370 448
#     4  12  26  48  72 108 146 192 243 308 366 440
#     4  11  28  48  74 105 140 200 250 299 366 448
#
# _framework density 22.136309000000001
#
# number of rings (size 3 to 8) (size 9 to 14) (size 15 to 20)
#    0.000    0.200    6.000    2.400    5.600    3.600 
#    0.000    0.000    0.000    0.000    0.000    0.000 
#    0.000    0.000    0.000    0.000    0.000    0.000 
#
# Total GULP energy -223813.348820 kJ/mol
# GULP energy per Si atom -5595.333721 kJ/mol
# Density = 2.208593 g / cm^3
# Si number density = 22.136309 Si / 1000 Ang^3
#
#
#
# Elastic Constant Matrix: (Units=GPa)
#
#
# Indices 1 2 3 4 5 6 
#
# 1 71.5456 18.8672 42.8802 0.0000 0.0000 0.0000
# 2 18.8672 111.7687 42.4834 0.0000 0.0000 0.0000
# 3 42.8802 42.4834 76.3183 0.0000 0.0000 0.0000
# 4 0.0000 0.0000 0.0000 41.3803 0.0000 0.0000
# 5 0.0000 0.0000 0.0000 0.0000 55.2867 0.0000
# 6 0.0000 0.0000 0.0000 0.0000 0.0000 25.7309
#
#
#
# Elastic Compliance Matrix: (Units=1/GPa)
#
#
# Indices 1 2 3 4 5 6 
#
# 1 0.021200 0.001204 -0.012582 0.000000 0.000000 0.000000
# 2 0.001204 0.011416 -0.007031 0.000000 0.000000 0.000000
# 3 -0.012582 -0.007031 0.024086 0.000000 0.000000 0.000000
# 4 0.000000 0.000000 0.000000 0.024166 0.000000 0.000000
# 5 0.000000 0.000000 0.000000 0.000000 0.018088 0.000000
# 6 0.000000 0.000000 0.000000 0.000000 0.000000 0.038864
#
#
# Mechanical properties :
#
#
# Convention : Reuss Voigt Hill
#
# Bulk Modulus (GPa) = 50.29104 52.01047 51.15075
# Shear Modulus (GPa) = 27.58356 34.83970 31.21163
#
# Velocity S-wave (km/s) = 3.53381 3.97151 3.75904
# Velocity P-wave (km/s) = 6.27842 6.67661 6.48057
#
# Compressibility (1/GPa) = 0.01988426
#
# Stress axis : x y z
#
# Youngs Moduli (GPa) = 47.16894 87.59254 41.51757
#
# Poissons Ratio (x) = -0.10542 0.52236
# Poissons Ratio (y) = -0.05677 0.29192
# Poissons Ratio (z) = 0.59346 0.61589
#
# Static dielectric constant tensor:
#      x y z
#    x 1.901150 0.000000 0.000000 
#    y 0.000000 1.869440 0.000000 
#    z 0.000000 0.000000 1.775880 
# 
# From -- ./inp_files/39402.got.cif
#   From: 2010.05.17/outbox.cif.g08.bks.cpg/sg68_20_cif.got.tgz:39402.got - 2010.06.03 18:57:09.
