data_PCOD9510344
_publ_section_title
;
Structure prediction by ZEFSAII (Michael W. Deem and Ramdas Pophale) SiO2 
 PCOD9510344
Probable space group: C C C A
;
_chemical_formula_sum "Si O2"
_cell_formula_units_Z 64
_cell_length_a 32.471123
_cell_length_b 9.255300
_cell_length_c 8.364861
_cell_angle_alpha 90.000000
_cell_angle_beta 90.000000
_cell_angle_gamma 90.000000
_cell_volume 2513.891548
_symmetry_space_group_name_H-M "C C C A"
_symmetry_group_IT_number 68
_space_group.IT_coordinate_system_code '2'
_symmetry_cell_setting 'orthorhombic'
loop_
_space_group_symop_operation_xyz
x,y,z
-x,1/2-y,z
x,1/2-y,1/2-z
-x,y,1/2-z
-x,-y,-z
x,1/2+y,-z
-x,1/2+y,1/2+z
x,-y,1/2+z
1/2+x,1/2+y,z
1/2-x,-y,z
1/2+x,-y,1/2-z
1/2-x,1/2+y,1/2-z
1/2-x,1/2-y,-z
1/2+x,y,-z
1/2-x,y,1/2+z
1/2+x,1/2-y,1/2+z
loop_
_atom_site_type_symbol
_atom_site_label
_atom_site_fract_x
_atom_site_fract_y
_atom_site_fract_z
Si Si1 0.546932 0.533005 0.803025
Si Si2 0.702999 0.471635 0.698215
Si Si3 0.078113 0.714599 0.489311
Si Si4 0.827913 0.216505 0.013464
O O1 0.500000 0.522335 0.750000
O O2 0.426662 0.607049 0.837210
O O3 0.549737 0.648933 0.948223
O O4 0.564586 0.382138 0.862111
O O5 0.750000 0.500000 0.743507
O O6 0.683856 0.620573 0.638221
O O7 0.678005 0.394337 0.838631
O O8 0.700681 0.352981 0.554675
O O9 0.124970 0.765040 0.504596
#
# Coordination Sequence:
#
# PCOD9510344 Si02
#       4
#    16  16  16  16
#     4  11  25  45  70 104 142 186 231 286 344 406
#     4  11  24  43  65  97 133 174 226 280 343 412
#     4  11  23  44  68 101 140 180 233 285 341 411
#     4  11  24  42  68 100 133 180 227 283 345 407
#
# _framework density 25.458537
#
# number of rings (size 3 to 8) (size 9 to 14) (size 15 to 20)
#    0.000    1.000    0.000    6.750    0.000    8.000 
#    0.000    2.500    0.000    0.000    0.000    0.000 
#    0.000    0.000    0.000    0.000    0.000    0.000 
#
# Total GULP energy -179635.314619 kJ/mol
# GULP energy per Si atom -5613.603582 kJ/mol
# Density = 2.540059 g / cm^3
# Si number density = 25.458537 Si / 1000 Ang^3
#
#
#
# Elastic Constant Matrix: (Units=GPa)
#
#
# Indices 1 2 3 4 5 6 
#
# 1 118.9112 -1.6626 23.6668 0.0000 0.0000 0.0000
# 2 -1.6626 119.7773 48.0370 0.0000 0.0000 0.0000
# 3 23.6668 48.0370 49.4513 0.0000 0.0000 0.0000
# 4 0.0000 0.0000 0.0000 61.7809 0.0000 0.0000
# 5 0.0000 0.0000 0.0000 0.0000 39.4603 0.0000
# 6 0.0000 0.0000 0.0000 0.0000 0.0000 -231.4634
#
#
#
# Elastic Compliance Matrix: (Units=1/GPa)
#
#
# Indices 1 2 3 4 5 6 
#
# 1 0.010073 0.003396 -0.008120 0.000000 0.000000 0.000000
# 2 0.003396 0.014822 -0.016024 0.000000 0.000000 0.000000
# 3 -0.008120 -0.016024 0.039674 0.000000 0.000000 0.000000
# 4 0.000000 0.000000 0.000000 0.016186 0.000000 0.000000
# 5 0.000000 0.000000 0.000000 0.000000 0.025342 0.000000
# 6 0.000000 0.000000 0.000000 0.000000 0.000000 -0.004320
#
#
# Mechanical properties :
#
#
# Convention : Reuss Voigt Hill
#
# Bulk Modulus (GPa) = 43.33888 47.58024 45.45956
# Shear Modulus (GPa) = 33.12039 -11.50453 10.80793
#
# Velocity S-wave (km/s) = 3.61079 -2.12808 2.06265
# Velocity P-wave (km/s) = 5.86890 3.56252 4.85466
#
# Compressibility (1/GPa) = 0.02307397
#
# Stress axis : x y z
#
# Youngs Moduli (GPa) = 99.27237 67.46528 25.20550
#
# Poissons Ratio (x) = -0.22915 0.20468
# Poissons Ratio (y) = -0.33718 0.40389
# Poissons Ratio (z) = 0.80612 1.08106
#
# Static dielectric constant tensor:
#      x y z
#    x 1.858550 0.000000 0.000000 
#    y 0.000000 1.974620 0.000000 
#    z 0.000000 0.000000 2.129410 
# 
# From -- ./inp_files/17459.got.cif
#   From: 2010.05.17/outbox.cif.g08.bks.cpg/sg68_9_cif.got.tgz:17459.got - 2010.06.03 18:57:09.
