data_PCOD9510406
_publ_section_title
;
Structure prediction by ZEFSAII (Michael W. Deem and Ramdas Pophale) SiO2 
 PCOD9510406
Probable space group: C C C A
;
_chemical_formula_sum "Si O2"
_cell_formula_units_Z 88
_cell_length_a 5.099162
_cell_length_b 26.242357
_cell_length_c 30.524584
_cell_angle_alpha 90.000000
_cell_angle_beta 90.000000
_cell_angle_gamma 90.000000
_cell_volume 4084.617587
_symmetry_space_group_name_H-M "C C C A"
_symmetry_group_IT_number 68
_space_group.IT_coordinate_system_code '2'
_symmetry_cell_setting 'orthorhombic'
loop_
_space_group_symop_operation_xyz
x,y,z
-x,1/2-y,z
x,1/2-y,1/2-z
-x,y,1/2-z
-x,-y,-z
x,1/2+y,-z
-x,1/2+y,1/2+z
x,-y,1/2+z
1/2+x,1/2+y,z
1/2-x,-y,z
1/2+x,-y,1/2-z
1/2-x,1/2+y,1/2-z
1/2-x,1/2-y,-z
1/2+x,y,-z
1/2-x,y,1/2+z
1/2+x,1/2-y,1/2+z
loop_
_atom_site_type_symbol
_atom_site_label
_atom_site_fract_x
_atom_site_fract_y
_atom_site_fract_z
Si Si1 0.500000 0.376661 0.250000
Si Si2 0.235701 0.345147 0.124162
Si Si3 0.500000 0.185048 0.750000
Si Si4 0.272933 0.399241 0.340088
Si Si5 0.750000 0.500000 0.606925
Si Si6 0.250000 0.000000 0.451440
Si Si7 0.690060 0.883788 0.525703
Si Si8 0.000000 0.750000 0.830434
O O1 0.745496 0.343975 0.268052
O O2 0.355294 0.405349 0.289531
O O3 0.527211 0.358258 0.139939
O O4 0.232282 0.360669 0.072823
O O5 0.163832 0.287641 0.138620
O O6 0.019579 0.380957 0.148369
O O7 0.626420 0.213668 0.792405
O O8 0.323209 0.451949 0.364132
O O9 0.502659 0.487122 0.577350
O O10 0.186688 0.946039 0.473993
O O11 0.402572 0.867706 0.510354
#
# Coordination Sequence:
#
# PCOD9510406 Si02
#       8
#     8  16   8  16   8   8  16   8
#     4  12  22  43  65 101 136 179 217 287 330 392
#     4  12  25  44  67  97 136 176 222 275 350 402
#     4  11  24  40  69 103 136 159 239 292 328 381
#     4  12  23  43  65  97 138 181 218 273 334 406
#     4  12  22  41  67  98 134 182 224 260 333 415
#     4  12  22  41  71 100 128 168 228 282 339 399
#     4  12  24  43  66 101 134 168 222 283 340 405
#     4  11  24  44  70 104 130 180 224 284 340 399
#
# _framework density 21.544246000000001
#
# number of rings (size 3 to 8) (size 9 to 14) (size 15 to 20)
#    0.000    0.182    7.273    2.727    0.000    3.636 
#    0.000    4.545    0.000    0.000    0.000    0.000 
#    0.000    0.000    0.000    0.000    0.000    0.000 
#
# Total GULP energy -245614.705081 kJ/mol
# GULP energy per Si atom -5582.152388 kJ/mol
# Density = 2.149521 g / cm^3
# Si number density = 21.544246 Si / 1000 Ang^3
#
#
#
# Elastic Constant Matrix: (Units=GPa)
#
#
# Indices 1 2 3 4 5 6 
#
# 1 70.8445 0.5304 12.7829 0.0000 0.0000 0.0000
# 2 0.5304 59.3838 20.4307 0.0000 0.0000 0.0000
# 3 12.7829 20.4307 116.0859 0.0000 0.0000 0.0000
# 4 0.0000 0.0000 0.0000 78.6669 0.0000 0.0000
# 5 0.0000 0.0000 0.0000 0.0000 32.7010 0.0000
# 6 0.0000 0.0000 0.0000 0.0000 0.0000 22.7208
#
#
#
# Elastic Compliance Matrix: (Units=1/GPa)
#
#
# Indices 1 2 3 4 5 6 
#
# 1 0.014413 0.000444 -0.001665 0.000000 0.000000 0.000000
# 2 0.000444 0.017939 -0.003206 0.000000 0.000000 0.000000
# 3 -0.001665 -0.003206 0.009362 0.000000 0.000000 0.000000
# 4 0.000000 0.000000 0.000000 0.012712 0.000000 0.000000
# 5 0.000000 0.000000 0.000000 0.000000 0.030580 0.000000
# 6 0.000000 0.000000 0.000000 0.000000 0.000000 0.044013
#
#
# Mechanical properties :
#
#
# Convention : Reuss Voigt Hill
#
# Bulk Modulus (GPa) = 30.43311 34.86691 32.65001
# Shear Modulus (GPa) = 33.59654 40.98909 37.29282
#
# Velocity S-wave (km/s) = 3.95323 4.36656 4.16503
# Velocity P-wave (km/s) = 5.91557 6.45302 6.19013
#
# Compressibility (1/GPa) = 0.03285895
#
# Stress axis : x y z
#
# Youngs Moduli (GPa) = 69.38395 55.74551 106.81554
#
# Poissons Ratio (x) = -0.02476 0.17787
# Poissons Ratio (y) = -0.03082 0.34246
# Poissons Ratio (z) = 0.11554 0.17872
#
# Static dielectric constant tensor:
#      x y z
#    x 1.749890 0.000000 0.000000 
#    y 0.000000 1.878270 0.000000 
#    z 0.000000 0.000000 1.829810 
# 
# From -- ./inp_files/53424.got.cif
#   From: 2010.05.17/outbox.cif.g08.bks.cpg/sg68_27_cif.got.tgz:53424.got - 2010.06.03 18:57:09.
