data_PCOD9510912
_publ_section_title
;
Structure prediction by ZEFSAII (Michael W. Deem and Ramdas Pophale) SiO2 
 PCOD9510912
Probable space group: C C C A
;
_chemical_formula_sum "Si O2"
_cell_formula_units_Z 64
_cell_length_a 12.652038
_cell_length_b 7.909682
_cell_length_c 27.897574
_cell_angle_alpha 90.000000
_cell_angle_beta 90.000000
_cell_angle_gamma 90.000000
_cell_volume 2791.810584
_symmetry_space_group_name_H-M "C C C A"
_symmetry_group_IT_number 68
_space_group.IT_coordinate_system_code '2'
_symmetry_cell_setting 'orthorhombic'
loop_
_space_group_symop_operation_xyz
x,y,z
-x,1/2-y,z
x,1/2-y,1/2-z
-x,y,1/2-z
-x,-y,-z
x,1/2+y,-z
-x,1/2+y,1/2+z
x,-y,1/2+z
1/2+x,1/2+y,z
1/2-x,-y,z
1/2+x,-y,1/2-z
1/2-x,1/2+y,1/2-z
1/2-x,1/2-y,-z
1/2+x,y,-z
1/2-x,y,1/2+z
1/2+x,1/2-y,1/2+z
loop_
_atom_site_type_symbol
_atom_site_label
_atom_site_fract_x
_atom_site_fract_y
_atom_site_fract_z
Si Si1 0.044878 0.966066 0.617397
Si Si2 0.188224 0.676973 0.799714
Si Si3 0.839953 0.170504 0.628500
Si Si4 0.798245 0.185262 0.449735
O O1 0.098020 0.864494 0.661270
O O2 0.083600 0.866046 0.569316
O O3 0.098340 0.152010 0.620268
O O4 0.922944 0.018388 0.624134
O O5 0.147405 0.750000 0.750000
O O6 0.250000 0.500000 0.792103
O O7 0.275258 0.804590 0.822468
O O8 0.752491 0.184271 0.587345
O O9 0.750000 0.250000 0.500000
O O10 0.750000 0.000000 0.444055
#
# Coordination Sequence:
#
# PCOD9510912 Si02
#       4
#    16  16  16  16
#     4   8  15  30  50  72 102 140 183 229 280 344
#     4   9  17  31  53  77 101 136 181 232 292 349
#     4   8  15  30  50  71 100 141 186 228 275 343
#     4   9  17  29  48  74 102 138 183 229 283 344
#
# _framework density 22.924191
#
# number of rings (size 3 to 8) (size 9 to 14) (size 15 to 20)
#    0.000    3.500    0.000    3.000    0.000    1.000 
#    0.000   15.000    0.000    6.000    0.000    0.000 
#    0.000    0.000    0.000    0.000    0.000    0.000 
#
# Total GULP energy -178154.189833 kJ/mol
# GULP energy per Si atom -5567.318432 kJ/mol
# Density = 2.287201 g / cm^3
# Si number density = 22.924191 Si / 1000 Ang^3
#
#
#
# Elastic Constant Matrix: (Units=GPa)
#
#
# Indices 1 2 3 4 5 6 
#
# 1 144.9577 93.9685 54.8516 0.0000 0.0000 0.0000
# 2 93.9685 142.1979 42.3186 0.0000 0.0000 0.0000
# 3 54.8516 42.3186 125.4199 0.0000 0.0000 0.0000
# 4 0.0000 0.0000 0.0000 20.4905 0.0000 0.0000
# 5 0.0000 0.0000 0.0000 0.0000 -19.1400 0.0000
# 6 0.0000 0.0000 0.0000 0.0000 0.0000 66.6701
#
#
#
# Elastic Compliance Matrix: (Units=1/GPa)
#
#
# Indices 1 2 3 4 5 6 
#
# 1 0.013080 -0.007716 -0.003117 0.000000 0.000000 0.000000
# 2 -0.007716 0.012369 -0.000799 0.000000 0.000000 0.000000
# 3 -0.003117 -0.000799 0.009606 0.000000 0.000000 0.000000
# 4 0.000000 0.000000 0.000000 0.048803 0.000000 0.000000
# 5 0.000000 0.000000 0.000000 0.000000 -0.052246 0.000000
# 6 0.000000 0.000000 0.000000 0.000000 0.000000 0.014999
#
#
# Mechanical properties :
#
#
# Convention : Reuss Voigt Hill
#
# Bulk Modulus (GPa) = 84.80878 88.31700 86.56289
# Shear Modulus (GPa) = 67.74615 28.36657 48.05636
#
# Velocity S-wave (km/s) = 5.44210 3.52150 4.58352
# Velocity P-wave (km/s) = 8.75010 7.42589 8.11505
#
# Compressibility (1/GPa) = 0.01179123
#
# Stress axis : x y z
#
# Youngs Moduli (GPa) = 76.45359 80.84622 104.10181
#
# Poissons Ratio (x) = 0.62380 0.32448
# Poissons Ratio (y) = 0.58991 0.08318
# Poissons Ratio (z) = 0.23830 0.06460
#
# Static dielectric constant tensor:
#      x y z
#    x 2.031720 0.000000 0.000000 
#    y 0.000000 1.872520 0.000000 
#    z 0.000000 0.000000 2.252360 
# 
# From -- ./inp_files/54386.got.cif
#   From: 2010.05.17/outbox.cif.g08.bks.cpg/sg68_28_cif.got.tgz:54386.got - 2010.06.03 18:57:09.
