data_PCOD9510304
_publ_section_title
;
Structure prediction by ZEFSAII (Michael W. Deem and Ramdas Pophale) SiO2 
 PCOD9510304
Probable space group: C C C A
;
_chemical_formula_sum "Si O2"
_cell_formula_units_Z 96
_cell_length_a 11.322636
_cell_length_b 23.024787
_cell_length_c 17.151587
_cell_angle_alpha 90.000000
_cell_angle_beta 90.000000
_cell_angle_gamma 90.000000
_cell_volume 4471.440722
_symmetry_space_group_name_H-M "C C C A"
_symmetry_group_IT_number 68
_space_group.IT_coordinate_system_code '2'
_symmetry_cell_setting 'orthorhombic'
loop_
_space_group_symop_operation_xyz
x,y,z
-x,1/2-y,z
x,1/2-y,1/2-z
-x,y,1/2-z
-x,-y,-z
x,1/2+y,-z
-x,1/2+y,1/2+z
x,-y,1/2+z
1/2+x,1/2+y,z
1/2-x,-y,z
1/2+x,-y,1/2-z
1/2-x,1/2+y,1/2-z
1/2-x,1/2-y,-z
1/2+x,y,-z
1/2-x,y,1/2+z
1/2+x,1/2-y,1/2+z
loop_
_atom_site_type_symbol
_atom_site_label
_atom_site_fract_x
_atom_site_fract_y
_atom_site_fract_z
Si Si1 0.460435 0.097910 0.122109
Si Si2 0.543770 0.471468 0.667750
Si Si3 0.152161 0.948175 0.963760
Si Si4 0.225726 0.121548 0.185259
Si Si5 0.630267 0.741031 0.156202
Si Si6 0.721748 0.147033 0.135220
O O1 0.354507 0.136324 0.153200
O O2 0.582977 0.131787 0.128601
O O3 0.447376 0.040357 0.175113
O O4 0.422789 0.071698 0.038492
O O5 0.500000 0.446136 0.750000
O O6 0.444360 0.463821 0.602099
O O7 0.666998 0.438117 0.654873
O O8 0.220454 0.892730 0.930765
O O9 0.250000 0.000000 0.974891
O O10 0.149846 0.172890 0.148852
O O11 0.234710 0.125018 0.279109
O O12 0.500000 0.750000 0.122555
O O13 0.627662 0.750000 0.250000
O O14 0.728423 0.787208 0.127423
#
# Coordination Sequence:
#
# PCOD9510304 Si02
#       6
#    16  16  16  16  16  16
#     4  12  27  40  65  98 144 177 219 279 352 407
#     4  12  23  40  70  99 134 177 229 279 333 405
#     4  12  25  43  65  97 140 187 224 274 346 412
#     4  11  23  41  69 104 130 175 230 283 342 401
#     4   9  20  40  71 100 128 169 227 288 338 401
#     4  11  23  44  68  97 133 176 234 282 335 410
#
# _framework density 21.469591000000001
#
# number of rings (size 3 to 8) (size 9 to 14) (size 15 to 20)
#    0.000    0.833    3.333    4.500    4.667    0.667 
#    0.000    3.333    3.667    0.000    0.000    0.000 
#    0.000    0.000    0.000    0.000    0.000    0.000 
#
# Total GULP energy -267812.795745 kJ/mol
# GULP energy per Si atom -5579.433245 kJ/mol
# Density = 2.142073 g / cm^3
# Si number density = 21.469591 Si / 1000 Ang^3
#
#
#
# Elastic Constant Matrix: (Units=GPa)
#
#
# Indices 1 2 3 4 5 6 
#
# 1 143.7868 36.4044 31.9086 0.0000 0.0000 0.0000
# 2 36.4044 67.1657 28.1991 0.0000 0.0000 0.0000
# 3 31.9086 28.1991 72.4126 0.0000 0.0000 0.0000
# 4 0.0000 0.0000 0.0000 -9.6237 0.0000 0.0000
# 5 0.0000 0.0000 0.0000 0.0000 29.8280 0.0000
# 6 0.0000 0.0000 0.0000 0.0000 0.0000 42.4718
#
#
#
# Elastic Compliance Matrix: (Units=1/GPa)
#
#
# Indices 1 2 3 4 5 6 
#
# 1 0.008369 -0.003572 -0.002297 0.000000 0.000000 0.000000
# 2 -0.003572 0.019323 -0.005951 0.000000 0.000000 0.000000
# 3 -0.002297 -0.005951 0.017139 0.000000 0.000000 0.000000
# 4 0.000000 0.000000 0.000000 -0.103910 0.000000 0.000000
# 5 0.000000 0.000000 0.000000 0.000000 0.033526 0.000000
# 6 0.000000 0.000000 0.000000 0.000000 0.000000 0.023545
#
#
# Mechanical properties :
#
#
# Convention : Reuss Voigt Hill
#
# Bulk Modulus (GPa) = 47.18732 52.93215 50.05973
# Shear Modulus (GPa) = 174.24924 24.99208 99.62066
#
# Velocity S-wave (km/s) = 9.01871 3.41555 6.81920
# Velocity P-wave (km/s) = 11.42261 6.34528 9.23955
#
# Compressibility (1/GPa) = 0.02119214
#
# Stress axis : x y z
#
# Youngs Moduli (GPa) = 119.49266 51.75215 58.34551
#
# Poissons Ratio (x) = 0.18484 0.13401
# Poissons Ratio (y) = 0.42678 0.34721
# Poissons Ratio (z) = 0.27445 0.30797
#
# Static dielectric constant tensor:
#      x y z
#    x 1.853450 0.000000 0.000000 
#    y 0.000000 1.977160 0.000000 
#    z 0.000000 0.000000 1.824650 
# 
# From -- ./inp_files/29796.got.cif
#   From: 2010.05.17/outbox.cif.g08.bks.cpg/sg68_15_cif.got.tgz:29796.got - 2010.06.03 18:57:09.
