data_PCOD9510922
_publ_section_title
;
Structure prediction by ZEFSAII (Michael W. Deem and Ramdas Pophale) SiO2 
 PCOD9510922
Probable space group: C C C A
;
_chemical_formula_sum "Si O2"
_cell_formula_units_Z 52
_cell_length_a 9.000000
_cell_length_b 27.000000
_cell_length_c 24.000000
_cell_angle_alpha 90.000000
_cell_angle_beta 90.000000
_cell_angle_gamma 90.000000
_cell_volume 5832.000000
_symmetry_space_group_name_H-M "C C C A"
_symmetry_group_IT_number 68
_space_group.IT_coordinate_system_code '2'
_symmetry_cell_setting 'orthorhombic'
loop_
_space_group_symop_operation_xyz
x,y,z
-x,1/2-y,z
x,1/2-y,1/2-z
-x,y,1/2-z
-x,-y,-z
x,1/2+y,-z
-x,1/2+y,1/2+z
x,-y,1/2+z
1/2+x,1/2+y,z
1/2-x,-y,z
1/2+x,-y,1/2-z
1/2-x,1/2+y,1/2-z
1/2-x,1/2-y,-z
1/2+x,y,-z
1/2-x,y,1/2+z
1/2+x,1/2-y,1/2+z
loop_
_atom_site_type_symbol
_atom_site_label
_atom_site_fract_x
_atom_site_fract_y
_atom_site_fract_z
Si Si1 0.381203 0.884015 0.106104
Si Si2 0.000000 0.750000 0.447650
Si Si3 0.950900 0.904374 0.404486
Si Si4 0.564962 0.345151 0.983387
Si Si5 0.572053 0.508355 0.060626
Si Si6 0.301185 0.672520 0.613103
Si Si7 0.037441 0.694052 0.685096
O O1 0.210672 0.893570 0.119959
O O2 0.410022 0.851993 0.049951
O O3 0.449998 0.937809 0.088981
O O4 0.451120 0.850205 0.153960
O O5 0.069760 0.707298 0.485900
O O6 0.119698 0.778355 0.410067
O O7 0.932500 0.887085 0.469317
O O8 0.075602 0.869406 0.379183
O O9 0.985722 0.962336 0.402758
O O10 0.690174 0.346632 0.935843
O O11 0.750000 0.500000 0.055006
O O12 0.500000 0.500000 0.000000
O O13 0.207025 0.684372 0.667642
O O14 0.000000 0.750000 0.664301
O O15 0.000000 0.692657 0.750000
#
# Coordination Sequence:
#
# PCOD9510922 Si02
#       7
#    16   8  16  16  16  16  16
#     4  10  21  35  56  79 115 158 188 237 278 335
#     4  10  20  30  50  79 123 144 184 224 278 346
#     4  10  19  33  52  82 124 144 191 223 278 342
#     4  10  19  30  48  79 116 162 187 212 275 344
#     4  10  20  32  52  82 121 162 187 219 270 336
#     4  10  22  33  55  82 110 151 191 232 287 334
#     4  10  24  44  63  77 102 145 203 247 297 345
#
# _framework density 8.9163239999999995
#
# number of rings (size 3 to 8) (size 9 to 14) (size 15 to 20)
#    0.000    2.000    1.538    2.308   10.769    0.000 
#    0.000    0.769    0.000    5.538    0.000    0.000 
#    0.000    0.000    0.000    0.000    0.000    0.000 
#
# Total GULP energy -289892.860711 kJ/mol
# GULP energy per Si atom -5574.862706 kJ/mol
# Density = 0.889603 g / cm^3
# Si number density = 8.916324 Si / 1000 Ang^3
#
#
#
# Elastic Constant Matrix: (Units=GPa)
#
#
# Indices 1 2 3 4 5 6 
#
# 1 74.1598 53.2014 26.5062 0.0000 0.0000 0.0000
# 2 53.2014 155.3832 46.8858 0.0000 0.0000 0.0000
# 3 26.5062 46.8858 54.1351 0.0000 0.0000 0.0000
# 4 0.0000 0.0000 0.0000 20.8321 0.0000 0.0000
# 5 0.0000 0.0000 0.0000 0.0000 12.4732 0.0000
# 6 0.0000 0.0000 0.0000 0.0000 0.0000 23.8082
#
#
#
# Elastic Compliance Matrix: (Units=1/GPa)
#
#
# Indices 1 2 3 4 5 6 
#
# 1 0.018793 -0.004952 -0.004913 0.000000 0.000000 0.000000
# 2 -0.004952 0.010018 -0.006251 0.000000 0.000000 0.000000
# 3 -0.004913 -0.006251 0.026292 0.000000 0.000000 0.000000
# 4 0.000000 0.000000 0.000000 0.048003 0.000000 0.000000
# 5 0.000000 0.000000 0.000000 0.000000 0.080172 0.000000
# 6 0.000000 0.000000 0.000000 0.000000 0.000000 0.042002
#
#
# Mechanical properties :
#
#
# Convention : Reuss Voigt Hill
#
# Bulk Modulus (GPa) = 43.72514 59.65166 51.68840
# Shear Modulus (GPa) = 18.85834 21.89503 20.37668
#
# Velocity S-wave (km/s) = 3.25548 3.50781 3.38400
# Velocity P-wave (km/s) = 6.22124 7.06610 6.65708
#
# Compressibility (1/GPa) = 0.02287014
#
# Stress axis : x y z
#
# Youngs Moduli (GPa) = 53.21175 99.82471 38.03451
#
# Poissons Ratio (x) = 0.49434 0.18685
# Poissons Ratio (y) = 0.26351 0.23777
# Poissons Ratio (z) = 0.26141 0.62404
#
# Static dielectric constant tensor:
#      x y z
#    x 1.671810 0.000000 0.000000 
#    y 0.000000 1.636640 0.000000 
#    z 0.000000 0.000000 1.588090 
# 
# From -- ./inp_files/43479.got.cif
#   From: 2010.05.17/outbox.ucp.g08.bks.cvg/sg68_22_cif.got.tgz:43479.got - 2010.06.11 16:49:25.
