data_PCOD9510878
_publ_section_title
;
Structure prediction by ZEFSAII (Michael W. Deem and Ramdas Pophale) SiO2 
 PCOD9510878
Probable space group: C C C A
;
_chemical_formula_sum "Si O2"
_cell_formula_units_Z 56
_cell_length_a 24.068500
_cell_length_b 10.594350
_cell_length_c 9.744573
_cell_angle_alpha 90.000000
_cell_angle_beta 90.000000
_cell_angle_gamma 90.000000
_cell_volume 2484.769770
_symmetry_space_group_name_H-M "C C C A"
_symmetry_group_IT_number 68
_space_group.IT_coordinate_system_code '2'
_symmetry_cell_setting 'orthorhombic'
loop_
_space_group_symop_operation_xyz
x,y,z
-x,1/2-y,z
x,1/2-y,1/2-z
-x,y,1/2-z
-x,-y,-z
x,1/2+y,-z
-x,1/2+y,1/2+z
x,-y,1/2+z
1/2+x,1/2+y,z
1/2-x,-y,z
1/2+x,-y,1/2-z
1/2-x,1/2+y,1/2-z
1/2-x,1/2-y,-z
1/2+x,y,-z
1/2-x,y,1/2+z
1/2+x,1/2-y,1/2+z
loop_
_atom_site_type_symbol
_atom_site_label
_atom_site_fract_x
_atom_site_fract_y
_atom_site_fract_z
Si Si1 0.250000 0.500000 0.618348
Si Si2 0.648464 0.623798 0.511905
Si Si3 0.786203 0.750000 0.250000
Si Si4 0.461582 0.498463 0.367378
Si Si5 0.091753 0.250000 0.250000
O O1 0.305601 0.481140 0.528594
O O2 0.246960 0.375465 0.711423
O O3 0.677934 0.719102 0.615858
O O4 0.595539 0.568708 0.591864
O O5 0.627431 0.689752 0.373097
O O6 0.500000 0.437103 0.250000
O O7 0.500000 0.500000 0.500000
O O8 0.444320 0.637080 0.314628
#
# Coordination Sequence:
#
# PCOD9510878 Si02
#       5
#     8  16   8  16   8
#     4  12  26  52  78 122 162 210 266 336 398 474
#     4  12  27  48  79 114 161 205 267 322 400 472
#     4  12  27  48  80 120 153 219 265 324 402 478
#     4  12  27  49  76 111 154 204 263 321 395 464
#     4  12  26  50  73 112 155 206 253 335 390 458
#
# _framework density 22.537299000000001
#
# number of rings (size 3 to 8) (size 9 to 14) (size 15 to 20)
#    0.000    0.000    2.857    6.429    4.000    0.000 
#    0.000    0.000    0.000    0.000    0.000    0.000 
#    0.000    0.000    0.000    0.000    0.000    0.000 
#
# Total GULP energy -156847.826466 kJ/mol
# GULP energy per Si atom -5601.708088 kJ/mol
# Density = 2.248600 g / cm^3
# Si number density = 22.537299 Si / 1000 Ang^3
#
#
#
# Elastic Constant Matrix: (Units=GPa)
#
#
# Indices 1 2 3 4 5 6 
#
# 1 151.8133 59.4388 64.1850 0.0000 0.0000 0.0000
# 2 59.4388 126.9158 50.4192 0.0000 0.0000 0.0000
# 3 64.1850 50.4192 158.0910 0.0000 0.0000 0.0000
# 4 0.0000 0.0000 0.0000 48.9830 0.0000 0.0000
# 5 0.0000 0.0000 0.0000 0.0000 -2.9719 0.0000
# 6 0.0000 0.0000 0.0000 0.0000 0.0000 -49.5490
#
#
#
# Elastic Compliance Matrix: (Units=1/GPa)
#
#
# Indices 1 2 3 4 5 6 
#
# 1 0.008924 -0.003138 -0.002623 0.000000 0.000000 0.000000
# 2 -0.003138 0.010126 -0.001955 0.000000 0.000000 0.000000
# 3 -0.002623 -0.001955 0.008014 0.000000 0.000000 0.000000
# 4 0.000000 0.000000 0.000000 0.020415 0.000000 0.000000
# 5 0.000000 0.000000 0.000000 0.000000 -0.336491 0.000000
# 6 0.000000 0.000000 0.000000 0.000000 0.000000 -0.020182
#
#
# Mechanical properties :
#
#
# Convention : Reuss Voigt Hill
#
# Bulk Modulus (GPa) = 85.96685 87.21180 86.58932
# Shear Modulus (GPa) = -17.24823 16.81090 -0.21866
#
# Velocity S-wave (km/s) = -2.76944 2.73411 -0.31182
# Velocity P-wave (km/s) = 5.29156 6.98196 6.19469
#
# Compressibility (1/GPa) = 0.01163239
#
# Stress axis : x y z
#
# Youngs Moduli (GPa) = 112.05323 98.76035 124.78378
#
# Poissons Ratio (x) = 0.30988 0.32726
# Poissons Ratio (y) = 0.35159 0.24400
# Poissons Ratio (z) = 0.29387 0.19311
#
# Static dielectric constant tensor:
#      x y z
#    x 1.847770 0.000000 0.000000 
#    y 0.000000 1.803970 0.000000 
#    z 0.000000 0.000000 1.786400 
# 
# From -- ./inp_files/3928.got.cif
#   From: 2010.05.17/outbox.cif.g08.bks.cpg/sg68_2_cif.got.tgz:3928.got - 2010.06.03 18:57:09.
