data_PCOD9510107
_publ_section_title
;
Structure prediction by ZEFSAII (Michael W. Deem and Ramdas Pophale) SiO2 
 PCOD9510107
Probable space group: C C C A
;
_chemical_formula_sum "Si O2"
_cell_formula_units_Z 108
_cell_length_a 27.937153
_cell_length_b 14.845998
_cell_length_c 11.937732
_cell_angle_alpha 90.000000
_cell_angle_beta 90.000000
_cell_angle_gamma 90.000000
_cell_volume 4951.233052
_symmetry_space_group_name_H-M "C C C A"
_symmetry_group_IT_number 68
_space_group.IT_coordinate_system_code '2'
_symmetry_cell_setting 'orthorhombic'
loop_
_space_group_symop_operation_xyz
x,y,z
-x,1/2-y,z
x,1/2-y,1/2-z
-x,y,1/2-z
-x,-y,-z
x,1/2+y,-z
-x,1/2+y,1/2+z
x,-y,1/2+z
1/2+x,1/2+y,z
1/2-x,-y,z
1/2+x,-y,1/2-z
1/2-x,1/2+y,1/2-z
1/2-x,1/2-y,-z
1/2+x,y,-z
1/2-x,y,1/2+z
1/2+x,1/2-y,1/2+z
loop_
_atom_site_type_symbol
_atom_site_label
_atom_site_fract_x
_atom_site_fract_y
_atom_site_fract_z
Si Si1 0.136838 0.913135 0.837584
Si Si2 0.123278 0.136058 0.574848
Si Si3 0.151725 0.895927 0.320554
Si Si4 0.000000 0.250000 0.750000
Si Si5 0.803841 0.250000 0.250000
Si Si6 0.433981 0.819920 0.942339
Si Si7 0.950739 0.351501 0.199187
Si Si8 0.779311 0.771080 0.390531
O O1 0.164530 0.818322 0.821837
O O2 0.094517 0.906591 0.745892
O O3 0.169274 0.001514 0.820739
O O4 0.116123 0.921231 0.963299
O O5 0.120918 0.112436 0.705643
O O6 0.089068 0.220515 0.553931
O O7 0.179476 0.161028 0.575904
O O8 0.111858 0.880978 0.415190
O O9 0.191051 0.816375 0.340055
O O10 0.029920 0.187650 0.837307
O O11 0.764828 0.191623 0.317243
O O12 0.453833 0.844323 0.064670
O O13 0.945296 0.250000 0.250000
O O14 0.000000 0.388303 0.250000
O O15 0.750000 0.750000 0.500000
#
# Coordination Sequence:
#
# PCOD9510107 Si02
#       8
#    16  16  16   4   8  16  16  16
#     4  12  26  42  68 100 136 184 227 287 349 412
#     4  11  21  45  64  91 133 176 223 276 342 407
#     4  11  26  43  64 100 139 176 226 286 346 399
#     4  12  20  38  74 104 120 178 234 274 356 420
#     4  12  22  43  65  96 130 175 235 266 344 406
#     4  11  22  42  69  95 133 174 225 282 338 422
#     4  11  23  43  67  98 133 179 234 277 343 417
#     4  11  22  42  68  93 131 177 224 278 331 411
#
# _framework density 21.812747999999999
#
# number of rings (size 3 to 8) (size 9 to 14) (size 15 to 20)
#    0.000    0.741    6.667    1.778    4.148    0.593 
#    1.333    2.222    0.000    0.000    0.000    0.000 
#    0.000    0.000    0.000    0.000    0.000    0.000 
#
# Total GULP energy -300614.351852 kJ/mol
# GULP energy per Si atom -5566.932442 kJ/mol
# Density = 2.176310 g / cm^3
# Si number density = 21.812748 Si / 1000 Ang^3
#
#
#
# Elastic Constant Matrix: (Units=GPa)
#
#
# Indices 1 2 3 4 5 6 
#
# 1 89.5901 6.1413 29.1450 0.0000 0.0000 0.0000
# 2 6.1413 78.4482 10.6904 0.0000 0.0000 0.0000
# 3 29.1450 10.6904 152.1272 0.0000 0.0000 0.0000
# 4 0.0000 0.0000 0.0000 -15.2691 0.0000 0.0000
# 5 0.0000 0.0000 0.0000 0.0000 37.9015 0.0000
# 6 0.0000 0.0000 0.0000 0.0000 0.0000 -0.6391
#
#
#
# Elastic Compliance Matrix: (Units=1/GPa)
#
#
# Indices 1 2 3 4 5 6 
#
# 1 0.011934 -0.000629 -0.002242 0.000000 0.000000 0.000000
# 2 -0.000629 0.012904 -0.000786 0.000000 0.000000 0.000000
# 3 -0.002242 -0.000786 0.007058 0.000000 0.000000 0.000000
# 4 0.000000 0.000000 0.000000 -0.065492 0.000000 0.000000
# 5 0.000000 0.000000 0.000000 0.000000 0.026384 0.000000
# 6 0.000000 0.000000 0.000000 0.000000 0.000000 -1.564727
#
#
# Mechanical properties :
#
#
# Convention : Reuss Voigt Hill
#
# Bulk Modulus (GPa) = 40.68050 45.79096 43.23573
# Shear Modulus (GPa) = -3.21248 22.67790 9.73271
#
# Velocity S-wave (km/s) = -1.21489 3.22788 2.11462
# Velocity P-wave (km/s) = 4.08931 5.91021 5.08198
#
# Compressibility (1/GPa) = 0.02458180
#
# Stress axis : x y z
#
# Youngs Moduli (GPa) = 83.79076 77.49750 141.67750
#
# Poissons Ratio (x) = 0.04872 0.31768
# Poissons Ratio (y) = 0.05268 0.11140
# Poissons Ratio (z) = 0.18788 0.06094
#
# Static dielectric constant tensor:
#      x y z
#    x 1.806540 0.000000 0.000000 
#    y 0.000000 1.833570 0.000000 
#    z 0.000000 0.000000 1.885540 
# 
# From -- ./inp_files/17821.got.cif
#   From: 2010.05.17/outbox.cif.g08.bks.cpg/sg68_9_cif.got.tgz:17821.got - 2010.06.03 18:57:09.
