data_PCOD9510076
_publ_section_title
;
Structure prediction by ZEFSAII (Michael W. Deem and Ramdas Pophale) SiO2 
 PCOD9510076
Probable space group: C C C A
;
_chemical_formula_sum "Si O2"
_cell_formula_units_Z 112
_cell_length_a 11.154743
_cell_length_b 15.541287
_cell_length_c 27.594529
_cell_angle_alpha 90.000000
_cell_angle_beta 90.000000
_cell_angle_gamma 90.000000
_cell_volume 4783.761674
_symmetry_space_group_name_H-M "C C C A"
_symmetry_group_IT_number 68
_space_group.IT_coordinate_system_code '2'
_symmetry_cell_setting 'orthorhombic'
loop_
_space_group_symop_operation_xyz
x,y,z
-x,1/2-y,z
x,1/2-y,1/2-z
-x,y,1/2-z
-x,-y,-z
x,1/2+y,-z
-x,1/2+y,1/2+z
x,-y,1/2+z
1/2+x,1/2+y,z
1/2-x,-y,z
1/2+x,-y,1/2-z
1/2-x,1/2+y,1/2-z
1/2-x,1/2-y,-z
1/2+x,y,-z
1/2-x,y,1/2+z
1/2+x,1/2-y,1/2+z
loop_
_atom_site_type_symbol
_atom_site_label
_atom_site_fract_x
_atom_site_fract_y
_atom_site_fract_z
Si Si1 0.434372 0.116329 0.862032
Si Si2 0.874154 0.291404 0.808956
Si Si3 0.304301 0.405776 0.539841
Si Si4 0.830223 0.086768 0.927339
Si Si5 0.376147 0.985519 0.776914
Si Si6 0.183887 0.695208 0.850044
Si Si7 0.570623 0.334047 0.418606
O O1 0.406619 0.101465 0.919103
O O2 0.572960 0.129331 0.847113
O O3 0.375117 0.210481 0.855533
O O4 0.378082 0.044306 0.826234
O O5 0.869052 0.384070 0.785753
O O6 0.773324 0.216963 0.805524
O O7 0.879426 0.314437 0.865769
O O8 0.000000 0.250000 0.798089
O O9 0.250000 0.500000 0.545584
O O10 0.340666 0.393740 0.484487
O O11 0.186772 0.348974 0.549396
O O12 0.762224 0.157452 0.894568
O O13 0.970851 0.090396 0.912359
O O14 0.750000 0.000000 0.922274
O O15 0.500000 0.006125 0.750000
O O16 0.250000 0.000000 0.749746
O O17 0.500000 0.250000 0.436017
#
# Coordination Sequence:
#
# PCOD9510076 Si02
#       7
#    16  16  16  16  16  16  16
#     4  11  24  44  74 102 143 195 245 297 377 438
#     4  11  22  45  73 102 143 189 231 287 377 436
#     4  11  24  40  65  96 142 198 243 302 367 420
#     4  11  26  39  60 102 146 188 255 309 348 415
#     4  12  27  51  82 113 145 186 240 304 374 465
#     4  11  23  42  68 105 138 192 245 300 353 428
#     4  11  21  41  64  91 132 190 240 294 355 429
#
# _framework density 23.412538000000001
#
# number of rings (size 3 to 8) (size 9 to 14) (size 15 to 20)
#    0.000    0.857    5.714    1.286    6.000    4.857 
#    0.000    1.429    0.000    0.000    0.000    0.000 
#    0.000    0.000    0.000    0.000    0.000    0.000 
#
# Total GULP energy -312599.971464 kJ/mol
# GULP energy per Si atom -5582.142348 kJ/mol
# Density = 2.335925 g / cm^3
# Si number density = 23.412538 Si / 1000 Ang^3
#
#
#
# Elastic Constant Matrix: (Units=GPa)
#
#
# Indices 1 2 3 4 5 6 
#
# 1 155.9572 34.4098 21.9888 0.0000 0.0000 0.0000
# 2 34.4098 85.3922 25.6976 0.0000 0.0000 0.0000
# 3 21.9888 25.6976 68.0373 0.0000 0.0000 0.0000
# 4 0.0000 0.0000 0.0000 13.4690 0.0000 0.0000
# 5 0.0000 0.0000 0.0000 0.0000 -7.2827 0.0000
# 6 0.0000 0.0000 0.0000 0.0000 0.0000 48.3098
#
#
#
# Elastic Compliance Matrix: (Units=1/GPa)
#
#
# Indices 1 2 3 4 5 6 
#
# 1 0.007151 -0.002466 -0.001379 0.000000 0.000000 0.000000
# 2 -0.002466 0.014063 -0.004515 0.000000 0.000000 0.000000
# 3 -0.001379 -0.004515 0.016849 0.000000 0.000000 0.000000
# 4 0.000000 0.000000 0.000000 0.074245 0.000000 0.000000
# 5 0.000000 0.000000 0.000000 0.000000 -0.137313 0.000000
# 6 0.000000 0.000000 0.000000 0.000000 0.000000 0.020700
#
#
# Mechanical properties :
#
#
# Convention : Reuss Voigt Hill
#
# Bulk Modulus (GPa) = 46.85619 52.61990 49.73805
# Shear Modulus (GPa) = 256.03074 26.05193 141.04133
#
# Velocity S-wave (km/s) = 10.46870 3.33939 7.76998
# Velocity P-wave (km/s) = 12.89114 6.11494 10.08896
#
# Compressibility (1/GPa) = 0.02134190
#
# Stress axis : x y z
#
# Youngs Moduli (GPa) = 139.84700 71.10816 59.35145
#
# Poissons Ratio (x) = 0.17538 0.08187
# Poissons Ratio (y) = 0.34491 0.26794
# Poissons Ratio (z) = 0.19292 0.32102
#
# Static dielectric constant tensor:
#      x y z
#    x 2.182450 0.000000 0.000000 
#    y 0.000000 2.503220 0.000000 
#    z 0.000000 0.000000 1.889310 
# 
# From -- ./inp_files/54842.got.cif
#   From: 2010.05.17/outbox.cif.g08.bks.cpg/sg68_28_cif.got.tgz:54842.got - 2010.06.03 18:57:09.
