data_PCOD9510392
_publ_section_title
;
Structure prediction by ZEFSAII (Michael W. Deem and Ramdas Pophale) SiO2 
 PCOD9510392
Probable space group: C C C A
;
_chemical_formula_sum "Si O2"
_cell_formula_units_Z 80
_cell_length_a 12.854142
_cell_length_b 13.958632
_cell_length_c 22.028321
_cell_angle_alpha 90.000000
_cell_angle_beta 90.000000
_cell_angle_gamma 90.000000
_cell_volume 3952.458763
_symmetry_space_group_name_H-M "C C C A"
_symmetry_group_IT_number 68
_space_group.IT_coordinate_system_code '2'
_symmetry_cell_setting 'orthorhombic'
loop_
_space_group_symop_operation_xyz
x,y,z
-x,1/2-y,z
x,1/2-y,1/2-z
-x,y,1/2-z
-x,-y,-z
x,1/2+y,-z
-x,1/2+y,1/2+z
x,-y,1/2+z
1/2+x,1/2+y,z
1/2-x,-y,z
1/2+x,-y,1/2-z
1/2-x,1/2+y,1/2-z
1/2-x,1/2-y,-z
1/2+x,y,-z
1/2-x,y,1/2+z
1/2+x,1/2-y,1/2+z
loop_
_atom_site_type_symbol
_atom_site_label
_atom_site_fract_x
_atom_site_fract_y
_atom_site_fract_z
Si Si1 0.290260 0.862419 0.263508
Si Si2 0.250000 0.000000 0.371601
Si Si3 0.500000 0.481563 0.750000
Si Si4 0.617136 0.896719 0.836957
Si Si5 0.591784 0.436540 0.470451
Si Si6 0.000000 0.750000 0.406963
Si Si7 0.250000 0.000000 0.562687
O O1 0.303033 0.750000 0.250000
O O2 0.257245 0.905919 0.328707
O O3 0.399117 0.915251 0.251864
O O4 0.201785 0.893377 0.216020
O O5 0.149307 0.989820 0.414681
O O6 0.482114 0.549807 0.808111
O O7 0.586154 0.793876 0.862256
O O8 0.666601 0.951151 0.893595
O O9 0.500000 0.500000 0.500000
O O10 0.545589 0.336308 0.447200
O O11 0.684484 0.428215 0.520083
#
# Coordination Sequence:
#
# PCOD9510392 Si02
#       7
#    16   8   8  16  16   8   8
#     4  12  25  43  69 108 143 181 228 281 358 424
#     4  11  23  48  70  98 145 183 224 294 342 409
#     4  12  23  43  68 100 146 184 217 281 360 412
#     4  12  25  44  71 103 139 183 230 290 344 422
#     4  11  25  46  71  99 138 185 234 290 343 401
#     4  12  26  45  74 104 132 187 242 278 352 422
#     4  11  23  48  70  94 145 183 226 296 348 389
#
# _framework density 20.240565
#
# number of rings (size 3 to 8) (size 9 to 14) (size 15 to 20)
#    0.000    0.400    6.000    2.700    2.800    0.800 
#    3.600    0.000    0.000    0.000    0.000    0.000 
#    0.000    0.000    0.000    0.000    0.000    0.000 
#
# Total GULP energy -223489.184802 kJ/mol
# GULP energy per Si atom -5587.229620 kJ/mol
# Density = 2.019450 g / cm^3
# Si number density = 20.240565 Si / 1000 Ang^3
#
#
#
# Elastic Constant Matrix: (Units=GPa)
#
#
# Indices 1 2 3 4 5 6 
#
# 1 111.3292 62.8773 69.6375 0.0000 0.0000 0.0000
# 2 62.8773 147.6388 67.8880 0.0000 0.0000 0.0000
# 3 69.6375 67.8880 145.9206 0.0000 0.0000 0.0000
# 4 0.0000 0.0000 0.0000 6.2371 0.0000 0.0000
# 5 0.0000 0.0000 0.0000 0.0000 48.7997 0.0000
# 6 0.0000 0.0000 0.0000 0.0000 0.0000 35.8304
#
#
#
# Elastic Compliance Matrix: (Units=1/GPa)
#
#
# Indices 1 2 3 4 5 6 
#
# 1 0.014267 -0.003747 -0.005065 0.000000 0.000000 0.000000
# 2 -0.003747 0.009601 -0.002678 0.000000 0.000000 0.000000
# 3 -0.005065 -0.002678 0.010517 0.000000 0.000000 0.000000
# 4 0.000000 0.000000 0.000000 0.160330 0.000000 0.000000
# 5 0.000000 0.000000 0.000000 0.000000 0.020492 0.000000
# 6 0.000000 0.000000 0.000000 0.000000 0.000000 0.027909
#
#
# Mechanical properties :
#
#
# Convention : Reuss Voigt Hill
#
# Bulk Modulus (GPa) = 87.69917 89.52158 88.61038
# Shear Modulus (GPa) = 18.52552 31.80582 25.16567
#
# Velocity S-wave (km/s) = 3.02862 3.96838 3.52991
# Velocity P-wave (km/s) = 7.46006 8.08221 7.77736
#
# Compressibility (1/GPa) = 0.01140262
#
# Stress axis : x y z
#
# Youngs Moduli (GPa) = 70.09148 104.15923 95.08832
#
# Poissons Ratio (x) = 0.39028 0.48166
# Poissons Ratio (y) = 0.26263 0.25469
# Poissons Ratio (z) = 0.35504 0.27899
#
# Static dielectric constant tensor:
#      x y z
#    x 1.758850 0.000000 0.000000 
#    y 0.000000 1.734060 0.000000 
#    z 0.000000 0.000000 1.726860 
# 
# From -- ./inp_files/44201.got.cif
#   From: 2010.05.17/outbox.cif.g08.bks.cpg/sg68_23_cif.got.tgz:44201.got - 2010.06.03 18:57:09.
