data_PCOD9510874
_publ_section_title
;
Structure prediction by ZEFSAII (Michael W. Deem and Ramdas Pophale) SiO2 
 PCOD9510874
Probable space group: C C C A
;
_chemical_formula_sum "Si O2"
_cell_formula_units_Z 44
_cell_length_a 14.898853
_cell_length_b 12.687670
_cell_length_c 10.108929
_cell_angle_alpha 90.000000
_cell_angle_beta 90.000000
_cell_angle_gamma 90.000000
_cell_volume 1910.908340
_symmetry_space_group_name_H-M "C C C A"
_symmetry_group_IT_number 68
_space_group.IT_coordinate_system_code '2'
_symmetry_cell_setting 'orthorhombic'
loop_
_space_group_symop_operation_xyz
x,y,z
-x,1/2-y,z
x,1/2-y,1/2-z
-x,y,1/2-z
-x,-y,-z
x,1/2+y,-z
-x,1/2+y,1/2+z
x,-y,1/2+z
1/2+x,1/2+y,z
1/2-x,-y,z
1/2+x,-y,1/2-z
1/2-x,1/2+y,1/2-z
1/2-x,1/2-y,-z
1/2+x,y,-z
1/2-x,y,1/2+z
1/2+x,1/2-y,1/2+z
loop_
_atom_site_type_symbol
_atom_site_label
_atom_site_fract_x
_atom_site_fract_y
_atom_site_fract_z
Si Si1 0.000000 0.250000 0.250000
Si Si2 0.250000 0.500000 0.218123
Si Si3 0.207570 0.314356 0.878726
Si Si4 0.419517 0.068181 0.939592
O O1 0.052660 0.334262 0.156610
O O2 0.270688 0.597319 0.314761
O O3 0.339760 0.497720 0.127763
O O4 0.181674 0.250000 0.750000
O O5 0.250000 0.250000 0.000000
O O6 0.124360 0.375742 0.935608
O O7 0.500000 0.000000 0.000000
#
# Coordination Sequence:
#
# PCOD9510874 Si02
#       4
#     4   8  16  16
#     4  12  28  52  78 114 168 206 258 332 400 470
#     4  12  26  52  82 116 158 210 264 328 390 468
#     4  12  26  48  84 116 153 211 266 322 396 469
#     4  12  28  51  81 118 161 207 265 326 396 472
#
# _framework density 23.025700000000001
#
# number of rings (size 3 to 8) (size 9 to 14) (size 15 to 20)
#    0.000    0.000    3.636    5.455    5.091    0.000 
#    0.000    0.000    0.000    0.000    0.000    0.000 
#    0.000    0.000    0.000    0.000    0.000    0.000 
#
# Total GULP energy -122891.592427 kJ/mol
# GULP energy per Si atom -5585.981474 kJ/mol
# Density = 2.297329 g / cm^3
# Si number density = 23.025700 Si / 1000 Ang^3
#
#
#
# Elastic Constant Matrix: (Units=GPa)
#
#
# Indices 1 2 3 4 5 6 
#
# 1 153.5017 75.7620 85.7285 0.0000 0.0000 0.0000
# 2 75.7620 130.1093 84.3044 0.0000 0.0000 0.0000
# 3 85.7285 84.3044 194.5805 0.0000 0.0000 0.0000
# 4 0.0000 0.0000 0.0000 50.7607 0.0000 0.0000
# 5 0.0000 0.0000 0.0000 0.0000 43.5925 0.0000
# 6 0.0000 0.0000 0.0000 0.0000 0.0000 47.5378
#
#
#
# Elastic Compliance Matrix: (Units=1/GPa)
#
#
# Indices 1 2 3 4 5 6 
#
# 1 0.010021 -0.004135 -0.002623 0.000000 0.000000 0.000000
# 2 -0.004135 0.012392 -0.003547 0.000000 0.000000 0.000000
# 3 -0.002623 -0.003547 0.007832 0.000000 0.000000 0.000000
# 4 0.000000 0.000000 0.000000 0.019700 0.000000 0.000000
# 5 0.000000 0.000000 0.000000 0.000000 0.022940 0.000000
# 6 0.000000 0.000000 0.000000 0.000000 0.000000 0.021036
#
#
# Mechanical properties :
#
#
# Convention : Reuss Voigt Hill
#
# Bulk Modulus (GPa) = 103.80584 107.75349 105.77967
# Shear Modulus (GPa) = 42.46541 43.87129 43.16835
#
# Velocity S-wave (km/s) = 4.29915 4.36973 4.33458
# Velocity P-wave (km/s) = 8.35608 8.50635 8.43155
#
# Compressibility (1/GPa) = 0.00963337
#
# Stress axis : x y z
#
# Youngs Moduli (GPa) = 99.79440 80.69635 127.68348
#
# Poissons Ratio (x) = 0.33370 0.33495
# Poissons Ratio (y) = 0.41267 0.45291
# Poissons Ratio (z) = 0.26179 0.28624
#
# Static dielectric constant tensor:
#      x y z
#    x 1.689950 0.000000 0.000000 
#    y 0.000000 -0.318450 0.000000 
#    z 0.000000 0.000000 1.219850 
# 
# From -- ./inp_files/5453.got.cif
#   From: 2010.05.17/outbox.cif.g08.bks.cpg/sg68_3_cif.got.tgz:5453.got - 2010.06.03 18:57:09.
