data_PCOD9510928
_publ_section_title
;
Structure prediction by ZEFSAII (Michael W. Deem and Ramdas Pophale) SiO2 
 PCOD9510928
Probable space group: C C C A
;
_chemical_formula_sum "Si O2"
_cell_formula_units_Z 58
_cell_length_a 24.000000
_cell_length_b 9.000000
_cell_length_c 30.000000
_cell_angle_alpha 90.000000
_cell_angle_beta 90.000000
_cell_angle_gamma 90.000000
_cell_volume 6480.000000
_symmetry_space_group_name_H-M "C C C A"
_symmetry_group_IT_number 68
_space_group.IT_coordinate_system_code '2'
_symmetry_cell_setting 'orthorhombic'
loop_
_space_group_symop_operation_xyz
x,y,z
-x,1/2-y,z
x,1/2-y,1/2-z
-x,y,1/2-z
-x,-y,-z
x,1/2+y,-z
-x,1/2+y,1/2+z
x,-y,1/2+z
1/2+x,1/2+y,z
1/2-x,-y,z
1/2+x,-y,1/2-z
1/2-x,1/2+y,1/2-z
1/2-x,1/2-y,-z
1/2+x,y,-z
1/2-x,y,1/2+z
1/2+x,1/2-y,1/2+z
loop_
_atom_site_type_symbol
_atom_site_label
_atom_site_fract_x
_atom_site_fract_y
_atom_site_fract_z
Si Si1 0.271111 0.831106 0.648397
Si Si2 0.560720 0.574436 0.330738
Si Si3 0.539129 0.607336 0.629918
Si Si4 0.645850 0.435350 0.074677
Si Si5 0.158138 0.770344 0.889461
Si Si6 0.881255 0.737158 0.302829
Si Si7 0.500000 0.250000 0.750000
Si Si8 0.206114 0.374560 0.017705
O O1 0.307697 0.843987 0.602866
O O2 0.215536 0.734261 0.639599
O O3 0.317072 0.766168 0.682476
O O4 0.250000 0.000000 0.659651
O O5 0.504251 0.525764 0.358144
O O6 0.605132 0.668319 0.361150
O O7 0.593997 0.422395 0.318235
O O8 0.538657 0.654724 0.285064
O O9 0.500000 0.750000 0.624290
O O10 0.582321 0.603719 0.588330
O O11 0.580189 0.640333 0.671938
O O12 0.650174 0.600700 0.094658
O O13 0.665161 0.418999 0.023466
O O14 0.171169 0.846556 0.937193
O O15 0.886825 0.750000 0.250000
O O16 0.250000 0.500000 0.029300
O O17 0.250000 0.250000 0.000000
#
# Coordination Sequence:
#
# PCOD9510928 Si02
#       8
#    16  16  16  16  16  16   4  16
#     4   9  19  37  59  83 122 162 193 252 317 379
#     4  11  24  39  65  92 120 166 212 267 314 370
#     4   9  20  39  65  86 119 159 207 263 311 370
#     4  10  19  39  62  87 123 165 210 247 319 371
#     4  11  23  38  60  94 128 160 208 263 313 379
#     4  10  21  39  61  91 118 160 208 256 320 385
#     4  12  24  44  62  88 124 168 224 258 310 376
#     4  12  22  37  64  93 124 164 212 256 309 393
#
# _framework density 8.9506169999999994
#
# number of rings (size 3 to 8) (size 9 to 14) (size 15 to 20)
#    0.000    1.655    2.759    2.069    1.931    5.241 
#    3.724    0.690    1.517    0.000    0.000    0.000 
#    0.000    0.000    0.000    0.000    0.000    0.000 
#
# Total GULP energy -323192.728641 kJ/mol
# GULP energy per Si atom -5572.288425 kJ/mol
# Density = 0.893025 g / cm^3
# Si number density = 8.950617 Si / 1000 Ang^3
#
#
#
# Elastic Constant Matrix: (Units=GPa)
#
#
# Indices 1 2 3 4 5 6 
#
# 1 163.2192 39.0461 64.1511 0.0000 0.0000 0.0000
# 2 39.0461 50.7840 26.2670 0.0000 0.0000 0.0000
# 3 64.1511 26.2670 113.4817 0.0000 0.0000 0.0000
# 4 0.0000 0.0000 0.0000 27.6171 0.0000 0.0000
# 5 0.0000 0.0000 0.0000 0.0000 39.8184 0.0000
# 6 0.0000 0.0000 0.0000 0.0000 0.0000 42.2373
#
#
#
# Elastic Compliance Matrix: (Units=1/GPa)
#
#
# Indices 1 2 3 4 5 6 
#
# 1 0.008783 -0.004754 -0.003865 0.000000 0.000000 0.000000
# 2 -0.004754 0.024943 -0.003086 0.000000 0.000000 0.000000
# 3 -0.003865 -0.003086 0.011711 0.000000 0.000000 0.000000
# 4 0.000000 0.000000 0.000000 0.036209 0.000000 0.000000
# 5 0.000000 0.000000 0.000000 0.000000 0.025114 0.000000
# 6 0.000000 0.000000 0.000000 0.000000 0.000000 0.023676
#
#
# Mechanical properties :
#
#
# Convention : Reuss Voigt Hill
#
# Bulk Modulus (GPa) = 45.39795 65.15702 55.27748
# Shear Modulus (GPa) = 31.01987 35.13596 33.07791
#
# Velocity S-wave (km/s) = 4.16725 4.43512 4.30327
# Velocity P-wave (km/s) = 6.96921 7.91859 7.45902
#
# Compressibility (1/GPa) = 0.02202743
#
# Stress axis : x y z
#
# Youngs Moduli (GPa) = 113.85714 40.09212 85.39044
#
# Poissons Ratio (x) = 0.19060 0.33000
# Poissons Ratio (y) = 0.54128 0.26350
# Poissons Ratio (z) = 0.44001 0.12372
#
# Static dielectric constant tensor:
#      x y z
#    x 1.618950 0.000000 0.000000 
#    y 0.000000 1.629770 0.000000 
#    z 0.000000 0.000000 1.615430 
# 
# From -- ./inp_files/56071.got.cif
#   From: 2010.05.17/outbox.ucp.g08.bks.cvg/sg68_29_cif.got.tgz:56071.got - 2010.06.11 16:49:25.
