data_PCOD9510026
_publ_section_title
;
Structure prediction by ZEFSAII (Michael W. Deem and Ramdas Pophale) SiO2 
 PCOD9510026
Probable space group: C C C A
;
_chemical_formula_sum "Si O2"
_cell_formula_units_Z 96
_cell_length_a 25.252603
_cell_length_b 16.846291
_cell_length_c 11.172884
_cell_angle_alpha 90.000000
_cell_angle_beta 90.000000
_cell_angle_gamma 90.000000
_cell_volume 4753.086734
_symmetry_space_group_name_H-M "C C C A"
_symmetry_group_IT_number 68
_space_group.IT_coordinate_system_code '2'
_symmetry_cell_setting 'orthorhombic'
loop_
_space_group_symop_operation_xyz
x,y,z
-x,1/2-y,z
x,1/2-y,1/2-z
-x,y,1/2-z
-x,-y,-z
x,1/2+y,-z
-x,1/2+y,1/2+z
x,-y,1/2+z
1/2+x,1/2+y,z
1/2-x,-y,z
1/2+x,-y,1/2-z
1/2-x,1/2+y,1/2-z
1/2-x,1/2-y,-z
1/2+x,y,-z
1/2-x,y,1/2+z
1/2+x,1/2-y,1/2+z
loop_
_atom_site_type_symbol
_atom_site_label
_atom_site_fract_x
_atom_site_fract_y
_atom_site_fract_z
Si Si1 0.673506 0.291949 0.968873
Si Si2 0.559907 0.252842 0.041137
Si Si3 0.661805 0.526428 0.782241
Si Si4 0.691879 0.033036 0.469647
Si Si5 0.775656 0.683935 0.343066
Si Si6 0.058283 0.122314 0.761036
O O1 0.610816 0.274573 0.960376
O O2 0.684778 0.371915 0.047419
O O3 0.698194 0.214191 0.033201
O O4 0.712236 0.310550 0.857631
O O5 0.500000 0.250000 0.988867
O O6 0.566384 0.171097 0.115596
O O7 0.560763 0.317036 0.149367
O O8 0.677938 0.489390 0.654865
O O9 0.702863 0.598601 0.807394
O O10 0.604421 0.560422 0.755228
O O11 0.659887 0.481132 0.907871
O O12 0.750000 0.000000 0.496838
O O13 0.794238 0.750000 0.250000
O O14 0.000000 0.086590 0.750000
#
# Coordination Sequence:
#
# PCOD9510026 Si02
#       6
#    16  16  16  16  16  16
#     4  11  21  36  59  91 117 153 208 258 318 366
#     4   9  16  31  60  90 112 142 200 269 312 347
#     4  12  23  40  61  88 127 169 210 254 315 384
#     4  12  25  39  57  87 132 174 202 247 320 391
#     4  11  21  36  61  86 117 155 204 266 305 368
#     4   9  17  32  59  89 114 148 205 262 311 357
#
# _framework density 20.197400999999999
#
# number of rings (size 3 to 8) (size 9 to 14) (size 15 to 20)
#    0.000    1.333    6.667    1.500    0.000    0.000 
#    0.000    0.833    0.000    0.500    0.000    0.000 
#    0.000    0.000    0.000    0.000    0.000    0.000 
#
# Total GULP energy -267393.363391 kJ/mol
# GULP energy per Si atom -5570.695071 kJ/mol
# Density = 2.015143 g / cm^3
# Si number density = 20.197401 Si / 1000 Ang^3
#
#
#
# Elastic Constant Matrix: (Units=GPa)
#
#
# Indices 1 2 3 4 5 6 
#
# 1 151.3041 18.1283 8.2739 0.0000 0.0000 0.0000
# 2 18.1283 28.2654 18.9078 0.0000 0.0000 0.0000
# 3 8.2739 18.9078 67.6742 0.0000 0.0000 0.0000
# 4 0.0000 0.0000 0.0000 20.6243 0.0000 0.0000
# 5 0.0000 0.0000 0.0000 0.0000 21.0631 0.0000
# 6 0.0000 0.0000 0.0000 0.0000 0.0000 -6.0390
#
#
#
# Elastic Compliance Matrix: (Units=1/GPa)
#
#
# Indices 1 2 3 4 5 6 
#
# 1 0.007173 -0.004937 0.000502 0.000000 0.000000 0.000000
# 2 -0.004937 0.046909 -0.012502 0.000000 0.000000 0.000000
# 3 0.000502 -0.012502 0.018208 0.000000 0.000000 0.000000
# 4 0.000000 0.000000 0.000000 0.048486 0.000000 0.000000
# 5 0.000000 0.000000 0.000000 0.000000 0.047476 0.000000
# 6 0.000000 0.000000 0.000000 0.000000 0.000000 -0.165591
#
#
# Mechanical properties :
#
#
# Convention : Reuss Voigt Hill
#
# Bulk Modulus (GPa) = 26.03046 37.54043 31.78545
# Shear Modulus (GPa) = 101.33442 20.59193 60.96317
#
# Velocity S-wave (km/s) = 7.09090 3.19648 5.49993
# Velocity P-wave (km/s) = 8.94188 5.67894 7.49025
#
# Compressibility (1/GPa) = 0.03841653
#
# Stress axis : x y z
#
# Youngs Moduli (GPa) = 139.40750 21.31807 54.91971
#
# Poissons Ratio (x) = 0.10524 -0.02758
# Poissons Ratio (y) = 0.68820 0.68663
# Poissons Ratio (z) = -0.07002 0.26653
#
# Static dielectric constant tensor:
#      x y z
#    x 1.748260 0.000000 0.000000 
#    y 0.000000 1.750620 0.000000 
#    z 0.000000 0.000000 1.807410 
# 
# From -- ./inp_files/16413.got.cif
#   From: 2010.05.17/outbox.cif.g08.bks.cpg/sg68_9_cif.got.tgz:16413.got - 2010.06.03 18:57:09.
