data_PCOD9510792
_publ_section_title
;
Structure prediction by ZEFSAII (Michael W. Deem and Ramdas Pophale) SiO2 
 PCOD9510792
Probable space group: C C C A
;
_chemical_formula_sum "Si O2"
_cell_formula_units_Z 28
_cell_length_a 4.850856
_cell_length_b 8.867176
_cell_length_c 27.526504
_cell_angle_alpha 90.000000
_cell_angle_beta 90.000000
_cell_angle_gamma 90.000000
_cell_volume 1184.008359
_symmetry_space_group_name_H-M "C C C A"
_symmetry_group_IT_number 68
_space_group.IT_coordinate_system_code '2'
_symmetry_cell_setting 'orthorhombic'
loop_
_space_group_symop_operation_xyz
x,y,z
-x,1/2-y,z
x,1/2-y,1/2-z
-x,y,1/2-z
-x,-y,-z
x,1/2+y,-z
-x,1/2+y,1/2+z
x,-y,1/2+z
1/2+x,1/2+y,z
1/2-x,-y,z
1/2+x,-y,1/2-z
1/2-x,1/2+y,1/2-z
1/2-x,1/2-y,-z
1/2+x,y,-z
1/2-x,y,1/2+z
1/2+x,1/2-y,1/2+z
loop_
_atom_site_type_symbol
_atom_site_label
_atom_site_fract_x
_atom_site_fract_y
_atom_site_fract_z
Si Si1 0.250000 0.500000 0.390261
Si Si2 0.500000 0.250000 0.537867
Si Si3 0.500000 0.750000 0.750000
Si Si4 0.250000 0.000000 0.316586
O O1 0.396997 0.619669 0.425781
O O2 0.496649 0.468305 0.353019
O O3 0.250000 0.250000 0.500000
O O4 0.296590 0.642592 0.718791
#
# Coordination Sequence:
#
# PCOD9510792 Si02
#       4
#     8   8   4   8
#     4  12  25  45  70 104 144 192 244 307 371 446
#     4  12  24  43  70 103 144 191 244 303 370 444
#     4  12  28  50  76 110 148 200 252 316 380 456
#     4  12  27  47  74 106 148 194 250 309 377 448
#
# _framework density 23.648481
#
# number of rings (size 3 to 8) (size 9 to 14) (size 15 to 20)
#    0.000    0.000    0.000   10.286    0.000    8.000 
#    0.000    0.000    0.000    0.000    0.000    0.000 
#    0.000    0.000    0.000    0.000    0.000    0.000 
#
# Total GULP energy -77985.030151 kJ/mol
# GULP energy per Si atom -5570.359296 kJ/mol
# Density = 2.359466 g / cm^3
# Si number density = 23.648481 Si / 1000 Ang^3
#
#
#
# Elastic Constant Matrix: (Units=GPa)
#
#
# Indices 1 2 3 4 5 6 
#
# 1 198.5759 67.6985 88.6420 0.0000 0.0000 0.0000
# 2 67.6985 181.8601 128.3275 0.0000 0.0000 0.0000
# 3 88.6420 128.3275 238.7334 0.0000 0.0000 0.0000
# 4 0.0000 0.0000 0.0000 30.9093 0.0000 0.0000
# 5 0.0000 0.0000 0.0000 0.0000 74.4130 0.0000
# 6 0.0000 0.0000 0.0000 0.0000 0.0000 47.4691
#
#
#
# Elastic Compliance Matrix: (Units=1/GPa)
#
#
# Indices 1 2 3 4 5 6 
#
# 1 0.006169 -0.001096 -0.001702 0.000000 0.000000 0.000000
# 2 -0.001096 0.009054 -0.004460 0.000000 0.000000 0.000000
# 3 -0.001702 -0.004460 0.007218 0.000000 0.000000 0.000000
# 4 0.000000 0.000000 0.000000 0.032353 0.000000 0.000000
# 5 0.000000 0.000000 0.000000 0.000000 0.013439 0.000000
# 6 0.000000 0.000000 0.000000 0.000000 0.000000 0.021066
#
#
# Mechanical properties :
#
#
# Convention : Reuss Voigt Hill
#
# Bulk Modulus (GPa) = 126.16262 132.05616 129.10939
# Shear Modulus (GPa) = 46.96855 52.85839 49.91347
#
# Velocity S-wave (km/s) = 4.46142 4.73289 4.59916
# Velocity P-wave (km/s) = 8.94449 9.26442 9.10586
#
# Compressibility (1/GPa) = 0.00792628
#
# Stress axis : x y z
#
# Youngs Moduli (GPa) = 162.10158 110.45297 138.54568
#
# Poissons Ratio (x) = 0.12103 0.23574
# Poissons Ratio (y) = 0.17763 0.61788
# Poissons Ratio (z) = 0.27582 0.49260
#
# Static dielectric constant tensor:
#      x y z
#    x 1.843750 0.000000 0.000000 
#    y 0.000000 1.900770 0.000000 
#    z 0.000000 0.000000 2.031910 
# 
# From -- ./inp_files/26624.got.cif
#   From: 2010.05.17/outbox.cif.g08.bks.cpg/sg68_14_cif.got.tgz:26624.got - 2010.06.03 18:57:09.
