data_PCOD9510838
_publ_section_title
;
Structure prediction by ZEFSAII (Michael W. Deem and Ramdas Pophale) SiO2 
 PCOD9510838
Probable space group: C C C A
;
_chemical_formula_sum "Si O2"
_cell_formula_units_Z 80
_cell_length_a 11.855026
_cell_length_b 24.339330
_cell_length_c 12.416316
_cell_angle_alpha 90.000000
_cell_angle_beta 90.000000
_cell_angle_gamma 90.000000
_cell_volume 3582.645910
_symmetry_space_group_name_H-M "C C C A"
_symmetry_group_IT_number 68
_space_group.IT_coordinate_system_code '2'
_symmetry_cell_setting 'orthorhombic'
loop_
_space_group_symop_operation_xyz
x,y,z
-x,1/2-y,z
x,1/2-y,1/2-z
-x,y,1/2-z
-x,-y,-z
x,1/2+y,-z
-x,1/2+y,1/2+z
x,-y,1/2+z
1/2+x,1/2+y,z
1/2-x,-y,z
1/2+x,-y,1/2-z
1/2-x,1/2+y,1/2-z
1/2-x,1/2-y,-z
1/2+x,y,-z
1/2-x,y,1/2+z
1/2+x,1/2-y,1/2+z
loop_
_atom_site_type_symbol
_atom_site_label
_atom_site_fract_x
_atom_site_fract_y
_atom_site_fract_z
Si Si1 0.116560 0.905847 0.312173
Si Si2 0.944634 0.837683 0.863883
Si Si3 0.934661 0.052871 0.456170
Si Si4 0.000000 0.750000 0.046820
Si Si5 0.797376 0.802492 0.308282
Si Si6 0.750000 0.500000 0.197177
O O1 0.107276 0.914764 0.438593
O O2 0.149035 0.844582 0.276934
O O3 0.201764 0.951370 0.269264
O O4 0.000000 0.917710 0.250000
O O5 0.993345 0.898674 0.888354
O O6 0.807540 0.835821 0.858303
O O7 0.000000 0.820204 0.750000
O O8 0.970101 0.798668 0.964361
O O9 0.841373 0.027344 0.379794
O O10 0.000000 0.000000 0.500000
O O11 0.103154 0.775761 0.117964
O O12 0.743861 0.750000 0.250000
#
# Coordination Sequence:
#
# PCOD9510838 Si02
#       6
#    16  16  16   8  16   8
#     4  12  25  47  74 108 151 192 256 309 374 463
#     4  12  28  48  74 113 152 197 255 321 382 457
#     4  12  27  46  76 107 150 201 251 310 384 457
#     4  12  26  48  76 108 150 206 256 312 388 460
#     4  12  25  48  76 110 150 201 255 314 387 453
#     4  12  26  48  72 110 144 202 242 316 380 448
#
# _framework density 22.329865000000002
#
# number of rings (size 3 to 8) (size 9 to 14) (size 15 to 20)
#    0.000    0.000    4.000    6.600    2.800    3.200 
#    0.000    0.000    0.000    0.000    0.000    0.000 
#    0.000    0.000    0.000    0.000    0.000    0.000 
#
# Total GULP energy -223641.622441 kJ/mol
# GULP energy per Si atom -5591.040561 kJ/mol
# Density = 2.227904 g / cm^3
# Si number density = 22.329865 Si / 1000 Ang^3
#
#
#
# Elastic Constant Matrix: (Units=GPa)
#
#
# Indices 1 2 3 4 5 6 
#
# 1 57.8528 27.1324 15.8726 0.0000 0.0000 0.0000
# 2 27.1324 168.3292 46.7200 0.0000 0.0000 0.0000
# 3 15.8726 46.7200 117.4113 0.0000 0.0000 0.0000
# 4 0.0000 0.0000 0.0000 72.0787 0.0000 0.0000
# 5 0.0000 0.0000 0.0000 0.0000 37.4494 0.0000
# 6 0.0000 0.0000 0.0000 0.0000 0.0000 40.1063
#
#
#
# Elastic Compliance Matrix: (Units=1/GPa)
#
#
# Indices 1 2 3 4 5 6 
#
# 1 0.018935 -0.002632 -0.001512 0.000000 0.000000 0.000000
# 2 -0.002632 0.007044 -0.002447 0.000000 0.000000 0.000000
# 3 -0.001512 -0.002447 0.009695 0.000000 0.000000 0.000000
# 4 0.000000 0.000000 0.000000 0.013874 0.000000 0.000000
# 5 0.000000 0.000000 0.000000 0.000000 0.026703 0.000000
# 6 0.000000 0.000000 0.000000 0.000000 0.000000 0.024934
#
#
# Mechanical properties :
#
#
# Convention : Reuss Voigt Hill
#
# Bulk Modulus (GPa) = 44.46287 58.11594 51.28940
# Shear Modulus (GPa) = 41.02906 46.85141 43.94024
#
# Velocity S-wave (km/s) = 4.29115 4.58553 4.44078
# Velocity P-wave (km/s) = 6.67136 7.35654 7.02231
#
# Compressibility (1/GPa) = 0.02249068
#
# Stress axis : x y z
#
# Youngs Moduli (GPa) = 52.81315 141.95992 103.14290
#
# Poissons Ratio (x) = 0.37368 0.15599
# Poissons Ratio (y) = 0.13902 0.25241
# Poissons Ratio (z) = 0.07987 0.34740
#
# Static dielectric constant tensor:
#      x y z
#    x 1.868840 0.000000 0.000000 
#    y 0.000000 1.823760 0.000000 
#    z 0.000000 0.000000 1.878730 
# 
# From -- ./inp_files/20900.got.cif
#   From: 2010.05.17/outbox.cif.g08.bks.cpg/sg68_11_cif.got.tgz:20900.got - 2010.06.03 18:57:09.
