data_PCOD9510840
_publ_section_title
;
Structure prediction by ZEFSAII (Michael W. Deem and Ramdas Pophale) SiO2 
 PCOD9510840
Probable space group: C C C A
;
_chemical_formula_sum "Si O2"
_cell_formula_units_Z 108
_cell_length_a 23.460683
_cell_length_b 14.247431
_cell_length_c 14.651084
_cell_angle_alpha 90.000000
_cell_angle_beta 90.000000
_cell_angle_gamma 90.000000
_cell_volume 4897.190204
_symmetry_space_group_name_H-M "C C C A"
_symmetry_group_IT_number 68
_space_group.IT_coordinate_system_code '2'
_symmetry_cell_setting 'orthorhombic'
loop_
_space_group_symop_operation_xyz
x,y,z
-x,1/2-y,z
x,1/2-y,1/2-z
-x,y,1/2-z
-x,-y,-z
x,1/2+y,-z
-x,1/2+y,1/2+z
x,-y,1/2+z
1/2+x,1/2+y,z
1/2-x,-y,z
1/2+x,-y,1/2-z
1/2-x,1/2+y,1/2-z
1/2-x,1/2-y,-z
1/2+x,y,-z
1/2-x,y,1/2+z
1/2+x,1/2-y,1/2+z
loop_
_atom_site_type_symbol
_atom_site_label
_atom_site_fract_x
_atom_site_fract_y
_atom_site_fract_z
Si Si1 0.338755 0.750000 0.750000
Si Si2 0.872465 0.079031 0.515984
Si Si3 0.361664 0.886280 0.383880
Si Si4 0.915257 0.907293 0.811560
Si Si5 0.942066 0.378059 0.699061
Si Si6 0.235630 0.179301 0.918589
Si Si7 0.563675 0.236691 0.485729
Si Si8 0.500000 0.750000 0.250000
O O1 0.382698 0.837382 0.739834
O O2 0.297854 0.767856 0.836736
O O3 0.882332 0.083637 0.407323
O O4 0.808334 0.104431 0.541546
O O5 0.912511 0.163974 0.550210
O O6 0.883355 0.980256 0.564701
O O7 0.377540 0.890038 0.277999
O O8 0.294410 0.868889 0.389962
O O9 0.393599 0.803358 0.438436
O O10 0.960668 0.822752 0.806774
O O11 0.942314 0.009920 0.801121
O O12 0.940837 0.335866 0.597545
O O13 0.000000 0.348462 0.750000
O O14 0.250000 0.250000 0.000000
O O15 0.500000 0.250000 0.519587
#
# Coordination Sequence:
#
# PCOD9510840 Si02
#       8
#     8  16  16  16  16  16  16   4
#     4  12  25  47  82 114 154 202 264 322 388 460
#     4  12  27  52  76 111 157 205 261 318 391 460
#     4  12  28  52  77 115 153 205 266 315 395 461
#     4  12  29  48  80 114 157 204 250 323 383 473
#     4  12  25  49  77 119 155 201 257 315 388 463
#     4  12  27  49  79 111 151 205 261 325 381 461
#     4  12  27  47  78 113 154 203 253 323 382 466
#     4  12  28  50  72 122 154 202 260 292 402 474
#
# _framework density 22.053462
#
# number of rings (size 3 to 8) (size 9 to 14) (size 15 to 20)
#    0.000    0.000    5.185    3.333    8.296    0.593 
#    0.000    1.481    0.000    0.000    0.000    0.000 
#    0.000    0.000    0.000    0.000    0.000    0.000 
#
# Total GULP energy -302313.090068 kJ/mol
# GULP energy per Si atom -5598.390557 kJ/mol
# Density = 2.200327 g / cm^3
# Si number density = 22.053462 Si / 1000 Ang^3
#
#
#
# Elastic Constant Matrix: (Units=GPa)
#
#
# Indices 1 2 3 4 5 6 
#
# 1 163.8888 50.2517 60.7372 0.0000 0.0000 0.0000
# 2 50.2517 139.5586 14.6514 0.0000 0.0000 0.0000
# 3 60.7372 14.6514 139.0478 0.0000 0.0000 0.0000
# 4 0.0000 0.0000 0.0000 28.9794 0.0000 0.0000
# 5 0.0000 0.0000 0.0000 0.0000 -7.8243 0.0000
# 6 0.0000 0.0000 0.0000 0.0000 0.0000 46.6886
#
#
#
# Elastic Compliance Matrix: (Units=1/GPa)
#
#
# Indices 1 2 3 4 5 6 
#
# 1 0.008102 -0.002574 -0.003268 0.000000 0.000000 0.000000
# 2 -0.002574 0.008064 0.000275 0.000000 0.000000 0.000000
# 3 -0.003268 0.000275 0.008590 0.000000 0.000000 0.000000
# 4 0.000000 0.000000 0.000000 0.034507 0.000000 0.000000
# 5 0.000000 0.000000 0.000000 0.000000 -0.127807 0.000000
# 6 0.000000 0.000000 0.000000 0.000000 0.000000 0.021419
#
#
# Mechanical properties :
#
#
# Convention : Reuss Voigt Hill
#
# Bulk Modulus (GPa) = 73.41455 77.08621 75.25038
# Shear Modulus (GPa) = -158.97980 34.69240 -62.14370
#
# Velocity S-wave (km/s) = -8.49970 3.97054 -5.31412
# Velocity P-wave (km/s) = 7.93504 7.48668 1.85936
#
# Compressibility (1/GPa) = 0.01362128
#
# Stress axis : x y z
#
# Youngs Moduli (GPa) = 123.42510 124.01503 116.41156
#
# Poissons Ratio (x) = 0.31925 0.38041
# Poissons Ratio (y) = 0.31773 -0.03199
# Poissons Ratio (z) = 0.40333 -0.03408
#
# Static dielectric constant tensor:
#      x y z
#    x 1.776810 0.000000 0.000000 
#    y 0.000000 1.967700 0.000000 
#    z 0.000000 0.000000 1.855170 
# 
# From -- ./inp_files/25517.got.cif
#   From: 2010.05.17/outbox.cif.g08.bks.cpg/sg68_13_cif.got.tgz:25517.got - 2010.06.03 18:57:09.
