data_PCOD9510995
_publ_section_title
;
Structure prediction by ZEFSAII (Michael W. Deem and Ramdas Pophale) SiO2 
 PCOD9510995
Probable space group: F M M M
;
_chemical_formula_sum "Si O2"
_cell_formula_units_Z 160
_cell_length_a 19.484136
_cell_length_b 25.854721
_cell_length_c 18.912698
_cell_angle_alpha 90.000000
_cell_angle_beta 90.000000
_cell_angle_gamma 90.000000
_cell_volume 9527.402119
_symmetry_space_group_name_H-M "F M M M"
_symmetry_group_IT_number 69
_symmetry_cell_setting 'orthorhombic'
loop_
_space_group_symop_operation_xyz
x,y,z
-x,-y,z
x,-y,-z
-x,y,-z
-x,-y,-z
x,y,-z
-x,y,z
x,-y,z
x,1/2+y,1/2+z
-x,1/2-y,1/2+z
x,1/2-y,1/2-z
-x,1/2+y,1/2-z
-x,1/2-y,1/2-z
x,1/2+y,1/2-z
-x,1/2+y,1/2+z
x,1/2-y,1/2+z
1/2+x,y,1/2+z
1/2-x,-y,1/2+z
1/2+x,-y,1/2-z
1/2-x,y,1/2-z
1/2-x,-y,1/2-z
1/2+x,y,1/2-z
1/2-x,y,1/2+z
1/2+x,-y,1/2+z
1/2+x,1/2+y,z
1/2-x,1/2-y,z
1/2+x,1/2-y,-z
1/2-x,1/2+y,-z
1/2-x,1/2-y,-z
1/2+x,1/2+y,-z
1/2-x,1/2+y,z
1/2+x,1/2-y,z
loop_
_atom_site_type_symbol
_atom_site_label
_atom_site_fract_x
_atom_site_fract_y
_atom_site_fract_z
Si Si1 0.800259 0.700951 0.582073
Si Si2 0.772409 0.500000 0.666882
Si Si3 0.275167 0.888697 0.167418
Si Si4 0.420900 0.209654 0.688523
Si Si5 0.576621 0.000000 0.708006
Si Si6 0.076459 0.389690 0.214528
O O1 0.812121 0.688838 0.500000
O O2 0.750000 0.750000 0.586696
O O3 0.764042 0.653865 0.622618
O O4 0.870265 0.713156 0.623175
O O5 0.750000 0.500000 0.750000
O O6 0.742815 0.553958 0.639860
O O7 0.854913 0.500000 0.661244
O O8 0.250000 0.885296 0.250000
O O9 0.357046 0.880905 0.166811
O O10 0.500000 0.221018 0.670209
O O11 0.400012 0.250000 0.750000
O O12 0.418240 0.152346 0.722584
O O13 0.581296 0.947782 0.754539
O O14 0.500000 0.000000 0.674899
O O15 0.000000 0.383155 0.182985
#
# Coordination Sequence:
#
# PCOD9510995 Si02
#       6
#    32  16  32  32  16  32
#     4  11  24  37  52  77 106 137 176 217 263 319
#     4  10  16  28  47  78 103 132 173 216 263 308
#     4  11  18  32  55  76 103 139 172 218 261 307
#     4  10  20  34  54  79 103 134 176 215 257 313
#     4  10  16  24  40  70 110 132 156 212 266 302
#     4  10  18  28  47  78 104 130 170 212 258 305
#
# _framework density 16.793666000000002
#
# number of rings (size 3 to 8) (size 9 to 14) (size 15 to 20)
#    0.000    1.600    6.000    1.200    0.000    0.400 
#    0.000    0.500    0.000    1.800    0.000    0.000 
#    0.000   15.200    0.000    0.000    0.000    0.000 
#
# Total GULP energy -223023.691938 kJ/mol
# GULP energy per Si atom -5575.592298 kJ/mol
# Density = 1.675544 g / cm^3
# Si number density = 16.793666 Si / 1000 Ang^3
#
#
#
# Elastic Constant Matrix: (Units=GPa)
#
#
# Indices 1 2 3 4 5 6 
#
# 1 139.4456 12.0125 56.2971 0.0000 0.0000 0.0000
# 2 12.0125 92.0393 52.2074 0.0000 0.0000 0.0000
# 3 56.2971 52.2074 80.6658 0.0000 0.0000 0.0000
# 4 0.0000 0.0000 0.0000 4.6250 0.0000 0.0000
# 5 0.0000 0.0000 0.0000 0.0000 12.9722 0.0000
# 6 0.0000 0.0000 0.0000 0.0000 0.0000 16.3672
#
#
#
# Elastic Compliance Matrix: (Units=1/GPa)
#
#
# Indices 1 2 3 4 5 6 
#
# 1 0.011122 0.004663 -0.010780 0.000000 0.000000 0.000000
# 2 0.004663 0.019122 -0.015630 0.000000 0.000000 0.000000
# 3 -0.010780 -0.015630 0.030036 0.000000 0.000000 0.000000
# 4 0.000000 0.000000 0.000000 0.216214 0.000000 0.000000
# 5 0.000000 0.000000 0.000000 0.000000 0.077088 0.000000
# 6 0.000000 0.000000 0.000000 0.000000 0.000000 0.061098
#
#
# Mechanical properties :
#
#
# Convention : Reuss Voigt Hill
#
# Bulk Modulus (GPa) = 59.57418 61.46496 60.51957
# Shear Modulus (GPa) = 10.78122 19.56847 15.17485
#
# Velocity S-wave (km/s) = 2.53648 3.41725 3.00926
# Velocity P-wave (km/s) = 6.64301 7.22839 6.94187
#
# Compressibility (1/GPa) = 0.01678579
#
# Stress axis : x y z
#
# Youngs Moduli (GPa) = 89.91540 52.29476 33.29318
#
# Poissons Ratio (x) = -0.24385 0.35889
# Poissons Ratio (y) = -0.41928 0.52039
# Poissons Ratio (z) = 0.96926 0.81739
#
# Static dielectric constant tensor:
#      x y z
#    x 1.601020 0.000000 0.000000 
#    y 0.000000 1.577660 0.000000 
#    z 0.000000 0.000000 1.524400 
# 
# From -- ./inp_files/24934.got.cif
#   From: 2010.05.17/outbox.cif.g08.bks.cpg/sg69_13_cif.got.tgz:24934.got - 2010.06.03 19:29:58.
