data_PCOD9510827
_publ_section_title
;
Structure prediction by ZEFSAII (Michael W. Deem and Ramdas Pophale) SiO2 
 PCOD9510827
Probable space group: C C C A
;
_chemical_formula_sum "Si O2"
_cell_formula_units_Z 52
_cell_length_a 14.522768
_cell_length_b 20.656590
_cell_length_c 7.411604
_cell_angle_alpha 90.000000
_cell_angle_beta 90.000000
_cell_angle_gamma 90.000000
_cell_volume 2223.413489
_symmetry_space_group_name_H-M "C C C A"
_symmetry_group_IT_number 68
_space_group.IT_coordinate_system_code '2'
_symmetry_cell_setting 'orthorhombic'
loop_
_space_group_symop_operation_xyz
x,y,z
-x,1/2-y,z
x,1/2-y,1/2-z
-x,y,1/2-z
-x,-y,-z
x,1/2+y,-z
-x,1/2+y,1/2+z
x,-y,1/2+z
1/2+x,1/2+y,z
1/2-x,-y,z
1/2+x,-y,1/2-z
1/2-x,1/2+y,1/2-z
1/2-x,1/2-y,-z
1/2+x,y,-z
1/2-x,y,1/2+z
1/2+x,1/2-y,1/2+z
loop_
_atom_site_type_symbol
_atom_site_label
_atom_site_fract_x
_atom_site_fract_y
_atom_site_fract_z
Si Si1 0.320758 0.590108 0.499010
Si Si2 0.000000 0.750000 0.750000
Si Si3 0.590381 0.960309 0.851136
Si Si4 0.379456 0.860433 0.374557
O O1 0.362123 0.583254 0.697826
O O2 0.342212 0.517066 0.420318
O O3 0.366498 0.630307 0.339383
O O4 0.220781 0.622223 0.538872
O O5 0.066413 0.706750 0.621676
O O6 0.500000 0.985206 0.750000
O O7 0.562996 0.914434 0.017039
#
# Coordination Sequence:
#
# PCOD9510827 Si02
#       4
#    16   4  16  16
#     4  12  25  44  80 117 156 195 249 330 408 470
#     4  12  32  56  74 100 162 222 284 322 350 472
#     4  12  25  43  77 126 157 190 247 326 414 475
#     4  12  27  50  76 113 157 211 263 319 392 464
#
# _framework density 23.387463
#
# number of rings (size 3 to 8) (size 9 to 14) (size 15 to 20)
#    0.000    0.000    6.154    3.692    2.154    1.231 
#    0.000    5.385    0.000    0.000    0.000    0.000 
#    0.000    0.000    0.000    0.000    0.000    0.000 
#
# Total GULP energy -144946.458095 kJ/mol
# GULP energy per Si atom -5574.863773 kJ/mol
# Density = 2.333423 g / cm^3
# Si number density = 23.387463 Si / 1000 Ang^3
#
#
#
# Elastic Constant Matrix: (Units=GPa)
#
#
# Indices 1 2 3 4 5 6 
#
# 1 156.7478 74.2084 70.2316 0.0000 0.0000 0.0000
# 2 74.2084 140.7261 49.4538 0.0000 0.0000 0.0000
# 3 70.2316 49.4538 151.3196 0.0000 0.0000 0.0000
# 4 0.0000 0.0000 0.0000 7.6732 0.0000 0.0000
# 5 0.0000 0.0000 0.0000 0.0000 41.0310 0.0000
# 6 0.0000 0.0000 0.0000 0.0000 0.0000 51.1655
#
#
#
# Elastic Compliance Matrix: (Units=1/GPa)
#
#
# Indices 1 2 3 4 5 6 
#
# 1 0.009703 -0.003993 -0.003199 0.000000 0.000000 0.000000
# 2 -0.003993 0.009671 -0.001308 0.000000 0.000000 0.000000
# 3 -0.003199 -0.001308 0.008520 0.000000 0.000000 0.000000
# 4 0.000000 0.000000 0.000000 0.130323 0.000000 0.000000
# 5 0.000000 0.000000 0.000000 0.000000 0.024372 0.000000
# 6 0.000000 0.000000 0.000000 0.000000 0.000000 0.019544
#
#
# Mechanical properties :
#
#
# Convention : Reuss Voigt Hill
#
# Bulk Modulus (GPa) = 91.76948 92.95345 92.36146
# Shear Modulus (GPa) = 22.44536 36.96726 29.70631
#
# Velocity S-wave (km/s) = 3.10129 3.98004 3.56783
# Velocity P-wave (km/s) = 7.22135 7.80719 7.51998
#
# Compressibility (1/GPa) = 0.01089687
#
# Stress axis : x y z
#
# Youngs Moduli (GPa) = 103.06075 103.40306 117.36533
#
# Poissons Ratio (x) = 0.41285 0.37540
# Poissons Ratio (y) = 0.41148 0.15346
# Poissons Ratio (z) = 0.32965 0.13520
#
# Static dielectric constant tensor:
#      x y z
#    x 2.080270 0.000000 0.000000 
#    y 0.000000 1.909010 0.000000 
#    z 0.000000 0.000000 1.856520 
# 
# From -- ./inp_files/4675.got.cif
#   From: 2010.05.17/outbox.cif.g08.bks.cpg/sg68_3_cif.got.tgz:4675.got - 2010.06.03 18:57:09.
