data_PCOD9510388
_publ_section_title
;
Structure prediction by ZEFSAII (Michael W. Deem and Ramdas Pophale) SiO2 
 PCOD9510388
Probable space group: C C C A
;
_chemical_formula_sum "Si O2"
_cell_formula_units_Z 64
_cell_length_a 13.627156
_cell_length_b 11.158363
_cell_length_c 17.984798
_cell_angle_alpha 90.000000
_cell_angle_beta 90.000000
_cell_angle_gamma 90.000000
_cell_volume 2734.709993
_symmetry_space_group_name_H-M "C C C A"
_symmetry_group_IT_number 68
_space_group.IT_coordinate_system_code '2'
_symmetry_cell_setting 'orthorhombic'
loop_
_space_group_symop_operation_xyz
x,y,z
-x,1/2-y,z
x,1/2-y,1/2-z
-x,y,1/2-z
-x,-y,-z
x,1/2+y,-z
-x,1/2+y,1/2+z
x,-y,1/2+z
1/2+x,1/2+y,z
1/2-x,-y,z
1/2+x,-y,1/2-z
1/2-x,1/2+y,1/2-z
1/2-x,1/2-y,-z
1/2+x,y,-z
1/2-x,y,1/2+z
1/2+x,1/2-y,1/2+z
loop_
_atom_site_type_symbol
_atom_site_label
_atom_site_fract_x
_atom_site_fract_y
_atom_site_fract_z
Si Si1 0.511892 0.392222 0.613837
Si Si2 0.856743 0.050014 0.778330
Si Si3 0.111159 0.221544 0.860219
Si Si4 0.646464 0.457453 0.474482
O O1 0.500000 0.250000 0.626374
O O2 0.568111 0.455748 0.683706
O O3 0.579630 0.421148 0.543065
O O4 0.410202 0.453264 0.583759
O O5 0.840303 0.154711 0.838210
O O6 0.895813 0.128641 0.708718
O O7 0.750000 0.000000 0.757709
O O8 0.166980 0.159422 0.925845
O O9 0.000000 0.250000 0.884057
O O10 0.750000 0.500000 0.502763
#
# Coordination Sequence:
#
# PCOD9510388 Si02
#       4
#    16  16  16  16
#     4  11  26  44  66 104 144 180 226 294 341 407
#     4  11  24  43  68 104 136 179 231 282 345 411
#     4  11  23  47  74  95 137 187 232 282 340 417
#     4  11  25  44  72 102 138 186 234 277 351 412
#
# _framework density 23.402847000000001
#
# number of rings (size 3 to 8) (size 9 to 14) (size 15 to 20)
#    0.000    1.000    2.500    3.750    7.000    1.000 
#    0.000    1.250    0.000    0.000    0.000    0.000 
#    0.000    0.000    0.000    0.000    0.000    0.000 
#
# Total GULP energy -178923.125218 kJ/mol
# GULP energy per Si atom -5591.347663 kJ/mol
# Density = 2.334958 g / cm^3
# Si number density = 23.402847 Si / 1000 Ang^3
#
#
#
# Elastic Constant Matrix: (Units=GPa)
#
#
# Indices 1 2 3 4 5 6 
#
# 1 84.6845 44.4538 7.3639 0.0000 0.0000 0.0000
# 2 44.4538 145.6864 39.0719 0.0000 0.0000 0.0000
# 3 7.3639 39.0719 62.8872 0.0000 0.0000 0.0000
# 4 0.0000 0.0000 0.0000 20.0602 0.0000 0.0000
# 5 0.0000 0.0000 0.0000 0.0000 12.5871 0.0000
# 6 0.0000 0.0000 0.0000 0.0000 0.0000 22.0274
#
#
#
# Elastic Compliance Matrix: (Units=1/GPa)
#
#
# Indices 1 2 3 4 5 6 
#
# 1 0.014140 -0.004644 0.001230 0.000000 0.000000 0.000000
# 2 -0.004644 0.009762 -0.005521 0.000000 0.000000 0.000000
# 3 0.001230 -0.005521 0.019188 0.000000 0.000000 0.000000
# 4 0.000000 0.000000 0.000000 0.049850 0.000000 0.000000
# 5 0.000000 0.000000 0.000000 0.000000 0.079446 0.000000
# 6 0.000000 0.000000 0.000000 0.000000 0.000000 0.045398
#
#
# Mechanical properties :
#
#
# Convention : Reuss Voigt Hill
#
# Bulk Modulus (GPa) = 39.65452 52.78195 46.21824
# Shear Modulus (GPa) = 20.48668 24.42617 22.45642
#
# Velocity S-wave (km/s) = 2.96191 3.23418 3.10104
# Velocity P-wave (km/s) = 5.35522 6.04559 5.71085
#
# Compressibility (1/GPa) = 0.02521781
#
# Stress axis : x y z
#
# Youngs Moduli (GPa) = 70.72372 102.43863 52.11631
#
# Poissons Ratio (x) = 0.47575 -0.06409
# Poissons Ratio (y) = 0.32846 0.28775
# Poissons Ratio (z) = -0.08698 0.56559
#
# Static dielectric constant tensor:
#      x y z
#    x 1.761610 0.000000 0.000000 
#    y 0.000000 1.901080 0.000000 
#    z 0.000000 0.000000 1.900610 
# 
# From -- ./inp_files/30453.got.cif
#   From: 2010.05.17/outbox.cif.g08.bks.cpg/sg68_16_cif.got.tgz:30453.got - 2010.06.03 18:57:09.
