data_PCOD9510984
_publ_section_title
;
Structure prediction by ZEFSAII (Michael W. Deem and Ramdas Pophale) SiO2 
 PCOD9510984
Probable space group: F M M M
;
_chemical_formula_sum "Si O2"
_cell_formula_units_Z 128
_cell_length_a 14.872609
_cell_length_b 19.411736
_cell_length_c 22.114534
_cell_angle_alpha 90.000000
_cell_angle_beta 90.000000
_cell_angle_gamma 90.000000
_cell_volume 6384.535838
_symmetry_space_group_name_H-M "F M M M"
_symmetry_group_IT_number 69
_symmetry_cell_setting 'orthorhombic'
loop_
_space_group_symop_operation_xyz
x,y,z
-x,-y,z
x,-y,-z
-x,y,-z
-x,-y,-z
x,y,-z
-x,y,z
x,-y,z
x,1/2+y,1/2+z
-x,1/2-y,1/2+z
x,1/2-y,1/2-z
-x,1/2+y,1/2-z
-x,1/2-y,1/2-z
x,1/2+y,1/2-z
-x,1/2+y,1/2+z
x,1/2-y,1/2+z
1/2+x,y,1/2+z
1/2-x,-y,1/2+z
1/2+x,-y,1/2-z
1/2-x,y,1/2-z
1/2-x,-y,1/2-z
1/2+x,y,1/2-z
1/2-x,y,1/2+z
1/2+x,-y,1/2+z
1/2+x,1/2+y,z
1/2-x,1/2-y,z
1/2+x,1/2-y,-z
1/2-x,1/2+y,-z
1/2-x,1/2-y,-z
1/2+x,1/2+y,-z
1/2-x,1/2+y,z
1/2+x,1/2-y,z
loop_
_atom_site_type_symbol
_atom_site_label
_atom_site_fract_x
_atom_site_fract_y
_atom_site_fract_z
Si Si1 0.103490 0.921312 0.877128
Si Si2 0.644986 0.778248 0.813319
Si Si3 0.856273 0.076595 0.738241
Si Si4 0.847397 0.214378 0.933395
O O1 0.105192 0.907492 0.804979
O O2 0.159721 0.865224 0.913346
O O3 0.000000 0.916294 0.897522
O O4 0.134680 0.000000 0.885036
O O5 0.607529 0.750000 0.750000
O O6 0.750000 0.750000 0.813284
O O7 0.633257 0.860241 0.807463
O O8 0.605961 0.749710 0.875622
O O9 0.750000 0.073240 0.750000
O O10 0.887283 0.000000 0.719592
O O11 0.750000 0.250000 0.937277
O O12 0.888928 0.219625 0.000000
#
# Coordination Sequence:
#
# PCOD9510984 Si02
#       4
#    32  32  32  32
#     4  10  21  36  55  83 117 149 184 228 287 354
#     4  10  15  28  49  72  99 131 173 230 275 318
#     4  10  17  28  50  77 104 141 187 230 273 326
#     4  10  20  34  53  76 107 148 192 235 276 329
#
# _framework density 20.048442000000001
#
# number of rings (size 3 to 8) (size 9 to 14) (size 15 to 20)
#    0.000    2.000    5.000    1.500    0.000    1.000 
#    0.000    3.750    0.000    2.250    0.000    0.000 
#    0.000    1.000    0.000   19.500    0.000    0.000 
#
# Total GULP energy -178326.761420 kJ/mol
# GULP energy per Si atom -5572.711294 kJ/mol
# Density = 2.000281 g / cm^3
# Si number density = 20.048442 Si / 1000 Ang^3
#
#
#
# Elastic Constant Matrix: (Units=GPa)
#
#
# Indices 1 2 3 4 5 6 
#
# 1 59.3178 14.6393 5.6706 0.0000 0.0000 0.0000
# 2 14.6393 178.8385 79.0260 0.0000 0.0000 0.0000
# 3 5.6706 79.0260 164.2871 0.0000 0.0000 0.0000
# 4 0.0000 0.0000 0.0000 11.8899 0.0000 0.0000
# 5 0.0000 0.0000 0.0000 0.0000 -19.0647 0.0000
# 6 0.0000 0.0000 0.0000 0.0000 0.0000 -2.0905
#
#
#
# Elastic Compliance Matrix: (Units=1/GPa)
#
#
# Indices 1 2 3 4 5 6 
#
# 1 0.017207 -0.001455 0.000106 0.000000 0.000000 0.000000
# 2 -0.001455 0.007224 -0.003425 0.000000 0.000000 0.000000
# 3 0.000106 -0.003425 0.007731 0.000000 0.000000 0.000000
# 4 0.000000 0.000000 0.000000 0.084105 0.000000 0.000000
# 5 0.000000 0.000000 0.000000 0.000000 -0.052453 0.000000
# 6 0.000000 0.000000 0.000000 0.000000 0.000000 -0.478349
#
#
# Mechanical properties :
#
#
# Convention : Reuss Voigt Hill
#
# Bulk Modulus (GPa) = 44.22025 66.79058 55.50541
# Shear Modulus (GPa) = -12.58022 18.35411 2.88694
#
# Velocity S-wave (km/s) = -2.50770 3.02899 1.20129
# Velocity P-wave (km/s) = 3.70403 6.75425 5.44701
#
# Compressibility (1/GPa) = 0.02261408
#
# Stress axis : x y z
#
# Youngs Moduli (GPa) = 58.11453 138.42521 129.35573
#
# Poissons Ratio (x) = 0.20147 -0.01373
# Poissons Ratio (y) = 0.08458 0.44301
# Poissons Ratio (z) = -0.00617 0.47407
#
# Static dielectric constant tensor:
#      x y z
#    x 1.746390 0.000000 0.000000 
#    y 0.000000 1.767020 0.000000 
#    z 0.000000 0.000000 1.737240 
# 
# From -- ./inp_files/36525.got.cif
#   From: 2010.05.17/outbox.cif.g08.bks.cpg/sg69_19_cif.got.tgz:36525.got - 2010.06.03 19:29:58.
