data_PCOD9510894
_publ_section_title
;
Structure prediction by ZEFSAII (Michael W. Deem and Ramdas Pophale) SiO2 
 PCOD9510894
Probable space group: C C C A
;
_chemical_formula_sum "Si O2"
_cell_formula_units_Z 32
_cell_length_a 13.197433
_cell_length_b 8.918775
_cell_length_c 9.791878
_cell_angle_alpha 90.000000
_cell_angle_beta 90.000000
_cell_angle_gamma 90.000000
_cell_volume 1152.552368
_symmetry_space_group_name_H-M "C C C A"
_symmetry_group_IT_number 68
_space_group.IT_coordinate_system_code '2'
_symmetry_cell_setting 'orthorhombic'
loop_
_space_group_symop_operation_xyz
x,y,z
-x,1/2-y,z
x,1/2-y,1/2-z
-x,y,1/2-z
-x,-y,-z
x,1/2+y,-z
-x,1/2+y,1/2+z
x,-y,1/2+z
1/2+x,1/2+y,z
1/2-x,-y,z
1/2+x,-y,1/2-z
1/2-x,1/2+y,1/2-z
1/2-x,1/2-y,-z
1/2+x,y,-z
1/2-x,y,1/2+z
1/2+x,1/2-y,1/2+z
loop_
_atom_site_type_symbol
_atom_site_label
_atom_site_fract_x
_atom_site_fract_y
_atom_site_fract_z
Si Si1 0.073249 0.486931 0.627652
Si Si2 0.750000 0.000000 0.447071
Si Si3 0.207324 0.750000 0.750000
O O1 0.170092 0.419767 0.547490
O O2 0.126837 0.641416 0.673594
O O3 0.000000 0.432420 0.750000
O O4 0.000000 0.500000 0.500000
O O5 0.726021 0.134626 0.340920
#
# Coordination Sequence:
#
# PCOD9510894 Si02
#       3
#    16   8   8
#     4  12  27  50  82 122 170 223 284 356 427 513
#     4  12  28  54  88 128 174 226 292 360 438 520
#     4  12  27  56  84 129 174 220 289 360 439 516
#
# _framework density 27.764465999999999
#
# number of rings (size 3 to 8) (size 9 to 14) (size 15 to 20)
#    0.000    0.000    5.000    3.750    0.000    0.000 
#    0.000    2.500    0.000    0.000    0.000    0.000 
#    0.000    0.000    0.000    0.000    0.000    0.000 
#
# Total GULP energy -89187.342430 kJ/mol
# GULP energy per Si atom -5574.208902 kJ/mol
# Density = 2.770127 g / cm^3
# Si number density = 27.764466 Si / 1000 Ang^3
#
#
#
# Elastic Constant Matrix: (Units=GPa)
#
#
# Indices 1 2 3 4 5 6 
#
# 1 167.5503 8.2227 54.2184 0.0000 0.0000 0.0000
# 2 8.2227 168.3225 35.6980 0.0000 0.0000 0.0000
# 3 54.2184 35.6980 219.9074 0.0000 0.0000 0.0000
# 4 0.0000 0.0000 0.0000 56.8824 0.0000 0.0000
# 5 0.0000 0.0000 0.0000 0.0000 41.6743 0.0000
# 6 0.0000 0.0000 0.0000 0.0000 0.0000 34.3589
#
#
#
# Elastic Compliance Matrix: (Units=1/GPa)
#
#
# Indices 1 2 3 4 5 6 
#
# 1 0.006486 0.000023 -0.001603 0.000000 0.000000 0.000000
# 2 0.000023 0.006153 -0.001005 0.000000 0.000000 0.000000
# 3 -0.001603 -0.001005 0.005106 0.000000 0.000000 0.000000
# 4 0.000000 0.000000 0.000000 0.017580 0.000000 0.000000
# 5 0.000000 0.000000 0.000000 0.000000 0.023996 0.000000
# 6 0.000000 0.000000 0.000000 0.000000 0.000000 0.029105
#
#
# Mechanical properties :
#
#
# Convention : Reuss Voigt Hill
#
# Bulk Modulus (GPa) = 79.51737 83.56206 81.53971
# Shear Modulus (GPa) = 51.13249 57.09252 54.11250
#
# Velocity S-wave (km/s) = 4.29610 4.53958 4.41952
# Velocity P-wave (km/s) = 7.30143 7.59205 7.44815
#
# Compressibility (1/GPa) = 0.01257587
#
# Stress axis : x y z
#
# Youngs Moduli (GPa) = 154.18060 162.52542 195.86273
#
# Poissons Ratio (x) = -0.00375 0.31394
# Poissons Ratio (y) = -0.00356 0.19674
# Poissons Ratio (z) = 0.24713 0.16326
#
# Static dielectric constant tensor:
#      x y z
#    x 4.187200 0.000000 0.000000 
#    y 0.000000 2.099530 0.000000 
#    z 0.000000 0.000000 2.341280 
# 
# From -- ./inp_files/3434.got.cif
#   From: 2010.05.17/outbox.cif.g08.bks.cpg/sg68_2_cif.got.tgz:3434.got - 2010.06.03 18:57:09.
