data_PCOD9510773
_publ_section_title
;
Structure prediction by ZEFSAII (Michael W. Deem and Ramdas Pophale) SiO2 
 PCOD9510773
Probable space group: C C C A
;
_chemical_formula_sum "Si O2"
_cell_formula_units_Z 56
_cell_length_a 8.097297
_cell_length_b 17.800403
_cell_length_c 13.963586
_cell_angle_alpha 90.000000
_cell_angle_beta 90.000000
_cell_angle_gamma 90.000000
_cell_volume 2012.643560
_symmetry_space_group_name_H-M "C C C A"
_symmetry_group_IT_number 68
_space_group.IT_coordinate_system_code '2'
_symmetry_cell_setting 'orthorhombic'
loop_
_space_group_symop_operation_xyz
x,y,z
-x,1/2-y,z
x,1/2-y,1/2-z
-x,y,1/2-z
-x,-y,-z
x,1/2+y,-z
-x,1/2+y,1/2+z
x,-y,1/2+z
1/2+x,1/2+y,z
1/2-x,-y,z
1/2+x,-y,1/2-z
1/2-x,1/2+y,1/2-z
1/2-x,1/2-y,-z
1/2+x,y,-z
1/2-x,y,1/2+z
1/2+x,1/2-y,1/2+z
loop_
_atom_site_type_symbol
_atom_site_label
_atom_site_fract_x
_atom_site_fract_y
_atom_site_fract_z
Si Si1 0.750000 0.000000 0.882312
Si Si2 0.780595 0.671912 0.359338
Si Si3 0.426905 0.963316 0.400521
Si Si4 0.832204 0.840475 0.370110
O O1 0.745044 0.913395 0.920853
O O2 0.925429 0.991589 0.833342
O O3 0.624002 0.623350 0.392906
O O4 0.760199 0.758390 0.390508
O O5 0.795992 0.657046 0.244565
O O6 0.971073 0.655962 0.389658
O O7 0.500000 0.000000 0.500000
O O8 0.250000 0.000000 0.382402
#
# Coordination Sequence:
#
# PCOD9510773 Si02
#       4
#     8  16  16  16
#     4  12  24  38  70 102 132 176 238 284 356 418
#     4   9  20  41  68 100 145 172 229 294 367 427
#     4  12  25  44  67  95 141 190 237 288 335 424
#     4   9  20  39  69 107 134 177 220 303 374 420
#
# _framework density 27.824102
#
# number of rings (size 3 to 8) (size 9 to 14) (size 15 to 20)
#    0.000    1.714    4.286    1.714    2.000    2.286 
#    0.000    4.286    6.286    0.000    0.000    0.000 
#    0.000    0.000    0.000    0.000    0.000    0.000 
#
# Total GULP energy -156109.609000 kJ/mol
# GULP energy per Si atom -5575.343179 kJ/mol
# Density = 2.776077 g / cm^3
# Si number density = 27.824102 Si / 1000 Ang^3
#
#
#
# Elastic Constant Matrix: (Units=GPa)
#
#
# Indices 1 2 3 4 5 6 
#
# 1 225.0627 106.0660 43.7844 0.0000 0.0000 0.0000
# 2 106.0660 281.5137 18.0118 0.0000 0.0000 0.0000
# 3 43.7844 18.0118 113.8262 0.0000 0.0000 0.0000
# 4 0.0000 0.0000 0.0000 23.4611 0.0000 0.0000
# 5 0.0000 0.0000 0.0000 0.0000 33.0899 0.0000
# 6 0.0000 0.0000 0.0000 0.0000 0.0000 75.5037
#
#
#
# Elastic Compliance Matrix: (Units=1/GPa)
#
#
# Indices 1 2 3 4 5 6 
#
# 1 0.005782 -0.002057 -0.001899 0.000000 0.000000 0.000000
# 2 -0.002057 0.004320 0.000108 0.000000 0.000000 0.000000
# 3 -0.001899 0.000108 0.009499 0.000000 0.000000 0.000000
# 4 0.000000 0.000000 0.000000 0.042624 0.000000 0.000000
# 5 0.000000 0.000000 0.000000 0.000000 0.030221 0.000000
# 6 0.000000 0.000000 0.000000 0.000000 0.000000 0.013244
#
#
# Mechanical properties :
#
#
# Convention : Reuss Voigt Hill
#
# Bulk Modulus (GPa) = 83.99871 106.23632 95.11752
# Shear Modulus (GPa) = 42.60610 56.58030 49.59320
#
# Velocity S-wave (km/s) = 3.91738 4.51433 4.22641
# Velocity P-wave (km/s) = 7.12151 8.08928 7.62077
#
# Compressibility (1/GPa) = 0.01190494
#
# Stress axis : x y z
#
# Youngs Moduli (GPa) = 172.95127 231.46228 105.27850
#
# Poissons Ratio (x) = 0.47612 0.19988
# Poissons Ratio (y) = 0.35576 -0.01133
# Poissons Ratio (z) = 0.32836 -0.02490
#
# Static dielectric constant tensor:
#      x y z
#    x 2.640380 0.000000 0.000000 
#    y 0.000000 2.240630 0.000000 
#    z 0.000000 0.000000 2.473670 
# 
# From -- ./inp_files/27611.got.cif
#   From: 2010.05.17/outbox.cif.g08.bks.cpg/sg68_14_cif.got.tgz:27611.got - 2010.06.03 18:57:09.
