data_PCOD9510735
_publ_section_title
;
Structure prediction by ZEFSAII (Michael W. Deem and Ramdas Pophale) SiO2 
 PCOD9510735
Probable space group: C C C A
;
_chemical_formula_sum "Si O2"
_cell_formula_units_Z 72
_cell_length_a 26.097650
_cell_length_b 5.616043
_cell_length_c 22.085316
_cell_angle_alpha 90.000000
_cell_angle_beta 90.000000
_cell_angle_gamma 90.000000
_cell_volume 3236.945925
_symmetry_space_group_name_H-M "C C C A"
_symmetry_group_IT_number 68
_space_group.IT_coordinate_system_code '2'
_symmetry_cell_setting 'orthorhombic'
loop_
_space_group_symop_operation_xyz
x,y,z
-x,1/2-y,z
x,1/2-y,1/2-z
-x,y,1/2-z
-x,-y,-z
x,1/2+y,-z
-x,1/2+y,1/2+z
x,-y,1/2+z
1/2+x,1/2+y,z
1/2-x,-y,z
1/2+x,-y,1/2-z
1/2-x,1/2+y,1/2-z
1/2-x,1/2-y,-z
1/2+x,y,-z
1/2-x,y,1/2+z
1/2+x,1/2-y,1/2+z
loop_
_atom_site_type_symbol
_atom_site_label
_atom_site_fract_x
_atom_site_fract_y
_atom_site_fract_z
Si Si1 0.412891 0.750000 0.250000
Si Si2 0.957758 0.423326 0.847000
Si Si3 0.719510 0.750000 0.750000
Si Si4 0.000000 0.250000 0.051429
Si Si5 0.638663 0.094336 0.342507
Si Si6 0.383360 0.869247 0.030332
O O1 0.446148 0.630970 0.198807
O O2 0.379579 0.555265 0.284246
O O3 0.905378 0.284298 0.858279
O O4 0.000000 0.250000 0.820289
O O5 0.981179 0.533780 0.906720
O O6 0.750000 0.500000 0.753792
O O7 0.687568 0.724663 0.686535
O O8 0.945997 0.350959 0.025827
O O9 0.637245 0.921970 0.401328
O O10 0.366769 0.607400 0.006613
#
# Coordination Sequence:
#
# PCOD9510735 Si02
#       6
#     8  16   8   8  16  16
#     4  12  23  41  65  96 150 195 246 305 365 438
#     4  12  23  39  62 103 150 204 235 297 359 425
#     4  12  29  52  84 112 141 177 228 325 406 468
#     4  12  24  39  62  96 150 211 264 286 334 412
#     4  12  26  45  73 106 144 188 245 300 380 449
#     4  12  27  45  69  99 151 207 254 299 335 415
#
# _framework density 22.243189999999998
#
# number of rings (size 3 to 8) (size 9 to 14) (size 15 to 20)
#    0.000    0.000    6.667    2.667    0.000    6.667 
#    0.000    0.000    0.000    4.000    0.000    0.000 
#    0.000    0.000    0.000    0.000    0.000    0.000 
#
# Total GULP energy -201231.389433 kJ/mol
# GULP energy per Si atom -5589.760818 kJ/mol
# Density = 2.219256 g / cm^3
# Si number density = 22.243190 Si / 1000 Ang^3
#
#
#
# Elastic Constant Matrix: (Units=GPa)
#
#
# Indices 1 2 3 4 5 6 
#
# 1 64.3945 33.8875 3.3590 0.0000 0.0000 0.0000
# 2 33.8875 123.1491 2.0299 0.0000 0.0000 0.0000
# 3 3.3590 2.0299 49.8132 0.0000 0.0000 0.0000
# 4 0.0000 0.0000 0.0000 -12.4770 0.0000 0.0000
# 5 0.0000 0.0000 0.0000 0.0000 141.5431 0.0000
# 6 0.0000 0.0000 0.0000 0.0000 0.0000 22.1777
#
#
#
# Elastic Compliance Matrix: (Units=1/GPa)
#
#
# Indices 1 2 3 4 5 6 
#
# 1 0.018211 -0.004994 -0.001024 0.000000 0.000000 0.000000
# 2 -0.004994 0.009495 -0.000050 0.000000 0.000000 0.000000
# 3 -0.001024 -0.000050 0.020146 0.000000 0.000000 0.000000
# 4 0.000000 0.000000 0.000000 -0.080148 0.000000 0.000000
# 5 0.000000 0.000000 0.000000 0.000000 0.007065 0.000000
# 6 0.000000 0.000000 0.000000 0.000000 0.000000 0.045090
#
#
# Mechanical properties :
#
#
# Convention : Reuss Voigt Hill
#
# Bulk Modulus (GPa) = 27.99978 35.10106 31.55042
# Shear Modulus (GPa) = 113.88806 43.45412 78.67109
#
# Velocity S-wave (km/s) = 7.16327 4.42474 5.95360
# Velocity P-wave (km/s) = 9.00178 6.47451 7.84064
#
# Compressibility (1/GPa) = 0.03571457
#
# Stress axis : x y z
#
# Youngs Moduli (GPa) = 54.91197 105.31441 49.63735
#
# Poissons Ratio (x) = 0.52597 0.05085
# Poissons Ratio (y) = 0.27425 0.00249
# Poissons Ratio (z) = 0.05626 0.00528
#
# Static dielectric constant tensor:
#      x y z
#    x 1.868450 0.000000 0.000000 
#    y 0.000000 1.827490 0.000000 
#    z 0.000000 0.000000 1.836630 
# 
# From -- ./inp_files/42266.got.cif
#   From: 2010.05.17/outbox.cif.g08.bks.cpg/sg68_22_cif.got.tgz:42266.got - 2010.06.03 18:57:09.
