data_PCOD9510279
_publ_section_title
;
Structure prediction by ZEFSAII (Michael W. Deem and Ramdas Pophale) SiO2 
 PCOD9510279
Probable space group: C C C A
;
_chemical_formula_sum "Si O2"
_cell_formula_units_Z 64
_cell_length_a 5.006356
_cell_length_b 30.750151
_cell_length_c 17.840384
_cell_angle_alpha 90.000000
_cell_angle_beta 90.000000
_cell_angle_gamma 90.000000
_cell_volume 2746.459376
_symmetry_space_group_name_H-M "C C C A"
_symmetry_group_IT_number 68
_space_group.IT_coordinate_system_code '2'
_symmetry_cell_setting 'orthorhombic'
loop_
_space_group_symop_operation_xyz
x,y,z
-x,1/2-y,z
x,1/2-y,1/2-z
-x,y,1/2-z
-x,-y,-z
x,1/2+y,-z
-x,1/2+y,1/2+z
x,-y,1/2+z
1/2+x,1/2+y,z
1/2-x,-y,z
1/2+x,-y,1/2-z
1/2-x,1/2+y,1/2-z
1/2-x,1/2-y,-z
1/2+x,y,-z
1/2-x,y,1/2+z
1/2+x,1/2-y,1/2+z
loop_
_atom_site_type_symbol
_atom_site_label
_atom_site_fract_x
_atom_site_fract_y
_atom_site_fract_z
Si Si1 0.000000 0.470160 0.250000
Si Si2 0.244667 0.279848 0.391374
Si Si3 0.679538 0.400510 0.322673
Si Si4 0.808318 0.374480 0.543404
Si Si5 0.500000 0.676275 0.250000
O O1 0.250000 0.500000 0.272353
O O2 0.103417 0.438904 0.182851
O O3 0.500000 0.250000 0.389242
O O4 0.302254 0.323043 0.439003
O O5 0.000000 0.250000 0.419086
O O6 0.174094 0.295880 0.307224
O O7 0.500000 0.408594 0.250000
O O8 0.469515 0.396612 0.389426
O O9 0.827534 0.355020 0.304470
O O10 0.499782 0.384967 0.527492
#
# Coordination Sequence:
#
# PCOD9510279 Si02
#       5
#     8  16  16  16   8
#     4  11  24  42  75 118 143 162 211 286 347 402
#     4  12  26  41  63  93 135 184 238 305 363 403
#     4  11  23  44  77 102 133 181 232 278 331 418
#     4  12  27  45  66  97 139 187 237 287 343 408
#     4  11  23  40  67 100 132 172 244 300 345 402
#
# _framework density 23.302731000000001
#
# number of rings (size 3 to 8) (size 9 to 14) (size 15 to 20)
#    0.000    0.500    3.750    4.875    3.500    6.000 
#    0.000    0.000    0.000    4.500    0.000    0.000 
#    0.000    0.000    0.000    0.000    0.000    0.000 
#
# Total GULP energy -179234.016516 kJ/mol
# GULP energy per Si atom -5601.063016 kJ/mol
# Density = 2.324969 g / cm^3
# Si number density = 23.302731 Si / 1000 Ang^3
#
#
#
# Elastic Constant Matrix: (Units=GPa)
#
#
# Indices 1 2 3 4 5 6 
#
# 1 166.8242 50.9624 24.1054 0.0000 0.0000 0.0000
# 2 50.9624 90.6957 18.0221 0.0000 0.0000 0.0000
# 3 24.1054 18.0221 82.6074 0.0000 0.0000 0.0000
# 4 0.0000 0.0000 0.0000 18.0486 0.0000 0.0000
# 5 0.0000 0.0000 0.0000 0.0000 -16.2577 0.0000
# 6 0.0000 0.0000 0.0000 0.0000 0.0000 42.0446
#
#
#
# Elastic Compliance Matrix: (Units=1/GPa)
#
#
# Indices 1 2 3 4 5 6 
#
# 1 0.007368 -0.003881 -0.001303 0.000000 0.000000 0.000000
# 2 -0.003881 0.013570 -0.001828 0.000000 0.000000 0.000000
# 3 -0.001303 -0.001828 0.012885 0.000000 0.000000 0.000000
# 4 0.000000 0.000000 0.000000 0.055406 0.000000 0.000000
# 5 0.000000 0.000000 0.000000 0.000000 -0.061509 0.000000
# 6 0.000000 0.000000 0.000000 0.000000 0.000000 0.023784
#
#
# Mechanical properties :
#
#
# Convention : Reuss Voigt Hill
#
# Bulk Modulus (GPa) = 50.51076 58.47854 54.49465
# Shear Modulus (GPa) = 69.32089 25.23626 47.27857
#
# Velocity S-wave (km/s) = 5.46009 3.29443 4.50920
# Velocity P-wave (km/s) = 7.84047 6.29449 7.10963
#
# Compressibility (1/GPa) = 0.01979776
#
# Stress axis : x y z
#
# Youngs Moduli (GPa) = 135.71549 73.69170 77.61221
#
# Poissons Ratio (x) = 0.28602 0.10116
# Poissons Ratio (y) = 0.52676 0.14187
# Poissons Ratio (z) = 0.17689 0.13470
#
# Static dielectric constant tensor:
#      x y z
#    x 1.884500 0.000000 0.000000 
#    y 0.000000 1.857680 0.000000 
#    z 0.000000 0.000000 1.931640 
# 
# From -- ./inp_files/27144.got.cif
#   From: 2010.05.17/outbox.cif.g08.bks.cpg/sg68_14_cif.got.tgz:27144.got - 2010.06.03 18:57:09.
