data_PCOD9510528
_publ_section_title
;
Structure prediction by ZEFSAII (Michael W. Deem and Ramdas Pophale) SiO2 
 PCOD9510528
Probable space group: C C C A
;
_chemical_formula_sum "Si O2"
_cell_formula_units_Z 76
_cell_length_a 12.899873
_cell_length_b 10.093664
_cell_length_c 23.747774
_cell_angle_alpha 90.000000
_cell_angle_beta 90.000000
_cell_angle_gamma 90.000000
_cell_volume 3092.126022
_symmetry_space_group_name_H-M "C C C A"
_symmetry_group_IT_number 68
_space_group.IT_coordinate_system_code '2'
_symmetry_cell_setting 'orthorhombic'
loop_
_space_group_symop_operation_xyz
x,y,z
-x,1/2-y,z
x,1/2-y,1/2-z
-x,y,1/2-z
-x,-y,-z
x,1/2+y,-z
-x,1/2+y,1/2+z
x,-y,1/2+z
1/2+x,1/2+y,z
1/2-x,-y,z
1/2+x,-y,1/2-z
1/2-x,1/2+y,1/2-z
1/2-x,1/2-y,-z
1/2+x,y,-z
1/2-x,y,1/2+z
1/2+x,1/2-y,1/2+z
loop_
_atom_site_type_symbol
_atom_site_label
_atom_site_fract_x
_atom_site_fract_y
_atom_site_fract_z
Si Si1 0.250000 0.500000 0.765594
Si Si2 0.598013 0.974492 0.677197
Si Si3 0.120119 0.449729 0.867411
Si Si4 0.000000 0.250000 0.750000
Si Si5 0.114395 0.808346 0.552367
Si Si6 0.669428 0.819945 0.572672
O O1 0.333206 0.441230 0.720926
O O2 0.189389 0.415262 0.812612
O O3 0.483384 0.014442 0.659525
O O4 0.571542 0.841765 0.711874
O O5 0.651261 0.929193 0.619925
O O6 0.149015 0.567917 0.909422
O O7 0.116501 0.315741 0.903580
O O8 0.208570 0.705332 0.561709
O O9 0.118056 0.851874 0.487132
O O10 0.000000 0.750000 0.564760
#
# Coordination Sequence:
#
# PCOD9510528 Si02
#       6
#     8  16  16   4  16  16
#     4  12  24  42  66 102 136 178 224 282 334 400
#     4  12  24  41  71  99 131 180 233 272 331 411
#     4  12  23  48  69  96 142 181 222 284 343 398
#     4  12  20  40  68  96 124 176 240 260 310 424
#     4  11  26  44  69 104 136 172 223 285 347 392
#     4  11  24  47  71  98 134 184 225 273 338 416
#
# _framework density 24.578558000000001
#
# number of rings (size 3 to 8) (size 9 to 14) (size 15 to 20)
#    0.000    0.421    6.316    1.263    2.947    3.368 
#    3.789    0.000    0.000    0.000    0.000    0.000 
#    0.000    0.000    0.000    0.000    0.000    0.000 
#
# Total GULP energy -212173.319575 kJ/mol
# GULP energy per Si atom -5583.508410 kJ/mol
# Density = 2.452262 g / cm^3
# Si number density = 24.578558 Si / 1000 Ang^3
#
#
#
# Elastic Constant Matrix: (Units=GPa)
#
#
# Indices 1 2 3 4 5 6 
#
# 1 118.0562 12.0816 38.5811 0.0000 0.0000 0.0000
# 2 12.0816 44.7751 36.7688 0.0000 0.0000 0.0000
# 3 38.5811 36.7688 193.5567 0.0000 0.0000 0.0000
# 4 0.0000 0.0000 0.0000 140.8119 0.0000 0.0000
# 5 0.0000 0.0000 0.0000 0.0000 48.2093 0.0000
# 6 0.0000 0.0000 0.0000 0.0000 0.0000 24.6922
#
#
#
# Elastic Compliance Matrix: (Units=1/GPa)
#
#
# Indices 1 2 3 4 5 6 
#
# 1 0.009110 -0.001146 -0.001598 0.000000 0.000000 0.000000
# 2 -0.001146 0.026606 -0.004826 0.000000 0.000000 0.000000
# 3 -0.001598 -0.004826 0.006402 0.000000 0.000000 0.000000
# 4 0.000000 0.000000 0.000000 0.007102 0.000000 0.000000
# 5 0.000000 0.000000 0.000000 0.000000 0.020743 0.000000
# 6 0.000000 0.000000 0.000000 0.000000 0.000000 0.040499
#
#
# Mechanical properties :
#
#
# Convention : Reuss Voigt Hill
#
# Bulk Modulus (GPa) = 37.06691 59.02790 48.04740
# Shear Modulus (GPa) = 37.14899 60.67311 48.91105
#
# Velocity S-wave (km/s) = 3.89194 4.97383 4.46577
# Velocity P-wave (km/s) = 5.94222 7.55337 6.79571
#
# Compressibility (1/GPa) = 0.02697824
#
# Stress axis : x y z
#
# Youngs Moduli (GPa) = 109.76828 37.58566 156.20741
#
# Poissons Ratio (x) = 0.04306 0.24966
# Poissons Ratio (y) = 0.12576 0.75382
# Poissons Ratio (z) = 0.17544 0.18138
#
# Static dielectric constant tensor:
#      x y z
#    x 2.814580 0.000000 0.000000 
#    y 0.000000 1.941160 0.000000 
#    z 0.000000 0.000000 1.899330 
# 
# From -- ./inp_files/38431.got.cif
#   From: 2010.05.17/outbox.cif.g08.bks.cpg/sg68_20_cif.got.tgz:38431.got - 2010.06.03 18:57:09.
