data_PCOD9510489
_publ_section_title
;
Structure prediction by ZEFSAII (Michael W. Deem and Ramdas Pophale) SiO2 
 PCOD9510489
Probable space group: C C C A
;
_chemical_formula_sum "Si O2"
_cell_formula_units_Z 68
_cell_length_a 14.963706
_cell_length_b 21.963142
_cell_length_c 9.650463
_cell_angle_alpha 90.000000
_cell_angle_beta 90.000000
_cell_angle_gamma 90.000000
_cell_volume 3171.624662
_symmetry_space_group_name_H-M "C C C A"
_symmetry_group_IT_number 68
_space_group.IT_coordinate_system_code '2'
_symmetry_cell_setting 'orthorhombic'
loop_
_space_group_symop_operation_xyz
x,y,z
-x,1/2-y,z
x,1/2-y,1/2-z
-x,y,1/2-z
-x,-y,-z
x,1/2+y,-z
-x,1/2+y,1/2+z
x,-y,1/2+z
1/2+x,1/2+y,z
1/2-x,-y,z
1/2+x,-y,1/2-z
1/2-x,1/2+y,1/2-z
1/2-x,1/2-y,-z
1/2+x,y,-z
1/2-x,y,1/2+z
1/2+x,1/2-y,1/2+z
loop_
_atom_site_type_symbol
_atom_site_label
_atom_site_fract_x
_atom_site_fract_y
_atom_site_fract_z
Si Si1 0.862526 0.657335 0.123682
Si Si2 0.892560 0.068724 0.262029
Si Si3 0.101521 0.523097 0.477098
Si Si4 0.500000 0.250000 0.250000
Si Si5 0.703889 0.183698 0.684061
O O1 0.896693 0.588315 0.100378
O O2 0.798959 0.660513 0.258124
O O3 0.940122 0.705730 0.154785
O O4 0.811330 0.677886 0.981550
O O5 0.866304 0.138320 0.255139
O O6 0.000000 0.064718 0.250000
O O7 0.856200 0.031569 0.391282
O O8 0.856046 0.036242 0.124778
O O9 0.000000 0.500000 0.500000
O O10 0.692810 0.250000 0.750000
#
# Coordination Sequence:
#
# PCOD9510489 Si02
#       5
#    16  16  16   4  16
#     4  11  26  45  70 100 139 185 235 294 353 435
#     4   9  20  38  63  96 128 175 224 277 350 415
#     4   9  20  39  64  97 132 173 225 281 339 408
#     4  12  28  44  74 104 130 196 240 280 384 416
#     4  11  24  45  66  98 141 177 232 293 352 415
#
# _framework density 21.440117000000001
#
# number of rings (size 3 to 8) (size 9 to 14) (size 15 to 20)
#    0.000    1.882    1.176    0.706    4.941    8.941 
#    0.000    4.706    0.000    0.000    0.000    0.000 
#    0.000    0.000    0.000    0.000    0.000    0.000 
#
# Total GULP energy -189780.238751 kJ/mol
# GULP energy per Si atom -5581.771728 kJ/mol
# Density = 2.139132 g / cm^3
# Si number density = 21.440117 Si / 1000 Ang^3
#
#
#
# Elastic Constant Matrix: (Units=GPa)
#
#
# Indices 1 2 3 4 5 6 
#
# 1 65.1353 25.3716 40.5063 0.0000 0.0000 0.0000
# 2 25.3716 84.9894 39.5753 0.0000 0.0000 0.0000
# 3 40.5063 39.5753 81.0322 0.0000 0.0000 0.0000
# 4 0.0000 0.0000 0.0000 14.1863 0.0000 0.0000
# 5 0.0000 0.0000 0.0000 0.0000 15.9386 0.0000
# 6 0.0000 0.0000 0.0000 0.0000 0.0000 37.8445
#
#
#
# Elastic Compliance Matrix: (Units=1/GPa)
#
#
# Indices 1 2 3 4 5 6 
#
# 1 0.022517 -0.001917 -0.010320 0.000000 0.000000 0.000000
# 2 -0.001917 0.015393 -0.006560 0.000000 0.000000 0.000000
# 3 -0.010320 -0.006560 0.020703 0.000000 0.000000 0.000000
# 4 0.000000 0.000000 0.000000 0.070490 0.000000 0.000000
# 5 0.000000 0.000000 0.000000 0.000000 0.062741 0.000000
# 6 0.000000 0.000000 0.000000 0.000000 0.000000 0.026424
#
#
# Mechanical properties :
#
#
# Convention : Reuss Voigt Hill
#
# Bulk Modulus (GPa) = 47.57162 49.11814 48.34488
# Shear Modulus (GPa) = 19.02107 21.97413 20.49760
#
# Velocity S-wave (km/s) = 2.98177 3.20489 3.09534
# Velocity P-wave (km/s) = 5.83874 6.05428 5.94749
#
# Compressibility (1/GPa) = 0.02102094
#
# Stress axis : x y z
#
# Youngs Moduli (GPa) = 44.41138 64.96538 48.30208
#
# Poissons Ratio (x) = 0.12451 0.49846
# Poissons Ratio (y) = 0.08511 0.31685
# Poissons Ratio (z) = 0.45831 0.42615
#
# Static dielectric constant tensor:
#      x y z
#    x 1.894890 0.000000 0.000000 
#    y 0.000000 1.784400 0.000000 
#    z 0.000000 0.000000 1.809220 
# 
# From -- ./inp_files/5924.got.cif
#   From: 2010.05.17/outbox.cif.g08.bks.cpg/sg68_3_cif.got.tgz:5924.got - 2010.06.03 18:57:09.
