data_PCOD9510624
_publ_section_title
;
Structure prediction by ZEFSAII (Michael W. Deem and Ramdas Pophale) SiO2 
 PCOD9510624
Probable space group: C C C A
;
_chemical_formula_sum "Si O2"
_cell_formula_units_Z 96
_cell_length_a 16.111263
_cell_length_b 13.027990
_cell_length_c 21.700172
_cell_angle_alpha 90.000000
_cell_angle_beta 90.000000
_cell_angle_gamma 90.000000
_cell_volume 4554.809102
_symmetry_space_group_name_H-M "C C C A"
_symmetry_group_IT_number 68
_space_group.IT_coordinate_system_code '2'
_symmetry_cell_setting 'orthorhombic'
loop_
_space_group_symop_operation_xyz
x,y,z
-x,1/2-y,z
x,1/2-y,1/2-z
-x,y,1/2-z
-x,-y,-z
x,1/2+y,-z
-x,1/2+y,1/2+z
x,-y,1/2+z
1/2+x,1/2+y,z
1/2-x,-y,z
1/2+x,-y,1/2-z
1/2-x,1/2+y,1/2-z
1/2-x,1/2-y,-z
1/2+x,y,-z
1/2-x,y,1/2+z
1/2+x,1/2-y,1/2+z
loop_
_atom_site_type_symbol
_atom_site_label
_atom_site_fract_x
_atom_site_fract_y
_atom_site_fract_z
Si Si1 0.750000 0.500000 0.658335
Si Si2 0.647956 0.156888 0.055068
Si Si3 0.301255 0.808375 0.080191
Si Si4 0.414964 0.079649 0.225548
Si Si5 0.406600 0.290693 0.685873
Si Si6 0.844969 0.016339 0.661570
Si Si7 0.500000 0.250000 0.136127
O O1 0.741046 0.402626 0.614564
O O2 0.661779 0.517272 0.694680
O O3 0.730492 0.223098 0.069173
O O4 0.568885 0.206361 0.088730
O O5 0.651460 0.048423 0.090433
O O6 0.650981 0.155493 0.981355
O O7 0.364548 0.760844 0.127866
O O8 0.500000 0.025561 0.250000
O O9 0.451041 0.167308 0.180057
O O10 0.375541 0.107207 0.292462
O O11 0.500000 0.250000 0.686708
O O12 0.367312 0.250000 0.750000
O O13 0.392767 0.411691 0.676603
O O14 0.750000 0.000000 0.677185
#
# Coordination Sequence:
#
# PCOD9510624 Si02
#       7
#     8  16  16  16  16  16   8
#     4  12  26  46  74 110 148 200 250 310 394 450
#     4  11  26  45  72 106 147 198 250 310 378 458
#     4  11  26  47  72 103 150 196 249 309 375 463
#     4  12  26  43  73 111 151 187 251 315 379 457
#     4  11  27  46  73 104 145 188 246 313 384 454
#     4  12  25  45  73 106 148 196 249 305 387 459
#     4  12  25  46  70 108 149 190 248 320 389 436
#
# _framework density 21.076625
#
# number of rings (size 3 to 8) (size 9 to 14) (size 15 to 20)
#    0.000    0.500    5.833    1.250    7.000    0.000 
#    0.000    1.667    0.000    0.000    0.000    0.000 
#    0.000    0.000    0.000    0.000    0.000    0.000 
#
# Total GULP energy -267607.903387 kJ/mol
# GULP energy per Si atom -5575.164654 kJ/mol
# Density = 2.102865 g / cm^3
# Si number density = 21.076625 Si / 1000 Ang^3
#
#
#
# Elastic Constant Matrix: (Units=GPa)
#
#
# Indices 1 2 3 4 5 6 
#
# 1 132.7587 38.7422 66.1755 0.0000 0.0000 0.0000
# 2 38.7422 99.2309 52.5546 0.0000 0.0000 0.0000
# 3 66.1755 52.5546 175.6668 0.0000 0.0000 0.0000
# 4 0.0000 0.0000 0.0000 0.8683 0.0000 0.0000
# 5 0.0000 0.0000 0.0000 0.0000 54.4489 0.0000
# 6 0.0000 0.0000 0.0000 0.0000 0.0000 24.5797
#
#
#
# Elastic Compliance Matrix: (Units=1/GPa)
#
#
# Indices 1 2 3 4 5 6 
#
# 1 0.009659 -0.002191 -0.002983 0.000000 0.000000 0.000000
# 2 -0.002191 0.012472 -0.002906 0.000000 0.000000 0.000000
# 3 -0.002983 -0.002906 0.007686 0.000000 0.000000 0.000000
# 4 0.000000 0.000000 0.000000 1.151716 0.000000 0.000000
# 5 0.000000 0.000000 0.000000 0.000000 0.018366 0.000000
# 6 0.000000 0.000000 0.000000 0.000000 0.000000 0.040684
#
#
# Mechanical properties :
#
#
# Convention : Reuss Voigt Hill
#
# Bulk Modulus (GPa) = 73.22573 80.28900 76.75737
# Shear Modulus (GPa) = 3.96418 32.65832 18.31125
#
# Velocity S-wave (km/s) = 1.37293 3.94064 2.95073
# Velocity P-wave (km/s) = 6.10993 7.67343 6.93588
#
# Compressibility (1/GPa) = 0.01365640
#
# Stress axis : x y z
#
# Youngs Moduli (GPa) = 103.53204 80.17976 130.11204
#
# Poissons Ratio (x) = 0.17569 0.38813
# Poissons Ratio (y) = 0.22686 0.37808
# Poissons Ratio (z) = 0.30884 0.23299
#
# Static dielectric constant tensor:
#      x y z
#    x 1.810930 0.000000 0.000000 
#    y 0.000000 1.689280 0.000000 
#    z 0.000000 0.000000 1.778210 
# 
# From -- ./inp_files/38630.got.cif
#   From: 2010.05.17/outbox.cif.g08.bks.cpg/sg68_20_cif.got.tgz:38630.got - 2010.06.03 18:57:09.
