data_PCOD9510646
_publ_section_title
;
Structure prediction by ZEFSAII (Michael W. Deem and Ramdas Pophale) SiO2 
 PCOD9510646
Probable space group: C C C A
;
_chemical_formula_sum "Si O2"
_cell_formula_units_Z 48
_cell_length_a 21.260003
_cell_length_b 5.314546
_cell_length_c 17.831538
_cell_angle_alpha 90.000000
_cell_angle_beta 90.000000
_cell_angle_gamma 90.000000
_cell_volume 2014.736690
_symmetry_space_group_name_H-M "C C C A"
_symmetry_group_IT_number 68
_space_group.IT_coordinate_system_code '2'
_symmetry_cell_setting 'orthorhombic'
loop_
_space_group_symop_operation_xyz
x,y,z
-x,1/2-y,z
x,1/2-y,1/2-z
-x,y,1/2-z
-x,-y,-z
x,1/2+y,-z
-x,1/2+y,1/2+z
x,-y,1/2+z
1/2+x,1/2+y,z
1/2-x,-y,z
1/2+x,-y,1/2-z
1/2-x,1/2+y,1/2-z
1/2-x,1/2-y,-z
1/2+x,y,-z
1/2-x,y,1/2+z
1/2+x,1/2-y,1/2+z
loop_
_atom_site_type_symbol
_atom_site_label
_atom_site_fract_x
_atom_site_fract_y
_atom_site_fract_z
Si Si1 0.176050 0.774053 0.449972
Si Si2 0.136965 0.250000 0.250000
Si Si3 0.250000 0.000000 0.665849
Si Si4 0.430490 0.854613 0.833427
O O1 0.178004 0.532205 0.504259
O O2 0.230871 0.727649 0.388840
O O3 0.113084 0.768773 0.400799
O O4 0.188385 0.439594 0.285980
O O5 0.091191 0.357173 0.184617
O O6 0.500000 0.750000 0.849320
O O7 0.417467 0.750000 0.750000
#
# Coordination Sequence:
#
# PCOD9510646 Si02
#       4
#    16   8   8  16
#     4  12  27  49  75 114 159 202 255 321 401 475
#     4  12  24  49  80 114 159 192 272 330 384 464
#     4  12  24  46  76 114 150 208 250 324 398 470
#     4  11  26  50  76 110 143 206 261 320 383 455
#
# _framework density 23.824452000000001
#
# number of rings (size 3 to 8) (size 9 to 14) (size 15 to 20)
#    0.000    0.333    3.333    5.000    0.000    6.667 
#    0.000    0.000    0.000    0.000    0.000    0.000 
#    0.000    0.000    0.000    0.000    0.000    0.000 
#
# Total GULP energy -134082.415002 kJ/mol
# GULP energy per Si atom -5586.767292 kJ/mol
# Density = 2.377023 g / cm^3
# Si number density = 23.824452 Si / 1000 Ang^3
#
#
#
# Elastic Constant Matrix: (Units=GPa)
#
#
# Indices 1 2 3 4 5 6 
#
# 1 202.3323 47.0835 54.0688 0.0000 0.0000 0.0000
# 2 47.0835 119.6363 37.7711 0.0000 0.0000 0.0000
# 3 54.0688 37.7711 85.6991 0.0000 0.0000 0.0000
# 4 0.0000 0.0000 0.0000 29.5070 0.0000 0.0000
# 5 0.0000 0.0000 0.0000 0.0000 51.0003 0.0000
# 6 0.0000 0.0000 0.0000 0.0000 0.0000 25.9361
#
#
#
# Elastic Compliance Matrix: (Units=1/GPa)
#
#
# Indices 1 2 3 4 5 6 
#
# 1 0.006136 -0.001385 -0.003261 0.000000 0.000000 0.000000
# 2 -0.001385 0.010023 -0.003543 0.000000 0.000000 0.000000
# 3 -0.003261 -0.003543 0.015288 0.000000 0.000000 0.000000
# 4 0.000000 0.000000 0.000000 0.033890 0.000000 0.000000
# 5 0.000000 0.000000 0.000000 0.000000 0.019608 0.000000
# 6 0.000000 0.000000 0.000000 0.000000 0.000000 0.038556
#
#
# Mechanical properties :
#
#
# Convention : Reuss Voigt Hill
#
# Bulk Modulus (GPa) = 66.36826 76.16829 71.26828
# Shear Modulus (GPa) = 34.50608 39.20498 36.85553
#
# Velocity S-wave (km/s) = 3.80984 4.06097 3.93741
# Velocity P-wave (km/s) = 6.87538 7.35042 7.11687
#
# Compressibility (1/GPa) = 0.01506744
#
# Stress axis : x y z
#
# Youngs Moduli (GPa) = 162.96933 99.77470 65.41228
#
# Poissons Ratio (x) = 0.13823 0.21329
# Poissons Ratio (y) = 0.22578 0.23177
# Poissons Ratio (z) = 0.53140 0.35353
#
# Static dielectric constant tensor:
#      x y z
#    x 1.880780 0.000000 0.000000 
#    y 0.000000 2.315590 0.000000 
#    z 0.000000 0.000000 1.884070 
# 
# From -- ./inp_files/39933.got.cif
#   From: 2010.05.17/outbox.cif.g08.bks.cpg/sg68_20_cif.got.tgz:39933.got - 2010.06.03 18:57:09.
