data_PCOD9510117
_publ_section_title
;
Structure prediction by ZEFSAII (Michael W. Deem and Ramdas Pophale) SiO2 
 PCOD9510117
Probable space group: C C C A
;
_chemical_formula_sum "Si O2"
_cell_formula_units_Z 80
_cell_length_a 25.448122
_cell_length_b 5.158144
_cell_length_c 26.716341
_cell_angle_alpha 90.000000
_cell_angle_beta 90.000000
_cell_angle_gamma 90.000000
_cell_volume 3506.922580
_symmetry_space_group_name_H-M "C C C A"
_symmetry_group_IT_number 68
_space_group.IT_coordinate_system_code '2'
_symmetry_cell_setting 'orthorhombic'
loop_
_space_group_symop_operation_xyz
x,y,z
-x,1/2-y,z
x,1/2-y,1/2-z
-x,y,1/2-z
-x,-y,-z
x,1/2+y,-z
-x,1/2+y,1/2+z
x,-y,1/2+z
1/2+x,1/2+y,z
1/2-x,-y,z
1/2+x,-y,1/2-z
1/2-x,1/2+y,1/2-z
1/2-x,1/2-y,-z
1/2+x,y,-z
1/2-x,y,1/2+z
1/2+x,1/2-y,1/2+z
loop_
_atom_site_type_symbol
_atom_site_label
_atom_site_fract_x
_atom_site_fract_y
_atom_site_fract_z
Si Si1 0.942054 0.014707 0.532540
Si Si2 0.308613 0.597021 0.298162
Si Si3 0.467700 0.995788 0.855287
Si Si4 0.181682 0.391833 0.533311
Si Si5 0.159462 0.087888 0.855233
O O1 0.950556 0.249778 0.495523
O O2 0.971992 0.015160 0.584359
O O3 0.880297 0.052132 0.540926
O O4 0.331210 0.750000 0.250000
O O5 0.250000 0.500000 0.285623
O O6 0.335547 0.338232 0.319293
O O7 0.311429 0.824941 0.338799
O O8 0.500000 0.750000 0.834782
O O9 0.403817 0.982064 0.850750
O O10 0.500000 0.250000 0.838364
O O11 0.196501 0.651926 0.502627
O O12 0.190213 0.339421 0.592437
#
# Coordination Sequence:
#
# PCOD9510117 Si02
#       5
#    16  16  16  16  16
#     4   9  17  28  44  72 114 165 222 276 311 339
#     4  12  25  46  75 105 126 148 202 282 359 413
#     4  11  22  35  54  86 129 177 223 257 299 370
#     4   9  17  32  55  86 128 178 223 256 299 370
#     4  11  23  41  68  98 136 179 213 267 335 383
#
# _framework density 22.812024999999998
#
# number of rings (size 3 to 8) (size 9 to 14) (size 15 to 20)
#    0.000    1.600    0.000    6.000    0.000    8.800 
#    0.000    0.000    0.000   21.000    0.000    0.000 
#    0.000    0.000    0.000    0.000    0.000    0.000 
#
# Total GULP energy -222711.813947 kJ/mol
# GULP energy per Si atom -5567.795349 kJ/mol
# Density = 2.276010 g / cm^3
# Si number density = 22.812025 Si / 1000 Ang^3
#
#
#
# Elastic Constant Matrix: (Units=GPa)
#
#
# Indices 1 2 3 4 5 6 
#
# 1 62.7569 33.1511 23.3932 0.0000 0.0000 0.0000
# 2 33.1511 222.7819 39.9232 0.0000 0.0000 0.0000
# 3 23.3932 39.9232 50.5486 0.0000 0.0000 0.0000
# 4 0.0000 0.0000 0.0000 46.3664 0.0000 0.0000
# 5 0.0000 0.0000 0.0000 0.0000 19.5027 0.0000
# 6 0.0000 0.0000 0.0000 0.0000 0.0000 41.9757
#
#
#
# Elastic Compliance Matrix: (Units=1/GPa)
#
#
# Indices 1 2 3 4 5 6 
#
# 1 0.019683 -0.001510 -0.007916 0.000000 0.000000 0.000000
# 2 -0.001510 0.005345 -0.003522 0.000000 0.000000 0.000000
# 3 -0.007916 -0.003522 0.026228 0.000000 0.000000 0.000000
# 4 0.000000 0.000000 0.000000 0.021567 0.000000 0.000000
# 5 0.000000 0.000000 0.000000 0.000000 0.051275 0.000000
# 6 0.000000 0.000000 0.000000 0.000000 0.000000 0.023823
#
#
# Mechanical properties :
#
#
# Convention : Reuss Voigt Hill
#
# Bulk Modulus (GPa) = 39.43444 58.78027 49.10736
# Shear Modulus (GPa) = 27.43151 37.54361 32.48756
#
# Velocity S-wave (km/s) = 3.47147 4.06122 3.77787
# Velocity P-wave (km/s) = 5.77861 6.91481 6.37209
#
# Compressibility (1/GPa) = 0.02535854
#
# Stress axis : x y z
#
# Youngs Moduli (GPa) = 50.80481 187.10344 38.12675
#
# Poissons Ratio (x) = 0.28259 0.30182
# Poissons Ratio (y) = 0.07673 0.13429
# Poissons Ratio (z) = 0.40218 0.65902
#
# Static dielectric constant tensor:
#      x y z
#    x 2.006290 0.000000 0.000000 
#    y 0.000000 1.813690 0.000000 
#    z 0.000000 0.000000 1.924050 
# 
# From -- ./inp_files/52306.got.cif
#   From: 2010.05.17/outbox.cif.g08.bks.cpg/sg68_27_cif.got.tgz:52306.got - 2010.06.03 18:57:09.
