data_PCOD9510486
_publ_section_title
;
Structure prediction by ZEFSAII (Michael W. Deem and Ramdas Pophale) SiO2 
 PCOD9510486
Probable space group: C C C A
;
_chemical_formula_sum "Si O2"
_cell_formula_units_Z 52
_cell_length_a 8.948914
_cell_length_b 11.311658
_cell_length_c 22.563419
_cell_angle_alpha 90.000000
_cell_angle_beta 90.000000
_cell_angle_gamma 90.000000
_cell_volume 2284.028448
_symmetry_space_group_name_H-M "C C C A"
_symmetry_group_IT_number 68
_space_group.IT_coordinate_system_code '2'
_symmetry_cell_setting 'orthorhombic'
loop_
_space_group_symop_operation_xyz
x,y,z
-x,1/2-y,z
x,1/2-y,1/2-z
-x,y,1/2-z
-x,-y,-z
x,1/2+y,-z
-x,1/2+y,1/2+z
x,-y,1/2+z
1/2+x,1/2+y,z
1/2-x,-y,z
1/2+x,-y,1/2-z
1/2-x,1/2+y,1/2-z
1/2-x,1/2-y,-z
1/2+x,y,-z
1/2-x,y,1/2+z
1/2+x,1/2-y,1/2+z
loop_
_atom_site_type_symbol
_atom_site_label
_atom_site_fract_x
_atom_site_fract_y
_atom_site_fract_z
Si Si1 0.500000 0.250000 0.250000
Si Si2 0.442855 0.564634 0.941052
Si Si3 0.360341 0.680217 0.418887
Si Si4 0.686631 0.131403 0.148574
O O1 0.600435 0.170441 0.206999
O O2 0.411632 0.450149 0.899013
O O3 0.292318 0.639672 0.952606
O O4 0.572597 0.631768 0.907156
O O5 0.500000 0.500000 0.000000
O O6 0.500000 0.750000 0.448924
O O7 0.308569 0.769627 0.368010
O O8 0.750000 0.000000 0.152876
#
# Coordination Sequence:
#
# PCOD9510486 Si02
#       4
#     4  16  16  16
#     4  12  28  52  78  98 148 204 254 326 358 464
#     4  11  26  44  74 113 156 198 248 307 388 464
#     4  11  24  44  74 108 154 196 252 312 372 459
#     4  12  26  50  74 109 147 196 257 310 387 451
#
# _framework density 22.766791999999999
#
# number of rings (size 3 to 8) (size 9 to 14) (size 15 to 20)
#    0.000    0.615    6.154    0.000    4.308    7.385 
#    0.000    0.000    0.000    0.000    0.000    0.000 
#    0.000    0.000    0.000    0.000    0.000    0.000 
#
# Total GULP energy -145187.396089 kJ/mol
# GULP energy per Si atom -5584.130619 kJ/mol
# Density = 2.271497 g / cm^3
# Si number density = 22.766792 Si / 1000 Ang^3
#
#
#
# Elastic Constant Matrix: (Units=GPa)
#
#
# Indices 1 2 3 4 5 6 
#
# 1 133.0059 69.4846 51.4232 0.0000 0.0000 0.0000
# 2 69.4846 182.1904 38.4086 0.0000 0.0000 0.0000
# 3 51.4232 38.4086 104.6013 0.0000 0.0000 0.0000
# 4 0.0000 0.0000 0.0000 31.7168 0.0000 0.0000
# 5 0.0000 0.0000 0.0000 0.0000 32.9180 0.0000
# 6 0.0000 0.0000 0.0000 0.0000 0.0000 77.2370
#
#
#
# Elastic Compliance Matrix: (Units=1/GPa)
#
#
# Indices 1 2 3 4 5 6 
#
# 1 0.010812 -0.003255 -0.004120 0.000000 0.000000 0.000000
# 2 -0.003255 0.006929 -0.000944 0.000000 0.000000 0.000000
# 3 -0.004120 -0.000944 0.011932 0.000000 0.000000 0.000000
# 4 0.000000 0.000000 0.000000 0.031529 0.000000 0.000000
# 5 0.000000 0.000000 0.000000 0.000000 0.030379 0.000000
# 6 0.000000 0.000000 0.000000 0.000000 0.000000 0.012947
#
#
# Mechanical properties :
#
#
# Convention : Reuss Voigt Hill
#
# Bulk Modulus (GPa) = 76.71647 82.04783 79.38215
# Shear Modulus (GPa) = 39.83712 45.73978 42.78845
#
# Velocity S-wave (km/s) = 4.18759 4.48711 4.33994
# Velocity P-wave (km/s) = 7.55983 7.93487 7.74962
#
# Compressibility (1/GPa) = 0.01303501
#
# Stress axis : x y z
#
# Youngs Moduli (GPa) = 92.49183 144.31731 83.80637
#
# Poissons Ratio (x) = 0.46973 0.34528
# Poissons Ratio (y) = 0.30105 0.07913
# Poissons Ratio (z) = 0.38107 0.13626
#
# Static dielectric constant tensor:
#      x y z
#    x 1.930370 0.000000 0.000000 
#    y 0.000000 1.874900 0.000000 
#    z 0.000000 0.000000 1.794390 
# 
# From -- ./inp_files/48659.got.cif
#   From: 2010.05.17/outbox.cif.g08.bks.cpg/sg68_25_cif.got.tgz:48659.got - 2010.06.03 18:57:09.
