data_PCOD9510602
_publ_section_title
;
Structure prediction by ZEFSAII (Michael W. Deem and Ramdas Pophale) SiO2 
 PCOD9510602
Probable space group: C C C A
;
_chemical_formula_sum "Si O2"
_cell_formula_units_Z 80
_cell_length_a 9.703793
_cell_length_b 15.258674
_cell_length_c 23.192204
_cell_angle_alpha 90.000000
_cell_angle_beta 90.000000
_cell_angle_gamma 90.000000
_cell_volume 3434.000393
_symmetry_space_group_name_H-M "C C C A"
_symmetry_group_IT_number 68
_space_group.IT_coordinate_system_code '2'
_symmetry_cell_setting 'orthorhombic'
loop_
_space_group_symop_operation_xyz
x,y,z
-x,1/2-y,z
x,1/2-y,1/2-z
-x,y,1/2-z
-x,-y,-z
x,1/2+y,-z
-x,1/2+y,1/2+z
x,-y,1/2+z
1/2+x,1/2+y,z
1/2-x,-y,z
1/2+x,-y,1/2-z
1/2-x,1/2+y,1/2-z
1/2-x,1/2-y,-z
1/2+x,y,-z
1/2-x,y,1/2+z
1/2+x,1/2-y,1/2+z
loop_
_atom_site_type_symbol
_atom_site_label
_atom_site_fract_x
_atom_site_fract_y
_atom_site_fract_z
Si Si1 0.698790 0.179408 0.955609
Si Si2 0.579165 0.918096 0.025256
Si Si3 0.606693 0.494660 0.352369
Si Si4 0.232386 0.250000 0.250000
Si Si5 0.139013 0.789558 0.369177
Si Si6 0.500000 0.400644 0.750000
O O1 0.541139 0.153282 0.964567
O O2 0.736142 0.233540 0.898137
O O3 0.750000 0.250000 0.000000
O O4 0.800512 0.102348 0.978895
O O5 0.622107 0.945678 0.090211
O O6 0.500000 0.000000 0.000000
O O7 0.750000 0.500000 0.318219
O O8 0.603775 0.393443 0.371821
O O9 0.500917 0.538107 0.307532
O O10 0.332180 0.233535 0.303494
O O11 0.131012 0.165313 0.247382
O O12 0.000000 0.750000 0.394963
#
# Coordination Sequence:
#
# PCOD9510602 Si02
#       6
#    16  16  16   8  16   8
#     4  12  25  44  71 107 148 194 245 296 372 437
#     4  12  25  45  72 106 149 197 246 306 364 444
#     4  12  25  46  72 106 146 188 249 307 375 442
#     4  11  25  48  70 100 141 187 246 294 382 441
#     4  12  26  45  71 106 146 192 239 310 368 444
#     4  11  26  46  73 102 136 192 243 308 366 455
#
# _framework density 23.296444000000001
#
# number of rings (size 3 to 8) (size 9 to 14) (size 15 to 20)
#    0.000    0.200    2.000    8.700    2.800    0.000 
#    0.000    2.000    0.000    0.000    0.000    0.000 
#    0.000    0.000    0.000    0.000    0.000    0.000 
#
# Total GULP energy -222941.744572 kJ/mol
# GULP energy per Si atom -5573.543614 kJ/mol
# Density = 2.324342 g / cm^3
# Si number density = 23.296444 Si / 1000 Ang^3
#
#
#
# Elastic Constant Matrix: (Units=GPa)
#
#
# Indices 1 2 3 4 5 6 
#
# 1 79.4546 35.1261 7.7657 0.0000 0.0000 0.0000
# 2 35.1261 158.6234 31.9117 0.0000 0.0000 0.0000
# 3 7.7657 31.9117 110.4237 0.0000 0.0000 0.0000
# 4 0.0000 0.0000 0.0000 44.0850 0.0000 0.0000
# 5 0.0000 0.0000 0.0000 0.0000 28.5895 0.0000
# 6 0.0000 0.0000 0.0000 0.0000 0.0000 40.3696
#
#
#
# Elastic Compliance Matrix: (Units=1/GPa)
#
#
# Indices 1 2 3 4 5 6 
#
# 1 0.013953 -0.003071 -0.000094 0.000000 0.000000 0.000000
# 2 -0.003071 0.007369 -0.001914 0.000000 0.000000 0.000000
# 3 -0.000094 -0.001914 0.009616 0.000000 0.000000 0.000000
# 4 0.000000 0.000000 0.000000 0.022683 0.000000 0.000000
# 5 0.000000 0.000000 0.000000 0.000000 0.034978 0.000000
# 6 0.000000 0.000000 0.000000 0.000000 0.000000 0.024771
#
#
# Mechanical properties :
#
#
# Convention : Reuss Voigt Hill
#
# Bulk Modulus (GPa) = 48.12123 55.34539 51.73331
# Shear Modulus (GPa) = 38.32783 40.85537 39.59160
#
# Velocity S-wave (km/s) = 4.06053 4.19228 4.12693
# Velocity P-wave (km/s) = 6.53336 6.87330 6.70548
#
# Compressibility (1/GPa) = 0.02078085
#
# Stress axis : x y z
#
# Youngs Moduli (GPa) = 71.67142 135.69892 103.99686
#
# Poissons Ratio (x) = 0.41671 0.00975
# Poissons Ratio (y) = 0.22009 0.19902
# Poissons Ratio (z) = 0.00672 0.25969
#
# Static dielectric constant tensor:
#      x y z
#    x 1.769870 0.000000 0.000000 
#    y 0.000000 2.001110 0.000000 
#    z 0.000000 0.000000 1.759420 
# 
# From -- ./inp_files/44178.got.cif
#   From: 2010.05.17/outbox.cif.g08.bks.cpg/sg68_23_cif.got.tgz:44178.got - 2010.06.03 18:57:09.
