data_PCOD9510918
_publ_section_title
;
Structure prediction by ZEFSAII (Michael W. Deem and Ramdas Pophale) SiO2 
 PCOD9510918
Probable space group: C C C A
;
_chemical_formula_sum "Si O2"
_cell_formula_units_Z 60
_cell_length_a 18.000000
_cell_length_b 21.000000
_cell_length_c 18.000000
_cell_angle_alpha 90.000000
_cell_angle_beta 90.000000
_cell_angle_gamma 90.000000
_cell_volume 6804.000000
_symmetry_space_group_name_H-M "C C C A"
_symmetry_group_IT_number 68
_space_group.IT_coordinate_system_code '2'
_symmetry_cell_setting 'orthorhombic'
loop_
_space_group_symop_operation_xyz
x,y,z
-x,1/2-y,z
x,1/2-y,1/2-z
-x,y,1/2-z
-x,-y,-z
x,1/2+y,-z
-x,1/2+y,1/2+z
x,-y,1/2+z
1/2+x,1/2+y,z
1/2-x,-y,z
1/2+x,-y,1/2-z
1/2-x,1/2+y,1/2-z
1/2-x,1/2-y,-z
1/2+x,y,-z
1/2-x,y,1/2+z
1/2+x,1/2-y,1/2+z
loop_
_atom_site_type_symbol
_atom_site_label
_atom_site_fract_x
_atom_site_fract_y
_atom_site_fract_z
Si Si1 0.923430 0.979759 0.596375
Si Si2 0.435677 0.161914 0.482622
Si Si3 0.797095 0.609505 0.944168
Si Si4 0.584678 0.821060 0.779668
Si Si5 0.750000 0.500000 0.559227
Si Si6 0.149829 0.396955 0.653282
Si Si7 0.899932 0.308766 0.540934
Si Si8 0.591193 0.041064 0.931034
O O1 0.870892 0.917961 0.595863
O O2 0.012175 0.971494 0.610416
O O3 0.879465 0.030665 0.647182
O O4 0.917378 0.006645 0.511627
O O5 0.407079 0.137984 0.402931
O O6 0.524709 0.155929 0.485401
O O7 0.412355 0.235396 0.481946
O O8 0.403898 0.115695 0.546308
O O9 0.730521 0.615920 0.884218
O O10 0.765849 0.558525 0.003586
O O11 0.828183 0.665879 0.996794
O O12 0.599827 0.750000 0.750000
O O13 0.500000 0.835338 0.750000
O O14 0.638288 0.868901 0.735142
O O15 0.597409 0.819110 0.869041
O O16 0.670917 0.484250 0.599431
#
# Coordination Sequence:
#
# PCOD9510918 Si02
#       8
#    16  16  16  16   8  16  16  16
#     4   9  17  30  51  72  99 142 185 219 275 326
#     4  10  17  32  48  76 107 140 180 225 277 339
#     4  11  19  32  51  77 109 141 183 233 281 331
#     4  11  20  35  52  75 109 151 186 224 280 350
#     4  10  18  28  48  74 102 138 174 222 282 324
#     4  11  19  32  53  76 107 148 191 227 277 346
#     4  11  21  31  53  77 109 146 185 229 286 340
#     4   9  16  28  47  75 103 135 176 225 269 328
#
# _framework density 8.8183419999999995
#
# number of rings (size 3 to 8) (size 9 to 14) (size 15 to 20)
#    0.000    1.733    8.000    0.800    1.867    0.533 
#    0.000    0.000    2.933    0.000    0.000    0.000 
#    0.000    0.133    0.000    0.000    0.000    0.000 
#
# Total GULP energy -334052.330602 kJ/mol
# GULP energy per Si atom -5567.538843 kJ/mol
# Density = 0.879827 g / cm^3
# Si number density = 8.818342 Si / 1000 Ang^3
#
#
#
# Elastic Constant Matrix: (Units=GPa)
#
#
# Indices 1 2 3 4 5 6 
#
# 1 124.8782 33.3417 37.1107 0.0000 0.0000 0.0000
# 2 33.3417 59.0417 31.5747 0.0000 0.0000 0.0000
# 3 37.1107 31.5747 51.8651 0.0000 0.0000 0.0000
# 4 0.0000 0.0000 0.0000 11.4349 0.0000 0.0000
# 5 0.0000 0.0000 0.0000 0.0000 15.5331 0.0000
# 6 0.0000 0.0000 0.0000 0.0000 0.0000 26.8036
#
#
#
# Elastic Compliance Matrix: (Units=1/GPa)
#
#
# Indices 1 2 3 4 5 6 
#
# 1 0.010480 -0.002829 -0.005776 0.000000 0.000000 0.000000
# 2 -0.002829 0.025877 -0.013729 0.000000 0.000000 0.000000
# 3 -0.005776 -0.013729 0.031772 0.000000 0.000000 0.000000
# 4 0.000000 0.000000 0.000000 0.087451 0.000000 0.000000
# 5 0.000000 0.000000 0.000000 0.000000 0.064379 0.000000
# 6 0.000000 0.000000 0.000000 0.000000 0.000000 0.037308
#
#
# Mechanical properties :
#
#
# Convention : Reuss Voigt Hill
#
# Bulk Modulus (GPa) = 42.62642 48.87104 45.74873
# Shear Modulus (GPa) = 16.14173 19.67151 17.90662
#
# Velocity S-wave (km/s) = 3.02857 3.34335 3.18984
# Velocity P-wave (km/s) = 6.03749 6.53253 6.28988
#
# Compressibility (1/GPa) = 0.02345963
#
# Stress axis : x y z
#
# Youngs Moduli (GPa) = 95.42286 38.64425 31.47425
#
# Poissons Ratio (x) = 0.10932 0.18180
# Poissons Ratio (y) = 0.26995 0.43212
# Poissons Ratio (z) = 0.55118 0.53056
#
# Static dielectric constant tensor:
#      x y z
#    x 1.657260 0.000000 0.000000 
#    y 0.000000 1.684260 0.000000 
#    z 0.000000 0.000000 1.566250 
# 
# From -- ./inp_files/32306.got.cif
#   From: 2010.05.17/outbox.ucp.g08.bks.cvg/sg68_17_cif.got.tgz:32306.got - 2010.06.11 16:49:25.
