data_PCOD9510972
_publ_section_title
;
Structure prediction by ZEFSAII (Michael W. Deem and Ramdas Pophale) SiO2 
 PCOD9510972
Probable space group: C C C A
;
_chemical_formula_sum "Si O2"
_cell_formula_units_Z 56
_cell_length_a 15.000000
_cell_length_b 30.000000
_cell_length_c 12.000000
_cell_angle_alpha 90.000000
_cell_angle_beta 90.000000
_cell_angle_gamma 90.000000
_cell_volume 5400.000000
_symmetry_space_group_name_H-M "C C C A"
_symmetry_group_IT_number 68
_space_group.IT_coordinate_system_code '2'
_symmetry_cell_setting 'orthorhombic'
loop_
_space_group_symop_operation_xyz
x,y,z
-x,1/2-y,z
x,1/2-y,1/2-z
-x,y,1/2-z
-x,-y,-z
x,1/2+y,-z
-x,1/2+y,1/2+z
x,-y,1/2+z
1/2+x,1/2+y,z
1/2-x,-y,z
1/2+x,-y,1/2-z
1/2-x,1/2+y,1/2-z
1/2-x,1/2-y,-z
1/2+x,y,-z
1/2-x,y,1/2+z
1/2+x,1/2-y,1/2+z
loop_
_atom_site_type_symbol
_atom_site_label
_atom_site_fract_x
_atom_site_fract_y
_atom_site_fract_z
Si Si1 0.291953 0.201135 0.728822
Si Si2 0.412317 0.157161 0.542308
Si Si3 0.890212 0.365209 0.384932
Si Si4 0.045540 0.506792 0.374902
Si Si5 0.152369 0.422270 0.328583
Si Si6 0.144012 0.598683 0.371493
Si Si7 0.405271 0.678822 0.718588
O O1 0.326372 0.250000 0.750000
O O2 0.340437 0.183425 0.617937
O O3 0.324249 0.169910 0.828937
O O4 0.184798 0.201094 0.733472
O O5 0.513626 0.157793 0.590872
O O6 0.386208 0.106383 0.568419
O O7 0.404771 0.171430 0.414448
O O8 0.891038 0.403911 0.288318
O O9 0.853402 0.381178 0.503711
O O10 0.125744 0.471862 0.358766
O O11 0.083289 0.555932 0.380433
O O12 0.000000 0.502625 0.250000
O O13 0.000000 0.500000 0.500000
O O14 0.257625 0.413151 0.326979
O O15 0.099489 0.632341 0.285036
O O16 0.500000 0.700044 0.750000
#
# Coordination Sequence:
#
# PCOD9510972 Si02
#       7
#    16  16  16  16  16  16  16
#     4  11  26  47  72 105 138 181 237 293 356 434
#     4  11  23  43  73 100 140 187 229 291 355 425
#     4  11  23  45  71 102 142 186 236 292 360 430
#     4  12  27  43  64 102 144 187 245 303 355 421
#     4  11  23  41  67  99 139 184 240 292 349 417
#     4  12  24  43  70  98 138 190 236 289 358 424
#     4  12  25  44  70 103 139 184 233 285 361 426
#
# _framework density 10.370369999999999
#
# number of rings (size 3 to 8) (size 9 to 14) (size 15 to 20)
#    0.000    0.571    4.286    6.000    2.000    2.000 
#    0.000    4.286    0.000    0.000    0.000    0.000 
#    0.000    0.000    0.000    0.000    0.000    0.000 
#
# Total GULP energy -312482.384932 kJ/mol
# GULP energy per Si atom -5580.042588 kJ/mol
# Density = 1.034677 g / cm^3
# Si number density = 10.370370 Si / 1000 Ang^3
#
#
#
# Elastic Constant Matrix: (Units=GPa)
#
#
# Indices 1 2 3 4 5 6 
#
# 1 116.1640 18.2450 50.5345 0.0000 0.0000 0.0000
# 2 18.2450 111.8088 37.3961 0.0000 0.0000 0.0000
# 3 50.5345 37.3961 173.7995 0.0000 0.0000 0.0000
# 4 0.0000 0.0000 0.0000 -19.1673 0.0000 0.0000
# 5 0.0000 0.0000 0.0000 0.0000 27.8787 0.0000
# 6 0.0000 0.0000 0.0000 0.0000 0.0000 145.8545
#
#
#
# Elastic Compliance Matrix: (Units=1/GPa)
#
#
# Indices 1 2 3 4 5 6 
#
# 1 0.009906 -0.000704 -0.002729 0.000000 0.000000 0.000000
# 2 -0.000704 0.009687 -0.001880 0.000000 0.000000 0.000000
# 3 -0.002729 -0.001880 0.006952 0.000000 0.000000 0.000000
# 4 0.000000 0.000000 0.000000 -0.052172 0.000000 0.000000
# 5 0.000000 0.000000 0.000000 0.000000 0.035870 0.000000
# 6 0.000000 0.000000 0.000000 0.000000 0.000000 0.006856
#
#
# Mechanical properties :
#
#
# Convention : Reuss Voigt Hill
#
# Bulk Modulus (GPa) = 62.81274 68.23595 65.52435
# Shear Modulus (GPa) = 151.37382 50.61962 100.99672
#
# Velocity S-wave (km/s) = 8.55232 4.94559 6.98574
# Velocity P-wave (km/s) = 11.30811 8.09832 9.83504
#
# Compressibility (1/GPa) = 0.01592034
#
# Stress axis : x y z
#
# Youngs Moduli (GPa) = 100.94670 103.22683 143.84965
#
# Poissons Ratio (x) = 0.07265 0.39256
# Poissons Ratio (y) = 0.07104 0.27041
# Poissons Ratio (z) = 0.27548 0.19404
#
# Static dielectric constant tensor:
#      x y z
#    x 1.793160 0.000000 0.000000 
#    y 0.000000 1.661160 0.000000 
#    z 0.000000 0.000000 1.724890 
# 
# From -- ./inp_files/13615.got.cif
#   From: 2010.05.17/outbox.ucp.g08.bks.cvg/sg68_7_cif.got.tgz:13615.got - 2010.06.11 16:49:25.
