data_PCOD9510123
_publ_section_title
;
Structure prediction by ZEFSAII (Michael W. Deem and Ramdas Pophale) SiO2 
 PCOD9510123
Probable space group: C C C A
;
_chemical_formula_sum "Si O2"
_cell_formula_units_Z 96
_cell_length_a 9.646549
_cell_length_b 21.074109
_cell_length_c 24.478322
_cell_angle_alpha 90.000000
_cell_angle_beta 90.000000
_cell_angle_gamma 90.000000
_cell_volume 4976.257442
_symmetry_space_group_name_H-M "C C C A"
_symmetry_group_IT_number 68
_space_group.IT_coordinate_system_code '2'
_symmetry_cell_setting 'orthorhombic'
loop_
_space_group_symop_operation_xyz
x,y,z
-x,1/2-y,z
x,1/2-y,1/2-z
-x,y,1/2-z
-x,-y,-z
x,1/2+y,-z
-x,1/2+y,1/2+z
x,-y,1/2+z
1/2+x,1/2+y,z
1/2-x,-y,z
1/2+x,-y,1/2-z
1/2-x,1/2+y,1/2-z
1/2-x,1/2-y,-z
1/2+x,y,-z
1/2-x,y,1/2+z
1/2+x,1/2-y,1/2+z
loop_
_atom_site_type_symbol
_atom_site_label
_atom_site_fract_x
_atom_site_fract_y
_atom_site_fract_z
Si Si1 0.036112 0.104796 0.453066
Si Si2 0.986915 0.135396 0.578080
Si Si3 0.118465 0.453957 0.296007
Si Si4 0.762717 0.223262 0.062408
Si Si5 0.707027 0.850604 0.379610
Si Si6 0.603403 0.007730 0.122593
O O1 0.132588 0.164184 0.436644
O O2 0.098518 0.039834 0.429338
O O3 0.021178 0.110597 0.517502
O O4 0.886070 0.114432 0.425479
O O5 0.889555 0.196577 0.575674
O O6 0.902593 0.079972 0.606142
O O7 0.130622 0.142539 0.609193
O O8 0.250000 0.500000 0.282548
O O9 0.167329 0.386955 0.323486
O O10 0.000000 0.443459 0.250000
O O11 0.030276 0.490358 0.342386
O O12 0.814054 0.276301 0.105328
O O13 0.750000 0.250000 0.000000
O O14 0.750000 0.000000 0.152432
#
# Coordination Sequence:
#
# PCOD9510123 Si02
#       6
#    16  16  16  16  16  16
#     4  11  22  36  58  89 139 187 215 261 308 386
#     4  12  21  38  59  91 140 182 218 261 311 391
#     4  11  24  47  73  95 121 159 219 297 354 396
#     4  12  22  37  60  90 141 193 223 245 307 403
#     4  11  24  37  62  98 129 170 229 263 321 392
#     4  11  23  40  60  97 127 167 222 275 334 384
#
# _framework density 19.291606000000002
#
# number of rings (size 3 to 8) (size 9 to 14) (size 15 to 20)
#    0.000    0.667    6.667    2.000    0.000    0.000 
#    0.000    0.000    0.000    8.000    0.000    1.167 
#    0.000    0.000    0.000    0.000    0.000    0.000 
#
# Total GULP energy -267749.820725 kJ/mol
# GULP energy per Si atom -5578.121265 kJ/mol
# Density = 1.924770 g / cm^3
# Si number density = 19.291606 Si / 1000 Ang^3
#
#
#
# Elastic Constant Matrix: (Units=GPa)
#
#
# Indices 1 2 3 4 5 6 
#
# 1 130.3503 33.8434 25.6408 0.0000 0.0000 0.0000
# 2 33.8434 87.1852 30.1205 0.0000 0.0000 0.0000
# 3 25.6408 30.1205 74.3987 0.0000 0.0000 0.0000
# 4 0.0000 0.0000 0.0000 10.1110 0.0000 0.0000
# 5 0.0000 0.0000 0.0000 0.0000 28.3656 0.0000
# 6 0.0000 0.0000 0.0000 0.0000 0.0000 40.3271
#
#
#
# Elastic Compliance Matrix: (Units=1/GPa)
#
#
# Indices 1 2 3 4 5 6 
#
# 1 0.008759 -0.002740 -0.001909 0.000000 0.000000 0.000000
# 2 -0.002740 0.014192 -0.004801 0.000000 0.000000 0.000000
# 3 -0.001909 -0.004801 0.016043 0.000000 0.000000 0.000000
# 4 0.000000 0.000000 0.000000 0.098902 0.000000 0.000000
# 5 0.000000 0.000000 0.000000 0.000000 0.035254 0.000000
# 6 0.000000 0.000000 0.000000 0.000000 0.000000 0.024797
#
#
# Mechanical properties :
#
#
# Convention : Reuss Voigt Hill
#
# Bulk Modulus (GPa) = 49.77062 52.34928 51.05995
# Shear Modulus (GPa) = 22.36672 29.24937 25.80804
#
# Velocity S-wave (km/s) = 3.40869 3.89803 3.66154
# Velocity P-wave (km/s) = 6.43019 6.88870 6.66339
#
# Compressibility (1/GPa) = 0.02009218
#
# Stress axis : x y z
#
# Youngs Moduli (GPa) = 114.17256 70.46057 62.33284
#
# Poissons Ratio (x) = 0.19309 0.11900
# Poissons Ratio (y) = 0.31287 0.29928
# Poissons Ratio (z) = 0.21797 0.33831
#
# Static dielectric constant tensor:
#      x y z
#    x 1.709860 0.000000 0.000000 
#    y 0.000000 1.682870 0.000000 
#    z 0.000000 0.000000 1.677420 
# 
# From -- ./inp_files/43294.got.cif
#   From: 2010.05.17/outbox.cif.g08.bks.cpg/sg68_22_cif.got.tgz:43294.got - 2010.06.03 18:57:09.
