data_PCOD9510836
_publ_section_title
;
Structure prediction by ZEFSAII (Michael W. Deem and Ramdas Pophale) SiO2 
 PCOD9510836
Probable space group: C C C A
;
_chemical_formula_sum "Si O2"
_cell_formula_units_Z 48
_cell_length_a 4.720367
_cell_length_b 27.616700
_cell_length_c 14.143851
_cell_angle_alpha 90.000000
_cell_angle_beta 90.000000
_cell_angle_gamma 90.000000
_cell_volume 1843.805985
_symmetry_space_group_name_H-M "C C C A"
_symmetry_group_IT_number 68
_space_group.IT_coordinate_system_code '2'
_symmetry_cell_setting 'orthorhombic'
loop_
_space_group_symop_operation_xyz
x,y,z
-x,1/2-y,z
x,1/2-y,1/2-z
-x,y,1/2-z
-x,-y,-z
x,1/2+y,-z
-x,1/2+y,1/2+z
x,-y,1/2+z
1/2+x,1/2+y,z
1/2-x,-y,z
1/2+x,-y,1/2-z
1/2-x,1/2+y,1/2-z
1/2-x,1/2-y,-z
1/2+x,y,-z
1/2-x,y,1/2+z
1/2+x,1/2-y,1/2+z
loop_
_atom_site_type_symbol
_atom_site_label
_atom_site_fract_x
_atom_site_fract_y
_atom_site_fract_z
Si Si1 0.500000 0.750000 0.924194
Si Si2 0.725398 0.156130 0.181798
Si Si3 0.840135 0.435852 0.936934
Si Si4 0.250000 0.500000 0.307708
O O1 0.413358 0.794429 0.856692
O O2 0.250000 0.750000 0.000000
O O3 0.500000 0.131984 0.250000
O O4 0.719870 0.119671 0.093173
O O5 0.000000 0.163368 0.250000
O O6 0.028487 0.463615 0.859633
O O7 0.022697 0.448029 0.031082
O O8 0.500000 0.529261 0.250000
#
# Coordination Sequence:
#
# PCOD9510836 Si02
#       4
#     8  16  16   8
#     4  12  25  46  73 108 150 200 254 316 385 462
#     4  12  26  46  73 109 149 197 254 317 383 458
#     4  12  25  46  73 106 145 196 253 315 384 462
#     4  12  26  46  72 108 150 198 254 324 396 470
#
# _framework density 26.033109
#
# number of rings (size 3 to 8) (size 9 to 14) (size 15 to 20)
#    0.000    0.000    0.000   10.500    0.000    4.000 
#    0.000    0.000    0.000    0.000    0.000    0.000 
#    0.000    0.000    0.000    0.000    0.000    0.000 
#
# Total GULP energy -133689.531882 kJ/mol
# GULP energy per Si atom -5570.397162 kJ/mol
# Density = 2.597386 g / cm^3
# Si number density = 26.033109 Si / 1000 Ang^3
#
#
#
# Elastic Constant Matrix: (Units=GPa)
#
#
# Indices 1 2 3 4 5 6 
#
# 1 230.9605 46.7130 49.5281 0.0000 0.0000 0.0000
# 2 46.7130 199.0357 58.0604 0.0000 0.0000 0.0000
# 3 49.5281 58.0604 100.2832 0.0000 0.0000 0.0000
# 4 0.0000 0.0000 0.0000 30.8833 0.0000 0.0000
# 5 0.0000 0.0000 0.0000 0.0000 78.0338 0.0000
# 6 0.0000 0.0000 0.0000 0.0000 0.0000 -15.8271
#
#
#
# Elastic Compliance Matrix: (Units=1/GPa)
#
#
# Indices 1 2 3 4 5 6 
#
# 1 0.004889 -0.000533 -0.002106 0.000000 0.000000 0.000000
# 2 -0.000533 0.006103 -0.003270 0.000000 0.000000 0.000000
# 3 -0.002106 -0.003270 0.012905 0.000000 0.000000 0.000000
# 4 0.000000 0.000000 0.000000 0.032380 0.000000 0.000000
# 5 0.000000 0.000000 0.000000 0.000000 0.012815 0.000000
# 6 0.000000 0.000000 0.000000 0.000000 0.000000 -0.063183
#
#
# Mechanical properties :
#
#
# Convention : Reuss Voigt Hill
#
# Bulk Modulus (GPa) = 82.78912 93.20916 87.99914
# Shear Modulus (GPa) = 229.83226 43.68320 136.75773
#
# Velocity S-wave (km/s) = 9.40618 4.10077 7.25578
# Velocity P-wave (km/s) = 12.24087 7.63567 10.20153
#
# Compressibility (1/GPa) = 0.01207888
#
# Stress axis : x y z
#
# Youngs Moduli (GPa) = 204.53249 163.84516 77.48762
#
# Poissons Ratio (x) = 0.08735 0.16319
# Poissons Ratio (y) = 0.10904 0.25341
# Poissons Ratio (z) = 0.43075 0.53582
#
# Static dielectric constant tensor:
#      x y z
#    x 1.954120 0.000000 0.000000 
#    y 0.000000 2.060800 0.000000 
#    z 0.000000 0.000000 2.542280 
# 
# From -- ./inp_files/18294.got.cif
#   From: 2010.05.17/outbox.cif.g08.bks.cpg/sg68_10_cif.got.tgz:18294.got - 2010.06.03 18:57:09.
