data_PCOD9510538
_publ_section_title
;
Structure prediction by ZEFSAII (Michael W. Deem and Ramdas Pophale) SiO2 
 PCOD9510538
Probable space group: C C C A
;
_chemical_formula_sum "Si O2"
_cell_formula_units_Z 80
_cell_length_a 20.553213
_cell_length_b 15.072754
_cell_length_c 9.761984
_cell_angle_alpha 90.000000
_cell_angle_beta 90.000000
_cell_angle_gamma 90.000000
_cell_volume 3024.199419
_symmetry_space_group_name_H-M "C C C A"
_symmetry_group_IT_number 68
_space_group.IT_coordinate_system_code '2'
_symmetry_cell_setting 'orthorhombic'
loop_
_space_group_symop_operation_xyz
x,y,z
-x,1/2-y,z
x,1/2-y,1/2-z
-x,y,1/2-z
-x,-y,-z
x,1/2+y,-z
-x,1/2+y,1/2+z
x,-y,1/2+z
1/2+x,1/2+y,z
1/2-x,-y,z
1/2+x,-y,1/2-z
1/2-x,1/2+y,1/2-z
1/2-x,1/2-y,-z
1/2+x,y,-z
1/2-x,y,1/2+z
1/2+x,1/2-y,1/2+z
loop_
_atom_site_type_symbol
_atom_site_label
_atom_site_fract_x
_atom_site_fract_y
_atom_site_fract_z
Si Si1 0.489328 0.586850 0.114582
Si Si2 0.592720 0.581410 0.877069
Si Si3 0.329089 0.238499 0.895220
Si Si4 0.068875 0.699420 0.390740
Si Si5 0.733671 0.595977 0.989571
O O1 0.500000 0.643855 0.250000
O O2 0.446984 0.504403 0.176161
O O3 0.441361 0.619106 0.996209
O O4 0.556297 0.585272 0.026522
O O5 0.669362 0.575149 0.899889
O O6 0.581358 0.656773 0.758225
O O7 0.363670 0.250000 0.750000
O O8 0.372700 0.247457 0.031039
O O9 0.290881 0.145348 0.905695
O O10 0.282265 0.324386 0.904998
O O11 0.000000 0.750000 0.402882
O O12 0.750000 0.500000 0.051501
#
# Coordination Sequence:
#
# PCOD9510538 Si02
#       5
#    16  16  16  16  16
#     4  11  26  48  80 117 154 199 272 337 394 488
#     4  11  24  49  76 115 157 206 261 327 406 478
#     4  11  28  51  78 125 164 208 277 342 387 500
#     4  12  26  51  81 111 162 213 255 334 413 474
#     4  11  26  49  82 116 162 218 266 332 414 477
#
# _framework density 26.453282000000002
#
# number of rings (size 3 to 8) (size 9 to 14) (size 15 to 20)
#    0.000    0.800    2.000    4.200    8.400    2.400 
#    3.600    1.000    0.000    0.000    0.000    0.000 
#    0.000    0.000    0.000    0.000    0.000    0.000 
#
# Total GULP energy -223151.497546 kJ/mol
# GULP energy per Si atom -5578.787439 kJ/mol
# Density = 2.639307 g / cm^3
# Si number density = 26.453282 Si / 1000 Ang^3
#
#
#
# Elastic Constant Matrix: (Units=GPa)
#
#
# Indices 1 2 3 4 5 6 
#
# 1 122.2872 34.0398 39.1766 0.0000 0.0000 0.0000
# 2 34.0398 148.0399 17.5964 0.0000 0.0000 0.0000
# 3 39.1766 17.5964 171.6464 0.0000 0.0000 0.0000
# 4 0.0000 0.0000 0.0000 28.6499 0.0000 0.0000
# 5 0.0000 0.0000 0.0000 0.0000 16.6575 0.0000
# 6 0.0000 0.0000 0.0000 0.0000 0.0000 37.8527
#
#
#
# Elastic Compliance Matrix: (Units=1/GPa)
#
#
# Indices 1 2 3 4 5 6 
#
# 1 0.009330 -0.001916 -0.001933 0.000000 0.000000 0.000000
# 2 -0.001916 0.007232 -0.000304 0.000000 0.000000 0.000000
# 3 -0.001933 -0.000304 0.006298 0.000000 0.000000 0.000000
# 4 0.000000 0.000000 0.000000 0.034904 0.000000 0.000000
# 5 0.000000 0.000000 0.000000 0.000000 0.060033 0.000000
# 6 0.000000 0.000000 0.000000 0.000000 0.000000 0.026418
#
#
# Mechanical properties :
#
#
# Convention : Reuss Voigt Hill
#
# Bulk Modulus (GPa) = 68.70829 69.28878 68.99854
# Shear Modulus (GPa) = 31.77182 40.04273 35.90728
#
# Velocity S-wave (km/s) = 3.46938 3.89487 3.68827
# Velocity P-wave (km/s) = 6.48681 6.81736 6.65414
#
# Compressibility (1/GPa) = 0.01455428
#
# Stress axis : x y z
#
# Youngs Moduli (GPa) = 107.18141 138.28318 158.77246
#
# Poissons Ratio (x) = 0.26489 0.30692
# Poissons Ratio (y) = 0.20531 0.04829
# Poissons Ratio (z) = 0.20719 0.04206
#
# Static dielectric constant tensor:
#      x y z
#    x 2.082270 0.000000 0.000000 
#    y 0.000000 2.334530 0.000000 
#    z 0.000000 0.000000 2.387880 
# 
# From -- ./inp_files/16228.got.cif
#   From: 2010.05.17/outbox.cif.g08.bks.cpg/sg68_9_cif.got.tgz:16228.got - 2010.06.03 18:57:09.
