data_PCOD9510485
_publ_section_title
;
Structure prediction by ZEFSAII (Michael W. Deem and Ramdas Pophale) SiO2 
 PCOD9510485
Probable space group: C C C A
;
_chemical_formula_sum "Si O2"
_cell_formula_units_Z 116
_cell_length_a 16.917103
_cell_length_b 24.812679
_cell_length_c 12.707741
_cell_angle_alpha 90.000000
_cell_angle_beta 90.000000
_cell_angle_gamma 90.000000
_cell_volume 5334.184160
_symmetry_space_group_name_H-M "C C C A"
_symmetry_group_IT_number 68
_space_group.IT_coordinate_system_code '2'
_symmetry_cell_setting 'orthorhombic'
loop_
_space_group_symop_operation_xyz
x,y,z
-x,1/2-y,z
x,1/2-y,1/2-z
-x,y,1/2-z
-x,-y,-z
x,1/2+y,-z
-x,1/2+y,1/2+z
x,-y,1/2+z
1/2+x,1/2+y,z
1/2-x,-y,z
1/2+x,-y,1/2-z
1/2-x,1/2+y,1/2-z
1/2-x,1/2-y,-z
1/2+x,y,-z
1/2-x,y,1/2+z
1/2+x,1/2-y,1/2+z
loop_
_atom_site_type_symbol
_atom_site_label
_atom_site_fract_x
_atom_site_fract_y
_atom_site_fract_z
Si Si1 0.835908 0.975158 0.363285
Si Si2 0.386413 0.314816 0.900053
Si Si3 0.309045 0.601147 0.063151
Si Si4 0.591596 0.419701 0.722251
Si Si5 0.790349 0.804116 0.401066
Si Si6 0.167326 0.877161 0.286424
Si Si7 0.924559 0.785386 0.122777
Si Si8 0.500000 0.750000 0.250000
O O1 0.826622 0.946077 0.477418
O O2 0.854921 0.929752 0.277676
O O3 0.750000 0.000000 0.339252
O O4 0.894787 0.023906 0.337979
O O5 0.377917 0.375308 0.860149
O O6 0.300644 0.287935 0.918443
O O7 0.440628 0.285750 0.816442
O O8 0.433435 0.309521 0.007262
O O9 0.361053 0.589237 0.167505
O O10 0.220128 0.607567 0.111698
O O11 0.320359 0.656910 0.996320
O O12 0.500000 0.412288 0.750000
O O13 0.784026 0.840890 0.296362
O O14 0.849588 0.755325 0.377542
O O15 0.094693 0.837906 0.310165
O O16 0.000000 0.750000 0.146335
#
# Coordination Sequence:
#
# PCOD9510485 Si02
#       8
#    16  16  16  16  16  16  16   4
#     4  11  25  47  75 110 142 194 259 309 379 441
#     4  12  25  45  71 111 145 192 251 300 384 447
#     4  11  24  44  74 108 146 190 255 305 373 457
#     4  12  27  47  75 109 150 197 246 317 383 451
#     4  11  25  45  74 109 144 198 248 300 372 461
#     4  11  24  47  74 105 143 199 244 312 369 457
#     4  12  28  46  72 110 153 201 249 311 380 450
#     4  12  28  40  76 108 152 188 232 332 358 468
#
# _framework density 21.74653
#
# number of rings (size 3 to 8) (size 9 to 14) (size 15 to 20)
#    0.000    0.552    5.517    1.655    7.724    1.655 
#    4.966    0.000    0.000    0.000    0.000    0.000 
#    0.000    0.000    0.000    0.000    0.000    0.000 
#
# Total GULP energy -324051.444156 kJ/mol
# GULP energy per Si atom -5587.093865 kJ/mol
# Density = 2.169703 g / cm^3
# Si number density = 21.746530 Si / 1000 Ang^3
#
#
#
# Elastic Constant Matrix: (Units=GPa)
#
#
# Indices 1 2 3 4 5 6 
#
# 1 115.1787 46.3806 28.0186 0.0000 0.0000 0.0000
# 2 46.3806 146.5315 70.1150 0.0000 0.0000 0.0000
# 3 28.0186 70.1150 138.2340 0.0000 0.0000 0.0000
# 4 0.0000 0.0000 0.0000 18.5322 0.0000 0.0000
# 5 0.0000 0.0000 0.0000 0.0000 21.0397 0.0000
# 6 0.0000 0.0000 0.0000 0.0000 0.0000 36.0048
#
#
#
# Elastic Compliance Matrix: (Units=1/GPa)
#
#
# Indices 1 2 3 4 5 6 
#
# 1 0.009983 -0.002894 -0.000556 0.000000 0.000000 0.000000
# 2 -0.002894 0.009851 -0.004410 0.000000 0.000000 0.000000
# 3 -0.000556 -0.004410 0.009583 0.000000 0.000000 0.000000
# 4 0.000000 0.000000 0.000000 0.053960 0.000000 0.000000
# 5 0.000000 0.000000 0.000000 0.000000 0.047529 0.000000
# 6 0.000000 0.000000 0.000000 0.000000 0.000000 0.027774
#
#
# Mechanical properties :
#
#
# Convention : Reuss Voigt Hill
#
# Bulk Modulus (GPa) = 73.00277 76.55250 74.77763
# Shear Modulus (GPa) = 27.93848 32.14401 30.04125
#
# Velocity S-wave (km/s) = 3.58821 3.84881 3.72079
# Velocity P-wave (km/s) = 7.12809 7.41820 7.27459
#
# Compressibility (1/GPa) = 0.01369811
#
# Stress axis : x y z
#
# Youngs Moduli (GPa) = 100.17402 101.51712 104.34642
#
# Poissons Ratio (x) = 0.29378 0.05797
# Poissons Ratio (y) = 0.28990 0.46015
# Poissons Ratio (z) = 0.05565 0.44767
#
# Static dielectric constant tensor:
#      x y z
#    x 1.804950 0.000000 0.000000 
#    y 0.000000 1.795800 0.000000 
#    z 0.000000 0.000000 1.827730 
# 
# From -- ./inp_files/14837.got.cif
#   From: 2010.05.17/outbox.cif.g08.bks.cpg/sg68_8_cif.got.tgz:14837.got - 2010.06.03 18:57:09.
