data_PCOD9510097
_publ_section_title
;
Structure prediction by ZEFSAII (Michael W. Deem and Ramdas Pophale) SiO2 
 PCOD9510097
Probable space group: C C C A
;
_chemical_formula_sum "Si O2"
_cell_formula_units_Z 96
_cell_length_a 14.457812
_cell_length_b 21.259337
_cell_length_c 12.870238
_cell_angle_alpha 90.000000
_cell_angle_beta 90.000000
_cell_angle_gamma 90.000000
_cell_volume 3955.841367
_symmetry_space_group_name_H-M "C C C A"
_symmetry_group_IT_number 68
_space_group.IT_coordinate_system_code '2'
_symmetry_cell_setting 'orthorhombic'
loop_
_space_group_symop_operation_xyz
x,y,z
-x,1/2-y,z
x,1/2-y,1/2-z
-x,y,1/2-z
-x,-y,-z
x,1/2+y,-z
-x,1/2+y,1/2+z
x,-y,1/2+z
1/2+x,1/2+y,z
1/2-x,-y,z
1/2+x,-y,1/2-z
1/2-x,1/2+y,1/2-z
1/2-x,1/2-y,-z
1/2+x,y,-z
1/2-x,y,1/2+z
1/2+x,1/2-y,1/2+z
loop_
_atom_site_type_symbol
_atom_site_label
_atom_site_fract_x
_atom_site_fract_y
_atom_site_fract_z
Si Si1 0.140907 0.997750 0.522121
Si Si2 0.174865 0.444305 0.255482
Si Si3 0.199887 0.815495 0.013879
Si Si4 0.442287 0.614297 0.079510
Si Si5 0.114327 0.126172 0.948152
Si Si6 0.310178 0.677451 0.758110
O O1 0.130752 0.968349 0.636568
O O2 0.102801 0.948701 0.437472
O O3 0.250000 0.000000 0.506629
O O4 0.094445 0.064726 0.507756
O O5 0.250000 0.500000 0.227797
O O6 0.090147 0.424354 0.180679
O O7 0.236688 0.380216 0.260273
O O8 0.151108 0.822222 0.124853
O O9 0.250000 0.750000 0.000000
O O10 0.126060 0.826612 0.925058
O O11 0.284004 0.863652 0.997061
O O12 0.539042 0.640727 0.036979
O O13 0.121059 0.162017 0.838170
O O14 0.274758 0.750000 0.750000
#
# Coordination Sequence:
#
# PCOD9510097 Si02
#       6
#    16  16  16  16  16  16
#     4  11  21  43  70 102 142 191 238 296 360 435
#     4  11  22  41  74 103 141 198 241 289 368 431
#     4  12  24  47  71  98 144 190 238 293 358 424
#     4  12  25  43  71 103 147 181 239 300 354 432
#     4  12  25  43  71 106 138 183 237 290 363 421
#     4  12  23  44  75 102 140 191 237 295 359 429
#
# _framework density 24.267909
#
# number of rings (size 3 to 8) (size 9 to 14) (size 15 to 20)
#    0.000    0.333    6.667    3.000    0.000    2.000 
#    0.000    4.167    0.000    0.000    0.000    0.000 
#    0.000    0.000    0.000    0.000    0.000    0.000 
#
# Total GULP energy -267607.338233 kJ/mol
# GULP energy per Si atom -5575.152880 kJ/mol
# Density = 2.421267 g / cm^3
# Si number density = 24.267909 Si / 1000 Ang^3
#
#
#
# Elastic Constant Matrix: (Units=GPa)
#
#
# Indices 1 2 3 4 5 6 
#
# 1 73.9955 -7.3453 -0.5201 0.0000 0.0000 0.0000
# 2 -7.3453 123.7372 18.9945 0.0000 0.0000 0.0000
# 3 -0.5201 18.9945 145.4231 0.0000 0.0000 0.0000
# 4 0.0000 0.0000 0.0000 41.2555 0.0000 0.0000
# 5 0.0000 0.0000 0.0000 0.0000 22.0957 0.0000
# 6 0.0000 0.0000 0.0000 0.0000 0.0000 14.1852
#
#
#
# Elastic Compliance Matrix: (Units=1/GPa)
#
#
# Indices 1 2 3 4 5 6 
#
# 1 0.013595 0.000816 -0.000058 0.000000 0.000000 0.000000
# 2 0.000816 0.008296 -0.001081 0.000000 0.000000 0.000000
# 3 -0.000058 -0.001081 0.007017 0.000000 0.000000 0.000000
# 4 0.000000 0.000000 0.000000 0.024239 0.000000 0.000000
# 5 0.000000 0.000000 0.000000 0.000000 0.045258 0.000000
# 6 0.000000 0.000000 0.000000 0.000000 0.000000 0.070496
#
#
# Mechanical properties :
#
#
# Convention : Reuss Voigt Hill
#
# Bulk Modulus (GPa) = 35.38202 40.60154 37.99178
# Shear Modulus (GPa) = 27.93803 37.64239 32.79021
#
# Velocity S-wave (km/s) = 3.39666 3.94270 3.67982
# Velocity P-wave (km/s) = 5.47672 6.12318 5.80895
#
# Compressibility (1/GPa) = 0.02826294
#
# Stress axis : x y z
#
# Youngs Moduli (GPa) = 73.55685 120.54045 142.50227
#
# Poissons Ratio (x) = -0.09835 0.00826
# Poissons Ratio (y) = -0.06002 0.15400
# Poissons Ratio (z) = 0.00426 0.13026
#
# Static dielectric constant tensor:
#      x y z
#    x 2.014050 0.000000 0.000000 
#    y 0.000000 2.060460 0.000000 
#    z 0.000000 0.000000 2.034030 
# 
# From -- ./inp_files/22378.got.cif
#   From: 2010.05.17/outbox.cif.g08.bks.cpg/sg68_12_cif.got.tgz:22378.got - 2010.06.03 18:57:09.
