data_PCOD9510909
_publ_section_title
;
Structure prediction by ZEFSAII (Michael W. Deem and Ramdas Pophale) SiO2 
 PCOD9510909
Probable space group: C C C A
;
_chemical_formula_sum "Si O2"
_cell_formula_units_Z 44
_cell_length_a 17.057711
_cell_length_b 4.899888
_cell_length_c 19.962890
_cell_angle_alpha 90.000000
_cell_angle_beta 90.000000
_cell_angle_gamma 90.000000
_cell_volume 1668.515783
_symmetry_space_group_name_H-M "C C C A"
_symmetry_group_IT_number 68
_space_group.IT_coordinate_system_code '2'
_symmetry_cell_setting 'orthorhombic'
loop_
_space_group_symop_operation_xyz
x,y,z
-x,1/2-y,z
x,1/2-y,1/2-z
-x,y,1/2-z
-x,-y,-z
x,1/2+y,-z
-x,1/2+y,1/2+z
x,-y,1/2+z
1/2+x,1/2+y,z
1/2-x,-y,z
1/2+x,-y,1/2-z
1/2-x,1/2+y,1/2-z
1/2-x,1/2-y,-z
1/2+x,y,-z
1/2-x,y,1/2+z
1/2+x,1/2-y,1/2+z
loop_
_atom_site_type_symbol
_atom_site_label
_atom_site_fract_x
_atom_site_fract_y
_atom_site_fract_z
Si Si1 0.750000 0.000000 0.448137
Si Si2 0.620441 0.091849 0.347455
Si Si3 0.000000 0.750000 0.750000
Si Si4 0.000000 0.250000 0.548474
Si Si5 0.750000 0.000000 0.710356
O O1 0.750000 0.750000 0.500000
O O2 0.679597 0.922710 0.395803
O O3 0.557336 0.937383 0.298583
O O4 0.678731 0.323187 0.318679
O O5 0.572049 0.255518 0.402348
O O6 0.000000 0.500000 0.500000
O O7 0.708927 0.250000 0.750000
#
# Coordination Sequence:
#
# PCOD9510909 Si02
#       5
#     8  16   4   8   8
#     4  12  28  56  96 130 176 244 324 392 462 550
#     4  12  31  58  92 135 189 241 313 393 477 572
#     4  12  34  62  94 148 200 254 306 390 518 580
#     4  12  29  57  90 129 181 242 310 382 472 556
#     4  12  32  54  90 130 186 238 308 376 466 564
#
# _framework density 26.370744999999999
#
# number of rings (size 3 to 8) (size 9 to 14) (size 15 to 20)
#    0.000    0.000    0.000    5.455   12.727    8.727 
#    0.000    0.000    0.000    0.000    0.000    0.000 
#    0.000    0.000    0.000    0.000    0.000    0.000 
#
# Total GULP energy -122856.355909 kJ/mol
# GULP energy per Si atom -5584.379814 kJ/mol
# Density = 2.631072 g / cm^3
# Si number density = 26.370745 Si / 1000 Ang^3
#
#
#
# Elastic Constant Matrix: (Units=GPa)
#
#
# Indices 1 2 3 4 5 6 
#
# 1 215.9255 85.8821 136.4765 0.0000 0.0000 0.0000
# 2 85.8821 243.6850 127.3635 0.0000 0.0000 0.0000
# 3 136.4765 127.3635 237.6152 0.0000 0.0000 0.0000
# 4 0.0000 0.0000 0.0000 -6.7452 0.0000 0.0000
# 5 0.0000 0.0000 0.0000 0.0000 -72.4591 0.0000
# 6 0.0000 0.0000 0.0000 0.0000 0.0000 44.6435
#
#
#
# Elastic Compliance Matrix: (Units=1/GPa)
#
#
# Indices 1 2 3 4 5 6 
#
# 1 0.007320 -0.000531 -0.003919 0.000000 0.000000 0.000000
# 2 -0.000531 0.005739 -0.002771 0.000000 0.000000 0.000000
# 3 -0.003919 -0.002771 0.007945 0.000000 0.000000 0.000000
# 4 0.000000 0.000000 0.000000 -0.148254 0.000000 0.000000
# 5 0.000000 0.000000 0.000000 0.000000 -0.013801 0.000000
# 6 0.000000 0.000000 0.000000 0.000000 0.000000 0.022400
#
#
# Mechanical properties :
#
#
# Convention : Reuss Voigt Hill
#
# Bulk Modulus (GPa) = 152.42966 155.18555 153.80761
# Shear Modulus (GPa) = -49.00984 16.25475 -16.37755
#
# Velocity S-wave (km/s) = -4.31570 2.48542 -2.49479
# Velocity P-wave (km/s) = 5.75277 8.19828 7.08188
#
# Compressibility (1/GPa) = 0.00656040
#
# Stress axis : x y z
#
# Youngs Moduli (GPa) = 136.61524 174.23899 125.86440
#
# Poissons Ratio (x) = 0.09255 0.49332
# Poissons Ratio (y) = 0.07257 0.34879
# Poissons Ratio (z) = 0.53546 0.48285
#
# Static dielectric constant tensor:
#      x y z
#    x 2.172220 0.000000 0.000000 
#    y 0.000000 2.040550 0.000000 
#    z 0.000000 0.000000 2.161240 
# 
# From -- ./inp_files/34687.got.cif
#   From: 2010.05.17/outbox.cif.g08.bks.cpg/sg68_18_cif.got.tgz:34687.got - 2010.06.03 18:57:09.
