data_PCOD9510471
_publ_section_title
;
Structure prediction by ZEFSAII (Michael W. Deem and Ramdas Pophale) SiO2 
 PCOD9510471
Probable space group: C C C A
;
_chemical_formula_sum "Si O2"
_cell_formula_units_Z 84
_cell_length_a 11.213867
_cell_length_b 16.947848
_cell_length_c 21.659554
_cell_angle_alpha 90.000000
_cell_angle_beta 90.000000
_cell_angle_gamma 90.000000
_cell_volume 4116.418022
_symmetry_space_group_name_H-M "C C C A"
_symmetry_group_IT_number 68
_space_group.IT_coordinate_system_code '2'
_symmetry_cell_setting 'orthorhombic'
loop_
_space_group_symop_operation_xyz
x,y,z
-x,1/2-y,z
x,1/2-y,1/2-z
-x,y,1/2-z
-x,-y,-z
x,1/2+y,-z
-x,1/2+y,1/2+z
x,-y,1/2+z
1/2+x,1/2+y,z
1/2-x,-y,z
1/2+x,-y,1/2-z
1/2-x,1/2+y,1/2-z
1/2-x,1/2-y,-z
1/2+x,y,-z
1/2-x,y,1/2+z
1/2+x,1/2-y,1/2+z
loop_
_atom_site_type_symbol
_atom_site_label
_atom_site_fract_x
_atom_site_fract_y
_atom_site_fract_z
Si Si1 0.498637 0.906981 0.067978
Si Si2 0.551174 0.340853 0.185658
Si Si3 0.000000 0.750000 0.750000
Si Si4 0.817713 0.834844 0.840393
Si Si5 0.080718 0.076443 0.926304
Si Si6 0.785000 0.702108 0.937903
O O1 0.386107 0.894206 0.113180
O O2 0.580947 0.829913 0.065384
O O3 0.574718 0.983455 0.088014
O O4 0.460313 0.917757 0.997285
O O5 0.500000 0.250000 0.182362
O O6 0.500000 0.373260 0.250000
O O7 0.692808 0.356996 0.190293
O O8 0.505075 0.381962 0.123315
O O9 0.085157 0.696113 0.792056
O O10 0.773568 0.762615 0.882581
O O11 0.201513 0.126643 0.926909
O O12 0.750000 0.750000 0.000000
#
# Coordination Sequence:
#
# PCOD9510471 Si02
#       6
#    16  16   4  16  16  16
#     4  11  25  43  64 105 139 178 232 283 358 405
#     4  11  24  44  70 101 134 180 236 283 348 426
#     4  12  24  44  66 100 136 176 228 298 332 408
#     4  12  24  42  71 100 134 178 233 291 345 411
#     4  11  25  42  68  99 142 181 224 290 345 412
#     4  12  22  41  70  99 136 179 230 285 339 411
#
# _framework density 20.406089000000001
#
# number of rings (size 3 to 8) (size 9 to 14) (size 15 to 20)
#    0.000    0.571    5.714    2.857    0.000    0.762 
#    1.714    0.000    0.000    0.000    0.000    0.000 
#    0.000    0.000    0.000    0.000    0.000    0.000 
#
# Total GULP energy -234400.895798 kJ/mol
# GULP energy per Si atom -5580.973709 kJ/mol
# Density = 2.035964 g / cm^3
# Si number density = 20.406089 Si / 1000 Ang^3
#
#
#
# Elastic Constant Matrix: (Units=GPa)
#
#
# Indices 1 2 3 4 5 6 
#
# 1 146.2682 36.5292 59.0156 0.0000 0.0000 0.0000
# 2 36.5292 80.8843 26.7602 0.0000 0.0000 0.0000
# 3 59.0156 26.7602 127.9228 0.0000 0.0000 0.0000
# 4 0.0000 0.0000 0.0000 -90.1364 0.0000 0.0000
# 5 0.0000 0.0000 0.0000 0.0000 32.4887 0.0000
# 6 0.0000 0.0000 0.0000 0.0000 0.0000 42.9318
#
#
#
# Elastic Compliance Matrix: (Units=1/GPa)
#
#
# Indices 1 2 3 4 5 6 
#
# 1 0.008987 -0.002887 -0.003542 0.000000 0.000000 0.000000
# 2 -0.002887 0.014210 -0.001641 0.000000 0.000000 0.000000
# 3 -0.003542 -0.001641 0.009795 0.000000 0.000000 0.000000
# 4 0.000000 0.000000 0.000000 -0.011094 0.000000 0.000000
# 5 0.000000 0.000000 0.000000 0.000000 0.030780 0.000000
# 6 0.000000 0.000000 0.000000 0.000000 0.000000 0.023293
#
#
# Mechanical properties :
#
#
# Convention : Reuss Voigt Hill
#
# Bulk Modulus (GPa) = 59.34015 66.63171 62.98593
# Shear Modulus (GPa) = 51.16323 12.57483 31.86903
#
# Velocity S-wave (km/s) = 5.01268 2.48509 3.95617
# Velocity P-wave (km/s) = 7.91488 6.39984 7.19734
#
# Compressibility (1/GPa) = 0.01685200
#
# Stress axis : x y z
#
# Youngs Moduli (GPa) = 111.27363 70.37332 102.09759
#
# Poissons Ratio (x) = 0.20315 0.36164
# Poissons Ratio (y) = 0.32122 0.16752
# Poissons Ratio (z) = 0.39414 0.11547
#
# Static dielectric constant tensor:
#      x y z
#    x 1.797420 0.000000 0.000000 
#    y 0.000000 1.740680 0.000000 
#    z 0.000000 0.000000 1.781000 
# 
# From -- ./inp_files/37387.got.cif
#   From: 2010.05.17/outbox.cif.g08.bks.cpg/sg68_19_cif.got.tgz:37387.got - 2010.06.03 18:57:09.
