data_PCOD9510021
_publ_section_title
;
Structure prediction by ZEFSAII (Michael W. Deem and Ramdas Pophale) SiO2 
 PCOD9510021
Probable space group: C C C A
;
_chemical_formula_sum "Si O2"
_cell_formula_units_Z 96
_cell_length_a 24.247019
_cell_length_b 9.595681
_cell_length_c 20.974132
_cell_angle_alpha 90.000000
_cell_angle_beta 90.000000
_cell_angle_gamma 90.000000
_cell_volume 4879.981229
_symmetry_space_group_name_H-M "C C C A"
_symmetry_group_IT_number 68
_space_group.IT_coordinate_system_code '2'
_symmetry_cell_setting 'orthorhombic'
loop_
_space_group_symop_operation_xyz
x,y,z
-x,1/2-y,z
x,1/2-y,1/2-z
-x,y,1/2-z
-x,-y,-z
x,1/2+y,-z
-x,1/2+y,1/2+z
x,-y,1/2+z
1/2+x,1/2+y,z
1/2-x,-y,z
1/2+x,-y,1/2-z
1/2-x,1/2+y,1/2-z
1/2-x,1/2-y,-z
1/2+x,y,-z
1/2-x,y,1/2+z
1/2+x,1/2-y,1/2+z
loop_
_atom_site_type_symbol
_atom_site_label
_atom_site_fract_x
_atom_site_fract_y
_atom_site_fract_z
Si Si1 0.811818 0.055622 0.072541
Si Si2 0.934067 0.091598 0.758474
Si Si3 0.453325 0.658090 0.415333
Si Si4 0.364368 0.219583 0.484977
Si Si5 0.953324 0.636002 0.105044
Si Si6 0.886541 0.168106 0.185590
O O1 0.839301 0.128540 0.134560
O O2 0.750000 0.000000 0.082084
O O3 0.842730 0.912417 0.054028
O O4 0.821190 0.169443 0.015518
O O5 0.915322 0.250000 0.750000
O O6 0.922504 0.072271 0.832989
O O7 0.000000 0.084789 0.750000
O O8 0.909634 0.978709 0.711410
O O9 0.500000 0.750000 0.448053
O O10 0.398273 0.654954 0.456308
O O11 0.480806 0.506412 0.416961
O O12 0.434120 0.740993 0.350945
O O13 0.408547 0.301618 0.441993
O O14 0.000000 0.750000 0.121069
O O15 0.869236 0.250000 0.250000
#
# Coordination Sequence:
#
# PCOD9510021 Si02
#       6
#    16  16  16  16  16  16
#     4  11  25  47  71  94 123 171 225 287 338 382
#     4  11  21  36  56  93 133 174 214 257 312 392
#     4  11  24  39  61  94 136 180 209 257 322 400
#     4  11  24  43  66  96 130 167 219 275 332 394
#     4  12  23  37  62  94 138 174 213 258 323 399
#     4  11  24  42  65  91 134 170 221 265 327 396
#
# _framework density 19.672207
#
# number of rings (size 3 to 8) (size 9 to 14) (size 15 to 20)
#    0.000    0.833    5.000    3.000    4.667    1.333 
#    0.000    2.500    0.000    0.000    0.000    0.000 
#    0.000    0.000    0.000    0.000    0.000    0.000 
#
# Total GULP energy -267592.521293 kJ/mol
# GULP energy per Si atom -5574.844194 kJ/mol
# Density = 1.962743 g / cm^3
# Si number density = 19.672207 Si / 1000 Ang^3
#
#
#
# Elastic Constant Matrix: (Units=GPa)
#
#
# Indices 1 2 3 4 5 6 
#
# 1 70.1536 34.2340 28.3785 0.0000 0.0000 0.0000
# 2 34.2340 134.1413 24.0151 0.0000 0.0000 0.0000
# 3 28.3785 24.0151 91.1560 0.0000 0.0000 0.0000
# 4 0.0000 0.0000 0.0000 37.1339 0.0000 0.0000
# 5 0.0000 0.0000 0.0000 0.0000 16.9667 0.0000
# 6 0.0000 0.0000 0.0000 0.0000 0.0000 27.9529
#
#
#
# Elastic Compliance Matrix: (Units=1/GPa)
#
#
# Indices 1 2 3 4 5 6 
#
# 1 0.017948 -0.003757 -0.004598 0.000000 0.000000 0.000000
# 2 -0.003757 0.008610 -0.001099 0.000000 0.000000 0.000000
# 3 -0.004598 -0.001099 0.012691 0.000000 0.000000 0.000000
# 4 0.000000 0.000000 0.000000 0.026930 0.000000 0.000000
# 5 0.000000 0.000000 0.000000 0.000000 0.058939 0.000000
# 6 0.000000 0.000000 0.000000 0.000000 0.000000 0.035774
#
#
# Mechanical properties :
#
#
# Convention : Reuss Voigt Hill
#
# Bulk Modulus (GPa) = 49.15953 52.07845 50.61899
# Shear Modulus (GPa) = 26.79816 30.33227 28.56521
#
# Velocity S-wave (km/s) = 3.69485 3.93094 3.81472
# Velocity P-wave (km/s) = 6.57618 6.86540 6.72234
#
# Compressibility (1/GPa) = 0.02034194
#
# Stress axis : x y z
#
# Youngs Moduli (GPa) = 55.71717 116.13828 78.79613
#
# Poissons Ratio (x) = 0.43637 0.36227
# Poissons Ratio (y) = 0.20935 0.08657
# Poissons Ratio (z) = 0.25617 0.12760
#
# Static dielectric constant tensor:
#      x y z
#    x 1.660850 0.000000 0.000000 
#    y 0.000000 2.405430 0.000000 
#    z 0.000000 0.000000 1.937220 
# 
# From -- ./inp_files/41224.got.cif
#   From: 2010.05.17/outbox.cif.g08.bks.cpg/sg68_21_cif.got.tgz:41224.got - 2010.06.03 18:57:09.
