data_PCOD9510482
_publ_section_title
;
Structure prediction by ZEFSAII (Michael W. Deem and Ramdas Pophale) SiO2 
 PCOD9510482
Probable space group: C C C A
;
_chemical_formula_sum "Si O2"
_cell_formula_units_Z 48
_cell_length_a 8.768844
_cell_length_b 22.209662
_cell_length_c 10.324919
_cell_angle_alpha 90.000000
_cell_angle_beta 90.000000
_cell_angle_gamma 90.000000
_cell_volume 2010.809584
_symmetry_space_group_name_H-M "C C C A"
_symmetry_group_IT_number 68
_space_group.IT_coordinate_system_code '2'
_symmetry_cell_setting 'orthorhombic'
loop_
_space_group_symop_operation_xyz
x,y,z
-x,1/2-y,z
x,1/2-y,1/2-z
-x,y,1/2-z
-x,-y,-z
x,1/2+y,-z
-x,1/2+y,1/2+z
x,-y,1/2+z
1/2+x,1/2+y,z
1/2-x,-y,z
1/2+x,-y,1/2-z
1/2-x,1/2+y,1/2-z
1/2-x,1/2-y,-z
1/2+x,y,-z
1/2-x,y,1/2+z
1/2+x,1/2-y,1/2+z
loop_
_atom_site_type_symbol
_atom_site_label
_atom_site_fract_x
_atom_site_fract_y
_atom_site_fract_z
Si Si1 0.032607 0.161907 0.890270
Si Si2 0.917215 0.973520 0.378273
Si Si3 0.121765 0.689115 0.657494
O O1 0.217293 0.160012 0.883882
O O2 0.000000 0.189528 0.750000
O O3 0.944207 0.098075 0.885974
O O4 0.966882 0.192412 0.019724
O O5 0.000000 0.994741 0.250000
O O6 0.750000 0.000000 0.376466
O O7 0.000000 0.000000 0.500000
O O8 0.151004 0.750000 0.750000
O O9 0.000000 0.654541 0.750000
#
# Coordination Sequence:
#
# PCOD9510482 Si02
#       3
#    16  16  16
#     4  11  25  46  71 107 148 193 246 305 370 441
#     4  11  24  44  73 109 147 189 240 305 376 445
#     4  11  26  46  73 106 145 198 253 305 365 434
#
# _framework density 23.870982000000001
#
# number of rings (size 3 to 8) (size 9 to 14) (size 15 to 20)
#    0.000    1.000    0.000    5.000    0.000   19.333 
#    0.000    1.667    0.000    0.000    0.000    0.000 
#    0.000    0.000    0.000    0.000    0.000    0.000 
#
# Total GULP energy -133811.504288 kJ/mol
# GULP energy per Si atom -5575.479345 kJ/mol
# Density = 2.381665 g / cm^3
# Si number density = 23.870982 Si / 1000 Ang^3
#
#
#
# Elastic Constant Matrix: (Units=GPa)
#
#
# Indices 1 2 3 4 5 6 
#
# 1 277.7798 75.0097 103.1404 0.0000 0.0000 0.0000
# 2 75.0097 150.9260 61.8666 0.0000 0.0000 0.0000
# 3 103.1404 61.8666 277.7686 0.0000 0.0000 0.0000
# 4 0.0000 0.0000 0.0000 14.2058 0.0000 0.0000
# 5 0.0000 0.0000 0.0000 0.0000 62.2644 0.0000
# 6 0.0000 0.0000 0.0000 0.0000 0.0000 87.0014
#
#
#
# Elastic Compliance Matrix: (Units=1/GPa)
#
#
# Indices 1 2 3 4 5 6 
#
# 1 0.004551 -0.001727 -0.001305 0.000000 0.000000 0.000000
# 2 -0.001727 0.007947 -0.001129 0.000000 0.000000 0.000000
# 3 -0.001305 -0.001129 0.004336 0.000000 0.000000 0.000000
# 4 0.000000 0.000000 0.000000 0.070394 0.000000 0.000000
# 5 0.000000 0.000000 0.000000 0.000000 0.016061 0.000000
# 6 0.000000 0.000000 0.000000 0.000000 0.000000 0.011494
#
#
# Mechanical properties :
#
#
# Convention : Reuss Voigt Hill
#
# Bulk Modulus (GPa) = 117.47796 131.83420 124.65608
# Shear Modulus (GPa) = 39.70112 63.79150 51.74631
#
# Velocity S-wave (km/s) = 4.08260 5.17508 4.66096
# Velocity P-wave (km/s) = 8.45837 9.54234 9.01666
#
# Compressibility (1/GPa) = 0.00851224
#
# Stress axis : x y z
#
# Youngs Moduli (GPa) = 219.73734 125.83930 230.61764
#
# Poissons Ratio (x) = 0.21729 0.30101
# Poissons Ratio (y) = 0.37943 0.26031
# Poissons Ratio (z) = 0.28681 0.14204
#
# Static dielectric constant tensor:
#      x y z
#    x 1.926760 0.000000 0.000000 
#    y 0.000000 1.855520 0.000000 
#    z 0.000000 0.000000 1.871320 
# 
# From -- ./inp_files/3285.got.cif
#   From: 2010.05.17/outbox.cif.g08.bks.cpg/sg68_2_cif.got.tgz:3285.got - 2010.06.03 18:57:09.
