data_PCOD9510615
_publ_section_title
;
Structure prediction by ZEFSAII (Michael W. Deem and Ramdas Pophale) SiO2 
 PCOD9510615
Probable space group: C C C A
;
_chemical_formula_sum "Si O2"
_cell_formula_units_Z 88
_cell_length_a 12.500383
_cell_length_b 28.654370
_cell_length_c 11.491648
_cell_angle_alpha 90.000000
_cell_angle_beta 90.000000
_cell_angle_gamma 90.000000
_cell_volume 4116.200288
_symmetry_space_group_name_H-M "C C C A"
_symmetry_group_IT_number 68
_space_group.IT_coordinate_system_code '2'
_symmetry_cell_setting 'orthorhombic'
loop_
_space_group_symop_operation_xyz
x,y,z
-x,1/2-y,z
x,1/2-y,1/2-z
-x,y,1/2-z
-x,-y,-z
x,1/2+y,-z
-x,1/2+y,1/2+z
x,-y,1/2+z
1/2+x,1/2+y,z
1/2-x,-y,z
1/2+x,-y,1/2-z
1/2-x,1/2+y,1/2-z
1/2-x,1/2-y,-z
1/2+x,y,-z
1/2-x,y,1/2+z
1/2+x,1/2-y,1/2+z
loop_
_atom_site_type_symbol
_atom_site_label
_atom_site_fract_x
_atom_site_fract_y
_atom_site_fract_z
Si Si1 0.528005 0.047543 0.435194
Si Si2 0.091911 0.677023 0.337660
Si Si3 0.746068 0.750000 0.250000
Si Si4 0.924154 0.204637 0.100309
Si Si5 0.659120 0.077005 0.237479
Si Si6 0.904581 0.401664 0.332667
O O1 0.618463 0.040366 0.335138
O O2 0.420213 0.067827 0.372392
O O3 0.572798 0.080731 0.536824
O O4 0.500000 0.000000 0.500000
O O5 0.190853 0.708714 0.308604
O O6 0.058999 0.688339 0.468534
O O7 0.123160 0.624775 0.301485
O O8 0.000000 0.691763 0.250000
O O9 0.685415 0.772950 0.141765
O O10 0.919005 0.154666 0.166729
O O11 0.000000 0.250000 0.123173
O O12 0.784518 0.082069 0.205475
O O13 0.000000 0.420444 0.250000
#
# Coordination Sequence:
#
# PCOD9510615 Si02
#       6
#    16  16   8  16  16  16
#     4  11  27  53  81 114 149 199 263 336 411 483
#     4  12  23  44  69 103 145 204 257 310 381 457
#     4  12  24  40  66 104 146 196 258 308 376 436
#     4  12  25  44  68 106 154 204 258 316 369 464
#     4  11  25  52  80 111 156 202 261 325 404 486
#     4  12  27  47  78 111 157 208 258 326 396 466
#
# _framework density 21.37894
#
# number of rings (size 3 to 8) (size 9 to 14) (size 15 to 20)
#    0.000    0.364    5.455    3.273    5.091    0.727 
#    0.000    0.000    0.000    0.000    0.000    0.000 
#    0.000    0.000    0.000    0.000    0.000    0.000 
#
# Total GULP energy -245310.709052 kJ/mol
# GULP energy per Si atom -5575.243388 kJ/mol
# Density = 2.133028 g / cm^3
# Si number density = 21.378940 Si / 1000 Ang^3
#
#
#
# Elastic Constant Matrix: (Units=GPa)
#
#
# Indices 1 2 3 4 5 6 
#
# 1 157.3402 44.8994 89.3478 0.0000 0.0000 0.0000
# 2 44.8994 116.6051 30.8026 0.0000 0.0000 0.0000
# 3 89.3478 30.8026 140.7948 0.0000 0.0000 0.0000
# 4 0.0000 0.0000 0.0000 837.9269 0.0000 0.0000
# 5 0.0000 0.0000 0.0000 0.0000 52.2414 0.0000
# 6 0.0000 0.0000 0.0000 0.0000 0.0000 33.5176
#
#
#
# Elastic Compliance Matrix: (Units=1/GPa)
#
#
# Indices 1 2 3 4 5 6 
#
# 1 0.010550 -0.002434 -0.006162 0.000000 0.000000 0.000000
# 2 -0.002434 0.009664 -0.000569 0.000000 0.000000 0.000000
# 3 -0.006162 -0.000569 0.011138 0.000000 0.000000 0.000000
# 4 0.000000 0.000000 0.000000 0.001193 0.000000 0.000000
# 5 0.000000 0.000000 0.000000 0.000000 0.019142 0.000000
# 6 0.000000 0.000000 0.000000 0.000000 0.000000 0.029835
#
#
# Mechanical properties :
#
#
# Convention : Reuss Voigt Hill
#
# Bulk Modulus (GPa) = 76.80997 82.75997 79.78497
# Shear Modulus (GPa) = 47.98795 201.38318 124.68557
#
# Velocity S-wave (km/s) = 4.74290 9.71604 7.64515
# Velocity P-wave (km/s) = 8.12400 12.83213 10.73925
#
# Compressibility (1/GPa) = 0.01301914
#
# Stress axis : x y z
#
# Youngs Moduli (GPa) = 94.79028 103.47975 89.78623
#
# Poissons Ratio (x) = 0.25191 0.55328
# Poissons Ratio (y) = 0.23076 0.05112
# Poissons Ratio (z) = 0.58411 0.05892
#
# Static dielectric constant tensor:
#      x y z
#    x 1.799440 0.000000 0.000000 
#    y 0.000000 1.851010 0.000000 
#    z 0.000000 0.000000 1.781240 
# 
# From -- ./inp_files/12070.got.cif
#   From: 2010.05.17/outbox.cif.g08.bks.cpg/sg68_7_cif.got.tgz:12070.got - 2010.06.03 18:57:09.
