data_PCOD9510987
_publ_section_title
;
Structure prediction by ZEFSAII (Michael W. Deem and Ramdas Pophale) SiO2 
 PCOD9510987
Probable space group: F M M M
;
_chemical_formula_sum "Si O2"
_cell_formula_units_Z 88
_cell_length_a 42.467458
_cell_length_b 5.476735
_cell_length_c 18.507828
_cell_angle_alpha 90.000000
_cell_angle_beta 90.000000
_cell_angle_gamma 90.000000
_cell_volume 4304.606411
_symmetry_space_group_name_H-M "F M M M"
_symmetry_group_IT_number 69
_symmetry_cell_setting 'orthorhombic'
loop_
_space_group_symop_operation_xyz
x,y,z
-x,-y,z
x,-y,-z
-x,y,-z
-x,-y,-z
x,y,-z
-x,y,z
x,-y,z
x,1/2+y,1/2+z
-x,1/2-y,1/2+z
x,1/2-y,1/2-z
-x,1/2+y,1/2-z
-x,1/2-y,1/2-z
x,1/2+y,1/2-z
-x,1/2+y,1/2+z
x,1/2-y,1/2+z
1/2+x,y,1/2+z
1/2-x,-y,1/2+z
1/2+x,-y,1/2-z
1/2-x,y,1/2-z
1/2-x,-y,1/2-z
1/2+x,y,1/2-z
1/2-x,y,1/2+z
1/2+x,-y,1/2+z
1/2+x,1/2+y,z
1/2-x,1/2-y,z
1/2+x,1/2-y,-z
1/2-x,1/2+y,-z
1/2-x,1/2-y,-z
1/2+x,1/2+y,-z
1/2-x,1/2+y,z
1/2+x,1/2-y,z
loop_
_atom_site_type_symbol
_atom_site_label
_atom_site_fract_x
_atom_site_fract_y
_atom_site_fract_z
Si Si1 0.229748 0.500000 0.839492
Si Si2 0.661854 0.000000 0.822494
Si Si3 0.437425 0.500000 0.161631
Si Si4 0.962832 0.000000 0.674226
Si Si5 0.136462 0.000000 0.162750
Si Si6 0.730053 0.000000 0.000000
O O1 0.250000 0.750000 0.830794
O O2 0.197842 0.500000 0.794282
O O3 0.215189 0.500000 0.920928
O O4 0.653295 0.748682 0.862294
O O5 0.640749 0.000000 0.749912
O O6 0.452871 0.248802 0.135201
O O7 0.444829 0.500000 0.248294
O O8 0.400395 0.500000 0.147271
O O9 0.000000 0.000000 0.689142
O O10 0.750000 0.750000 0.000000
#
# Coordination Sequence:
#
# PCOD9510987 Si02
#       6
#    16  16  16  16  16   8
#     4  10  19  32  47  64  80  99 122 158 204 243
#     4  10  18  30  43  57  77 100 133 166 190 225
#     4  10  16  25  36  46  68  99 128 163 193 218
#     4  10  16  22  33  51  68  89 126 173 200 218
#     4  10  19  30  40  55  77 109 140 166 185 218
#     4   8  16  30  48  64  80  96 118 148 193 248
#
# _framework density 20.443216
#
# number of rings (size 3 to 8) (size 9 to 14) (size 15 to 20)
#    0.000    2.182    0.000    9.273    0.000    0.000 
#    0.000   10.909    0.000    0.000    0.000    0.000 
#    0.000    0.000    0.000    0.000    0.000    0.000 
#
# Total GULP energy -122545.234572 kJ/mol
# GULP energy per Si atom -5570.237935 kJ/mol
# Density = 2.039669 g / cm^3
# Si number density = 20.443216 Si / 1000 Ang^3
#
#
#
# Elastic Constant Matrix: (Units=GPa)
#
#
# Indices 1 2 3 4 5 6 
#
# 1 143.2611 80.1655 -12.7650 0.0000 -0.0002 -0.0001
# 2 80.1655 262.5453 -10.2094 -0.0017 0.0006 0.0006
# 3 -12.7650 -10.2094 24.1414 -0.0009 0.0001 0.0001
# 4 0.0000 -0.0017 -0.0009 -0.1063 0.0002 0.0001
# 5 -0.0002 0.0006 0.0001 0.0002 3.5159 0.0001
# 6 -0.0001 0.0006 0.0001 0.0001 0.0001 39.0616
#
#
#
# Elastic Compliance Matrix: (Units=1/GPa)
#
#
# Indices 1 2 3 4 5 6 
#
# 1 0.008706 -0.002521 0.003537 0.000007 0.000001 0.000000
# 2 -0.002521 0.004602 0.000613 -0.000077 -0.000001 0.000000
# 3 0.003537 0.000613 0.043552 -0.000374 -0.000001 0.000000
# 4 0.000007 -0.000077 -0.000374 -9.407755 0.000428 0.000022
# 5 0.000001 -0.000001 -0.000001 0.000428 0.284424 -0.000001
# 6 0.000000 0.000000 0.000000 0.000022 -0.000001 0.025601
#
#
# Mechanical properties :
#
#
# Convention : Reuss Voigt Hill
#
# Bulk Modulus (GPa) = 16.63309 60.48110 38.55710
# Shear Modulus (GPa) = -0.55407 33.34469 16.39531
#
# Velocity S-wave (km/s) = -0.52117 4.04305 2.83502
# Velocity P-wave (km/s) = 2.79137 7.17246 5.44224
#
# Compressibility (1/GPa) = 0.06012111
#
# Stress axis : x y z
#
# Youngs Moduli (GPa) = 114.86341 217.27791 22.96082
#
# Poissons Ratio (x) = 0.54770 -0.08122
# Poissons Ratio (y) = 0.28954 -0.01409
# Poissons Ratio (z) = -0.40631 -0.13330
#
# Static dielectric constant tensor:
#      x y z
#    x 1.676420 0.000000 0.000000 
#    y 0.000000 1.990320 0.000000 
#    z 0.000000 0.000000 1.767800 
# 
# From -- ./inp_files/44102.got.cif
#   From: 2010.05.17/outbox.cif.g08.bks.cpg/sg69_23_cif.got.tgz:44102.got - 2010.06.03 19:29:58.
