data_PCOD9510993
_publ_section_title
;
Structure prediction by ZEFSAII (Michael W. Deem and Ramdas Pophale) SiO2 
 PCOD9510993
Probable space group: F M M M
;
_chemical_formula_sum "Si O2"
_cell_formula_units_Z 160
_cell_length_a 16.285198
_cell_length_b 28.127336
_cell_length_c 14.589538
_cell_angle_alpha 90.000000
_cell_angle_beta 90.000000
_cell_angle_gamma 90.000000
_cell_volume 6682.872629
_symmetry_space_group_name_H-M "F M M M"
_symmetry_group_IT_number 69
_symmetry_cell_setting 'orthorhombic'
loop_
_space_group_symop_operation_xyz
x,y,z
-x,-y,z
x,-y,-z
-x,y,-z
-x,-y,-z
x,y,-z
-x,y,z
x,-y,z
x,1/2+y,1/2+z
-x,1/2-y,1/2+z
x,1/2-y,1/2-z
-x,1/2+y,1/2-z
-x,1/2-y,1/2-z
x,1/2+y,1/2-z
-x,1/2+y,1/2+z
x,1/2-y,1/2+z
1/2+x,y,1/2+z
1/2-x,-y,1/2+z
1/2+x,-y,1/2-z
1/2-x,y,1/2-z
1/2-x,-y,1/2-z
1/2+x,y,1/2-z
1/2-x,y,1/2+z
1/2+x,-y,1/2+z
1/2+x,1/2+y,z
1/2-x,1/2-y,z
1/2+x,1/2-y,-z
1/2-x,1/2+y,-z
1/2-x,1/2-y,-z
1/2+x,1/2+y,-z
1/2-x,1/2+y,z
1/2+x,1/2-y,z
loop_
_atom_site_type_symbol
_atom_site_label
_atom_site_fract_x
_atom_site_fract_y
_atom_site_fract_z
Si Si1 0.500000 0.058989 0.657287
Si Si2 0.659963 0.236492 0.641020
Si Si3 0.847698 0.374879 0.356640
Si Si4 0.500000 0.219673 0.842146
Si Si5 0.330723 0.098984 0.144864
Si Si6 0.100980 0.500000 0.890593
Si Si7 0.500000 0.615478 0.346578
O O1 0.419170 0.086998 0.618816
O O2 0.500000 0.076862 0.764058
O O3 0.500000 0.000000 0.649924
O O4 0.664605 0.250000 0.750000
O O5 0.750000 0.250000 0.605045
O O6 0.639546 0.180943 0.624126
O O7 0.583672 0.267557 0.606649
O O8 0.757854 0.389273 0.393820
O O9 0.837324 0.378529 0.246131
O O10 0.500000 0.250000 0.750000
O O11 0.500000 0.167002 0.803582
O O12 0.348858 0.043520 0.151851
O O13 0.416062 0.113487 0.097929
O O14 0.000000 0.500000 0.880666
O O15 0.113020 0.500000 0.000000
#
# Coordination Sequence:
#
# PCOD9510993 Si02
#       7
#    16  32  32  16  32  16  16
#     4  10  20  28  38  60 102 134 161 200 226 288
#     4  10  16  26  41  61  98 137 160 196 228 288
#     4  10  20  29  46  76 103 131 176 187 250 305
#     4  10  16  24  40  58  94 136 162 187 229 279
#     4  10  19  31  49  67  98 125 161 209 240 300
#     4  11  24  39  52  69  91 130 174 213 257 296
#     4  10  18  28  42  68  94 132 174 191 244 287
#
# _framework density 23.941799
#
# number of rings (size 3 to 8) (size 9 to 14) (size 15 to 20)
#    0.000    1.900    1.000    9.000    7.000    0.800 
#    0.000    0.000    0.000    0.000    0.000    1.400 
#    0.000   30.400    0.000    0.000    0.000    0.000 
#
# Total GULP energy -222824.513216 kJ/mol
# GULP energy per Si atom -5570.612830 kJ/mol
# Density = 2.388731 g / cm^3
# Si number density = 23.941799 Si / 1000 Ang^3
#
#
#
# Elastic Constant Matrix: (Units=GPa)
#
#
# Indices 1 2 3 4 5 6 
#
# 1 248.2285 43.5638 0.7190 0.0000 0.0000 0.0000
# 2 43.5638 188.2741 -8.6617 0.0000 0.0000 0.0000
# 3 0.7190 -8.6617 70.7405 0.0000 0.0000 0.0000
# 4 0.0000 0.0000 0.0000 -65.9508 0.0000 0.0000
# 5 0.0000 0.0000 0.0000 0.0000 -24.4448 0.0000
# 6 0.0000 0.0000 0.0000 0.0000 0.0000 69.4449
#
#
#
# Elastic Compliance Matrix: (Units=1/GPa)
#
#
# Indices 1 2 3 4 5 6 
#
# 1 0.004201 -0.000980 -0.000163 0.000000 0.000000 0.000000
# 2 -0.000980 0.005570 0.000692 0.000000 0.000000 0.000000
# 3 -0.000163 0.000692 0.014223 0.000000 0.000000 0.000000
# 4 0.000000 0.000000 0.000000 -0.015163 0.000000 0.000000
# 5 0.000000 0.000000 0.000000 0.000000 -0.040909 0.000000
# 6 0.000000 0.000000 0.000000 0.000000 0.000000 0.014400
#
#
# Mechanical properties :
#
#
# Convention : Reuss Voigt Hill
#
# Bulk Modulus (GPa) = 43.30322 64.27615 53.78968
# Shear Modulus (GPa) = -550.65664 27.25133 -261.70266
#
# Velocity S-wave (km/s) = -15.18214 3.37743 -10.46638
# Velocity P-wave (km/s) = 17.00599 6.48957 11.11506
#
# Compressibility (1/GPa) = 0.02309297
#
# Stress axis : x y z
#
# Youngs Moduli (GPa) = 238.04308 179.53693 70.31083
#
# Poissons Ratio (x) = 0.17586 0.01143
# Poissons Ratio (y) = 0.23317 -0.04865
# Poissons Ratio (z) = 0.03871 -0.12423
#
# Static dielectric constant tensor:
#      x y z
#    x 2.216120 0.000000 0.000000 
#    y 0.000000 1.551650 0.000000 
#    z 0.000000 0.000000 1.872070 
# 
# From -- ./inp_files/31068.got.cif
#   From: 2010.05.17/outbox.cif.g08.bks.cpg/sg69_16_cif.got.tgz:31068.got - 2010.06.03 19:29:58.
