data_PCOD9510245
_publ_section_title
;
Structure prediction by ZEFSAII (Michael W. Deem and Ramdas Pophale) SiO2 
 PCOD9510245
Probable space group: C C C A
;
_chemical_formula_sum "Si O2"
_cell_formula_units_Z 56
_cell_length_a 14.883667
_cell_length_b 11.344756
_cell_length_c 13.224153
_cell_angle_alpha 90.000000
_cell_angle_beta 90.000000
_cell_angle_gamma 90.000000
_cell_volume 2232.919003
_symmetry_space_group_name_H-M "C C C A"
_symmetry_group_IT_number 68
_space_group.IT_coordinate_system_code '2'
_symmetry_cell_setting 'orthorhombic'
loop_
_space_group_symop_operation_xyz
x,y,z
-x,1/2-y,z
x,1/2-y,1/2-z
-x,y,1/2-z
-x,-y,-z
x,1/2+y,-z
-x,1/2+y,1/2+z
x,-y,1/2+z
1/2+x,1/2+y,z
1/2-x,-y,z
1/2+x,-y,1/2-z
1/2-x,1/2+y,1/2-z
1/2-x,1/2-y,-z
1/2+x,y,-z
1/2-x,y,1/2+z
1/2+x,1/2-y,1/2+z
loop_
_atom_site_type_symbol
_atom_site_label
_atom_site_fract_x
_atom_site_fract_y
_atom_site_fract_z
Si Si1 0.250000 0.500000 0.113717
Si Si2 0.129700 0.797635 0.364774
Si Si3 0.048437 0.567381 0.410359
Si Si4 0.607802 0.386085 0.738565
O O1 0.201588 0.620015 0.077640
O O2 0.331623 0.550107 0.179986
O O3 0.153237 0.750000 0.250000
O O4 0.107656 0.682660 0.431725
O O5 0.036955 0.872557 0.353003
O O6 0.112928 0.470993 0.358621
O O7 0.000000 0.500000 0.500000
O O8 0.633632 0.250000 0.750000
O O9 0.500000 0.387039 0.750000
#
# Coordination Sequence:
#
# PCOD9510245 Si02
#       4
#     8  16  16  16
#     4  12  22  42  74 110 132 182 260 302 356 426
#     4  11  22  44  76 101 135 190 249 303 355 443
#     4  11  23  44  69 104 144 194 237 299 383 441
#     4  11  23  40  69 102 139 180 246 298 357 433
#
# _framework density 25.079280000000001
#
# number of rings (size 3 to 8) (size 9 to 14) (size 15 to 20)
#    0.000    0.857    5.714    2.571    0.000    4.571 
#    0.000    2.857    0.000    0.000    0.000    0.000 
#    0.000    0.000    0.000    0.000    0.000    0.000 
#
# Total GULP energy -156005.709679 kJ/mol
# GULP energy per Si atom -5571.632489 kJ/mol
# Density = 2.502220 g / cm^3
# Si number density = 25.079280 Si / 1000 Ang^3
#
#
#
# Elastic Constant Matrix: (Units=GPa)
#
#
# Indices 1 2 3 4 5 6 
#
# 1 103.8267 61.0716 10.2877 0.0000 0.0000 0.0000
# 2 61.0716 257.5707 47.1189 0.0000 0.0000 0.0000
# 3 10.2877 47.1189 29.2998 0.0000 0.0000 0.0000
# 4 0.0000 0.0000 0.0000 -19.6055 0.0000 0.0000
# 5 0.0000 0.0000 0.0000 0.0000 24.2589 0.0000
# 6 0.0000 0.0000 0.0000 0.0000 0.0000 65.2929
#
#
#
# Elastic Compliance Matrix: (Units=1/GPa)
#
#
# Indices 1 2 3 4 5 6 
#
# 1 0.011197 -0.002743 0.000479 0.000000 0.000000 0.000000
# 2 -0.002743 0.006172 -0.008963 0.000000 0.000000 0.000000
# 3 0.000479 -0.008963 0.048376 0.000000 0.000000 0.000000
# 4 0.000000 0.000000 0.000000 -0.051006 0.000000 0.000000
# 5 0.000000 0.000000 0.000000 0.000000 0.041222 0.000000
# 6 0.000000 0.000000 0.000000 0.000000 0.000000 0.015316
#
#
# Mechanical properties :
#
#
# Convention : Reuss Voigt Hill
#
# Bulk Modulus (GPa) = 23.09896 69.73929 46.41912
# Shear Modulus (GPa) = 46.22705 32.13719 39.18212
#
# Velocity S-wave (km/s) = 4.29795 3.58358 3.95692
# Velocity P-wave (km/s) = 5.81895 6.70751 6.27897
#
# Compressibility (1/GPa) = 0.04329200
#
# Stress axis : x y z
#
# Youngs Moduli (GPa) = 89.30838 162.01133 20.67128
#
# Poissons Ratio (x) = 0.44432 -0.00990
# Poissons Ratio (y) = 0.24493 0.18528
# Poissons Ratio (z) = -0.04277 1.45216
#
# Static dielectric constant tensor:
#      x y z
#    x 1.988110 0.000000 0.000000 
#    y 0.000000 2.032300 0.000000 
#    z 0.000000 0.000000 2.088590 
# 
# From -- ./inp_files/20126.got.cif
#   From: 2010.05.17/outbox.cif.g08.bks.cpg/sg68_11_cif.got.tgz:20126.got - 2010.06.03 18:57:09.
