data_PCOD9510164
_publ_section_title
;
Structure prediction by ZEFSAII (Michael W. Deem and Ramdas Pophale) SiO2 
 PCOD9510164
Probable space group: C C C A
;
_chemical_formula_sum "Si O2"
_cell_formula_units_Z 88
_cell_length_a 19.622014
_cell_length_b 10.289265
_cell_length_c 23.312212
_cell_angle_alpha 90.000000
_cell_angle_beta 90.000000
_cell_angle_gamma 90.000000
_cell_volume 4706.644729
_symmetry_space_group_name_H-M "C C C A"
_symmetry_group_IT_number 68
_space_group.IT_coordinate_system_code '2'
_symmetry_cell_setting 'orthorhombic'
loop_
_space_group_symop_operation_xyz
x,y,z
-x,1/2-y,z
x,1/2-y,1/2-z
-x,y,1/2-z
-x,-y,-z
x,1/2+y,-z
-x,1/2+y,1/2+z
x,-y,1/2+z
1/2+x,1/2+y,z
1/2-x,-y,z
1/2+x,-y,1/2-z
1/2-x,1/2+y,1/2-z
1/2-x,1/2-y,-z
1/2+x,y,-z
1/2-x,y,1/2+z
1/2+x,1/2-y,1/2+z
loop_
_atom_site_type_symbol
_atom_site_label
_atom_site_fract_x
_atom_site_fract_y
_atom_site_fract_z
Si Si1 0.671855 0.501488 0.872803
Si Si2 0.500000 0.750000 0.842580
Si Si3 0.798113 0.876180 0.508731
Si Si4 0.857363 0.692479 0.105238
Si Si5 0.000000 0.948298 0.250000
Si Si6 0.750000 0.000000 0.827392
Si Si7 0.871603 0.099000 0.248640
O O1 0.750000 0.500000 0.854117
O O2 0.657661 0.652043 0.889549
O O3 0.633847 0.447615 0.817309
O O4 0.670062 0.407504 0.928833
O O5 0.564230 0.813882 0.874201
O O6 0.529624 0.642833 0.799519
O O7 0.750000 0.750000 0.500000
O O8 0.853681 0.857350 0.459759
O O9 0.750000 0.000000 0.497097
O O10 0.797910 0.605747 0.137647
O O11 0.062219 0.029622 0.225607
O O12 0.695211 0.068960 0.786055
O O13 0.883230 0.250000 0.250000
#
# Coordination Sequence:
#
# PCOD9510164 Si02
#       7
#    16   8  16  16   8   8  16
#     4  11  22  40  65  95 132 168 213 278 343 388
#     4  11  24  42  70  90 134 184 217 266 348 424
#     4  11  22  39  68  97 128 171 219 279 345 393
#     4  12  23  43  67  98 133 170 229 278 333 412
#     4  11  23  44  64  92 131 187 216 258 350 421
#     4  12  26  36  68 108 130 172 232 284 334 408
#     4  12  25  40  65  97 138 173 222 283 336 402
#
# _framework density 18.696971000000001
#
# number of rings (size 3 to 8) (size 9 to 14) (size 15 to 20)
#    0.000    0.545    9.091    1.364    0.000    0.000 
#    0.000    0.909    4.000    0.000    0.000    0.000 
#    0.000    0.000    0.000    0.000    0.000    0.000 
#
# Total GULP energy -245010.982551 kJ/mol
# GULP energy per Si atom -5568.431422 kJ/mol
# Density = 1.865442 g / cm^3
# Si number density = 18.696971 Si / 1000 Ang^3
#
#
#
# Elastic Constant Matrix: (Units=GPa)
#
#
# Indices 1 2 3 4 5 6 
#
# 1 87.7469 23.4422 31.7741 0.0000 0.0000 0.0000
# 2 23.4422 113.2805 49.8877 0.0000 0.0000 0.0000
# 3 31.7741 49.8877 116.9119 0.0000 0.0000 0.0000
# 4 0.0000 0.0000 0.0000 22.7082 0.0000 0.0000
# 5 0.0000 0.0000 0.0000 0.0000 29.5959 0.0000
# 6 0.0000 0.0000 0.0000 0.0000 0.0000 35.0098
#
#
#
# Elastic Compliance Matrix: (Units=1/GPa)
#
#
# Indices 1 2 3 4 5 6 
#
# 1 0.012812 -0.001377 -0.002895 0.000000 0.000000 0.000000
# 2 -0.001377 0.011018 -0.004328 0.000000 0.000000 0.000000
# 3 -0.002895 -0.004328 0.011187 0.000000 0.000000 0.000000
# 4 0.000000 0.000000 0.000000 0.044037 0.000000 0.000000
# 5 0.000000 0.000000 0.000000 0.000000 0.033788 0.000000
# 6 0.000000 0.000000 0.000000 0.000000 0.000000 0.028563
#
#
# Mechanical properties :
#
#
# Convention : Reuss Voigt Hill
#
# Bulk Modulus (GPa) = 56.11725 58.68302 57.40014
# Shear Modulus (GPa) = 30.38704 31.65180 31.01942
#
# Velocity S-wave (km/s) = 4.03580 4.11893 4.07758
# Velocity P-wave (km/s) = 7.19695 7.35359 7.27569
#
# Compressibility (1/GPa) = 0.01781983
#
# Stress axis : x y z
#
# Youngs Moduli (GPa) = 78.04942 90.75797 89.39127
#
# Poissons Ratio (x) = 0.12494 0.25876
# Poissons Ratio (y) = 0.10744 0.38684
# Poissons Ratio (z) = 0.22593 0.39276
#
# Static dielectric constant tensor:
#      x y z
#    x 1.663960 0.000000 0.000000 
#    y 0.000000 1.678860 0.000000 
#    z 0.000000 0.000000 1.683920 
# 
# From -- ./inp_files/46523.got.cif
#   From: 2010.05.17/outbox.cif.g08.bks.cpg/sg68_24_cif.got.tgz:46523.got - 2010.06.03 18:57:09.
