data_PCOD9510681
_publ_section_title
;
Structure prediction by ZEFSAII (Michael W. Deem and Ramdas Pophale) SiO2 
 PCOD9510681
Probable space group: C C C A
;
_chemical_formula_sum "Si O2"
_cell_formula_units_Z 72
_cell_length_a 22.555755
_cell_length_b 15.700496
_cell_length_c 9.193293
_cell_angle_alpha 90.000000
_cell_angle_beta 90.000000
_cell_angle_gamma 90.000000
_cell_volume 3255.680985
_symmetry_space_group_name_H-M "C C C A"
_symmetry_group_IT_number 68
_space_group.IT_coordinate_system_code '2'
_symmetry_cell_setting 'orthorhombic'
loop_
_space_group_symop_operation_xyz
x,y,z
-x,1/2-y,z
x,1/2-y,1/2-z
-x,y,1/2-z
-x,-y,-z
x,1/2+y,-z
-x,1/2+y,1/2+z
x,-y,1/2+z
1/2+x,1/2+y,z
1/2-x,-y,z
1/2+x,-y,1/2-z
1/2-x,1/2+y,1/2-z
1/2-x,1/2-y,-z
1/2+x,y,-z
1/2-x,y,1/2+z
1/2+x,1/2-y,1/2+z
loop_
_atom_site_type_symbol
_atom_site_label
_atom_site_fract_x
_atom_site_fract_y
_atom_site_fract_z
Si Si1 0.933170 0.399194 0.262740
Si Si2 0.848403 0.250000 0.750000
Si Si3 0.194052 0.438282 0.218868
Si Si4 0.262419 0.657729 0.933601
Si Si5 0.433938 0.755614 0.014576
O O1 0.875808 0.460631 0.272394
O O2 0.931167 0.333337 0.127752
O O3 0.925863 0.333424 0.398346
O O4 0.000000 0.437226 0.250000
O O5 0.807305 0.172120 0.799843
O O6 0.887426 0.230783 0.611052
O O7 0.250000 0.500000 0.245036
O O8 0.203345 0.374876 0.355603
O O9 0.209152 0.398352 0.061035
O O10 0.250000 0.750000 0.000000
O O11 0.500000 0.750000 0.952493
#
# Coordination Sequence:
#
# PCOD9510681 Si02
#       5
#    16   8  16  16  16
#     4   9  19  37  63  91 128 180 222 264 325 405
#     4  12  19  32  60  92 131 162 212 272 332 374
#     4  12  25  42  64  96 136 172 222 280 337 397
#     4  12  24  40  64  94 127 174 222 279 331 394
#     4   9  18  32  58  97 134 166 217 275 327 389
#
# _framework density 22.115189000000001
#
# number of rings (size 3 to 8) (size 9 to 14) (size 15 to 20)
#    0.000    1.333    4.444    3.667    3.111    0.000 
#    0.000    0.000    0.000    8.000    0.000    0.000 
#    0.000    0.000    0.000    0.000    0.000    0.000 
#
# Total GULP energy -200875.056296 kJ/mol
# GULP energy per Si atom -5579.862675 kJ/mol
# Density = 2.206485 g / cm^3
# Si number density = 22.115189 Si / 1000 Ang^3
#
#
#
# Elastic Constant Matrix: (Units=GPa)
#
#
# Indices 1 2 3 4 5 6 
#
# 1 188.5975 23.9636 40.4659 0.0000 0.0000 0.0000
# 2 23.9636 23.9624 3.5797 0.0000 0.0000 0.0000
# 3 40.4659 3.5797 88.6700 0.0000 0.0000 0.0000
# 4 0.0000 0.0000 0.0000 2.6617 0.0000 0.0000
# 5 0.0000 0.0000 0.0000 0.0000 49.4891 0.0000
# 6 0.0000 0.0000 0.0000 0.0000 0.0000 30.4462
#
#
#
# Elastic Compliance Matrix: (Units=1/GPa)
#
#
# Indices 1 2 3 4 5 6 
#
# 1 0.006703 -0.006284 -0.002805 0.000000 0.000000 0.000000
# 2 -0.006284 0.047877 0.000935 0.000000 0.000000 0.000000
# 3 -0.002805 0.000935 0.012520 0.000000 0.000000 0.000000
# 4 0.000000 0.000000 0.000000 0.375706 0.000000 0.000000
# 5 0.000000 0.000000 0.000000 0.000000 0.020206 0.000000
# 6 0.000000 0.000000 0.000000 0.000000 0.000000 0.032845
#
#
# Mechanical properties :
#
#
# Convention : Reuss Voigt Hill
#
# Bulk Modulus (GPa) = 19.68847 48.58316 34.13582
# Shear Modulus (GPa) = 9.45009 32.06743 20.75876
#
# Velocity S-wave (km/s) = 2.06940 3.81204 3.06709
# Velocity P-wave (km/s) = 3.82516 6.43362 5.29261
#
# Compressibility (1/GPa) = 0.05079115
#
# Stress axis : x y z
#
# Youngs Moduli (GPa) = 149.19520 20.88705 79.87091
#
# Poissons Ratio (x) = 0.13125 0.22405
# Poissons Ratio (y) = 0.93753 -0.07468
# Poissons Ratio (z) = 0.41852 -0.01953
#
# Static dielectric constant tensor:
#      x y z
#    x 1.872780 0.000000 0.000000 
#    y 0.000000 1.886030 0.000000 
#    z 0.000000 0.000000 1.956150 
# 
# From -- ./inp_files/7855.got.cif
#   From: 2010.05.17/outbox.cif.g08.bks.cpg/sg68_4_cif.got.tgz:7855.got - 2010.06.03 18:57:09.
