data_PCOD9510305
_publ_section_title
;
Structure prediction by ZEFSAII (Michael W. Deem and Ramdas Pophale) SiO2 
 PCOD9510305
Probable space group: C C C A
;
_chemical_formula_sum "Si O2"
_cell_formula_units_Z 112
_cell_length_a 12.005777
_cell_length_b 29.532209
_cell_length_c 13.874410
_cell_angle_alpha 90.000000
_cell_angle_beta 90.000000
_cell_angle_gamma 90.000000
_cell_volume 4919.270790
_symmetry_space_group_name_H-M "C C C A"
_symmetry_group_IT_number 68
_space_group.IT_coordinate_system_code '2'
_symmetry_cell_setting 'orthorhombic'
loop_
_space_group_symop_operation_xyz
x,y,z
-x,1/2-y,z
x,1/2-y,1/2-z
-x,y,1/2-z
-x,-y,-z
x,1/2+y,-z
-x,1/2+y,1/2+z
x,-y,1/2+z
1/2+x,1/2+y,z
1/2-x,-y,z
1/2+x,-y,1/2-z
1/2-x,1/2+y,1/2-z
1/2-x,1/2-y,-z
1/2+x,y,-z
1/2-x,y,1/2+z
1/2+x,1/2-y,1/2+z
loop_
_atom_site_type_symbol
_atom_site_label
_atom_site_fract_x
_atom_site_fract_y
_atom_site_fract_z
Si Si1 0.777819 0.066173 0.360018
Si Si2 0.782427 0.303359 0.375322
Si Si3 0.806573 0.401670 0.438065
Si Si4 0.109399 0.562491 0.193184
Si Si5 0.507792 0.529391 0.363831
Si Si6 0.115806 0.339473 0.305753
Si Si7 0.603559 0.720627 0.011542
O O1 0.713475 0.084665 0.452270
O O2 0.693494 0.047295 0.279393
O O3 0.834268 0.110713 0.313345
O O4 0.880090 0.035062 0.396600
O O5 0.833095 0.348923 0.422947
O O6 0.803340 0.309183 0.262045
O O7 0.658882 0.299809 0.416592
O O8 0.833579 0.258527 0.422870
O O9 0.692093 0.410005 0.376987
O O10 0.907107 0.433674 0.403866
O O11 0.060598 0.520570 0.131367
O O12 0.000000 0.582249 0.250000
O O13 0.500000 0.537351 0.250000
O O14 0.094048 0.319497 0.411113
O O15 0.000000 0.339492 0.250000
O O16 0.500000 0.750000 0.980032
#
# Coordination Sequence:
#
# PCOD9510305 Si02
#       7
#    16  16  16  16  16  16  16
#     4  12  26  46  76 105 145 190 241 300 360 428
#     4  11  23  41  69 105 147 175 240 292 356 415
#     4  12  25  46  71 108 140 188 243 296 358 437
#     4  11  27  49  68 101 145 188 235 300 364 424
#     4  11  24  48  74  99 139 190 237 301 357 423
#     4  12  22  44  77 106 133 197 246 291 355 433
#     4  11  24  42  70 110 142 185 236 303 346 421
#
# _framework density 22.767603999999999
#
# number of rings (size 3 to 8) (size 9 to 14) (size 15 to 20)
#    0.000    0.571    5.714    2.143    4.000    0.571 
#    7.714    0.000    0.000    0.857    0.000    0.000 
#    0.000    0.000    0.000    0.000    0.000    0.000 
#
# Total GULP energy -312915.879372 kJ/mol
# GULP energy per Si atom -5587.783560 kJ/mol
# Density = 2.271578 g / cm^3
# Si number density = 22.767604 Si / 1000 Ang^3
#
#
#
# Elastic Constant Matrix: (Units=GPa)
#
#
# Indices 1 2 3 4 5 6 
#
# 1 95.2090 12.5920 27.0921 0.0000 0.0000 0.0000
# 2 12.5920 73.8334 -5.8458 0.0000 0.0000 0.0000
# 3 27.0921 -5.8458 69.7241 0.0000 0.0000 0.0000
# 4 0.0000 0.0000 0.0000 22.2537 0.0000 0.0000
# 5 0.0000 0.0000 0.0000 0.0000 51.3891 0.0000
# 6 0.0000 0.0000 0.0000 0.0000 0.0000 36.8499
#
#
#
# Elastic Compliance Matrix: (Units=1/GPa)
#
#
# Indices 1 2 3 4 5 6 
#
# 1 0.012244 -0.002481 -0.004966 0.000000 0.000000 0.000000
# 2 -0.002481 0.014137 0.002149 0.000000 0.000000 0.000000
# 3 -0.004966 0.002149 0.016452 0.000000 0.000000 0.000000
# 4 0.000000 0.000000 0.000000 0.044936 0.000000 0.000000
# 5 0.000000 0.000000 0.000000 0.000000 0.019459 0.000000
# 6 0.000000 0.000000 0.000000 0.000000 0.000000 0.027137
#
#
# Mechanical properties :
#
#
# Convention : Reuss Voigt Hill
#
# Bulk Modulus (GPa) = 31.01890 34.04923 32.53406
# Shear Modulus (GPa) = 32.11136 35.76042 33.93589
#
# Velocity S-wave (km/s) = 3.75960 3.96747 3.86493
# Velocity P-wave (km/s) = 5.70086 5.99794 5.85129
#
# Compressibility (1/GPa) = 0.03223841
#
# Stress axis : x y z
#
# Youngs Moduli (GPa) = 81.66987 70.73442 60.78301
#
# Poissons Ratio (x) = 0.17552 0.30183
# Poissons Ratio (y) = 0.20266 -0.13065
# Poissons Ratio (z) = 0.40555 -0.15204
#
# Static dielectric constant tensor:
#      x y z
#    x 2.034280 0.000000 0.000000 
#    y 0.000000 1.858750 0.000000 
#    z 0.000000 0.000000 1.824680 
# 
# From -- ./inp_files/21233.got.cif
#   From: 2010.05.17/outbox.cif.g08.bks.cpg/sg68_11_cif.got.tgz:21233.got - 2010.06.03 18:57:09.
