data_PCOD9510364
_publ_section_title
;
Structure prediction by ZEFSAII (Michael W. Deem and Ramdas Pophale) SiO2 
 PCOD9510364
Probable space group: C C C A
;
_chemical_formula_sum "Si O2"
_cell_formula_units_Z 64
_cell_length_a 32.485567
_cell_length_b 8.462735
_cell_length_c 9.235707
_cell_angle_alpha 90.000000
_cell_angle_beta 90.000000
_cell_angle_gamma 90.000000
_cell_volume 2539.050505
_symmetry_space_group_name_H-M "C C C A"
_symmetry_group_IT_number 68
_space_group.IT_coordinate_system_code '2'
_symmetry_cell_setting 'orthorhombic'
loop_
_space_group_symop_operation_xyz
x,y,z
-x,1/2-y,z
x,1/2-y,1/2-z
-x,y,1/2-z
-x,-y,-z
x,1/2+y,-z
-x,1/2+y,1/2+z
x,-y,1/2+z
1/2+x,1/2+y,z
1/2-x,-y,z
1/2+x,-y,1/2-z
1/2-x,1/2+y,1/2-z
1/2-x,1/2-y,-z
1/2+x,y,-z
1/2-x,y,1/2+z
1/2+x,1/2-y,1/2+z
loop_
_atom_site_type_symbol
_atom_site_label
_atom_site_fract_x
_atom_site_fract_y
_atom_site_fract_z
Si Si1 0.827899 0.516917 0.286182
Si Si2 0.546888 0.696969 0.033124
Si Si3 0.578053 0.487358 0.787705
Si Si4 0.703642 0.303446 0.028358
O O1 0.875027 0.504787 0.238849
O O2 0.799628 0.558081 0.149121
O O3 0.822028 0.663087 0.397484
O O4 0.814886 0.366574 0.379508
O O5 0.500000 0.750000 0.023058
O O6 0.564012 0.635225 0.882350
O O7 0.450003 0.944998 0.150633
O O8 0.573474 0.836984 0.104414
O O9 0.750000 0.250000 0.000000
#
# Coordination Sequence:
#
# PCOD9510364 Si02
#       4
#    16  16  16  16
#     4  11  25  46  71 103 139 185 234 294 358 427
#     4  11  25  45  70 106 145 190 241 296 355 426
#     4  11  23  45  71 102 141 184 238 295 354 426
#     4  11  26  46  69 101 137 180 234 291 357 428
#
# _framework density 25.206274000000001
#
# number of rings (size 3 to 8) (size 9 to 14) (size 15 to 20)
#    0.000    1.000    0.000    6.000    0.000   14.000 
#    0.000    2.500    0.000    0.000    0.000    0.000 
#    0.000    0.000    0.000    0.000    0.000    0.000 
#
# Total GULP energy -179657.514369 kJ/mol
# GULP energy per Si atom -5614.297324 kJ/mol
# Density = 2.514890 g / cm^3
# Si number density = 25.206274 Si / 1000 Ang^3
#
#
#
# Elastic Constant Matrix: (Units=GPa)
#
#
# Indices 1 2 3 4 5 6 
#
# 1 176.1173 31.5635 47.7739 0.0000 0.0000 0.0000
# 2 31.5635 47.0501 52.5116 0.0000 0.0000 0.0000
# 3 47.7739 52.5116 154.1330 0.0000 0.0000 0.0000
# 4 0.0000 0.0000 0.0000 68.0806 0.0000 0.0000
# 5 0.0000 0.0000 0.0000 0.0000 28.7209 0.0000
# 6 0.0000 0.0000 0.0000 0.0000 0.0000 48.6520
#
#
#
# Elastic Compliance Matrix: (Units=1/GPa)
#
#
# Indices 1 2 3 4 5 6 
#
# 1 0.006523 -0.003420 -0.000857 0.000000 0.000000 0.000000
# 2 -0.003420 0.036087 -0.011234 0.000000 0.000000 0.000000
# 3 -0.000857 -0.011234 0.010581 0.000000 0.000000 0.000000
# 4 0.000000 0.000000 0.000000 0.014688 0.000000 0.000000
# 5 0.000000 0.000000 0.000000 0.000000 0.034818 0.000000
# 6 0.000000 0.000000 0.000000 0.000000 0.000000 0.020554
#
#
# Mechanical properties :
#
#
# Convention : Reuss Voigt Hill
#
# Bulk Modulus (GPa) = 45.10858 71.22205 58.16532
# Shear Modulus (GPa) = 30.92854 45.45414 38.19134
#
# Velocity S-wave (km/s) = 3.50668 4.25112 3.89672
# Velocity P-wave (km/s) = 5.85921 7.23969 6.58572
#
# Compressibility (1/GPa) = 0.02216873
#
# Stress axis : x y z
#
# Youngs Moduli (GPa) = 153.29507 27.71112 94.51006
#
# Poissons Ratio (x) = 0.09477 0.08098
# Poissons Ratio (y) = 0.52426 1.06176
# Poissons Ratio (z) = 0.13134 0.31132
#
# Static dielectric constant tensor:
#      x y z
#    x 1.862840 0.000000 0.000000 
#    y 0.000000 2.097570 0.000000 
#    z 0.000000 0.000000 1.983400 
# 
# From -- ./inp_files/17454.got.cif
#   From: 2010.05.17/outbox.cif.g08.bks.cpg/sg68_9_cif.got.tgz:17454.got - 2010.06.03 18:57:09.
