data_PCOD9510800
_publ_section_title
;
Structure prediction by ZEFSAII (Michael W. Deem and Ramdas Pophale) SiO2 
 PCOD9510800
Probable space group: C C C A
;
_chemical_formula_sum "Si O2"
_cell_formula_units_Z 88
_cell_length_a 5.035966
_cell_length_b 22.064349
_cell_length_c 31.771747
_cell_angle_alpha 90.000000
_cell_angle_beta 90.000000
_cell_angle_gamma 90.000000
_cell_volume 3530.327561
_symmetry_space_group_name_H-M "C C C A"
_symmetry_group_IT_number 68
_space_group.IT_coordinate_system_code '2'
_symmetry_cell_setting 'orthorhombic'
loop_
_space_group_symop_operation_xyz
x,y,z
-x,1/2-y,z
x,1/2-y,1/2-z
-x,y,1/2-z
-x,-y,-z
x,1/2+y,-z
-x,1/2+y,1/2+z
x,-y,1/2+z
1/2+x,1/2+y,z
1/2-x,-y,z
1/2+x,-y,1/2-z
1/2-x,1/2+y,1/2-z
1/2-x,1/2-y,-z
1/2+x,y,-z
1/2-x,y,1/2+z
1/2+x,1/2-y,1/2+z
loop_
_atom_site_type_symbol
_atom_site_label
_atom_site_fract_x
_atom_site_fract_y
_atom_site_fract_z
Si Si1 0.750000 0.500000 0.626828
Si Si2 0.250000 0.000000 0.928458
Si Si3 0.267692 0.379936 0.827445
Si Si4 0.145007 0.175404 0.396612
Si Si5 0.500000 0.250000 0.969563
Si Si6 0.500000 0.544998 0.250000
Si Si7 0.000000 0.250000 0.838435
Si Si8 0.430197 0.883963 0.970588
O O1 0.496895 0.477695 0.599855
O O2 0.862861 0.441759 0.653051
O O3 0.395018 0.952754 0.957936
O O4 0.482580 0.361757 0.862580
O O5 0.410807 0.409222 0.787036
O O6 0.101176 0.316252 0.818597
O O7 0.968638 0.196887 0.435506
O O8 0.268597 0.228556 0.368936
O O9 0.384348 0.147056 0.424776
O O10 0.250000 0.250000 0.000000
O O11 0.750000 0.500000 0.259656
O O12 0.691367 0.872337 0.996853
#
# Coordination Sequence:
#
# PCOD9510800 Si02
#       8
#     8   8  16  16   8   8   8  16
#     4  12  26  47  87 118 154 224 276 348 421 523
#     4  12  24  45  71 110 160 210 288 342 435 499
#     4  12  28  54  89 128 172 222 284 358 439 534
#     4  12  26  47  76 111 167 225 290 350 432 517
#     4  12  25  44  70 110 160 227 295 358 414 495
#     4  12  32  58  97 137 174 224 294 368 444 550
#     4  12  27  52  87 125 172 232 279 356 436 530
#     4  12  26  42  66 104 156 214 283 355 420 494
#
# _framework density 24.926863999999998
#
# number of rings (size 3 to 8) (size 9 to 14) (size 15 to 20)
#    0.000    0.000    4.545    4.364    6.364    0.000 
#    0.000    2.727    0.000    0.000    0.000    0.000 
#    0.000    0.000    0.000    0.000    0.000    0.000 
#
# Total GULP energy -245414.952374 kJ/mol
# GULP energy per Si atom -5577.612554 kJ/mol
# Density = 2.487013 g / cm^3
# Si number density = 24.926864 Si / 1000 Ang^3
#
#
#
# Elastic Constant Matrix: (Units=GPa)
#
#
# Indices 1 2 3 4 5 6 
#
# 1 145.1048 37.4295 58.1836 0.0000 0.0000 0.0000
# 2 37.4295 183.1229 71.1035 0.0000 0.0000 0.0000
# 3 58.1836 71.1035 155.4781 0.0000 0.0000 0.0000
# 4 0.0000 0.0000 0.0000 57.7211 0.0000 0.0000
# 5 0.0000 0.0000 0.0000 0.0000 43.2163 0.0000
# 6 0.0000 0.0000 0.0000 0.0000 0.0000 40.8532
#
#
#
# Elastic Compliance Matrix: (Units=1/GPa)
#
#
# Indices 1 2 3 4 5 6 
#
# 1 0.008160 -0.000586 -0.002785 0.000000 0.000000 0.000000
# 2 -0.000586 0.006682 -0.002836 0.000000 0.000000 0.000000
# 3 -0.002785 -0.002836 0.008771 0.000000 0.000000 0.000000
# 4 0.000000 0.000000 0.000000 0.017325 0.000000 0.000000
# 5 0.000000 0.000000 0.000000 0.000000 0.023139 0.000000
# 6 0.000000 0.000000 0.000000 0.000000 0.000000 0.024478
#
#
# Mechanical properties :
#
#
# Convention : Reuss Voigt Hill
#
# Bulk Modulus (GPa) = 89.31178 90.79321 90.05249
# Shear Modulus (GPa) = 47.75392 49.49073 48.62232
#
# Velocity S-wave (km/s) = 4.38169 4.46066 4.42135
# Velocity P-wave (km/s) = 7.84259 7.93933 7.89111
#
# Compressibility (1/GPa) = 0.01119673
#
# Stress axis : x y z
#
# Youngs Moduli (GPa) = 122.55365 149.65637 114.00815
#
# Poissons Ratio (x) = 0.08774 0.31756
# Poissons Ratio (y) = 0.07185 0.32337
# Poissons Ratio (z) = 0.34137 0.42449
#
# Static dielectric constant tensor:
#      x y z
#    x 1.964320 0.000000 0.000000 
#    y 0.000000 2.213770 0.000000 
#    z 0.000000 0.000000 1.925570 
# 
# From -- ./inp_files/53328.got.cif
#   From: 2010.05.17/outbox.cif.g08.bks.cpg/sg68_27_cif.got.tgz:53328.got - 2010.06.03 18:57:09.
