data_PCOD9510849
_publ_section_title
;
Structure prediction by ZEFSAII (Michael W. Deem and Ramdas Pophale) SiO2 
 PCOD9510849
Probable space group: C C C A
;
_chemical_formula_sum "Si O2"
_cell_formula_units_Z 52
_cell_length_a 21.766180
_cell_length_b 4.828087
_cell_length_c 18.339504
_cell_angle_alpha 90.000000
_cell_angle_beta 90.000000
_cell_angle_gamma 90.000000
_cell_volume 1927.280332
_symmetry_space_group_name_H-M "C C C A"
_symmetry_group_IT_number 68
_space_group.IT_coordinate_system_code '2'
_symmetry_cell_setting 'orthorhombic'
loop_
_space_group_symop_operation_xyz
x,y,z
-x,1/2-y,z
x,1/2-y,1/2-z
-x,y,1/2-z
-x,-y,-z
x,1/2+y,-z
-x,1/2+y,1/2+z
x,-y,1/2+z
1/2+x,1/2+y,z
1/2-x,-y,z
1/2+x,-y,1/2-z
1/2-x,1/2+y,1/2-z
1/2-x,1/2-y,-z
1/2+x,y,-z
1/2-x,y,1/2+z
1/2+x,1/2-y,1/2+z
loop_
_atom_site_type_symbol
_atom_site_label
_atom_site_fract_x
_atom_site_fract_y
_atom_site_fract_z
Si Si1 0.091926 0.989943 0.042722
Si Si2 0.500000 0.750000 0.750000
Si Si3 0.707452 0.242855 0.399066
Si Si4 0.103246 0.895617 0.823366
O O1 0.165302 0.923345 0.043134
O O2 0.085689 0.163955 0.116526
O O3 0.068672 0.685123 0.022960
O O4 0.543328 0.563237 0.799869
O O5 0.750000 0.500000 0.421209
O O6 0.655227 0.391728 0.350291
O O7 0.750000 0.000000 0.365373
O O8 0.126294 0.750000 0.750000
#
# Coordination Sequence:
#
# PCOD9510849 Si02
#       4
#    16   4  16  16
#     4  12  25  49  80 120 169 210 266 321 395 479
#     4  12  30  56  88 106 156 210 286 332 420 462
#     4  12  25  49  79 121 168 212 260 325 396 482
#     4  12  28  55  83 117 156 215 273 330 401 482
#
# _framework density 26.981026
#
# number of rings (size 3 to 8) (size 9 to 14) (size 15 to 20)
#    0.000    0.000    6.154    2.308    0.000    3.692 
#    8.308    1.538    0.000    0.000    0.000    0.000 
#    0.000    0.000    0.000    0.000    0.000    0.000 
#
# Total GULP energy -145563.414998 kJ/mol
# GULP energy per Si atom -5598.592885 kJ/mol
# Density = 2.691962 g / cm^3
# Si number density = 26.981026 Si / 1000 Ang^3
#
#
#
# Elastic Constant Matrix: (Units=GPa)
#
#
# Indices 1 2 3 4 5 6 
#
# 1 165.0659 56.5221 34.3142 0.0000 0.0000 0.0000
# 2 56.5221 209.4846 64.5570 0.0000 0.0000 0.0000
# 3 34.3142 64.5570 122.2416 0.0000 0.0000 0.0000
# 4 0.0000 0.0000 0.0000 73.4505 0.0000 0.0000
# 5 0.0000 0.0000 0.0000 0.0000 544.1794 0.0000
# 6 0.0000 0.0000 0.0000 0.0000 0.0000 60.2787
#
#
#
# Elastic Compliance Matrix: (Units=1/GPa)
#
#
# Indices 1 2 3 4 5 6 
#
# 1 0.006802 -0.001489 -0.001123 0.000000 0.000000 0.000000
# 2 -0.001489 0.006028 -0.002765 0.000000 0.000000 0.000000
# 3 -0.001123 -0.002765 0.009956 0.000000 0.000000 0.000000
# 4 0.000000 0.000000 0.000000 0.013615 0.000000 0.000000
# 5 0.000000 0.000000 0.000000 0.000000 0.001838 0.000000
# 6 0.000000 0.000000 0.000000 0.000000 0.000000 0.016590
#
#
# Mechanical properties :
#
#
# Convention : Reuss Voigt Hill
#
# Bulk Modulus (GPa) = 83.11992 89.73097 86.42545
# Shear Modulus (GPa) = 71.84782 158.34164 115.09473
#
# Velocity S-wave (km/s) = 5.16593 7.66901 6.53837
# Velocity P-wave (km/s) = 8.15206 10.57107 9.43938
#
# Compressibility (1/GPa) = 0.01203081
#
# Stress axis : x y z
#
# Youngs Moduli (GPa) = 147.02618 165.90442 100.44153
#
# Poissons Ratio (x) = 0.24705 0.11278
# Poissons Ratio (y) = 0.21894 0.27774
# Poissons Ratio (z) = 0.16508 0.45876
#
# Static dielectric constant tensor:
#      x y z
#    x 2.117360 0.000000 0.000000 
#    y 0.000000 2.112660 0.000000 
#    z 0.000000 0.000000 2.122410 
# 
# From -- ./inp_files/39964.got.cif
#   From: 2010.05.17/outbox.cif.g08.bks.cpg/sg68_20_cif.got.tgz:39964.got - 2010.06.03 18:57:09.
