data_PCOD9510334
_publ_section_title
;
Structure prediction by ZEFSAII (Michael W. Deem and Ramdas Pophale) SiO2 
 PCOD9510334
Probable space group: C C C A
;
_chemical_formula_sum "Si O2"
_cell_formula_units_Z 64
_cell_length_a 11.208802
_cell_length_b 14.591464
_cell_length_c 16.788581
_cell_angle_alpha 90.000000
_cell_angle_beta 90.000000
_cell_angle_gamma 90.000000
_cell_volume 2745.819949
_symmetry_space_group_name_H-M "C C C A"
_symmetry_group_IT_number 68
_space_group.IT_coordinate_system_code '2'
_symmetry_cell_setting 'orthorhombic'
loop_
_space_group_symop_operation_xyz
x,y,z
-x,1/2-y,z
x,1/2-y,1/2-z
-x,y,1/2-z
-x,-y,-z
x,1/2+y,-z
-x,1/2+y,1/2+z
x,-y,1/2+z
1/2+x,1/2+y,z
1/2-x,-y,z
1/2+x,-y,1/2-z
1/2-x,1/2+y,1/2-z
1/2-x,1/2-y,-z
1/2+x,y,-z
1/2-x,y,1/2+z
1/2+x,1/2-y,1/2+z
loop_
_atom_site_type_symbol
_atom_site_label
_atom_site_fract_x
_atom_site_fract_y
_atom_site_fract_z
Si Si1 0.378782 0.199924 0.006381
Si Si2 0.430166 0.116527 0.170896
Si Si3 0.324476 0.856440 0.223437
Si Si4 0.536632 0.425362 0.874633
O O1 0.500000 0.250000 0.978966
O O2 0.401195 0.184869 0.099624
O O3 0.250000 0.250000 0.000000
O O4 0.391959 0.107924 0.952623
O O5 0.500000 0.146375 0.250000
O O6 0.298728 0.096592 0.202472
O O7 0.497219 0.030801 0.130522
O O8 0.310111 0.750000 0.250000
O O9 0.416140 0.868821 0.149789
O O10 0.380453 0.905585 0.299297
#
# Coordination Sequence:
#
# PCOD9510334 Si02
#       4
#    16  16  16  16
#     4  12  28  50  74 113 154 206 257 318 390 465
#     4  12  27  44  73 113 153 194 258 320 391 451
#     4  11  23  43  74 105 147 197 254 315 383 459
#     4  11  23  47  75 105 148 199 257 314 389 464
#
# _framework density 23.308157000000001
#
# number of rings (size 3 to 8) (size 9 to 14) (size 15 to 20)
#    0.000    0.500    2.500    7.500    7.000    0.000 
#    0.000    2.500    0.000    0.000    0.000    0.000 
#    0.000    0.000    0.000    0.000    0.000    0.000 
#
# Total GULP energy -178758.334506 kJ/mol
# GULP energy per Si atom -5586.197953 kJ/mol
# Density = 2.325511 g / cm^3
# Si number density = 23.308157 Si / 1000 Ang^3
#
#
#
# Elastic Constant Matrix: (Units=GPa)
#
#
# Indices 1 2 3 4 5 6 
#
# 1 171.5554 43.1675 72.3635 0.0000 0.0000 0.0000
# 2 43.1675 81.7659 23.1514 0.0000 0.0000 0.0000
# 3 72.3635 23.1514 147.3589 0.0000 0.0000 0.0000
# 4 0.0000 0.0000 0.0000 29.1918 0.0000 0.0000
# 5 0.0000 0.0000 0.0000 0.0000 3.5002 0.0000
# 6 0.0000 0.0000 0.0000 0.0000 0.0000 32.6514
#
#
#
# Elastic Compliance Matrix: (Units=1/GPa)
#
#
# Indices 1 2 3 4 5 6 
#
# 1 0.008125 -0.003307 -0.003470 0.000000 0.000000 0.000000
# 2 -0.003307 0.014145 -0.000598 0.000000 0.000000 0.000000
# 3 -0.003470 -0.000598 0.008584 0.000000 0.000000 0.000000
# 4 0.000000 0.000000 0.000000 0.034256 0.000000 0.000000
# 5 0.000000 0.000000 0.000000 0.000000 0.285695 0.000000
# 6 0.000000 0.000000 0.000000 0.000000 0.000000 0.030627
#
#
# Mechanical properties :
#
#
# Convention : Reuss Voigt Hill
#
# Bulk Modulus (GPa) = 62.09932 75.33833 68.71883
# Shear Modulus (GPa) = 12.45171 30.53521 21.49346
#
# Velocity S-wave (km/s) = 2.31383 3.62341 3.03998
# Velocity P-wave (km/s) = 5.81713 7.06388 6.47060
#
# Compressibility (1/GPa) = 0.01610324
#
# Stress axis : x y z
#
# Youngs Moduli (GPa) = 123.07777 70.69478 116.49079
#
# Poissons Ratio (x) = 0.23378 0.40427
# Poissons Ratio (y) = 0.40700 0.06971
# Poissons Ratio (z) = 0.42713 0.04231
#
# Static dielectric constant tensor:
#      x y z
#    x 1.878530 0.000000 0.000000 
#    y 0.000000 2.076850 0.000000 
#    z 0.000000 0.000000 1.890100 
# 
# From -- ./inp_files/29171.got.cif
#   From: 2010.05.17/outbox.cif.g08.bks.cpg/sg68_15_cif.got.tgz:29171.got - 2010.06.03 18:57:09.
