data_PCOD9510790
_publ_section_title
;
Structure prediction by ZEFSAII (Michael W. Deem and Ramdas Pophale) SiO2 
 PCOD9510790
Probable space group: C C C A
;
_chemical_formula_sum "Si O2"
_cell_formula_units_Z 72
_cell_length_a 23.370551
_cell_length_b 9.110864
_cell_length_c 12.752552
_cell_angle_alpha 90.000000
_cell_angle_beta 90.000000
_cell_angle_gamma 90.000000
_cell_volume 2715.348762
_symmetry_space_group_name_H-M "C C C A"
_symmetry_group_IT_number 68
_space_group.IT_coordinate_system_code '2'
_symmetry_cell_setting 'orthorhombic'
loop_
_space_group_symop_operation_xyz
x,y,z
-x,1/2-y,z
x,1/2-y,1/2-z
-x,y,1/2-z
-x,-y,-z
x,1/2+y,-z
-x,1/2+y,1/2+z
x,-y,1/2+z
1/2+x,1/2+y,z
1/2-x,-y,z
1/2+x,-y,1/2-z
1/2-x,1/2+y,1/2-z
1/2-x,1/2-y,-z
1/2+x,y,-z
1/2-x,y,1/2+z
1/2+x,1/2-y,1/2+z
loop_
_atom_site_type_symbol
_atom_site_label
_atom_site_fract_x
_atom_site_fract_y
_atom_site_fract_z
Si Si1 0.806698 0.759442 0.931217
Si Si2 0.574310 0.296071 0.452571
Si Si3 0.143315 0.996181 0.298162
Si Si4 0.043537 0.983518 0.650590
Si Si5 0.750000 0.000000 0.292028
O O1 0.823704 0.625131 0.857446
O O2 0.789569 0.898587 0.862829
O O3 0.750000 0.750000 0.000000
O O4 0.863104 0.760615 0.002189
O O5 0.594620 0.415448 0.366971
O O6 0.540535 0.374771 0.549578
O O7 0.452123 0.348811 0.395566
O O8 0.104578 0.049061 0.202248
O O9 0.200496 0.907511 0.267428
O O10 0.000000 0.964854 0.750000
#
# Coordination Sequence:
#
# PCOD9510790 Si02
#       5
#    16  16  16  16   8
#     4  12  24  46  80 125 175 238 288 363 453 543
#     4  12  26  56  87 125 179 230 300 384 460 546
#     4  12  26  49  83 128 176 230 299 362 455 544
#     4  12  30  58  91 129 177 240 306 384 464 550
#     4  12  24  42  80 126 176 230 292 356 438 556
#
# _framework density 26.515930999999998
#
# number of rings (size 3 to 8) (size 9 to 14) (size 15 to 20)
#    0.000    0.000    4.444    5.333    0.000    4.444 
#    4.000    2.222    0.000    0.000    0.000    0.000 
#    0.000    0.000    0.000    0.000    0.000    0.000 
#
# Total GULP energy -201148.543802 kJ/mol
# GULP energy per Si atom -5587.459550 kJ/mol
# Density = 2.645558 g / cm^3
# Si number density = 26.515931 Si / 1000 Ang^3
#
#
#
# Elastic Constant Matrix: (Units=GPa)
#
#
# Indices 1 2 3 4 5 6 
#
# 1 192.8584 40.2537 82.4817 0.0000 0.0000 0.0000
# 2 40.2537 125.3963 41.9420 0.0000 0.0000 0.0000
# 3 82.4817 41.9420 125.5020 0.0000 0.0000 0.0000
# 4 0.0000 0.0000 0.0000 52.1276 0.0000 0.0000
# 5 0.0000 0.0000 0.0000 0.0000 5.8683 0.0000
# 6 0.0000 0.0000 0.0000 0.0000 0.0000 32.8731
#
#
#
# Elastic Compliance Matrix: (Units=1/GPa)
#
#
# Indices 1 2 3 4 5 6 
#
# 1 0.007288 -0.000830 -0.004513 0.000000 0.000000 0.000000
# 2 -0.000830 0.009073 -0.002486 0.000000 0.000000 0.000000
# 3 -0.004513 -0.002486 0.011765 0.000000 0.000000 0.000000
# 4 0.000000 0.000000 0.000000 0.019184 0.000000 0.000000
# 5 0.000000 0.000000 0.000000 0.000000 0.170408 0.000000
# 6 0.000000 0.000000 0.000000 0.000000 0.000000 0.030420
#
#
# Mechanical properties :
#
#
# Convention : Reuss Voigt Hill
#
# Bulk Modulus (GPa) = 80.20924 85.90128 83.05526
# Shear Modulus (GPa) = 18.66009 36.77909 27.71959
#
# Velocity S-wave (km/s) = 2.65567 3.72836 3.23676
# Velocity P-wave (km/s) = 6.30227 7.14147 6.73496
#
# Compressibility (1/GPa) = 0.01246739
#
# Stress axis : x y z
#
# Youngs Moduli (GPa) = 137.20476 110.21832 85.00049
#
# Poissons Ratio (x) = 0.09152 0.38357
# Poissons Ratio (y) = 0.11392 0.21135
# Poissons Ratio (z) = 0.61914 0.27405
#
# Static dielectric constant tensor:
#      x y z
#    x 2.324210 0.000000 0.000000 
#    y 0.000000 2.438760 0.000000 
#    z 0.000000 0.000000 2.438820 
# 
# From -- ./inp_files/16963.got.cif
#   From: 2010.05.17/outbox.cif.g08.bks.cpg/sg68_9_cif.got.tgz:16963.got - 2010.06.03 18:57:09.
