data_PCOD9510441
_publ_section_title
;
Structure prediction by ZEFSAII (Michael W. Deem and Ramdas Pophale) SiO2 
 PCOD9510441
Probable space group: C C C A
;
_chemical_formula_sum "Si O2"
_cell_formula_units_Z 56
_cell_length_a 11.159133
_cell_length_b 10.643880
_cell_length_c 19.921194
_cell_angle_alpha 90.000000
_cell_angle_beta 90.000000
_cell_angle_gamma 90.000000
_cell_volume 2366.169152
_symmetry_space_group_name_H-M "C C C A"
_symmetry_group_IT_number 68
_space_group.IT_coordinate_system_code '2'
_symmetry_cell_setting 'orthorhombic'
loop_
_space_group_symop_operation_xyz
x,y,z
-x,1/2-y,z
x,1/2-y,1/2-z
-x,y,1/2-z
-x,-y,-z
x,1/2+y,-z
-x,1/2+y,1/2+z
x,-y,1/2+z
1/2+x,1/2+y,z
1/2-x,-y,z
1/2+x,-y,1/2-z
1/2-x,1/2+y,1/2-z
1/2-x,1/2-y,-z
1/2+x,y,-z
1/2-x,y,1/2+z
1/2+x,1/2-y,1/2+z
loop_
_atom_site_type_symbol
_atom_site_label
_atom_site_fract_x
_atom_site_fract_y
_atom_site_fract_z
Si Si1 0.500000 0.250000 0.665373
Si Si2 0.119608 0.833879 0.421213
Si Si3 0.677790 0.877667 0.429919
Si Si4 0.882296 0.992501 0.710167
O O1 0.429449 0.152348 0.619202
O O2 0.408638 0.344462 0.701272
O O3 0.232972 0.740312 0.423056
O O4 0.127195 0.896098 0.494821
O O5 0.000000 0.750000 0.416167
O O6 0.125830 0.931313 0.359939
O O7 0.750000 0.000000 0.410597
O O8 0.000000 0.041461 0.750000
O O9 0.750000 0.000000 0.742677
#
# Coordination Sequence:
#
# PCOD9510441 Si02
#       4
#     8  16  16  16
#     4  12  25  50  80 110 151 194 260 316 398 458
#     4  11  24  44  73 116 154 197 252 318 395 467
#     4  11  24  42  78 115 155 192 246 326 399 464
#     4  12  28  52  78 109 155 213 266 319 385 475
#
# _framework density 23.666947
#
# number of rings (size 3 to 8) (size 9 to 14) (size 15 to 20)
#    0.000    0.571    4.286    3.000    4.000    6.286 
#    5.143    0.000    0.000    0.000    0.000    0.000 
#    0.000    0.000    0.000    0.000    0.000    0.000 
#
# Total GULP energy -156762.756149 kJ/mol
# GULP energy per Si atom -5598.669862 kJ/mol
# Density = 2.361308 g / cm^3
# Si number density = 23.666947 Si / 1000 Ang^3
#
#
#
# Elastic Constant Matrix: (Units=GPa)
#
#
# Indices 1 2 3 4 5 6 
#
# 1 154.7138 36.8033 56.7751 0.0000 0.0000 0.0000
# 2 36.8033 122.5891 58.2019 0.0000 0.0000 0.0000
# 3 56.7751 58.2019 115.3579 0.0000 0.0000 0.0000
# 4 0.0000 0.0000 0.0000 32.1567 0.0000 0.0000
# 5 0.0000 0.0000 0.0000 0.0000 39.5782 0.0000
# 6 0.0000 0.0000 0.0000 0.0000 0.0000 53.6296
#
#
#
# Elastic Compliance Matrix: (Units=1/GPa)
#
#
# Indices 1 2 3 4 5 6 
#
# 1 0.007933 -0.000694 -0.003554 0.000000 0.000000 0.000000
# 2 -0.000694 0.010788 -0.005101 0.000000 0.000000 0.000000
# 3 -0.003554 -0.005101 0.012991 0.000000 0.000000 0.000000
# 4 0.000000 0.000000 0.000000 0.031098 0.000000 0.000000
# 5 0.000000 0.000000 0.000000 0.000000 0.025266 0.000000
# 6 0.000000 0.000000 0.000000 0.000000 0.000000 0.018646
#
#
# Mechanical properties :
#
#
# Convention : Reuss Voigt Hill
#
# Bulk Modulus (GPa) = 76.84389 77.35793 77.10091
# Shear Modulus (GPa) = 38.53302 41.13162 39.83232
#
# Velocity S-wave (km/s) = 4.03939 4.17338 4.10693
# Velocity P-wave (km/s) = 7.36851 7.48196 7.42546
#
# Compressibility (1/GPa) = 0.01301340
#
# Stress axis : x y z
#
# Youngs Moduli (GPa) = 126.05710 92.69927 76.97358
#
# Poissons Ratio (x) = 0.06436 0.27357
# Poissons Ratio (y) = 0.08751 0.39264
# Poissons Ratio (z) = 0.44801 0.47286
#
# Static dielectric constant tensor:
#      x y z
#    x 1.895090 0.000000 0.000000 
#    y 0.000000 1.842800 0.000000 
#    z 0.000000 0.000000 1.986290 
# 
# From -- ./inp_files/36926.got.cif
#   From: 2010.05.17/outbox.cif.g08.bks.cpg/sg68_19_cif.got.tgz:36926.got - 2010.06.03 18:57:09.
