data_PCOD9510508
_publ_section_title
;
Structure prediction by ZEFSAII (Michael W. Deem and Ramdas Pophale) SiO2 
 PCOD9510508
Probable space group: C C C A
;
_chemical_formula_sum "Si O2"
_cell_formula_units_Z 112
_cell_length_a 27.233771
_cell_length_b 10.879551
_cell_length_c 16.909394
_cell_angle_alpha 90.000000
_cell_angle_beta 90.000000
_cell_angle_gamma 90.000000
_cell_volume 5010.104648
_symmetry_space_group_name_H-M "C C C A"
_symmetry_group_IT_number 68
_space_group.IT_coordinate_system_code '2'
_symmetry_cell_setting 'orthorhombic'
loop_
_space_group_symop_operation_xyz
x,y,z
-x,1/2-y,z
x,1/2-y,1/2-z
-x,y,1/2-z
-x,-y,-z
x,1/2+y,-z
-x,1/2+y,1/2+z
x,-y,1/2+z
1/2+x,1/2+y,z
1/2-x,-y,z
1/2+x,-y,1/2-z
1/2-x,1/2+y,1/2-z
1/2-x,1/2-y,-z
1/2+x,y,-z
1/2-x,y,1/2+z
1/2+x,1/2-y,1/2+z
loop_
_atom_site_type_symbol
_atom_site_label
_atom_site_fract_x
_atom_site_fract_y
_atom_site_fract_z
Si Si1 0.048038 0.168246 0.095677
Si Si2 0.694357 0.502844 0.086609
Si Si3 0.787498 0.889033 0.742911
Si Si4 0.449917 0.951560 0.712416
Si Si5 0.614376 0.922839 0.538481
Si Si6 0.107995 0.118569 0.339650
Si Si7 0.639648 0.219122 0.336954
O O1 0.037035 0.041938 0.140541
O O2 0.086678 0.245318 0.149335
O O3 0.000000 0.250000 0.090233
O O4 0.070876 0.137865 0.011004
O O5 0.750000 0.500000 0.056908
O O6 0.694751 0.576310 0.168960
O O7 0.674528 0.369452 0.112446
O O8 0.658540 0.561320 0.023094
O O9 0.767435 0.750000 0.750000
O O10 0.835303 0.884507 0.687000
O O11 0.750000 0.000000 0.720311
O O12 0.500000 0.901602 0.750000
O O13 0.422902 0.036954 0.777798
O O14 0.411029 0.852970 0.681097
O O15 0.629341 0.839345 0.612356
O O16 0.602091 0.054930 0.574899
O O17 0.659608 0.250000 0.250000
#
# Coordination Sequence:
#
# PCOD9510508 Si02
#       7
#    16  16  16  16  16  16  16
#     4  12  26  43  74 106 143 189 242 299 367 442
#     4  11  25  45  72 106 144 195 247 302 373 449
#     4  11  24  45  75 108 143 189 253 309 373 449
#     4  12  24  46  75 104 136 189 246 294 357 444
#     4  12  26  46  70 103 152 191 237 307 366 444
#     4  12  24  44  72 102 141 190 237 298 362 430
#     4  12  25  50  73 104 151 191 245 308 370 442
#
# _framework density 22.354823
#
# number of rings (size 3 to 8) (size 9 to 14) (size 15 to 20)
#    0.000    0.286    5.714    3.000    0.000    7.714 
#    0.000    0.714    0.000    0.000    0.000    0.000 
#    0.000    0.000    0.000    0.000    0.000    0.000 
#
# Total GULP energy -313730.311960 kJ/mol
# GULP energy per Si atom -5602.326999 kJ/mol
# Density = 2.230394 g / cm^3
# Si number density = 22.354823 Si / 1000 Ang^3
#
#
#
# Elastic Constant Matrix: (Units=GPa)
#
#
# Indices 1 2 3 4 5 6 
#
# 1 124.5161 27.3593 16.1026 0.0000 0.0000 0.0000
# 2 27.3593 87.9392 6.0031 0.0000 0.0000 0.0000
# 3 16.1026 6.0031 78.4599 0.0000 0.0000 0.0000
# 4 0.0000 0.0000 0.0000 38.8599 0.0000 0.0000
# 5 0.0000 0.0000 0.0000 0.0000 -31.7749 0.0000
# 6 0.0000 0.0000 0.0000 0.0000 0.0000 -193.8203
#
#
#
# Elastic Compliance Matrix: (Units=1/GPa)
#
#
# Indices 1 2 3 4 5 6 
#
# 1 0.008818 -0.002634 -0.001608 0.000000 0.000000 0.000000
# 2 -0.002634 0.012218 -0.000394 0.000000 0.000000 0.000000
# 3 -0.001608 -0.000394 0.013106 0.000000 0.000000 0.000000
# 4 0.000000 0.000000 0.000000 0.025733 0.000000 0.000000
# 5 0.000000 0.000000 0.000000 0.000000 -0.031471 0.000000
# 6 0.000000 0.000000 0.000000 0.000000 0.000000 -0.005159
#
#
# Mechanical properties :
#
#
# Convention : Reuss Voigt Hill
#
# Bulk Modulus (GPa) = 40.21077 43.31613 41.76345
# Shear Modulus (GPa) = 122.53256 -21.25038 50.64109
#
# Velocity S-wave (km/s) = 7.41158 -3.08652 4.76471
# Velocity P-wave (km/s) = 9.55346 2.59164 6.99947
#
# Compressibility (1/GPa) = 0.02486896
#
# Stress axis : x y z
#
# Youngs Moduli (GPa) = 113.40800 81.84811 76.30331
#
# Poissons Ratio (x) = 0.21555 0.12271
# Poissons Ratio (y) = 0.29867 0.03009
# Poissons Ratio (z) = 0.18238 0.03227
#
# Static dielectric constant tensor:
#      x y z
#    x 1.902410 0.000000 0.000000 
#    y 0.000000 1.898680 0.000000 
#    z 0.000000 0.000000 1.791800 
# 
# From -- ./inp_files/26430.got.cif
#   From: 2010.05.17/outbox.cif.g08.bks.cpg/sg68_14_cif.got.tgz:26430.got - 2010.06.03 18:57:09.
