data_PCOD9510099
_publ_section_title
;
Structure prediction by ZEFSAII (Michael W. Deem and Ramdas Pophale) SiO2 
 PCOD9510099
Probable space group: C C C A
;
_chemical_formula_sum "Si O2"
_cell_formula_units_Z 48
_cell_length_a 17.257699
_cell_length_b 9.755393
_cell_length_c 13.128727
_cell_angle_alpha 90.000000
_cell_angle_beta 90.000000
_cell_angle_gamma 90.000000
_cell_volume 2210.295184
_symmetry_space_group_name_H-M "C C C A"
_symmetry_group_IT_number 68
_space_group.IT_coordinate_system_code '2'
_symmetry_cell_setting 'orthorhombic'
loop_
_space_group_symop_operation_xyz
x,y,z
-x,1/2-y,z
x,1/2-y,1/2-z
-x,y,1/2-z
-x,-y,-z
x,1/2+y,-z
-x,1/2+y,1/2+z
x,-y,1/2+z
1/2+x,1/2+y,z
1/2-x,-y,z
1/2+x,-y,1/2-z
1/2-x,1/2+y,1/2-z
1/2-x,1/2-y,-z
1/2+x,y,-z
1/2-x,y,1/2+z
1/2+x,1/2-y,1/2+z
loop_
_atom_site_type_symbol
_atom_site_label
_atom_site_fract_x
_atom_site_fract_y
_atom_site_fract_z
Si Si1 0.947815 0.129006 0.035042
Si Si2 0.675964 0.595962 0.287977
Si Si3 0.416873 0.373752 0.309075
O O1 0.919584 0.176998 0.924376
O O2 0.000000 0.250000 0.081097
O O3 0.879502 0.096081 0.112777
O O4 0.000000 0.000000 0.000000
O O5 0.691714 0.750000 0.250000
O O6 0.750000 0.500000 0.307496
O O7 0.627553 0.515488 0.201114
O O8 0.376275 0.250000 0.250000
O O9 0.500000 0.390865 0.250000
#
# Coordination Sequence:
#
# PCOD9510099 Si02
#       3
#    16  16  16
#     4  12  23  41  74 108 136 187 250 296 354 438
#     4  12  28  46  70 106 154 194 242 303 373 429
#     4  11  21  43  72 102 144 186 238 298 367 429
#
# _framework density 21.716557000000002
#
# number of rings (size 3 to 8) (size 9 to 14) (size 15 to 20)
#    0.000    0.333    6.667    3.000    0.000    1.333 
#    0.000   10.000    0.000    0.000    0.000    0.000 
#    0.000    0.000    0.000    0.000    0.000    0.000 
#
# Total GULP energy -134071.859443 kJ/mol
# GULP energy per Si atom -5586.327477 kJ/mol
# Density = 2.166713 g / cm^3
# Si number density = 21.716557 Si / 1000 Ang^3
#
#
#
# Elastic Constant Matrix: (Units=GPa)
#
#
# Indices 1 2 3 4 5 6 
#
# 1 137.4257 76.1840 39.9431 0.0000 0.0000 0.0000
# 2 76.1840 172.3827 8.5467 0.0000 0.0000 0.0000
# 3 39.9431 8.5467 88.7229 0.0000 0.0000 0.0000
# 4 0.0000 0.0000 0.0000 35.0249 0.0000 0.0000
# 5 0.0000 0.0000 0.0000 0.0000 0.6677 0.0000
# 6 0.0000 0.0000 0.0000 0.0000 0.0000 46.1975
#
#
#
# Elastic Compliance Matrix: (Units=1/GPa)
#
#
# Indices 1 2 3 4 5 6 
#
# 1 0.011243 -0.004741 -0.004605 0.000000 0.000000 0.000000
# 2 -0.004741 0.007828 0.001380 0.000000 0.000000 0.000000
# 3 -0.004605 0.001380 0.013211 0.000000 0.000000 0.000000
# 4 0.000000 0.000000 0.000000 0.028551 0.000000 0.000000
# 5 0.000000 0.000000 0.000000 0.000000 1.497722 0.000000
# 6 0.000000 0.000000 0.000000 0.000000 0.000000 0.021646
#
#
# Mechanical properties :
#
#
# Convention : Reuss Voigt Hill
#
# Bulk Modulus (GPa) = 61.15724 71.98653 66.57188
# Shear Modulus (GPa) = 3.12191 34.63517 18.87854
#
# Velocity S-wave (km/s) = 1.20029 3.99792 2.95161
# Velocity P-wave (km/s) = 5.49032 7.38453 6.50673
#
# Compressibility (1/GPa) = 0.01635130
#
# Stress axis : x y z
#
# Youngs Moduli (GPa) = 88.94340 127.75166 75.69292
#
# Poissons Ratio (x) = 0.60561 0.34857
# Poissons Ratio (y) = 0.42164 -0.10447
# Poissons Ratio (z) = 0.40958 -0.17632
#
# Static dielectric constant tensor:
#      x y z
#    x 2.188240 0.000000 0.000000 
#    y 0.000000 2.024830 0.000000 
#    z 0.000000 0.000000 1.861980 
# 
# From -- ./inp_files/11247.got.cif
#   From: 2010.05.17/outbox.cif.g08.bks.cpg/sg68_6_cif.got.tgz:11247.got - 2010.06.03 18:57:09.
