data_PCOD9510626
_publ_section_title
;
Structure prediction by ZEFSAII (Michael W. Deem and Ramdas Pophale) SiO2 
 PCOD9510626
Probable space group: C C C A
;
_chemical_formula_sum "Si O2"
_cell_formula_units_Z 64
_cell_length_a 18.468368
_cell_length_b 16.726785
_cell_length_c 8.691863
_cell_angle_alpha 90.000000
_cell_angle_beta 90.000000
_cell_angle_gamma 90.000000
_cell_volume 2685.059208
_symmetry_space_group_name_H-M "C C C A"
_symmetry_group_IT_number 68
_space_group.IT_coordinate_system_code '2'
_symmetry_cell_setting 'orthorhombic'
loop_
_space_group_symop_operation_xyz
x,y,z
-x,1/2-y,z
x,1/2-y,1/2-z
-x,y,1/2-z
-x,-y,-z
x,1/2+y,-z
-x,1/2+y,1/2+z
x,-y,1/2+z
1/2+x,1/2+y,z
1/2-x,-y,z
1/2+x,-y,1/2-z
1/2-x,1/2+y,1/2-z
1/2-x,1/2-y,-z
1/2+x,y,-z
1/2-x,y,1/2+z
1/2+x,1/2-y,1/2+z
loop_
_atom_site_type_symbol
_atom_site_label
_atom_site_fract_x
_atom_site_fract_y
_atom_site_fract_z
Si Si1 0.477174 0.838337 0.070269
Si Si2 0.604300 0.574866 0.555636
Si Si3 0.290394 0.191065 0.887416
Si Si4 0.150045 0.588145 0.097033
O O1 0.500000 0.750000 0.015481
O O2 0.500000 0.842797 0.250000
O O3 0.521649 0.909926 0.990498
O O4 0.394899 0.853476 0.016861
O O5 0.643920 0.648336 0.470909
O O6 0.643616 0.496110 0.490625
O O7 0.612044 0.579167 0.738015
O O8 0.312054 0.250000 0.750000
O O9 0.229310 0.122528 0.859272
O O10 0.250000 0.250000 0.000000
#
# Coordination Sequence:
#
# PCOD9510626 Si02
#       4
#    16  16  16  16
#     4  11  26  45  75 105 144 189 245 301 361 435
#     4  12  27  46  73 103 147 189 240 301 362 440
#     4  12  27  46  75 106 143 188 242 298 366 436
#     4  12  27  47  71 106 144 192 239 300 367 432
#
# _framework density 23.835602000000002
#
# number of rings (size 3 to 8) (size 9 to 14) (size 15 to 20)
#    0.000    0.250    2.500    5.250   10.500    3.000 
#    0.000    0.000    0.000    0.000    0.000    0.000 
#    0.000    0.000    0.000    0.000    0.000    0.000 
#
# Total GULP energy -179088.406943 kJ/mol
# GULP energy per Si atom -5596.512717 kJ/mol
# Density = 2.378135 g / cm^3
# Si number density = 23.835602 Si / 1000 Ang^3
#
#
#
# Elastic Constant Matrix: (Units=GPa)
#
#
# Indices 1 2 3 4 5 6 
#
# 1 84.0979 24.4581 17.5272 0.0000 0.0000 0.0000
# 2 24.4581 143.6369 36.9108 0.0000 0.0000 0.0000
# 3 17.5272 36.9108 143.9912 0.0000 0.0000 0.0000
# 4 0.0000 0.0000 0.0000 31.5977 0.0000 0.0000
# 5 0.0000 0.0000 0.0000 0.0000 40.3749 0.0000
# 6 0.0000 0.0000 0.0000 0.0000 0.0000 1.6357
#
#
#
# Elastic Compliance Matrix: (Units=1/GPa)
#
#
# Indices 1 2 3 4 5 6 
#
# 1 0.012659 -0.001884 -0.001058 0.000000 0.000000 0.000000
# 2 -0.001884 0.007733 -0.001753 0.000000 0.000000 0.000000
# 3 -0.001058 -0.001753 0.007523 0.000000 0.000000 0.000000
# 4 0.000000 0.000000 0.000000 0.031648 0.000000 0.000000
# 5 0.000000 0.000000 0.000000 0.000000 0.024768 0.000000
# 6 0.000000 0.000000 0.000000 0.000000 0.000000 0.611349
#
#
# Mechanical properties :
#
#
# Convention : Reuss Voigt Hill
#
# Bulk Modulus (GPa) = 53.97848 58.83538 56.40693
# Shear Modulus (GPa) = 7.02993 34.24365 20.63679
#
# Velocity S-wave (km/s) = 1.71923 3.79444 2.94563
# Velocity P-wave (km/s) = 5.16104 6.62831 5.94015
#
# Compressibility (1/GPa) = 0.01852590
#
# Stress axis : x y z
#
# Youngs Moduli (GPa) = 78.99359 129.31195 132.92501
#
# Poissons Ratio (x) = 0.24358 0.14064
# Poissons Ratio (y) = 0.14880 0.23302
# Poissons Ratio (z) = 0.08358 0.22669
#
# Static dielectric constant tensor:
#      x y z
#    x 1.957430 0.000000 0.000000 
#    y 0.000000 1.910700 0.000000 
#    z 0.000000 0.000000 1.915870 
# 
# From -- ./inp_files/7754.got.cif
#   From: 2010.05.17/outbox.cif.g08.bks.cpg/sg68_4_cif.got.tgz:7754.got - 2010.06.03 18:57:09.
