data_PCOD9510442
_publ_section_title
;
Structure prediction by ZEFSAII (Michael W. Deem and Ramdas Pophale) SiO2 
 PCOD9510442
Probable space group: C C C A
;
_chemical_formula_sum "Si O2"
_cell_formula_units_Z 116
_cell_length_a 17.196106
_cell_length_b 16.887678
_cell_length_c 17.911155
_cell_angle_alpha 90.000000
_cell_angle_beta 90.000000
_cell_angle_gamma 90.000000
_cell_volume 5201.440625
_symmetry_space_group_name_H-M "C C C A"
_symmetry_group_IT_number 68
_space_group.IT_coordinate_system_code '2'
_symmetry_cell_setting 'orthorhombic'
loop_
_space_group_symop_operation_xyz
x,y,z
-x,1/2-y,z
x,1/2-y,1/2-z
-x,y,1/2-z
-x,-y,-z
x,1/2+y,-z
-x,1/2+y,1/2+z
x,-y,1/2+z
1/2+x,1/2+y,z
1/2-x,-y,z
1/2+x,-y,1/2-z
1/2-x,1/2+y,1/2-z
1/2-x,1/2-y,-z
1/2+x,y,-z
1/2-x,y,1/2+z
1/2+x,1/2-y,1/2+z
loop_
_atom_site_type_symbol
_atom_site_label
_atom_site_fract_x
_atom_site_fract_y
_atom_site_fract_z
Si Si1 0.618010 0.305009 0.057405
Si Si2 0.078408 0.336473 0.785940
Si Si3 0.829602 0.879017 0.060533
Si Si4 0.116375 0.623367 0.762402
Si Si5 0.661039 0.966927 0.706588
Si Si6 0.500000 0.750000 0.250000
Si Si7 0.711563 0.360465 0.594772
Si Si8 0.659708 0.679138 0.402260
O O1 0.564031 0.327816 0.126026
O O2 0.634285 0.210032 0.064033
O O3 0.697339 0.352063 0.078743
O O4 0.600521 0.329963 0.972071
O O5 0.092866 0.250000 0.750000
O O6 0.148848 0.391610 0.759833
O O7 0.000000 0.368362 0.750000
O O8 0.860558 0.938035 0.123188
O O9 0.738319 0.869341 0.081718
O O10 0.829310 0.905378 0.974235
O O11 0.102460 0.533976 0.736691
O O12 0.182438 0.613940 0.824764
O O13 0.137050 0.662753 0.682573
O O14 0.052480 0.685226 0.793966
O O15 0.750000 0.000000 0.706887
O O16 0.684925 0.269554 0.589830
#
# Coordination Sequence:
#
# PCOD9510442 Si02
#       8
#    16  16  16  16  16   4  16  16
#     4   9  18  35  66  98 123 166 221 272 334 405
#     4  11  24  43  65  93 138 185 224 271 338 411
#     4   9  18  36  60  99 130 156 206 289 346 385
#     4  12  23  41  64  94 129 178 228 263 334 390
#     4  12  24  40  68 100 132 174 222 289 341 387
#     4  12  28  44  64  92 134 192 220 276 308 408
#     4   9  18  35  65  96 126 161 219 282 332 395
#     4   9  17  35  63  94 128 161 216 280 335 388
#
# _framework density 22.301514999999998
#
# number of rings (size 3 to 8) (size 9 to 14) (size 15 to 20)
#    0.000    1.793    4.138    2.483    0.966    0.000 
#    3.724    3.448    0.000    1.655    0.000    0.000 
#    0.000    0.000    0.000    0.000    0.000    0.000 
#
# Total GULP energy -323141.651313 kJ/mol
# GULP energy per Si atom -5571.407781 kJ/mol
# Density = 2.225076 g / cm^3
# Si number density = 22.301515 Si / 1000 Ang^3
#
#
#
# Elastic Constant Matrix: (Units=GPa)
#
#
# Indices 1 2 3 4 5 6 
#
# 1 41.8373 13.2118 25.6795 0.0000 0.0000 0.0000
# 2 13.2118 77.6699 24.4165 0.0000 0.0000 0.0000
# 3 25.6795 24.4165 170.0534 0.0000 0.0000 0.0000
# 4 0.0000 0.0000 0.0000 27.3261 0.0000 0.0000
# 5 0.0000 0.0000 0.0000 0.0000 17.8531 0.0000
# 6 0.0000 0.0000 0.0000 0.0000 0.0000 16.1723
#
#
#
# Elastic Compliance Matrix: (Units=1/GPa)
#
#
# Indices 1 2 3 4 5 6 
#
# 1 0.027221 -0.003496 -0.003609 0.000000 0.000000 0.000000
# 2 -0.003496 0.013933 -0.001473 0.000000 0.000000 0.000000
# 3 -0.003609 -0.001473 0.006637 0.000000 0.000000 0.000000
# 4 0.000000 0.000000 0.000000 0.036595 0.000000 0.000000
# 5 0.000000 0.000000 0.000000 0.000000 0.056013 0.000000
# 6 0.000000 0.000000 0.000000 0.000000 0.000000 0.061834
#
#
# Mechanical properties :
#
#
# Convention : Reuss Voigt Hill
#
# Bulk Modulus (GPa) = 32.64106 46.24180 39.44143
# Shear Modulus (GPa) = 21.77711 27.35381 24.56546
#
# Velocity S-wave (km/s) = 3.12827 3.50601 3.32251
# Velocity P-wave (km/s) = 5.26461 6.09666 5.69585
#
# Compressibility (1/GPa) = 0.03063626
#
# Stress axis : x y z
#
# Youngs Moduli (GPa) = 36.73624 71.77423 150.67331
#
# Poissons Ratio (x) = 0.25092 0.54373
# Poissons Ratio (y) = 0.12843 0.22187
# Poissons Ratio (z) = 0.13257 0.10569
#
# Static dielectric constant tensor:
#      x y z
#    x 1.944890 0.000000 0.000000 
#    y 0.000000 1.835670 0.000000 
#    z 0.000000 0.000000 1.920000 
# 
# From -- ./inp_files/32160.got.cif
#   From: 2010.05.17/outbox.cif.g08.bks.cpg/sg68_17_cif.got.tgz:32160.got - 2010.06.03 18:57:09.
