data_PCOD9510403
_publ_section_title
;
Structure prediction by ZEFSAII (Michael W. Deem and Ramdas Pophale) SiO2 
 PCOD9510403
Probable space group: C C C A
;
_chemical_formula_sum "Si O2"
_cell_formula_units_Z 88
_cell_length_a 7.836033
_cell_length_b 20.747127
_cell_length_c 26.231741
_cell_angle_alpha 90.000000
_cell_angle_beta 90.000000
_cell_angle_gamma 90.000000
_cell_volume 4264.629800
_symmetry_space_group_name_H-M "C C C A"
_symmetry_group_IT_number 68
_space_group.IT_coordinate_system_code '2'
_symmetry_cell_setting 'orthorhombic'
loop_
_space_group_symop_operation_xyz
x,y,z
-x,1/2-y,z
x,1/2-y,1/2-z
-x,y,1/2-z
-x,-y,-z
x,1/2+y,-z
-x,1/2+y,1/2+z
x,-y,1/2+z
1/2+x,1/2+y,z
1/2-x,-y,z
1/2+x,-y,1/2-z
1/2-x,1/2+y,1/2-z
1/2-x,1/2-y,-z
1/2+x,y,-z
1/2-x,y,1/2+z
1/2+x,1/2-y,1/2+z
loop_
_atom_site_type_symbol
_atom_site_label
_atom_site_fract_x
_atom_site_fract_y
_atom_site_fract_z
Si Si1 0.750000 0.000000 0.136377
Si Si2 0.742156 0.428351 0.031447
Si Si3 0.430588 0.353533 0.893883
Si Si4 0.744656 0.735229 0.438115
Si Si5 0.119306 0.886084 0.430848
Si Si6 0.077330 0.454288 0.305927
O O1 0.721966 0.066170 0.105515
O O2 0.923829 0.006651 0.167684
O O3 0.750000 0.500000 0.011134
O O4 0.894645 0.415101 0.070283
O O5 0.563113 0.417081 0.058050
O O6 0.778097 0.383929 0.983943
O O7 0.283357 0.302256 0.908767
O O8 0.591628 0.311877 0.914801
O O9 0.412714 0.386667 0.838286
O O10 0.750000 0.750000 0.500000
O O11 0.899234 0.689532 0.420494
O O12 0.250000 0.500000 0.305834
O O13 0.000000 0.440744 0.250000
#
# Coordination Sequence:
#
# PCOD9510403 Si02
#       6
#     8  16  16  16  16  16
#     4  12  24  44  70 104 142 174 240 298 382 436
#     4  12  24  38  61  99 143 184 233 287 359 429
#     4  11  24  43  65  97 140 185 242 285 357 428
#     4  11  24  40  64  95 142 192 231 272 333 437
#     4  12  24  38  63  97 140 191 230 286 350 442
#     4  12  26  50  78 106 135 181 242 319 383 438
#
# _framework density 20.63485
#
# number of rings (size 3 to 8) (size 9 to 14) (size 15 to 20)
#    0.000    0.364    5.455    4.364    2.545    0.727 
#    0.000    1.818    0.000    0.000    0.000    1.273 
#    0.000    0.000    0.000    0.000    0.000    0.000 
#
# Total GULP energy -245085.270672 kJ/mol
# GULP energy per Si atom -5570.119788 kJ/mol
# Density = 2.058788 g / cm^3
# Si number density = 20.634850 Si / 1000 Ang^3
#
#
#
# Elastic Constant Matrix: (Units=GPa)
#
#
# Indices 1 2 3 4 5 6 
#
# 1 123.6974 34.5364 41.6693 0.0000 0.0000 0.0000
# 2 34.5364 145.3092 55.8380 0.0000 0.0000 0.0000
# 3 41.6693 55.8380 141.1889 0.0000 0.0000 0.0000
# 4 0.0000 0.0000 0.0000 25.5764 0.0000 0.0000
# 5 0.0000 0.0000 0.0000 0.0000 29.3374 0.0000
# 6 0.0000 0.0000 0.0000 0.0000 0.0000 38.0026
#
#
#
# Elastic Compliance Matrix: (Units=1/GPa)
#
#
# Indices 1 2 3 4 5 6 
#
# 1 0.009195 -0.001347 -0.002181 0.000000 0.000000 0.000000
# 2 -0.001347 0.008313 -0.002890 0.000000 0.000000 0.000000
# 3 -0.002181 -0.002890 0.008869 0.000000 0.000000 0.000000
# 4 0.000000 0.000000 0.000000 0.039099 0.000000 0.000000
# 5 0.000000 0.000000 0.000000 0.000000 0.034086 0.000000
# 6 0.000000 0.000000 0.000000 0.000000 0.000000 0.026314
#
#
# Mechanical properties :
#
#
# Convention : Reuss Voigt Hill
#
# Bulk Modulus (GPa) = 73.85148 74.92031 74.38589
# Shear Modulus (GPa) = 34.90998 37.12672 36.01835
#
# Velocity S-wave (km/s) = 4.11761 4.24633 4.18246
# Velocity P-wave (km/s) = 7.64681 7.77356 7.71044
#
# Compressibility (1/GPa) = 0.01354069
#
# Stress axis : x y z
#
# Youngs Moduli (GPa) = 108.75354 120.29929 112.74919
#
# Poissons Ratio (x) = 0.16209 0.24589
# Poissons Ratio (y) = 0.14653 0.32583
# Poissons Ratio (z) = 0.23718 0.34765
#
# Static dielectric constant tensor:
#      x y z
#    x 1.927490 0.000000 0.000000 
#    y 0.000000 1.811770 0.000000 
#    z 0.000000 0.000000 1.792780 
# 
# From -- ./inp_files/43119.got.cif
#   From: 2010.05.17/outbox.cif.g08.bks.cpg/sg68_22_cif.got.tgz:43119.got - 2010.06.03 18:57:09.
