data_PCOD9510665
_publ_section_title
;
Structure prediction by ZEFSAII (Michael W. Deem and Ramdas Pophale) SiO2 
 PCOD9510665
Probable space group: C C C A
;
_chemical_formula_sum "Si O2"
_cell_formula_units_Z 64
_cell_length_a 24.945314
_cell_length_b 11.568252
_cell_length_c 9.159613
_cell_angle_alpha 90.000000
_cell_angle_beta 90.000000
_cell_angle_gamma 90.000000
_cell_volume 2643.223218
_symmetry_space_group_name_H-M "C C C A"
_symmetry_group_IT_number 68
_space_group.IT_coordinate_system_code '2'
_symmetry_cell_setting 'orthorhombic'
loop_
_space_group_symop_operation_xyz
x,y,z
-x,1/2-y,z
x,1/2-y,1/2-z
-x,y,1/2-z
-x,-y,-z
x,1/2+y,-z
-x,1/2+y,1/2+z
x,-y,1/2+z
1/2+x,1/2+y,z
1/2-x,-y,z
1/2+x,-y,1/2-z
1/2-x,1/2+y,1/2-z
1/2-x,1/2-y,-z
1/2+x,y,-z
1/2-x,y,1/2+z
1/2+x,1/2-y,1/2+z
loop_
_atom_site_type_symbol
_atom_site_label
_atom_site_fract_x
_atom_site_fract_y
_atom_site_fract_z
Si Si1 0.295143 0.250000 0.250000
Si Si2 0.875176 0.201992 0.017310
Si Si3 0.750000 0.500000 0.232116
Si Si4 0.534121 0.419359 0.109302
Si Si5 0.136477 0.568270 0.799240
O O1 0.334148 0.219909 0.115006
O O2 0.261529 0.132945 0.293098
O O3 0.936851 0.186964 0.968966
O O4 0.913321 0.012671 0.832808
O O5 0.872076 0.315148 0.114245
O O6 0.806026 0.479168 0.152879
O O7 0.500000 0.389394 0.250000
O O8 0.638279 0.595763 0.373710
O O9 0.500000 0.500000 0.000000
#
# Coordination Sequence:
#
# PCOD9510665 Si02
#       5
#     8  16   8  16  16
#     4  12  28  48  85 120 163 220 276 336 410 502
#     4  11  27  51  76 117 160 214 273 338 406 494
#     4  12  28  52  84 122 168 220 268 344 414 506
#     4  12  26  51  80 114 156 216 276 342 408 490
#     4  11  27  51  76 117 166 208 271 341 421 477
#
# _framework density 24.212862000000001
#
# number of rings (size 3 to 8) (size 9 to 14) (size 15 to 20)
#    0.000    0.500    5.000    1.500    7.000    7.000 
#    0.000    0.000    0.000    0.000    0.000    0.000 
#    0.000    0.000    0.000    0.000    0.000    0.000 
#
# Total GULP energy -178907.703090 kJ/mol
# GULP energy per Si atom -5590.865722 kJ/mol
# Density = 2.415775 g / cm^3
# Si number density = 24.212862 Si / 1000 Ang^3
#
#
#
# Elastic Constant Matrix: (Units=GPa)
#
#
# Indices 1 2 3 4 5 6 
#
# 1 202.7261 63.8455 65.1824 0.0000 0.0000 0.0000
# 2 63.8455 125.7591 37.7953 0.0000 0.0000 0.0000
# 3 65.1824 37.7953 137.9095 0.0000 0.0000 0.0000
# 4 0.0000 0.0000 0.0000 28.1612 0.0000 0.0000
# 5 0.0000 0.0000 0.0000 0.0000 222.6243 0.0000
# 6 0.0000 0.0000 0.0000 0.0000 0.0000 5.8596
#
#
#
# Elastic Compliance Matrix: (Units=1/GPa)
#
#
# Indices 1 2 3 4 5 6 
#
# 1 0.006511 -0.002594 -0.002366 0.000000 0.000000 0.000000
# 2 -0.002594 0.009699 -0.001432 0.000000 0.000000 0.000000
# 3 -0.002366 -0.001432 0.008762 0.000000 0.000000 0.000000
# 4 0.000000 0.000000 0.000000 0.035510 0.000000 0.000000
# 5 0.000000 0.000000 0.000000 0.000000 0.004492 0.000000
# 6 0.000000 0.000000 0.000000 0.000000 0.000000 0.170661
#
#
# Mechanical properties :
#
#
# Convention : Reuss Voigt Hill
#
# Bulk Modulus (GPa) = 82.05574 88.89345 85.47459
# Shear Modulus (GPa) = 19.80345 71.30046 45.55196
#
# Velocity S-wave (km/s) = 2.86298 5.43243 4.34212
# Velocity P-wave (km/s) = 6.70013 8.72590 7.77924
#
# Compressibility (1/GPa) = 0.01218684
#
# Stress axis : x y z
#
# Youngs Moduli (GPa) = 153.59642 103.10251 114.12948
#
# Poissons Ratio (x) = 0.26746 0.27006
# Poissons Ratio (y) = 0.39845 0.16343
# Poissons Ratio (z) = 0.36345 0.14764
#
# Static dielectric constant tensor:
#      x y z
#    x 1.891580 0.000000 0.000000 
#    y 0.000000 1.956370 0.000000 
#    z 0.000000 0.000000 2.004810 
# 
# From -- ./inp_files/16108.got.cif
#   From: 2010.05.17/outbox.cif.g08.bks.cpg/sg68_9_cif.got.tgz:16108.got - 2010.06.03 18:57:09.
