data_PCOD9510715
_publ_section_title
;
Structure prediction by ZEFSAII (Michael W. Deem and Ramdas Pophale) SiO2 
 PCOD9510715
Probable space group: C C C A
;
_chemical_formula_sum "Si O2"
_cell_formula_units_Z 92
_cell_length_a 19.365543
_cell_length_b 24.411023
_cell_length_c 8.985284
_cell_angle_alpha 90.000000
_cell_angle_beta 90.000000
_cell_angle_gamma 90.000000
_cell_volume 4247.637706
_symmetry_space_group_name_H-M "C C C A"
_symmetry_group_IT_number 68
_space_group.IT_coordinate_system_code '2'
_symmetry_cell_setting 'orthorhombic'
loop_
_space_group_symop_operation_xyz
x,y,z
-x,1/2-y,z
x,1/2-y,1/2-z
-x,y,1/2-z
-x,-y,-z
x,1/2+y,-z
-x,1/2+y,1/2+z
x,-y,1/2+z
1/2+x,1/2+y,z
1/2-x,-y,z
1/2+x,-y,1/2-z
1/2-x,1/2+y,1/2-z
1/2-x,1/2-y,-z
1/2+x,y,-z
1/2-x,y,1/2+z
1/2+x,1/2-y,1/2+z
loop_
_atom_site_type_symbol
_atom_site_label
_atom_site_fract_x
_atom_site_fract_y
_atom_site_fract_z
Si Si1 0.384239 0.836459 0.778963
Si Si2 0.250000 0.500000 0.028394
Si Si3 0.161927 0.396886 0.429708
Si Si4 0.612990 0.960680 0.179972
Si Si5 0.936807 0.563595 0.135595
Si Si6 0.755489 0.211128 0.357623
Si Si7 0.000000 0.250000 0.750000
O O1 0.402071 0.876723 0.641824
O O2 0.315098 0.805268 0.728132
O O3 0.444701 0.793269 0.820013
O O4 0.372315 0.878090 0.916042
O O5 0.309803 0.532729 0.115415
O O6 0.208104 0.548461 0.947713
O O7 0.110046 0.410836 0.295841
O O8 0.209243 0.345855 0.390498
O O9 0.601726 0.014751 0.278368
O O10 0.561864 0.954486 0.038055
O O11 0.000000 0.571110 0.250000
O O12 0.799535 0.250000 0.250000
O O13 0.750000 0.250000 0.500000
#
# Coordination Sequence:
#
# PCOD9510715 Si02
#       7
#    16   8  16  16  16  16   4
#     4  12  24  47  70 101 138 185 247 295 359 437
#     4  12  22  42  70 108 150 186 226 292 380 452
#     4  12  25  44  69 109 149 185 238 301 375 449
#     4  12  25  42  70 105 146 185 231 295 371 446
#     4  12  25  45  70  97 138 190 238 293 354 432
#     4  12  25  44  69 103 145 188 242 304 367 435
#     4  12  24  48  80  90 132 200 250 302 350 424
#
# _framework density 21.659096999999999
#
# number of rings (size 3 to 8) (size 9 to 14) (size 15 to 20)
#    0.000    0.000    6.957    3.130    2.435    0.000 
#    0.000    0.000    0.000    1.043    0.000    0.000 
#    0.000    0.000    0.000    0.000    0.000    0.000 
#
# Total GULP energy -256494.518790 kJ/mol
# GULP energy per Si atom -5575.967800 kJ/mol
# Density = 2.160980 g / cm^3
# Si number density = 21.659097 Si / 1000 Ang^3
#
#
#
# Elastic Constant Matrix: (Units=GPa)
#
#
# Indices 1 2 3 4 5 6 
#
# 1 54.1879 30.8537 20.0101 0.0000 0.0000 0.0000
# 2 30.8537 148.5488 56.3587 0.0000 0.0000 0.0000
# 3 20.0101 56.3587 129.5453 0.0000 0.0000 0.0000
# 4 0.0000 0.0000 0.0000 38.8314 0.0000 0.0000
# 5 0.0000 0.0000 0.0000 0.0000 23.6570 0.0000
# 6 0.0000 0.0000 0.0000 0.0000 0.0000 38.5349
#
#
#
# Elastic Compliance Matrix: (Units=1/GPa)
#
#
# Indices 1 2 3 4 5 6 
#
# 1 0.021212 -0.003788 -0.001629 0.000000 0.000000 0.000000
# 2 -0.003788 0.008739 -0.003217 0.000000 0.000000 0.000000
# 3 -0.001629 -0.003217 0.009370 0.000000 0.000000 0.000000
# 4 0.000000 0.000000 0.000000 0.025752 0.000000 0.000000
# 5 0.000000 0.000000 0.000000 0.000000 0.042271 0.000000
# 6 0.000000 0.000000 0.000000 0.000000 0.000000 0.025951
#
#
# Mechanical properties :
#
#
# Convention : Reuss Voigt Hill
#
# Bulk Modulus (GPa) = 45.34103 60.74745 53.04424
# Shear Modulus (GPa) = 31.66281 35.20862 33.43572
#
# Velocity S-wave (km/s) = 3.82759 4.03622 3.93329
# Velocity P-wave (km/s) = 6.36501 7.05900 6.72097
#
# Compressibility (1/GPa) = 0.02205508
#
# Stress axis : x y z
#
# Youngs Moduli (GPa) = 47.14204 114.42962 106.71975
#
# Poissons Ratio (x) = 0.43345 0.17381
# Poissons Ratio (y) = 0.17857 0.34330
# Poissons Ratio (z) = 0.07678 0.36810
#
# Static dielectric constant tensor:
#      x y z
#    x 1.803950 0.000000 0.000000 
#    y 0.000000 1.853550 0.000000 
#    z 0.000000 0.000000 1.761270 
# 
# From -- ./inp_files/7182.got.cif
#   From: 2010.05.17/outbox.cif.g08.bks.cpg/sg68_4_cif.got.tgz:7182.got - 2010.06.03 18:57:09.
