data_PCOD9510126
_publ_section_title
;
Structure prediction by ZEFSAII (Michael W. Deem and Ramdas Pophale) SiO2 
 PCOD9510126
Probable space group: C C C A
;
_chemical_formula_sum "Si O2"
_cell_formula_units_Z 88
_cell_length_a 8.245228
_cell_length_b 22.797954
_cell_length_c 22.092327
_cell_angle_alpha 90.000000
_cell_angle_beta 90.000000
_cell_angle_gamma 90.000000
_cell_volume 4152.790336
_symmetry_space_group_name_H-M "C C C A"
_symmetry_group_IT_number 68
_space_group.IT_coordinate_system_code '2'
_symmetry_cell_setting 'orthorhombic'
loop_
_space_group_symop_operation_xyz
x,y,z
-x,1/2-y,z
x,1/2-y,1/2-z
-x,y,1/2-z
-x,-y,-z
x,1/2+y,-z
-x,1/2+y,1/2+z
x,-y,1/2+z
1/2+x,1/2+y,z
1/2-x,-y,z
1/2+x,-y,1/2-z
1/2-x,1/2+y,1/2-z
1/2-x,1/2-y,-z
1/2+x,y,-z
1/2-x,y,1/2+z
1/2+x,1/2-y,1/2+z
loop_
_atom_site_type_symbol
_atom_site_label
_atom_site_fract_x
_atom_site_fract_y
_atom_site_fract_z
Si Si1 0.000000 0.250000 0.494678
Si Si2 0.836329 0.814563 0.395929
Si Si3 0.925016 0.373919 0.048556
Si Si4 0.270938 0.567741 0.570136
Si Si5 0.316760 0.775388 0.310130
Si Si6 0.904244 0.878490 0.186440
O O1 0.107147 0.210667 0.539767
O O2 0.059640 0.303419 0.454501
O O3 0.726532 0.873184 0.405373
O O4 0.761527 0.757254 0.365657
O O5 0.980006 0.835111 0.351823
O O6 0.092700 0.402166 0.069729
O O7 0.872195 0.399842 0.983408
O O8 0.250000 0.500000 0.553498
O O9 0.358091 0.572885 0.635655
O O10 0.500000 0.750000 0.310223
O O11 0.236112 0.750000 0.250000
O O12 0.267219 0.843285 0.305854
O O13 0.000000 0.892181 0.250000
#
# Coordination Sequence:
#
# PCOD9510126 Si02
#       6
#     8  16  16  16  16  16
#     4  12  22  36  65 100 145 170 206 268 364 430
#     4  12  22  37  65 101 140 182 214 273 358 428
#     4  12  25  42  68 107 139 175 232 290 360 427
#     4  12  26  48  71  97 135 190 241 295 346 417
#     4  11  22  36  61  99 138 177 218 273 344 427
#     4  12  24  44  65  94 135 182 233 283 349 413
#
# _framework density 21.190573000000001
#
# number of rings (size 3 to 8) (size 9 to 14) (size 15 to 20)
#    0.000    0.182    7.273    2.182    3.818    0.000 
#    0.000    1.818    0.000    0.000    0.000    0.000 
#    0.000    0.000    0.000    0.000    0.000    0.000 
#
# Total GULP energy -245066.142336 kJ/mol
# GULP energy per Si atom -5569.685053 kJ/mol
# Density = 2.114234 g / cm^3
# Si number density = 21.190573 Si / 1000 Ang^3
#
#
#
# Elastic Constant Matrix: (Units=GPa)
#
#
# Indices 1 2 3 4 5 6 
#
# 1 100.1217 24.2016 24.0296 0.0000 0.0000 0.0000
# 2 24.2016 91.9415 24.9732 0.0000 0.0000 0.0000
# 3 24.0296 24.9732 95.6722 0.0000 0.0000 0.0000
# 4 0.0000 0.0000 0.0000 14.9104 0.0000 0.0000
# 5 0.0000 0.0000 0.0000 0.0000 23.0076 0.0000
# 6 0.0000 0.0000 0.0000 0.0000 0.0000 16.1392
#
#
#
# Elastic Compliance Matrix: (Units=1/GPa)
#
#
# Indices 1 2 3 4 5 6 
#
# 1 0.011071 -0.002324 -0.002174 0.000000 0.000000 0.000000
# 2 -0.002324 0.012194 -0.002599 0.000000 0.000000 0.000000
# 3 -0.002174 -0.002599 0.011677 0.000000 0.000000 0.000000
# 4 0.000000 0.000000 0.000000 0.067067 0.000000 0.000000
# 5 0.000000 0.000000 0.000000 0.000000 0.043464 0.000000
# 6 0.000000 0.000000 0.000000 0.000000 0.000000 0.061961
#
#
# Mechanical properties :
#
#
# Convention : Reuss Voigt Hill
#
# Bulk Modulus (GPa) = 48.19773 48.23827 48.21800
# Shear Modulus (GPa) = 21.87749 25.11349 23.49549
#
# Velocity S-wave (km/s) = 3.21661 3.44630 3.33343
# Velocity P-wave (km/s) = 6.04894 6.21687 6.13348
#
# Compressibility (1/GPa) = 0.02074787
#
# Stress axis : x y z
#
# Youngs Moduli (GPa) = 90.32312 82.00617 85.63872
#
# Poissons Ratio (x) = 0.19056 0.18619
# Poissons Ratio (y) = 0.20989 0.22261
# Poissons Ratio (z) = 0.19638 0.21317
#
# Static dielectric constant tensor:
#      x y z
#    x 2.970180 0.000000 0.000000 
#    y 0.000000 1.873690 0.000000 
#    z 0.000000 0.000000 1.916070 
# 
# From -- ./inp_files/43118.got.cif
#   From: 2010.05.17/outbox.cif.g08.bks.cpg/sg68_22_cif.got.tgz:43118.got - 2010.06.03 18:57:09.
