data_PCOD9510958
_publ_section_title
;
Structure prediction by ZEFSAII (Michael W. Deem and Ramdas Pophale) SiO2 
 PCOD9510958
Probable space group: C C C A
;
_chemical_formula_sum "Si O2"
_cell_formula_units_Z 46
_cell_length_a 9.000000
_cell_length_b 21.000000
_cell_length_c 27.000000
_cell_angle_alpha 90.000000
_cell_angle_beta 90.000000
_cell_angle_gamma 90.000000
_cell_volume 5103.000000
_symmetry_space_group_name_H-M "C C C A"
_symmetry_group_IT_number 68
_space_group.IT_coordinate_system_code '2'
_symmetry_cell_setting 'orthorhombic'
loop_
_space_group_symop_operation_xyz
x,y,z
-x,1/2-y,z
x,1/2-y,1/2-z
-x,y,1/2-z
-x,-y,-z
x,1/2+y,-z
-x,1/2+y,1/2+z
x,-y,1/2+z
1/2+x,1/2+y,z
1/2-x,-y,z
1/2+x,-y,1/2-z
1/2-x,1/2+y,1/2-z
1/2-x,1/2-y,-z
1/2+x,y,-z
1/2-x,y,1/2+z
1/2+x,1/2-y,1/2+z
loop_
_atom_site_type_symbol
_atom_site_label
_atom_site_fract_x
_atom_site_fract_y
_atom_site_fract_z
Si Si1 0.462465 0.128772 0.540786
Si Si2 0.500000 0.250000 0.886248
Si Si3 0.000000 0.250000 0.750000
Si Si4 0.109789 0.619052 0.433995
Si Si5 0.387642 0.948949 0.201892
Si Si6 0.568709 0.991431 0.102510
Si Si7 0.722522 0.316890 0.167359
O O1 0.508086 0.188303 0.576780
O O2 0.283391 0.115979 0.547091
O O3 0.516370 0.140374 0.483623
O O4 0.540416 0.065435 0.563012
O O5 0.646740 0.232544 0.852208
O O6 0.111681 0.288877 0.788963
O O7 0.130210 0.661408 0.382847
O O8 0.023481 0.554214 0.416421
O O9 0.500000 0.945774 0.250000
O O10 0.488728 0.970479 0.154414
O O11 0.309560 0.880456 0.188148
O O12 0.250000 0.000000 0.208735
O O13 0.750000 0.000000 0.107656
#
# Coordination Sequence:
#
# PCOD9510958 Si02
#       7
#    16   8   4  16  16  16  16
#     4  11  23  41  70 103 136 189 222 276 351 412
#     4  10  24  46  70  96 140 184 230 274 340 422
#     4  12  32  44  72 100 132 192 236 282 346 406
#     4  11  23  44  69 102 143 176 228 293 343 413
#     4  12  25  46  73 103 139 178 231 294 352 404
#     4  12  23  42  68 105 140 178 228 287 348 414
#     4  11  27  48  70  99 141 180 231 290 338 412
#
# _framework density 9.0143050000000002
#
# number of rings (size 3 to 8) (size 9 to 14) (size 15 to 20)
#    0.000    0.696    5.217    2.609    3.652    7.652 
#    0.000    0.000    0.000    0.000    0.000    0.000 
#    0.000    0.000    0.000    0.000    0.000    0.000 
#
# Total GULP energy -256473.162380 kJ/mol
# GULP energy per Si atom -5575.503530 kJ/mol
# Density = 0.899379 g / cm^3
# Si number density = 9.014305 Si / 1000 Ang^3
#
#
#
# Elastic Constant Matrix: (Units=GPa)
#
#
# Indices 1 2 3 4 5 6 
#
# 1 167.7071 64.9977 68.6334 0.0000 0.0000 0.0000
# 2 64.9977 117.4626 48.7828 0.0000 0.0000 0.0000
# 3 68.6334 48.7828 172.1231 0.0000 0.0000 0.0000
# 4 0.0000 0.0000 0.0000 40.7939 0.0000 0.0000
# 5 0.0000 0.0000 0.0000 0.0000 63.7196 0.0000
# 6 0.0000 0.0000 0.0000 0.0000 0.0000 44.0122
#
#
#
# Elastic Compliance Matrix: (Units=1/GPa)
#
#
# Indices 1 2 3 4 5 6 
#
# 1 0.008311 -0.003652 -0.002279 0.000000 0.000000 0.000000
# 2 -0.003652 0.011254 -0.001733 0.000000 0.000000 0.000000
# 3 -0.002279 -0.001733 0.007210 0.000000 0.000000 0.000000
# 4 0.000000 0.000000 0.000000 0.024513 0.000000 0.000000
# 5 0.000000 0.000000 0.000000 0.000000 0.015694 0.000000
# 6 0.000000 0.000000 0.000000 0.000000 0.000000 0.022721
#
#
# Mechanical properties :
#
#
# Convention : Reuss Voigt Hill
#
# Bulk Modulus (GPa) = 87.36757 91.34674 89.35715
# Shear Modulus (GPa) = 45.93589 48.03039 46.98314
#
# Velocity S-wave (km/s) = 5.05319 5.16711 5.11047
# Velocity P-wave (km/s) = 9.08912 9.29389 9.19207
#
# Compressibility (1/GPa) = 0.01144589
#
# Stress axis : x y z
#
# Youngs Moduli (GPa) = 120.32354 88.85530 138.70232
#
# Poissons Ratio (x) = 0.32454 0.31607
# Poissons Ratio (y) = 0.43948 0.24041
# Poissons Ratio (z) = 0.27419 0.15401
#
# Static dielectric constant tensor:
#      x y z
#    x 1.628280 0.000000 0.000000 
#    y 0.000000 1.643370 0.000000 
#    z 0.000000 0.000000 1.642320 
# 
# From -- ./inp_files/49359.got.cif
#   From: 2010.05.17/outbox.ucp.g08.bks.cvg/sg68_25_cif.got.tgz:49359.got - 2010.06.11 16:49:25.
