data_PCOD9510750
_publ_section_title
;
Structure prediction by ZEFSAII (Michael W. Deem and Ramdas Pophale) SiO2 
 PCOD9510750
Probable space group: C C C A
;
_chemical_formula_sum "Si O2"
_cell_formula_units_Z 60
_cell_length_a 14.840487
_cell_length_b 6.597196
_cell_length_c 28.227390
_cell_angle_alpha 90.000000
_cell_angle_beta 90.000000
_cell_angle_gamma 90.000000
_cell_volume 2763.619596
_symmetry_space_group_name_H-M "C C C A"
_symmetry_group_IT_number 68
_space_group.IT_coordinate_system_code '2'
_symmetry_cell_setting 'orthorhombic'
loop_
_space_group_symop_operation_xyz
x,y,z
-x,1/2-y,z
x,1/2-y,1/2-z
-x,y,1/2-z
-x,-y,-z
x,1/2+y,-z
-x,1/2+y,1/2+z
x,-y,1/2+z
1/2+x,1/2+y,z
1/2-x,-y,z
1/2+x,-y,1/2-z
1/2-x,1/2+y,1/2-z
1/2-x,1/2-y,-z
1/2+x,y,-z
1/2-x,y,1/2+z
1/2+x,1/2-y,1/2+z
loop_
_atom_site_type_symbol
_atom_site_label
_atom_site_fract_x
_atom_site_fract_y
_atom_site_fract_z
Si Si1 0.500000 0.750000 0.750000
Si Si2 0.093360 0.129661 0.294557
Si Si3 0.250000 0.500000 0.456730
Si Si4 0.332856 0.853431 0.398264
Si Si5 0.571362 0.883273 0.012034
O O1 0.436538 0.597490 0.719966
O O2 0.136821 0.250000 0.250000
O O3 0.147001 0.142513 0.342925
O O4 0.000000 0.250000 0.302722
O O5 0.304389 0.641806 0.420572
O O6 0.327125 0.385463 0.487650
O O7 0.416153 0.917330 0.431265
O O8 0.250000 0.000000 0.407494
O O9 0.547740 0.627967 0.004909
#
# Coordination Sequence:
#
# PCOD9510750 Si02
#       5
#     4  16   8  16  16
#     4   8  18  44  72  90 128 168 224 288 332 418
#     4   9  21  43  68  97 129 170 232 282 340 411
#     4  12  26  46  64 100 148 172 236 286 328 422
#     4  12  25  43  65 101 138 176 228 284 343 413
#     4  12  23  43  70  95 137 189 224 278 343 400
#
# _framework density 21.710657000000001
#
# number of rings (size 3 to 8) (size 9 to 14) (size 15 to 20)
#    0.000    1.333    4.000    3.200    0.000    4.267 
#    7.200    0.000    0.000    0.000    0.000    0.000 
#    0.000    0.000    0.000    0.000    0.000    0.000 
#
# Total GULP energy -167312.765913 kJ/mol
# GULP energy per Si atom -5577.092197 kJ/mol
# Density = 2.166124 g / cm^3
# Si number density = 21.710657 Si / 1000 Ang^3
#
#
#
# Elastic Constant Matrix: (Units=GPa)
#
#
# Indices 1 2 3 4 5 6 
#
# 1 122.6143 62.5180 61.9399 0.0000 0.0000 0.0000
# 2 62.5180 133.8868 67.0270 0.0000 0.0000 0.0000
# 3 61.9399 67.0270 195.3475 0.0000 0.0000 0.0000
# 4 0.0000 0.0000 0.0000 55.3155 0.0000 0.0000
# 5 0.0000 0.0000 0.0000 0.0000 54.9563 0.0000
# 6 0.0000 0.0000 0.0000 0.0000 0.0000 53.2882
#
#
#
# Elastic Compliance Matrix: (Units=1/GPa)
#
#
# Indices 1 2 3 4 5 6 
#
# 1 0.011413 -0.004247 -0.002162 0.000000 0.000000 0.000000
# 2 -0.004247 0.010599 -0.002290 0.000000 0.000000 0.000000
# 3 -0.002162 -0.002290 0.006590 0.000000 0.000000 0.000000
# 4 0.000000 0.000000 0.000000 0.018078 0.000000 0.000000
# 5 0.000000 0.000000 0.000000 0.000000 0.018196 0.000000
# 6 0.000000 0.000000 0.000000 0.000000 0.000000 0.018766
#
#
# Mechanical properties :
#
#
# Convention : Reuss Voigt Hill
#
# Bulk Modulus (GPa) = 89.24877 92.75760 91.00318
# Shear Modulus (GPa) = 47.72168 50.06958 48.89563
#
# Velocity S-wave (km/s) = 4.69345 4.80752 4.75083
# Velocity P-wave (km/s) = 8.40053 8.58100 8.49124
#
# Compressibility (1/GPa) = 0.01120464
#
# Stress axis : x y z
#
# Youngs Moduli (GPa) = 87.61850 94.35237 151.74185
#
# Poissons Ratio (x) = 0.40073 0.32799
# Poissons Ratio (y) = 0.37213 0.34747
# Poissons Ratio (z) = 0.18939 0.21605
#
# Static dielectric constant tensor:
#      x y z
#    x 1.845190 0.000000 0.000000 
#    y 0.000000 1.926530 0.000000 
#    z 0.000000 0.000000 1.756710 
# 
# From -- ./inp_files/34962.got.cif
#   From: 2010.05.17/outbox.cif.g08.bks.cpg/sg68_18_cif.got.tgz:34962.got - 2010.06.03 18:57:09.
