data_PCOD9510648
_publ_section_title
;
Structure prediction by ZEFSAII (Michael W. Deem and Ramdas Pophale) SiO2 
 PCOD9510648
Probable space group: C C C A
;
_chemical_formula_sum "Si O2"
_cell_formula_units_Z 48
_cell_length_a 17.971801
_cell_length_b 5.280049
_cell_length_c 21.319795
_cell_angle_alpha 90.000000
_cell_angle_beta 90.000000
_cell_angle_gamma 90.000000
_cell_volume 2023.077772
_symmetry_space_group_name_H-M "C C C A"
_symmetry_group_IT_number 68
_space_group.IT_coordinate_system_code '2'
_symmetry_cell_setting 'orthorhombic'
loop_
_space_group_symop_operation_xyz
x,y,z
-x,1/2-y,z
x,1/2-y,1/2-z
-x,y,1/2-z
-x,-y,-z
x,1/2+y,-z
-x,1/2+y,1/2+z
x,-y,1/2+z
1/2+x,1/2+y,z
1/2-x,-y,z
1/2+x,-y,1/2-z
1/2-x,1/2+y,1/2-z
1/2-x,1/2-y,-z
1/2+x,y,-z
1/2-x,y,1/2+z
1/2+x,1/2-y,1/2+z
loop_
_atom_site_type_symbol
_atom_site_label
_atom_site_fract_x
_atom_site_fract_y
_atom_site_fract_z
Si Si1 0.000000 0.750000 0.641217
Si Si2 0.120199 0.250000 0.250000
Si Si3 0.250000 0.000000 0.390182
Si Si4 0.750000 0.000000 0.304882
Si Si5 0.908635 0.968738 0.041381
O O1 0.931506 0.722048 0.689255
O O2 0.969101 0.968686 0.595358
O O3 0.177897 0.478023 0.260615
O O4 0.251045 0.744139 0.349349
O O5 0.325727 0.008814 0.430176
O O6 0.915896 0.197406 0.991392
#
# Coordination Sequence:
#
# PCOD9510648 Si02
#       5
#     8   8   8   8  16
#     4  11  26  50  76 118 154 203 250 318 392 451
#     4  11  26  50  82 111 154 200 260 315 384 456
#     4  12  25  49  82 112 154 199 267 310 378 454
#     4  12  25  51  78 114 150 201 255 324 372 456
#     4  12  26  50  77 112 156 204 254 314 378 457
#
# _framework density 23.726224999999999
#
# number of rings (size 3 to 8) (size 9 to 14) (size 15 to 20)
#    0.000    0.333    3.333    5.000    0.000    0.000 
#    0.000    0.000    0.000    0.000    0.000    0.000 
#    0.000    0.000    0.000    0.000    0.000    0.000 
#
# Total GULP energy -134237.611812 kJ/mol
# GULP energy per Si atom -5593.233826 kJ/mol
# Density = 2.367222 g / cm^3
# Si number density = 23.726225 Si / 1000 Ang^3
#
#
#
# Elastic Constant Matrix: (Units=GPa)
#
#
# Indices 1 2 3 4 5 6 
#
# 1 200.3017 50.0633 90.8537 0.0000 0.0000 0.0000
# 2 50.0633 144.3263 62.2795 0.0000 0.0000 0.0000
# 3 90.8537 62.2795 140.0420 0.0000 0.0000 0.0000
# 4 0.0000 0.0000 0.0000 13.7246 0.0000 0.0000
# 5 0.0000 0.0000 0.0000 0.0000 35.4096 0.0000
# 6 0.0000 0.0000 0.0000 0.0000 0.0000 34.4936
#
#
#
# Elastic Compliance Matrix: (Units=1/GPa)
#
#
# Indices 1 2 3 4 5 6 
#
# 1 0.007114 -0.000589 -0.004354 0.000000 0.000000 0.000000
# 2 -0.000589 0.008623 -0.003453 0.000000 0.000000 0.000000
# 3 -0.004354 -0.003453 0.011501 0.000000 0.000000 0.000000
# 4 0.000000 0.000000 0.000000 0.072862 0.000000 0.000000
# 5 0.000000 0.000000 0.000000 0.000000 0.028241 0.000000
# 6 0.000000 0.000000 0.000000 0.000000 0.000000 0.028991
#
#
# Mechanical properties :
#
#
# Convention : Reuss Voigt Hill
#
# Bulk Modulus (GPa) = 95.71799 99.00699 97.36249
# Shear Modulus (GPa) = 28.15240 35.49046 31.82143
#
# Velocity S-wave (km/s) = 3.44837 3.87180 3.66620
# Velocity P-wave (km/s) = 7.50235 7.86176 7.68416
#
# Compressibility (1/GPa) = 0.01044736
#
# Stress axis : x y z
#
# Youngs Moduli (GPa) = 140.55954 115.96940 86.95249
#
# Poissons Ratio (x) = 0.06833 0.37855
# Poissons Ratio (y) = 0.08282 0.30021
# Poissons Ratio (z) = 0.61193 0.40039
#
# Static dielectric constant tensor:
#      x y z
#    x 1.922580 0.000000 0.000000 
#    y 0.000000 1.875250 0.000000 
#    z 0.000000 0.000000 1.943260 
# 
# From -- ./inp_files/39946.got.cif
#   From: 2010.05.17/outbox.cif.g08.bks.cpg/sg68_20_cif.got.tgz:39946.got - 2010.06.03 18:57:09.
