data_PCOD9510075
_publ_section_title
;
Structure prediction by ZEFSAII (Michael W. Deem and Ramdas Pophale) SiO2 
 PCOD9510075
Probable space group: C C C A
;
_chemical_formula_sum "Si O2"
_cell_formula_units_Z 68
_cell_length_a 22.928651
_cell_length_b 23.693280
_cell_length_c 4.934760
_cell_angle_alpha 90.000000
_cell_angle_beta 90.000000
_cell_angle_gamma 90.000000
_cell_volume 2680.832788
_symmetry_space_group_name_H-M "C C C A"
_symmetry_group_IT_number 68
_space_group.IT_coordinate_system_code '2'
_symmetry_cell_setting 'orthorhombic'
loop_
_space_group_symop_operation_xyz
x,y,z
-x,1/2-y,z
x,1/2-y,1/2-z
-x,y,1/2-z
-x,-y,-z
x,1/2+y,-z
-x,1/2+y,1/2+z
x,-y,1/2+z
1/2+x,1/2+y,z
1/2-x,-y,z
1/2+x,-y,1/2-z
1/2-x,1/2+y,1/2-z
1/2-x,1/2-y,-z
1/2+x,y,-z
1/2-x,y,1/2+z
1/2+x,1/2-y,1/2+z
loop_
_atom_site_type_symbol
_atom_site_label
_atom_site_fract_x
_atom_site_fract_y
_atom_site_fract_z
Si Si1 0.000000 0.750000 0.250000
Si Si2 0.677457 0.465848 0.516373
Si Si3 0.787195 0.838903 0.119662
Si Si4 0.563129 0.586685 0.149843
Si Si5 0.411460 0.162642 0.149870
O O1 0.955274 0.712597 0.075035
O O2 0.693016 0.517065 0.320017
O O3 0.701444 0.406641 0.407882
O O4 0.607336 0.459086 0.532203
O O5 0.735142 0.823137 0.323142
O O6 0.848429 0.818063 0.240219
O O7 0.500000 0.567396 0.250000
O O8 0.593761 0.619281 0.400842
O O9 0.558764 0.631143 0.905110
#
# Coordination Sequence:
#
# PCOD9510075 Si02
#       5
#     4  16  16  16  16
#     4  12  24  46  76 106 128 166 228 300 328 426
#     4  11  23  37  60  96 127 171 232 270 311 382
#     4  11  23  43  65  89 134 180 214 271 335 392
#     4  11  21  41  61  92 141 178 213 277 348 408
#     4  11  24  41  68 102 130 171 228 276 351 411
#
# _framework density 25.36525
#
# number of rings (size 3 to 8) (size 9 to 14) (size 15 to 20)
#    0.000    0.941    2.353    7.059    0.000    5.647 
#    0.000    1.176    0.000    0.000    0.000    0.000 
#    0.000    0.000    0.000    0.000    0.000    0.000 
#
# Total GULP energy -190338.796002 kJ/mol
# GULP energy per Si atom -5598.199882 kJ/mol
# Density = 2.530752 g / cm^3
# Si number density = 25.365250 Si / 1000 Ang^3
#
#
#
# Elastic Constant Matrix: (Units=GPa)
#
#
# Indices 1 2 3 4 5 6 
#
# 1 177.2411 34.2851 13.7171 0.0000 0.0000 0.0000
# 2 34.2851 67.0328 20.0466 0.0000 0.0000 0.0000
# 3 13.7171 20.0466 133.9356 0.0000 0.0000 0.0000
# 4 0.0000 0.0000 0.0000 5.7322 0.0000 0.0000
# 5 0.0000 0.0000 0.0000 0.0000 34.2390 0.0000
# 6 0.0000 0.0000 0.0000 0.0000 0.0000 36.4742
#
#
#
# Elastic Compliance Matrix: (Units=1/GPa)
#
#
# Indices 1 2 3 4 5 6 
#
# 1 0.006265 -0.003154 -0.000170 0.000000 0.000000 0.000000
# 2 -0.003154 0.017205 -0.002252 0.000000 0.000000 0.000000
# 3 -0.000170 -0.002252 0.007821 0.000000 0.000000 0.000000
# 4 0.000000 0.000000 0.000000 0.174453 0.000000 0.000000
# 5 0.000000 0.000000 0.000000 0.000000 0.029206 0.000000
# 6 0.000000 0.000000 0.000000 0.000000 0.000000 0.027417
#
#
# Mechanical properties :
#
#
# Convention : Reuss Voigt Hill
#
# Bulk Modulus (GPa) = 49.65325 57.14523 53.39924
# Shear Modulus (GPa) = 17.84247 35.96645 26.90446
#
# Velocity S-wave (km/s) = 2.65509 3.76964 3.26034
# Velocity P-wave (km/s) = 5.38675 6.44397 5.93894
#
# Compressibility (1/GPa) = 0.02013967
#
# Stress axis : x y z
#
# Youngs Moduli (GPa) = 159.61160 58.12400 127.86539
#
# Poissons Ratio (x) = 0.18331 0.02169
# Poissons Ratio (y) = 0.50337 0.28796
# Poissons Ratio (z) = 0.02707 0.13090
#
# Static dielectric constant tensor:
#      x y z
#    x 2.066450 0.000000 0.000000 
#    y 0.000000 2.034990 0.000000 
#    z 0.000000 0.000000 1.900670 
# 
# From -- ./inp_files/1620.got.cif
#   From: 2010.05.17/outbox.cif.g08.bks.cpg/sg68_1_cif.got.tgz:1620.got - 2010.06.03 18:57:09.
