data_PCOD9510238
_publ_section_title
;
Structure prediction by ZEFSAII (Michael W. Deem and Ramdas Pophale) SiO2 
 PCOD9510238
Probable space group: C C C A
;
_chemical_formula_sum "Si O2"
_cell_formula_units_Z 88
_cell_length_a 13.670861
_cell_length_b 11.895015
_cell_length_c 26.663123
_cell_angle_alpha 90.000000
_cell_angle_beta 90.000000
_cell_angle_gamma 90.000000
_cell_volume 4335.826324
_symmetry_space_group_name_H-M "C C C A"
_symmetry_group_IT_number 68
_space_group.IT_coordinate_system_code '2'
_symmetry_cell_setting 'orthorhombic'
loop_
_space_group_symop_operation_xyz
x,y,z
-x,1/2-y,z
x,1/2-y,1/2-z
-x,y,1/2-z
-x,-y,-z
x,1/2+y,-z
-x,1/2+y,1/2+z
x,-y,1/2+z
1/2+x,1/2+y,z
1/2-x,-y,z
1/2+x,-y,1/2-z
1/2-x,1/2+y,1/2-z
1/2-x,1/2-y,-z
1/2+x,y,-z
1/2-x,y,1/2+z
1/2+x,1/2-y,1/2+z
loop_
_atom_site_type_symbol
_atom_site_label
_atom_site_fract_x
_atom_site_fract_y
_atom_site_fract_z
Si Si1 0.750000 0.000000 0.031296
Si Si2 0.100478 0.324972 0.887000
Si Si3 0.500000 0.250000 0.600049
Si Si4 0.208588 0.671004 0.617642
Si Si5 0.250000 0.000000 0.794353
Si Si6 0.579783 0.037460 0.960495
Si Si7 0.390628 0.368084 0.269808
O O1 0.799789 0.088422 0.069353
O O2 0.675091 0.061362 0.994064
O O3 0.200469 0.253679 0.894569
O O4 0.097815 0.432803 0.923153
O O5 0.106447 0.366875 0.829585
O O6 0.000000 0.250000 0.892861
O O7 0.600577 0.218925 0.627955
O O8 0.537156 0.355093 0.567461
O O9 0.237023 0.602272 0.667150
O O10 0.337334 0.970388 0.757021
O O11 0.500000 0.000000 0.000000
O O12 0.345700 0.250000 0.250000
O O13 0.500000 0.369115 0.250000
#
# Coordination Sequence:
#
# PCOD9510238 Si02
#       7
#     8  16   8  16   8  16  16
#     4  11  24  45  68  98 136 189 236 285 354 416
#     4  12  25  45  76 103 136 190 246 290 353 432
#     4  12  28  44  64 107 148 172 233 286 360 418
#     4  11  25  44  72 101 142 184 235 294 353 426
#     4  11  24  45  70 104 140 185 232 299 360 412
#     4  12  27  43  69 103 139 184 232 293 352 419
#     4  11  22  44  72 101 134 179 238 290 347 429
#
# _framework density 20.296016000000002
#
# number of rings (size 3 to 8) (size 9 to 14) (size 15 to 20)
#    0.000    0.545    5.455    2.182    8.909    3.636 
#    0.000    0.000    0.000    1.091    0.000    0.000 
#    0.000    0.000    0.000    0.000    0.000    0.000 
#
# Total GULP energy -245695.455587 kJ/mol
# GULP energy per Si atom -5583.987627 kJ/mol
# Density = 2.024982 g / cm^3
# Si number density = 20.296016 Si / 1000 Ang^3
#
#
#
# Elastic Constant Matrix: (Units=GPa)
#
#
# Indices 1 2 3 4 5 6 
#
# 1 117.7040 30.8419 17.2100 0.0000 0.0000 0.0000
# 2 30.8419 85.1907 34.0057 0.0000 0.0000 0.0000
# 3 17.2100 34.0057 107.1340 0.0000 0.0000 0.0000
# 4 0.0000 0.0000 0.0000 -24.0097 0.0000 0.0000
# 5 0.0000 0.0000 0.0000 0.0000 30.0546 0.0000
# 6 0.0000 0.0000 0.0000 0.0000 0.0000 36.9109
#
#
#
# Elastic Compliance Matrix: (Units=1/GPa)
#
#
# Indices 1 2 3 4 5 6 
#
# 1 0.009409 -0.003210 -0.000493 0.000000 0.000000 0.000000
# 2 -0.003210 0.014536 -0.004098 0.000000 0.000000 0.000000
# 3 -0.000493 -0.004098 0.010714 0.000000 0.000000 0.000000
# 4 0.000000 0.000000 0.000000 -0.041650 0.000000 0.000000
# 5 0.000000 0.000000 0.000000 0.000000 0.033273 0.000000
# 6 0.000000 0.000000 0.000000 0.000000 0.000000 0.027092
#
#
# Mechanical properties :
#
#
# Convention : Reuss Voigt Hill
#
# Bulk Modulus (GPa) = 52.47169 52.68266 52.57717
# Shear Modulus (GPa) = 66.37560 23.78923 45.08242
#
# Velocity S-wave (km/s) = 5.72492 3.42733 4.71812
# Velocity P-wave (km/s) = 8.34320 6.45566 7.45938
#
# Compressibility (1/GPa) = 0.01905790
#
# Stress axis : x y z
#
# Youngs Moduli (GPa) = 106.28168 68.79297 93.33463
#
# Poissons Ratio (x) = 0.22081 0.04598
# Poissons Ratio (y) = 0.34113 0.38252
# Poissons Ratio (z) = 0.05236 0.28194
#
# Static dielectric constant tensor:
#      x y z
#    x 1.680620 0.000000 0.000000 
#    y 0.000000 1.759160 0.000000 
#    z 0.000000 0.000000 1.686810 
# 
# From -- ./inp_files/45351.got.cif
#   From: 2010.05.17/outbox.cif.g08.bks.cpg/sg68_23_cif.got.tgz:45351.got - 2010.06.03 18:57:09.
