data_PCOD9510622
_publ_section_title
;
Structure prediction by ZEFSAII (Michael W. Deem and Ramdas Pophale) SiO2 
 PCOD9510622
Probable space group: C C C A
;
_chemical_formula_sum "Si O2"
_cell_formula_units_Z 64
_cell_length_a 18.553149
_cell_length_b 10.129719
_cell_length_c 14.867655
_cell_angle_alpha 90.000000
_cell_angle_beta 90.000000
_cell_angle_gamma 90.000000
_cell_volume 2794.200110
_symmetry_space_group_name_H-M "C C C A"
_symmetry_group_IT_number 68
_space_group.IT_coordinate_system_code '2'
_symmetry_cell_setting 'orthorhombic'
loop_
_space_group_symop_operation_xyz
x,y,z
-x,1/2-y,z
x,1/2-y,1/2-z
-x,y,1/2-z
-x,-y,-z
x,1/2+y,-z
-x,1/2+y,1/2+z
x,-y,1/2+z
1/2+x,1/2+y,z
1/2-x,-y,z
1/2+x,-y,1/2-z
1/2-x,1/2+y,1/2-z
1/2-x,1/2-y,-z
1/2+x,y,-z
1/2-x,y,1/2+z
1/2+x,1/2-y,1/2+z
loop_
_atom_site_type_symbol
_atom_site_label
_atom_site_fract_x
_atom_site_fract_y
_atom_site_fract_z
Si Si1 0.748878 0.139155 0.398581
Si Si2 0.500000 0.750000 0.563495
Si Si3 0.136503 0.671166 0.553741
Si Si4 0.064821 0.976701 0.308444
Si Si5 0.339039 0.750000 0.750000
O O1 0.828822 0.190437 0.415823
O O2 0.699971 0.118794 0.487596
O O3 0.709607 0.248765 0.338460
O O4 0.750000 0.000000 0.348865
O O5 0.434753 0.803043 0.503493
O O6 0.470613 0.628985 0.622884
O O7 0.113802 0.578004 0.636000
O O8 0.112556 0.880425 0.246480
O O9 0.000000 0.038467 0.250000
#
# Coordination Sequence:
#
# PCOD9510622 Si02
#       5
#    16   8  16  16   8
#     4  11  26  47  70 104 141 192 249 310 372 443
#     4  12  21  48  67 104 144 198 240 304 381 443
#     4  11  26  44  76 102 143 192 251 305 369 456
#     4  12  23  44  74 108 146 191 244 304 374 444
#     4  12  25  46  70 101 148 192 236 304 380 433
#
# _framework density 22.904588
#
# number of rings (size 3 to 8) (size 9 to 14) (size 15 to 20)
#    0.000    0.500    5.000    2.250    7.000    2.000 
#    0.000    0.000    0.000    0.000    0.000    0.000 
#    0.000    0.000    0.000    0.000    0.000    0.000 
#
# Total GULP energy -179041.164479 kJ/mol
# GULP energy per Si atom -5595.036390 kJ/mol
# Density = 2.285246 g / cm^3
# Si number density = 22.904588 Si / 1000 Ang^3
#
#
#
# Elastic Constant Matrix: (Units=GPa)
#
#
# Indices 1 2 3 4 5 6 
#
# 1 85.0132 26.1130 18.8231 0.0000 0.0000 0.0000
# 2 26.1130 73.5585 10.3211 0.0000 0.0000 0.0000
# 3 18.8231 10.3211 59.9532 0.0000 0.0000 0.0000
# 4 0.0000 0.0000 0.0000 29.0149 0.0000 0.0000
# 5 0.0000 0.0000 0.0000 0.0000 15.2926 0.0000
# 6 0.0000 0.0000 0.0000 0.0000 0.0000 36.2895
#
#
#
# Elastic Compliance Matrix: (Units=1/GPa)
#
#
# Indices 1 2 3 4 5 6 
#
# 1 0.013925 -0.004437 -0.003608 0.000000 0.000000 0.000000
# 2 -0.004437 0.015345 -0.001249 0.000000 0.000000 0.000000
# 3 -0.003608 -0.001249 0.018027 0.000000 0.000000 0.000000
# 4 0.000000 0.000000 0.000000 0.034465 0.000000 0.000000
# 5 0.000000 0.000000 0.000000 0.000000 0.065391 0.000000
# 6 0.000000 0.000000 0.000000 0.000000 0.000000 0.027556
#
#
# Mechanical properties :
#
#
# Convention : Reuss Voigt Hill
#
# Bulk Modulus (GPa) = 34.83127 36.55990 35.69559
# Shear Modulus (GPa) = 24.64681 27.00394 25.82538
#
# Velocity S-wave (km/s) = 3.28390 3.43735 3.36150
# Velocity P-wave (km/s) = 5.44232 5.63474 5.53936
#
# Compressibility (1/GPa) = 0.02870983
#
# Stress axis : x y z
#
# Youngs Moduli (GPa) = 71.81533 65.16823 55.47109
#
# Poissons Ratio (x) = 0.28915 0.20014
# Poissons Ratio (y) = 0.31864 0.06926
# Poissons Ratio (z) = 0.25911 0.08137
#
# Static dielectric constant tensor:
#      x y z
#    x 1.839790 0.000000 0.000000 
#    y 0.000000 1.862470 0.000000 
#    z 0.000000 0.000000 1.876180 
# 
# From -- ./inp_files/23205.got.cif
#   From: 2010.05.17/outbox.cif.g08.bks.cpg/sg68_12_cif.got.tgz:23205.got - 2010.06.03 18:57:09.
