data_PCOD9510379
_publ_section_title
;
Structure prediction by ZEFSAII (Michael W. Deem and Ramdas Pophale) SiO2 
 PCOD9510379
Probable space group: C C C A
;
_chemical_formula_sum "Si O2"
_cell_formula_units_Z 80
_cell_length_a 12.200091
_cell_length_b 14.558495
_cell_length_c 20.176622
_cell_angle_alpha 90.000000
_cell_angle_beta 90.000000
_cell_angle_gamma 90.000000
_cell_volume 3583.669987
_symmetry_space_group_name_H-M "C C C A"
_symmetry_group_IT_number 68
_space_group.IT_coordinate_system_code '2'
_symmetry_cell_setting 'orthorhombic'
loop_
_space_group_symop_operation_xyz
x,y,z
-x,1/2-y,z
x,1/2-y,1/2-z
-x,y,1/2-z
-x,-y,-z
x,1/2+y,-z
-x,1/2+y,1/2+z
x,-y,1/2+z
1/2+x,1/2+y,z
1/2-x,-y,z
1/2+x,-y,1/2-z
1/2-x,1/2+y,1/2-z
1/2-x,1/2-y,-z
1/2+x,y,-z
1/2-x,y,1/2+z
1/2+x,1/2-y,1/2+z
loop_
_atom_site_type_symbol
_atom_site_label
_atom_site_fract_x
_atom_site_fract_y
_atom_site_fract_z
Si Si1 0.201494 0.404124 0.391765
Si Si2 0.868757 0.140918 0.249565
Si Si3 0.776823 0.396757 0.393212
Si Si4 0.604657 0.236749 0.404924
Si Si5 0.490877 0.607287 0.021081
O O1 0.250000 0.500000 0.417049
O O2 0.162317 0.411862 0.316422
O O3 0.297989 0.331368 0.386994
O O4 0.102787 0.371473 0.439177
O O5 0.843176 0.250000 0.250000
O O6 0.806757 0.105688 0.184470
O O7 0.000000 0.133551 0.250000
O O8 0.750000 0.500000 0.413197
O O9 0.676218 0.330136 0.412755
O O10 0.889232 0.373120 0.430335
O O11 0.500000 0.250000 0.356445
O O12 0.539577 0.172528 0.459572
O O13 0.500000 0.500000 0.000000
#
# Coordination Sequence:
#
# PCOD9510379 Si02
#       5
#    16  16  16  16  16
#     4  12  26  48  77 109 147 199 254 314 382 456
#     4  11  23  46  75 106 140 194 259 313 374 447
#     4  12  27  48  71 106 155 198 247 309 376 450
#     4  12  29  45  73 111 149 196 245 308 382 448
#     4  12  27  46  74 111 149 195 251 306 379 457
#
# _framework density 22.323485999999999
#
# number of rings (size 3 to 8) (size 9 to 14) (size 15 to 20)
#    0.000    0.200    6.000    2.400    8.400    0.000 
#    0.000    2.000    0.000    0.000    0.000    0.000 
#    0.000    0.000    0.000    0.000    0.000    0.000 
#
# Total GULP energy -223342.178801 kJ/mol
# GULP energy per Si atom -5583.554470 kJ/mol
# Density = 2.227268 g / cm^3
# Si number density = 22.323486 Si / 1000 Ang^3
#
#
#
# Elastic Constant Matrix: (Units=GPa)
#
#
# Indices 1 2 3 4 5 6 
#
# 1 164.2412 23.8809 27.3870 0.0000 0.0000 0.0000
# 2 23.8809 97.8999 -5.1766 0.0000 0.0000 0.0000
# 3 27.3870 -5.1766 90.6921 0.0000 0.0000 0.0000
# 4 0.0000 0.0000 0.0000 13.6692 0.0000 0.0000
# 5 0.0000 0.0000 0.0000 0.0000 -425.7593 0.0000
# 6 0.0000 0.0000 0.0000 0.0000 0.0000 31.5702
#
#
#
# Elastic Compliance Matrix: (Units=1/GPa)
#
#
# Indices 1 2 3 4 5 6 
#
# 1 0.006696 -0.001746 -0.002122 0.000000 0.000000 0.000000
# 2 -0.001746 0.010700 0.001138 0.000000 0.000000 0.000000
# 3 -0.002122 0.001138 0.011732 0.000000 0.000000 0.000000
# 4 0.000000 0.000000 0.000000 0.073157 0.000000 0.000000
# 5 0.000000 0.000000 0.000000 0.000000 -0.002349 0.000000
# 6 0.000000 0.000000 0.000000 0.000000 0.000000 0.031675
#
#
# Mechanical properties :
#
#
# Convention : Reuss Voigt Hill
#
# Bulk Modulus (GPa) = 42.24791 49.44619 45.84705
# Shear Modulus (GPa) = 34.49199 -55.65451 -10.58126
#
# Velocity S-wave (km/s) = 3.93504 -4.99850 -2.17951
# Velocity P-wave (km/s) = 6.29384 3.33398 3.77472
#
# Compressibility (1/GPa) = 0.02366981
#
# Stress axis : x y z
#
# Youngs Moduli (GPa) = 149.33801 93.45368 85.23698
#
# Poissons Ratio (x) = 0.16313 0.18085
# Poissons Ratio (y) = 0.26069 -0.09699
# Poissons Ratio (z) = 0.31686 -0.10634
#
# Static dielectric constant tensor:
#      x y z
#    x 0.745470 0.000000 0.000000 
#    y 0.000000 1.854460 0.000000 
#    z 0.000000 0.000000 2.104970 
# 
# From -- ./inp_files/44062.got.cif
#   From: 2010.05.17/outbox.cif.g08.bks.cpg/sg68_23_cif.got.tgz:44062.got - 2010.06.03 18:57:09.
