data_PCOD9510513
_publ_section_title
;
Structure prediction by ZEFSAII (Michael W. Deem and Ramdas Pophale) SiO2 
 PCOD9510513
Probable space group: C C C A
;
_chemical_formula_sum "Si O2"
_cell_formula_units_Z 64
_cell_length_a 14.266818
_cell_length_b 16.316754
_cell_length_c 11.252596
_cell_angle_alpha 90.000000
_cell_angle_beta 90.000000
_cell_angle_gamma 90.000000
_cell_volume 2619.471114
_symmetry_space_group_name_H-M "C C C A"
_symmetry_group_IT_number 68
_space_group.IT_coordinate_system_code '2'
_symmetry_cell_setting 'orthorhombic'
loop_
_space_group_symop_operation_xyz
x,y,z
-x,1/2-y,z
x,1/2-y,1/2-z
-x,y,1/2-z
-x,-y,-z
x,1/2+y,-z
-x,1/2+y,1/2+z
x,-y,1/2+z
1/2+x,1/2+y,z
1/2-x,-y,z
1/2+x,-y,1/2-z
1/2-x,1/2+y,1/2-z
1/2-x,1/2-y,-z
1/2+x,y,-z
1/2-x,y,1/2+z
1/2+x,1/2-y,1/2+z
loop_
_atom_site_type_symbol
_atom_site_label
_atom_site_fract_x
_atom_site_fract_y
_atom_site_fract_z
Si Si1 0.550293 0.377135 0.860323
Si Si2 0.322371 0.836711 0.563595
Si Si3 0.874924 0.336666 0.972711
Si Si4 0.104240 0.444448 0.736809
O O1 0.500000 0.334268 0.750000
O O2 0.468449 0.370185 0.962016
O O3 0.585523 0.462443 0.801578
O O4 0.640371 0.346062 0.929252
O O5 0.210711 0.828371 0.564721
O O6 0.375133 0.751366 0.594663
O O7 0.347514 0.916257 0.641775
O O8 0.847143 0.402388 0.874127
O O9 0.000000 0.407468 0.750000
#
# Coordination Sequence:
#
# PCOD9510513 Si02
#       4
#    16  16  16  16
#     4  11  26  46  69 104 147 188 239 305 370 438
#     4  11  26  46  72 107 144 195 246 304 370 444
#     4  11  25  46  73 106 145 190 251 305 369 439
#     4  11  24  46  72 101 142 190 247 301 368 443
#
# _framework density 24.432414000000001
#
# number of rings (size 3 to 8) (size 9 to 14) (size 15 to 20)
#    0.000    1.000    2.500    2.250    7.000    4.000 
#    4.500    0.000    0.000    0.000    0.000    0.000 
#    0.000    0.000    0.000    0.000    0.000    0.000 
#
# Total GULP energy -178375.481785 kJ/mol
# GULP energy per Si atom -5574.233806 kJ/mol
# Density = 2.437680 g / cm^3
# Si number density = 24.432414 Si / 1000 Ang^3
#
#
#
# Elastic Constant Matrix: (Units=GPa)
#
#
# Indices 1 2 3 4 5 6 
#
# 1 104.7678 30.9324 9.5237 0.0000 0.0000 0.0000
# 2 30.9324 169.2601 39.1566 0.0000 0.0000 0.0000
# 3 9.5237 39.1566 82.1165 0.0000 0.0000 0.0000
# 4 0.0000 0.0000 0.0000 97.6323 0.0000 0.0000
# 5 0.0000 0.0000 0.0000 0.0000 21.8201 0.0000
# 6 0.0000 0.0000 0.0000 0.0000 0.0000 41.8131
#
#
#
# Elastic Compliance Matrix: (Units=1/GPa)
#
#
# Indices 1 2 3 4 5 6 
#
# 1 0.010097 -0.001770 -0.000327 0.000000 0.000000 0.000000
# 2 -0.001770 0.006951 -0.003109 0.000000 0.000000 0.000000
# 3 -0.000327 -0.003109 0.013698 0.000000 0.000000 0.000000
# 4 0.000000 0.000000 0.000000 0.010243 0.000000 0.000000
# 5 0.000000 0.000000 0.000000 0.000000 0.045829 0.000000
# 6 0.000000 0.000000 0.000000 0.000000 0.000000 0.023916
#
#
# Mechanical properties :
#
#
# Convention : Reuss Voigt Hill
#
# Bulk Modulus (GPa) = 49.17807 57.26329 53.22068
# Shear Modulus (GPa) = 39.08572 50.68854 44.88713
#
# Velocity S-wave (km/s) = 4.00402 4.55977 4.29090
# Velocity P-wave (km/s) = 6.44579 7.15614 6.81023
#
# Compressibility (1/GPa) = 0.02033427
#
# Stress axis : x y z
#
# Youngs Moduli (GPa) = 99.03811 143.86983 73.00148
#
# Poissons Ratio (x) = 0.25458 0.02389
# Poissons Ratio (y) = 0.17525 0.22697
# Poissons Ratio (z) = 0.03241 0.44732
#
# Static dielectric constant tensor:
#      x y z
#    x 1.843610 0.000000 0.000000 
#    y 0.000000 2.041770 0.000000 
#    z 0.000000 0.000000 1.992610 
# 
# From -- ./inp_files/12786.got.cif
#   From: 2010.05.17/outbox.cif.g08.bks.cpg/sg68_7_cif.got.tgz:12786.got - 2010.06.03 18:57:09.
