data_PCOD9510377
_publ_section_title
;
Structure prediction by ZEFSAII (Michael W. Deem and Ramdas Pophale) SiO2 
 PCOD9510377
Probable space group: C C C A
;
_chemical_formula_sum "Si O2"
_cell_formula_units_Z 56
_cell_length_a 15.055844
_cell_length_b 11.674304
_cell_length_c 13.833445
_cell_angle_alpha 90.000000
_cell_angle_beta 90.000000
_cell_angle_gamma 90.000000
_cell_volume 2431.456208
_symmetry_space_group_name_H-M "C C C A"
_symmetry_group_IT_number 68
_space_group.IT_coordinate_system_code '2'
_symmetry_cell_setting 'orthorhombic'
loop_
_space_group_symop_operation_xyz
x,y,z
-x,1/2-y,z
x,1/2-y,1/2-z
-x,y,1/2-z
-x,-y,-z
x,1/2+y,-z
-x,1/2+y,1/2+z
x,-y,1/2+z
1/2+x,1/2+y,z
1/2-x,-y,z
1/2+x,-y,1/2-z
1/2-x,1/2+y,1/2-z
1/2-x,1/2-y,-z
1/2+x,y,-z
1/2-x,y,1/2+z
1/2+x,1/2-y,1/2+z
loop_
_atom_site_type_symbol
_atom_site_label
_atom_site_fract_x
_atom_site_fract_y
_atom_site_fract_z
Si Si1 0.000000 0.436264 0.750000
Si Si2 0.250000 0.500000 0.374275
Si Si3 0.500000 0.750000 0.905127
Si Si4 0.139349 0.880193 0.764078
Si Si5 0.093962 0.069186 0.485404
O O1 0.924404 0.523581 0.717663
O O2 0.968753 0.351601 0.834470
O O3 0.229420 0.397178 0.297866
O O4 0.169161 0.515787 0.447917
O O5 0.574274 0.804271 0.972550
O O6 0.109344 0.750000 0.750000
O O7 0.130710 0.914301 0.876709
O O8 0.000000 0.000000 0.500000
#
# Coordination Sequence:
#
# PCOD9510377 Si02
#       5
#     8   8   8  16  16
#     4  11  23  46  74 112 155 211 262 318 404 473
#     4  12  28  52  70 116 164 204 266 330 402 480
#     4  11  24  44  83 106 160 210 261 316 401 470
#     4  12  27  46  75 112 157 201 268 331 388 463
#     4  12  27  50  80 114 157 209 265 326 402 477
#
# _framework density 23.031466000000002
#
# number of rings (size 3 to 8) (size 9 to 14) (size 15 to 20)
#    0.000    0.286    5.714    1.286    8.000    3.429 
#    0.000    0.000    0.000    0.000    0.000    0.000 
#    0.000    0.000    0.000    0.000    0.000    0.000 
#
# Total GULP energy -156214.073816 kJ/mol
# GULP energy per Si atom -5579.074065 kJ/mol
# Density = 2.297905 g / cm^3
# Si number density = 23.031466 Si / 1000 Ang^3
#
#
#
# Elastic Constant Matrix: (Units=GPa)
#
#
# Indices 1 2 3 4 5 6 
#
# 1 108.0493 33.3914 80.4278 0.0000 0.0000 0.0000
# 2 33.3914 139.2055 58.7603 0.0000 0.0000 0.0000
# 3 80.4278 58.7603 217.6230 0.0000 0.0000 0.0000
# 4 0.0000 0.0000 0.0000 46.3514 0.0000 0.0000
# 5 0.0000 0.0000 0.0000 0.0000 -12.8521 0.0000
# 6 0.0000 0.0000 0.0000 0.0000 0.0000 12.7290
#
#
#
# Elastic Compliance Matrix: (Units=1/GPa)
#
#
# Indices 1 2 3 4 5 6 
#
# 1 0.012950 -0.001226 -0.004455 0.000000 0.000000 0.000000
# 2 -0.001226 0.008224 -0.001767 0.000000 0.000000 0.000000
# 3 -0.004455 -0.001767 0.006719 0.000000 0.000000 0.000000
# 4 0.000000 0.000000 0.000000 0.021574 0.000000 0.000000
# 5 0.000000 0.000000 0.000000 0.000000 -0.077809 0.000000
# 6 0.000000 0.000000 0.000000 0.000000 0.000000 0.078561
#
#
# Mechanical properties :
#
#
# Convention : Reuss Voigt Hill
#
# Bulk Modulus (GPa) = 76.94702 90.00408 83.47555
# Shear Modulus (GPa) = 71.99685 28.73222 50.36454
#
# Velocity S-wave (km/s) = 5.59715 3.53586 4.68137
# Velocity P-wave (km/s) = 8.67484 7.47217 8.09587
#
# Compressibility (1/GPa) = 0.01299596
#
# Stress axis : x y z
#
# Youngs Moduli (GPa) = 77.22011 121.59935 148.83649
#
# Poissons Ratio (x) = 0.14906 0.66307
# Poissons Ratio (y) = 0.09466 0.26306
# Poissons Ratio (z) = 0.34402 0.21492
#
# Static dielectric constant tensor:
#      x y z
#    x 1.731070 0.000000 0.000000 
#    y 0.000000 1.900390 0.000000 
#    z 0.000000 0.000000 1.932150 
# 
# From -- ./inp_files/20178.got.cif
#   From: 2010.05.17/outbox.cif.g08.bks.cpg/sg68_11_cif.got.tgz:20178.got - 2010.06.03 18:57:09.
