data_PCOD9510464
_publ_section_title
;
Structure prediction by ZEFSAII (Michael W. Deem and Ramdas Pophale) SiO2 
 PCOD9510464
Probable space group: C C C A
;
_chemical_formula_sum "Si O2"
_cell_formula_units_Z 92
_cell_length_a 17.859205
_cell_length_b 10.735096
_cell_length_c 21.547106
_cell_angle_alpha 90.000000
_cell_angle_beta 90.000000
_cell_angle_gamma 90.000000
_cell_volume 4131.017199
_symmetry_space_group_name_H-M "C C C A"
_symmetry_group_IT_number 68
_space_group.IT_coordinate_system_code '2'
_symmetry_cell_setting 'orthorhombic'
loop_
_space_group_symop_operation_xyz
x,y,z
-x,1/2-y,z
x,1/2-y,1/2-z
-x,y,1/2-z
-x,-y,-z
x,1/2+y,-z
-x,1/2+y,1/2+z
x,-y,1/2+z
1/2+x,1/2+y,z
1/2-x,-y,z
1/2+x,-y,1/2-z
1/2-x,1/2+y,1/2-z
1/2-x,1/2-y,-z
1/2+x,y,-z
1/2-x,y,1/2+z
1/2+x,1/2-y,1/2+z
loop_
_atom_site_type_symbol
_atom_site_label
_atom_site_fract_x
_atom_site_fract_y
_atom_site_fract_z
Si Si1 0.250000 0.500000 0.764373
Si Si2 0.500000 0.250000 0.750000
Si Si3 0.434812 0.093843 0.062168
Si Si4 0.116508 0.910405 0.665390
Si Si5 0.190649 0.297473 0.549500
Si Si6 0.306444 0.848273 0.348648
Si Si7 0.085813 0.502893 0.066462
O O1 0.173413 0.488282 0.803712
O O2 0.276760 0.391586 0.717659
O O3 0.552410 0.344046 0.708724
O O4 0.368087 0.192193 0.069940
O O5 0.521259 0.100896 0.085090
O O6 0.413684 0.972228 0.102862
O O7 0.443739 0.089150 0.986875
O O8 0.168146 0.793243 0.650405
O O9 0.250000 0.250000 0.500000
O O10 0.236238 0.352875 0.606515
O O11 0.145182 0.417086 0.527096
O O12 0.374319 0.930976 0.377260
#
# Coordination Sequence:
#
# PCOD9510464 Si02
#       7
#     8   4  16  16  16  16  16
#     4  12  24  46  68 102 144 182 236 292 342 400
#     4  12  24  44  72 100 138 186 248 292 334 406
#     4  11  26  42  68 101 142 178 225 289 357 426
#     4  12  26  45  71 104 137 187 242 289 341 418
#     4  12  23  41  70 100 136 181 226 282 355 429
#     4  12  23  44  74  98 138 181 232 293 347 408
#     4  11  24  44  66 104 141 178 220 290 366 418
#
# _framework density 22.270544000000001
#
# number of rings (size 3 to 8) (size 9 to 14) (size 15 to 20)
#    0.000    0.348    5.217    3.652    0.000    1.391 
#    0.000    0.000    0.000    0.000    0.000    0.000 
#    0.000    0.000    0.000    0.000    0.000    0.000 
#
# Total GULP energy -256380.767714 kJ/mol
# GULP energy per Si atom -5573.494950 kJ/mol
# Density = 2.221986 g / cm^3
# Si number density = 22.270544 Si / 1000 Ang^3
#
#
#
# Elastic Constant Matrix: (Units=GPa)
#
#
# Indices 1 2 3 4 5 6 
#
# 1 120.8612 30.1871 32.0771 0.0000 0.0000 0.0000
# 2 30.1871 60.3860 10.4911 0.0000 0.0000 0.0000
# 3 32.0771 10.4911 84.1191 0.0000 0.0000 0.0000
# 4 0.0000 0.0000 0.0000 25.7976 0.0000 0.0000
# 5 0.0000 0.0000 0.0000 0.0000 28.8363 0.0000
# 6 0.0000 0.0000 0.0000 0.0000 0.0000 56.4371
#
#
#
# Elastic Compliance Matrix: (Units=1/GPa)
#
#
# Indices 1 2 3 4 5 6 
#
# 1 0.010307 -0.004569 -0.003361 0.000000 0.000000 0.000000
# 2 -0.004569 0.018952 -0.000621 0.000000 0.000000 0.000000
# 3 -0.003361 -0.000621 0.013247 0.000000 0.000000 0.000000
# 4 0.000000 0.000000 0.000000 0.038763 0.000000 0.000000
# 5 0.000000 0.000000 0.000000 0.000000 0.034679 0.000000
# 6 0.000000 0.000000 0.000000 0.000000 0.000000 0.017719
#
#
# Mechanical properties :
#
#
# Convention : Reuss Voigt Hill
#
# Bulk Modulus (GPa) = 39.36311 45.65296 42.50804
# Shear Modulus (GPa) = 31.39993 35.05493 33.22743
#
# Velocity S-wave (km/s) = 3.75898 3.97173 3.86682
# Velocity P-wave (km/s) = 6.04593 6.44800 6.25019
#
# Compressibility (1/GPa) = 0.02540450
#
# Stress axis : x y z
#
# Youngs Moduli (GPa) = 97.02192 52.76496 75.48938
#
# Poissons Ratio (x) = 0.24106 0.25369
# Poissons Ratio (y) = 0.44326 0.04692
# Poissons Ratio (z) = 0.32605 0.03279
#
# Static dielectric constant tensor:
#      x y z
#    x 1.935060 0.000000 0.000000 
#    y 0.000000 1.875030 0.000000 
#    z 0.000000 0.000000 1.955350 
# 
# From -- ./inp_files/39491.got.cif
#   From: 2010.05.17/outbox.cif.g08.bks.cpg/sg68_20_cif.got.tgz:39491.got - 2010.06.03 18:57:09.
