data_PCOD9510449
_publ_section_title
;
Structure prediction by ZEFSAII (Michael W. Deem and Ramdas Pophale) SiO2 
 PCOD9510449
Probable space group: C C C A
;
_chemical_formula_sum "Si O2"
_cell_formula_units_Z 64
_cell_length_a 21.801835
_cell_length_b 7.857164
_cell_length_c 16.170823
_cell_angle_alpha 90.000000
_cell_angle_beta 90.000000
_cell_angle_gamma 90.000000
_cell_volume 2770.071571
_symmetry_space_group_name_H-M "C C C A"
_symmetry_group_IT_number 68
_space_group.IT_coordinate_system_code '2'
_symmetry_cell_setting 'orthorhombic'
loop_
_space_group_symop_operation_xyz
x,y,z
-x,1/2-y,z
x,1/2-y,1/2-z
-x,y,1/2-z
-x,-y,-z
x,1/2+y,-z
-x,1/2+y,1/2+z
x,-y,1/2+z
1/2+x,1/2+y,z
1/2-x,-y,z
1/2+x,-y,1/2-z
1/2-x,1/2+y,1/2-z
1/2-x,1/2-y,-z
1/2+x,y,-z
1/2-x,y,1/2+z
1/2+x,1/2-y,1/2+z
loop_
_atom_site_type_symbol
_atom_site_label
_atom_site_fract_x
_atom_site_fract_y
_atom_site_fract_z
Si Si1 0.138470 0.817815 0.582178
Si Si2 0.480424 0.447331 0.842828
Si Si3 0.250000 0.500000 0.343933
Si Si4 0.901508 0.429940 0.903124
Si Si5 0.339908 0.750000 0.750000
O O1 0.206990 0.876824 0.601937
O O2 0.126133 0.621076 0.603785
O O3 0.122283 0.845170 0.486534
O O4 0.090692 0.937464 0.633648
O O5 0.500000 0.250000 0.850439
O O6 0.500000 0.498270 0.750000
O O7 0.524777 0.551874 0.902756
O O8 0.295269 0.392020 0.287333
O O9 0.880330 0.326811 0.823392
#
# Coordination Sequence:
#
# PCOD9510449 Si02
#       5
#    16  16   8  16   8
#     4  11  24  43  68  98 136 176 217 273 332 399
#     4   9  19  39  67  98 131 169 215 269 326 382
#     4  12  26  44  66  96 134 176 222 270 332 398
#     4  11  24  44  69  98 131 172 224 277 335 392
#     4  12  26  44  69  98 131 178 226 278 332 398
#
# _framework density 23.104095999999998
#
# number of rings (size 3 to 8) (size 9 to 14) (size 15 to 20)
#    0.000    1.250    0.000    5.250    0.000    9.000 
#    0.000   10.625    0.000    0.000    0.000    0.000 
#    0.000    0.000    0.000    0.000    0.000    0.000 
#
# Total GULP energy -179280.407924 kJ/mol
# GULP energy per Si atom -5602.512748 kJ/mol
# Density = 2.305151 g / cm^3
# Si number density = 23.104096 Si / 1000 Ang^3
#
#
#
# Elastic Constant Matrix: (Units=GPa)
#
#
# Indices 1 2 3 4 5 6 
#
# 1 91.0393 29.7716 22.3349 0.0000 0.0000 0.0000
# 2 29.7716 114.2860 37.9991 0.0000 0.0000 0.0000
# 3 22.3349 37.9991 130.2678 0.0000 0.0000 0.0000
# 4 0.0000 0.0000 0.0000 30.1875 0.0000 0.0000
# 5 0.0000 0.0000 0.0000 0.0000 29.1255 0.0000
# 6 0.0000 0.0000 0.0000 0.0000 0.0000 -19.2661
#
#
#
# Elastic Compliance Matrix: (Units=1/GPa)
#
#
# Indices 1 2 3 4 5 6 
#
# 1 0.012200 -0.002749 -0.001290 0.000000 0.000000 0.000000
# 2 -0.002749 0.010309 -0.002536 0.000000 0.000000 0.000000
# 3 -0.001290 -0.002536 0.008637 0.000000 0.000000 0.000000
# 4 0.000000 0.000000 0.000000 0.033126 0.000000 0.000000
# 5 0.000000 0.000000 0.000000 0.000000 0.034334 0.000000
# 6 0.000000 0.000000 0.000000 0.000000 0.000000 -0.051905
#
#
# Mechanical properties :
#
#
# Convention : Reuss Voigt Hill
#
# Bulk Modulus (GPa) = 55.56564 57.31159 56.43861
# Shear Modulus (GPa) = 75.92925 24.37521 50.15223
#
# Velocity S-wave (km/s) = 5.73893 3.25163 4.66414
# Velocity P-wave (km/s) = 8.24719 6.24156 7.31345
#
# Compressibility (1/GPa) = 0.01799673
#
# Stress axis : x y z
#
# Youngs Moduli (GPa) = 81.96905 96.99978 115.77650
#
# Poissons Ratio (x) = 0.26667 0.14932
# Poissons Ratio (y) = 0.22535 0.29359
# Poissons Ratio (z) = 0.10572 0.24598
#
# Static dielectric constant tensor:
#      x y z
#    x 1.839650 0.000000 0.000000 
#    y 0.000000 1.864680 0.000000 
#    z 0.000000 0.000000 1.832430 
# 
# From -- ./inp_files/25034.got.cif
#   From: 2010.05.17/outbox.cif.g08.bks.cpg/sg68_13_cif.got.tgz:25034.got - 2010.06.03 18:57:09.
