data_PCOD9510102
_publ_section_title
;
Structure prediction by ZEFSAII (Michael W. Deem and Ramdas Pophale) SiO2 
 PCOD9510102
Probable space group: C C C A
;
_chemical_formula_sum "Si O2"
_cell_formula_units_Z 116
_cell_length_a 26.159551
_cell_length_b 10.385899
_cell_length_c 19.156163
_cell_angle_alpha 90.000000
_cell_angle_beta 90.000000
_cell_angle_gamma 90.000000
_cell_volume 5204.546633
_symmetry_space_group_name_H-M "C C C A"
_symmetry_group_IT_number 68
_space_group.IT_coordinate_system_code '2'
_symmetry_cell_setting 'orthorhombic'
loop_
_space_group_symop_operation_xyz
x,y,z
-x,1/2-y,z
x,1/2-y,1/2-z
-x,y,1/2-z
-x,-y,-z
x,1/2+y,-z
-x,1/2+y,1/2+z
x,-y,1/2+z
1/2+x,1/2+y,z
1/2-x,-y,z
1/2+x,-y,1/2-z
1/2-x,1/2+y,1/2-z
1/2-x,1/2-y,-z
1/2+x,y,-z
1/2-x,y,1/2+z
1/2+x,1/2-y,1/2+z
loop_
_atom_site_type_symbol
_atom_site_label
_atom_site_fract_x
_atom_site_fract_y
_atom_site_fract_z
Si Si1 0.805209 0.565145 0.052290
Si Si2 0.442235 0.221168 0.570772
Si Si3 0.129897 0.169677 0.314896
Si Si4 0.500000 0.250000 0.250000
Si Si5 0.083463 0.912393 0.334061
Si Si6 0.275594 0.861361 0.414874
Si Si7 0.183979 0.763053 0.169020
Si Si8 0.589166 0.984391 0.010293
O O1 0.750000 0.500000 0.064383
O O2 0.826834 0.604171 0.128119
O O3 0.851590 0.492657 0.012472
O O4 0.795157 0.674541 0.992300
O O5 0.500000 0.250000 0.590224
O O6 0.406061 0.242674 0.636829
O O7 0.440677 0.076924 0.541805
O O8 0.423789 0.331645 0.514473
O O9 0.149183 0.250000 0.250000
O O10 0.176244 0.127874 0.364268
O O11 0.099385 0.041763 0.292710
O O12 0.536902 0.337670 0.298405
O O13 0.133139 0.821417 0.337460
O O14 0.075949 0.963361 0.412671
O O15 0.232936 0.779774 0.375911
O O16 0.250000 0.000000 0.423472
O O17 0.197964 0.750000 0.250000
#
# Coordination Sequence:
#
# PCOD9510102 Si02
#       8
#    16  16  16   4  16  16  16  16
#     4  11  24  43  73 108 146 196 247 307 372 457
#     4  11  25  45  70 103 139 189 246 313 378 437
#     4  11  25  46  72 105 147 190 247 307 378 451
#     4  12  28  48  78 104 148 208 254 314 394 464
#     4  11  24  48  69 105 143 195 247 310 379 446
#     4  11  21  44  71 101 148 191 239 306 368 445
#     4  12  25  42  67 103 151 189 244 302 371 451
#     4  11  24  47  73 105 145 185 254 315 370 454
#
# _framework density 22.288204
#
# number of rings (size 3 to 8) (size 9 to 14) (size 15 to 20)
#    0.000    0.828    4.828    2.897    2.897    4.138 
#    7.448    0.000    0.000    0.000    0.000    0.000 
#    0.000    0.000    0.000    0.000    0.000    0.000 
#
# Total GULP energy -323794.796157 kJ/mol
# GULP energy per Si atom -5582.668899 kJ/mol
# Density = 2.223748 g / cm^3
# Si number density = 22.288204 Si / 1000 Ang^3
#
#
#
# Elastic Constant Matrix: (Units=GPa)
#
#
# Indices 1 2 3 4 5 6 
#
# 1 72.7965 -2.5108 32.2904 0.0000 0.0000 0.0000
# 2 -2.5108 45.1921 37.0331 0.0000 0.0000 0.0000
# 3 32.2904 37.0331 128.3820 0.0000 0.0000 0.0000
# 4 0.0000 0.0000 0.0000 24.7129 0.0000 0.0000
# 5 0.0000 0.0000 0.0000 0.0000 46.6809 0.0000
# 6 0.0000 0.0000 0.0000 0.0000 0.0000 33.1150
#
#
#
# Elastic Compliance Matrix: (Units=1/GPa)
#
#
# Indices 1 2 3 4 5 6 
#
# 1 0.016495 0.005652 -0.005779 0.000000 0.000000 0.000000
# 2 0.005652 0.030914 -0.010339 0.000000 0.000000 0.000000
# 3 -0.005779 -0.010339 0.012225 0.000000 0.000000 0.000000
# 4 0.000000 0.000000 0.000000 0.040465 0.000000 0.000000
# 5 0.000000 0.000000 0.000000 0.000000 0.021422 0.000000
# 6 0.000000 0.000000 0.000000 0.000000 0.000000 0.030198
#
#
# Mechanical properties :
#
#
# Convention : Reuss Voigt Hill
#
# Bulk Modulus (GPa) = 25.83797 42.22180 34.02988
# Shear Modulus (GPa) = 26.94646 32.87229 29.90937
#
# Velocity S-wave (km/s) = 3.48084 3.84457 3.66722
# Velocity P-wave (km/s) = 5.26999 6.22032 5.76477
#
# Compressibility (1/GPa) = 0.03870273
#
# Stress axis : x y z
#
# Youngs Moduli (GPa) = 60.62273 32.34737 81.79718
#
# Poissons Ratio (x) = -0.18284 0.47274
# Poissons Ratio (y) = -0.34267 0.84572
# Poissons Ratio (z) = 0.35036 0.33445
#
# Static dielectric constant tensor:
#      x y z
#    x 1.767010 0.000000 0.000000 
#    y 0.000000 1.927090 0.000000 
#    z 0.000000 0.000000 1.849210 
# 
# From -- ./inp_files/34163.got.cif
#   From: 2010.05.17/outbox.cif.g08.bks.cpg/sg68_18_cif.got.tgz:34163.got - 2010.06.03 18:57:09.
