data_PCOD9510758
_publ_section_title
;
Structure prediction by ZEFSAII (Michael W. Deem and Ramdas Pophale) SiO2 
 PCOD9510758
Probable space group: C C C A
;
_chemical_formula_sum "Si O2"
_cell_formula_units_Z 92
_cell_length_a 9.051780
_cell_length_b 23.001333
_cell_length_c 18.246518
_cell_angle_alpha 90.000000
_cell_angle_beta 90.000000
_cell_angle_gamma 90.000000
_cell_volume 3798.979897
_symmetry_space_group_name_H-M "C C C A"
_symmetry_group_IT_number 68
_space_group.IT_coordinate_system_code '2'
_symmetry_cell_setting 'orthorhombic'
loop_
_space_group_symop_operation_xyz
x,y,z
-x,1/2-y,z
x,1/2-y,1/2-z
-x,y,1/2-z
-x,-y,-z
x,1/2+y,-z
-x,1/2+y,1/2+z
x,-y,1/2+z
1/2+x,1/2+y,z
1/2-x,-y,z
1/2+x,-y,1/2-z
1/2-x,1/2+y,1/2-z
1/2-x,1/2-y,-z
1/2+x,y,-z
1/2-x,y,1/2+z
1/2+x,1/2-y,1/2+z
loop_
_atom_site_type_symbol
_atom_site_label
_atom_site_fract_x
_atom_site_fract_y
_atom_site_fract_z
Si Si1 0.707115 0.565935 0.597714
Si Si2 0.000000 0.250000 0.147373
Si Si3 0.110974 0.410075 0.541162
Si Si4 0.500000 0.537337 0.250000
Si Si5 0.818296 0.360474 0.209183
Si Si6 0.500000 0.250000 0.250000
Si Si7 0.781933 0.682297 0.358935
Si Si8 0.250000 0.000000 0.854167
O O1 0.750000 0.500000 0.621301
O O2 0.832393 0.586890 0.541136
O O3 0.551264 0.564306 0.554481
O O4 0.685448 0.617632 0.658001
O O5 0.096714 0.199009 0.188995
O O6 0.135619 0.284802 0.111326
O O7 0.129135 0.346412 0.575522
O O8 0.224812 0.447112 0.590673
O O9 0.581139 0.583027 0.197211
O O10 0.389177 0.501427 0.200429
O O11 0.779105 0.360237 0.294582
O O12 0.389712 0.218748 0.306426
#
# Coordination Sequence:
#
# PCOD9510758 Si02
#       8
#    16   8  16   8  16   4  16   8
#     4  12  29  48  75 103 149 195 244 299 370 438
#     4  12  23  46  77 107 140 190 241 300 373 444
#     4  12  28  48  71 106 145 194 242 296 363 438
#     4  12  26  40  72 110 144 182 238 302 358 430
#     4  12  23  44  75 107 136 191 241 295 360 429
#     4  12  24  40  70 106 144 180 232 306 368 416
#     4  12  24  44  74 105 144 183 241 302 364 434
#     4  12  26  44  68 106 150 184 232 294 364 428
#
# _framework density 24.217027000000002
#
# number of rings (size 3 to 8) (size 9 to 14) (size 15 to 20)
#    0.000    0.000    6.087    3.130    8.522    0.696 
#    0.000    1.739    0.000    0.000    0.000    0.000 
#    0.000    0.000    0.000    0.000    0.000    0.000 
#
# Total GULP energy -256826.334045 kJ/mol
# GULP energy per Si atom -5583.181175 kJ/mol
# Density = 2.416191 g / cm^3
# Si number density = 24.217027 Si / 1000 Ang^3
#
#
#
# Elastic Constant Matrix: (Units=GPa)
#
#
# Indices 1 2 3 4 5 6 
#
# 1 81.3462 13.2626 3.8888 0.0000 0.0000 0.0000
# 2 13.2626 80.0174 27.0989 0.0000 0.0000 0.0000
# 3 3.8888 27.0989 63.5403 0.0000 0.0000 0.0000
# 4 0.0000 0.0000 0.0000 13.3929 0.0000 0.0000
# 5 0.0000 0.0000 0.0000 0.0000 37.4769 0.0000
# 6 0.0000 0.0000 0.0000 0.0000 0.0000 36.7589
#
#
#
# Elastic Compliance Matrix: (Units=1/GPa)
#
#
# Indices 1 2 3 4 5 6 
#
# 1 0.012636 -0.002142 0.000140 0.000000 0.000000 0.000000
# 2 -0.002142 0.014970 -0.006253 0.000000 0.000000 0.000000
# 3 0.000140 -0.006253 0.018396 0.000000 0.000000 0.000000
# 4 0.000000 0.000000 0.000000 0.074667 0.000000 0.000000
# 5 0.000000 0.000000 0.000000 0.000000 0.026683 0.000000
# 6 0.000000 0.000000 0.000000 0.000000 0.000000 0.027204
#
#
# Mechanical properties :
#
#
# Convention : Reuss Voigt Hill
#
# Bulk Modulus (GPa) = 33.90751 34.82273 34.36512
# Shear Modulus (GPa) = 24.88838 29.56931 27.22884
#
# Velocity S-wave (km/s) = 3.20929 3.49809 3.35680
# Velocity P-wave (km/s) = 5.26921 5.54312 5.40790
#
# Compressibility (1/GPa) = 0.02949200
#
# Stress axis : x y z
#
# Youngs Moduli (GPa) = 79.14132 66.79995 54.35830
#
# Poissons Ratio (x) = 0.14307 -0.00762
# Poissons Ratio (y) = 0.16950 0.33992
# Poissons Ratio (z) = -0.01109 0.41773
#
# Static dielectric constant tensor:
#      x y z
#    x 3.891440 0.000000 0.000000 
#    y 0.000000 2.100140 0.000000 
#    z 0.000000 0.000000 1.953610 
# 
# From -- ./inp_files/36368.got.cif
#   From: 2010.05.17/outbox.cif.g08.bks.cpg/sg68_19_cif.got.tgz:36368.got - 2010.06.03 18:57:09.
