data_PCOD9510415
_publ_section_title
;
Structure prediction by ZEFSAII (Michael W. Deem and Ramdas Pophale) SiO2 
 PCOD9510415
Probable space group: C C C A
;
_chemical_formula_sum "Si O2"
_cell_formula_units_Z 80
_cell_length_a 26.424770
_cell_length_b 8.791348
_cell_length_c 15.539070
_cell_angle_alpha 90.000000
_cell_angle_beta 90.000000
_cell_angle_gamma 90.000000
_cell_volume 3609.871234
_symmetry_space_group_name_H-M "C C C A"
_symmetry_group_IT_number 68
_space_group.IT_coordinate_system_code '2'
_symmetry_cell_setting 'orthorhombic'
loop_
_space_group_symop_operation_xyz
x,y,z
-x,1/2-y,z
x,1/2-y,1/2-z
-x,y,1/2-z
-x,-y,-z
x,1/2+y,-z
-x,1/2+y,1/2+z
x,-y,1/2+z
1/2+x,1/2+y,z
1/2-x,-y,z
1/2+x,-y,1/2-z
1/2-x,1/2+y,1/2-z
1/2-x,1/2-y,-z
1/2+x,y,-z
1/2-x,y,1/2+z
1/2+x,1/2-y,1/2+z
loop_
_atom_site_type_symbol
_atom_site_label
_atom_site_fract_x
_atom_site_fract_y
_atom_site_fract_z
Si Si1 0.805312 0.455008 0.943132
Si Si2 0.871025 0.209939 0.997554
Si Si3 0.397464 0.125953 0.674416
Si Si4 0.803222 0.565795 0.242599
Si Si5 0.555256 0.821651 0.839006
O O1 0.750000 0.500000 0.974785
O O2 0.853711 0.540053 0.982099
O O3 0.806870 0.488160 0.841688
O O4 0.818463 0.283077 0.964940
O O5 0.890374 0.284863 0.085404
O O6 0.910804 0.219695 0.920802
O O7 0.401754 0.250000 0.750000
O O8 0.348882 0.015786 0.692469
O O9 0.443108 0.004273 0.670386
O O10 0.803322 0.750000 0.250000
O O11 0.750000 0.500000 0.208128
O O12 0.500000 0.750000 0.849777
O O13 0.576077 0.750000 0.750000
#
# Coordination Sequence:
#
# PCOD9510415 Si02
#       5
#    16  16  16  16  16
#     4  11  24  41  67 104 151 197 242 291 352 423
#     4  12  24  45  72 106 146 195 240 299 360 433
#     4  12  24  44  74 109 149 190 244 299 364 442
#     4  11  24  41  68 106 152 202 248 298 356 429
#     4  11  27  52  78 101 139 187 241 310 384 439
#
# _framework density 22.161455
#
# number of rings (size 3 to 8) (size 9 to 14) (size 15 to 20)
#    0.000    0.600    4.000    4.200    2.800    1.600 
#    0.000    2.000    0.000    0.000    0.000    0.000 
#    0.000    0.000    0.000    0.000    0.000    0.000 
#
# Total GULP energy -223702.853686 kJ/mol
# GULP energy per Si atom -5592.571342 kJ/mol
# Density = 2.211101 g / cm^3
# Si number density = 22.161455 Si / 1000 Ang^3
#
#
#
# Elastic Constant Matrix: (Units=GPa)
#
#
# Indices 1 2 3 4 5 6 
#
# 1 119.1104 56.8768 52.7654 0.0000 0.0000 0.0000
# 2 56.8768 122.5411 43.2530 0.0000 0.0000 0.0000
# 3 52.7654 43.2530 163.8007 0.0000 0.0000 0.0000
# 4 0.0000 0.0000 0.0000 31.3328 0.0000 0.0000
# 5 0.0000 0.0000 0.0000 0.0000 3.6568 0.0000
# 6 0.0000 0.0000 0.0000 0.0000 0.0000 33.0143
#
#
#
# Elastic Compliance Matrix: (Units=1/GPa)
#
#
# Indices 1 2 3 4 5 6 
#
# 1 0.011694 -0.004519 -0.002574 0.000000 0.000000 0.000000
# 2 -0.004519 0.010746 -0.001382 0.000000 0.000000 0.000000
# 3 -0.002574 -0.001382 0.007299 0.000000 0.000000 0.000000
# 4 0.000000 0.000000 0.000000 0.031915 0.000000 0.000000
# 5 0.000000 0.000000 0.000000 0.000000 0.273462 0.000000
# 6 0.000000 0.000000 0.000000 0.000000 0.000000 0.030290
#
#
# Mechanical properties :
#
#
# Convention : Reuss Voigt Hill
#
# Bulk Modulus (GPa) = 78.19017 79.02695 78.60856
# Shear Modulus (GPa) = 12.93267 30.43791 21.68529
#
# Velocity S-wave (km/s) = 2.41833 3.71004 3.13151
# Velocity P-wave (km/s) = 6.56935 7.35457 6.97302
#
# Compressibility (1/GPa) = 0.01278933
#
# Stress axis : x y z
#
# Youngs Moduli (GPa) = 85.51690 93.05977 137.00750
#
# Poissons Ratio (x) = 0.42055 0.35260
# Poissons Ratio (y) = 0.38646 0.18931
# Poissons Ratio (z) = 0.22008 0.12859
#
# Static dielectric constant tensor:
#      x y z
#    x 1.821440 0.000000 0.000000 
#    y 0.000000 1.838430 0.000000 
#    z 0.000000 0.000000 1.831940 
# 
# From -- ./inp_files/33982.got.cif
#   From: 2010.05.17/outbox.cif.g08.bks.cpg/sg68_17_cif.got.tgz:33982.got - 2010.06.03 18:57:09.
