data_PCOD9510393
_publ_section_title
;
Structure prediction by ZEFSAII (Michael W. Deem and Ramdas Pophale) SiO2 
 PCOD9510393
Probable space group: C C C A
;
_chemical_formula_sum "Si O2"
_cell_formula_units_Z 68
_cell_length_a 18.134246
_cell_length_b 16.439302
_cell_length_c 10.545455
_cell_angle_alpha 90.000000
_cell_angle_beta 90.000000
_cell_angle_gamma 90.000000
_cell_volume 3143.751426
_symmetry_space_group_name_H-M "C C C A"
_symmetry_group_IT_number 68
_space_group.IT_coordinate_system_code '2'
_symmetry_cell_setting 'orthorhombic'
loop_
_space_group_symop_operation_xyz
x,y,z
-x,1/2-y,z
x,1/2-y,1/2-z
-x,y,1/2-z
-x,-y,-z
x,1/2+y,-z
-x,1/2+y,1/2+z
x,-y,1/2+z
1/2+x,1/2+y,z
1/2-x,-y,z
1/2+x,-y,1/2-z
1/2-x,1/2+y,1/2-z
1/2-x,1/2-y,-z
1/2+x,y,-z
1/2-x,y,1/2+z
1/2+x,1/2-y,1/2+z
loop_
_atom_site_type_symbol
_atom_site_label
_atom_site_fract_x
_atom_site_fract_y
_atom_site_fract_z
Si Si1 0.786072 0.832928 0.545246
Si Si2 0.443268 0.628665 0.958558
Si Si3 0.000000 0.250000 0.750000
Si Si4 0.442123 0.943807 0.135746
Si Si5 0.223385 0.412217 0.300836
O O1 0.750000 0.750000 0.500000
O O2 0.874851 0.837640 0.539588
O O3 0.758217 0.852254 0.685948
O O4 0.760322 0.895060 0.435780
O O5 0.454142 0.689273 0.840776
O O6 0.428514 0.534686 0.918751
O O7 0.519181 0.617225 0.036383
O O8 0.500000 0.952858 0.250000
O O9 0.364030 0.911215 0.180055
O O10 0.250000 0.500000 0.255696
#
# Coordination Sequence:
#
# PCOD9510393 Si02
#       5
#    16  16   4  16  16
#     4  12  28  46  69 108 149 190 235 303 373 429
#     4  11  26  44  74 104 144 189 234 302 366 432
#     4  12  28  44  66 112 140 178 230 302 372 424
#     4  11  23  48  73 106 138 188 250 294 353 438
#     4  12  26  46  76 106 142 192 248 301 357 440
#
# _framework density 21.630209000000001
#
# number of rings (size 3 to 8) (size 9 to 14) (size 15 to 20)
#    0.000    0.471    5.882    1.412    6.588    0.000 
#    0.000    0.588    0.000    0.000    0.000    0.000 
#    0.000    0.000    0.000    0.000    0.000    0.000 
#
# Total GULP energy -190105.638528 kJ/mol
# GULP energy per Si atom -5591.342310 kJ/mol
# Density = 2.158098 g / cm^3
# Si number density = 21.630209 Si / 1000 Ang^3
#
#
#
# Elastic Constant Matrix: (Units=GPa)
#
#
# Indices 1 2 3 4 5 6 
#
# 1 103.4060 26.0260 28.1044 0.0000 0.0000 0.0000
# 2 26.0260 82.2860 18.4437 0.0000 0.0000 0.0000
# 3 28.1044 18.4437 84.2160 0.0000 0.0000 0.0000
# 4 0.0000 0.0000 0.0000 45.0072 0.0000 0.0000
# 5 0.0000 0.0000 0.0000 0.0000 62.8476 0.0000
# 6 0.0000 0.0000 0.0000 0.0000 0.0000 11.1250
#
#
#
# Elastic Compliance Matrix: (Units=1/GPa)
#
#
# Indices 1 2 3 4 5 6 
#
# 1 0.011238 -0.002854 -0.003125 0.000000 0.000000 0.000000
# 2 -0.002854 0.013505 -0.002005 0.000000 0.000000 0.000000
# 3 -0.003125 -0.002005 0.013356 0.000000 0.000000 0.000000
# 4 0.000000 0.000000 0.000000 0.022219 0.000000 0.000000
# 5 0.000000 0.000000 0.000000 0.000000 0.015912 0.000000
# 6 0.000000 0.000000 0.000000 0.000000 0.000000 0.089888
#
#
# Mechanical properties :
#
#
# Convention : Reuss Voigt Hill
#
# Bulk Modulus (GPa) = 45.18671 46.11734 45.65202
# Shear Modulus (GPa) = 26.39029 36.95156 31.67092
#
# Velocity S-wave (km/s) = 3.49673 4.13768 3.83064
# Velocity P-wave (km/s) = 6.10236 6.64788 6.38095
#
# Compressibility (1/GPa) = 0.02213040
#
# Stress axis : x y z
#
# Youngs Moduli (GPa) = 88.98075 74.04731 74.87063
#
# Poissons Ratio (x) = 0.21133 0.23400
# Poissons Ratio (y) = 0.25395 0.15013
# Poissons Ratio (z) = 0.27810 0.14848
#
# Static dielectric constant tensor:
#      x y z
#    x 1.776280 0.000000 0.000000 
#    y 0.000000 1.779500 0.000000 
#    z 0.000000 0.000000 -3.330400 
# 
# From -- ./inp_files/6822.got.cif
#   From: 2010.05.17/outbox.cif.g08.bks.cpg/sg68_4_cif.got.tgz:6822.got - 2010.06.03 18:57:09.
