data_PCOD9510017
_publ_section_title
;
Structure prediction by ZEFSAII (Michael W. Deem and Ramdas Pophale) SiO2 
 PCOD9510017
Probable space group: C C C A
;
_chemical_formula_sum "Si O2"
_cell_formula_units_Z 64
_cell_length_a 24.890307
_cell_length_b 13.697064
_cell_length_c 8.173089
_cell_angle_alpha 90.000000
_cell_angle_beta 90.000000
_cell_angle_gamma 90.000000
_cell_volume 2786.403240
_symmetry_space_group_name_H-M "C C C A"
_symmetry_group_IT_number 68
_space_group.IT_coordinate_system_code '2'
_symmetry_cell_setting 'orthorhombic'
loop_
_space_group_symop_operation_xyz
x,y,z
-x,1/2-y,z
x,1/2-y,1/2-z
-x,y,1/2-z
-x,-y,-z
x,1/2+y,-z
-x,1/2+y,1/2+z
x,-y,1/2+z
1/2+x,1/2+y,z
1/2-x,-y,z
1/2+x,-y,1/2-z
1/2-x,1/2+y,1/2-z
1/2-x,1/2-y,-z
1/2+x,y,-z
1/2-x,y,1/2+z
1/2+x,1/2-y,1/2+z
loop_
_atom_site_type_symbol
_atom_site_label
_atom_site_fract_x
_atom_site_fract_y
_atom_site_fract_z
Si Si1 0.500000 0.928329 0.250000
Si Si2 0.250000 0.000000 0.295607
Si Si3 0.642075 0.903702 0.828291
Si Si4 0.199072 0.196710 0.419156
Si Si5 0.925354 0.565852 0.476507
O O1 0.539294 0.878239 0.384825
O O2 0.463952 0.998581 0.364226
O O3 0.201885 0.941282 0.211103
O O4 0.281947 0.913009 0.381496
O O5 0.611079 0.881826 0.659820
O O6 0.650639 0.815203 0.953797
O O7 0.611910 0.991555 0.921164
O O8 0.184881 0.250000 0.250000
O O9 0.250000 0.250000 0.500000
#
# Coordination Sequence:
#
# PCOD9510017 Si02
#       5
#     8   8  16  16  16
#     4   8  16  34  54  96 131 151 220 298 340 434
#     4  12  24  40  64  88 142 176 230 296 336 412
#     4  11  21  35  59  92 129 185 220 281 345 416
#     4  12  26  40  59  90 136 185 236 284 346 414
#     4   9  18  32  60  91 133 164 223 283 356 414
#
# _framework density 22.968679000000002
#
# number of rings (size 3 to 8) (size 9 to 14) (size 15 to 20)
#    0.000    1.500    5.000    0.750    0.000    0.000 
#    0.000    0.000    0.000    0.000    0.000    0.875 
#   22.500    2.500    0.000    0.000    0.000    2.750 
#
# Total GULP energy -178512.689130 kJ/mol
# GULP energy per Si atom -5578.521535 kJ/mol
# Density = 2.291640 g / cm^3
# Si number density = 22.968679 Si / 1000 Ang^3
#
#
#
# Elastic Constant Matrix: (Units=GPa)
#
#
# Indices 1 2 3 4 5 6 
#
# 1 96.3312 0.0186 76.2696 0.0000 0.0000 0.0000
# 2 0.0186 69.3788 47.0332 0.0000 0.0000 0.0000
# 3 76.2696 47.0332 218.6139 0.0000 0.0000 0.0000
# 4 0.0000 0.0000 0.0000 8.9007 0.0000 0.0000
# 5 0.0000 0.0000 0.0000 0.0000 129.9381 0.0000
# 6 0.0000 0.0000 0.0000 0.0000 0.0000 7.7209
#
#
#
# Elastic Compliance Matrix: (Units=1/GPa)
#
#
# Indices 1 2 3 4 5 6 
#
# 1 0.015340 0.004243 -0.006265 0.000000 0.000000 0.000000
# 2 0.004243 0.018048 -0.005363 0.000000 0.000000 0.000000
# 3 -0.006265 -0.005363 0.007914 0.000000 0.000000 0.000000
# 4 0.000000 0.000000 0.000000 0.112350 0.000000 0.000000
# 5 0.000000 0.000000 0.000000 0.000000 0.007696 0.000000
# 6 0.000000 0.000000 0.000000 0.000000 0.000000 0.129519
#
#
# Mechanical properties :
#
#
# Convention : Reuss Voigt Hill
#
# Bulk Modulus (GPa) = 37.69034 70.10740 53.89887
# Shear Modulus (GPa) = 15.89920 46.71211 31.30566
#
# Velocity S-wave (km/s) = 2.63385 4.51458 3.69585
# Velocity P-wave (km/s) = 5.06898 7.60030 6.45984
#
# Compressibility (1/GPa) = 0.02653200
#
# Stress axis : x y z
#
# Youngs Moduli (GPa) = 65.18918 55.40694 126.36321
#
# Poissons Ratio (x) = -0.23508 0.79161
# Poissons Ratio (y) = -0.27658 0.67771
# Poissons Ratio (z) = 0.40838 0.29716
#
# Static dielectric constant tensor:
#      x y z
#    x 1.904370 0.000000 0.000000 
#    y 0.000000 1.787520 0.000000 
#    z 0.000000 0.000000 1.998480 
# 
# From -- ./inp_files/5281.got.cif
#   From: 2010.05.17/outbox.cif.g08.bks.cpg/sg68_3_cif.got.tgz:5281.got - 2010.06.03 18:57:09.
