data_PCOD9510132
_publ_section_title
;
Structure prediction by ZEFSAII (Michael W. Deem and Ramdas Pophale) SiO2 
 PCOD9510132
Probable space group: C C C A
;
_chemical_formula_sum "Si O2"
_cell_formula_units_Z 60
_cell_length_a 18.428911
_cell_length_b 25.424727
_cell_length_c 5.134200
_cell_angle_alpha 90.000000
_cell_angle_beta 90.000000
_cell_angle_gamma 90.000000
_cell_volume 2405.629570
_symmetry_space_group_name_H-M "C C C A"
_symmetry_group_IT_number 68
_space_group.IT_coordinate_system_code '2'
_symmetry_cell_setting 'orthorhombic'
loop_
_space_group_symop_operation_xyz
x,y,z
-x,1/2-y,z
x,1/2-y,1/2-z
-x,y,1/2-z
-x,-y,-z
x,1/2+y,-z
-x,1/2+y,1/2+z
x,-y,1/2+z
1/2+x,1/2+y,z
1/2-x,-y,z
1/2+x,-y,1/2-z
1/2-x,1/2+y,1/2-z
1/2-x,1/2-y,-z
1/2+x,y,-z
1/2-x,y,1/2+z
1/2+x,1/2-y,1/2+z
loop_
_atom_site_type_symbol
_atom_site_label
_atom_site_fract_x
_atom_site_fract_y
_atom_site_fract_z
Si Si1 0.500000 0.250000 0.750000
Si Si2 0.000000 0.428530 0.750000
Si Si3 0.647861 0.532857 0.950101
Si Si4 0.792782 0.349834 0.908123
Si Si5 0.569006 0.672819 0.593085
O O1 0.439257 0.293539 0.660677
O O2 0.939064 0.458002 0.914726
O O3 0.952375 0.388815 0.567146
O O4 0.665884 0.490403 0.729862
O O5 0.687062 0.588172 0.902525
O O6 0.727239 0.338509 0.706572
O O7 0.861072 0.322317 0.771734
O O8 0.500000 0.694757 0.750000
#
# Coordination Sequence:
#
# PCOD9510132 Si02
#       5
#     4   8  16  16  16
#     4  12  22  40  82  98 128 160 246 288 338 416
#     4   8  20  39  57  94 132 168 221 277 344 388
#     4  11  22  37  63  94 132 177 230 277 321 387
#     4  11  25  44  66  97 142 182 220 274 344 408
#     4   9  23  43  68  99 129 174 224 279 347 408
#
# _framework density 24.941496999999998
#
# number of rings (size 3 to 8) (size 9 to 14) (size 15 to 20)
#    0.800    1.067    0.000    2.800    3.733    7.467 
#    0.000    1.333    0.000    0.000    0.000    0.000 
#    0.000    0.000    0.000    0.000    0.000    0.000 
#
# Total GULP energy -167442.707687 kJ/mol
# GULP energy per Si atom -5581.423590 kJ/mol
# Density = 2.488473 g / cm^3
# Si number density = 24.941497 Si / 1000 Ang^3
#
#
#
# Elastic Constant Matrix: (Units=GPa)
#
#
# Indices 1 2 3 4 5 6 
#
# 1 83.2420 6.8990 -4.6736 0.0000 0.0000 0.0000
# 2 6.8990 37.9535 9.4865 0.0000 0.0000 0.0000
# 3 -4.6736 9.4865 59.5251 0.0000 0.0000 0.0000
# 4 0.0000 0.0000 0.0000 30.7864 0.0000 0.0000
# 5 0.0000 0.0000 0.0000 0.0000 24.3593 0.0000
# 6 0.0000 0.0000 0.0000 0.0000 0.0000 -17.9907
#
#
#
# Elastic Compliance Matrix: (Units=1/GPa)
#
#
# Indices 1 2 3 4 5 6 
#
# 1 0.012304 -0.002581 0.001377 0.000000 0.000000 0.000000
# 2 -0.002581 0.027982 -0.004662 0.000000 0.000000 0.000000
# 3 0.001377 -0.004662 0.017651 0.000000 0.000000 0.000000
# 4 0.000000 0.000000 0.000000 0.032482 0.000000 0.000000
# 5 0.000000 0.000000 0.000000 0.000000 0.041052 0.000000
# 6 0.000000 0.000000 0.000000 0.000000 0.000000 -0.055584
#
#
# Mechanical properties :
#
#
# Convention : Reuss Voigt Hill
#
# Bulk Modulus (GPa) = 21.64208 22.68270 22.16239
# Shear Modulus (GPa) = 48.53377 18.69824 33.61600
#
# Velocity S-wave (km/s) = 4.41603 2.74101 3.67521
# Velocity P-wave (km/s) = 5.89047 4.37397 5.18793
#
# Compressibility (1/GPa) = 0.04620628
#
# Stress axis : x y z
#
# Youngs Moduli (GPa) = 81.27168 35.73662 56.65469
#
# Poissons Ratio (x) = 0.09223 -0.07804
# Poissons Ratio (y) = 0.20975 0.26414
# Poissons Ratio (z) = -0.11194 0.16661
#
# Static dielectric constant tensor:
#      x y z
#    x 2.015970 0.000000 0.000000 
#    y 0.000000 1.954840 0.000000 
#    z 0.000000 0.000000 2.544800 
# 
# From -- ./inp_files/998.got.cif
#   From: 2010.05.17/outbox.cif.g08.bks.cpg/sg68_1_cif.got.tgz:998.got - 2010.06.03 18:57:09.
