data_PCOD9510772
_publ_section_title
;
Structure prediction by ZEFSAII (Michael W. Deem and Ramdas Pophale) SiO2 
 PCOD9510772
Probable space group: C C C A
;
_chemical_formula_sum "Si O2"
_cell_formula_units_Z 36
_cell_length_a 7.698414
_cell_length_b 13.269390
_cell_length_c 13.669286
_cell_angle_alpha 90.000000
_cell_angle_beta 90.000000
_cell_angle_gamma 90.000000
_cell_volume 1396.362096
_symmetry_space_group_name_H-M "C C C A"
_symmetry_group_IT_number 68
_space_group.IT_coordinate_system_code '2'
_symmetry_cell_setting 'orthorhombic'
loop_
_space_group_symop_operation_xyz
x,y,z
-x,1/2-y,z
x,1/2-y,1/2-z
-x,y,1/2-z
-x,-y,-z
x,1/2+y,-z
-x,1/2+y,1/2+z
x,-y,1/2+z
1/2+x,1/2+y,z
1/2-x,-y,z
1/2+x,-y,1/2-z
1/2-x,1/2+y,1/2-z
1/2-x,1/2-y,-z
1/2+x,y,-z
1/2-x,y,1/2+z
1/2+x,1/2-y,1/2+z
loop_
_atom_site_type_symbol
_atom_site_label
_atom_site_fract_x
_atom_site_fract_y
_atom_site_fract_z
Si Si1 0.114232 0.425771 0.930210
Si Si2 0.269155 0.880244 0.874607
Si Si3 0.000000 0.750000 0.750000
O O1 0.250000 0.500000 0.877027
O O2 0.976612 0.365371 0.867086
O O3 0.219155 0.363367 0.010771
O O4 0.000000 0.500000 0.000000
O O5 0.131110 0.818136 0.813275
O O6 0.250000 0.000000 0.852906
#
# Coordination Sequence:
#
# PCOD9510772 Si02
#       3
#    16  16   4
#     4   7  13  32  65  89 115 172 234 282 324 379
#     4   9  19  38  64  94 134 177 229 287 334 410
#     4  12  24  36  64 108 148 188 212 266 380 430
#
# _framework density 25.781278
#
# number of rings (size 3 to 8) (size 9 to 14) (size 15 to 20)
#    0.000    4.444    0.000    0.000    0.000    1.778 
#    0.000   20.000    0.000   41.333    0.000    0.000 
#    0.000    0.000    0.000    0.000    0.000    0.000 
#
# Total GULP energy -100434.628401 kJ/mol
# GULP energy per Si atom -5579.701578 kJ/mol
# Density = 2.572260 g / cm^3
# Si number density = 25.781278 Si / 1000 Ang^3
#
#
#
# Elastic Constant Matrix: (Units=GPa)
#
#
# Indices 1 2 3 4 5 6 
#
# 1 246.8942 82.9528 78.8680 0.0000 0.0000 0.0000
# 2 82.9528 159.4473 44.9981 0.0000 0.0000 0.0000
# 3 78.8680 44.9981 109.1084 0.0000 0.0000 0.0000
# 4 0.0000 0.0000 0.0000 8.9052 0.0000 0.0000
# 5 0.0000 0.0000 0.0000 0.0000 -34.9091 0.0000
# 6 0.0000 0.0000 0.0000 0.0000 0.0000 26.2090
#
#
#
# Elastic Compliance Matrix: (Units=1/GPa)
#
#
# Indices 1 2 3 4 5 6 
#
# 1 0.005819 -0.002083 -0.003348 0.000000 0.000000 0.000000
# 2 -0.002083 0.007843 -0.001729 0.000000 0.000000 0.000000
# 3 -0.003348 -0.001729 0.012298 0.000000 0.000000 0.000000
# 4 0.000000 0.000000 0.000000 0.112294 0.000000 0.000000
# 5 0.000000 0.000000 0.000000 0.000000 -0.028646 0.000000
# 6 0.000000 0.000000 0.000000 0.000000 0.000000 0.038155
#
#
# Mechanical properties :
#
#
# Convention : Reuss Voigt Hill
#
# Bulk Modulus (GPa) = 85.89779 103.23197 94.56488
# Shear Modulus (GPa) = 30.12712 20.61641 25.37176
#
# Velocity S-wave (km/s) = 3.42214 2.83090 3.14047
# Velocity P-wave (km/s) = 7.00035 7.12838 7.06465
#
# Compressibility (1/GPa) = 0.01164174
#
# Stress axis : x y z
#
# Youngs Moduli (GPa) = 171.83683 127.49798 81.31377
#
# Poissons Ratio (x) = 0.26556 0.27220
# Poissons Ratio (y) = 0.35791 0.14060
# Poissons Ratio (z) = 0.57523 0.22046
#
# Static dielectric constant tensor:
#      x y z
#    x 2.268080 0.000000 0.000000 
#    y 0.000000 2.092480 0.000000 
#    z 0.000000 0.000000 2.092160 
# 
# From -- ./inp_files/18588.got.cif
#   From: 2010.05.17/outbox.cif.g08.bks.cpg/sg68_10_cif.got.tgz:18588.got - 2010.06.03 18:57:09.
