data_PCOD9510811
_publ_section_title
;
Structure prediction by ZEFSAII (Michael W. Deem and Ramdas Pophale) SiO2 
 PCOD9510811
Probable space group: C C C A
;
_chemical_formula_sum "Si O2"
_cell_formula_units_Z 68
_cell_length_a 6.677603
_cell_length_b 20.393709
_cell_length_c 20.585180
_cell_angle_alpha 90.000000
_cell_angle_beta 90.000000
_cell_angle_gamma 90.000000
_cell_volume 2803.312300
_symmetry_space_group_name_H-M "C C C A"
_symmetry_group_IT_number 68
_space_group.IT_coordinate_system_code '2'
_symmetry_cell_setting 'orthorhombic'
loop_
_space_group_symop_operation_xyz
x,y,z
-x,1/2-y,z
x,1/2-y,1/2-z
-x,y,1/2-z
-x,-y,-z
x,1/2+y,-z
-x,1/2+y,1/2+z
x,-y,1/2+z
1/2+x,1/2+y,z
1/2-x,-y,z
1/2+x,-y,1/2-z
1/2-x,1/2+y,1/2-z
1/2-x,1/2-y,-z
1/2+x,y,-z
1/2-x,y,1/2+z
1/2+x,1/2-y,1/2+z
loop_
_atom_site_type_symbol
_atom_site_label
_atom_site_fract_x
_atom_site_fract_y
_atom_site_fract_z
Si Si1 0.836402 0.431247 0.579552
Si Si2 0.000000 0.750000 0.750000
Si Si3 0.620939 0.697469 0.490171
Si Si4 0.851236 0.431625 0.806972
Si Si5 0.987796 0.348325 0.150173
O O1 0.750000 0.500000 0.552283
O O2 0.869058 0.372603 0.528479
O O3 0.665956 0.403227 0.627533
O O4 0.031348 0.440274 0.624666
O O5 0.886291 0.796074 0.801565
O O6 0.372287 0.716518 0.507885
O O7 0.581185 0.684237 0.413953
O O8 0.750000 0.500000 0.788447
O O9 0.674503 0.380225 0.814258
O O10 0.000000 0.411998 0.750000
#
# Coordination Sequence:
#
# PCOD9510811 Si02
#       5
#    16   4  16  16  16
#     4  12  26  48  78 115 158 207 265 329 399 469
#     4  12  24  48  78 100 152 206 256 316 406 472
#     4  12  24  47  75 111 161 206 260 326 393 471
#     4  12  27  46  76 111 151 199 258 324 397 470
#     4  12  26  48  76 111 152 201 260 325 389 475
#
# _framework density 24.257021000000002
#
# number of rings (size 3 to 8) (size 9 to 14) (size 15 to 20)
#    0.000    0.000    5.882    3.529    1.647    1.882 
#    0.000    6.471    0.000    0.000    0.000    0.000 
#    0.000    0.000    0.000    0.000    0.000    0.000 
#
# Total GULP energy -190153.621582 kJ/mol
# GULP energy per Si atom -5592.753576 kJ/mol
# Density = 2.420181 g / cm^3
# Si number density = 24.257021 Si / 1000 Ang^3
#
#
#
# Elastic Constant Matrix: (Units=GPa)
#
#
# Indices 1 2 3 4 5 6 
#
# 1 128.9239 65.3139 32.7421 0.0000 0.0000 0.0000
# 2 65.3139 156.9334 46.0084 0.0000 0.0000 0.0000
# 3 32.7421 46.0084 99.5411 0.0000 0.0000 0.0000
# 4 0.0000 0.0000 0.0000 58.4832 0.0000 0.0000
# 5 0.0000 0.0000 0.0000 0.0000 -102.9365 0.0000
# 6 0.0000 0.0000 0.0000 0.0000 0.0000 49.7639
#
#
#
# Elastic Compliance Matrix: (Units=1/GPa)
#
#
# Indices 1 2 3 4 5 6 
#
# 1 0.010041 -0.003714 -0.001586 0.000000 0.000000 0.000000
# 2 -0.003714 0.008745 -0.002820 0.000000 0.000000 0.000000
# 3 -0.001586 -0.002820 0.011871 0.000000 0.000000 0.000000
# 4 0.000000 0.000000 0.000000 0.017099 0.000000 0.000000
# 5 0.000000 0.000000 0.000000 0.000000 -0.009715 0.000000
# 6 0.000000 0.000000 0.000000 0.000000 0.000000 0.020095
#
#
# Mechanical properties :
#
#
# Convention : Reuss Voigt Hill
#
# Bulk Modulus (GPa) = 69.36584 74.83636 72.10110
# Shear Modulus (GPa) = 63.14589 17.15106 40.14848
#
# Velocity S-wave (km/s) = 5.10769 2.66194 4.07274
# Velocity P-wave (km/s) = 7.96511 6.35345 7.20449
#
# Compressibility (1/GPa) = 0.01441632
#
# Stress axis : x y z
#
# Youngs Moduli (GPa) = 99.59355 114.35640 84.23646
#
# Poissons Ratio (x) = 0.42470 0.13361
# Poissons Ratio (y) = 0.36988 0.23756
# Poissons Ratio (z) = 0.15797 0.32251
#
# Static dielectric constant tensor:
#      x y z
#    x 1.985510 0.000000 0.000000 
#    y 0.000000 1.969420 0.000000 
#    z 0.000000 0.000000 1.882870 
# 
# From -- ./inp_files/35081.got.cif
#   From: 2010.05.17/outbox.cif.g08.bks.cpg/sg68_18_cif.got.tgz:35081.got - 2010.06.03 18:57:09.
