data_PCOD9510962
_publ_section_title
;
Structure prediction by ZEFSAII (Michael W. Deem and Ramdas Pophale) SiO2 
 PCOD9510962
Probable space group: C C C A
;
_chemical_formula_sum "Si O2"
_cell_formula_units_Z 46
_cell_length_a 9.000000
_cell_length_b 21.000000
_cell_length_c 24.000000
_cell_angle_alpha 90.000000
_cell_angle_beta 90.000000
_cell_angle_gamma 90.000000
_cell_volume 4536.000000
_symmetry_space_group_name_H-M "C C C A"
_symmetry_group_IT_number 68
_space_group.IT_coordinate_system_code '2'
_symmetry_cell_setting 'orthorhombic'
loop_
_space_group_symop_operation_xyz
x,y,z
-x,1/2-y,z
x,1/2-y,1/2-z
-x,y,1/2-z
-x,-y,-z
x,1/2+y,-z
-x,1/2+y,1/2+z
x,-y,1/2+z
1/2+x,1/2+y,z
1/2-x,-y,z
1/2+x,-y,1/2-z
1/2-x,1/2+y,1/2-z
1/2-x,1/2-y,-z
1/2+x,y,-z
1/2-x,y,1/2+z
1/2+x,1/2-y,1/2+z
loop_
_atom_site_type_symbol
_atom_site_label
_atom_site_fract_x
_atom_site_fract_y
_atom_site_fract_z
Si Si1 0.736576 0.313680 0.898844
Si Si2 0.497065 0.826236 0.189182
Si Si3 0.669609 0.184805 0.348050
Si Si4 0.816373 0.568500 0.073992
Si Si5 0.091564 0.113479 0.981097
Si Si6 0.000000 0.250000 0.479699
Si Si7 0.000000 0.250000 0.750000
O O1 0.638038 0.339927 0.848284
O O2 0.836721 0.254954 0.876910
O O3 0.798751 0.375447 0.929568
O O4 0.632561 0.274216 0.941037
O O5 0.500000 0.750000 0.195121
O O6 0.500000 0.856192 0.250000
O O7 0.340901 0.835810 0.160011
O O8 0.620832 0.122508 0.382800
O O9 0.597261 0.202757 0.288800
O O10 0.750000 0.500000 0.093868
O O11 0.958283 0.565630 0.032412
O O12 0.683280 0.597470 0.036468
O O13 0.036402 0.186645 0.986881
#
# Coordination Sequence:
#
# PCOD9510962 Si02
#       7
#    16  16  16  16  16   8   4
#     4  11  18  34  60  92 126 157 203 270 337 386
#     4   9  17  31  56  85 118 153 192 253 328 388
#     4  11  21  38  60  93 128 154 203 268 333 384
#     4  12  26  42  60  86 131 181 215 256 307 390
#     4  12  23  38  60  92 127 170 219 261 316 392
#     4  12  18  35  59  92 126 160 206 274 338 380
#     4  12  24  38  66 104 120 150 204 288 350 384
#
# _framework density 10.141093
#
# number of rings (size 3 to 8) (size 9 to 14) (size 15 to 20)
#    0.000    0.870    6.087    5.217    0.000    0.000 
#    0.000    0.000    1.913    0.000    0.000    0.000 
#    0.000    0.000    0.000    0.000    0.000    0.000 
#
# Total GULP energy -256190.307231 kJ/mol
# GULP energy per Si atom -5569.354505 kJ/mol
# Density = 1.011801 g / cm^3
# Si number density = 10.141093 Si / 1000 Ang^3
#
#
#
# Elastic Constant Matrix: (Units=GPa)
#
#
# Indices 1 2 3 4 5 6 
#
# 1 57.9829 11.3918 25.2808 0.0000 0.0000 0.0000
# 2 11.3918 67.8582 29.9929 0.0000 0.0000 0.0000
# 3 25.2808 29.9929 92.5631 0.0000 0.0000 0.0000
# 4 0.0000 0.0000 0.0000 27.3777 0.0000 0.0000
# 5 0.0000 0.0000 0.0000 0.0000 122.6749 0.0000
# 6 0.0000 0.0000 0.0000 0.0000 0.0000 17.9615
#
#
#
# Elastic Compliance Matrix: (Units=1/GPa)
#
#
# Indices 1 2 3 4 5 6 
#
# 1 0.019646 -0.001081 -0.005015 0.000000 0.000000 0.000000
# 2 -0.001081 0.017259 -0.005297 0.000000 0.000000 0.000000
# 3 -0.005015 -0.005297 0.013890 0.000000 0.000000 0.000000
# 4 0.000000 0.000000 0.000000 0.036526 0.000000 0.000000
# 5 0.000000 0.000000 0.000000 0.000000 0.008152 0.000000
# 6 0.000000 0.000000 0.000000 0.000000 0.000000 0.055675
#
#
# Mechanical properties :
#
#
# Convention : Reuss Voigt Hill
#
# Bulk Modulus (GPa) = 35.70514 39.08169 37.39341
# Shear Modulus (GPa) = 27.28213 43.71873 35.50043
#
# Velocity S-wave (km/s) = 3.67158 4.64780 4.18823
# Velocity P-wave (km/s) = 5.96795 6.93639 6.47031
#
# Compressibility (1/GPa) = 0.02800717
#
# Stress axis : x y z
#
# Youngs Moduli (GPa) = 50.90213 57.93918 71.99620
#
# Poissons Ratio (x) = 0.06265 0.36107
# Poissons Ratio (y) = 0.05504 0.38138
# Poissons Ratio (z) = 0.25528 0.30691
#
# Static dielectric constant tensor:
#      x y z
#    x 2.031190 0.000000 0.000000 
#    y 0.000000 1.660690 0.000000 
#    z 0.000000 0.000000 1.905270 
# 
# From -- ./inp_files/43187.got.cif
#   From: 2010.05.17/outbox.ucp.g08.bks.cvg/sg68_22_cif.got.tgz:43187.got - 2010.06.11 16:49:25.
