data_PCOD9510919
_publ_section_title
;
Structure prediction by ZEFSAII (Michael W. Deem and Ramdas Pophale) SiO2 
 PCOD9510919
Probable space group: C C C A
;
_chemical_formula_sum "Si O2"
_cell_formula_units_Z 56
_cell_length_a 24.000000
_cell_length_b 24.000000
_cell_length_c 12.000000
_cell_angle_alpha 90.000000
_cell_angle_beta 90.000000
_cell_angle_gamma 90.000000
_cell_volume 6912.000000
_symmetry_space_group_name_H-M "C C C A"
_symmetry_group_IT_number 68
_space_group.IT_coordinate_system_code '2'
_symmetry_cell_setting 'orthorhombic'
loop_
_space_group_symop_operation_xyz
x,y,z
-x,1/2-y,z
x,1/2-y,1/2-z
-x,y,1/2-z
-x,-y,-z
x,1/2+y,-z
-x,1/2+y,1/2+z
x,-y,1/2+z
1/2+x,1/2+y,z
1/2-x,-y,z
1/2+x,-y,1/2-z
1/2-x,1/2+y,1/2-z
1/2-x,1/2-y,-z
1/2+x,y,-z
1/2-x,y,1/2+z
1/2+x,1/2-y,1/2+z
loop_
_atom_site_type_symbol
_atom_site_label
_atom_site_fract_x
_atom_site_fract_y
_atom_site_fract_z
Si Si1 0.827313 0.559209 0.866952
Si Si2 0.377503 0.063863 0.620284
Si Si3 0.702533 0.068439 0.084218
Si Si4 0.109674 0.370631 0.718410
Si Si5 0.500000 0.250000 0.445058
Si Si6 0.416962 0.561218 0.940607
Si Si7 0.028126 0.373684 0.508998
Si Si8 0.410447 0.750000 0.750000
O O1 0.855487 0.569596 0.746584
O O2 0.766774 0.584689 0.897171
O O3 0.811599 0.493894 0.874324
O O4 0.871997 0.572506 0.962587
O O5 0.323008 0.069973 0.540563
O O6 0.424758 0.107524 0.579595
O O7 0.406179 0.003375 0.594838
O O8 0.663278 0.105373 0.159632
O O9 0.094541 0.402872 0.830321
O O10 0.058611 0.374966 0.630212
O O11 0.121918 0.306683 0.741779
O O12 0.492400 0.190489 0.507093
O O13 0.551571 0.244196 0.360017
O O14 0.477293 0.581983 0.985031
#
# Coordination Sequence:
#
# PCOD9510919 Si02
#       8
#    16  16  16  16   8  16  16   8
#     4  10  21  33  53  78 106 146 179 210 270 330
#     4  10  21  35  50  79 114 143 174 216 276 328
#     4   9  20  34  53  75 105 141 180 223 258 316
#     4  10  18  33  55  82 105 135 178 226 271 303
#     4   9  16  30  52  79 100 140 181 218 263 304
#     4  11  20  33  52  81 110 143 174 220 275 322
#     4  10  20  34  53  80 112 139 175 225 265 320
#     4   9  16  28  54  80 102 130 180 233 262 302
#
# _framework density 8.1018519999999992
#
# number of rings (size 3 to 8) (size 9 to 14) (size 15 to 20)
#    0.000    2.143    2.857    0.857    2.000    1.714 
#    2.571    0.000    0.000    4.286    0.000    0.000 
#    0.000    0.000    0.000    0.000    0.000    0.000 
#
# Total GULP energy -311798.619382 kJ/mol
# GULP energy per Si atom -5567.832489 kJ/mol
# Density = 0.808341 g / cm^3
# Si number density = 8.101852 Si / 1000 Ang^3
#
#
#
# Elastic Constant Matrix: (Units=GPa)
#
#
# Indices 1 2 3 4 5 6 
#
# 1 107.0899 46.0004 48.4309 0.0000 0.0000 0.0000
# 2 46.0004 46.4056 11.4241 0.0000 0.0000 0.0000
# 3 48.4309 11.4241 87.1404 0.0000 0.0000 0.0000
# 4 0.0000 0.0000 0.0000 7.0874 0.0000 0.0000
# 5 0.0000 0.0000 0.0000 0.0000 14.1830 0.0000
# 6 0.0000 0.0000 0.0000 0.0000 0.0000 16.3888
#
#
#
# Elastic Compliance Matrix: (Units=1/GPa)
#
#
# Indices 1 2 3 4 5 6 
#
# 1 0.022142 -0.019550 -0.009743 0.000000 0.000000 0.000000
# 2 -0.019550 0.039529 0.005683 0.000000 0.000000 0.000000
# 3 -0.009743 0.005683 0.016146 0.000000 0.000000 0.000000
# 4 0.000000 0.000000 0.000000 0.141095 0.000000 0.000000
# 5 0.000000 0.000000 0.000000 0.000000 0.070507 0.000000
# 6 0.000000 0.000000 0.000000 0.000000 0.000000 0.061017
#
#
# Mechanical properties :
#
#
# Convention : Reuss Voigt Hill
#
# Bulk Modulus (GPa) = 32.68271 50.26072 41.47171
# Shear Modulus (GPa) = 12.25926 16.51722 14.38824
#
# Velocity S-wave (km/s) = 2.75357 3.19619 2.98310
# Velocity P-wave (km/s) = 5.50665 6.68627 6.12492
#
# Compressibility (1/GPa) = 0.03059722
#
# Stress axis : x y z
#
# Youngs Moduli (GPa) = 45.16337 25.29770 61.93629
#
# Poissons Ratio (x) = 0.49457 0.60344
# Poissons Ratio (y) = 0.88294 -0.35200
# Poissons Ratio (z) = 0.44003 -0.14377
#
# Static dielectric constant tensor:
#      x y z
#    x 1.555800 0.000000 0.000000 
#    y 0.000000 1.558390 0.000000 
#    z 0.000000 0.000000 1.535420 
# 
# From -- ./inp_files/16666.got.cif
#   From: 2010.05.17/outbox.ucp.g08.bks.cvg/sg68_9_cif.got.tgz:16666.got - 2010.06.11 16:49:25.
