data_PCOD9510329
_publ_section_title
;
Structure prediction by ZEFSAII (Michael W. Deem and Ramdas Pophale) SiO2 
 PCOD9510329
Probable space group: C C C A
;
_chemical_formula_sum "Si O2"
_cell_formula_units_Z 112
_cell_length_a 14.280184
_cell_length_b 29.741509
_cell_length_c 14.937270
_cell_angle_alpha 90.000000
_cell_angle_beta 90.000000
_cell_angle_gamma 90.000000
_cell_volume 6344.070991
_symmetry_space_group_name_H-M "C C C A"
_symmetry_group_IT_number 68
_space_group.IT_coordinate_system_code '2'
_symmetry_cell_setting 'orthorhombic'
loop_
_space_group_symop_operation_xyz
x,y,z
-x,1/2-y,z
x,1/2-y,1/2-z
-x,y,1/2-z
-x,-y,-z
x,1/2+y,-z
-x,1/2+y,1/2+z
x,-y,1/2+z
1/2+x,1/2+y,z
1/2-x,-y,z
1/2+x,-y,1/2-z
1/2-x,1/2+y,1/2-z
1/2-x,1/2-y,-z
1/2+x,y,-z
1/2-x,y,1/2+z
1/2+x,1/2-y,1/2+z
loop_
_atom_site_type_symbol
_atom_site_label
_atom_site_fract_x
_atom_site_fract_y
_atom_site_fract_z
Si Si1 0.822045 0.894003 0.396031
Si Si2 0.597626 0.027826 0.698577
Si Si3 0.703871 0.065221 0.208555
Si Si4 0.469984 0.552352 0.008196
Si Si5 0.345614 0.887832 0.971703
Si Si6 0.887731 0.199284 0.848244
Si Si7 0.612959 0.799793 0.639894
O O1 0.828646 0.904987 0.291097
O O2 0.889492 0.930770 0.441445
O O3 0.720891 0.894437 0.442755
O O4 0.855847 0.842836 0.406292
O O5 0.500000 0.029137 0.750000
O O6 0.691686 0.050253 0.736707
O O7 0.575113 0.052784 0.606195
O O8 0.633001 0.976361 0.692696
O O9 0.704536 0.089289 0.113478
O O10 0.500000 0.500000 0.000000
O O11 0.557799 0.585535 0.991999
O O12 0.360578 0.837140 0.933834
O O13 0.856614 0.192972 0.744027
O O14 0.856781 0.248631 0.881161
O O15 0.000289 0.199302 0.852315
#
# Coordination Sequence:
#
# PCOD9510329 Si02
#       7
#    16  16  16  16  16  16  16
#     4  12  24  38  62  89 116 161 208 246 303 369
#     4  11  23  43  58  81 120 163 200 252 304 350
#     4  11  24  40  59  87 118 157 208 248 299 364
#     4  12  24  38  60  86 118 157 202 251 298 353
#     4  12  23  38  62  89 121 156 206 253 298 367
#     4   9  18  35  61  91 115 153 197 240 317 367
#     4   9  18  35  62  89 120 148 191 257 304 366
#
# _framework density 17.65428
#
# number of rings (size 3 to 8) (size 9 to 14) (size 15 to 20)
#    0.000    1.143    5.714    2.571    0.000    2.286 
#    0.000    0.000    0.000    0.000    0.000    0.000 
#    0.000    4.571    0.000    0.000    0.000    0.000 
#
# Total GULP energy -311917.562728 kJ/mol
# GULP energy per Si atom -5569.956477 kJ/mol
# Density = 1.761410 g / cm^3
# Si number density = 17.654280 Si / 1000 Ang^3
#
#
#
# Elastic Constant Matrix: (Units=GPa)
#
#
# Indices 1 2 3 4 5 6 
#
# 1 62.4999 19.7160 4.1384 0.0000 0.0000 0.0000
# 2 19.7160 115.2232 20.2009 0.0000 0.0000 0.0000
# 3 4.1384 20.2009 44.9714 0.0000 0.0000 0.0000
# 4 0.0000 0.0000 0.0000 26.9094 0.0000 0.0000
# 5 0.0000 0.0000 0.0000 0.0000 26.9090 0.0000
# 6 0.0000 0.0000 0.0000 0.0000 0.0000 13.9043
#
#
#
# Elastic Compliance Matrix: (Units=1/GPa)
#
#
# Indices 1 2 3 4 5 6 
#
# 1 0.016916 -0.002846 -0.000278 0.000000 0.000000 0.000000
# 2 -0.002846 0.009899 -0.004185 0.000000 0.000000 0.000000
# 3 -0.000278 -0.004185 0.024142 0.000000 0.000000 0.000000
# 4 0.000000 0.000000 0.000000 0.037162 0.000000 0.000000
# 5 0.000000 0.000000 0.000000 0.000000 0.037162 0.000000
# 6 0.000000 0.000000 0.000000 0.000000 0.000000 0.071920
#
#
# Mechanical properties :
#
#
# Convention : Reuss Voigt Hill
#
# Bulk Modulus (GPa) = 27.51839 34.53391 31.02615
# Shear Modulus (GPa) = 22.32812 25.45381 23.89097
#
# Velocity S-wave (km/s) = 3.56018 3.80121 3.68267
# Velocity P-wave (km/s) = 5.70272 6.23453 5.97454
#
# Compressibility (1/GPa) = 0.03633934
#
# Stress axis : x y z
#
# Youngs Moduli (GPa) = 59.11510 101.01581 41.42188
#
# Poissons Ratio (x) = 0.28746 0.01153
# Poissons Ratio (y) = 0.16823 0.17335
# Poissons Ratio (z) = 0.01646 0.42274
#
# Static dielectric constant tensor:
#      x y z
#    x 1.577880 0.000000 0.000000 
#    y 0.000000 1.648350 0.000000 
#    z 0.000000 0.000000 1.628720 
# 
# From -- ./inp_files/21270.got.cif
#   From: 2010.05.17/outbox.cif.g08.bks.cpg/sg68_11_cif.got.tgz:21270.got - 2010.06.03 18:57:09.
