data_PCOD9510402
_publ_section_title
;
Structure prediction by ZEFSAII (Michael W. Deem and Ramdas Pophale) SiO2 
 PCOD9510402
Probable space group: C C C A
;
_chemical_formula_sum "Si O2"
_cell_formula_units_Z 80
_cell_length_a 13.835738
_cell_length_b 28.519023
_cell_length_c 9.906754
_cell_angle_alpha 90.000000
_cell_angle_beta 90.000000
_cell_angle_gamma 90.000000
_cell_volume 3909.024134
_symmetry_space_group_name_H-M "C C C A"
_symmetry_group_IT_number 68
_space_group.IT_coordinate_system_code '2'
_symmetry_cell_setting 'orthorhombic'
loop_
_space_group_symop_operation_xyz
x,y,z
-x,1/2-y,z
x,1/2-y,1/2-z
-x,y,1/2-z
-x,-y,-z
x,1/2+y,-z
-x,1/2+y,1/2+z
x,-y,1/2+z
1/2+x,1/2+y,z
1/2-x,-y,z
1/2+x,-y,1/2-z
1/2-x,1/2+y,1/2-z
1/2-x,1/2-y,-z
1/2+x,y,-z
1/2-x,y,1/2+z
1/2+x,1/2-y,1/2+z
loop_
_atom_site_type_symbol
_atom_site_label
_atom_site_fract_x
_atom_site_fract_y
_atom_site_fract_z
Si Si1 0.304438 0.631323 0.683893
Si Si2 0.508419 0.947603 0.112372
Si Si3 0.649634 0.528252 0.917925
Si Si4 0.971325 0.697052 0.407146
Si Si5 0.128914 0.871695 0.010908
O O1 0.339605 0.578203 0.654037
O O2 0.367281 0.671154 0.604002
O O3 0.199822 0.633190 0.615399
O O4 0.315760 0.635903 0.846092
O O5 0.500000 0.918730 0.250000
O O6 0.571091 0.993553 0.146246
O O7 0.402355 0.959155 0.058812
O O8 0.573133 0.921217 0.000861
O O9 0.750000 0.500000 0.928652
O O10 0.000000 0.750000 0.447264
O O11 0.000000 0.694191 0.250000
O O12 0.042154 0.664851 0.492180
#
# Coordination Sequence:
#
# PCOD9510402 Si02
#       5
#    16  16  16  16  16
#     4  11  24  40  65  94 127 170 213 261 320 382
#     4  11  26  38  62  92 127 172 219 260 312 380
#     4  11  24  40  60  89 131 172 213 260 311 374
#     4   9  20  42  68  91 122 166 214 271 331 384
#     4  11  24  42  65  94 131 166 213 266 318 387
#
# _framework density 20.465465999999999
#
# number of rings (size 3 to 8) (size 9 to 14) (size 15 to 20)
#    0.000    1.400    4.000    0.000    8.400    1.600 
#    0.000    0.000    0.000    4.200    0.000    0.000 
#    0.000    0.000    0.000    0.000    0.000    0.000 
#
# Total GULP energy -222804.317387 kJ/mol
# GULP energy per Si atom -5570.107935 kJ/mol
# Density = 2.041889 g / cm^3
# Si number density = 20.465466 Si / 1000 Ang^3
#
#
#
# Elastic Constant Matrix: (Units=GPa)
#
#
# Indices 1 2 3 4 5 6 
#
# 1 44.7092 11.6583 7.0840 0.0000 0.0000 0.0000
# 2 11.6583 73.5042 -10.2219 0.0000 0.0000 0.0000
# 3 7.0840 -10.2219 68.2300 0.0000 0.0000 0.0000
# 4 0.0000 0.0000 0.0000 -30.1084 0.0000 0.0000
# 5 0.0000 0.0000 0.0000 0.0000 -4.2395 0.0000
# 6 0.0000 0.0000 0.0000 0.0000 0.0000 17.0063
#
#
#
# Elastic Compliance Matrix: (Units=1/GPa)
#
#
# Indices 1 2 3 4 5 6 
#
# 1 0.023966 -0.004235 -0.003123 0.000000 0.000000 0.000000
# 2 -0.004235 0.014643 0.002633 0.000000 0.000000 0.000000
# 3 -0.003123 0.002633 0.015375 0.000000 0.000000 0.000000
# 4 0.000000 0.000000 0.000000 -0.033213 0.000000 0.000000
# 5 0.000000 0.000000 0.000000 0.000000 -0.235877 0.000000
# 6 0.000000 0.000000 0.000000 0.000000 0.000000 0.058802
#
#
# Mechanical properties :
#
#
# Convention : Reuss Voigt Hill
#
# Bulk Modulus (GPa) = 22.45472 22.60935 22.53204
# Shear Modulus (GPa) = -37.87584 8.39320 -14.74132
#
# Velocity S-wave (km/s) = -4.30667 2.02733 -2.68676
# Velocity P-wave (km/s) = 3.70594 4.06837 1.18693
#
# Compressibility (1/GPa) = 0.04453406
#
# Stress axis : x y z
#
# Youngs Moduli (GPa) = 41.72576 68.29354 65.04035
#
# Poissons Ratio (x) = 0.28926 0.20311
# Poissons Ratio (y) = 0.17673 -0.17128
# Poissons Ratio (z) = 0.13030 -0.17985
#
# Static dielectric constant tensor:
#      x y z
#    x 1.734740 0.000000 0.000000 
#    y 0.000000 1.843890 0.000000 
#    z 0.000000 0.000000 1.779770 
# 
# From -- ./inp_files/13405.got.cif
#   From: 2010.05.17/outbox.cif.g08.bks.cpg/sg68_7_cif.got.tgz:13405.got - 2010.06.03 18:57:09.
