data_PCOD9510712
_publ_section_title
;
Structure prediction by ZEFSAII (Michael W. Deem and Ramdas Pophale) SiO2 
 PCOD9510712
Probable space group: C C C A
;
_chemical_formula_sum "Si O2"
_cell_formula_units_Z 80
_cell_length_a 19.907396
_cell_length_b 13.537520
_cell_length_c 13.020830
_cell_angle_alpha 90.000000
_cell_angle_beta 90.000000
_cell_angle_gamma 90.000000
_cell_volume 3509.071647
_symmetry_space_group_name_H-M "C C C A"
_symmetry_group_IT_number 68
_space_group.IT_coordinate_system_code '2'
_symmetry_cell_setting 'orthorhombic'
loop_
_space_group_symop_operation_xyz
x,y,z
-x,1/2-y,z
x,1/2-y,1/2-z
-x,y,1/2-z
-x,-y,-z
x,1/2+y,-z
-x,1/2+y,1/2+z
x,-y,1/2+z
1/2+x,1/2+y,z
1/2-x,-y,z
1/2+x,-y,1/2-z
1/2-x,1/2+y,1/2-z
1/2-x,1/2-y,-z
1/2+x,y,-z
1/2-x,y,1/2+z
1/2+x,1/2-y,1/2+z
loop_
_atom_site_type_symbol
_atom_site_label
_atom_site_fract_x
_atom_site_fract_y
_atom_site_fract_z
Si Si1 0.250000 0.500000 0.948447
Si Si2 0.107806 0.799574 0.107989
Si Si3 0.614127 0.646017 0.375102
Si Si4 0.500000 0.250000 0.750000
Si Si5 0.259709 0.831386 0.879753
Si Si6 0.656763 0.966840 0.766116
Si Si7 0.500000 0.750000 0.750000
O O1 0.312045 0.488401 0.870329
O O2 0.251222 0.405086 0.022969
O O3 0.181711 0.748997 0.107969
O O4 0.103189 0.892035 0.185595
O O5 0.055597 0.723565 0.158835
O O6 0.097364 0.842845 0.995040
O O7 0.549819 0.685856 0.317621
O O8 0.684357 0.706145 0.360394
O O9 0.631376 0.541200 0.321226
O O10 0.285962 0.899492 0.786938
#
# Coordination Sequence:
#
# PCOD9510712 Si02
#       7
#     8  16  16   4  16  16   4
#     4  12  22  40  74 122 150 188 244 330 392 450
#     4  12  27  47  78 112 142 211 252 322 391 455
#     4  12  27  50  72 108 156 191 262 311 385 473
#     4  12  34  48  68 110 154 222 234 320 398 464
#     4  12  23  44  79 116 145 191 260 321 385 455
#     4  12  23  45  74 115 148 190 250 322 390 443
#     4  12  26  48  72 102 164 188 274 300 378 496
#
# _framework density 22.798054
#
# number of rings (size 3 to 8) (size 9 to 14) (size 15 to 20)
#    0.000    0.000    8.000    1.200    5.600    0.800 
#    0.000    2.000    0.000    0.000    0.000    0.000 
#    0.000    0.000    0.000    0.000    0.000    0.000 
#
# Total GULP energy -222944.240182 kJ/mol
# GULP energy per Si atom -5573.606005 kJ/mol
# Density = 2.274616 g / cm^3
# Si number density = 22.798054 Si / 1000 Ang^3
#
#
#
# Elastic Constant Matrix: (Units=GPa)
#
#
# Indices 1 2 3 4 5 6 
#
# 1 129.5194 34.2713 67.1747 0.0000 0.0000 0.0000
# 2 34.2713 64.7529 61.5781 0.0000 0.0000 0.0000
# 3 67.1747 61.5781 213.4291 0.0000 0.0000 0.0000
# 4 0.0000 0.0000 0.0000 44.1564 0.0000 0.0000
# 5 0.0000 0.0000 0.0000 0.0000 1.0880 0.0000
# 6 0.0000 0.0000 0.0000 0.0000 0.0000 -7.1242
#
#
#
# Elastic Compliance Matrix: (Units=1/GPa)
#
#
# Indices 1 2 3 4 5 6 
#
# 1 0.009647 -0.003057 -0.002154 0.000000 0.000000 0.000000
# 2 -0.003057 0.022252 -0.005458 0.000000 0.000000 0.000000
# 3 -0.002154 -0.005458 0.006938 0.000000 0.000000 0.000000
# 4 0.000000 0.000000 0.000000 0.022647 0.000000 0.000000
# 5 0.000000 0.000000 0.000000 0.000000 0.919120 0.000000
# 6 0.000000 0.000000 0.000000 0.000000 0.000000 -0.140367
#
#
# Mechanical properties :
#
#
# Convention : Reuss Voigt Hill
#
# Bulk Modulus (GPa) = 57.14840 81.52772 69.33806
# Shear Modulus (GPa) = 5.76430 23.93586 14.85008
#
# Velocity S-wave (km/s) = 1.59183 3.24374 2.55497
# Velocity P-wave (km/s) = 5.33856 7.06170 6.25970
#
# Compressibility (1/GPa) = 0.01749830
#
# Stress axis : x y z
#
# Youngs Moduli (GPa) = 103.65815 44.94071 144.13187
#
# Poissons Ratio (x) = 0.13739 0.31050
# Poissons Ratio (y) = 0.31690 0.78664
# Poissons Ratio (z) = 0.22331 0.24528
#
# Static dielectric constant tensor:
#      x y z
#    x 1.872310 0.000000 0.000000 
#    y 0.000000 1.977130 0.000000 
#    z 0.000000 0.000000 1.850230 
# 
# From -- ./inp_files/16288.got.cif
#   From: 2010.05.17/outbox.cif.g08.bks.cpg/sg68_9_cif.got.tgz:16288.got - 2010.06.03 18:57:09.
