data_PCOD9510045
_publ_section_title
;
Structure prediction by ZEFSAII (Michael W. Deem and Ramdas Pophale) SiO2 
 PCOD9510045
Probable space group: C C C A
;
_chemical_formula_sum "Si O2"
_cell_formula_units_Z 80
_cell_length_a 15.784540
_cell_length_b 11.012809
_cell_length_c 22.372180
_cell_angle_alpha 90.000000
_cell_angle_beta 90.000000
_cell_angle_gamma 90.000000
_cell_volume 3889.003572
_symmetry_space_group_name_H-M "C C C A"
_symmetry_group_IT_number 68
_space_group.IT_coordinate_system_code '2'
_symmetry_cell_setting 'orthorhombic'
loop_
_space_group_symop_operation_xyz
x,y,z
-x,1/2-y,z
x,1/2-y,1/2-z
-x,y,1/2-z
-x,-y,-z
x,1/2+y,-z
-x,1/2+y,1/2+z
x,-y,1/2+z
1/2+x,1/2+y,z
1/2-x,-y,z
1/2+x,-y,1/2-z
1/2-x,1/2+y,1/2-z
1/2-x,1/2-y,-z
1/2+x,y,-z
1/2-x,y,1/2+z
1/2+x,1/2-y,1/2+z
loop_
_atom_site_type_symbol
_atom_site_label
_atom_site_fract_x
_atom_site_fract_y
_atom_site_fract_z
Si Si1 0.148406 0.250000 0.750000
Si Si2 0.750000 0.500000 0.465344
Si Si3 0.472482 0.002037 0.882028
Si Si4 0.000000 0.054721 0.750000
Si Si5 0.690541 0.321561 0.377204
Si Si6 0.000000 0.250000 0.453557
Si Si7 0.383141 0.371341 0.457808
O O1 0.082159 0.359706 0.761835
O O2 0.201786 0.291469 0.692409
O O3 0.756972 0.387662 0.419495
O O4 0.668729 0.524162 0.507522
O O5 0.483345 0.132297 0.913034
O O6 0.489330 0.016209 0.811526
O O7 0.388482 0.916576 0.882527
O O8 0.539430 0.924386 0.920255
O O9 0.674377 0.195261 0.409743
O O10 0.919867 0.266293 0.498450
#
# Coordination Sequence:
#
# PCOD9510045 Si02
#       7
#     8   8  16   8  16   8  16
#     4   9  18  36  66  88 112 155 214 252 292 363
#     4  12  26  38  60  94 138 162 198 260 324 380
#     4  11  21  38  65  92 119 159 213 257 309 361
#     4   9  18  35  64  94 112 149 211 266 294 348
#     4  11  21  40  64  92 120 165 208 257 308 372
#     4  12  22  35  62  89 126 160 198 258 316 366
#     4  12  22  41  62  94 122 164 210 255 311 373
#
# _framework density 20.570822
#
# number of rings (size 3 to 8) (size 9 to 14) (size 15 to 20)
#    0.000    1.000    6.000    2.400    0.000    0.400 
#    0.000    1.000    8.800    0.000    0.000    0.000 
#    0.000    0.000    0.000    0.000    0.000    0.000 
#
# Total GULP energy -222743.970181 kJ/mol
# GULP energy per Si atom -5568.599255 kJ/mol
# Density = 2.052400 g / cm^3
# Si number density = 20.570822 Si / 1000 Ang^3
#
#
#
# Elastic Constant Matrix: (Units=GPa)
#
#
# Indices 1 2 3 4 5 6 
#
# 1 31.0555 -7.2856 22.0087 0.0000 0.0000 0.0000
# 2 -7.2856 69.3759 31.7057 0.0000 0.0000 0.0000
# 3 22.0087 31.7057 148.4103 0.0000 0.0000 0.0000
# 4 0.0000 0.0000 0.0000 24.0411 0.0000 0.0000
# 5 0.0000 0.0000 0.0000 0.0000 -0.7079 0.0000
# 6 0.0000 0.0000 0.0000 0.0000 0.0000 12.1091
#
#
#
# Elastic Compliance Matrix: (Units=1/GPa)
#
#
# Indices 1 2 3 4 5 6 
#
# 1 0.039221 0.007510 -0.007421 0.000000 0.000000 0.000000
# 2 0.007510 0.017412 -0.004834 0.000000 0.000000 0.000000
# 3 -0.007421 -0.004834 0.008871 0.000000 0.000000 0.000000
# 4 0.000000 0.000000 0.000000 0.041596 0.000000 0.000000
# 5 0.000000 0.000000 0.000000 0.000000 -1.412592 0.000000
# 6 0.000000 0.000000 0.000000 0.000000 0.000000 0.082582
#
#
# Mechanical properties :
#
#
# Convention : Reuss Voigt Hill
#
# Bulk Modulus (GPa) = 17.85192 37.96658 27.90925
# Shear Modulus (GPa) = -4.18498 20.58265 8.19883
#
# Velocity S-wave (km/s) = -1.42788 3.16662 1.99858
# Velocity P-wave (km/s) = 2.44513 5.64505 4.35001
#
# Compressibility (1/GPa) = 0.05601640
#
# Stress axis : x y z
#
# Youngs Moduli (GPa) = 25.49625 57.43183 112.72450
#
# Poissons Ratio (x) = -0.43133 0.83651
# Poissons Ratio (y) = -0.19149 0.54486
# Poissons Ratio (z) = 0.18920 0.27760
#
# Static dielectric constant tensor:
#      x y z
#    x 1.774860 0.000000 0.000000 
#    y 0.000000 1.675200 0.000000 
#    z 0.000000 0.000000 1.741340 
# 
# From -- ./inp_files/37427.got.cif
#   From: 2010.05.17/outbox.cif.g08.bks.cpg/sg68_19_cif.got.tgz:37427.got - 2010.06.03 18:57:09.
