data_PCOD9510131
_publ_section_title
;
Structure prediction by ZEFSAII (Michael W. Deem and Ramdas Pophale) SiO2 
 PCOD9510131
Probable space group: C C C A
;
_chemical_formula_sum "Si O2"
_cell_formula_units_Z 96
_cell_length_a 20.384057
_cell_length_b 21.671309
_cell_length_c 8.686944
_cell_angle_alpha 90.000000
_cell_angle_beta 90.000000
_cell_angle_gamma 90.000000
_cell_volume 3837.450544
_symmetry_space_group_name_H-M "C C C A"
_symmetry_group_IT_number 68
_space_group.IT_coordinate_system_code '2'
_symmetry_cell_setting 'orthorhombic'
loop_
_space_group_symop_operation_xyz
x,y,z
-x,1/2-y,z
x,1/2-y,1/2-z
-x,y,1/2-z
-x,-y,-z
x,1/2+y,-z
-x,1/2+y,1/2+z
x,-y,1/2+z
1/2+x,1/2+y,z
1/2-x,-y,z
1/2+x,-y,1/2-z
1/2-x,1/2+y,1/2-z
1/2-x,1/2-y,-z
1/2+x,y,-z
1/2-x,y,1/2+z
1/2+x,1/2-y,1/2+z
loop_
_atom_site_type_symbol
_atom_site_label
_atom_site_fract_x
_atom_site_fract_y
_atom_site_fract_z
Si Si1 0.928462 0.720025 0.409497
Si Si2 0.434467 0.102174 0.207882
Si Si3 0.132528 0.004067 0.863164
Si Si4 0.794117 0.941660 0.873741
Si Si5 0.437032 0.618838 0.142002
Si Si6 0.325180 0.809743 0.168820
O O1 0.905674 0.750000 0.250000
O O2 0.936809 0.650723 0.346859
O O3 0.872178 0.717859 0.535891
O O4 0.000000 0.750000 0.452400
O O5 0.500000 0.064581 0.250000
O O6 0.374584 0.056168 0.231573
O O7 0.435412 0.132524 0.040583
O O8 0.189398 0.958352 0.802769
O O9 0.074096 0.955024 0.866104
O O10 0.143632 0.044212 0.015464
O O11 0.780358 0.868302 0.884873
O O12 0.750000 0.000000 0.919597
O O13 0.500000 0.632334 0.250000
O O14 0.377706 0.656513 0.219080
O O15 0.292904 0.750000 0.250000
#
# Coordination Sequence:
#
# PCOD9510131 Si02
#       6
#    16  16  16  16  16  16
#     4  11  22  37  60  97 145 198 231 278 343 432
#     4  12  22  37  61  95 142 186 241 277 349 436
#     4  11  23  42  67  99 133 181 237 304 366 429
#     4  11  24  47  75 100 133 185 246 316 377 424
#     4  11  25  38  62  99 149 196 231 286 357 438
#     4  11  25  42  68 107 146 186 242 292 363 443
#
# _framework density 25.016608000000002
#
# number of rings (size 3 to 8) (size 9 to 14) (size 15 to 20)
#    0.000    0.833    5.000    3.000    4.667    1.333 
#    0.000    0.000    0.000   10.000    0.000    0.000 
#    0.000    0.000    0.000    0.000    0.000    0.000 
#
# Total GULP energy -267406.538187 kJ/mol
# GULP energy per Si atom -5570.969546 kJ/mol
# Density = 2.495967 g / cm^3
# Si number density = 25.016608 Si / 1000 Ang^3
#
#
#
# Elastic Constant Matrix: (Units=GPa)
#
#
# Indices 1 2 3 4 5 6 
#
# 1 14.3555 25.5861 0.4237 0.0000 0.0000 0.0000
# 2 25.5861 178.1736 9.9136 0.0000 0.0000 0.0000
# 3 0.4237 9.9136 66.9968 0.0000 0.0000 0.0000
# 4 0.0000 0.0000 0.0000 42.0098 0.0000 0.0000
# 5 0.0000 0.0000 0.0000 0.0000 13.2668 0.0000
# 6 0.0000 0.0000 0.0000 0.0000 0.0000 39.6014
#
#
#
# Elastic Compliance Matrix: (Units=1/GPa)
#
#
# Indices 1 2 3 4 5 6 
#
# 1 0.093754 -0.013542 0.001411 0.000000 0.000000 0.000000
# 2 -0.013542 0.007615 -0.001041 0.000000 0.000000 0.000000
# 3 0.001411 -0.001041 0.015071 0.000000 0.000000 0.000000
# 4 0.000000 0.000000 0.000000 0.023804 0.000000 0.000000
# 5 0.000000 0.000000 0.000000 0.000000 0.075376 0.000000
# 6 0.000000 0.000000 0.000000 0.000000 0.000000 0.025252
#
#
# Mechanical properties :
#
#
# Convention : Reuss Voigt Hill
#
# Bulk Modulus (GPa) = 11.09928 36.81921 23.95924
# Shear Modulus (GPa) = 16.82097 33.88244 25.35170
#
# Velocity S-wave (km/s) = 2.59587 3.68421 3.18684
# Velocity P-wave (km/s) = 3.66484 5.73129 4.81034
#
# Compressibility (1/GPa) = 0.09009597
#
# Stress axis : x y z
#
# Youngs Moduli (GPa) = 10.66622 131.31871 66.35163
#
# Poissons Ratio (x) = 1.77829 -0.09361
# Poissons Ratio (y) = 0.14444 0.06908
# Poissons Ratio (z) = -0.01505 0.13672
#
# Static dielectric constant tensor:
#      x y z
#    x 2.160050 0.000000 0.000000 
#    y 0.000000 2.064760 0.000000 
#    z 0.000000 0.000000 1.981410 
# 
# From -- ./inp_files/8112.got.cif
#   From: 2010.05.17/outbox.cif.g08.bks.cpg/sg68_5_cif.got.tgz:8112.got - 2010.06.03 18:57:09.
