data_PCOD9510455
_publ_section_title
;
Structure prediction by ZEFSAII (Michael W. Deem and Ramdas Pophale) SiO2 
 PCOD9510455
Probable space group: C C C A
;
_chemical_formula_sum "Si O2"
_cell_formula_units_Z 52
_cell_length_a 14.305825
_cell_length_b 14.486373
_cell_length_c 10.979054
_cell_angle_alpha 90.000000
_cell_angle_beta 90.000000
_cell_angle_gamma 90.000000
_cell_volume 2275.293848
_symmetry_space_group_name_H-M "C C C A"
_symmetry_group_IT_number 68
_space_group.IT_coordinate_system_code '2'
_symmetry_cell_setting 'orthorhombic'
loop_
_space_group_symop_operation_xyz
x,y,z
-x,1/2-y,z
x,1/2-y,1/2-z
-x,y,1/2-z
-x,-y,-z
x,1/2+y,-z
-x,1/2+y,1/2+z
x,-y,1/2+z
1/2+x,1/2+y,z
1/2-x,-y,z
1/2+x,-y,1/2-z
1/2-x,1/2+y,1/2-z
1/2-x,1/2-y,-z
1/2+x,y,-z
1/2-x,y,1/2+z
1/2+x,1/2-y,1/2+z
loop_
_atom_site_type_symbol
_atom_site_label
_atom_site_fract_x
_atom_site_fract_y
_atom_site_fract_z
Si Si1 0.977443 0.104150 0.619749
Si Si2 0.108984 0.403717 0.099904
Si Si3 0.210443 0.696921 0.117581
Si Si4 0.500000 0.750000 0.250000
O O1 0.891678 0.164780 0.573953
O O2 0.000000 0.142856 0.750000
O O3 0.069836 0.103155 0.537963
O O4 0.935028 0.001448 0.638165
O O5 0.218451 0.390322 0.124286
O O6 0.062676 0.318357 0.170394
O O7 0.210181 0.750000 0.250000
O O8 0.250000 0.750000 0.000000
#
# Coordination Sequence:
#
# PCOD9510455 Si02
#       4
#    16  16  16   4
#     4  11  25  46  69 105 142 184 234 299 354 419
#     4  11  24  43  72 100 141 183 233 286 361 422
#     4  12  26  44  70 103 140 188 239 293 351 428
#     4  12  20  44  70 100 132 180 228 282 348 428
#
# _framework density 22.854192000000001
#
# number of rings (size 3 to 8) (size 9 to 14) (size 15 to 20)
#    0.000    0.615    3.077    4.615    0.000    3.077 
#    0.000    6.154    0.000    0.000    0.000    0.000 
#    0.000    0.000    0.000    0.000    0.000    0.000 
#
# Total GULP energy -145274.887728 kJ/mol
# GULP energy per Si atom -5587.495682 kJ/mol
# Density = 2.280217 g / cm^3
# Si number density = 22.854192 Si / 1000 Ang^3
#
#
#
# Elastic Constant Matrix: (Units=GPa)
#
#
# Indices 1 2 3 4 5 6 
#
# 1 66.6596 -7.9181 1.2798 0.0000 0.0000 0.0000
# 2 -7.9181 107.9571 19.6440 0.0000 0.0000 0.0000
# 3 1.2798 19.6440 77.2995 0.0000 0.0000 0.0000
# 4 0.0000 0.0000 0.0000 27.0136 0.0000 0.0000
# 5 0.0000 0.0000 0.0000 0.0000 28.7045 0.0000
# 6 0.0000 0.0000 0.0000 0.0000 0.0000 24.9160
#
#
#
# Elastic Compliance Matrix: (Units=1/GPa)
#
#
# Indices 1 2 3 4 5 6 
#
# 1 0.015156 0.001213 -0.000559 0.000000 0.000000 0.000000
# 2 0.001213 0.009809 -0.002513 0.000000 0.000000 0.000000
# 3 -0.000559 -0.002513 0.013585 0.000000 0.000000 0.000000
# 4 0.000000 0.000000 0.000000 0.037018 0.000000 0.000000
# 5 0.000000 0.000000 0.000000 0.000000 0.034838 0.000000
# 6 0.000000 0.000000 0.000000 0.000000 0.000000 0.040135
#
#
# Mechanical properties :
#
#
# Convention : Reuss Voigt Hill
#
# Bulk Modulus (GPa) = 28.70866 30.88083 29.79475
# Shear Modulus (GPa) = 30.14416 32.05418 31.09917
#
# Velocity S-wave (km/s) = 3.63571 3.74913 3.69286
# Velocity P-wave (km/s) = 5.49668 5.68179 5.59000
#
# Compressibility (1/GPa) = 0.03483269
#
# Stress axis : x y z
#
# Youngs Moduli (GPa) = 65.97840 101.94523 73.61305
#
# Poissons Ratio (x) = -0.12370 0.04117
# Poissons Ratio (y) = -0.08006 0.18498
# Poissons Ratio (z) = 0.03690 0.25618
#
# Static dielectric constant tensor:
#      x y z
#    x 1.942550 0.000000 0.000000 
#    y 0.000000 1.902480 0.000000 
#    z 0.000000 0.000000 1.835730 
# 
# From -- ./inp_files/12512.got.cif
#   From: 2010.05.17/outbox.cif.g08.bks.cpg/sg68_7_cif.got.tgz:12512.got - 2010.06.03 18:57:09.
