data_PCOD9510941
_publ_section_title
;
Structure prediction by ZEFSAII (Michael W. Deem and Ramdas Pophale) SiO2 
 PCOD9510941
Probable space group: C C C A
;
_chemical_formula_sum "Si O2"
_cell_formula_units_Z 58
_cell_length_a 24.000000
_cell_length_b 27.000000
_cell_length_c 9.000000
_cell_angle_alpha 90.000000
_cell_angle_beta 90.000000
_cell_angle_gamma 90.000000
_cell_volume 5832.000000
_symmetry_space_group_name_H-M "C C C A"
_symmetry_group_IT_number 68
_space_group.IT_coordinate_system_code '2'
_symmetry_cell_setting 'orthorhombic'
loop_
_space_group_symop_operation_xyz
x,y,z
-x,1/2-y,z
x,1/2-y,1/2-z
-x,y,1/2-z
-x,-y,-z
x,1/2+y,-z
-x,1/2+y,1/2+z
x,-y,1/2+z
1/2+x,1/2+y,z
1/2-x,-y,z
1/2+x,-y,1/2-z
1/2-x,1/2+y,1/2-z
1/2-x,1/2-y,-z
1/2+x,y,-z
1/2-x,y,1/2+z
1/2+x,1/2-y,1/2+z
loop_
_atom_site_type_symbol
_atom_site_label
_atom_site_fract_x
_atom_site_fract_y
_atom_site_fract_z
Si Si1 0.924261 0.330893 0.919066
Si Si2 0.000000 0.250000 0.750000
Si Si3 0.013755 0.075544 0.072162
Si Si4 0.837070 0.763779 0.905588
Si Si5 0.902808 0.981297 0.485740
Si Si6 0.814452 0.875251 0.199181
Si Si7 0.815898 0.484624 0.781469
Si Si8 0.732529 0.323778 0.034004
O O1 0.878715 0.357824 0.812401
O O2 0.962099 0.288558 0.843723
O O3 0.961050 0.373331 0.002694
O O4 0.880886 0.299937 0.019092
O O5 0.000000 0.078638 0.250000
O O6 0.953996 0.058121 0.000760
O O7 0.061006 0.032689 0.038812
O O8 0.862893 0.750000 0.750000
O O9 0.778884 0.792373 0.876571
O O10 0.816713 0.714650 0.992490
O O11 0.856671 0.974558 0.357869
O O12 0.859228 0.981960 0.623791
O O13 0.810798 0.931099 0.141174
O O14 0.792617 0.867280 0.366274
O O15 0.770423 0.843761 0.100811
O O16 0.750000 0.500000 0.755405
#
# Coordination Sequence:
#
# PCOD9510941 Si02
#       8
#    16   4  16  16  16  16  16  16
#     4  11  26  43  70  98 140 174 249 300 346 424
#     4  12  28  48  66 100 132 188 236 310 356 416
#     4  11  24  48  77 102 136 193 251 297 356 435
#     4  10  20  40  65  96 133 178 225 290 351 412
#     4  11  25  48  74 103 145 188 237 301 360 433
#     4  11  24  42  65 101 134 185 232 278 350 435
#     4  12  27  44  69 107 150 178 227 297 366 429
#     4  10  21  39  66  93 136 185 228 273 344 433
#
# _framework density 9.9451300000000007
#
# number of rings (size 3 to 8) (size 9 to 14) (size 15 to 20)
#    0.000    1.103    4.138    1.241    5.793    1.103 
#    2.483    0.000    0.000    0.000    0.000    0.000 
#    0.000    0.000    0.000    0.000    0.000    0.000 
#
# Total GULP energy -323005.004727 kJ/mol
# GULP energy per Si atom -5569.051806 kJ/mol
# Density = 0.992249 g / cm^3
# Si number density = 9.945130 Si / 1000 Ang^3
#
#
#
# Elastic Constant Matrix: (Units=GPa)
#
#
# Indices 1 2 3 4 5 6 
#
# 1 174.7356 57.4324 50.1942 0.0000 0.0000 0.0000
# 2 57.4324 94.3306 11.1791 0.0000 0.0000 0.0000
# 3 50.1942 11.1791 65.0090 0.0000 0.0000 0.0000
# 4 0.0000 0.0000 0.0000 26.1364 0.0000 0.0000
# 5 0.0000 0.0000 0.0000 0.0000 -8.8665 0.0000
# 6 0.0000 0.0000 0.0000 0.0000 0.0000 50.5554
#
#
#
# Elastic Compliance Matrix: (Units=1/GPa)
#
#
# Indices 1 2 3 4 5 6 
#
# 1 0.009074 -0.004792 -0.006182 0.000000 0.000000 0.000000
# 2 -0.004792 0.013352 0.001404 0.000000 0.000000 0.000000
# 3 -0.006182 0.001404 0.019914 0.000000 0.000000 0.000000
# 4 0.000000 0.000000 0.000000 0.038261 0.000000 0.000000
# 5 0.000000 0.000000 0.000000 0.000000 -0.112784 0.000000
# 6 0.000000 0.000000 0.000000 0.000000 0.000000 0.019780
#
#
# Mechanical properties :
#
#
# Convention : Reuss Voigt Hill
#
# Bulk Modulus (GPa) = 43.10326 63.52072 53.31199
# Shear Modulus (GPa) = 345.53031 27.91636 186.72333
#
# Velocity S-wave (km/s) = 13.19452 3.75042 9.69951
# Velocity P-wave (km/s) = 15.93251 7.12454 12.34107
#
# Compressibility (1/GPa) = 0.02320010
#
# Stress axis : x y z
#
# Youngs Moduli (GPa) = 110.20829 74.89444 50.21542
#
# Poissons Ratio (x) = 0.35888 0.31043
# Poissons Ratio (y) = 0.52810 -0.07049
# Poissons Ratio (z) = 0.68130 -0.10514
#
# Static dielectric constant tensor:
#      x y z
#    x 1.676580 0.000000 0.000000 
#    y 0.000000 1.757120 0.000000 
#    z 0.000000 0.000000 1.819660 
# 
# From -- ./inp_files/8333.got.cif
#   From: 2010.05.17/outbox.ucp.g08.bks.cvg/sg68_5_cif.got.tgz:8333.got - 2010.06.11 16:49:25.
