data_PCOD9510533
_publ_section_title
;
Structure prediction by ZEFSAII (Michael W. Deem and Ramdas Pophale) SiO2 
 PCOD9510533
Probable space group: C C C A
;
_chemical_formula_sum "Si O2"
_cell_formula_units_Z 88
_cell_length_a 23.577451
_cell_length_b 8.952986
_cell_length_c 19.149932
_cell_angle_alpha 90.000000
_cell_angle_beta 90.000000
_cell_angle_gamma 90.000000
_cell_volume 4042.332120
_symmetry_space_group_name_H-M "C C C A"
_symmetry_group_IT_number 68
_space_group.IT_coordinate_system_code '2'
_symmetry_cell_setting 'orthorhombic'
loop_
_space_group_symop_operation_xyz
x,y,z
-x,1/2-y,z
x,1/2-y,1/2-z
-x,y,1/2-z
-x,-y,-z
x,1/2+y,-z
-x,1/2+y,1/2+z
x,-y,1/2+z
1/2+x,1/2+y,z
1/2-x,-y,z
1/2+x,-y,1/2-z
1/2-x,1/2+y,1/2-z
1/2-x,1/2-y,-z
1/2+x,y,-z
1/2-x,y,1/2+z
1/2+x,1/2-y,1/2+z
loop_
_atom_site_type_symbol
_atom_site_label
_atom_site_fract_x
_atom_site_fract_y
_atom_site_fract_z
Si Si1 0.132680 0.424031 0.232787
Si Si2 0.061245 0.428597 0.619570
Si Si3 0.250000 0.500000 0.179987
Si Si4 0.630730 0.944524 0.482414
Si Si5 0.793214 0.820060 0.554993
Si Si6 0.930439 0.910537 0.356507
O O1 0.140812 0.250000 0.250000
O O2 0.099277 0.451561 0.160320
O O3 0.193166 0.506914 0.225313
O O4 0.094716 0.500010 0.291963
O O5 0.082539 0.413532 0.540073
O O6 0.070432 0.266920 0.655091
O O7 0.994750 0.459880 0.626785
O O8 0.236772 0.360498 0.127991
O O9 0.655692 0.799365 0.444074
O O10 0.680668 0.027905 0.524282
O O11 0.607157 0.054047 0.423908
O O12 0.750000 0.750000 0.500000
#
# Coordination Sequence:
#
# PCOD9510533 Si02
#       6
#    16  16   8  16  16  16
#     4  12  27  49  70 103 142 189 244 296 354 427
#     4  11  24  48  71 103 147 188 237 295 355 436
#     4  12  26  48  70 100 146 184 238 296 352 436
#     4  12  23  45  72 108 142 179 241 296 361 427
#     4  12  22  43  72 102 143 183 228 292 361 421
#     4  11  26  44  73 104 143 192 236 291 365 424
#
# _framework density 21.769611000000001
#
# number of rings (size 3 to 8) (size 9 to 14) (size 15 to 20)
#    0.000    0.364    5.455    2.727    0.000    4.364 
#    3.273    0.000    0.000    0.000    0.000    0.000 
#    0.000    0.000    0.000    0.000    0.000    0.000 
#
# Total GULP energy -246218.287042 kJ/mol
# GULP energy per Si atom -5595.870160 kJ/mol
# Density = 2.172006 g / cm^3
# Si number density = 21.769611 Si / 1000 Ang^3
#
#
#
# Elastic Constant Matrix: (Units=GPa)
#
#
# Indices 1 2 3 4 5 6 
#
# 1 119.9970 32.9026 33.0540 0.0000 0.0000 0.0000
# 2 32.9026 77.2388 25.8061 0.0000 0.0000 0.0000
# 3 33.0540 25.8061 75.5479 0.0000 0.0000 0.0000
# 4 0.0000 0.0000 0.0000 36.7069 0.0000 0.0000
# 5 0.0000 0.0000 0.0000 0.0000 49.9843 0.0000
# 6 0.0000 0.0000 0.0000 0.0000 0.0000 32.8918
#
#
#
# Elastic Compliance Matrix: (Units=1/GPa)
#
#
# Indices 1 2 3 4 5 6 
#
# 1 0.010131 -0.003200 -0.003339 0.000000 0.000000 0.000000
# 2 -0.003200 0.015625 -0.003937 0.000000 0.000000 0.000000
# 3 -0.003339 -0.003937 0.016043 0.000000 0.000000 0.000000
# 4 0.000000 0.000000 0.000000 0.027243 0.000000 0.000000
# 5 0.000000 0.000000 0.000000 0.000000 0.020006 0.000000
# 6 0.000000 0.000000 0.000000 0.000000 0.000000 0.030403
#
#
# Mechanical properties :
#
#
# Convention : Reuss Voigt Hill
#
# Bulk Modulus (GPa) = 47.97194 50.70103 49.33648
# Shear Modulus (GPa) = 33.93218 35.98466 34.95842
#
# Velocity S-wave (km/s) = 3.95231 4.07009 4.01164
# Velocity P-wave (km/s) = 6.55071 6.74002 6.64604
#
# Compressibility (1/GPa) = 0.02084552
#
# Stress axis : x y z
#
# Youngs Moduli (GPa) = 98.70899 63.99808 62.33369
#
# Poissons Ratio (x) = 0.20478 0.20816
# Poissons Ratio (y) = 0.31585 0.24543
# Poissons Ratio (z) = 0.32963 0.25199
#
# Static dielectric constant tensor:
#      x y z
#    x 1.811760 0.000000 0.000000 
#    y 0.000000 1.797940 0.000000 
#    z 0.000000 0.000000 1.798440 
# 
# From -- ./inp_files/40732.got.cif
#   From: 2010.05.17/outbox.cif.g08.bks.cpg/sg68_21_cif.got.tgz:40732.got - 2010.06.03 18:57:09.
