data_PCOD9510749
_publ_section_title
;
Structure prediction by ZEFSAII (Michael W. Deem and Ramdas Pophale) SiO2 
 PCOD9510749
Probable space group: C C C A
;
_chemical_formula_sum "Si O2"
_cell_formula_units_Z 80
_cell_length_a 14.877567
_cell_length_b 6.465233
_cell_length_c 38.174528
_cell_angle_alpha 90.000000
_cell_angle_beta 90.000000
_cell_angle_gamma 90.000000
_cell_volume 3671.890925
_symmetry_space_group_name_H-M "C C C A"
_symmetry_group_IT_number 68
_space_group.IT_coordinate_system_code '2'
_symmetry_cell_setting 'orthorhombic'
loop_
_space_group_symop_operation_xyz
x,y,z
-x,1/2-y,z
x,1/2-y,1/2-z
-x,y,1/2-z
-x,-y,-z
x,1/2+y,-z
-x,1/2+y,1/2+z
x,-y,1/2+z
1/2+x,1/2+y,z
1/2-x,-y,z
1/2+x,-y,1/2-z
1/2-x,1/2+y,1/2-z
1/2-x,1/2-y,-z
1/2+x,y,-z
1/2-x,y,1/2+z
1/2+x,1/2-y,1/2+z
loop_
_atom_site_type_symbol
_atom_site_label
_atom_site_fract_x
_atom_site_fract_y
_atom_site_fract_z
Si Si1 0.321598 0.134453 0.489427
Si Si2 0.250000 0.500000 0.327988
Si Si3 0.653680 0.386593 0.348238
Si Si4 0.162108 0.635440 0.716829
Si Si5 0.417844 0.405161 0.076225
Si Si6 0.000000 0.750000 0.970774
O O1 0.297705 0.376607 0.504758
O O2 0.334316 0.172917 0.447398
O O3 0.423704 0.133266 0.506429
O O4 0.323191 0.357751 0.347683
O O5 0.198428 0.329823 0.305229
O O6 0.750000 0.500000 0.351578
O O7 0.615531 0.480198 0.311431
O O8 0.600441 0.436956 0.383049
O O9 0.117169 0.750000 0.750000
O O10 0.250000 0.500000 0.728965
O O11 0.500000 0.250000 0.072631
O O12 0.445357 0.609590 0.056240
#
# Coordination Sequence:
#
# PCOD9510749 Si02
#       6
#    16   8  16  16  16   8
#     4  12  23  43  70  92 127 172 224 286 339 397
#     4   8  16  32  52  82 126 154 208 256 320 394
#     4   9  21  35  54  89 125 162 214 261 332 400
#     4   9  15  27  54  87 126 157 204 260 326 390
#     4  12  25  43  62  90 131 173 221 277 337 401
#     4  12  26  46  66  98 129 170 236 281 334 412
#
# _framework density 21.787137999999999
#
# number of rings (size 3 to 8) (size 9 to 14) (size 15 to 20)
#    0.000    2.000    4.000    2.400    0.000    3.200 
#    1.800    0.000    0.000    0.000    0.000   10.500 
#    0.000    0.000    0.000    0.000    0.000    0.000 
#
# Total GULP energy -222670.371874 kJ/mol
# GULP energy per Si atom -5566.759297 kJ/mol
# Density = 2.173755 g / cm^3
# Si number density = 21.787138 Si / 1000 Ang^3
#
#
#
# Elastic Constant Matrix: (Units=GPa)
#
#
# Indices 1 2 3 4 5 6 
#
# 1 88.8193 39.3975 38.2621 0.0000 0.0000 0.0000
# 2 39.3975 122.1149 43.6138 0.0000 0.0000 0.0000
# 3 38.2621 43.6138 164.3314 0.0000 0.0000 0.0000
# 4 0.0000 0.0000 0.0000 36.1996 0.0000 0.0000
# 5 0.0000 0.0000 0.0000 0.0000 25.4414 0.0000
# 6 0.0000 0.0000 0.0000 0.0000 0.0000 42.1591
#
#
#
# Elastic Compliance Matrix: (Units=1/GPa)
#
#
# Indices 1 2 3 4 5 6 
#
# 1 0.013855 -0.003665 -0.002253 0.000000 0.000000 0.000000
# 2 -0.003665 0.010016 -0.001805 0.000000 0.000000 0.000000
# 3 -0.002253 -0.001805 0.007089 0.000000 0.000000 0.000000
# 4 0.000000 0.000000 0.000000 0.027625 0.000000 0.000000
# 5 0.000000 0.000000 0.000000 0.000000 0.039306 0.000000
# 6 0.000000 0.000000 0.000000 0.000000 0.000000 0.023720
#
#
# Mechanical properties :
#
#
# Convention : Reuss Voigt Hill
#
# Bulk Modulus (GPa) = 64.45999 68.64582 66.55290
# Shear Modulus (GPa) = 35.15463 37.69283 36.42373
#
# Velocity S-wave (km/s) = 4.02126 4.16390 4.09320
# Velocity P-wave (km/s) = 7.15620 7.39549 7.27683
#
# Compressibility (1/GPa) = 0.01551350
#
# Stress axis : x y z
#
# Youngs Moduli (GPa) = 72.17454 99.83856 141.06538
#
# Poissons Ratio (x) = 0.36594 0.31785
# Poissons Ratio (y) = 0.26454 0.25461
# Poissons Ratio (z) = 0.16262 0.18020
#
# Static dielectric constant tensor:
#      x y z
#    x 1.881810 0.000000 0.000000 
#    y 0.000000 1.985190 0.000000 
#    z 0.000000 0.000000 1.829720 
# 
# From -- ./inp_files/55924.got.cif
#   From: 2010.05.17/outbox.cif.g08.bks.cpg/sg68_28_cif.got.tgz:55924.got - 2010.06.03 18:57:09.
