data_PCOD9510601
_publ_section_title
;
Structure prediction by ZEFSAII (Michael W. Deem and Ramdas Pophale) SiO2 
 PCOD9510601
Probable space group: C C C A
;
_chemical_formula_sum "Si O2"
_cell_formula_units_Z 72
_cell_length_a 13.239596
_cell_length_b 13.681153
_cell_length_c 16.178009
_cell_angle_alpha 90.000000
_cell_angle_beta 90.000000
_cell_angle_gamma 90.000000
_cell_volume 2930.370310
_symmetry_space_group_name_H-M "C C C A"
_symmetry_group_IT_number 68
_space_group.IT_coordinate_system_code '2'
_symmetry_cell_setting 'orthorhombic'
loop_
_space_group_symop_operation_xyz
x,y,z
-x,1/2-y,z
x,1/2-y,1/2-z
-x,y,1/2-z
-x,-y,-z
x,1/2+y,-z
-x,1/2+y,1/2+z
x,-y,1/2+z
1/2+x,1/2+y,z
1/2-x,-y,z
1/2+x,-y,1/2-z
1/2-x,1/2+y,1/2-z
1/2-x,1/2-y,-z
1/2+x,y,-z
1/2-x,y,1/2+z
1/2+x,1/2-y,1/2+z
loop_
_atom_site_type_symbol
_atom_site_label
_atom_site_fract_x
_atom_site_fract_y
_atom_site_fract_z
Si Si1 0.278771 0.773969 0.846983
Si Si2 0.750000 0.500000 0.207696
Si Si3 0.123723 0.406449 0.929743
Si Si4 0.403702 0.628769 0.194859
Si Si5 0.099004 0.049624 0.923875
O O1 0.311150 0.750000 0.750000
O O2 0.317583 0.695393 0.915332
O O3 0.155939 0.782284 0.848890
O O4 0.325347 0.876475 0.879354
O O5 0.840489 0.543558 0.154426
O O6 0.690953 0.583942 0.255218
O O7 0.004020 0.391160 0.939847
O O8 0.142778 0.490681 0.998151
O O9 0.500000 0.649905 0.250000
O O10 0.432192 0.540775 0.134450
#
# Coordination Sequence:
#
# PCOD9510601 Si02
#       5
#    16   8  16  16  16
#     4  12  25  47  80 119 149 212 273 326 397 488
#     4  12  22  44  72 104 156 206 258 320 400 476
#     4  11  26  46  72 114 156 207 261 336 402 480
#     4  12  24  45  73 114 158 211 261 334 403 478
#     4  11  25  47  78 110 158 205 265 336 404 476
#
# _framework density 24.570274000000001
#
# number of rings (size 3 to 8) (size 9 to 14) (size 15 to 20)
#    0.000    0.444    6.667    0.667    3.111    2.222 
#    0.000    0.000    4.889    0.000    0.000    0.000 
#    0.000    0.000    0.000    0.000    0.000    0.000 
#
# Total GULP energy -200894.270259 kJ/mol
# GULP energy per Si atom -5580.396396 kJ/mol
# Density = 2.451435 g / cm^3
# Si number density = 24.570274 Si / 1000 Ang^3
#
#
#
# Elastic Constant Matrix: (Units=GPa)
#
#
# Indices 1 2 3 4 5 6 
#
# 1 184.3620 44.3467 38.0730 0.0000 0.0000 0.0000
# 2 44.3467 123.3300 35.6505 0.0000 0.0000 0.0000
# 3 38.0730 35.6505 62.6651 0.0000 0.0000 0.0000
# 4 0.0000 0.0000 0.0000 49.7472 0.0000 0.0000
# 5 0.0000 0.0000 0.0000 0.0000 25.2292 0.0000
# 6 0.0000 0.0000 0.0000 0.0000 0.0000 37.9557
#
#
#
# Elastic Compliance Matrix: (Units=1/GPa)
#
#
# Indices 1 2 3 4 5 6 
#
# 1 0.006401 -0.001409 -0.003087 0.000000 0.000000 0.000000
# 2 -0.001409 0.010014 -0.004841 0.000000 0.000000 0.000000
# 3 -0.003087 -0.004841 0.020588 0.000000 0.000000 0.000000
# 4 0.000000 0.000000 0.000000 0.020102 0.000000 0.000000
# 5 0.000000 0.000000 0.000000 0.000000 0.039637 0.000000
# 6 0.000000 0.000000 0.000000 0.000000 0.000000 0.026346
#
#
# Mechanical properties :
#
#
# Convention : Reuss Voigt Hill
#
# Bulk Modulus (GPa) = 54.56161 67.38862 60.97512
# Shear Modulus (GPa) = 33.81318 39.40555 36.60937
#
# Velocity S-wave (km/s) = 3.71372 4.00908 3.86422
# Velocity P-wave (km/s) = 6.37523 6.99405 6.69179
#
# Compressibility (1/GPa) = 0.01832790
#
# Stress axis : x y z
#
# Youngs Moduli (GPa) = 156.23550 99.85603 48.57294
#
# Poissons Ratio (x) = 0.14071 0.14995
# Poissons Ratio (y) = 0.22016 0.23515
# Poissons Ratio (z) = 0.48232 0.48341
#
# Static dielectric constant tensor:
#      x y z
#    x 2.004980 0.000000 0.000000 
#    y 0.000000 2.117100 0.000000 
#    z 0.000000 0.000000 2.024690 
# 
# From -- ./inp_files/30678.got.cif
#   From: 2010.05.17/outbox.cif.g08.bks.cpg/sg68_16_cif.got.tgz:30678.got - 2010.06.03 18:57:09.
