data_PCOD9510975
_publ_section_title
;
Structure prediction by ZEFSAII (Michael W. Deem and Ramdas Pophale) SiO2 
 PCOD9510975
Probable space group: C C C A
;
_chemical_formula_sum "Si O2"
_cell_formula_units_Z 52
_cell_length_a 9.000000
_cell_length_b 21.000000
_cell_length_c 27.000000
_cell_angle_alpha 90.000000
_cell_angle_beta 90.000000
_cell_angle_gamma 90.000000
_cell_volume 5103.000000
_symmetry_space_group_name_H-M "C C C A"
_symmetry_group_IT_number 68
_space_group.IT_coordinate_system_code '2'
_symmetry_cell_setting 'orthorhombic'
loop_
_space_group_symop_operation_xyz
x,y,z
-x,1/2-y,z
x,1/2-y,1/2-z
-x,y,1/2-z
-x,-y,-z
x,1/2+y,-z
-x,1/2+y,1/2+z
x,-y,1/2+z
1/2+x,1/2+y,z
1/2-x,-y,z
1/2+x,-y,1/2-z
1/2-x,1/2+y,1/2-z
1/2-x,1/2-y,-z
1/2+x,y,-z
1/2-x,y,1/2+z
1/2+x,1/2-y,1/2+z
loop_
_atom_site_type_symbol
_atom_site_label
_atom_site_fract_x
_atom_site_fract_y
_atom_site_fract_z
Si Si1 0.133446 0.369948 0.847636
Si Si2 0.178471 0.067418 0.064519
Si Si3 0.314688 0.929002 0.819222
Si Si4 0.203308 0.821652 0.482689
Si Si5 0.678577 0.674339 0.245368
Si Si6 0.000000 0.250000 0.595191
Si Si7 0.835808 0.935787 0.574885
O O1 0.216948 0.408718 0.890873
O O2 0.252309 0.353285 0.805145
O O3 0.991648 0.411670 0.826920
O O4 0.085789 0.300644 0.869944
O O5 0.010008 0.050866 0.079659
O O6 0.250000 0.000000 0.046717
O O7 0.163574 0.129002 0.027321
O O8 0.251411 0.871584 0.786284
O O9 0.241719 0.923224 0.872991
O O10 0.250000 0.000000 0.801979
O O11 0.250000 0.750000 0.500000
O O12 0.083006 0.800199 0.441605
O O13 0.317066 0.869748 0.455280
O O14 0.715698 0.750000 0.250000
O O15 0.500000 0.669104 0.250000
O O16 0.750000 0.000000 0.556339
#
# Coordination Sequence:
#
# PCOD9510975 Si02
#       7
#    16  16  16  16  16   8  16
#     4  12  25  47  74 104 147 190 242 295 361 434
#     4  12  27  44  69 104 143 193 243 298 365 425
#     4  11  24  45  74 106 141 188 238 296 356 426
#     4  12  25  44  70 101 144 188 242 304 354 426
#     4  11  26  46  72 109 147 188 236 294 360 429
#     4  12  24  46  71 106 144 192 249 296 360 436
#     4  11  25  45  70  99 141 189 238 299 361 418
#
# _framework density 10.190084000000001
#
# number of rings (size 3 to 8) (size 9 to 14) (size 15 to 20)
#    0.000    0.462    3.077    5.538    0.000    3.692 
#    0.000    0.000    0.000    0.000    0.000    0.000 
#    0.000    0.000    0.000    0.000    0.000    0.000 
#
# Total GULP energy -289909.405359 kJ/mol
# GULP energy per Si atom -5575.180872 kJ/mol
# Density = 1.016689 g / cm^3
# Si number density = 10.190084 Si / 1000 Ang^3
#
#
#
# Elastic Constant Matrix: (Units=GPa)
#
#
# Indices 1 2 3 4 5 6 
#
# 1 146.4174 62.3176 50.8935 0.0000 0.0000 0.0000
# 2 62.3176 193.2518 60.7435 0.0000 0.0000 0.0000
# 3 50.8935 60.7435 112.5206 0.0000 0.0000 0.0000
# 4 0.0000 0.0000 0.0000 31.0387 0.0000 0.0000
# 5 0.0000 0.0000 0.0000 0.0000 0.3907 0.0000
# 6 0.0000 0.0000 0.0000 0.0000 0.0000 44.9186
#
#
#
# Elastic Compliance Matrix: (Units=1/GPa)
#
#
# Indices 1 2 3 4 5 6 
#
# 1 0.008633 -0.001875 -0.002893 0.000000 0.000000 0.000000
# 2 -0.001875 0.006639 -0.002736 0.000000 0.000000 0.000000
# 3 -0.002893 -0.002736 0.011673 0.000000 0.000000 0.000000
# 4 0.000000 0.000000 0.000000 0.032218 0.000000 0.000000
# 5 0.000000 0.000000 0.000000 0.000000 2.559700 0.000000
# 6 0.000000 0.000000 0.000000 0.000000 0.000000 0.022263
#
#
# Mechanical properties :
#
#
# Convention : Reuss Voigt Hill
#
# Bulk Modulus (GPa) = 83.76720 88.89989 86.33354
# Shear Modulus (GPa) = 1.87962 33.81860 17.84911
#
# Velocity S-wave (km/s) = 0.96140 4.07798 2.96262
# Velocity P-wave (km/s) = 6.51336 8.11718 7.35910
#
# Compressibility (1/GPa) = 0.01193785
#
# Stress axis : x y z
#
# Youngs Moduli (GPa) = 115.83208 150.62142 85.66924
#
# Poissons Ratio (x) = 0.28236 0.24782
# Poissons Ratio (y) = 0.21715 0.23441
# Poissons Ratio (z) = 0.33508 0.41213
#
# Static dielectric constant tensor:
#      x y z
#    x 1.762180 0.000000 0.000000 
#    y 0.000000 1.699710 0.000000 
#    z 0.000000 0.000000 1.790180 
# 
# From -- ./inp_files/49450.got.cif
#   From: 2010.05.17/outbox.ucp.g08.bks.cvg/sg68_25_cif.got.tgz:49450.got - 2010.06.11 16:49:25.
