data_PCOD9510325
_publ_section_title
;
Structure prediction by ZEFSAII (Michael W. Deem and Ramdas Pophale) SiO2 
 PCOD9510325
Probable space group: C C C A
;
_chemical_formula_sum "Si O2"
_cell_formula_units_Z 72
_cell_length_a 12.657306
_cell_length_b 12.691590
_cell_length_c 18.531928
_cell_angle_alpha 90.000000
_cell_angle_beta 90.000000
_cell_angle_gamma 90.000000
_cell_volume 2976.993714
_symmetry_space_group_name_H-M "C C C A"
_symmetry_group_IT_number 68
_space_group.IT_coordinate_system_code '2'
_symmetry_cell_setting 'orthorhombic'
loop_
_space_group_symop_operation_xyz
x,y,z
-x,1/2-y,z
x,1/2-y,1/2-z
-x,y,1/2-z
-x,-y,-z
x,1/2+y,-z
-x,1/2+y,1/2+z
x,-y,1/2+z
1/2+x,1/2+y,z
1/2-x,-y,z
1/2+x,-y,1/2-z
1/2-x,1/2+y,1/2-z
1/2-x,1/2-y,-z
1/2+x,y,-z
1/2-x,y,1/2+z
1/2+x,1/2-y,1/2+z
loop_
_atom_site_type_symbol
_atom_site_label
_atom_site_fract_x
_atom_site_fract_y
_atom_site_fract_z
Si Si1 0.578756 0.651504 0.962574
Si Si2 0.214381 0.814421 0.869044
Si Si3 0.000000 0.972643 0.250000
Si Si4 0.995341 0.427051 0.400533
Si Si5 0.276160 0.109224 0.219911
O O1 0.500000 0.750000 0.949611
O O2 0.691186 0.668454 0.925403
O O3 0.531302 0.544669 0.928300
O O4 0.582687 0.623412 0.047521
O O5 0.105472 0.849221 0.905879
O O6 0.238728 0.703416 0.830417
O O7 0.218386 0.887870 0.797352
O O8 0.985082 0.051387 0.317214
O O9 0.101222 0.895929 0.243252
O O10 0.250000 0.000000 0.181925
#
# Coordination Sequence:
#
# PCOD9510325 Si02
#       5
#    16  16   8  16  16
#     4  11  24  46  72 107 146 208 246 309 391 457
#     4  11  23  45  77 107 152 196 254 319 392 464
#     4  12  22  45  77 114 148 196 266 320 376 466
#     4  11  25  46  75 106 157 195 252 326 379 462
#     4  11  23  42  76 117 147 198 254 331 390 460
#
# _framework density 24.185471
#
# number of rings (size 3 to 8) (size 9 to 14) (size 15 to 20)
#    0.000    0.889    4.444    2.000    0.000    3.556 
#    0.000    7.778    0.000    0.000    0.000    0.000 
#    0.000    0.000    0.000    0.000    0.000    0.000 
#
# Total GULP energy -201313.456512 kJ/mol
# GULP energy per Si atom -5592.040459 kJ/mol
# Density = 2.413042 g / cm^3
# Si number density = 24.185471 Si / 1000 Ang^3
#
#
#
# Elastic Constant Matrix: (Units=GPa)
#
#
# Indices 1 2 3 4 5 6 
#
# 1 71.0167 8.7623 39.1653 0.0000 0.0000 0.0000
# 2 8.7623 157.7619 42.6075 0.0000 0.0000 0.0000
# 3 39.1653 42.6075 176.6558 0.0000 0.0000 0.0000
# 4 0.0000 0.0000 0.0000 30.1702 0.0000 0.0000
# 5 0.0000 0.0000 0.0000 0.0000 34.7383 0.0000
# 6 0.0000 0.0000 0.0000 0.0000 0.0000 30.5181
#
#
#
# Elastic Compliance Matrix: (Units=1/GPa)
#
#
# Indices 1 2 3 4 5 6 
#
# 1 0.016044 0.000074 -0.003575 0.000000 0.000000 0.000000
# 2 0.000074 0.006781 -0.001652 0.000000 0.000000 0.000000
# 3 -0.003575 -0.001652 0.006852 0.000000 0.000000 0.000000
# 4 0.000000 0.000000 0.000000 0.033145 0.000000 0.000000
# 5 0.000000 0.000000 0.000000 0.000000 0.028787 0.000000
# 6 0.000000 0.000000 0.000000 0.000000 0.000000 0.032767
#
#
# Mechanical properties :
#
#
# Convention : Reuss Voigt Hill
#
# Bulk Modulus (GPa) = 51.62314 65.16717 58.39516
# Shear Modulus (GPa) = 35.42655 40.07862 37.75259
#
# Velocity S-wave (km/s) = 3.83141 4.07521 3.95519
# Velocity P-wave (km/s) = 6.40031 7.01045 6.71231
#
# Compressibility (1/GPa) = 0.01937116
#
# Stress axis : x y z
#
# Youngs Moduli (GPa) = 62.33041 147.47797 145.94889
#
# Poissons Ratio (x) = -0.01097 0.52175
# Poissons Ratio (y) = -0.00464 0.24110
# Poissons Ratio (z) = 0.22282 0.24362
#
# Static dielectric constant tensor:
#      x y z
#    x 1.967000 0.000000 0.000000 
#    y 0.000000 1.949810 0.000000 
#    z 0.000000 0.000000 1.957110 
# 
# From -- ./inp_files/30696.got.cif
#   From: 2010.05.17/outbox.cif.g08.bks.cpg/sg68_16_cif.got.tgz:30696.got - 2010.06.03 18:57:09.
