data_PCOD9510769
_publ_section_title
;
Structure prediction by ZEFSAII (Michael W. Deem and Ramdas Pophale) SiO2 
 PCOD9510769
Probable space group: C C C A
;
_chemical_formula_sum "Si O2"
_cell_formula_units_Z 64
_cell_length_a 16.453722
_cell_length_b 15.582741
_cell_length_c 9.989236
_cell_angle_alpha 90.000000
_cell_angle_beta 90.000000
_cell_angle_gamma 90.000000
_cell_volume 2561.181058
_symmetry_space_group_name_H-M "C C C A"
_symmetry_group_IT_number 68
_space_group.IT_coordinate_system_code '2'
_symmetry_cell_setting 'orthorhombic'
loop_
_space_group_symop_operation_xyz
x,y,z
-x,1/2-y,z
x,1/2-y,1/2-z
-x,y,1/2-z
-x,-y,-z
x,1/2+y,-z
-x,1/2+y,1/2+z
x,-y,1/2+z
1/2+x,1/2+y,z
1/2-x,-y,z
1/2+x,-y,1/2-z
1/2-x,1/2+y,1/2-z
1/2-x,1/2-y,-z
1/2+x,y,-z
1/2-x,y,1/2+z
1/2+x,1/2-y,1/2+z
loop_
_atom_site_type_symbol
_atom_site_label
_atom_site_fract_x
_atom_site_fract_y
_atom_site_fract_z
Si Si1 0.876407 0.403188 0.823479
Si Si2 0.199421 0.682817 0.402814
Si Si3 0.250000 0.500000 0.004758
Si Si4 0.019610 0.659720 0.519499
Si Si5 0.500000 0.524530 0.250000
O O1 0.817892 0.331352 0.759205
O O2 0.825562 0.473161 0.903935
O O3 0.924965 0.462135 0.717840
O O4 0.052681 0.359610 0.587340
O O5 0.250000 0.750000 0.500000
O O6 0.238181 0.588323 0.426372
O O7 0.107957 0.677529 0.458661
O O8 0.019006 0.583120 0.624116
O O9 0.000000 0.750000 0.589204
#
# Coordination Sequence:
#
# PCOD9510769 Si02
#       5
#    16  16   8  16   8
#     4  12  25  49  81 108 156 218 271 334 425 511
#     4  12  27  49  75 117 157 206 272 346 421 499
#     4  12  26  46  74 116 160 206 264 348 424 492
#     4  12  26  47  78 112 154 211 272 336 412 509
#     4  12  23  50  81 110 154 210 284 328 407 513
#
# _framework density 24.98847
#
# number of rings (size 3 to 8) (size 9 to 14) (size 15 to 20)
#    0.000    0.000    5.000    4.875    0.000    7.000 
#    4.500    0.000    0.000    0.000    0.000    0.000 
#    0.000    0.000    0.000    0.000    0.000    0.000 
#
# Total GULP energy -178643.761918 kJ/mol
# GULP energy per Si atom -5582.617560 kJ/mol
# Density = 2.493160 g / cm^3
# Si number density = 24.988470 Si / 1000 Ang^3
#
#
#
# Elastic Constant Matrix: (Units=GPa)
#
#
# Indices 1 2 3 4 5 6 
#
# 1 133.2368 30.5363 50.8644 0.0000 0.0000 0.0000
# 2 30.5363 129.1869 16.4054 0.0000 0.0000 0.0000
# 3 50.8644 16.4054 103.1477 0.0000 0.0000 0.0000
# 4 0.0000 0.0000 0.0000 -9.5388 0.0000 0.0000
# 5 0.0000 0.0000 0.0000 0.0000 45.0650 0.0000
# 6 0.0000 0.0000 0.0000 0.0000 0.0000 55.8975
#
#
#
# Elastic Compliance Matrix: (Units=1/GPa)
#
#
# Indices 1 2 3 4 5 6 
#
# 1 0.009599 -0.001702 -0.004463 0.000000 0.000000 0.000000
# 2 -0.001702 0.008202 -0.000465 0.000000 0.000000 0.000000
# 3 -0.004463 -0.000465 0.011970 0.000000 0.000000 0.000000
# 4 0.000000 0.000000 0.000000 -0.104835 0.000000 0.000000
# 5 0.000000 0.000000 0.000000 0.000000 0.022190 0.000000
# 6 0.000000 0.000000 0.000000 0.000000 0.000000 0.017890
#
#
# Mechanical properties :
#
#
# Convention : Reuss Voigt Hill
#
# Bulk Modulus (GPa) = 60.56756 62.35374 61.46065
# Shear Modulus (GPa) = -308.26100 36.13577 -136.06261
#
# Velocity S-wave (km/s) = -11.11886 3.80688 -7.38704
# Velocity P-wave (km/s) = 11.85529 6.65810 6.93605
#
# Compressibility (1/GPa) = 0.01651049
#
# Stress axis : x y z
#
# Youngs Moduli (GPa) = 104.17396 121.91913 83.54528
#
# Poissons Ratio (x) = 0.20754 0.37285
# Poissons Ratio (y) = 0.17733 0.03886
# Poissons Ratio (z) = 0.46492 0.05670
#
# Static dielectric constant tensor:
#      x y z
#    x -0.756030 0.000000 0.000000 
#    y 0.000000 2.143330 0.000000 
#    z 0.000000 0.000000 2.217920 
# 
# From -- ./inp_files/14033.got.cif
#   From: 2010.05.17/outbox.cif.g08.bks.cpg/sg68_8_cif.got.tgz:14033.got - 2010.06.03 18:57:09.
