data_PCOD9510523
_publ_section_title
;
Structure prediction by ZEFSAII (Michael W. Deem and Ramdas Pophale) SiO2 
 PCOD9510523
Probable space group: C C C A
;
_chemical_formula_sum "Si O2"
_cell_formula_units_Z 56
_cell_length_a 5.853684
_cell_length_b 14.464316
_cell_length_c 28.931855
_cell_angle_alpha 90.000000
_cell_angle_beta 90.000000
_cell_angle_gamma 90.000000
_cell_volume 2449.646714
_symmetry_space_group_name_H-M "C C C A"
_symmetry_group_IT_number 68
_space_group.IT_coordinate_system_code '2'
_symmetry_cell_setting 'orthorhombic'
loop_
_space_group_symop_operation_xyz
x,y,z
-x,1/2-y,z
x,1/2-y,1/2-z
-x,y,1/2-z
-x,-y,-z
x,1/2+y,-z
-x,1/2+y,1/2+z
x,-y,1/2+z
1/2+x,1/2+y,z
1/2-x,-y,z
1/2+x,-y,1/2-z
1/2-x,1/2+y,1/2-z
1/2-x,1/2-y,-z
1/2+x,y,-z
1/2-x,y,1/2+z
1/2+x,1/2-y,1/2+z
loop_
_atom_site_type_symbol
_atom_site_label
_atom_site_fract_x
_atom_site_fract_y
_atom_site_fract_z
Si Si1 0.286962 0.391474 0.983618
Si Si2 0.335652 0.104713 0.793101
Si Si3 0.675013 0.105904 0.874681
Si Si4 0.500000 0.750000 0.824504
O O1 0.250000 0.500000 0.996620
O O2 0.346433 0.384082 0.929442
O O3 0.523878 0.355834 0.007809
O O4 0.500000 0.121138 0.750000
O O5 0.453539 0.117397 0.843030
O O6 0.143273 0.180619 0.793590
O O7 0.250000 0.000000 0.789410
O O8 0.849862 0.181943 0.856136
O O9 0.750000 0.000000 0.865639
#
# Coordination Sequence:
#
# PCOD9510523 Si02
#       4
#    16  16  16   8
#     4   9  20  38  70 109 150 202 256 313 383 451
#     4  12  28  51  77 109 149 195 250 311 381 458
#     4  11  24  46  76 108 150 199 250 316 374 454
#     4  12  28  49  76 106 148 198 244 312 383 456
#
# _framework density 22.860439
#
# number of rings (size 3 to 8) (size 9 to 14) (size 15 to 20)
#    0.000    1.143    2.857    1.714    4.000    4.571 
#    0.000    1.429    0.000    0.000    0.000    0.000 
#    0.000    0.000    0.000    0.000    0.000    0.000 
#
# Total GULP energy -156529.690311 kJ/mol
# GULP energy per Si atom -5590.346083 kJ/mol
# Density = 2.280841 g / cm^3
# Si number density = 22.860439 Si / 1000 Ang^3
#
#
#
# Elastic Constant Matrix: (Units=GPa)
#
#
# Indices 1 2 3 4 5 6 
#
# 1 111.4284 39.2531 49.1968 0.0000 0.0000 0.0000
# 2 39.2531 152.7346 29.5687 0.0000 0.0000 0.0000
# 3 49.1968 29.5687 82.1069 0.0000 0.0000 0.0000
# 4 0.0000 0.0000 0.0000 89.6167 0.0000 0.0000
# 5 0.0000 0.0000 0.0000 0.0000 51.6171 0.0000
# 6 0.0000 0.0000 0.0000 0.0000 0.0000 17.1397
#
#
#
# Elastic Compliance Matrix: (Units=1/GPa)
#
#
# Indices 1 2 3 4 5 6 
#
# 1 0.012709 -0.001926 -0.006921 0.000000 0.000000 0.000000
# 2 -0.001926 0.007330 -0.001486 0.000000 0.000000 0.000000
# 3 -0.006921 -0.001486 0.016861 0.000000 0.000000 0.000000
# 4 0.000000 0.000000 0.000000 0.011159 0.000000 0.000000
# 5 0.000000 0.000000 0.000000 0.000000 0.019373 0.000000
# 6 0.000000 0.000000 0.000000 0.000000 0.000000 0.058344
#
#
# Mechanical properties :
#
#
# Convention : Reuss Voigt Hill
#
# Bulk Modulus (GPa) = 61.59881 64.70079 63.14980
# Shear Modulus (GPa) = 32.92655 46.89144 39.90899
#
# Velocity S-wave (km/s) = 3.79928 4.53394 4.18277
# Velocity P-wave (km/s) = 6.80075 7.46811 7.14223
#
# Compressibility (1/GPa) = 0.01623408
#
# Stress axis : x y z
#
# Youngs Moduli (GPa) = 78.68642 136.42665 59.30780
#
# Poissons Ratio (x) = 0.26279 0.41047
# Poissons Ratio (y) = 0.15157 0.08810
# Poissons Ratio (z) = 0.54460 0.20266
#
# Static dielectric constant tensor:
#      x y z
#    x 1.790680 0.000000 0.000000 
#    y 0.000000 1.832940 0.000000 
#    z 0.000000 0.000000 1.796190 
# 
# From -- ./inp_files/52736.got.cif
#   From: 2010.05.17/outbox.cif.g08.bks.cpg/sg68_27_cif.got.tgz:52736.got - 2010.06.03 18:57:09.
