data_PCOD9510875
_publ_section_title
;
Structure prediction by ZEFSAII (Michael W. Deem and Ramdas Pophale) SiO2 
 PCOD9510875
Probable space group: C C C A
;
_chemical_formula_sum "Si O2"
_cell_formula_units_Z 64
_cell_length_a 21.151401
_cell_length_b 9.510325
_cell_length_c 13.749720
_cell_angle_alpha 90.000000
_cell_angle_beta 90.000000
_cell_angle_gamma 90.000000
_cell_volume 2765.848270
_symmetry_space_group_name_H-M "C C C A"
_symmetry_group_IT_number 68
_space_group.IT_coordinate_system_code '2'
_symmetry_cell_setting 'orthorhombic'
loop_
_space_group_symop_operation_xyz
x,y,z
-x,1/2-y,z
x,1/2-y,1/2-z
-x,y,1/2-z
-x,-y,-z
x,1/2+y,-z
-x,1/2+y,1/2+z
x,-y,1/2+z
1/2+x,1/2+y,z
1/2-x,-y,z
1/2+x,-y,1/2-z
1/2-x,1/2+y,1/2-z
1/2-x,1/2-y,-z
1/2+x,y,-z
1/2-x,y,1/2+z
1/2+x,1/2-y,1/2+z
loop_
_atom_site_type_symbol
_atom_site_label
_atom_site_fract_x
_atom_site_fract_y
_atom_site_fract_z
Si Si1 0.745072 0.660620 0.903201
Si Si2 0.129672 0.394066 0.214295
Si Si3 0.045348 0.121821 0.465820
Si Si4 0.621879 0.673149 0.662414
O O1 0.750000 0.500000 0.937680
O O2 0.803082 0.656880 0.828327
O O3 0.682804 0.725116 0.853086
O O4 0.750000 0.750000 0.000000
O O5 0.098181 0.250000 0.250000
O O6 0.135413 0.515273 0.295874
O O7 0.088960 0.437049 0.120600
O O8 0.087530 0.165204 0.558997
O O9 0.000000 0.250000 0.435648
O O10 0.000000 0.000000 0.500000
O O11 0.584412 0.750000 0.750000
#
# Coordination Sequence:
#
# PCOD9510875 Si02
#       4
#    16  16  16  16
#     4  12  27  47  79 111 153 199 252 326 407 475
#     4  12  28  47  77 114 157 203 258 325 398 475
#     4  12  28  49  76 109 154 209 271 326 383 465
#     4  12  26  49  77 112 156 204 261 325 405 473
#
# _framework density 23.139374
#
# number of rings (size 3 to 8) (size 9 to 14) (size 15 to 20)
#    0.000    0.000    5.000    3.750    3.500    6.000 
#    0.000    0.000    0.000    0.000    0.000    0.000 
#    0.000    0.000    0.000    0.000    0.000    0.000 
#
# Total GULP energy -178847.035941 kJ/mol
# GULP energy per Si atom -5588.969873 kJ/mol
# Density = 2.308671 g / cm^3
# Si number density = 23.139374 Si / 1000 Ang^3
#
#
#
# Elastic Constant Matrix: (Units=GPa)
#
#
# Indices 1 2 3 4 5 6 
#
# 1 107.4327 37.2312 6.8443 0.0000 0.0000 0.0000
# 2 37.2312 158.6730 43.7595 0.0000 0.0000 0.0000
# 3 6.8443 43.7595 36.7616 0.0000 0.0000 0.0000
# 4 0.0000 0.0000 0.0000 59.6346 0.0000 0.0000
# 5 0.0000 0.0000 0.0000 0.0000 3.7160 0.0000
# 6 0.0000 0.0000 0.0000 0.0000 0.0000 35.8013
#
#
#
# Elastic Compliance Matrix: (Units=1/GPa)
#
#
# Indices 1 2 3 4 5 6 
#
# 1 0.010181 -0.002778 0.001411 0.000000 0.000000 0.000000
# 2 -0.002778 0.010140 -0.011553 0.000000 0.000000 0.000000
# 3 0.001411 -0.011553 0.040692 0.000000 0.000000 0.000000
# 4 0.000000 0.000000 0.000000 0.016769 0.000000 0.000000
# 5 0.000000 0.000000 0.000000 0.000000 0.269110 0.000000
# 6 0.000000 0.000000 0.000000 0.000000 0.000000 0.027932
#
#
# Mechanical properties :
#
#
# Convention : Reuss Voigt Hill
#
# Bulk Modulus (GPa) = 28.43056 53.17083 40.80069
# Shear Modulus (GPa) = 12.12446 34.16587 23.14517
#
# Velocity S-wave (km/s) = 2.29153 3.84673 3.16610
# Velocity P-wave (km/s) = 4.39487 6.53897 5.57104
#
# Compressibility (1/GPa) = 0.03517342
#
# Stress axis : x y z
#
# Youngs Moduli (GPa) = 98.22207 98.61540 24.57466
#
# Poissons Ratio (x) = 0.27397 -0.03469
# Poissons Ratio (y) = 0.27288 0.28392
# Poissons Ratio (z) = -0.13864 1.13935
#
# Static dielectric constant tensor:
#      x y z
#    x 1.827640 0.000000 0.000000 
#    y 0.000000 2.026160 0.000000 
#    z 0.000000 0.000000 1.632680 
# 
# From -- ./inp_files/25026.got.cif
#   From: 2010.05.17/outbox.cif.g08.bks.cpg/sg68_13_cif.got.tgz:25026.got - 2010.06.03 18:57:09.
