data_PCOD9510597
_publ_section_title
;
Structure prediction by ZEFSAII (Michael W. Deem and Ramdas Pophale) SiO2 
 PCOD9510597
Probable space group: C C C A
;
_chemical_formula_sum "Si O2"
_cell_formula_units_Z 52
_cell_length_a 15.337394
_cell_length_b 8.005329
_cell_length_c 16.935590
_cell_angle_alpha 90.000000
_cell_angle_beta 90.000000
_cell_angle_gamma 90.000000
_cell_volume 2079.366728
_symmetry_space_group_name_H-M "C C C A"
_symmetry_group_IT_number 68
_space_group.IT_coordinate_system_code '2'
_symmetry_cell_setting 'orthorhombic'
loop_
_space_group_symop_operation_xyz
x,y,z
-x,1/2-y,z
x,1/2-y,1/2-z
-x,y,1/2-z
-x,-y,-z
x,1/2+y,-z
-x,1/2+y,1/2+z
x,-y,1/2+z
1/2+x,1/2+y,z
1/2-x,-y,z
1/2+x,-y,1/2-z
1/2-x,1/2+y,1/2-z
1/2-x,1/2-y,-z
1/2+x,y,-z
1/2-x,y,1/2+z
1/2+x,1/2-y,1/2+z
loop_
_atom_site_type_symbol
_atom_site_label
_atom_site_fract_x
_atom_site_fract_y
_atom_site_fract_z
Si Si1 0.500000 0.250000 0.250000
Si Si2 0.898608 0.250687 0.342547
Si Si3 0.613914 0.092535 0.108128
Si Si4 0.345843 0.538412 0.951250
O O1 0.554058 0.137487 0.185863
O O2 0.900634 0.250000 0.250000
O O3 0.844707 0.417146 0.363942
O O4 0.857716 0.086661 0.378948
O O5 0.000000 0.250000 0.369947
O O6 0.647041 0.274306 0.080950
O O7 0.588971 0.018755 0.020813
O O8 0.250000 0.500000 0.984274
#
# Coordination Sequence:
#
# PCOD9510597 Si02
#       4
#     4  16  16  16
#     4  12  28  48  74 116 146 198 258 320 386 448
#     4  11  25  47  75 111 152 201 256 319 388 457
#     4  12  25  48  77 106 154 194 256 317 376 467
#     4  12  27  47  76 113 150 204 256 317 392 467
#
# _framework density 25.007612000000002
#
# number of rings (size 3 to 8) (size 9 to 14) (size 15 to 20)
#    0.000    0.308    3.077    6.462    2.154    2.462 
#    8.308    1.538    0.000    0.000    0.000    0.000 
#    0.000    0.000    0.000    0.000    0.000    0.000 
#
# Total GULP energy -144776.037332 kJ/mol
# GULP energy per Si atom -5568.309128 kJ/mol
# Density = 2.495069 g / cm^3
# Si number density = 25.007612 Si / 1000 Ang^3
#
#
#
# Elastic Constant Matrix: (Units=GPa)
#
#
# Indices 1 2 3 4 5 6 
#
# 1 84.3321 42.3729 48.3887 0.0000 0.0000 0.0000
# 2 42.3729 272.4251 69.6423 0.0000 0.0000 0.0000
# 3 48.3887 69.6423 150.0668 0.0000 0.0000 0.0000
# 4 0.0000 0.0000 0.0000 196.7652 0.0000 0.0000
# 5 0.0000 0.0000 0.0000 0.0000 25.7680 0.0000
# 6 0.0000 0.0000 0.0000 0.0000 0.0000 -27.6546
#
#
#
# Elastic Compliance Matrix: (Units=1/GPa)
#
#
# Indices 1 2 3 4 5 6 
#
# 1 0.014908 -0.001237 -0.004233 0.000000 0.000000 0.000000
# 2 -0.001237 0.004267 -0.001582 0.000000 0.000000 0.000000
# 3 -0.004233 -0.001582 0.008763 0.000000 0.000000 0.000000
# 4 0.000000 0.000000 0.000000 0.005082 0.000000 0.000000
# 5 0.000000 0.000000 0.000000 0.000000 0.038808 0.000000
# 6 0.000000 0.000000 0.000000 0.000000 0.000000 -0.036160
#
#
# Mechanical properties :
#
#
# Convention : Reuss Voigt Hill
#
# Bulk Modulus (GPa) = 72.27892 91.95906 82.11899
# Shear Modulus (GPa) = 91.94091 62.07040 77.00566
#
# Velocity S-wave (km/s) = 6.07001 4.98743 5.55515
# Velocity P-wave (km/s) = 8.83698 8.36769 8.60553
#
# Compressibility (1/GPa) = 0.01383529
#
# Stress axis : x y z
#
# Youngs Moduli (GPa) = 67.07713 234.33415 114.12012
#
# Poissons Ratio (x) = 0.28979 0.48310
# Poissons Ratio (y) = 0.08295 0.18050
# Poissons Ratio (z) = 0.28395 0.37063
#
# Static dielectric constant tensor:
#      x y z
#    x 2.563800 0.000000 0.000000 
#    y 0.000000 2.014050 0.000000 
#    z 0.000000 0.000000 1.969380 
# 
# From -- ./inp_files/24079.got.cif
#   From: 2010.05.17/outbox.cif.g08.bks.cpg/sg68_13_cif.got.tgz:24079.got - 2010.06.03 18:57:09.
