data_PCOD9510998
_publ_section_title
;
Structure prediction by ZEFSAII (Michael W. Deem and Ramdas Pophale) SiO2 
 PCOD9510998
Probable space group: F M M M
;
_chemical_formula_sum "Si O2"
_cell_formula_units_Z 144
_cell_length_a 32.710659
_cell_length_b 14.346060
_cell_length_c 14.245017
_cell_angle_alpha 90.000000
_cell_angle_beta 90.000000
_cell_angle_gamma 90.000000
_cell_volume 6684.745975
_symmetry_space_group_name_H-M "F M M M"
_symmetry_group_IT_number 69
_symmetry_cell_setting 'orthorhombic'
loop_
_space_group_symop_operation_xyz
x,y,z
-x,-y,z
x,-y,-z
-x,y,-z
-x,-y,-z
x,y,-z
-x,y,z
x,-y,z
x,1/2+y,1/2+z
-x,1/2-y,1/2+z
x,1/2-y,1/2-z
-x,1/2+y,1/2-z
-x,1/2-y,1/2-z
x,1/2+y,1/2-z
-x,1/2+y,1/2+z
x,1/2-y,1/2+z
1/2+x,y,1/2+z
1/2-x,-y,1/2+z
1/2+x,-y,1/2-z
1/2-x,y,1/2-z
1/2-x,-y,1/2-z
1/2+x,y,1/2-z
1/2-x,y,1/2+z
1/2+x,-y,1/2+z
1/2+x,1/2+y,z
1/2-x,1/2-y,z
1/2+x,1/2-y,-z
1/2-x,1/2+y,-z
1/2-x,1/2-y,-z
1/2+x,1/2+y,-z
1/2-x,1/2+y,z
1/2+x,1/2-y,z
loop_
_atom_site_type_symbol
_atom_site_label
_atom_site_fract_x
_atom_site_fract_y
_atom_site_fract_z
Si Si1 0.047235 0.810882 0.500000
Si Si2 0.675671 0.885207 0.000000
Si Si3 0.213341 0.395066 0.808386
Si Si4 0.631142 0.853971 0.293945
Si Si5 0.046208 0.357544 0.213529
Si Si6 0.622725 0.793626 0.500000
O O1 0.053936 0.860963 0.600667
O O2 0.074117 0.718175 0.500000
O O3 0.000000 0.785507 0.500000
O O4 0.700901 0.855663 0.091493
O O5 0.636959 0.815702 0.000000
O O6 0.667819 0.000000 0.000000
O O7 0.227224 0.500000 0.830824
O O8 0.250000 0.351067 0.750000
O O9 0.171491 0.398314 0.749757
O O10 0.631101 0.750000 0.250000
O O11 0.587146 0.895238 0.263630
O O12 0.635514 0.843875 0.405197
O O13 0.044478 0.250000 0.250000
O O14 0.000000 0.394342 0.230827
#
# Coordination Sequence:
#
# PCOD9510998 Si02
#       6
#    16  16  32  32  32  16
#     4  10  16  24  43  71 104 140 175 215 263 315
#     4  10  20  37  59  78 103 141 180 217 264 327
#     4  10  22  40  59  78 105 143 180 215 266 325
#     4  11  20  33  53  80 111 136 174 228 263 311
#     4   9  16  26  44  72 106 139 172 214 263 313
#     4  12  20  33  51  84 109 137 181 223 271 311
#
# _framework density 21.541581999999998
#
# number of rings (size 3 to 8) (size 9 to 14) (size 15 to 20)
#    0.000    1.778    6.667    0.000    0.000    1.333 
#    0.000    2.778    0.000    1.000    0.000    6.222 
#    0.000    2.667    0.000    0.000    0.000    0.000 
#
# Total GULP energy -200578.941961 kJ/mol
# GULP energy per Si atom -5571.637277 kJ/mol
# Density = 2.149255 g / cm^3
# Si number density = 21.541582 Si / 1000 Ang^3
#
#
#
# Elastic Constant Matrix: (Units=GPa)
#
#
# Indices 1 2 3 4 5 6 
#
# 1 145.7446 14.1125 71.6177 0.0000 0.0000 0.0000
# 2 14.1125 60.5650 12.6495 0.0000 0.0000 0.0000
# 3 71.6177 12.6495 202.5298 0.0000 0.0000 0.0000
# 4 0.0000 0.0000 0.0000 -9.7269 0.0000 0.0000
# 5 0.0000 0.0000 0.0000 0.0000 29.5979 0.0000
# 6 0.0000 0.0000 0.0000 0.0000 0.0000 12.5428
#
#
#
# Elastic Compliance Matrix: (Units=1/GPa)
#
#
# Indices 1 2 3 4 5 6 
#
# 1 0.008413 -0.001357 -0.002890 0.000000 0.000000 0.000000
# 2 -0.001357 0.016948 -0.000579 0.000000 0.000000 0.000000
# 3 -0.002890 -0.000579 0.005996 0.000000 0.000000 0.000000
# 4 0.000000 0.000000 0.000000 -0.102808 0.000000 0.000000
# 5 0.000000 0.000000 0.000000 0.000000 0.033786 0.000000
# 6 0.000000 0.000000 0.000000 0.000000 0.000000 0.079727
#
#
# Mechanical properties :
#
#
# Convention : Reuss Voigt Hill
#
# Bulk Modulus (GPa) = 46.07136 67.28873 56.68005
# Shear Modulus (GPa) = 84.81943 27.18007 55.99975
#
# Velocity S-wave (km/s) = 6.28174 3.55596 5.10417
# Velocity P-wave (km/s) = 8.60507 6.94005 7.81702
#
# Compressibility (1/GPa) = 0.02170546
#
# Stress axis : x y z
#
# Youngs Moduli (GPa) = 118.86504 59.00334 166.78581
#
# Poissons Ratio (x) = 0.08005 0.48204
# Poissons Ratio (y) = 0.16126 0.09653
# Poissons Ratio (z) = 0.34354 0.03415
#
# Static dielectric constant tensor:
#      x y z
#    x 1.906500 0.000000 0.000000 
#    y 0.000000 1.792600 0.000000 
#    z 0.000000 0.000000 1.804960 
# 
# From -- ./inp_files/19504.got.cif
#   From: 2010.05.17/outbox.cif.g08.bks.cpg/sg69_10_cif.got.tgz:19504.got - 2010.06.03 19:29:58.
