data_PCOD9510686
_publ_section_title
;
Structure prediction by ZEFSAII (Michael W. Deem and Ramdas Pophale) SiO2 
 PCOD9510686
Probable space group: C C C A
;
_chemical_formula_sum "Si O2"
_cell_formula_units_Z 96
_cell_length_a 14.309381
_cell_length_b 18.388017
_cell_length_c 19.059616
_cell_angle_alpha 90.000000
_cell_angle_beta 90.000000
_cell_angle_gamma 90.000000
_cell_volume 5014.987911
_symmetry_space_group_name_H-M "C C C A"
_symmetry_group_IT_number 68
_space_group.IT_coordinate_system_code '2'
_symmetry_cell_setting 'orthorhombic'
loop_
_space_group_symop_operation_xyz
x,y,z
-x,1/2-y,z
x,1/2-y,1/2-z
-x,y,1/2-z
-x,-y,-z
x,1/2+y,-z
-x,1/2+y,1/2+z
x,-y,1/2+z
1/2+x,1/2+y,z
1/2-x,-y,z
1/2+x,-y,1/2-z
1/2-x,1/2+y,1/2-z
1/2-x,1/2-y,-z
1/2+x,y,-z
1/2-x,y,1/2+z
1/2+x,1/2-y,1/2+z
loop_
_atom_site_type_symbol
_atom_site_label
_atom_site_fract_x
_atom_site_fract_y
_atom_site_fract_z
Si Si1 0.190709 0.683870 0.200442
Si Si2 0.000000 0.469416 0.250000
Si Si3 0.250000 0.000000 0.092425
Si Si4 0.888529 0.409061 0.674510
Si Si5 0.899842 0.528508 0.475358
Si Si6 0.825138 0.559935 0.839391
Si Si7 0.038786 0.821153 0.413285
O O1 0.224422 0.750000 0.250000
O O2 0.135359 0.630862 0.253432
O O3 0.269488 0.635950 0.161466
O O4 0.113312 0.707268 0.144049
O O5 0.049036 0.520995 0.307327
O O6 0.085142 0.430732 0.210578
O O7 0.293391 0.063903 0.139103
O O8 0.168368 0.025497 0.041164
O O9 0.951171 0.359294 0.624867
O O10 0.859670 0.476773 0.412674
O O11 0.911349 0.611957 0.451803
O O12 0.000000 0.500000 0.500000
O O13 0.750000 0.500000 0.811320
O O14 0.000000 0.750000 0.453067
#
# Coordination Sequence:
#
# PCOD9510686 Si02
#       7
#    16   8   8  16  16  16  16
#     4  12  23  37  62  98 131 154 201 271 337 390
#     4  12  20  36  64  96 126 152 212 268 316 378
#     4  12  24  38  62  92 128 160 228 262 296 390
#     4  12  20  35  61  95 122 160 203 266 323 370
#     4  12  23  43  64  91 126 178 224 262 311 381
#     4  12  21  38  64  93 128 168 213 257 325 388
#     4  12  22  38  64  96 124 162 211 272 333 378
#
# _framework density 19.142619
#
# number of rings (size 3 to 8) (size 9 to 14) (size 15 to 20)
#    0.000    0.000   10.833    1.000    0.000    0.000 
#    0.000    2.917    0.000    0.000    0.000    0.000 
#    0.000    0.000    0.000    0.000    0.000    0.000 
#
# Total GULP energy -267998.409182 kJ/mol
# GULP energy per Si atom -5583.300191 kJ/mol
# Density = 1.909905 g / cm^3
# Si number density = 19.142619 Si / 1000 Ang^3
#
#
#
# Elastic Constant Matrix: (Units=GPa)
#
#
# Indices 1 2 3 4 5 6 
#
# 1 101.5590 16.0956 10.0973 0.0000 0.0000 0.0000
# 2 16.0956 78.4754 7.6210 0.0000 0.0000 0.0000
# 3 10.0973 7.6210 31.3996 0.0000 0.0000 0.0000
# 4 0.0000 0.0000 0.0000 10.8386 0.0000 0.0000
# 5 0.0000 0.0000 0.0000 0.0000 44.9310 0.0000
# 6 0.0000 0.0000 0.0000 0.0000 0.0000 24.8630
#
#
#
# Elastic Compliance Matrix: (Units=1/GPa)
#
#
# Indices 1 2 3 4 5 6 
#
# 1 0.010429 -0.001857 -0.002903 0.000000 0.000000 0.000000
# 2 -0.001857 0.013381 -0.002650 0.000000 0.000000 0.000000
# 3 -0.002903 -0.002650 0.033424 0.000000 0.000000 0.000000
# 4 0.000000 0.000000 0.000000 0.092262 0.000000 0.000000
# 5 0.000000 0.000000 0.000000 0.000000 0.022256 0.000000
# 6 0.000000 0.000000 0.000000 0.000000 0.000000 0.040220
#
#
# Mechanical properties :
#
#
# Convention : Reuss Voigt Hill
#
# Bulk Modulus (GPa) = 23.57743 31.00684 27.29214
# Shear Modulus (GPa) = 20.75261 27.96787 24.36024
#
# Velocity S-wave (km/s) = 3.29615 3.82648 3.57117
# Velocity P-wave (km/s) = 5.17973 5.97960 5.59398
#
# Compressibility (1/GPa) = 0.04241344
#
# Stress axis : x y z
#
# Youngs Moduli (GPa) = 95.88218 74.73195 29.91830
#
# Poissons Ratio (x) = 0.13879 0.08686
# Poissons Ratio (y) = 0.17807 0.07930
# Poissons Ratio (z) = 0.27835 0.19808
#
# Static dielectric constant tensor:
#      x y z
#    x 1.785580 0.000000 0.000000 
#    y 0.000000 1.689110 0.000000 
#    z 0.000000 0.000000 1.676460 
# 
# From -- ./inp_files/37696.got.cif
#   From: 2010.05.17/outbox.cif.g08.bks.cpg/sg68_19_cif.got.tgz:37696.got - 2010.06.03 18:57:09.
