data_PCOD9510434
_publ_section_title
;
Structure prediction by ZEFSAII (Michael W. Deem and Ramdas Pophale) SiO2 
 PCOD9510434
Probable space group: C C C A
;
_chemical_formula_sum "Si O2"
_cell_formula_units_Z 64
_cell_length_a 8.756065
_cell_length_b 11.104013
_cell_length_c 24.080533
_cell_angle_alpha 90.000000
_cell_angle_beta 90.000000
_cell_angle_gamma 90.000000
_cell_volume 2341.289049
_symmetry_space_group_name_H-M "C C C A"
_symmetry_group_IT_number 68
_space_group.IT_coordinate_system_code '2'
_symmetry_cell_setting 'orthorhombic'
loop_
_space_group_symop_operation_xyz
x,y,z
-x,1/2-y,z
x,1/2-y,1/2-z
-x,y,1/2-z
-x,-y,-z
x,1/2+y,-z
-x,1/2+y,1/2+z
x,-y,1/2+z
1/2+x,1/2+y,z
1/2-x,-y,z
1/2+x,-y,1/2-z
1/2-x,1/2+y,1/2-z
1/2-x,1/2-y,-z
1/2+x,y,-z
1/2-x,y,1/2+z
1/2+x,1/2-y,1/2+z
loop_
_atom_site_type_symbol
_atom_site_label
_atom_site_fract_x
_atom_site_fract_y
_atom_site_fract_z
Si Si1 0.608634 0.411705 0.454869
Si Si2 0.927224 0.881744 0.913453
Si Si3 0.175443 0.750677 0.137366
Si Si4 0.325082 0.122205 0.770386
O O1 0.750000 0.500000 0.459191
O O2 0.572473 0.385253 0.518739
O O3 0.500685 0.483814 0.410630
O O4 0.655575 0.288102 0.426666
O O5 0.784261 0.866683 0.870897
O O6 0.000000 0.750000 0.902509
O O7 0.276027 0.643842 0.165876
O O8 0.000000 0.750000 0.159949
O O9 0.258384 0.250000 0.750000
O O10 0.500000 0.120444 0.750000
O O11 0.250000 0.000000 0.751136
#
# Coordination Sequence:
#
# PCOD9510434 Si02
#       4
#    16  16  16  16
#     4  11  24  42  71 110 160 214 268 324 396 482
#     4  11  25  43  69 107 163 213 262 327 390 480
#     4  12  28  47  78 116 156 209 274 335 414 495
#     4  11  30  56  86 119 160 207 275 355 430 511
#
# _framework density 27.335370000000001
#
# number of rings (size 3 to 8) (size 9 to 14) (size 15 to 20)
#    0.000    0.750    2.500    2.250   14.000    0.000 
#    0.000    0.000    0.000    0.000    0.000    0.000 
#    0.000    0.000    0.000    0.000    0.000    0.000 
#
# Total GULP energy -178216.586006 kJ/mol
# GULP energy per Si atom -5569.268313 kJ/mol
# Density = 2.727315 g / cm^3
# Si number density = 27.335370 Si / 1000 Ang^3
#
#
#
# Elastic Constant Matrix: (Units=GPa)
#
#
# Indices 1 2 3 4 5 6 
#
# 1 163.8703 66.4597 40.5071 0.0000 0.0000 0.0000
# 2 66.4597 171.2971 21.6036 0.0000 0.0000 0.0000
# 3 40.5071 21.6036 64.9639 0.0000 0.0000 0.0000
# 4 0.0000 0.0000 0.0000 47.8677 0.0000 0.0000
# 5 0.0000 0.0000 0.0000 0.0000 217.0068 0.0000
# 6 0.0000 0.0000 0.0000 0.0000 0.0000 58.7615
#
#
#
# Elastic Compliance Matrix: (Units=1/GPa)
#
#
# Indices 1 2 3 4 5 6 
#
# 1 0.008230 -0.002657 -0.004248 0.000000 0.000000 0.000000
# 2 -0.002657 0.006951 -0.000655 0.000000 0.000000 0.000000
# 3 -0.004248 -0.000655 0.018260 0.000000 0.000000 0.000000
# 4 0.000000 0.000000 0.000000 0.020891 0.000000 0.000000
# 5 0.000000 0.000000 0.000000 0.000000 0.004608 0.000000
# 6 0.000000 0.000000 0.000000 0.000000 0.000000 0.017018
#
#
# Mechanical properties :
#
#
# Convention : Reuss Voigt Hill
#
# Bulk Modulus (GPa) = 54.58234 73.03023 63.80629
# Shear Modulus (GPa) = 51.44791 82.83127 67.13959
#
# Velocity S-wave (km/s) = 4.34302 5.51068 4.96133
# Velocity P-wave (km/s) = 6.72013 8.20150 7.49749
#
# Compressibility (1/GPa) = 0.01832094
#
# Stress axis : x y z
#
# Youngs Moduli (GPa) = 121.50362 143.85616 54.76537
#
# Poissons Ratio (x) = 0.38228 0.23265
# Poissons Ratio (y) = 0.32288 0.03586
# Poissons Ratio (z) = 0.51616 0.09418
#
# Static dielectric constant tensor:
#      x y z
#    x 1.955800 0.000000 0.000000 
#    y 0.000000 1.644160 0.000000 
#    z 0.000000 0.000000 2.407220 
# 
# From -- ./inp_files/53769.got.cif
#   From: 2010.05.17/outbox.cif.g08.bks.cpg/sg68_27_cif.got.tgz:53769.got - 2010.06.03 18:57:09.
