data_PCOD9510793
_publ_section_title
;
Structure prediction by ZEFSAII (Michael W. Deem and Ramdas Pophale) SiO2 
 PCOD9510793
Probable space group: C C C A
;
_chemical_formula_sum "Si O2"
_cell_formula_units_Z 96
_cell_length_a 20.700213
_cell_length_b 13.545179
_cell_length_c 15.094815
_cell_angle_alpha 90.000000
_cell_angle_beta 90.000000
_cell_angle_gamma 90.000000
_cell_volume 4232.406353
_symmetry_space_group_name_H-M "C C C A"
_symmetry_group_IT_number 68
_space_group.IT_coordinate_system_code '2'
_symmetry_cell_setting 'orthorhombic'
loop_
_space_group_symop_operation_xyz
x,y,z
-x,1/2-y,z
x,1/2-y,1/2-z
-x,y,1/2-z
-x,-y,-z
x,1/2+y,-z
-x,1/2+y,1/2+z
x,-y,1/2+z
1/2+x,1/2+y,z
1/2-x,-y,z
1/2+x,-y,1/2-z
1/2-x,1/2+y,1/2-z
1/2-x,1/2-y,-z
1/2+x,y,-z
1/2-x,y,1/2+z
1/2+x,1/2-y,1/2+z
loop_
_atom_site_type_symbol
_atom_site_label
_atom_site_fract_x
_atom_site_fract_y
_atom_site_fract_z
Si Si1 0.750000 0.000000 0.377754
Si Si2 0.198577 0.206346 0.065870
Si Si3 0.424294 0.727908 0.549251
Si Si4 0.429584 0.580973 0.233496
Si Si5 0.071517 0.998766 0.458597
Si Si6 0.329027 0.750000 0.250000
Si Si7 0.380643 0.082597 0.141323
O O1 0.714692 0.909957 0.428106
O O2 0.807700 0.941772 0.328181
O O3 0.210163 0.256441 0.160539
O O4 0.250000 0.250000 0.000000
O O5 0.126503 0.233201 0.032284
O O6 0.500000 0.750000 0.527987
O O7 0.417348 0.613141 0.572635
O O8 0.401663 0.804505 0.625324
O O9 0.500000 0.624826 0.250000
O O10 0.422248 0.562216 0.129520
O O11 0.374184 0.655011 0.264092
O O12 0.424814 0.481546 0.292828
O O13 0.112616 0.040025 0.540710
O O14 0.000000 0.000000 0.500000
#
# Coordination Sequence:
#
# PCOD9510793 Si02
#       7
#     8  16  16  16  16   8  16
#     4  12  24  50  72 100 154 196 240 306 366 444
#     4  12  27  48  75 105 149 195 245 307 374 444
#     4  12  24  43  76 111 146 194 246 304 372 447
#     4  12  25  45  72 108 151 188 237 312 370 437
#     4  12  24  43  70 108 145 191 239 292 381 444
#     4  12  27  44  76 114 131 194 260 294 372 444
#     4  12  25  46  70 104 153 188 243 308 361 445
#
# _framework density 22.682131999999999
#
# number of rings (size 3 to 8) (size 9 to 14) (size 15 to 20)
#    0.000    0.000    8.333    1.250    0.000    0.667 
#    3.000    3.333    0.000    0.000    0.000    0.000 
#    0.000    0.000    0.000    0.000    0.000    0.000 
#
# Total GULP energy -268191.186466 kJ/mol
# GULP energy per Si atom -5587.316385 kJ/mol
# Density = 2.263051 g / cm^3
# Si number density = 22.682132 Si / 1000 Ang^3
#
#
#
# Elastic Constant Matrix: (Units=GPa)
#
#
# Indices 1 2 3 4 5 6 
#
# 1 97.3361 4.4643 20.2250 0.0000 0.0000 0.0000
# 2 4.4643 110.2552 4.9261 0.0000 0.0000 0.0000
# 3 20.2250 4.9261 118.0151 0.0000 0.0000 0.0000
# 4 0.0000 0.0000 0.0000 20.6037 0.0000 0.0000
# 5 0.0000 0.0000 0.0000 0.0000 21.1350 0.0000
# 6 0.0000 0.0000 0.0000 0.0000 0.0000 30.2102
#
#
#
# Elastic Compliance Matrix: (Units=1/GPa)
#
#
# Indices 1 2 3 4 5 6 
#
# 1 0.010667 -0.000351 -0.001813 0.000000 0.000000 0.000000
# 2 -0.000351 0.009098 -0.000320 0.000000 0.000000 0.000000
# 3 -0.001813 -0.000320 0.008798 0.000000 0.000000 0.000000
# 4 0.000000 0.000000 0.000000 0.048535 0.000000 0.000000
# 5 0.000000 0.000000 0.000000 0.000000 0.047315 0.000000
# 6 0.000000 0.000000 0.000000 0.000000 0.000000 0.033101
#
#
# Mechanical properties :
#
#
# Convention : Reuss Voigt Hill
#
# Bulk Modulus (GPa) = 42.38227 42.75969 42.57098
# Shear Modulus (GPa) = 29.35197 34.12252 31.73724
#
# Velocity S-wave (km/s) = 3.60120 3.88284 3.74467
# Velocity P-wave (km/s) = 6.00145 6.24456 6.12421
#
# Compressibility (1/GPa) = 0.02359477
#
# Stress axis : x y z
#
# Youngs Moduli (GPa) = 93.75096 109.90993 113.66740
#
# Poissons Ratio (x) = 0.03856 0.20612
# Poissons Ratio (y) = 0.03289 0.03633
# Poissons Ratio (z) = 0.17000 0.03513
#
# Static dielectric constant tensor:
#      x y z
#    x 1.791710 0.000000 0.000000 
#    y 0.000000 1.877220 0.000000 
#    z 0.000000 0.000000 1.745330 
# 
# From -- ./inp_files/24498.got.cif
#   From: 2010.05.17/outbox.cif.g08.bks.cpg/sg68_13_cif.got.tgz:24498.got - 2010.06.03 18:57:09.
