data_PCOD9510171
_publ_section_title
;
Structure prediction by ZEFSAII (Michael W. Deem and Ramdas Pophale) SiO2 
 PCOD9510171
Probable space group: C C C A
;
_chemical_formula_sum "Si O2"
_cell_formula_units_Z 112
_cell_length_a 15.702714
_cell_length_b 22.618912
_cell_length_c 14.505130
_cell_angle_alpha 90.000000
_cell_angle_beta 90.000000
_cell_angle_gamma 90.000000
_cell_volume 5151.907504
_symmetry_space_group_name_H-M "C C C A"
_symmetry_group_IT_number 68
_space_group.IT_coordinate_system_code '2'
_symmetry_cell_setting 'orthorhombic'
loop_
_space_group_symop_operation_xyz
x,y,z
-x,1/2-y,z
x,1/2-y,1/2-z
-x,y,1/2-z
-x,-y,-z
x,1/2+y,-z
-x,1/2+y,1/2+z
x,-y,1/2+z
1/2+x,1/2+y,z
1/2-x,-y,z
1/2+x,-y,1/2-z
1/2-x,1/2+y,1/2-z
1/2-x,1/2-y,-z
1/2+x,y,-z
1/2-x,y,1/2+z
1/2+x,1/2-y,1/2+z
loop_
_atom_site_type_symbol
_atom_site_label
_atom_site_fract_x
_atom_site_fract_y
_atom_site_fract_z
Si Si1 0.293723 0.305987 0.309609
Si Si2 0.580718 0.475217 0.622989
Si Si3 0.862858 0.920579 0.508405
Si Si4 0.188609 0.129098 0.051912
Si Si5 0.542725 0.689164 0.565057
Si Si6 0.122624 0.870062 0.358146
Si Si7 0.885678 0.008276 0.173033
O O1 0.271276 0.250000 0.250000
O O2 0.213157 0.324644 0.370120
O O3 0.374477 0.293209 0.375542
O O4 0.330164 0.352619 0.235515
O O5 0.592407 0.527384 0.549299
O O6 0.613227 0.414251 0.580641
O O7 0.630975 0.487442 0.718400
O O8 0.482874 0.473280 0.651762
O O9 0.775634 0.907745 0.455702
O O10 0.921007 0.861511 0.503978
O O11 0.836801 0.945722 0.608225
O O12 0.169880 0.153015 0.950083
O O13 0.500000 0.750000 0.528653
O O14 0.472486 0.656887 0.630554
O O15 0.121530 0.941002 0.359943
#
# Coordination Sequence:
#
# PCOD9510171 Si02
#       7
#    16  16  16  16  16  16  16
#     4  11  25  44  68  95 133 172 225 282 333 393
#     4  11  22  40  61  93 130 168 219 268 322 397
#     4  11  22  42  62  95 137 171 211 267 336 398
#     4  11  26  41  60  96 136 172 210 269 334 414
#     4  11  22  41  69  99 125 163 227 285 322 377
#     4  12  23  40  69  94 130 172 217 273 338 385
#     4  11  23  38  68  93 127 176 216 268 329 397
#
# _framework density 21.739521
#
# number of rings (size 3 to 8) (size 9 to 14) (size 15 to 20)
#    0.000    0.857    4.286    3.857    4.000    0.571 
#    0.000    0.000    0.000    0.000    0.000    1.000 
#    0.000    0.000    0.000    0.000    0.000    0.000 
#
# Total GULP energy -313077.554057 kJ/mol
# GULP energy per Si atom -5590.670608 kJ/mol
# Density = 2.169004 g / cm^3
# Si number density = 21.739521 Si / 1000 Ang^3
#
#
#
# Elastic Constant Matrix: (Units=GPa)
#
#
# Indices 1 2 3 4 5 6 
#
# 1 54.4897 13.7191 -0.4275 0.0000 0.0000 0.0000
# 2 13.7191 88.6210 31.8595 0.0000 0.0000 0.0000
# 3 -0.4275 31.8595 88.5051 0.0000 0.0000 0.0000
# 4 0.0000 0.0000 0.0000 29.6386 0.0000 0.0000
# 5 0.0000 0.0000 0.0000 0.0000 6.7876 0.0000
# 6 0.0000 0.0000 0.0000 0.0000 0.0000 4.8771
#
#
#
# Elastic Compliance Matrix: (Units=1/GPa)
#
#
# Indices 1 2 3 4 5 6 
#
# 1 0.019233 -0.003458 0.001338 0.000000 0.000000 0.000000
# 2 -0.003458 0.013583 -0.004906 0.000000 0.000000 0.000000
# 3 0.001338 -0.004906 0.013071 0.000000 0.000000 0.000000
# 4 0.000000 0.000000 0.000000 0.033740 0.000000 0.000000
# 5 0.000000 0.000000 0.000000 0.000000 0.147327 0.000000
# 6 0.000000 0.000000 0.000000 0.000000 0.000000 0.205039
#
#
# Mechanical properties :
#
#
# Convention : Reuss Voigt Hill
#
# Bulk Modulus (GPa) = 31.41277 35.76866 33.59072
# Shear Modulus (GPa) = 10.94909 20.69164 15.82037
#
# Velocity S-wave (km/s) = 2.24665 3.08847 2.70056
# Velocity P-wave (km/s) = 4.60553 5.40437 5.02086
#
# Compressibility (1/GPa) = 0.03183419
#
# Stress axis : x y z
#
# Youngs Moduli (GPa) = 51.99312 73.62022 76.50293
#
# Poissons Ratio (x) = 0.25461 -0.10235
# Poissons Ratio (y) = 0.17981 0.37535
# Poissons Ratio (z) = -0.06956 0.36120
#
# Static dielectric constant tensor:
#      x y z
#    x 1.818060 0.000000 0.000000 
#    y 0.000000 1.806360 0.000000 
#    z 0.000000 0.000000 1.879080 
# 
# From -- ./inp_files/22620.got.cif
#   From: 2010.05.17/outbox.cif.g08.bks.cpg/sg68_12_cif.got.tgz:22620.got - 2010.06.03 18:57:09.
