data_PCOD9510690
_publ_section_title
;
Structure prediction by ZEFSAII (Michael W. Deem and Ramdas Pophale) SiO2 
 PCOD9510690
Probable space group: C C C A
;
_chemical_formula_sum "Si O2"
_cell_formula_units_Z 68
_cell_length_a 13.170429
_cell_length_b 17.716963
_cell_length_c 13.999213
_cell_angle_alpha 90.000000
_cell_angle_beta 90.000000
_cell_angle_gamma 90.000000
_cell_volume 3266.576407
_symmetry_space_group_name_H-M "C C C A"
_symmetry_group_IT_number 68
_space_group.IT_coordinate_system_code '2'
_symmetry_cell_setting 'orthorhombic'
loop_
_space_group_symop_operation_xyz
x,y,z
-x,1/2-y,z
x,1/2-y,1/2-z
-x,y,1/2-z
-x,-y,-z
x,1/2+y,-z
-x,1/2+y,1/2+z
x,-y,1/2+z
1/2+x,1/2+y,z
1/2-x,-y,z
1/2+x,-y,1/2-z
1/2-x,1/2+y,1/2-z
1/2-x,1/2-y,-z
1/2+x,y,-z
1/2-x,y,1/2+z
1/2+x,1/2-y,1/2+z
loop_
_atom_site_type_symbol
_atom_site_label
_atom_site_fract_x
_atom_site_fract_y
_atom_site_fract_z
Si Si1 0.369357 0.843013 0.901425
Si Si2 0.652714 0.650992 0.312916
Si Si3 0.549590 0.997391 0.151667
Si Si4 0.500000 0.750000 0.750000
Si Si5 0.936895 0.847886 0.890203
O O1 0.500000 0.975255 0.750000
O O2 0.404909 0.930450 0.899135
O O3 0.434077 0.800167 0.821764
O O4 0.392990 0.820120 0.010142
O O5 0.639352 0.560638 0.323105
O O6 0.754369 0.670474 0.367562
O O7 0.637814 0.666562 0.199938
O O8 0.550038 0.680973 0.363116
O O9 0.465374 0.939308 0.107099
#
# Coordination Sequence:
#
# PCOD9510690 Si02
#       5
#    16  16  16   4  16
#     4  12  20  41  57  85 132 168 200 240 320 376
#     4   8  19  37  62  94 113 150 210 269 313 344
#     4   8  16  36  61  90 120 146 200 274 308 350
#     4  12  32  36  56  96 140 176 184 254 300 388
#     4   8  19  37  63  94 113 152 211 267 312 350
#
# _framework density 20.816901000000001
#
# number of rings (size 3 to 8) (size 9 to 14) (size 15 to 20)
#    1.412    1.412    1.176    1.412    0.000    1.882 
#    0.000    7.059    0.000    2.824    0.000    0.000 
#    0.000    0.000    0.000    0.000    0.000    0.000 
#
# Total GULP energy -189275.524434 kJ/mol
# GULP energy per Si atom -5566.927189 kJ/mol
# Density = 2.076952 g / cm^3
# Si number density = 20.816901 Si / 1000 Ang^3
#
#
#
# Elastic Constant Matrix: (Units=GPa)
#
#
# Indices 1 2 3 4 5 6 
#
# 1 123.0581 25.3275 103.0723 0.0000 0.0000 0.0000
# 2 25.3275 72.0258 41.7253 0.0000 0.0000 0.0000
# 3 103.0723 41.7253 222.6610 0.0000 0.0000 0.0000
# 4 0.0000 0.0000 0.0000 23.6477 0.0000 0.0000
# 5 0.0000 0.0000 0.0000 0.0000 33.0028 0.0000
# 6 0.0000 0.0000 0.0000 0.0000 0.0000 23.0218
#
#
#
# Elastic Compliance Matrix: (Units=1/GPa)
#
#
# Indices 1 2 3 4 5 6 
#
# 1 0.013372 -0.001252 -0.005956 0.000000 0.000000 0.000000
# 2 -0.001252 0.015692 -0.002361 0.000000 0.000000 0.000000
# 3 -0.005956 -0.002361 0.007690 0.000000 0.000000 0.000000
# 4 0.000000 0.000000 0.000000 0.042287 0.000000 0.000000
# 5 0.000000 0.000000 0.000000 0.000000 0.030300 0.000000
# 6 0.000000 0.000000 0.000000 0.000000 0.000000 0.043437
#
#
# Mechanical properties :
#
#
# Convention : Reuss Voigt Hill
#
# Bulk Modulus (GPa) = 56.76215 84.22168 70.49191
# Shear Modulus (GPa) = 28.12318 32.44244 30.28281
#
# Velocity S-wave (km/s) = 3.67955 3.95202 3.81822
# Velocity P-wave (km/s) = 6.73637 7.83395 7.30580
#
# Compressibility (1/GPa) = 0.01761737
#
# Stress axis : x y z
#
# Youngs Moduli (GPa) = 74.78175 63.72696 130.03177
#
# Poissons Ratio (x) = 0.07980 0.77441
# Poissons Ratio (y) = 0.09364 0.30699
# Poissons Ratio (z) = 0.44536 0.15045
#
# Static dielectric constant tensor:
#      x y z
#    x 1.720430 0.000000 0.000000 
#    y 0.000000 1.824670 0.000000 
#    z 0.000000 0.000000 1.728410 
# 
# From -- ./inp_files/13389.got.cif
#   From: 2010.05.17/outbox.cif.g08.bks.cpg/sg68_7_cif.got.tgz:13389.got - 2010.06.03 18:57:09.
