data_PCOD9510028
_publ_section_title
;
Structure prediction by ZEFSAII (Michael W. Deem and Ramdas Pophale) SiO2 
 PCOD9510028
Probable space group: C C C A
;
_chemical_formula_sum "Si O2"
_cell_formula_units_Z 68
_cell_length_a 19.739868
_cell_length_b 16.106600
_cell_length_c 8.458177
_cell_angle_alpha 90.000000
_cell_angle_beta 90.000000
_cell_angle_gamma 90.000000
_cell_volume 2689.211048
_symmetry_space_group_name_H-M "C C C A"
_symmetry_group_IT_number 68
_space_group.IT_coordinate_system_code '2'
_symmetry_cell_setting 'orthorhombic'
loop_
_space_group_symop_operation_xyz
x,y,z
-x,1/2-y,z
x,1/2-y,1/2-z
-x,y,1/2-z
-x,-y,-z
x,1/2+y,-z
-x,1/2+y,1/2+z
x,-y,1/2+z
1/2+x,1/2+y,z
1/2-x,-y,z
1/2+x,-y,1/2-z
1/2-x,1/2+y,1/2-z
1/2-x,1/2-y,-z
1/2+x,y,-z
1/2-x,y,1/2+z
1/2+x,1/2-y,1/2+z
loop_
_atom_site_type_symbol
_atom_site_label
_atom_site_fract_x
_atom_site_fract_y
_atom_site_fract_z
Si Si1 0.075020 0.387765 0.187522
Si Si2 0.500000 0.250000 0.250000
Si Si3 0.900616 0.210958 0.487113
Si Si4 0.687504 0.560921 0.520234
Si Si5 0.722000 0.169904 0.196332
O O1 0.106347 0.361076 0.356625
O O2 0.077086 0.298898 0.092321
O O3 0.000000 0.411730 0.250000
O O4 0.115705 0.451811 0.072487
O O5 0.546408 0.303040 0.369583
O O6 0.829616 0.211132 0.574823
O O7 0.750000 0.500000 0.564424
O O8 0.680343 0.617050 0.675703
O O9 0.725366 0.611915 0.385674
O O10 0.763259 0.250000 0.250000
#
# Coordination Sequence:
#
# PCOD9510028 Si02
#       5
#    16   4  16  16  16
#     4  11  22  42  70 111 155 202 249 313 393 461
#     4  12  16  34  56 104 160 174 234 300 386 426
#     4  11  21  36  69 110 152 190 246 321 381 461
#     4  12  27  46  71 105 160 206 261 317 392 466
#     4  12  24  43  72 106 145 201 262 333 383 451
#
# _framework density 25.286228000000001
#
# number of rings (size 3 to 8) (size 9 to 14) (size 15 to 20)
#    0.000    0.471    5.882    3.529    3.294    0.000 
#    0.000    1.176    2.588    4.235    0.000    0.000 
#    0.000    0.000    0.000    0.000    0.000    0.000 
#
# Total GULP energy -189676.354015 kJ/mol
# GULP energy per Si atom -5578.716295 kJ/mol
# Density = 2.522868 g / cm^3
# Si number density = 25.286228 Si / 1000 Ang^3
#
#
#
# Elastic Constant Matrix: (Units=GPa)
#
#
# Indices 1 2 3 4 5 6 
#
# 1 120.5840 11.9210 37.4895 0.0000 0.0000 0.0000
# 2 11.9210 40.7642 23.2354 0.0000 0.0000 0.0000
# 3 37.4895 23.2354 134.8382 0.0000 0.0000 0.0000
# 4 0.0000 0.0000 0.0000 29.6638 0.0000 0.0000
# 5 0.0000 0.0000 0.0000 0.0000 53.7482 0.0000
# 6 0.0000 0.0000 0.0000 0.0000 0.0000 27.0251
#
#
#
# Elastic Compliance Matrix: (Units=1/GPa)
#
#
# Indices 1 2 3 4 5 6 
#
# 1 0.009145 -0.001358 -0.002309 0.000000 0.000000 0.000000
# 2 -0.001358 0.027405 -0.004345 0.000000 0.000000 0.000000
# 3 -0.002309 -0.004345 0.008807 0.000000 0.000000 0.000000
# 4 0.000000 0.000000 0.000000 0.033711 0.000000 0.000000
# 5 0.000000 0.000000 0.000000 0.000000 0.018605 0.000000
# 6 0.000000 0.000000 0.000000 0.000000 0.000000 0.037003
#
#
# Mechanical properties :
#
#
# Convention : Reuss Voigt Hill
#
# Bulk Modulus (GPa) = 34.09085 49.05312 41.57198
# Shear Modulus (GPa) = 31.15706 36.99012 34.07359
#
# Velocity S-wave (km/s) = 3.51404 3.82888 3.67483
# Velocity P-wave (km/s) = 5.47503 6.24407 5.87215
#
# Compressibility (1/GPa) = 0.02933339
#
# Stress axis : x y z
#
# Youngs Moduli (GPa) = 109.34944 36.48957 113.54819
#
# Poissons Ratio (x) = 0.04957 0.26213
# Poissons Ratio (y) = 0.14855 0.49334
# Poissons Ratio (z) = 0.25244 0.15854
#
# Static dielectric constant tensor:
#      x y z
#    x 2.136600 0.000000 0.000000 
#    y 0.000000 2.078850 0.000000 
#    z 0.000000 0.000000 2.044160 
# 
# From -- ./inp_files/6826.got.cif
#   From: 2010.05.17/outbox.cif.g08.bks.cpg/sg68_4_cif.got.tgz:6826.got - 2010.06.03 18:57:09.
