data_PCOD9510144
_publ_section_title
;
Structure prediction by ZEFSAII (Michael W. Deem and Ramdas Pophale) SiO2 
 PCOD9510144
Probable space group: C C C A
;
_chemical_formula_sum "Si O2"
_cell_formula_units_Z 72
_cell_length_a 12.511518
_cell_length_b 21.417191
_cell_length_c 13.839991
_cell_angle_alpha 90.000000
_cell_angle_beta 90.000000
_cell_angle_gamma 90.000000
_cell_volume 3708.585727
_symmetry_space_group_name_H-M "C C C A"
_symmetry_group_IT_number 68
_space_group.IT_coordinate_system_code '2'
_symmetry_cell_setting 'orthorhombic'
loop_
_space_group_symop_operation_xyz
x,y,z
-x,1/2-y,z
x,1/2-y,1/2-z
-x,y,1/2-z
-x,-y,-z
x,1/2+y,-z
-x,1/2+y,1/2+z
x,-y,1/2+z
1/2+x,1/2+y,z
1/2-x,-y,z
1/2+x,-y,1/2-z
1/2-x,1/2+y,1/2-z
1/2-x,1/2-y,-z
1/2+x,y,-z
1/2-x,y,1/2+z
1/2+x,1/2-y,1/2+z
loop_
_atom_site_type_symbol
_atom_site_label
_atom_site_fract_x
_atom_site_fract_y
_atom_site_fract_z
Si Si1 0.588982 0.567008 0.607823
Si Si2 0.902662 0.799147 0.492478
Si Si3 0.750000 0.000000 0.028812
Si Si4 0.355717 0.585446 0.677795
Si Si5 0.763723 0.217353 0.650234
O O1 0.576474 0.632385 0.550263
O O2 0.649840 0.518101 0.539366
O O3 0.468393 0.555875 0.644110
O O4 0.656217 0.572845 0.707894
O O5 0.821791 0.767648 0.416717
O O6 0.841328 0.804705 0.593836
O O7 0.000000 0.750000 0.500750
O O8 0.727094 0.056480 0.102210
O O9 0.345107 0.659955 0.666639
O O10 0.736165 0.250000 0.750000
#
# Coordination Sequence:
#
# PCOD9510144 Si02
#       5
#    16  16   8  16  16
#     4  11  23  40  66  93 122 165 212 258 306 379
#     4  11  22  38  64  95 124 160 204 259 318 370
#     4  12  24  44  62  88 130 168 206 262 310 370
#     4  11  23  40  64  93 123 165 213 254 311 374
#     4  11  22  38  64  93 125 161 203 257 318 371
#
# _framework density 19.414408999999999
#
# number of rings (size 3 to 8) (size 9 to 14) (size 15 to 20)
#    0.000    0.889    6.667    1.333    0.000    0.889 
#    0.000    0.000    0.000    0.000    0.000    0.000 
#    0.000    0.000    0.000    0.000    0.000    0.000 
#
# Total GULP energy -200750.363251 kJ/mol
# GULP energy per Si atom -5576.398979 kJ/mol
# Density = 1.937022 g / cm^3
# Si number density = 19.414409 Si / 1000 Ang^3
#
#
#
# Elastic Constant Matrix: (Units=GPa)
#
#
# Indices 1 2 3 4 5 6 
#
# 1 46.7687 -3.8360 35.9471 0.0000 0.0000 0.0000
# 2 -3.8360 54.8247 21.6504 0.0000 0.0000 0.0000
# 3 35.9471 21.6504 130.1570 0.0000 0.0000 0.0000
# 4 0.0000 0.0000 0.0000 30.7132 0.0000 0.0000
# 5 0.0000 0.0000 0.0000 0.0000 18.8977 0.0000
# 6 0.0000 0.0000 0.0000 0.0000 0.0000 24.8294
#
#
#
# Elastic Compliance Matrix: (Units=1/GPa)
#
#
# Indices 1 2 3 4 5 6 
#
# 1 0.028604 0.005481 -0.008812 0.000000 0.000000 0.000000
# 2 0.005481 0.020573 -0.004936 0.000000 0.000000 0.000000
# 3 -0.008812 -0.004936 0.010938 0.000000 0.000000 0.000000
# 4 0.000000 0.000000 0.000000 0.032559 0.000000 0.000000
# 5 0.000000 0.000000 0.000000 0.000000 0.052916 0.000000
# 6 0.000000 0.000000 0.000000 0.000000 0.000000 0.040275
#
#
# Mechanical properties :
#
#
# Convention : Reuss Voigt Hill
#
# Bulk Modulus (GPa) = 22.94541 37.69705 30.32123
# Shear Modulus (GPa) = 23.04942 26.75400 24.90171
#
# Velocity S-wave (km/s) = 3.44936 3.71624 3.58528
# Velocity P-wave (km/s) = 5.26389 6.15411 5.72633
#
# Compressibility (1/GPa) = 0.04358170
#
# Stress axis : x y z
#
# Youngs Moduli (GPa) = 34.95990 48.60824 91.42684
#
# Poissons Ratio (x) = -0.26643 0.80563
# Poissons Ratio (y) = -0.19162 0.45127
# Poissons Ratio (z) = 0.30806 0.23992
#
# Static dielectric constant tensor:
#      x y z
#    x 1.709390 0.000000 0.000000 
#    y 0.000000 1.713770 0.000000 
#    z 0.000000 0.000000 1.670700 
# 
# From -- ./inp_files/11818.got.cif
#   From: 2010.05.17/outbox.cif.g08.bks.cpg/sg68_6_cif.got.tgz:11818.got - 2010.06.03 18:57:09.
