data_PCOD9510926
_publ_section_title
;
Structure prediction by ZEFSAII (Michael W. Deem and Ramdas Pophale) SiO2 
 PCOD9510926
Probable space group: C C C A
;
_chemical_formula_sum "Si O2"
_cell_formula_units_Z 52
_cell_length_a 9.000000
_cell_length_b 24.000000
_cell_length_c 27.000000
_cell_angle_alpha 90.000000
_cell_angle_beta 90.000000
_cell_angle_gamma 90.000000
_cell_volume 5832.000000
_symmetry_space_group_name_H-M "C C C A"
_symmetry_group_IT_number 68
_space_group.IT_coordinate_system_code '2'
_symmetry_cell_setting 'orthorhombic'
loop_
_space_group_symop_operation_xyz
x,y,z
-x,1/2-y,z
x,1/2-y,1/2-z
-x,y,1/2-z
-x,-y,-z
x,1/2+y,-z
-x,1/2+y,1/2+z
x,-y,1/2+z
1/2+x,1/2+y,z
1/2-x,-y,z
1/2+x,-y,1/2-z
1/2-x,1/2+y,1/2-z
1/2-x,1/2-y,-z
1/2+x,y,-z
1/2-x,y,1/2+z
1/2+x,1/2-y,1/2+z
loop_
_atom_site_type_symbol
_atom_site_label
_atom_site_fract_x
_atom_site_fract_y
_atom_site_fract_z
Si Si1 0.587435 0.693725 0.160149
Si Si2 0.750000 0.500000 0.865864
Si Si3 0.610950 0.597304 0.295273
Si Si4 0.177073 0.881787 0.001992
Si Si5 0.062000 0.043019 0.957724
Si Si6 0.433494 0.191733 0.544420
Si Si7 0.825961 0.684192 0.239287
O O1 0.500000 0.750000 0.178873
O O2 0.487855 0.639829 0.172269
O O3 0.601594 0.700432 0.101781
O O4 0.746808 0.682315 0.185475
O O5 0.685350 0.450906 0.829571
O O6 0.882536 0.481074 0.904571
O O7 0.500000 0.577444 0.250000
O O8 0.733984 0.638746 0.271069
O O9 0.284569 0.832295 0.019929
O O10 0.072122 0.911457 0.043244
O O11 0.289812 0.926957 0.978936
O O12 0.060225 0.855253 0.963515
O O13 0.000000 0.000000 0.000000
O O14 0.500000 0.250000 0.524250
O O15 0.803603 0.750000 0.250000
O O16 0.000000 0.673338 0.250000
#
# Coordination Sequence:
#
# PCOD9510926 Si02
#       7
#    16   8  16  16  16  16  16
#     4  10  19  36  62  89 118 162 211 247 307 382
#     4  12  24  40  66  92 128 168 214 270 322 376
#     4  10  23  40  63  89 124 167 207 254 318 384
#     4  10  21  37  60  86 123 161 209 257 309 370
#     4  11  21  39  62  88 119 161 217 265 304 371
#     4  10  21  36  59  89 125 162 200 252 317 379
#     4  10  20  37  64  92 124 153 204 268 308 359
#
# _framework density 8.9163239999999995
#
# number of rings (size 3 to 8) (size 9 to 14) (size 15 to 20)
#    0.000    1.692    3.077    1.385    2.154    1.846 
#    0.000    1.538    3.385    0.000    0.000    0.000 
#    0.000    0.000    0.000    0.000    0.000    0.000 
#
# Total GULP energy -289551.997614 kJ/mol
# GULP energy per Si atom -5568.307646 kJ/mol
# Density = 0.889603 g / cm^3
# Si number density = 8.916324 Si / 1000 Ang^3
#
#
#
# Elastic Constant Matrix: (Units=GPa)
#
#
# Indices 1 2 3 4 5 6 
#
# 1 135.6936 45.2260 46.6908 0.0000 0.0000 0.0000
# 2 45.2260 106.6951 41.3828 0.0000 0.0000 0.0000
# 3 46.6908 41.3828 82.9690 0.0000 0.0000 0.0000
# 4 0.0000 0.0000 0.0000 32.7757 0.0000 0.0000
# 5 0.0000 0.0000 0.0000 0.0000 26.2900 0.0000
# 6 0.0000 0.0000 0.0000 0.0000 0.0000 43.2181
#
#
#
# Elastic Compliance Matrix: (Units=1/GPa)
#
#
# Indices 1 2 3 4 5 6 
#
# 1 0.009632 -0.002455 -0.004195 0.000000 0.000000 0.000000
# 2 -0.002455 0.012247 -0.004726 0.000000 0.000000 0.000000
# 3 -0.004195 -0.004726 0.016771 0.000000 0.000000 0.000000
# 4 0.000000 0.000000 0.000000 0.030510 0.000000 0.000000
# 5 0.000000 0.000000 0.000000 0.000000 0.038037 0.000000
# 6 0.000000 0.000000 0.000000 0.000000 0.000000 0.023138
#
#
# Mechanical properties :
#
#
# Convention : Reuss Voigt Hill
#
# Bulk Modulus (GPa) = 62.91471 65.77300 64.34385
# Shear Modulus (GPa) = 31.56803 33.26064 32.41434
#
# Velocity S-wave (km/s) = 4.21198 4.32343 4.26807
# Velocity P-wave (km/s) = 7.68190 7.86678 7.77489
#
# Compressibility (1/GPa) = 0.01589453
#
# Stress axis : x y z
#
# Youngs Moduli (GPa) = 103.82571 81.65598 59.62619
#
# Poissons Ratio (x) = 0.20049 0.25016
# Poissons Ratio (y) = 0.25493 0.28182
# Poissons Ratio (z) = 0.43560 0.38595
#
# Static dielectric constant tensor:
#      x y z
#    x 1.614220 0.000000 0.000000 
#    y 0.000000 1.649480 0.000000 
#    z 0.000000 0.000000 1.610950 
# 
# From -- ./inp_files/49595.got.cif
#   From: 2010.05.17/outbox.ucp.g08.bks.cvg/sg68_25_cif.got.tgz:49595.got - 2010.06.11 16:49:25.
