data_PCOD9510776
_publ_section_title
;
Structure prediction by ZEFSAII (Michael W. Deem and Ramdas Pophale) SiO2 
 PCOD9510776
Probable space group: C C C A
;
_chemical_formula_sum "Si O2"
_cell_formula_units_Z 68
_cell_length_a 10.186028
_cell_length_b 9.427791
_cell_length_c 29.676926
_cell_angle_alpha 90.000000
_cell_angle_beta 90.000000
_cell_angle_gamma 90.000000
_cell_volume 2849.926934
_symmetry_space_group_name_H-M "C C C A"
_symmetry_group_IT_number 68
_space_group.IT_coordinate_system_code '2'
_symmetry_cell_setting 'orthorhombic'
loop_
_space_group_symop_operation_xyz
x,y,z
-x,1/2-y,z
x,1/2-y,1/2-z
-x,y,1/2-z
-x,-y,-z
x,1/2+y,-z
-x,1/2+y,1/2+z
x,-y,1/2+z
1/2+x,1/2+y,z
1/2-x,-y,z
1/2+x,-y,1/2-z
1/2-x,1/2+y,1/2-z
1/2-x,1/2-y,-z
1/2+x,y,-z
1/2-x,y,1/2+z
1/2+x,1/2-y,1/2+z
loop_
_atom_site_type_symbol
_atom_site_label
_atom_site_fract_x
_atom_site_fract_y
_atom_site_fract_z
Si Si1 0.618472 0.591002 0.332919
Si Si2 0.289490 0.158995 0.606403
Si Si3 0.649353 0.625408 0.011641
Si Si4 0.500000 0.750000 0.250000
Si Si5 0.111028 0.411813 0.584163
O O1 0.750000 0.500000 0.324953
O O2 0.648438 0.742864 0.355731
O O3 0.565215 0.638167 0.284866
O O4 0.550220 0.492254 0.372311
O O5 0.387223 0.157012 0.563062
O O6 0.157092 0.251177 0.594877
O O7 0.250000 0.000000 0.618751
O O8 0.750000 0.500000 0.018023
O O9 0.750000 0.750000 0.000000
O O10 0.559039 0.594940 0.967724
O O11 0.250000 0.500000 0.578706
#
# Coordination Sequence:
#
# PCOD9510776 Si02
#       5
#    16  16  16   4  16
#     4   9  20  37  56  82 113 147 195 248 292 345
#     4   8  13  23  46  78 111 144 179 224 280 344
#     4   8  11  17  36  70 106 144 182 212 265 343
#     4  12  24  40  68  84 104 160 212 250 308 352
#     4   7  12  24  42  70 111 147 182 229 276 336
#
# _framework density 23.860258999999999
#
# number of rings (size 3 to 8) (size 9 to 14) (size 15 to 20)
#    0.000    4.235    0.000    1.412    0.000    0.941 
#    0.000    0.000    0.000   19.059    0.000    0.000 
#    0.000    0.000    0.000    0.471    0.000    0.000 
#
# Total GULP energy -189303.015151 kJ/mol
# GULP energy per Si atom -5567.735740 kJ/mol
# Density = 2.380595 g / cm^3
# Si number density = 23.860259 Si / 1000 Ang^3
#
#
#
# Elastic Constant Matrix: (Units=GPa)
#
#
# Indices 1 2 3 4 5 6 
#
# 1 66.8744 38.8510 61.5071 0.0000 0.0000 0.0000
# 2 38.8510 224.1438 82.0602 0.0000 0.0000 0.0000
# 3 61.5071 82.0602 268.2916 0.0000 0.0000 0.0000
# 4 0.0000 0.0000 0.0000 31.3281 0.0000 0.0000
# 5 0.0000 0.0000 0.0000 0.0000 41.8176 0.0000
# 6 0.0000 0.0000 0.0000 0.0000 0.0000 28.1753
#
#
#
# Elastic Compliance Matrix: (Units=1/GPa)
#
#
# Indices 1 2 3 4 5 6 
#
# 1 0.019702 -0.001983 -0.003910 0.000000 0.000000 0.000000
# 2 -0.001983 0.005224 -0.001143 0.000000 0.000000 0.000000
# 3 -0.003910 -0.001143 0.004973 0.000000 0.000000 0.000000
# 4 0.000000 0.000000 0.000000 0.031920 0.000000 0.000000
# 5 0.000000 0.000000 0.000000 0.000000 0.023913 0.000000
# 6 0.000000 0.000000 0.000000 0.000000 0.000000 0.035492
#
#
# Mechanical properties :
#
#
# Convention : Reuss Voigt Hill
#
# Bulk Modulus (GPa) = 63.18784 102.68291 82.93537
# Shear Modulus (GPa) = 35.56868 45.39030 40.47949
#
# Velocity S-wave (km/s) = 3.86516 4.36631 4.12336
# Velocity P-wave (km/s) = 6.81610 8.27938 7.58312
#
# Compressibility (1/GPa) = 0.01582583
#
# Stress axis : x y z
#
# Youngs Moduli (GPa) = 50.75633 191.43616 201.07371
#
# Poissons Ratio (x) = 0.37970 0.78622
# Poissons Ratio (y) = 0.10067 0.22983
# Poissons Ratio (z) = 0.19846 0.21881
#
# Static dielectric constant tensor:
#      x y z
#    x 2.133680 0.000000 0.000000 
#    y 0.000000 1.917640 0.000000 
#    z 0.000000 0.000000 1.946310 
# 
# From -- ./inp_files/50654.got.cif
#   From: 2010.05.17/outbox.cif.g08.bks.cpg/sg68_26_cif.got.tgz:50654.got - 2010.06.03 18:57:09.
