data_PCOD9510404
_publ_section_title
;
Structure prediction by ZEFSAII (Michael W. Deem and Ramdas Pophale) SiO2 
 PCOD9510404
Probable space group: C C C A
;
_chemical_formula_sum "Si O2"
_cell_formula_units_Z 80
_cell_length_a 14.999501
_cell_length_b 28.682895
_cell_length_c 7.756922
_cell_angle_alpha 90.000000
_cell_angle_beta 90.000000
_cell_angle_gamma 90.000000
_cell_volume 3337.253666
_symmetry_space_group_name_H-M "C C C A"
_symmetry_group_IT_number 68
_space_group.IT_coordinate_system_code '2'
_symmetry_cell_setting 'orthorhombic'
loop_
_space_group_symop_operation_xyz
x,y,z
-x,1/2-y,z
x,1/2-y,1/2-z
-x,y,1/2-z
-x,-y,-z
x,1/2+y,-z
-x,1/2+y,1/2+z
x,-y,1/2+z
1/2+x,1/2+y,z
1/2-x,-y,z
1/2+x,-y,1/2-z
1/2-x,1/2+y,1/2-z
1/2-x,1/2-y,-z
1/2+x,y,-z
1/2-x,y,1/2+z
1/2+x,1/2-y,1/2+z
loop_
_atom_site_type_symbol
_atom_site_label
_atom_site_fract_x
_atom_site_fract_y
_atom_site_fract_z
Si Si1 0.409647 0.055662 0.563402
Si Si2 0.859047 0.192915 0.961306
Si Si3 0.175716 0.712505 0.113577
Si Si4 0.895518 0.401391 0.409309
Si Si5 0.835078 0.534508 0.195368
O O1 0.508071 0.076452 0.555116
O O2 0.364853 0.085265 0.717848
O O3 0.361292 0.054651 0.380278
O O4 0.409431 0.002703 0.632449
O O5 0.880270 0.248073 0.987074
O O6 0.874767 0.182724 0.756895
O O7 0.753760 0.187932 0.012071
O O8 0.905411 0.153701 0.070383
O O9 0.221403 0.750000 0.250000
O O10 0.832144 0.425395 0.551317
O O11 0.750000 0.500000 0.204471
#
# Coordination Sequence:
#
# PCOD9510404 Si02
#       5
#    16  16  16  16  16
#     4  11  25  43  65  88 134 190 216 279 344 397
#     4   8  16  34  57  92 127 161 212 255 332 388
#     4   7  14  33  59  86 135 161 192 273 332 385
#     4  11  24  40  66  93 133 175 229 270 329 428
#     4  12  25  44  65  91 129 175 234 283 336 388
#
# _framework density 23.971806999999998
#
# number of rings (size 3 to 8) (size 9 to 14) (size 15 to 20)
#    1.200    0.800    2.000    1.800    2.800    2.400 
#    3.600    0.000    0.000    0.000    0.000   36.400 
#    0.000    0.000    0.000    0.000    0.000    0.000 
#
# Total GULP energy -222823.744876 kJ/mol
# GULP energy per Si atom -5570.593622 kJ/mol
# Density = 2.391725 g / cm^3
# Si number density = 23.971807 Si / 1000 Ang^3
#
#
#
# Elastic Constant Matrix: (Units=GPa)
#
#
# Indices 1 2 3 4 5 6 
#
# 1 77.4938 20.7745 28.9384 0.0000 0.0000 0.0000
# 2 20.7745 90.2308 32.9428 0.0000 0.0000 0.0000
# 3 28.9384 32.9428 141.0203 0.0000 0.0000 0.0000
# 4 0.0000 0.0000 0.0000 31.6438 0.0000 0.0000
# 5 0.0000 0.0000 0.0000 0.0000 16.4057 0.0000
# 6 0.0000 0.0000 0.0000 0.0000 0.0000 11.8957
#
#
#
# Elastic Compliance Matrix: (Units=1/GPa)
#
#
# Indices 1 2 3 4 5 6 
#
# 1 0.014456 -0.002455 -0.002393 0.000000 0.000000 0.000000
# 2 -0.002455 0.012533 -0.002424 0.000000 0.000000 0.000000
# 3 -0.002393 -0.002424 0.008149 0.000000 0.000000 0.000000
# 4 0.000000 0.000000 0.000000 0.031602 0.000000 0.000000
# 5 0.000000 0.000000 0.000000 0.000000 0.060955 0.000000
# 6 0.000000 0.000000 0.000000 0.000000 0.000000 0.084064
#
#
# Mechanical properties :
#
#
# Convention : Reuss Voigt Hill
#
# Bulk Modulus (GPa) = 48.55801 52.67292 50.61547
# Shear Modulus (GPa) = 21.44401 27.06166 24.25284
#
# Velocity S-wave (km/s) = 2.99415 3.36355 3.18421
# Velocity P-wave (km/s) = 5.67922 6.09140 5.88892
#
# Compressibility (1/GPa) = 0.02059392
#
# Stress axis : x y z
#
# Youngs Moduli (GPa) = 69.17584 79.79050 122.72193
#
# Poissons Ratio (x) = 0.19585 0.29368
# Poissons Ratio (y) = 0.16980 0.29748
# Poissons Ratio (z) = 0.16554 0.19341
#
# Static dielectric constant tensor:
#      x y z
#    x 1.992170 0.000000 0.000000 
#    y 0.000000 2.020900 0.000000 
#    z 0.000000 0.000000 2.040670 
# 
# From -- ./inp_files/6362.got.cif
#   From: 2010.05.17/outbox.cif.g08.bks.cpg/sg68_4_cif.got.tgz:6362.got - 2010.06.03 18:57:09.
