data_PCOD9510709
_publ_section_title
;
Structure prediction by ZEFSAII (Michael W. Deem and Ramdas Pophale) SiO2 
 PCOD9510709
Probable space group: C C C A
;
_chemical_formula_sum "Si O2"
_cell_formula_units_Z 92
_cell_length_a 8.725453
_cell_length_b 20.725672
_cell_length_c 24.679616
_cell_angle_alpha 90.000000
_cell_angle_beta 90.000000
_cell_angle_gamma 90.000000
_cell_volume 4463.083400
_symmetry_space_group_name_H-M "C C C A"
_symmetry_group_IT_number 68
_space_group.IT_coordinate_system_code '2'
_symmetry_cell_setting 'orthorhombic'
loop_
_space_group_symop_operation_xyz
x,y,z
-x,1/2-y,z
x,1/2-y,1/2-z
-x,y,1/2-z
-x,-y,-z
x,1/2+y,-z
-x,1/2+y,1/2+z
x,-y,1/2+z
1/2+x,1/2+y,z
1/2-x,-y,z
1/2+x,-y,1/2-z
1/2-x,1/2+y,1/2-z
1/2-x,1/2-y,-z
1/2+x,y,-z
1/2-x,y,1/2+z
1/2+x,1/2-y,1/2+z
loop_
_atom_site_type_symbol
_atom_site_label
_atom_site_fract_x
_atom_site_fract_y
_atom_site_fract_z
Si Si1 0.435256 0.494730 0.807563
Si Si2 0.119115 0.915442 0.391011
Si Si3 0.000000 0.750000 0.750000
Si Si4 0.936834 0.818835 0.942967
Si Si5 0.750000 0.500000 0.989777
Si Si6 0.115844 0.877603 0.035456
Si Si7 0.080804 0.357287 0.167454
O O1 0.500000 0.519306 0.750000
O O2 0.250000 0.500000 0.811024
O O3 0.525498 0.535188 0.853216
O O4 0.491031 0.420652 0.812008
O O5 0.170238 0.952474 0.446073
O O6 0.259980 0.883302 0.358775
O O7 0.999786 0.864473 0.415536
O O8 0.094364 0.800262 0.788159
O O9 0.762470 0.832856 0.956870
O O10 0.000000 0.750000 0.960144
O O11 0.976477 0.829290 0.880721
O O12 0.035695 0.867811 0.978117
O O13 0.835335 0.547785 0.031087
#
# Coordination Sequence:
#
# PCOD9510709 Si02
#       7
#    16  16   4  16   8  16  16
#     4  12  25  43  73 104 135 177 233 299 365 418
#     4  12  24  43  72 106 146 181 232 295 358 429
#     4  12  28  48  80  90 136 196 238 290 354 408
#     4  12  24  43  67  94 138 190 240 279 345 414
#     4  12  22  38  70 104 148 184 216 280 368 438
#     4  12  25  41  67 106 145 187 229 288 354 429
#     4  12  24  47  70 101 135 184 237 291 353 421
#
# _framework density 20.61355
#
# number of rings (size 3 to 8) (size 9 to 14) (size 15 to 20)
#    0.000    0.000    6.957    3.130    3.652    0.000 
#    0.000    0.000    0.000    4.174    0.000    0.000 
#    0.000    0.000    0.000    0.000    0.000    0.000 
#
# Total GULP energy -256865.232312 kJ/mol
# GULP energy per Si atom -5584.026789 kJ/mol
# Density = 2.056663 g / cm^3
# Si number density = 20.613550 Si / 1000 Ang^3
#
#
#
# Elastic Constant Matrix: (Units=GPa)
#
#
# Indices 1 2 3 4 5 6 
#
# 1 146.6258 30.3995 37.4942 0.0000 0.0000 0.0000
# 2 30.3995 54.5861 16.1957 0.0000 0.0000 0.0000
# 3 37.4942 16.1957 93.2081 0.0000 0.0000 0.0000
# 4 0.0000 0.0000 0.0000 58.6187 0.0000 0.0000
# 5 0.0000 0.0000 0.0000 0.0000 27.1340 0.0000
# 6 0.0000 0.0000 0.0000 0.0000 0.0000 6.1861
#
#
#
# Elastic Compliance Matrix: (Units=1/GPa)
#
#
# Indices 1 2 3 4 5 6 
#
# 1 0.008297 -0.003828 -0.002673 0.000000 0.000000 0.000000
# 2 -0.003828 0.021081 -0.002123 0.000000 0.000000 0.000000
# 3 -0.002673 -0.002123 0.012173 0.000000 0.000000 0.000000
# 4 0.000000 0.000000 0.000000 0.017059 0.000000 0.000000
# 5 0.000000 0.000000 0.000000 0.000000 0.036854 0.000000
# 6 0.000000 0.000000 0.000000 0.000000 0.000000 0.161653
#
#
# Mechanical properties :
#
#
# Convention : Reuss Voigt Hill
#
# Bulk Modulus (GPa) = 41.14550 51.39987 46.27268
# Shear Modulus (GPa) = 17.70123 32.40979 25.05551
#
# Velocity S-wave (km/s) = 2.93357 3.96947 3.49017
# Velocity P-wave (km/s) = 5.61054 6.78219 6.22400
#
# Compressibility (1/GPa) = 0.02430400
#
# Stress axis : x y z
#
# Youngs Moduli (GPa) = 120.52423 47.43516 82.15126
#
# Poissons Ratio (x) = 0.18157 0.21955
# Poissons Ratio (y) = 0.46134 0.17443
# Poissons Ratio (z) = 0.32210 0.10072
#
# Static dielectric constant tensor:
#      x y z
#    x 1.778280 0.000000 0.000000 
#    y 0.000000 1.798040 0.000000 
#    z 0.000000 0.000000 1.746280 
# 
# From -- ./inp_files/43189.got.cif
#   From: 2010.05.17/outbox.cif.g08.bks.cpg/sg68_22_cif.got.tgz:43189.got - 2010.06.03 18:57:09.
