data_PCOD9510618
_publ_section_title
;
Structure prediction by ZEFSAII (Michael W. Deem and Ramdas Pophale) SiO2 
 PCOD9510618
Probable space group: C C C A
;
_chemical_formula_sum "Si O2"
_cell_formula_units_Z 96
_cell_length_a 17.092308
_cell_length_b 25.298524
_cell_length_c 10.951663
_cell_angle_alpha 90.000000
_cell_angle_beta 90.000000
_cell_angle_gamma 90.000000
_cell_volume 4735.610396
_symmetry_space_group_name_H-M "C C C A"
_symmetry_group_IT_number 68
_space_group.IT_coordinate_system_code '2'
_symmetry_cell_setting 'orthorhombic'
loop_
_space_group_symop_operation_xyz
x,y,z
-x,1/2-y,z
x,1/2-y,1/2-z
-x,y,1/2-z
-x,-y,-z
x,1/2+y,-z
-x,1/2+y,1/2+z
x,-y,1/2+z
1/2+x,1/2+y,z
1/2-x,-y,z
1/2+x,-y,1/2-z
1/2-x,1/2+y,1/2-z
1/2-x,1/2-y,-z
1/2+x,y,-z
1/2-x,y,1/2+z
1/2+x,1/2-y,1/2+z
loop_
_atom_site_type_symbol
_atom_site_label
_atom_site_fract_x
_atom_site_fract_y
_atom_site_fract_z
Si Si1 0.061896 0.651782 0.358076
Si Si2 0.000000 0.250000 0.007253
Si Si3 0.032400 0.056314 0.459470
Si Si4 0.373232 0.198001 0.684337
Si Si5 0.789202 0.942887 0.606358
Si Si6 0.000000 0.624289 0.750000
Si Si7 0.762555 0.619548 0.148503
O O1 0.042662 0.598381 0.432852
O O2 0.152986 0.645676 0.325381
O O3 0.000000 0.653437 0.250000
O O4 0.046221 0.705606 0.431837
O O5 0.062925 0.218335 0.088085
O O6 0.117012 0.050238 0.396252
O O7 0.978692 0.086656 0.361955
O O8 0.000000 0.000000 0.500000
O O9 0.341892 0.250000 0.750000
O O10 0.425392 0.161513 0.775398
O O11 0.303924 0.163557 0.631768
O O12 0.768656 0.912716 0.479106
O O13 0.761571 0.913810 0.730612
O O14 0.750000 0.000000 0.602997
#
# Coordination Sequence:
#
# PCOD9510618 Si02
#       7
#    16   8  16  16  16   8  16
#     4  11  27  48  67 105 149 187 238 292 370 433
#     4  12  24  44  74 104 142 191 239 304 364 424
#     4  11  26  42  73 106 136 185 239 290 362 437
#     4  12  23  43  75 103 139 185 239 302 356 431
#     4  11  26  47  70 104 145 189 237 301 362 425
#     4  12  21  44  70 104 134 177 236 294 352 430
#     4  11  28  46  73 107 146 190 244 298 362 445
#
# _framework density 20.271939
#
# number of rings (size 3 to 8) (size 9 to 14) (size 15 to 20)
#    0.000    0.667    5.000    0.750   10.500    3.333 
#    0.000    0.000    0.000    0.000    0.000    0.000 
#    0.000    0.000    0.000    0.000    0.000    0.000 
#
# Total GULP energy -268245.495798 kJ/mol
# GULP energy per Si atom -5588.447829 kJ/mol
# Density = 2.022580 g / cm^3
# Si number density = 20.271939 Si / 1000 Ang^3
#
#
#
# Elastic Constant Matrix: (Units=GPa)
#
#
# Indices 1 2 3 4 5 6 
#
# 1 129.6648 72.8063 55.3442 0.0000 0.0000 0.0000
# 2 72.8063 151.9753 48.1665 0.0000 0.0000 0.0000
# 3 55.3442 48.1665 97.3076 0.0000 0.0000 0.0000
# 4 0.0000 0.0000 0.0000 -42.8978 0.0000 0.0000
# 5 0.0000 0.0000 0.0000 0.0000 17.8368 0.0000
# 6 0.0000 0.0000 0.0000 0.0000 0.0000 28.9197
#
#
#
# Elastic Compliance Matrix: (Units=1/GPa)
#
#
# Indices 1 2 3 4 5 6 
#
# 1 0.012181 -0.004317 -0.004791 0.000000 0.000000 0.000000
# 2 -0.004317 0.009334 -0.002165 0.000000 0.000000 0.000000
# 3 -0.004791 -0.002165 0.014073 0.000000 0.000000 0.000000
# 4 0.000000 0.000000 0.000000 -0.023311 0.000000 0.000000
# 5 0.000000 0.000000 0.000000 0.000000 0.056064 0.000000
# 6 0.000000 0.000000 0.000000 0.000000 0.000000 0.034579
#
#
# Mechanical properties :
#
#
# Convention : Reuss Voigt Hill
#
# Bulk Modulus (GPa) = 76.67384 81.28685 78.98034
# Shear Modulus (GPa) = 38.51651 14.28044 26.39847
#
# Velocity S-wave (km/s) = 4.36362 2.65702 3.61254
# Velocity P-wave (km/s) = 7.95569 7.04260 7.51303
#
# Compressibility (1/GPa) = 0.01304226
#
# Stress axis : x y z
#
# Youngs Moduli (GPa) = 82.09343 107.13074 71.05600
#
# Poissons Ratio (x) = 0.46250 0.34044
# Poissons Ratio (y) = 0.35441 0.15384
# Poissons Ratio (z) = 0.39333 0.23195
#
# Static dielectric constant tensor:
#      x y z
#    x 1.727360 0.000000 0.000000 
#    y 0.000000 1.898800 0.000000 
#    z 0.000000 0.000000 1.748260 
# 
# From -- ./inp_files/14686.got.cif
#   From: 2010.05.17/outbox.cif.g08.bks.cpg/sg68_8_cif.got.tgz:14686.got - 2010.06.03 18:57:09.
