data_PCOD9510575
_publ_section_title
;
Structure prediction by ZEFSAII (Michael W. Deem and Ramdas Pophale) SiO2 
 PCOD9510575
Probable space group: C C C A
;
_chemical_formula_sum "Si O2"
_cell_formula_units_Z 64
_cell_length_a 7.743361
_cell_length_b 17.326793
_cell_length_c 19.495440
_cell_angle_alpha 90.000000
_cell_angle_beta 90.000000
_cell_angle_gamma 90.000000
_cell_volume 2615.656653
_symmetry_space_group_name_H-M "C C C A"
_symmetry_group_IT_number 68
_space_group.IT_coordinate_system_code '2'
_symmetry_cell_setting 'orthorhombic'
loop_
_space_group_symop_operation_xyz
x,y,z
-x,1/2-y,z
x,1/2-y,1/2-z
-x,y,1/2-z
-x,-y,-z
x,1/2+y,-z
-x,1/2+y,1/2+z
x,-y,1/2+z
1/2+x,1/2+y,z
1/2-x,-y,z
1/2+x,-y,1/2-z
1/2-x,1/2+y,1/2-z
1/2-x,1/2-y,-z
1/2+x,y,-z
1/2-x,y,1/2+z
1/2+x,1/2-y,1/2+z
loop_
_atom_site_type_symbol
_atom_site_label
_atom_site_fract_x
_atom_site_fract_y
_atom_site_fract_z
Si Si1 0.367897 0.560958 0.467514
Si Si2 0.704890 0.086821 0.746133
Si Si3 0.332351 0.354491 0.102473
Si Si4 0.230232 0.178541 0.623623
O O1 0.500000 0.500000 0.500000
O O2 0.250000 0.500000 0.426998
O O3 0.279496 0.601461 0.533572
O O4 0.382721 0.631245 0.414478
O O5 0.500000 0.094836 0.750000
O O6 0.781431 0.099239 0.670405
O O7 0.775446 0.151871 0.797674
O O8 0.750000 0.000000 0.767961
O O9 0.254495 0.269202 0.111123
O O10 0.540233 0.344765 0.095624
#
# Coordination Sequence:
#
# PCOD9510575 Si02
#       4
#    16  16  16  16
#     4  12  25  44  72 103 142 186 239 295 351 421
#     4  12  27  44  72 104 139 182 239 295 357 427
#     4  11  25  46  70 101 143 191 236 294 358 420
#     4  11  25  46  69 101 145 190 237 292 359 424
#
# _framework density 24.468045
#
# number of rings (size 3 to 8) (size 9 to 14) (size 15 to 20)
#    0.000    0.500    2.500    5.250    7.000    4.000 
#    0.000    0.000    0.000    0.000    0.000    0.000 
#    0.000    0.000    0.000    0.000    0.000    0.000 
#
# Total GULP energy -178926.850670 kJ/mol
# GULP energy per Si atom -5591.464083 kJ/mol
# Density = 2.441235 g / cm^3
# Si number density = 24.468045 Si / 1000 Ang^3
#
#
#
# Elastic Constant Matrix: (Units=GPa)
#
#
# Indices 1 2 3 4 5 6 
#
# 1 57.5635 24.8581 -5.3815 0.0000 0.0000 0.0000
# 2 24.8581 178.1736 50.0287 0.0000 0.0000 0.0000
# 3 -5.3815 50.0287 153.2748 0.0000 0.0000 0.0000
# 4 0.0000 0.0000 0.0000 47.5344 0.0000 0.0000
# 5 0.0000 0.0000 0.0000 0.0000 317.6585 0.0000
# 6 0.0000 0.0000 0.0000 0.0000 0.0000 44.2380
#
#
#
# Elastic Compliance Matrix: (Units=1/GPa)
#
#
# Indices 1 2 3 4 5 6 
#
# 1 0.018869 -0.003103 0.001675 0.000000 0.000000 0.000000
# 2 -0.003103 0.006689 -0.002292 0.000000 0.000000 0.000000
# 3 0.001675 -0.002292 0.007331 0.000000 0.000000 0.000000
# 4 0.000000 0.000000 0.000000 0.021037 0.000000 0.000000
# 5 0.000000 0.000000 0.000000 0.000000 0.003148 0.000000
# 6 0.000000 0.000000 0.000000 0.000000 0.000000 0.022605
#
#
# Mechanical properties :
#
#
# Convention : Reuss Voigt Hill
#
# Bulk Modulus (GPa) = 39.29390 58.66917 48.98154
# Shear Modulus (GPa) = 52.30008 103.18662 77.74335
#
# Velocity S-wave (km/s) = 4.62831 6.50104 5.64291
# Velocity P-wave (km/s) = 6.68250 8.96556 7.90687
#
# Compressibility (1/GPa) = 0.02544924
#
# Stress axis : x y z
#
# Youngs Moduli (GPa) = 52.99785 149.49846 136.40274
#
# Poissons Ratio (x) = 0.46388 -0.22851
# Poissons Ratio (y) = 0.16445 0.31267
# Poissons Ratio (z) = -0.08878 0.34269
#
# Static dielectric constant tensor:
#      x y z
#    x 2.248200 0.000000 0.000000 
#    y 0.000000 1.843360 0.000000 
#    z 0.000000 0.000000 1.879870 
# 
# From -- ./inp_files/35763.got.cif
#   From: 2010.05.17/outbox.cif.g08.bks.cpg/sg68_18_cif.got.tgz:35763.got - 2010.06.03 18:57:09.
