data_PCOD9510582
_publ_section_title
;
Structure prediction by ZEFSAII (Michael W. Deem and Ramdas Pophale) SiO2 
 PCOD9510582
Probable space group: C C C A
;
_chemical_formula_sum "Si O2"
_cell_formula_units_Z 48
_cell_length_a 24.418022
_cell_length_b 8.333319
_cell_length_c 9.387534
_cell_angle_alpha 90.000000
_cell_angle_beta 90.000000
_cell_angle_gamma 90.000000
_cell_volume 1910.205146
_symmetry_space_group_name_H-M "C C C A"
_symmetry_group_IT_number 68
_space_group.IT_coordinate_system_code '2'
_symmetry_cell_setting 'orthorhombic'
loop_
_space_group_symop_operation_xyz
x,y,z
-x,1/2-y,z
x,1/2-y,1/2-z
-x,y,1/2-z
-x,-y,-z
x,1/2+y,-z
-x,1/2+y,1/2+z
x,-y,1/2+z
1/2+x,1/2+y,z
1/2-x,-y,z
1/2+x,-y,1/2-z
1/2-x,1/2+y,1/2-z
1/2-x,1/2-y,-z
1/2+x,y,-z
1/2-x,y,1/2+z
1/2+x,1/2-y,1/2+z
loop_
_atom_site_type_symbol
_atom_site_label
_atom_site_fract_x
_atom_site_fract_y
_atom_site_fract_z
Si Si1 0.558388 0.842815 0.617507
Si Si2 0.382317 0.335111 0.611008
Si Si3 0.212862 0.850950 0.107776
O O1 0.500000 0.750000 0.607020
O O2 0.584549 0.750000 0.750000
O O3 0.586491 0.805536 0.469896
O O4 0.571863 0.028980 0.645100
O O5 0.357234 0.250000 0.750000
O O6 0.338154 0.397883 0.495329
O O7 0.199691 0.750000 0.250000
O O8 0.250000 0.000000 0.154061
O O9 0.250000 0.750000 0.000000
#
# Coordination Sequence:
#
# PCOD9510582 Si02
#       3
#    16  16  16
#     4  11  25  46  72 107 147 191 246 308 368 434
#     4  12  26  47  76 109 147 195 247 304 369 438
#     4  12  27  48  75 110 152 196 246 303 366 439
#
# _framework density 25.128188999999999
#
# number of rings (size 3 to 8) (size 9 to 14) (size 15 to 20)
#    0.000    0.333    0.000    8.000    0.000   11.333 
#    0.000    6.667    0.000    0.000    0.000    0.000 
#    0.000    0.000    0.000    0.000    0.000    0.000 
#
# Total GULP energy -134065.640276 kJ/mol
# GULP energy per Si atom -5586.068345 kJ/mol
# Density = 2.507100 g / cm^3
# Si number density = 25.128189 Si / 1000 Ang^3
#
#
#
# Elastic Constant Matrix: (Units=GPa)
#
#
# Indices 1 2 3 4 5 6 
#
# 1 145.4037 49.8277 51.8702 0.0000 0.0000 0.0000
# 2 49.8277 138.4828 51.2461 0.0000 0.0000 0.0000
# 3 51.8702 51.2461 178.3982 0.0000 0.0000 0.0000
# 4 0.0000 0.0000 0.0000 30.1281 0.0000 0.0000
# 5 0.0000 0.0000 0.0000 0.0000 31.7062 0.0000
# 6 0.0000 0.0000 0.0000 0.0000 0.0000 35.8407
#
#
#
# Elastic Compliance Matrix: (Units=1/GPa)
#
#
# Indices 1 2 3 4 5 6 
#
# 1 0.008301 -0.002343 -0.001741 0.000000 0.000000 0.000000
# 2 -0.002343 0.008741 -0.001830 0.000000 0.000000 0.000000
# 3 -0.001741 -0.001830 0.006637 0.000000 0.000000 0.000000
# 4 0.000000 0.000000 0.000000 0.033192 0.000000 0.000000
# 5 0.000000 0.000000 0.000000 0.000000 0.031540 0.000000
# 6 0.000000 0.000000 0.000000 0.000000 0.000000 0.027901
#
#
# Mechanical properties :
#
#
# Convention : Reuss Voigt Hill
#
# Bulk Modulus (GPa) = 84.36566 85.35253 84.85909
# Shear Modulus (GPa) = 37.85316 40.15770 39.00543
#
# Velocity S-wave (km/s) = 3.88545 4.00198 3.94414
# Velocity P-wave (km/s) = 7.33321 7.44278 7.38820
#
# Compressibility (1/GPa) = 0.01185316
#
# Stress axis : x y z
#
# Youngs Moduli (GPa) = 120.46505 114.40109 150.66676
#
# Poissons Ratio (x) = 0.26801 0.26226
# Poissons Ratio (y) = 0.28222 0.27569
# Poissons Ratio (z) = 0.20969 0.20933
#
# Static dielectric constant tensor:
#      x y z
#    x 2.146290 0.000000 0.000000 
#    y 0.000000 2.200560 0.000000 
#    z 0.000000 0.000000 2.000310 
# 
# From -- ./inp_files/3287.got.cif
#   From: 2010.05.17/outbox.cif.g08.bks.cpg/sg68_2_cif.got.tgz:3287.got - 2010.06.03 18:57:09.
