data_PCOD9510812
_publ_section_title
;
Structure prediction by ZEFSAII (Michael W. Deem and Ramdas Pophale) SiO2 
 PCOD9510812
Probable space group: C C C A
;
_chemical_formula_sum "Si O2"
_cell_formula_units_Z 72
_cell_length_a 8.491301
_cell_length_b 16.495720
_cell_length_c 18.792744
_cell_angle_alpha 90.000000
_cell_angle_beta 90.000000
_cell_angle_gamma 90.000000
_cell_volume 2632.301977
_symmetry_space_group_name_H-M "C C C A"
_symmetry_group_IT_number 68
_space_group.IT_coordinate_system_code '2'
_symmetry_cell_setting 'orthorhombic'
loop_
_space_group_symop_operation_xyz
x,y,z
-x,1/2-y,z
x,1/2-y,1/2-z
-x,y,1/2-z
-x,-y,-z
x,1/2+y,-z
-x,1/2+y,1/2+z
x,-y,1/2+z
1/2+x,1/2+y,z
1/2-x,-y,z
1/2+x,-y,1/2-z
1/2-x,1/2+y,1/2-z
1/2-x,1/2-y,-z
1/2+x,y,-z
1/2-x,y,1/2+z
1/2+x,1/2-y,1/2+z
loop_
_atom_site_type_symbol
_atom_site_label
_atom_site_fract_x
_atom_site_fract_y
_atom_site_fract_z
Si Si1 0.769061 0.841808 0.029399
Si Si2 0.271059 0.669890 0.282017
Si Si3 0.047445 0.420793 0.405635
Si Si4 0.406077 0.951397 0.820242
Si Si5 0.500000 0.250000 0.125092
O O1 0.612118 0.875109 0.067128
O O2 0.912422 0.822106 0.082642
O O3 0.750000 0.750000 0.000000
O O4 0.828335 0.901690 0.967989
O O5 0.344128 0.750000 0.250000
O O6 0.386432 0.621221 0.333675
O O7 0.182431 0.624550 0.217771
O O8 0.128812 0.701674 0.330890
O O9 0.018127 0.514591 0.384155
O O10 0.500000 0.981138 0.750000
O O11 0.250000 0.000000 0.840018
#
# Coordination Sequence:
#
# PCOD9510812 Si02
#       5
#    16  16  16  16   8
#     4  12  24  47  81 126 172 235 298 371 434 548
#     4  12  28  51  86 127 169 235 298 373 454 538
#     4  12  27  51  86 121 181 230 299 372 454 535
#     4  12  28  53  80 120 177 229 282 378 447 535
#     4  12  25  46  82 124 175 220 310 354 454 524
#
# _framework density 27.352484
#
# number of rings (size 3 to 8) (size 9 to 14) (size 15 to 20)
#    0.000    0.000    6.667    1.667    6.222    0.000 
#    4.000    1.111    0.000    0.000    0.000    0.000 
#    0.000    0.000    0.000    0.000    0.000    0.000 
#
# Total GULP energy -201372.634345 kJ/mol
# GULP energy per Si atom -5593.684287 kJ/mol
# Density = 2.729023 g / cm^3
# Si number density = 27.352484 Si / 1000 Ang^3
#
#
#
# Elastic Constant Matrix: (Units=GPa)
#
#
# Indices 1 2 3 4 5 6 
#
# 1 168.8521 81.4292 74.4656 0.0000 0.0000 0.0000
# 2 81.4292 192.8166 106.1402 0.0000 0.0000 0.0000
# 3 74.4656 106.1402 157.5495 0.0000 0.0000 0.0000
# 4 0.0000 0.0000 0.0000 22.0746 0.0000 0.0000
# 5 0.0000 0.0000 0.0000 0.0000 59.0765 0.0000
# 6 0.0000 0.0000 0.0000 0.0000 0.0000 -7.2151
#
#
#
# Elastic Compliance Matrix: (Units=1/GPa)
#
#
# Indices 1 2 3 4 5 6 
#
# 1 0.007962 -0.002052 -0.002381 0.000000 0.000000 0.000000
# 2 -0.002052 0.008772 -0.004940 0.000000 0.000000 0.000000
# 3 -0.002381 -0.004940 0.010801 0.000000 0.000000 0.000000
# 4 0.000000 0.000000 0.000000 0.045301 0.000000 0.000000
# 5 0.000000 0.000000 0.000000 0.000000 0.016927 0.000000
# 6 0.000000 0.000000 0.000000 0.000000 0.000000 -0.138598
#
#
# Mechanical properties :
#
#
# Convention : Reuss Voigt Hill
#
# Bulk Modulus (GPa) = 113.77521 115.92089 114.84805
# Shear Modulus (GPa) = -184.09321 31.93274 -76.08024
#
# Velocity S-wave (km/s) = -8.21280 3.42051 -5.27969
# Velocity P-wave (km/s) = 6.94603 7.62051 2.21641
#
# Compressibility (1/GPa) = 0.00878926
#
# Stress axis : x y z
#
# Youngs Moduli (GPa) = 125.59962 113.99838 92.58820
#
# Poissons Ratio (x) = 0.23390 0.22044
# Poissons Ratio (y) = 0.25770 0.45738
# Poissons Ratio (z) = 0.29904 0.56314
#
# Static dielectric constant tensor:
#      x y z
#    x 2.174350 0.000000 0.000000 
#    y 0.000000 2.047950 0.000000 
#    z 0.000000 0.000000 2.337490 
# 
# From -- ./inp_files/42940.got.cif
#   From: 2010.05.17/outbox.cif.g08.bks.cpg/sg68_22_cif.got.tgz:42940.got - 2010.06.03 18:57:09.
