data_PCOD9510856
_publ_section_title
;
Structure prediction by ZEFSAII (Michael W. Deem and Ramdas Pophale) SiO2 
 PCOD9510856
Probable space group: C C C A
;
_chemical_formula_sum "Si O2"
_cell_formula_units_Z 72
_cell_length_a 18.972558
_cell_length_b 18.455513
_cell_length_c 7.770805
_cell_angle_alpha 90.000000
_cell_angle_beta 90.000000
_cell_angle_gamma 90.000000
_cell_volume 2720.934089
_symmetry_space_group_name_H-M "C C C A"
_symmetry_group_IT_number 68
_space_group.IT_coordinate_system_code '2'
_symmetry_cell_setting 'orthorhombic'
loop_
_space_group_symop_operation_xyz
x,y,z
-x,1/2-y,z
x,1/2-y,1/2-z
-x,y,1/2-z
-x,-y,-z
x,1/2+y,-z
-x,1/2+y,1/2+z
x,-y,1/2+z
1/2+x,1/2+y,z
1/2-x,-y,z
1/2+x,-y,1/2-z
1/2-x,1/2+y,1/2-z
1/2-x,1/2-y,-z
1/2+x,y,-z
1/2-x,y,1/2+z
1/2+x,1/2-y,1/2+z
loop_
_atom_site_type_symbol
_atom_site_label
_atom_site_fract_x
_atom_site_fract_y
_atom_site_fract_z
Si Si1 0.622804 0.554600 0.060041
Si Si2 0.075939 0.721671 0.485659
Si Si3 0.156330 0.896417 0.176625
Si Si4 0.200548 0.680808 0.866462
Si Si5 0.500000 0.877264 0.250000
O O1 0.845395 0.580312 0.376872
O O2 0.638266 0.470609 0.080570
O O3 0.665998 0.605013 0.193417
O O4 0.542131 0.574609 0.109382
O O5 0.097383 0.663645 0.345500
O O6 0.138270 0.780071 0.520181
O O7 0.000000 0.750000 0.440467
O O8 0.056032 0.675590 0.657445
O O9 0.222931 0.853974 0.092870
O O10 0.219672 0.750000 0.750000
#
# Coordination Sequence:
#
# PCOD9510856 Si02
#       5
#    16  16  16  16   8
#     4  12  29  54  82 123 165 233 272 356 426 508
#     4  12  25  53  83 123 166 217 278 357 426 510
#     4  12  32  51  85 122 173 222 289 348 429 518
#     4  12  27  51  85 122 165 217 280 351 429 502
#     4  12  25  54  88 116 171 212 282 340 433 502
#
# _framework density 26.461500999999998
#
# number of rings (size 3 to 8) (size 9 to 14) (size 15 to 20)
#    0.000    0.000    4.444    3.000    6.222    6.222 
#    4.000    0.000    0.000    0.000    0.000    0.000 
#    0.000    0.000    0.000    0.000    0.000    0.000 
#
# Total GULP energy -200970.613808 kJ/mol
# GULP energy per Si atom -5582.517050 kJ/mol
# Density = 2.640127 g / cm^3
# Si number density = 26.461501 Si / 1000 Ang^3
#
#
#
# Elastic Constant Matrix: (Units=GPa)
#
#
# Indices 1 2 3 4 5 6 
#
# 1 158.6110 104.4486 51.6045 0.0000 0.0000 0.0000
# 2 104.4486 243.3992 53.2918 0.0000 0.0000 0.0000
# 3 51.6045 53.2918 110.5962 0.0000 0.0000 0.0000
# 4 0.0000 0.0000 0.0000 31.6047 0.0000 0.0000
# 5 0.0000 0.0000 0.0000 0.0000 15.8871 0.0000
# 6 0.0000 0.0000 0.0000 0.0000 0.0000 13.8668
#
#
#
# Elastic Compliance Matrix: (Units=1/GPa)
#
#
# Indices 1 2 3 4 5 6 
#
# 1 0.009484 -0.003467 -0.002755 0.000000 0.000000 0.000000
# 2 -0.003467 0.005860 -0.001206 0.000000 0.000000 0.000000
# 3 -0.002755 -0.001206 0.010909 0.000000 0.000000 0.000000
# 4 0.000000 0.000000 0.000000 0.031641 0.000000 0.000000
# 5 0.000000 0.000000 0.000000 0.000000 0.062944 0.000000
# 6 0.000000 0.000000 0.000000 0.000000 0.000000 0.072115
#
#
# Mechanical properties :
#
#
# Convention : Reuss Voigt Hill
#
# Bulk Modulus (GPa) = 87.74010 103.47737 95.60874
# Shear Modulus (GPa) = 23.62874 32.48915 28.05895
#
# Velocity S-wave (km/s) = 2.99147 3.50778 3.25986
# Velocity P-wave (km/s) = 6.72023 7.45626 7.09779
#
# Compressibility (1/GPa) = 0.01139730
#
# Stress axis : x y z
#
# Youngs Moduli (GPa) = 105.44268 170.64302 91.67131
#
# Poissons Ratio (x) = 0.59155 0.25253
# Poissons Ratio (y) = 0.36553 0.11058
# Poissons Ratio (z) = 0.29047 0.20584
#
# Static dielectric constant tensor:
#      x y z
#    x 2.117490 0.000000 0.000000 
#    y 0.000000 2.010700 0.000000 
#    z 0.000000 0.000000 2.406380 
# 
# From -- ./inp_files/14199.got.cif
#   From: 2010.05.17/outbox.cif.g08.bks.cpg/sg68_8_cif.got.tgz:14199.got - 2010.06.03 18:57:09.
