data_PCOD9510854
_publ_section_title
;
Structure prediction by ZEFSAII (Michael W. Deem and Ramdas Pophale) SiO2 
 PCOD9510854
Probable space group: C C C A
;
_chemical_formula_sum "Si O2"
_cell_formula_units_Z 68
_cell_length_a 18.215890
_cell_length_b 7.891594
_cell_length_c 21.802688
_cell_angle_alpha 90.000000
_cell_angle_beta 90.000000
_cell_angle_gamma 90.000000
_cell_volume 3134.188906
_symmetry_space_group_name_H-M "C C C A"
_symmetry_group_IT_number 68
_space_group.IT_coordinate_system_code '2'
_symmetry_cell_setting 'orthorhombic'
loop_
_space_group_symop_operation_xyz
x,y,z
-x,1/2-y,z
x,1/2-y,1/2-z
-x,y,1/2-z
-x,-y,-z
x,1/2+y,-z
-x,1/2+y,1/2+z
x,-y,1/2+z
1/2+x,1/2+y,z
1/2-x,-y,z
1/2+x,-y,1/2-z
1/2-x,1/2+y,1/2-z
1/2-x,1/2-y,-z
1/2+x,y,-z
1/2-x,y,1/2+z
1/2+x,1/2-y,1/2+z
loop_
_atom_site_type_symbol
_atom_site_label
_atom_site_fract_x
_atom_site_fract_y
_atom_site_fract_z
Si Si1 0.678075 0.818729 0.961551
Si Si2 0.822274 0.750000 0.750000
Si Si3 0.572506 0.024393 0.040773
Si Si4 0.000000 0.750000 0.250000
Si Si5 0.051694 0.417865 0.176893
Si Si6 0.750000 0.500000 0.652388
O O1 0.603832 0.710851 0.948039
O O2 0.699413 0.899603 0.896269
O O3 0.750000 0.750000 0.000000
O O4 0.644203 0.955540 0.006669
O O5 0.873548 0.623560 0.788168
O O6 0.780919 0.641419 0.698632
O O7 0.560773 0.931037 0.104490
O O8 0.500000 0.000000 0.000000
O O9 0.029912 0.604159 0.202499
O O10 0.000000 0.250000 0.186982
#
# Coordination Sequence:
#
# PCOD9510854 Si02
#       6
#    16   8  16   4  16   8
#     4  12  25  52  77 115 156 206 261 333 408 479
#     4  12  29  51  72 114 156 216 274 324 384 494
#     4  12  28  45  82 117 153 197 259 336 408 474
#     4  12  26  46  76 114 146 220 246 318 418 466
#     4  12  27  51  77 112 162 199 265 331 404 489
#     4  12  30  48  80 106 160 218 274 324 404 490
#
# _framework density 21.696204999999999
#
# number of rings (size 3 to 8) (size 9 to 14) (size 15 to 20)
#    0.000    0.000    4.706    3.529   13.176    0.000 
#    0.000    0.000    0.000    0.000    0.000    0.000 
#    0.000    0.000    0.000    0.000    0.000    0.000 
#
# Total GULP energy -189294.899118 kJ/mol
# GULP energy per Si atom -5567.497033 kJ/mol
# Density = 2.164682 g / cm^3
# Si number density = 21.696205 Si / 1000 Ang^3
#
#
#
# Elastic Constant Matrix: (Units=GPa)
#
#
# Indices 1 2 3 4 5 6 
#
# 1 112.6871 63.7454 76.7682 0.0000 0.0000 0.0000
# 2 63.7454 143.0824 60.4693 0.0000 0.0000 0.0000
# 3 76.7682 60.4693 221.9130 0.0000 0.0000 0.0000
# 4 0.0000 0.0000 0.0000 27.2513 0.0000 0.0000
# 5 0.0000 0.0000 0.0000 0.0000 84.9652 0.0000
# 6 0.0000 0.0000 0.0000 0.0000 0.0000 57.1172
#
#
#
# Elastic Compliance Matrix: (Units=1/GPa)
#
#
# Indices 1 2 3 4 5 6 
#
# 1 0.013958 -0.004722 -0.003542 0.000000 0.000000 0.000000
# 2 -0.004722 0.009496 -0.000954 0.000000 0.000000 0.000000
# 3 -0.003542 -0.000954 0.005992 0.000000 0.000000 0.000000
# 4 0.000000 0.000000 0.000000 0.036695 0.000000 0.000000
# 5 0.000000 0.000000 0.000000 0.000000 0.011770 0.000000
# 6 0.000000 0.000000 0.000000 0.000000 0.000000 0.017508
#
#
# Mechanical properties :
#
#
# Convention : Reuss Voigt Hill
#
# Bulk Modulus (GPa) = 90.82742 97.73869 94.28306
# Shear Modulus (GPa) = 42.54457 52.31339 47.42898
#
# Velocity S-wave (km/s) = 4.43303 4.91570 4.68059
# Velocity P-wave (km/s) = 8.25570 8.79576 8.53000
#
# Compressibility (1/GPa) = 0.01100989
#
# Stress axis : x y z
#
# Youngs Moduli (GPa) = 71.64306 105.31016 166.90063
#
# Poissons Ratio (x) = 0.49723 0.59117
# Poissons Ratio (y) = 0.33827 0.15924
# Poissons Ratio (z) = 0.25376 0.10048
#
# Static dielectric constant tensor:
#      x y z
#    x 1.819160 0.000000 0.000000 
#    y 0.000000 1.108050 0.000000 
#    z 0.000000 0.000000 1.680320 
# 
# From -- ./inp_files/39224.got.cif
#   From: 2010.05.17/outbox.cif.g08.bks.cpg/sg68_20_cif.got.tgz:39224.got - 2010.06.03 18:57:09.
