data_PCOD9510138
_publ_section_title
;
Structure prediction by ZEFSAII (Michael W. Deem and Ramdas Pophale) SiO2 
 PCOD9510138
Probable space group: C C C A
;
_chemical_formula_sum "Si O2"
_cell_formula_units_Z 96
_cell_length_a 9.354776
_cell_length_b 25.339883
_cell_length_c 17.544473
_cell_angle_alpha 90.000000
_cell_angle_beta 90.000000
_cell_angle_gamma 90.000000
_cell_volume 4158.898540
_symmetry_space_group_name_H-M "C C C A"
_symmetry_group_IT_number 68
_space_group.IT_coordinate_system_code '2'
_symmetry_cell_setting 'orthorhombic'
loop_
_space_group_symop_operation_xyz
x,y,z
-x,1/2-y,z
x,1/2-y,1/2-z
-x,y,1/2-z
-x,-y,-z
x,1/2+y,-z
-x,1/2+y,1/2+z
x,-y,1/2+z
1/2+x,1/2+y,z
1/2-x,-y,z
1/2+x,-y,1/2-z
1/2-x,1/2+y,1/2-z
1/2-x,1/2-y,-z
1/2+x,y,-z
1/2-x,y,1/2+z
1/2+x,1/2-y,1/2+z
loop_
_atom_site_type_symbol
_atom_site_label
_atom_site_fract_x
_atom_site_fract_y
_atom_site_fract_z
Si Si1 0.051723 0.305194 0.586827
Si Si2 0.515705 0.583960 0.840675
Si Si3 0.698372 0.444784 0.788144
Si Si4 0.624785 0.338899 0.941911
Si Si5 0.069163 0.097833 0.148230
Si Si6 0.295810 0.942472 0.533638
O O1 0.000614 0.354857 0.636936
O O2 0.968558 0.309959 0.506098
O O3 0.000000 0.250000 0.621011
O O4 0.222734 0.311801 0.574317
O O5 0.500000 0.575447 0.750000
O O6 0.317733 0.570142 0.650898
O O7 0.414390 0.552856 0.898865
O O8 0.750000 0.500000 0.754106
O O9 0.545389 0.446984 0.828528
O O10 0.676089 0.402562 0.720319
O O11 0.525203 0.350598 0.868591
O O12 0.649868 0.397507 0.977050
O O13 0.158322 0.082968 0.074703
O O14 0.250000 0.000000 0.504747
#
# Coordination Sequence:
#
# PCOD9510138 Si02
#       6
#    16  16  16  16  16  16
#     4  11  24  45  68  91 120 164 219 279 336 391
#     4  11  23  40  63  92 126 166 216 265 327 389
#     4  11  23  37  61  94 132 179 218 257 314 397
#     4  11  23  43  64  96 128 170 218 268 330 388
#     4  11  22  38  61  90 134 171 223 261 312 389
#     4  11  23  39  61  93 136 176 214 262 317 393
#
# _framework density 23.083034999999999
#
# number of rings (size 3 to 8) (size 9 to 14) (size 15 to 20)
#    0.000    1.000    5.000    2.000    2.333    1.667 
#    0.000    0.000    0.000    0.000    0.000    4.667 
#    0.000    0.000    0.000    0.000    0.000    0.000 
#
# Total GULP energy -268297.123025 kJ/mol
# GULP energy per Si atom -5589.523396 kJ/mol
# Density = 2.303050 g / cm^3
# Si number density = 23.083035 Si / 1000 Ang^3
#
#
#
# Elastic Constant Matrix: (Units=GPa)
#
#
# Indices 1 2 3 4 5 6 
#
# 1 120.3908 19.3396 13.6228 0.0000 0.0000 0.0000
# 2 19.3396 94.0497 10.2670 0.0000 0.0000 0.0000
# 3 13.6228 10.2670 54.6252 0.0000 0.0000 0.0000
# 4 0.0000 0.0000 0.0000 21.9460 0.0000 0.0000
# 5 0.0000 0.0000 0.0000 0.0000 44.6195 0.0000
# 6 0.0000 0.0000 0.0000 0.0000 0.0000 29.9292
#
#
#
# Elastic Compliance Matrix: (Units=1/GPa)
#
#
# Indices 1 2 3 4 5 6 
#
# 1 0.008777 -0.001599 -0.001888 0.000000 0.000000 0.000000
# 2 -0.001599 0.011147 -0.001696 0.000000 0.000000 0.000000
# 3 -0.001888 -0.001696 0.019096 0.000000 0.000000 0.000000
# 4 0.000000 0.000000 0.000000 0.045566 0.000000 0.000000
# 5 0.000000 0.000000 0.000000 0.000000 0.022412 0.000000
# 6 0.000000 0.000000 0.000000 0.000000 0.000000 0.033412
#
#
# Mechanical properties :
#
#
# Convention : Reuss Voigt Hill
#
# Bulk Modulus (GPa) = 34.90035 39.50272 37.20153
# Shear Modulus (GPa) = 31.18614 34.35469 32.77042
#
# Velocity S-wave (km/s) = 3.67964 3.86205 3.77195
# Velocity P-wave (km/s) = 5.76240 6.08586 5.92634
#
# Compressibility (1/GPa) = 0.02865301
#
# Stress axis : x y z
#
# Youngs Moduli (GPa) = 113.93724 89.71356 52.36608
#
# Poissons Ratio (x) = 0.14342 0.09888
# Poissons Ratio (y) = 0.18214 0.08883
# Poissons Ratio (z) = 0.21515 0.15219
#
# Static dielectric constant tensor:
#      x y z
#    x 1.958310 0.000000 0.000000 
#    y 0.000000 1.855600 0.000000 
#    z 0.000000 0.000000 1.944510 
# 
# From -- ./inp_files/36477.got.cif
#   From: 2010.05.17/outbox.cif.g08.bks.cpg/sg68_19_cif.got.tgz:36477.got - 2010.06.03 18:57:09.
