data_PCOD9510090
_publ_section_title
;
Structure prediction by ZEFSAII (Michael W. Deem and Ramdas Pophale) SiO2 
 PCOD9510090
Probable space group: C C C A
;
_chemical_formula_sum "Si O2"
_cell_formula_units_Z 56
_cell_length_a 17.685503
_cell_length_b 7.901939
_cell_length_c 16.595420
_cell_angle_alpha 90.000000
_cell_angle_beta 90.000000
_cell_angle_gamma 90.000000
_cell_volume 2319.206060
_symmetry_space_group_name_H-M "C C C A"
_symmetry_group_IT_number 68
_space_group.IT_coordinate_system_code '2'
_symmetry_cell_setting 'orthorhombic'
loop_
_space_group_symop_operation_xyz
x,y,z
-x,1/2-y,z
x,1/2-y,1/2-z
-x,y,1/2-z
-x,-y,-z
x,1/2+y,-z
-x,1/2+y,1/2+z
x,-y,1/2+z
1/2+x,1/2+y,z
1/2-x,-y,z
1/2+x,-y,1/2-z
1/2-x,1/2+y,1/2-z
1/2-x,1/2-y,-z
1/2+x,y,-z
1/2-x,y,1/2+z
1/2+x,1/2-y,1/2+z
loop_
_atom_site_type_symbol
_atom_site_label
_atom_site_fract_x
_atom_site_fract_y
_atom_site_fract_z
Si Si1 0.677207 0.906327 0.417513
Si Si2 0.416611 0.224354 0.044481
Si Si3 0.329854 0.750000 0.250000
Si Si4 0.917569 0.086749 0.708508
O O1 0.644167 0.767010 0.476915
O O2 0.704436 0.824582 0.332818
O O3 0.750000 0.000000 0.451862
O O4 0.609447 0.047196 0.414833
O O5 0.500000 0.250000 0.007423
O O6 0.419577 0.363441 0.115334
O O7 0.377762 0.589734 0.220656
O O8 0.878281 0.250000 0.750000
O O9 0.000000 0.076012 0.750000
#
# Coordination Sequence:
#
# PCOD9510090 Si02
#       4
#    16  16   8  16
#     4  12  28  47  73 110 152 198 249 313 383 447
#     4  12  24  47  74 108 150 196 250 315 372 448
#     4  12  25  44  72 104 147 200 256 306 380 454
#     4  11  21  42  72 110 152 188 250 311 373 437
#
# _framework density 24.146194999999999
#
# number of rings (size 3 to 8) (size 9 to 14) (size 15 to 20)
#    0.000    0.286    5.714    3.857    0.000    4.571 
#    0.000    1.429    0.000    0.000    0.000    0.000 
#    0.000    0.000    0.000    0.000    0.000    0.000 
#
# Total GULP energy -156508.699263 kJ/mol
# GULP energy per Si atom -5589.596402 kJ/mol
# Density = 2.409124 g / cm^3
# Si number density = 24.146195 Si / 1000 Ang^3
#
#
#
# Elastic Constant Matrix: (Units=GPa)
#
#
# Indices 1 2 3 4 5 6 
#
# 1 81.8241 22.2309 25.3985 0.0000 0.0000 0.0000
# 2 22.2309 132.4526 7.5982 0.0000 0.0000 0.0000
# 3 25.3985 7.5982 116.6848 0.0000 0.0000 0.0000
# 4 0.0000 0.0000 0.0000 35.2977 0.0000 0.0000
# 5 0.0000 0.0000 0.0000 0.0000 68.7200 0.0000
# 6 0.0000 0.0000 0.0000 0.0000 0.0000 33.0816
#
#
#
# Elastic Compliance Matrix: (Units=1/GPa)
#
#
# Indices 1 2 3 4 5 6 
#
# 1 0.013682 -0.002134 -0.002839 0.000000 0.000000 0.000000
# 2 -0.002134 0.007911 -0.000051 0.000000 0.000000 0.000000
# 3 -0.002839 -0.000051 0.009191 0.000000 0.000000 0.000000
# 4 0.000000 0.000000 0.000000 0.028330 0.000000 0.000000
# 5 0.000000 0.000000 0.000000 0.000000 0.014552 0.000000
# 6 0.000000 0.000000 0.000000 0.000000 0.000000 0.030228
#
#
# Mechanical properties :
#
#
# Convention : Reuss Voigt Hill
#
# Bulk Modulus (GPa) = 48.22181 49.04629 48.63405
# Shear Modulus (GPa) = 41.37198 45.80213 43.58705
#
# Velocity S-wave (km/s) = 4.14381 4.36003 4.25329
# Velocity P-wave (km/s) = 6.55050 6.76038 6.65627
#
# Compressibility (1/GPa) = 0.02073750
#
# Stress axis : x y z
#
# Youngs Moduli (GPa) = 73.08696 126.40816 108.79716
#
# Poissons Ratio (x) = 0.26970 0.30890
# Poissons Ratio (y) = 0.15594 0.00552
# Poissons Ratio (z) = 0.20751 0.00641
#
# Static dielectric constant tensor:
#      x y z
#    x 1.952570 0.000000 0.000000 
#    y 0.000000 1.941730 0.000000 
#    z 0.000000 0.000000 1.955250 
# 
# From -- ./inp_files/24118.got.cif
#   From: 2010.05.17/outbox.cif.g08.bks.cpg/sg68_13_cif.got.tgz:24118.got - 2010.06.03 18:57:09.
