data_PCOD9510071
_publ_section_title
;
Structure prediction by ZEFSAII (Michael W. Deem and Ramdas Pophale) SiO2 
 PCOD9510071
Probable space group: C C C A
;
_chemical_formula_sum "Si O2"
_cell_formula_units_Z 96
_cell_length_a 21.795305
_cell_length_b 11.718637
_cell_length_c 15.819172
_cell_angle_alpha 90.000000
_cell_angle_beta 90.000000
_cell_angle_gamma 90.000000
_cell_volume 4040.394773
_symmetry_space_group_name_H-M "C C C A"
_symmetry_group_IT_number 68
_space_group.IT_coordinate_system_code '2'
_symmetry_cell_setting 'orthorhombic'
loop_
_space_group_symop_operation_xyz
x,y,z
-x,1/2-y,z
x,1/2-y,1/2-z
-x,y,1/2-z
-x,-y,-z
x,1/2+y,-z
-x,1/2+y,1/2+z
x,-y,1/2+z
1/2+x,1/2+y,z
1/2-x,-y,z
1/2+x,-y,1/2-z
1/2-x,1/2+y,1/2-z
1/2-x,1/2-y,-z
1/2+x,y,-z
1/2-x,y,1/2+z
1/2+x,1/2-y,1/2+z
loop_
_atom_site_type_symbol
_atom_site_label
_atom_site_fract_x
_atom_site_fract_y
_atom_site_fract_z
Si Si1 0.669129 0.679936 0.839021
Si Si2 0.114270 0.562999 0.669851
Si Si3 0.059666 0.308217 0.892361
Si Si4 0.005133 0.127297 0.427295
Si Si5 0.386577 0.048087 0.639992
Si Si6 0.299690 0.238712 0.647440
O O1 0.663806 0.750000 0.750000
O O2 0.660654 0.544361 0.825546
O O3 0.611831 0.713503 0.896603
O O4 0.732841 0.719781 0.880670
O O5 0.049929 0.543778 0.623311
O O6 0.098438 0.593857 0.766292
O O7 0.148348 0.668613 0.624387
O O8 0.097687 0.414377 0.853600
O O9 0.000000 0.250000 0.848795
O O10 0.034113 0.350298 0.981884
O O11 0.000000 0.250000 0.382295
O O12 0.935753 0.087040 0.428543
O O13 0.321830 0.111290 0.623040
O O14 0.295694 0.250000 0.750000
#
# Coordination Sequence:
#
# PCOD9510071 Si02
#       6
#    16  16  16  16  16  16
#     4  11  22  42  66  99 133 169 221 277 344 409
#     4  11  21  40  68 100 129 168 223 280 333 406
#     4  11  25  42  63  95 136 177 216 278 344 397
#     4  11  23  40  65  91 134 174 221 276 339 402
#     4  11  21  40  68  99 129 170 224 277 337 406
#     4   9  21  37  68 100 130 167 217 283 338 401
#
# _framework density 23.760055000000001
#
# number of rings (size 3 to 8) (size 9 to 14) (size 15 to 20)
#    0.000    1.333    3.333    2.500    0.000    3.000 
#    0.000    0.833    3.667    0.000    0.000    0.000 
#    0.000    0.000    0.000    0.000    0.000    0.000 
#
# Total GULP energy -267734.776244 kJ/mol
# GULP energy per Si atom -5577.807838 kJ/mol
# Density = 2.370598 g / cm^3
# Si number density = 23.760055 Si / 1000 Ang^3
#
#
#
# Elastic Constant Matrix: (Units=GPa)
#
#
# Indices 1 2 3 4 5 6 
#
# 1 149.8098 43.2861 27.5682 0.0000 0.0000 0.0000
# 2 43.2861 126.2221 -0.1419 0.0000 0.0000 0.0000
# 3 27.5682 -0.1419 55.1223 0.0000 0.0000 0.0000
# 4 0.0000 0.0000 0.0000 21.0944 0.0000 0.0000
# 5 0.0000 0.0000 0.0000 0.0000 49.4002 0.0000
# 6 0.0000 0.0000 0.0000 0.0000 0.0000 44.9933
#
#
#
# Elastic Compliance Matrix: (Units=1/GPa)
#
#
# Indices 1 2 3 4 5 6 
#
# 1 0.008256 -0.002836 -0.004136 0.000000 0.000000 0.000000
# 2 -0.002836 0.008897 0.001441 0.000000 0.000000 0.000000
# 3 -0.004136 0.001441 0.020214 0.000000 0.000000 0.000000
# 4 0.000000 0.000000 0.000000 0.047406 0.000000 0.000000
# 5 0.000000 0.000000 0.000000 0.000000 0.020243 0.000000
# 6 0.000000 0.000000 0.000000 0.000000 0.000000 0.022226
#
#
# Mechanical properties :
#
#
# Convention : Reuss Voigt Hill
#
# Bulk Modulus (GPa) = 38.01633 52.50877 45.26255
# Shear Modulus (GPa) = 33.99734 40.46036 37.22885
#
# Velocity S-wave (km/s) = 3.78678 4.13107 3.96266
# Velocity P-wave (km/s) = 5.92911 6.70088 6.32678
#
# Compressibility (1/GPa) = 0.02630449
#
# Stress axis : x y z
#
# Youngs Moduli (GPa) = 121.12902 112.40170 49.47111
#
# Poissons Ratio (x) = 0.31875 0.20462
# Poissons Ratio (y) = 0.34350 -0.07130
# Poissons Ratio (z) = 0.50101 -0.16199
#
# Static dielectric constant tensor:
#      x y z
#    x 1.911600 0.000000 0.000000 
#    y 0.000000 2.096760 0.000000 
#    z 0.000000 0.000000 1.894890 
# 
# From -- ./inp_files/40240.got.cif
#   From: 2010.05.17/outbox.cif.g08.bks.cpg/sg68_21_cif.got.tgz:40240.got - 2010.06.03 18:57:09.
