data_PCOD9510974
_publ_section_title
;
Structure prediction by ZEFSAII (Michael W. Deem and Ramdas Pophale) SiO2 
 PCOD9510974
Probable space group: C C C A
;
_chemical_formula_sum "Si O2"
_cell_formula_units_Z 50
_cell_length_a 27.000000
_cell_length_b 21.000000
_cell_length_c 9.000000
_cell_angle_alpha 90.000000
_cell_angle_beta 90.000000
_cell_angle_gamma 90.000000
_cell_volume 5103.000000
_symmetry_space_group_name_H-M "C C C A"
_symmetry_group_IT_number 68
_space_group.IT_coordinate_system_code '2'
_symmetry_cell_setting 'orthorhombic'
loop_
_space_group_symop_operation_xyz
x,y,z
-x,1/2-y,z
x,1/2-y,1/2-z
-x,y,1/2-z
-x,-y,-z
x,1/2+y,-z
-x,1/2+y,1/2+z
x,-y,1/2+z
1/2+x,1/2+y,z
1/2-x,-y,z
1/2+x,-y,1/2-z
1/2-x,1/2+y,1/2-z
1/2-x,1/2-y,-z
1/2+x,y,-z
1/2-x,y,1/2+z
1/2+x,1/2-y,1/2+z
loop_
_atom_site_type_symbol
_atom_site_label
_atom_site_fract_x
_atom_site_fract_y
_atom_site_fract_z
Si Si1 0.930128 0.682432 0.000288
Si Si2 0.311863 0.873552 0.875453
Si Si3 0.000000 0.750000 0.750000
Si Si4 0.000000 0.614261 0.250000
Si Si5 0.883766 0.572309 0.800135
Si Si6 0.912944 0.944072 0.046503
Si Si7 0.637899 0.750000 0.750000
Si Si8 0.726891 0.067995 0.828706
O O1 0.964154 0.713741 0.869439
O O2 0.896016 0.634730 0.899789
O O3 0.895783 0.726372 0.108839
O O4 0.966355 0.651419 0.126909
O O5 0.364833 0.908992 0.885689
O O6 0.327151 0.804730 0.816766
O O7 0.271485 0.903442 0.766333
O O8 0.287858 0.885047 0.037202
O O9 0.038666 0.577809 0.139815
O O10 0.910345 0.568610 0.634026
O O11 0.904065 0.516961 0.907945
O O12 0.825048 0.561675 0.763634
O O13 0.750000 0.000000 0.882540
#
# Coordination Sequence:
#
# PCOD9510974 Si02
#       8
#    16  16   4   8  16  16   8  16
#     4  12  27  47  73 101 145 196 248 307 356 438
#     4  11  26  44  70 105 143 188 243 289 363 428
#     4  12  28  44  74 104 138 200 268 290 368 436
#     4  12  24  46  76  98 143 193 240 286 380 422
#     4  11  26  44  73 107 149 175 239 303 372 426
#     4  11  24  44  70 111 140 182 234 303 363 442
#     4  12  28  49  69 100 154 193 244 301 358 430
#     4  11  24  45  77 108 141 187 237 297 372 441
#
# _framework density 9.7981580000000008
#
# number of rings (size 3 to 8) (size 9 to 14) (size 15 to 20)
#    0.000    0.640    3.200    3.360    8.960    3.840 
#    0.000    0.000    0.000    0.000    0.000    0.000 
#    0.000    0.000    0.000    0.000    0.000    0.000 
#
# Total GULP energy -278897.515429 kJ/mol
# GULP energy per Si atom -5577.950309 kJ/mol
# Density = 0.977586 g / cm^3
# Si number density = 9.798158 Si / 1000 Ang^3
#
#
#
# Elastic Constant Matrix: (Units=GPa)
#
#
# Indices 1 2 3 4 5 6 
#
# 1 90.8755 27.5668 49.8372 0.0000 0.0000 0.0000
# 2 27.5668 78.2474 60.6190 0.0000 0.0000 0.0000
# 3 49.8372 60.6190 153.5330 0.0000 0.0000 0.0000
# 4 0.0000 0.0000 0.0000 44.8042 0.0000 0.0000
# 5 0.0000 0.0000 0.0000 0.0000 43.5533 0.0000
# 6 0.0000 0.0000 0.0000 0.0000 0.0000 35.6106
#
#
#
# Elastic Compliance Matrix: (Units=1/GPa)
#
#
# Indices 1 2 3 4 5 6 
#
# 1 0.013596 -0.001975 -0.003633 0.000000 0.000000 0.000000
# 2 -0.001975 0.018699 -0.006742 0.000000 0.000000 0.000000
# 3 -0.003633 -0.006742 0.010354 0.000000 0.000000 0.000000
# 4 0.000000 0.000000 0.000000 0.022319 0.000000 0.000000
# 5 0.000000 0.000000 0.000000 0.000000 0.022960 0.000000
# 6 0.000000 0.000000 0.000000 0.000000 0.000000 0.028082
#
#
# Mechanical properties :
#
#
# Convention : Reuss Voigt Hill
#
# Bulk Modulus (GPa) = 55.71425 66.52243 61.11834
# Shear Modulus (GPa) = 34.08474 37.10245 35.59359
#
# Velocity S-wave (km/s) = 4.17507 4.35597 4.26648
# Velocity P-wave (km/s) = 7.19266 7.70191 7.45163
#
# Compressibility (1/GPa) = 0.01794873
#
# Stress axis : x y z
#
# Youngs Moduli (GPa) = 73.55209 53.47996 96.57662
#
# Poissons Ratio (x) = 0.10562 0.35091
# Poissons Ratio (y) = 0.14526 0.65108
# Poissons Ratio (z) = 0.26725 0.36054
#
# Static dielectric constant tensor:
#      x y z
#    x 1.688120 0.000000 0.000000 
#    y 0.000000 1.757070 0.000000 
#    z 0.000000 0.000000 1.678080 
# 
# From -- ./inp_files/9046.got.cif
#   From: 2010.05.17/outbox.ucp.g08.bks.cvg/sg68_5_cif.got.tgz:9046.got - 2010.06.11 16:49:25.
