data_PCOD9510142
_publ_section_title
;
Structure prediction by ZEFSAII (Michael W. Deem and Ramdas Pophale) SiO2 
 PCOD9510142
Probable space group: C C C A
;
_chemical_formula_sum "Si O2"
_cell_formula_units_Z 72
_cell_length_a 11.393788
_cell_length_b 25.405552
_cell_length_c 9.982791
_cell_angle_alpha 90.000000
_cell_angle_beta 90.000000
_cell_angle_gamma 90.000000
_cell_volume 2889.673324
_symmetry_space_group_name_H-M "C C C A"
_symmetry_group_IT_number 68
_space_group.IT_coordinate_system_code '2'
_symmetry_cell_setting 'orthorhombic'
loop_
_space_group_symop_operation_xyz
x,y,z
-x,1/2-y,z
x,1/2-y,1/2-z
-x,y,1/2-z
-x,-y,-z
x,1/2+y,-z
-x,1/2+y,1/2+z
x,-y,1/2+z
1/2+x,1/2+y,z
1/2-x,-y,z
1/2+x,-y,1/2-z
1/2-x,1/2+y,1/2-z
1/2-x,1/2-y,-z
1/2+x,y,-z
1/2-x,y,1/2+z
1/2+x,1/2-y,1/2+z
loop_
_atom_site_type_symbol
_atom_site_label
_atom_site_fract_x
_atom_site_fract_y
_atom_site_fract_z
Si Si1 0.291323 0.205172 0.679278
Si Si2 0.000000 0.250000 0.017151
Si Si3 0.935052 0.141365 0.889490
Si Si4 0.771068 0.561469 0.980064
Si Si5 0.629090 0.597244 0.218878
O O1 0.214467 0.250000 0.750000
O O2 0.380916 0.243135 0.602124
O O3 0.192445 0.169170 0.616254
O O4 0.367410 0.159659 0.749279
O O5 0.003819 0.192069 0.948360
O O6 0.893354 0.087967 0.965717
O O7 0.000000 0.128605 0.750000
O O8 0.750000 0.500000 0.001736
O O9 0.665297 0.587014 0.065793
O O10 0.776327 0.572859 0.821388
O O11 0.500000 0.576505 0.250000
#
# Coordination Sequence:
#
# PCOD9510142 Si02
#       5
#    16   8  16  16  16
#     4  11  22  38  63  96 140 189 240 305 382 475
#     4  12  22  40  68 106 150 198 248 312 404 492
#     4  11  25  42  68 104 148 199 256 320 395 487
#     4  11  26  47  71 103 144 195 261 331 396 476
#     4  11  25  45  70 103 142 193 255 325 405 481
#
# _framework density 24.916311
#
# number of rings (size 3 to 8) (size 9 to 14) (size 15 to 20)
#    0.000    0.889    0.000    7.333    0.000   14.222 
#    0.000    0.000    0.000    0.000    0.000    0.000 
#    0.000    0.000    0.000    0.000    0.000    0.000 
#
# Total GULP energy -200533.397689 kJ/mol
# GULP energy per Si atom -5570.372158 kJ/mol
# Density = 2.485960 g / cm^3
# Si number density = 24.916311 Si / 1000 Ang^3
#
#
#
# Elastic Constant Matrix: (Units=GPa)
#
#
# Indices 1 2 3 4 5 6 
#
# 1 83.3172 12.7065 22.4134 0.0000 0.0000 0.0000
# 2 12.7065 159.6433 13.2461 0.0000 0.0000 0.0000
# 3 22.4134 13.2461 46.7543 0.0000 0.0000 0.0000
# 4 0.0000 0.0000 0.0000 23.4445 0.0000 0.0000
# 5 0.0000 0.0000 0.0000 0.0000 34.4742 0.0000
# 6 0.0000 0.0000 0.0000 0.0000 0.0000 28.9849
#
#
#
# Elastic Compliance Matrix: (Units=1/GPa)
#
#
# Indices 1 2 3 4 5 6 
#
# 1 0.013829 -0.000564 -0.006470 0.000000 0.000000 0.000000
# 2 -0.000564 0.006438 -0.001554 0.000000 0.000000 0.000000
# 3 -0.006470 -0.001554 0.024930 0.000000 0.000000 0.000000
# 4 0.000000 0.000000 0.000000 0.042654 0.000000 0.000000
# 5 0.000000 0.000000 0.000000 0.000000 0.029007 0.000000
# 6 0.000000 0.000000 0.000000 0.000000 0.000000 0.034501
#
#
# Mechanical properties :
#
#
# Convention : Reuss Voigt Hill
#
# Bulk Modulus (GPa) = 35.68571 42.93854 39.31212
# Shear Modulus (GPa) = 28.10990 33.47062 30.79026
#
# Velocity S-wave (km/s) = 3.36247 3.66911 3.51913
# Velocity P-wave (km/s) = 5.42478 5.93467 5.68545
#
# Compressibility (1/GPa) = 0.02802242
#
# Stress axis : x y z
#
# Youngs Moduli (GPa) = 72.31327 155.33371 40.11230
#
# Poissons Ratio (x) = 0.08759 0.25951
# Poissons Ratio (y) = 0.04078 0.06232
# Poissons Ratio (z) = 0.46784 0.24133
#
# Static dielectric constant tensor:
#      x y z
#    x 2.115150 0.000000 0.000000 
#    y 0.000000 2.223360 0.000000 
#    z 0.000000 0.000000 2.261780 
# 
# From -- ./inp_files/11826.got.cif
#   From: 2010.05.17/outbox.cif.g08.bks.cpg/sg68_6_cif.got.tgz:11826.got - 2010.06.03 18:57:09.
