data_PCOD9510444
_publ_section_title
;
Structure prediction by ZEFSAII (Michael W. Deem and Ramdas Pophale) SiO2 
 PCOD9510444
Probable space group: C C C A
;
_chemical_formula_sum "Si O2"
_cell_formula_units_Z 88
_cell_length_a 23.209281
_cell_length_b 13.558873
_cell_length_c 13.100934
_cell_angle_alpha 90.000000
_cell_angle_beta 90.000000
_cell_angle_gamma 90.000000
_cell_volume 4122.755107
_symmetry_space_group_name_H-M "C C C A"
_symmetry_group_IT_number 68
_space_group.IT_coordinate_system_code '2'
_symmetry_cell_setting 'orthorhombic'
loop_
_space_group_symop_operation_xyz
x,y,z
-x,1/2-y,z
x,1/2-y,1/2-z
-x,y,1/2-z
-x,-y,-z
x,1/2+y,-z
-x,1/2+y,1/2+z
x,-y,1/2+z
1/2+x,1/2+y,z
1/2-x,-y,z
1/2+x,-y,1/2-z
1/2-x,1/2+y,1/2-z
1/2-x,1/2-y,-z
1/2+x,y,-z
1/2-x,y,1/2+z
1/2+x,1/2-y,1/2+z
loop_
_atom_site_type_symbol
_atom_site_label
_atom_site_fract_x
_atom_site_fract_y
_atom_site_fract_z
Si Si1 0.212091 0.250000 0.750000
Si Si2 0.925797 0.973654 0.616311
Si Si3 0.283019 0.104114 0.611717
Si Si4 0.803757 0.068865 0.618722
Si Si5 0.089369 0.646008 0.811223
Si Si6 0.507892 0.356119 0.488521
O O1 0.250460 0.194010 0.665715
O O2 0.181210 0.341471 0.694538
O O3 0.934465 0.930354 0.728249
O O4 0.947518 0.895441 0.532493
O O5 0.859191 0.000549 0.604217
O O6 0.964092 0.067948 0.589179
O O7 0.286823 0.114636 0.490064
O O8 0.347792 0.107931 0.655237
O O9 0.250000 0.000000 0.628266
O O10 0.750000 0.000000 0.651781
O O11 0.093043 0.750000 0.750000
O O12 0.049257 0.652622 0.911183
O O13 0.500000 0.250000 0.441501
#
# Coordination Sequence:
#
# PCOD9510444 Si02
#       6
#     8  16  16  16  16  16
#     4  12  22  42  68 100 138 174 224 278 342 412
#     4  11  24  43  68 105 135 176 226 292 336 397
#     4  11  24  43  67 101 139 180 223 280 338 410
#     4  11  25  45  66  99 139 179 226 280 345 408
#     4  12  22  42  75 100 129 185 241 277 337 414
#     4  11  24  45  70 101 138 179 238 284 340 400
#
# _framework density 21.344950000000001
#
# number of rings (size 3 to 8) (size 9 to 14) (size 15 to 20)
#    0.000    0.727    4.545    3.818    0.000    0.000 
#    6.545    3.636    0.000    1.091    0.000    0.000 
#    0.000    0.000    0.000    0.000    0.000    0.000 
#
# Total GULP energy -246068.130750 kJ/mol
# GULP energy per Si atom -5592.457517 kJ/mol
# Density = 2.129637 g / cm^3
# Si number density = 21.344950 Si / 1000 Ang^3
#
#
#
# Elastic Constant Matrix: (Units=GPa)
#
#
# Indices 1 2 3 4 5 6 
#
# 1 105.4197 32.6156 6.3466 0.0000 0.0000 0.0000
# 2 32.6156 129.4993 34.6357 0.0000 0.0000 0.0000
# 3 6.3466 34.6357 91.5655 0.0000 0.0000 0.0000
# 4 0.0000 0.0000 0.0000 33.8430 0.0000 0.0000
# 5 0.0000 0.0000 0.0000 0.0000 -227.0679 0.0000
# 6 0.0000 0.0000 0.0000 0.0000 0.0000 10.5325
#
#
#
# Elastic Compliance Matrix: (Units=1/GPa)
#
#
# Indices 1 2 3 4 5 6 
#
# 1 0.010295 -0.002672 0.000297 0.000000 0.000000 0.000000
# 2 -0.002672 0.009285 -0.003327 0.000000 0.000000 0.000000
# 3 0.000297 -0.003327 0.012159 0.000000 0.000000 0.000000
# 4 0.000000 0.000000 0.000000 0.029548 0.000000 0.000000
# 5 0.000000 0.000000 0.000000 0.000000 -0.004404 0.000000
# 6 0.000000 0.000000 0.000000 0.000000 0.000000 0.094944
#
#
# Mechanical properties :
#
#
# Convention : Reuss Voigt Hill
#
# Bulk Modulus (GPa) = 49.17686 52.63114 50.90400
# Shear Modulus (GPa) = 29.41015 -19.67936 4.86539
#
# Velocity S-wave (km/s) = 3.71597 -3.03969 1.51141
# Velocity P-wave (km/s) = 6.44208 3.52014 5.19094
#
# Compressibility (1/GPa) = 0.02033477
#
# Stress axis : x y z
#
# Youngs Moduli (GPa) = 97.13656 107.70164 82.24384
#
# Poissons Ratio (x) = 0.28782 -0.02445
# Poissons Ratio (y) = 0.25958 0.27362
# Poissons Ratio (z) = -0.02888 0.35831
#
# Static dielectric constant tensor:
#      x y z
#    x 1.766310 0.000000 0.000000 
#    y 0.000000 1.736430 0.000000 
#    z 0.000000 0.000000 1.775050 
# 
# From -- ./inp_files/20976.got.cif
#   From: 2010.05.17/outbox.cif.g08.bks.cpg/sg68_11_cif.got.tgz:20976.got - 2010.06.03 18:57:09.
