data_PCOD9510308
_publ_section_title
;
Structure prediction by ZEFSAII (Michael W. Deem and Ramdas Pophale) SiO2 
 PCOD9510308
Probable space group: C C C A
;
_chemical_formula_sum "Si O2"
_cell_formula_units_Z 64
_cell_length_a 13.927921
_cell_length_b 17.559149
_cell_length_c 12.007573
_cell_angle_alpha 90.000000
_cell_angle_beta 90.000000
_cell_angle_gamma 90.000000
_cell_volume 2936.601353
_symmetry_space_group_name_H-M "C C C A"
_symmetry_group_IT_number 68
_space_group.IT_coordinate_system_code '2'
_symmetry_cell_setting 'orthorhombic'
loop_
_space_group_symop_operation_xyz
x,y,z
-x,1/2-y,z
x,1/2-y,1/2-z
-x,y,1/2-z
-x,-y,-z
x,1/2+y,-z
-x,1/2+y,1/2+z
x,-y,1/2+z
1/2+x,1/2+y,z
1/2-x,-y,z
1/2+x,-y,1/2-z
1/2-x,1/2+y,1/2-z
1/2-x,1/2-y,-z
1/2+x,y,-z
1/2-x,y,1/2+z
1/2+x,1/2-y,1/2+z
loop_
_atom_site_type_symbol
_atom_site_label
_atom_site_fract_x
_atom_site_fract_y
_atom_site_fract_z
Si Si1 0.438511 0.327251 0.477471
Si Si2 0.216554 0.335910 0.781082
Si Si3 0.604055 0.599957 0.304492
Si Si4 0.926409 0.567784 0.354769
O O1 0.500000 0.250000 0.462784
O O2 0.353435 0.334068 0.387376
O O3 0.394300 0.336819 0.599145
O O4 0.512759 0.397033 0.455348
O O5 0.239836 0.250000 0.750000
O O6 0.313884 0.384357 0.786272
O O7 0.156378 0.374227 0.680965
O O8 0.500000 0.603341 0.250000
O O9 0.614561 0.517086 0.361542
O O10 0.000000 0.566797 0.250000
#
# Coordination Sequence:
#
# PCOD9510308 Si02
#       4
#    16  16  16  16
#     4  11  23  42  72  98 128 179 228 274 333 397
#     4  11  23  41  69  96 130 173 226 272 328 398
#     4  11  26  42  64  99 142 172 215 281 340 398
#     4   9  20  43  68  96 130 174 224 273 328 392
#
# _framework density 21.793901000000002
#
# number of rings (size 3 to 8) (size 9 to 14) (size 15 to 20)
#    0.000    1.500    2.500    1.500    3.500    3.000 
#    0.000    7.500    0.000    0.000    0.000    0.000 
#    0.000    0.000    0.000    0.000    0.000    0.000 
#
# Total GULP energy -178810.346645 kJ/mol
# GULP energy per Si atom -5587.823333 kJ/mol
# Density = 2.174430 g / cm^3
# Si number density = 21.793901 Si / 1000 Ang^3
#
#
#
# Elastic Constant Matrix: (Units=GPa)
#
#
# Indices 1 2 3 4 5 6 
#
# 1 99.9448 64.6640 19.4512 0.0000 0.0000 0.0000
# 2 64.6640 118.5992 23.6523 0.0000 0.0000 0.0000
# 3 19.4512 23.6523 61.6273 0.0000 0.0000 0.0000
# 4 0.0000 0.0000 0.0000 20.0163 0.0000 0.0000
# 5 0.0000 0.0000 0.0000 0.0000 27.2097 0.0000
# 6 0.0000 0.0000 0.0000 0.0000 0.0000 23.0761
#
#
#
# Elastic Compliance Matrix: (Units=1/GPa)
#
#
# Indices 1 2 3 4 5 6 
#
# 1 0.015641 -0.008169 -0.001802 0.000000 0.000000 0.000000
# 2 -0.008169 0.013397 -0.002563 0.000000 0.000000 0.000000
# 3 -0.001802 -0.002563 0.017779 0.000000 0.000000 0.000000
# 4 0.000000 0.000000 0.000000 0.049959 0.000000 0.000000
# 5 0.000000 0.000000 0.000000 0.000000 0.036752 0.000000
# 6 0.000000 0.000000 0.000000 0.000000 0.000000 0.043335
#
#
# Mechanical properties :
#
#
# Convention : Reuss Voigt Hill
#
# Bulk Modulus (GPa) = 45.97799 55.07850 50.52824
# Shear Modulus (GPa) = 23.90277 25.55400 24.72838
#
# Velocity S-wave (km/s) = 3.31534 3.42794 3.37211
# Velocity P-wave (km/s) = 5.98313 6.40273 6.19648
#
# Compressibility (1/GPa) = 0.02174954
#
# Stress axis : x y z
#
# Youngs Moduli (GPa) = 63.93285 74.64403 56.24596
#
# Poissons Ratio (x) = 0.60976 0.10134
# Poissons Ratio (y) = 0.52226 0.14418
# Poissons Ratio (z) = 0.11519 0.19134
#
# Static dielectric constant tensor:
#      x y z
#    x 1.807760 0.000000 0.000000 
#    y 0.000000 1.815570 0.000000 
#    z 0.000000 0.000000 1.806930 
# 
# From -- ./inp_files/11543.got.cif
#   From: 2010.05.17/outbox.cif.g08.bks.cpg/sg68_6_cif.got.tgz:11543.got - 2010.06.03 18:57:09.
