data_PCOD9510547
_publ_section_title
;
Structure prediction by ZEFSAII (Michael W. Deem and Ramdas Pophale) SiO2 
 PCOD9510547
Probable space group: C C C A
;
_chemical_formula_sum "Si O2"
_cell_formula_units_Z 96
_cell_length_a 13.058450
_cell_length_b 9.981443
_cell_length_c 33.453833
_cell_angle_alpha 90.000000
_cell_angle_beta 90.000000
_cell_angle_gamma 90.000000
_cell_volume 4360.445333
_symmetry_space_group_name_H-M "C C C A"
_symmetry_group_IT_number 68
_space_group.IT_coordinate_system_code '2'
_symmetry_cell_setting 'orthorhombic'
loop_
_space_group_symop_operation_xyz
x,y,z
-x,1/2-y,z
x,1/2-y,1/2-z
-x,y,1/2-z
-x,-y,-z
x,1/2+y,-z
-x,1/2+y,1/2+z
x,-y,1/2+z
1/2+x,1/2+y,z
1/2-x,-y,z
1/2+x,-y,1/2-z
1/2-x,1/2+y,1/2-z
1/2-x,1/2-y,-z
1/2+x,y,-z
1/2-x,y,1/2+z
1/2+x,1/2-y,1/2+z
loop_
_atom_site_type_symbol
_atom_site_label
_atom_site_fract_x
_atom_site_fract_y
_atom_site_fract_z
Si Si1 0.611401 0.886429 0.731963
Si Si2 0.250000 0.500000 0.788103
Si Si3 0.930444 0.545537 0.938759
Si Si4 0.150619 0.849678 0.560261
Si Si5 0.155687 0.168990 0.151590
Si Si6 0.932893 0.535135 0.846808
Si Si7 0.750000 0.500000 0.496822
O O1 0.661783 0.750000 0.750000
O O2 0.500000 0.879617 0.750000
O O3 0.659015 0.007781 0.756802
O O4 0.603870 0.925905 0.685511
O O5 0.242668 0.622875 0.818372
O O6 0.893131 0.699855 0.940804
O O7 0.919971 0.493646 0.893223
O O8 0.849668 0.480949 0.968975
O O9 0.052118 0.553087 0.947683
O O10 0.185065 0.862420 0.606027
O O11 0.239244 0.878545 0.528608
O O12 0.128740 0.324849 0.157024
O O13 0.051638 0.081389 0.159127
#
# Coordination Sequence:
#
# PCOD9510547 Si02
#       7
#    16   8  16  16  16  16   8
#     4  11  25  42  59  86 125 157 185 259 311 352
#     4  12  23  37  60  92 110 154 206 239 307 358
#     4   9  20  36  59  82 117 161 191 242 295 347
#     4   9  19  37  57  82 120 154 199 243 289 345
#     4   9  19  37  64  86 109 162 206 250 288 357
#     4   9  19  42  61  81 118 159 207 242 297 357
#     4  12  19  31  58  94 120 152 196 247 291 352
#
# _framework density 22.016099000000001
#
# number of rings (size 3 to 8) (size 9 to 14) (size 15 to 20)
#    0.000    2.167    1.667    3.500    2.333    0.667 
#    3.000    0.000    0.000    2.000    0.000    0.000 
#    0.000    0.000    0.000    0.000    0.000    0.000 
#
# Total GULP energy -267300.688368 kJ/mol
# GULP energy per Si atom -5568.764341 kJ/mol
# Density = 2.196599 g / cm^3
# Si number density = 22.016099 Si / 1000 Ang^3
#
#
#
# Elastic Constant Matrix: (Units=GPa)
#
#
# Indices 1 2 3 4 5 6 
#
# 1 31.2641 4.8537 38.1343 0.0000 0.0000 0.0000
# 2 4.8537 41.1993 40.7823 0.0000 0.0000 0.0000
# 3 38.1343 40.7823 171.8368 0.0000 0.0000 0.0000
# 4 0.0000 0.0000 0.0000 39.4445 0.0000 0.0000
# 5 0.0000 0.0000 0.0000 0.0000 22.8045 0.0000
# 6 0.0000 0.0000 0.0000 0.0000 0.0000 22.4132
#
#
#
# Elastic Compliance Matrix: (Units=1/GPa)
#
#
# Indices 1 2 3 4 5 6 
#
# 1 0.044959 0.005986 -0.011398 0.000000 0.000000 0.000000
# 2 0.005986 0.032523 -0.009047 0.000000 0.000000 0.000000
# 3 -0.011398 -0.009047 0.010496 0.000000 0.000000 0.000000
# 4 0.000000 0.000000 0.000000 0.025352 0.000000 0.000000
# 5 0.000000 0.000000 0.000000 0.000000 0.043851 0.000000
# 6 0.000000 0.000000 0.000000 0.000000 0.000000 0.044616
#
#
# Mechanical properties :
#
#
# Convention : Reuss Voigt Hill
#
# Bulk Modulus (GPa) = 16.93205 45.76009 31.34607
# Shear Modulus (GPa) = 19.96791 27.63445 23.80118
#
# Velocity S-wave (km/s) = 3.01486 3.54671 3.29155
# Velocity P-wave (km/s) = 4.45271 6.13206 5.35858
#
# Compressibility (1/GPa) = 0.05905958
#
# Stress axis : x y z
#
# Youngs Moduli (GPa) = 22.24248 30.74789 95.27339
#
# Poissons Ratio (x) = -0.18406 1.08593
# Poissons Ratio (y) = -0.13315 0.86195
# Poissons Ratio (z) = 0.25352 0.27818
#
# Static dielectric constant tensor:
#      x y z
#    x 1.901460 0.000000 0.000000 
#    y 0.000000 2.188980 0.000000 
#    z 0.000000 0.000000 1.786710 
# 
# From -- ./inp_files/55222.got.cif
#   From: 2010.05.17/outbox.cif.g08.bks.cpg/sg68_28_cif.got.tgz:55222.got - 2010.06.03 18:57:09.
