data_PCOD9510083
_publ_section_title
;
Structure prediction by ZEFSAII (Michael W. Deem and Ramdas Pophale) SiO2 
 PCOD9510083
Probable space group: C C C A
;
_chemical_formula_sum "Si O2"
_cell_formula_units_Z 116
_cell_length_a 22.256640
_cell_length_b 9.544616
_cell_length_c 28.271833
_cell_angle_alpha 90.000000
_cell_angle_beta 90.000000
_cell_angle_gamma 90.000000
_cell_volume 6005.816081
_symmetry_space_group_name_H-M "C C C A"
_symmetry_group_IT_number 68
_space_group.IT_coordinate_system_code '2'
_symmetry_cell_setting 'orthorhombic'
loop_
_space_group_symop_operation_xyz
x,y,z
-x,1/2-y,z
x,1/2-y,1/2-z
-x,y,1/2-z
-x,-y,-z
x,1/2+y,-z
-x,1/2+y,1/2+z
x,-y,1/2+z
1/2+x,1/2+y,z
1/2-x,-y,z
1/2+x,-y,1/2-z
1/2-x,1/2+y,1/2-z
1/2-x,1/2-y,-z
1/2+x,y,-z
1/2-x,y,1/2+z
1/2+x,1/2-y,1/2+z
loop_
_atom_site_type_symbol
_atom_site_label
_atom_site_fract_x
_atom_site_fract_y
_atom_site_fract_z
Si Si1 0.084230 0.996424 0.605852
Si Si2 0.400623 0.228686 0.680857
Si Si3 0.000000 0.750000 0.750000
Si Si4 0.870514 0.781122 0.072962
Si Si5 0.773290 0.160153 0.205267
Si Si6 0.556527 0.054048 0.601906
Si Si7 0.882340 0.237428 0.461822
Si Si8 0.238715 0.833585 0.906073
O O1 0.113648 0.904031 0.647746
O O2 0.105238 0.916584 0.558548
O O3 0.012194 0.989126 0.607473
O O4 0.103775 0.155081 0.603713
O O5 0.452751 0.174866 0.715779
O O6 0.344800 0.307125 0.705021
O O7 0.426941 0.348192 0.646329
O O8 0.798862 0.768340 0.073618
O O9 0.898104 0.924492 0.094185
O O10 0.885685 0.767005 0.017835
O O11 0.748729 0.250000 0.250000
O O12 0.760832 0.200577 0.150224
O O13 0.750000 0.000000 0.210653
O O14 0.567240 0.156983 0.557739
O O15 0.820271 0.289475 0.435928
O O16 0.250000 0.000000 0.909796
#
# Coordination Sequence:
#
# PCOD9510083 Si02
#       8
#    16  16   4  16  16  16  16  16
#     4  11  24  38  62  97 130 162 213 271 318 368
#     4  11  21  43  70  97 124 171 217 260 312 398
#     4  12  20  40  84  98 112 172 236 248 312 400
#     4  12  25  38  63  93 129 170 213 264 325 379
#     4  11  23  41  67  95 125 168 211 266 330 386
#     4  11  21  42  63  87 137 167 206 262 330 378
#     4  11  22  41  64  89 122 176 223 256 310 390
#     4  11  22  44  64  84 127 173 211 266 325 379
#
# _framework density 19.314609000000001
#
# number of rings (size 3 to 8) (size 9 to 14) (size 15 to 20)
#    0.000    0.828    6.207    3.724    0.000    4.966 
#    0.000    0.000    0.000    0.828    0.000    0.000 
#    0.000    0.000    0.000    0.000    0.000    0.000 
#
# Total GULP energy -323301.342135 kJ/mol
# GULP energy per Si atom -5574.161071 kJ/mol
# Density = 1.927065 g / cm^3
# Si number density = 19.314609 Si / 1000 Ang^3
#
#
#
# Elastic Constant Matrix: (Units=GPa)
#
#
# Indices 1 2 3 4 5 6 
#
# 1 53.7445 12.2594 5.0064 0.0000 0.0000 0.0000
# 2 12.2594 77.9945 27.1949 0.0000 0.0000 0.0000
# 3 5.0064 27.1949 76.4747 0.0000 0.0000 0.0000
# 4 0.0000 0.0000 0.0000 4.9526 0.0000 0.0000
# 5 0.0000 0.0000 0.0000 0.0000 15.8835 0.0000
# 6 0.0000 0.0000 0.0000 0.0000 0.0000 29.2426
#
#
#
# Elastic Compliance Matrix: (Units=1/GPa)
#
#
# Indices 1 2 3 4 5 6 
#
# 1 0.019301 -0.002960 -0.000211 0.000000 0.000000 0.000000
# 2 -0.002960 0.015090 -0.005172 0.000000 0.000000 0.000000
# 3 -0.000211 -0.005172 0.014929 0.000000 0.000000 0.000000
# 4 0.000000 0.000000 0.000000 0.201912 0.000000 0.000000
# 5 0.000000 0.000000 0.000000 0.000000 0.062959 0.000000
# 6 0.000000 0.000000 0.000000 0.000000 0.000000 0.034197
#
#
# Mechanical properties :
#
#
# Convention : Reuss Voigt Hill
#
# Bulk Modulus (GPa) = 30.64298 33.01500 31.82899
# Shear Modulus (GPa) = 13.29951 20.93260 17.11606
#
# Velocity S-wave (km/s) = 2.62691 3.29564 2.98009
# Velocity P-wave (km/s) = 5.01004 5.62246 5.32506
#
# Compressibility (1/GPa) = 0.03263390
#
# Stress axis : x y z
#
# Youngs Moduli (GPa) = 51.80956 66.26802 66.98207
#
# Poissons Ratio (x) = 0.19618 0.01412
# Poissons Ratio (y) = 0.15337 0.34646
# Poissons Ratio (z) = 0.01092 0.34276
#
# Static dielectric constant tensor:
#      x y z
#    x 1.717100 0.000000 0.000000 
#    y 0.000000 1.663430 0.000000 
#    z 0.000000 0.000000 1.731870 
# 
# From -- ./inp_files/49637.got.cif
#   From: 2010.05.17/outbox.cif.g08.bks.cpg/sg68_25_cif.got.tgz:49637.got - 2010.06.03 18:57:09.
