data_PCOD9510336
_publ_section_title
;
Structure prediction by ZEFSAII (Michael W. Deem and Ramdas Pophale) SiO2 
 PCOD9510336
Probable space group: C C C A
;
_chemical_formula_sum "Si O2"
_cell_formula_units_Z 96
_cell_length_a 17.151229
_cell_length_b 25.301633
_cell_length_c 10.696981
_cell_angle_alpha 90.000000
_cell_angle_beta 90.000000
_cell_angle_gamma 90.000000
_cell_volume 4641.998780
_symmetry_space_group_name_H-M "C C C A"
_symmetry_group_IT_number 68
_space_group.IT_coordinate_system_code '2'
_symmetry_cell_setting 'orthorhombic'
loop_
_space_group_symop_operation_xyz
x,y,z
-x,1/2-y,z
x,1/2-y,1/2-z
-x,y,1/2-z
-x,-y,-z
x,1/2+y,-z
-x,1/2+y,1/2+z
x,-y,1/2+z
1/2+x,1/2+y,z
1/2-x,-y,z
1/2+x,-y,1/2-z
1/2-x,1/2+y,1/2-z
1/2-x,1/2-y,-z
1/2+x,y,-z
1/2-x,y,1/2+z
1/2+x,1/2-y,1/2+z
loop_
_atom_site_type_symbol
_atom_site_label
_atom_site_fract_x
_atom_site_fract_y
_atom_site_fract_z
Si Si1 0.031676 0.304887 0.107744
Si Si2 0.562570 0.981866 0.857605
Si Si3 0.228187 0.441049 0.834089
Si Si4 0.288165 0.892278 0.916354
Si Si5 0.546554 0.086029 0.978401
Si Si6 0.216001 0.282058 0.119285
O O1 0.125758 0.301232 0.101811
O O2 0.000000 0.250000 0.048746
O O3 0.000000 0.304440 0.250000
O O4 0.992501 0.358384 0.056275
O O5 0.500000 0.980913 0.750000
O O6 0.635758 0.946156 0.826328
O O7 0.582391 0.044079 0.877931
O O8 0.522659 0.950703 0.971159
O O9 0.250000 0.500000 0.874277
O O10 0.252132 0.427622 0.692010
O O11 0.253786 0.402270 0.944838
O O12 0.270137 0.833384 0.872858
O O13 0.380187 0.902930 0.932017
O O14 0.218087 0.250000 0.250000
O O15 0.250000 0.250000 0.000000
#
# Coordination Sequence:
#
# PCOD9510336 Si02
#       6
#    16  16  16  16  16  16
#     4  11  23  44  73  98 133 178 247 292 341 424
#     4  11  23  44  65 100 143 181 235 286 351 428
#     4  12  25  43  67 102 146 188 235 288 352 431
#     4  12  26  43  72 103 145 189 238 292 365 426
#     4  11  24  41  71 101 136 188 230 293 354 420
#     4  12  26  48  72 106 142 184 241 304 363 424
#
# _framework density 20.680747
#
# number of rings (size 3 to 8) (size 9 to 14) (size 15 to 20)
#    0.000    0.500    5.000    4.000    2.333    1.333 
#    0.000    0.000    0.000    0.000    0.000    0.000 
#    0.000    0.000    0.000    0.000    0.000    0.000 
#
# Total GULP energy -267563.921184 kJ/mol
# GULP energy per Si atom -5574.248358 kJ/mol
# Density = 2.063368 g / cm^3
# Si number density = 20.680747 Si / 1000 Ang^3
#
#
#
# Elastic Constant Matrix: (Units=GPa)
#
#
# Indices 1 2 3 4 5 6 
#
# 1 82.7941 8.7652 23.3586 0.0000 0.0000 0.0000
# 2 8.7652 115.9558 26.9478 0.0000 0.0000 0.0000
# 3 23.3586 26.9478 88.5985 0.0000 0.0000 0.0000
# 4 0.0000 0.0000 0.0000 34.8862 0.0000 0.0000
# 5 0.0000 0.0000 0.0000 0.0000 23.8983 0.0000
# 6 0.0000 0.0000 0.0000 0.0000 0.0000 35.6076
#
#
#
# Elastic Compliance Matrix: (Units=1/GPa)
#
#
# Indices 1 2 3 4 5 6 
#
# 1 0.013053 -0.000201 -0.003380 0.000000 0.000000 0.000000
# 2 -0.000201 0.009283 -0.002770 0.000000 0.000000 0.000000
# 3 -0.003380 -0.002770 0.013021 0.000000 0.000000 0.000000
# 4 0.000000 0.000000 0.000000 0.028665 0.000000 0.000000
# 5 0.000000 0.000000 0.000000 0.000000 0.041844 0.000000
# 6 0.000000 0.000000 0.000000 0.000000 0.000000 0.028084
#
#
# Mechanical properties :
#
#
# Convention : Reuss Voigt Hill
#
# Bulk Modulus (GPa) = 44.14389 45.05463 44.59926
# Shear Modulus (GPa) = 32.42457 34.09687 33.26072
#
# Velocity S-wave (km/s) = 3.96392 4.06485 4.01470
# Velocity P-wave (km/s) = 6.50707 6.62298 6.56528
#
# Compressibility (1/GPa) = 0.02265319
#
# Stress axis : x y z
#
# Youngs Moduli (GPa) = 76.61017 107.72352 76.80074
#
# Poissons Ratio (x) = 0.02167 0.25960
# Poissons Ratio (y) = 0.01541 0.21277
# Poissons Ratio (z) = 0.25896 0.29844
#
# Static dielectric constant tensor:
#      x y z
#    x 1.792880 0.000000 0.000000 
#    y 0.000000 1.789310 0.000000 
#    z 0.000000 0.000000 1.765310 
# 
# From -- ./inp_files/14638.got.cif
#   From: 2010.05.17/outbox.cif.g08.bks.cpg/sg68_8_cif.got.tgz:14638.got - 2010.06.03 18:57:09.
