data_PCOD9510777
_publ_section_title
;
Structure prediction by ZEFSAII (Michael W. Deem and Ramdas Pophale) SiO2 
 PCOD9510777
Probable space group: C C C A
;
_chemical_formula_sum "Si O2"
_cell_formula_units_Z 52
_cell_length_a 4.909628
_cell_length_b 19.807614
_cell_length_c 23.941692
_cell_angle_alpha 90.000000
_cell_angle_beta 90.000000
_cell_angle_gamma 90.000000
_cell_volume 2328.282054
_symmetry_space_group_name_H-M "C C C A"
_symmetry_group_IT_number 68
_space_group.IT_coordinate_system_code '2'
_symmetry_cell_setting 'orthorhombic'
loop_
_space_group_symop_operation_xyz
x,y,z
-x,1/2-y,z
x,1/2-y,1/2-z
-x,y,1/2-z
-x,-y,-z
x,1/2+y,-z
-x,1/2+y,1/2+z
x,-y,1/2+z
1/2+x,1/2+y,z
1/2-x,-y,z
1/2+x,-y,1/2-z
1/2-x,1/2+y,1/2-z
1/2-x,1/2-y,-z
1/2+x,y,-z
1/2-x,y,1/2+z
1/2+x,1/2-y,1/2+z
loop_
_atom_site_type_symbol
_atom_site_label
_atom_site_fract_x
_atom_site_fract_y
_atom_site_fract_z
Si Si1 0.750000 0.000000 0.958286
Si Si2 0.000000 0.250000 0.750000
Si Si3 0.883794 0.124137 0.880355
Si Si4 0.000000 0.250000 0.542092
Si Si5 0.866778 0.863774 0.694059
O O1 0.772330 0.064991 0.919149
O O2 0.500000 0.000000 0.000000
O O3 0.800913 0.202050 0.714394
O O4 0.996171 0.184480 0.918529
O O5 0.627392 0.150315 0.844440
O O6 0.131461 0.098458 0.840896
O O7 0.750000 0.250000 0.500000
O O8 0.000000 0.895689 0.750000
#
# Coordination Sequence:
#
# PCOD9510777 Si02
#       5
#     8   4  16   8  16
#     4  12  26  52  78 102 142 200 252 302 370 450
#     4  12  24  40  74 100 158 192 234 280 374 432
#     4  12  26  44  74 105 142 193 243 299 372 435
#     4  12  25  42  63 104 141 174 234 313 360 412
#     4  12  25  42  69 109 142 190 237 294 355 449
#
# _framework density 22.334061999999999
#
# number of rings (size 3 to 8) (size 9 to 14) (size 15 to 20)
#    0.000    0.000    3.077    6.923    4.308    0.000 
#    0.000    3.077    3.385    0.000    0.000    0.000 
#    0.000    0.000    0.000    0.000    0.000    0.000 
#
# Total GULP energy -145576.332051 kJ/mol
# GULP energy per Si atom -5599.089694 kJ/mol
# Density = 2.228323 g / cm^3
# Si number density = 22.334062 Si / 1000 Ang^3
#
#
#
# Elastic Constant Matrix: (Units=GPa)
#
#
# Indices 1 2 3 4 5 6 
#
# 1 213.5877 21.1550 93.7882 0.0000 0.0000 0.0000
# 2 21.1550 94.1686 57.9538 0.0000 0.0000 0.0000
# 3 93.7882 57.9538 165.0531 0.0000 0.0000 0.0000
# 4 0.0000 0.0000 0.0000 30.3338 0.0000 0.0000
# 5 0.0000 0.0000 0.0000 0.0000 -138.6379 0.0000
# 6 0.0000 0.0000 0.0000 0.0000 0.0000 26.0238
#
#
#
# Elastic Compliance Matrix: (Units=1/GPa)
#
#
# Indices 1 2 3 4 5 6 
#
# 1 0.006313 0.001007 -0.003941 0.000000 0.000000 0.000000
# 2 0.001007 0.013707 -0.005385 0.000000 0.000000 0.000000
# 3 -0.003941 -0.005385 0.010189 0.000000 0.000000 0.000000
# 4 0.000000 0.000000 0.000000 0.032967 0.000000 0.000000
# 5 0.000000 0.000000 0.000000 0.000000 -0.007213 0.000000
# 6 0.000000 0.000000 0.000000 0.000000 0.000000 0.038426
#
#
# Mechanical properties :
#
#
# Convention : Reuss Voigt Hill
#
# Bulk Modulus (GPa) = 73.68644 90.95593 82.32119
# Shear Modulus (GPa) = 43.27168 3.53811 23.40489
#
# Velocity S-wave (km/s) = 4.40645 1.26001 3.24071
# Velocity P-wave (km/s) = 7.67812 6.55213 7.13737
#
# Compressibility (1/GPa) = 0.01357102
#
# Stress axis : x y z
#
# Youngs Moduli (GPa) = 158.41582 72.95459 98.14881
#
# Poissons Ratio (x) = -0.07347 0.38676
# Poissons Ratio (y) = -0.15952 0.52854
# Poissons Ratio (z) = 0.62424 0.39287
#
# Static dielectric constant tensor:
#      x y z
#    x 1.786720 0.000000 0.000000 
#    y 0.000000 1.818820 0.000000 
#    z 0.000000 0.000000 1.853960 
# 
# From -- ./inp_files/42001.got.cif
#   From: 2010.05.17/outbox.cif.g08.bks.cpg/sg68_22_cif.got.tgz:42001.got - 2010.06.03 18:57:09.
