data_PCOD9510194
_publ_section_title
;
Structure prediction by ZEFSAII (Michael W. Deem and Ramdas Pophale) SiO2 
 PCOD9510194
Probable space group: C C C A
;
_chemical_formula_sum "Si O2"
_cell_formula_units_Z 48
_cell_length_a 5.032039
_cell_length_b 19.063722
_cell_length_c 24.237400
_cell_angle_alpha 90.000000
_cell_angle_beta 90.000000
_cell_angle_gamma 90.000000
_cell_volume 2325.079060
_symmetry_space_group_name_H-M "C C C A"
_symmetry_group_IT_number 68
_space_group.IT_coordinate_system_code '2'
_symmetry_cell_setting 'orthorhombic'
loop_
_space_group_symop_operation_xyz
x,y,z
-x,1/2-y,z
x,1/2-y,1/2-z
-x,y,1/2-z
-x,-y,-z
x,1/2+y,-z
-x,1/2+y,1/2+z
x,-y,1/2+z
1/2+x,1/2+y,z
1/2-x,-y,z
1/2+x,-y,1/2-z
1/2-x,1/2+y,1/2-z
1/2-x,1/2-y,-z
1/2+x,y,-z
1/2-x,y,1/2+z
1/2+x,1/2-y,1/2+z
loop_
_atom_site_type_symbol
_atom_site_label
_atom_site_fract_x
_atom_site_fract_y
_atom_site_fract_z
Si Si1 0.519963 0.166488 0.815686
Si Si2 0.500000 0.750000 0.539201
Si Si3 0.750000 0.500000 0.543307
Si Si4 0.012889 0.880510 0.379499
O O1 0.500000 0.250000 0.830096
O O2 0.500000 0.160014 0.750000
O O3 0.809256 0.140692 0.832084
O O4 0.303202 0.121294 0.850540
O O5 0.250000 0.750000 0.500000
O O6 0.483117 0.682316 0.576884
O O7 0.500000 0.500000 0.500000
O O8 0.874411 0.443153 0.586420
#
# Coordination Sequence:
#
# PCOD9510194 Si02
#       4
#    16   8   8  16
#     4  11  22  41  68 100 132 169 219 283 348 403
#     4  12  22  36  59  92 125 164 222 276 322 390
#     4  12  26  46  66  92 136 184 224 274 338 406
#     4  12  23  42  65  97 131 176 222 274 341 404
#
# _framework density 20.644458
#
# number of rings (size 3 to 8) (size 9 to 14) (size 15 to 20)
#    0.000    0.333    3.333    7.000    0.000    2.667 
#    0.000    3.333    0.000    0.000    0.000    0.000 
#    0.000    0.000    0.000    0.000    0.000    0.000 
#
# Total GULP energy -133771.507035 kJ/mol
# GULP energy per Si atom -5573.812793 kJ/mol
# Density = 2.059747 g / cm^3
# Si number density = 20.644458 Si / 1000 Ang^3
#
#
#
# Elastic Constant Matrix: (Units=GPa)
#
#
# Indices 1 2 3 4 5 6 
#
# 1 135.6558 -0.9792 28.1144 0.0000 0.0000 0.0000
# 2 -0.9792 84.6016 32.5491 0.0000 0.0000 0.0000
# 3 28.1144 32.5491 110.2906 0.0000 0.0000 0.0000
# 4 0.0000 0.0000 0.0000 27.6577 0.0000 0.0000
# 5 0.0000 0.0000 0.0000 0.0000 69.9076 0.0000
# 6 0.0000 0.0000 0.0000 0.0000 0.0000 30.9111
#
#
#
# Elastic Compliance Matrix: (Units=1/GPa)
#
#
# Indices 1 2 3 4 5 6 
#
# 1 0.007853 0.000971 -0.002288 0.000000 0.000000 0.000000
# 2 0.000971 0.013454 -0.004218 0.000000 0.000000 0.000000
# 3 -0.002288 -0.004218 0.010895 0.000000 0.000000 0.000000
# 4 0.000000 0.000000 0.000000 0.036156 0.000000 0.000000
# 5 0.000000 0.000000 0.000000 0.000000 0.014305 0.000000
# 6 0.000000 0.000000 0.000000 0.000000 0.000000 0.032351
#
#
# Mechanical properties :
#
#
# Convention : Reuss Voigt Hill
#
# Bulk Modulus (GPa) = 47.32244 49.99073 48.65659
# Shear Modulus (GPa) = 37.55765 43.75286 40.65525
#
# Velocity S-wave (km/s) = 4.26991 4.60864 4.44250
# Velocity P-wave (km/s) = 6.87618 7.25169 7.06643
#
# Compressibility (1/GPa) = 0.02113162
#
# Stress axis : x y z
#
# Youngs Moduli (GPa) = 127.34166 74.32597 91.78352
#
# Poissons Ratio (x) = -0.07220 0.21004
# Poissons Ratio (y) = -0.12369 0.38716
# Poissons Ratio (z) = 0.29142 0.31352
#
# Static dielectric constant tensor:
#      x y z
#    x 1.763040 0.000000 0.000000 
#    y 0.000000 1.206080 0.000000 
#    z 0.000000 0.000000 1.697950 
# 
# From -- ./inp_files/34776.got.cif
#   From: 2010.05.17/outbox.cif.g08.bks.cpg/sg68_18_cif.got.tgz:34776.got - 2010.06.03 18:57:09.
