data_PCOD9510439
_publ_section_title
;
Structure prediction by ZEFSAII (Michael W. Deem and Ramdas Pophale) SiO2 
 PCOD9510439
Probable space group: C C C A
;
_chemical_formula_sum "Si O2"
_cell_formula_units_Z 60
_cell_length_a 9.097476
_cell_length_b 12.242264
_cell_length_c 24.746808
_cell_angle_alpha 90.000000
_cell_angle_beta 90.000000
_cell_angle_gamma 90.000000
_cell_volume 2756.143643
_symmetry_space_group_name_H-M "C C C A"
_symmetry_group_IT_number 68
_space_group.IT_coordinate_system_code '2'
_symmetry_cell_setting 'orthorhombic'
loop_
_space_group_symop_operation_xyz
x,y,z
-x,1/2-y,z
x,1/2-y,1/2-z
-x,y,1/2-z
-x,-y,-z
x,1/2+y,-z
-x,1/2+y,1/2+z
x,-y,1/2+z
1/2+x,1/2+y,z
1/2-x,-y,z
1/2+x,-y,1/2-z
1/2-x,1/2+y,1/2-z
1/2-x,1/2-y,-z
1/2+x,y,-z
1/2-x,y,1/2+z
1/2+x,1/2-y,1/2+z
loop_
_atom_site_type_symbol
_atom_site_label
_atom_site_fract_x
_atom_site_fract_y
_atom_site_fract_z
Si Si1 0.329815 0.718073 0.054987
Si Si2 0.720166 0.821033 0.333957
Si Si3 0.250000 0.000000 0.887408
Si Si4 0.523937 0.529941 0.687956
Si Si5 0.500000 0.250000 0.750000
O O1 0.500000 0.750000 0.051504
O O2 0.260258 0.781631 0.105577
O O3 0.312379 0.593335 0.073544
O O4 0.250000 0.750000 0.000000
O O5 0.874315 0.863112 0.310909
O O6 0.629545 0.735737 0.296975
O O7 0.616594 0.928494 0.335279
O O8 0.121310 0.042838 0.847560
O O9 0.500000 0.494814 0.750000
#
# Coordination Sequence:
#
# PCOD9510439 Si02
#       5
#    16  16   8  16   4
#     4  12  29  51  74 106 145 199 250 310 371 441
#     4  11  24  44  73 106 153 188 249 299 378 437
#     4  12  26  50  76 104 152 190 252 306 374 444
#     4  11  24  42  72 114 148 197 239 302 373 456
#     4  12  20  44  70 100 152 198 226 322 360 430
#
# _framework density 21.769548
#
# number of rings (size 3 to 8) (size 9 to 14) (size 15 to 20)
#    0.000    0.533    5.333    1.600    7.467    3.200 
#    0.000    0.000    0.000    0.000    0.000    0.000 
#    0.000    0.000    0.000    0.000    0.000    0.000 
#
# Total GULP energy -167399.328339 kJ/mol
# GULP energy per Si atom -5579.977611 kJ/mol
# Density = 2.172000 g / cm^3
# Si number density = 21.769548 Si / 1000 Ang^3
#
#
#
# Elastic Constant Matrix: (Units=GPa)
#
#
# Indices 1 2 3 4 5 6 
#
# 1 114.6045 43.3916 19.1812 0.0000 0.0000 0.0000
# 2 43.3916 74.7478 40.9110 0.0000 0.0000 0.0000
# 3 19.1812 40.9110 141.4293 0.0000 0.0000 0.0000
# 4 0.0000 0.0000 0.0000 12.2462 0.0000 0.0000
# 5 0.0000 0.0000 0.0000 0.0000 -125.1266 0.0000
# 6 0.0000 0.0000 0.0000 0.0000 0.0000 41.8777
#
#
#
# Elastic Compliance Matrix: (Units=1/GPa)
#
#
# Indices 1 2 3 4 5 6 
#
# 1 0.011206 -0.006740 0.000430 0.000000 0.000000 0.000000
# 2 -0.006740 0.019949 -0.004857 0.000000 0.000000 0.000000
# 3 0.000430 -0.004857 0.008417 0.000000 0.000000 0.000000
# 4 0.000000 0.000000 0.000000 0.081658 0.000000 0.000000
# 5 0.000000 0.000000 0.000000 0.000000 -0.007992 0.000000
# 6 0.000000 0.000000 0.000000 0.000000 0.000000 0.023879
#
#
# Mechanical properties :
#
#
# Convention : Reuss Voigt Hill
#
# Bulk Modulus (GPa) = 58.01006 59.74992 58.87999
# Shear Modulus (GPa) = 30.26682 0.95264 15.60973
#
# Velocity S-wave (km/s) = 3.73276 0.66223 2.68067
# Velocity P-wave (km/s) = 6.72928 5.30008 6.05698
#
# Compressibility (1/GPa) = 0.01723839
#
# Stress axis : x y z
#
# Youngs Moduli (GPa) = 89.24004 50.12729 118.80448
#
# Poissons Ratio (x) = 0.33788 -0.05109
# Poissons Ratio (y) = 0.60151 0.57698
# Poissons Ratio (z) = -0.03837 0.24344
#
# Static dielectric constant tensor:
#      x y z
#    x 1.797890 0.000000 0.000000 
#    y 0.000000 1.683720 0.000000 
#    z 0.000000 0.000000 1.723040 
# 
# From -- ./inp_files/42681.got.cif
#   From: 2010.05.17/outbox.cif.g08.bks.cpg/sg68_22_cif.got.tgz:42681.got - 2010.06.03 18:57:09.
