data_PCOD9510127
_publ_section_title
;
Structure prediction by ZEFSAII (Michael W. Deem and Ramdas Pophale) SiO2 
 PCOD9510127
Probable space group: C C C A
;
_chemical_formula_sum "Si O2"
_cell_formula_units_Z 88
_cell_length_a 10.696983
_cell_length_b 23.290072
_cell_length_c 17.469689
_cell_angle_alpha 90.000000
_cell_angle_beta 90.000000
_cell_angle_gamma 90.000000
_cell_volume 4352.284839
_symmetry_space_group_name_H-M "C C C A"
_symmetry_group_IT_number 68
_space_group.IT_coordinate_system_code '2'
_symmetry_cell_setting 'orthorhombic'
loop_
_space_group_symop_operation_xyz
x,y,z
-x,1/2-y,z
x,1/2-y,1/2-z
-x,y,1/2-z
-x,-y,-z
x,1/2+y,-z
-x,1/2+y,1/2+z
x,-y,1/2+z
1/2+x,1/2+y,z
1/2-x,-y,z
1/2+x,-y,1/2-z
1/2-x,1/2+y,1/2-z
1/2-x,1/2-y,-z
1/2+x,y,-z
1/2-x,y,1/2+z
1/2+x,1/2-y,1/2+z
loop_
_atom_site_type_symbol
_atom_site_label
_atom_site_fract_x
_atom_site_fract_y
_atom_site_fract_z
Si Si1 0.000000 0.061500 0.750000
Si Si2 0.683149 0.344116 0.933758
Si Si3 0.380914 0.529622 0.351332
Si Si4 0.851821 0.262855 0.164578
Si Si5 0.734690 0.931822 0.199651
Si Si6 0.401984 0.136839 0.554518
O O1 0.129911 0.091046 0.771698
O O2 0.029725 0.021009 0.676814
O O3 0.706096 0.282870 0.893876
O O4 0.683886 0.392287 0.867080
O O5 0.541785 0.342293 0.967656
O O6 0.795412 0.358149 0.990882
O O7 0.250000 0.500000 0.371711
O O8 0.354131 0.565638 0.273625
O O9 0.419266 0.571679 0.417803
O O10 0.802738 0.250000 0.250000
O O11 0.849762 0.325288 0.125941
O O12 0.000000 0.250000 0.168117
O O13 0.750000 0.000000 0.179304
#
# Coordination Sequence:
#
# PCOD9510127 Si02
#       6
#     8  16  16  16  16  16
#     4   8  16  32  54  80 112 142 186 234 272 314
#     4  11  23  37  56  83 116 149 182 223 275 331
#     4   9  18  33  55  81 107 143 188 230 272 323
#     4   9  19  37  62  85 104 137 186 233 276 326
#     4   9  18  33  55  81 109 146 188 232 274 321
#     4  11  22  37  57  82 114 147 181 226 276 331
#
# _framework density 20.219265
#
# number of rings (size 3 to 8) (size 9 to 14) (size 15 to 20)
#    0.000    2.727    0.000    3.818    0.000    6.545 
#    0.000    2.727    0.000    1.091    0.000    0.000 
#    0.000    0.000    0.000    0.000    0.000    0.000 
#
# Total GULP energy -245231.924174 kJ/mol
# GULP energy per Si atom -5573.452822 kJ/mol
# Density = 2.017324 g / cm^3
# Si number density = 20.219265 Si / 1000 Ang^3
#
#
#
# Elastic Constant Matrix: (Units=GPa)
#
#
# Indices 1 2 3 4 5 6 
#
# 1 109.5680 -11.2580 25.2843 0.0000 0.0000 0.0000
# 2 -11.2580 43.4074 1.1096 0.0000 0.0000 0.0000
# 3 25.2843 1.1096 43.4687 0.0000 0.0000 0.0000
# 4 0.0000 0.0000 0.0000 12.7690 0.0000 0.0000
# 5 0.0000 0.0000 0.0000 0.0000 10.3860 0.0000
# 6 0.0000 0.0000 0.0000 0.0000 0.0000 -8.5930
#
#
#
# Elastic Compliance Matrix: (Units=1/GPa)
#
#
# Indices 1 2 3 4 5 6 
#
# 1 0.010918 0.002996 -0.006427 0.000000 0.000000 0.000000
# 2 0.002996 0.023875 -0.002352 0.000000 0.000000 0.000000
# 3 -0.006427 -0.002352 0.026803 0.000000 0.000000 0.000000
# 4 0.000000 0.000000 0.000000 0.078315 0.000000 0.000000
# 5 0.000000 0.000000 0.000000 0.000000 0.096284 0.000000
# 6 0.000000 0.000000 0.000000 0.000000 0.000000 -0.116374
#
#
# Mechanical properties :
#
#
# Convention : Reuss Voigt Hill
#
# Bulk Modulus (GPa) = 19.98816 25.19064 22.58940
# Shear Modulus (GPa) = 33.76938 14.99961 24.38449
#
# Velocity S-wave (km/s) = 4.09119 2.72664 3.47652
# Velocity P-wave (km/s) = 5.67664 4.73271 5.22603
#
# Compressibility (1/GPa) = 0.05002962
#
# Stress axis : x y z
#
# Youngs Moduli (GPa) = 91.59462 41.88534 37.30869
#
# Poissons Ratio (x) = -0.12548 0.23978
# Poissons Ratio (y) = -0.27441 0.08775
# Poissons Ratio (z) = 0.58867 0.09852
#
# Static dielectric constant tensor:
#      x y z
#    x 1.733630 0.000000 0.000000 
#    y 0.000000 1.748690 0.000000 
#    z 0.000000 0.000000 1.718450 
# 
# From -- ./inp_files/21119.got.cif
#   From: 2010.05.17/outbox.cif.g08.bks.cpg/sg68_11_cif.got.tgz:21119.got - 2010.06.03 18:57:09.
