data_PCOD9510722
_publ_section_title
;
Structure prediction by ZEFSAII (Michael W. Deem and Ramdas Pophale) SiO2 
 PCOD9510722
Probable space group: C C C A
;
_chemical_formula_sum "Si O2"
_cell_formula_units_Z 120
_cell_length_a 24.726074
_cell_length_b 18.512501
_cell_length_c 12.183966
_cell_angle_alpha 90.000000
_cell_angle_beta 90.000000
_cell_angle_gamma 90.000000
_cell_volume 5577.106503
_symmetry_space_group_name_H-M "C C C A"
_symmetry_group_IT_number 68
_space_group.IT_coordinate_system_code '2'
_symmetry_cell_setting 'orthorhombic'
loop_
_space_group_symop_operation_xyz
x,y,z
-x,1/2-y,z
x,1/2-y,1/2-z
-x,y,1/2-z
-x,-y,-z
x,1/2+y,-z
-x,1/2+y,1/2+z
x,-y,1/2+z
1/2+x,1/2+y,z
1/2-x,-y,z
1/2+x,-y,1/2-z
1/2-x,1/2+y,1/2-z
1/2-x,1/2-y,-z
1/2+x,y,-z
1/2-x,y,1/2+z
1/2+x,1/2-y,1/2+z
loop_
_atom_site_type_symbol
_atom_site_label
_atom_site_fract_x
_atom_site_fract_y
_atom_site_fract_z
Si Si1 0.395308 0.026559 0.642398
Si Si2 0.697149 0.544195 0.520838
Si Si3 0.936790 0.877540 0.275749
Si Si4 0.118020 0.636920 0.040646
Si Si5 0.059798 0.282868 0.978607
Si Si6 0.823926 0.750000 0.750000
Si Si7 0.113716 0.381061 0.141046
Si Si8 0.731050 0.824319 0.446967
O O1 0.407675 0.074564 0.535456
O O2 0.401357 0.076218 0.749290
O O3 0.334092 0.999142 0.616372
O O4 0.428368 0.954060 0.664217
O O5 0.750000 0.500000 0.482244
O O6 0.653247 0.566462 0.428769
O O7 0.720329 0.619948 0.562286
O O8 0.901325 0.874048 0.165198
O O9 0.922612 0.814941 0.361466
O O10 0.000000 0.868592 0.250000
O O11 0.097061 0.714056 0.998309
O O12 0.182269 0.640504 0.018219
O O13 0.000000 0.250000 0.974493
O O14 0.066495 0.348900 0.063907
O O15 0.857023 0.692664 0.821677
O O16 0.790328 0.698027 0.671290
O O17 0.750000 0.750000 0.500000
#
# Coordination Sequence:
#
# PCOD9510722 Si02
#       8
#    16  16  16  16  16   8  16  16
#     4  12  27  47  73 109 154 200 243 312 385 461
#     4  12  24  45  70 106 151 202 246 301 377 454
#     4  12  28  48  79 108 145 195 251 320 383 450
#     4  12  25  48  73 106 149 190 250 308 368 451
#     4  12  25  49  81 106 144 193 252 316 386 449
#     4  12  22  44  69  98 148 186 235 318 350 432
#     4  12  24  47  73 108 154 188 252 310 376 453
#     4  12  25  44  70 108 144 195 254 301 369 441
#
# _framework density 21.516532999999999
#
# number of rings (size 3 to 8) (size 9 to 14) (size 15 to 20)
#    0.000    0.000    8.000    1.200    0.000    4.267 
#    0.000    2.333    0.000    0.000    0.000    0.000 
#    0.000    0.000    0.000    0.000    0.000    0.000 
#
# Total GULP energy -335459.416040 kJ/mol
# GULP energy per Si atom -5590.990267 kJ/mol
# Density = 2.146756 g / cm^3
# Si number density = 21.516533 Si / 1000 Ang^3
#
#
#
# Elastic Constant Matrix: (Units=GPa)
#
#
# Indices 1 2 3 4 5 6 
#
# 1 31.2587 9.3352 27.8584 0.0000 0.0000 0.0000
# 2 9.3352 116.1672 37.2901 0.0000 0.0000 0.0000
# 3 27.8584 37.2901 122.7852 0.0000 0.0000 0.0000
# 4 0.0000 0.0000 0.0000 45.2834 0.0000 0.0000
# 5 0.0000 0.0000 0.0000 0.0000 105.1035 0.0000
# 6 0.0000 0.0000 0.0000 0.0000 0.0000 53.6363
#
#
#
# Elastic Compliance Matrix: (Units=1/GPa)
#
#
# Indices 1 2 3 4 5 6 
#
# 1 0.040111 -0.000335 -0.008999 0.000000 0.000000 0.000000
# 2 -0.000335 0.009541 -0.002822 0.000000 0.000000 0.000000
# 3 -0.008999 -0.002822 0.011043 0.000000 0.000000 0.000000
# 4 0.000000 0.000000 0.000000 0.022083 0.000000 0.000000
# 5 0.000000 0.000000 0.000000 0.000000 0.009514 0.000000
# 6 0.000000 0.000000 0.000000 0.000000 0.000000 0.018644
#
#
# Mechanical properties :
#
#
# Convention : Reuss Voigt Hill
#
# Bulk Modulus (GPa) = 27.48428 46.57539 37.02983
# Shear Modulus (GPa) = 33.92687 53.85311 43.88999
#
# Velocity S-wave (km/s) = 3.97518 5.00830 4.52134
# Velocity P-wave (km/s) = 5.81985 7.42546 6.67113
#
# Compressibility (1/GPa) = 0.03638443
#
# Stress axis : x y z
#
# Youngs Moduli (GPa) = 24.93068 104.81150 90.55481
#
# Poissons Ratio (x) = 0.03507 0.81491
# Poissons Ratio (y) = 0.00834 0.25552
# Poissons Ratio (z) = 0.22435 0.29575
#
# Static dielectric constant tensor:
#      x y z
#    x 1.849800 0.000000 0.000000 
#    y 0.000000 1.766990 0.000000 
#    z 0.000000 0.000000 1.963430 
# 
# From -- ./inp_files/16612.got.cif
#   From: 2010.05.17/outbox.cif.g08.bks.cpg/sg68_9_cif.got.tgz:16612.got - 2010.06.03 18:57:09.
