data_PCOD9510753
_publ_section_title
;
Structure prediction by ZEFSAII (Michael W. Deem and Ramdas Pophale) SiO2 
 PCOD9510753
Probable space group: C C C A
;
_chemical_formula_sum "Si O2"
_cell_formula_units_Z 84
_cell_length_a 23.504100
_cell_length_b 18.837440
_cell_length_c 9.428530
_cell_angle_alpha 90.000000
_cell_angle_beta 90.000000
_cell_angle_gamma 90.000000
_cell_volume 4174.548350
_symmetry_space_group_name_H-M "C C C A"
_symmetry_group_IT_number 68
_space_group.IT_coordinate_system_code '2'
_symmetry_cell_setting 'orthorhombic'
loop_
_space_group_symop_operation_xyz
x,y,z
-x,1/2-y,z
x,1/2-y,1/2-z
-x,y,1/2-z
-x,-y,-z
x,1/2+y,-z
-x,1/2+y,1/2+z
x,-y,1/2+z
1/2+x,1/2+y,z
1/2-x,-y,z
1/2+x,-y,1/2-z
1/2-x,1/2+y,1/2-z
1/2-x,1/2-y,-z
1/2+x,y,-z
1/2-x,y,1/2+z
1/2+x,1/2-y,1/2+z
loop_
_atom_site_type_symbol
_atom_site_label
_atom_site_fract_x
_atom_site_fract_y
_atom_site_fract_z
Si Si1 0.214536 0.203580 0.892475
Si Si2 0.591017 0.844665 0.584718
Si Si3 0.855620 0.463058 0.707875
Si Si4 0.211120 0.062831 0.432863
Si Si5 0.000000 0.250000 0.750000
Si Si6 0.036103 0.452656 0.391260
O O1 0.210741 0.250000 0.750000
O O2 0.150394 0.193584 0.950469
O O3 0.249440 0.128488 0.881037
O O4 0.250000 0.250000 0.000000
O O5 0.615120 0.906984 0.686724
O O6 0.543768 0.797925 0.661760
O O7 0.557263 0.879313 0.455951
O O8 0.825712 0.421949 0.575191
O O9 0.820854 0.521572 0.802798
O O10 0.906348 0.505716 0.637694
O O11 0.250000 0.000000 0.492121
O O12 0.000000 0.443740 0.250000
O O13 0.000000 0.500000 0.500000
#
# Coordination Sequence:
#
# PCOD9510753 Si02
#       6
#    16  16  16  16   4  16
#     4  12  28  49  70 106 152 197 241 302 382 453
#     4  12  25  47  73 101 145 195 246 302 369 450
#     4  12  23  43  72 109 139 180 242 312 367 436
#     4  12  25  41  75 107 145 185 242 299 373 447
#     4  12  28  48  70  96 144 212 248 282 380 460
#     4  12  23  44  72 107 139 175 239 314 369 430
#
# _framework density 20.121936999999999
#
# number of rings (size 3 to 8) (size 9 to 14) (size 15 to 20)
#    0.000    0.000    6.667    2.857    5.333    0.000 
#    0.000    0.476    0.000    0.000    0.000    0.000 
#    0.000    0.000    0.000    0.000    0.000    0.000 
#
# Total GULP energy -234465.461041 kJ/mol
# GULP energy per Si atom -5582.510977 kJ/mol
# Density = 2.007614 g / cm^3
# Si number density = 20.121937 Si / 1000 Ang^3
#
#
#
# Elastic Constant Matrix: (Units=GPa)
#
#
# Indices 1 2 3 4 5 6 
#
# 1 140.6526 61.8732 61.8622 0.0000 0.0000 0.0000
# 2 61.8732 101.3193 33.1053 0.0000 0.0000 0.0000
# 3 61.8622 33.1053 115.6902 0.0000 0.0000 0.0000
# 4 0.0000 0.0000 0.0000 35.2255 0.0000 0.0000
# 5 0.0000 0.0000 0.0000 0.0000 42.7358 0.0000
# 6 0.0000 0.0000 0.0000 0.0000 0.0000 11.3733
#
#
#
# Elastic Compliance Matrix: (Units=1/GPa)
#
#
# Indices 1 2 3 4 5 6 
#
# 1 0.011583 -0.005571 -0.004600 0.000000 0.000000 0.000000
# 2 -0.005571 0.013567 -0.000903 0.000000 0.000000 0.000000
# 3 -0.004600 -0.000903 0.011362 0.000000 0.000000 0.000000
# 4 0.000000 0.000000 0.000000 0.028389 0.000000 0.000000
# 5 0.000000 0.000000 0.000000 0.000000 0.023400 0.000000
# 6 0.000000 0.000000 0.000000 0.000000 0.000000 0.087926
#
#
# Mechanical properties :
#
#
# Convention : Reuss Voigt Hill
#
# Bulk Modulus (GPa) = 69.61731 74.59373 72.10552
# Shear Modulus (GPa) = 24.61091 31.25501 27.93296
#
# Velocity S-wave (km/s) = 3.50106 3.94544 3.72988
# Velocity P-wave (km/s) = 7.14255 7.60964 7.37980
#
# Compressibility (1/GPa) = 0.01436424
#
# Stress axis : x y z
#
# Youngs Moduli (GPa) = 86.33045 73.70888 88.01328
#
# Poissons Ratio (x) = 0.41061 0.40485
# Poissons Ratio (y) = 0.48092 0.07951
# Poissons Ratio (z) = 0.39710 0.06659
#
# Static dielectric constant tensor:
#      x y z
#    x 1.759440 0.000000 0.000000 
#    y 0.000000 1.774310 0.000000 
#    z 0.000000 0.000000 1.862810 
# 
# From -- ./inp_files/7954.got.cif
#   From: 2010.05.17/outbox.cif.g08.bks.cpg/sg68_4_cif.got.tgz:7954.got - 2010.06.03 18:57:09.
