data_PCOD9510073
_publ_section_title
;
Structure prediction by ZEFSAII (Michael W. Deem and Ramdas Pophale) SiO2 
 PCOD9510073
Probable space group: C C C A
;
_chemical_formula_sum "Si O2"
_cell_formula_units_Z 52
_cell_length_a 19.080490
_cell_length_b 7.806421
_cell_length_c 13.157241
_cell_angle_alpha 90.000000
_cell_angle_beta 90.000000
_cell_angle_gamma 90.000000
_cell_volume 1959.775492
_symmetry_space_group_name_H-M "C C C A"
_symmetry_group_IT_number 68
_space_group.IT_coordinate_system_code '2'
_symmetry_cell_setting 'orthorhombic'
loop_
_space_group_symop_operation_xyz
x,y,z
-x,1/2-y,z
x,1/2-y,1/2-z
-x,y,1/2-z
-x,-y,-z
x,1/2+y,-z
-x,1/2+y,1/2+z
x,-y,1/2+z
1/2+x,1/2+y,z
1/2-x,-y,z
1/2+x,-y,1/2-z
1/2-x,1/2+y,1/2-z
1/2-x,1/2-y,-z
1/2+x,y,-z
1/2-x,y,1/2+z
1/2+x,1/2-y,1/2+z
loop_
_atom_site_type_symbol
_atom_site_label
_atom_site_fract_x
_atom_site_fract_y
_atom_site_fract_z
Si Si1 0.599538 0.812639 0.138761
Si Si2 0.594466 0.301774 0.422221
Si Si3 0.000000 0.250000 0.750000
Si Si4 0.759087 0.202896 0.860459
O O1 0.577295 0.750000 0.250000
O O2 0.684312 0.794629 0.137476
O O3 0.581980 0.009761 0.120708
O O4 0.572473 0.712760 0.039510
O O5 0.555836 0.182667 0.337672
O O6 0.677672 0.266651 0.429167
O O7 0.788271 0.250000 0.750000
O O8 0.750000 0.000000 0.872341
#
# Coordination Sequence:
#
# PCOD9510073 Si02
#       4
#    16  16   4  16
#     4  11  26  46  80 117 146 194 248 323 386 439
#     4  12  26  50  74 111 158 198 257 305 383 452
#     4  12  32  48  80 100 156 216 254 304 364 456
#     4  11  21  40  78 116 153 189 245 323 391 449
#
# _framework density 26.533653000000001
#
# number of rings (size 3 to 8) (size 9 to 14) (size 15 to 20)
#    0.000    0.615    1.538    7.385    4.308    1.231 
#    0.000    0.000    0.000    0.000    0.000    0.000 
#    0.000    0.000    0.000    0.000    0.000    0.000 
#
# Total GULP energy -145376.774988 kJ/mol
# GULP energy per Si atom -5591.414423 kJ/mol
# Density = 2.647326 g / cm^3
# Si number density = 26.533653 Si / 1000 Ang^3
#
#
#
# Elastic Constant Matrix: (Units=GPa)
#
#
# Indices 1 2 3 4 5 6 
#
# 1 181.5449 20.7073 26.2880 0.0000 0.0000 0.0000
# 2 20.7073 164.0211 64.9650 0.0000 0.0000 0.0000
# 3 26.2880 64.9650 297.2523 0.0000 0.0000 0.0000
# 4 0.0000 0.0000 0.0000 40.0929 0.0000 0.0000
# 5 0.0000 0.0000 0.0000 0.0000 -80.8276 0.0000
# 6 0.0000 0.0000 0.0000 0.0000 0.0000 18.9973
#
#
#
# Elastic Compliance Matrix: (Units=1/GPa)
#
#
# Indices 1 2 3 4 5 6 
#
# 1 0.005627 -0.000562 -0.000375 0.000000 0.000000 0.000000
# 2 -0.000562 0.006731 -0.001421 0.000000 0.000000 0.000000
# 3 -0.000375 -0.001421 0.003708 0.000000 0.000000 0.000000
# 4 0.000000 0.000000 0.000000 0.024942 0.000000 0.000000
# 5 0.000000 0.000000 0.000000 0.000000 -0.012372 0.000000
# 6 0.000000 0.000000 0.000000 0.000000 0.000000 0.052639
#
#
# Mechanical properties :
#
#
# Convention : Reuss Voigt Hill
#
# Bulk Modulus (GPa) = 88.11179 96.30430 92.20804
# Shear Modulus (GPa) = 55.69575 31.04306 43.36941
#
# Velocity S-wave (km/s) = 4.58652 3.42416 4.04729
# Velocity P-wave (km/s) = 7.83121 7.21160 7.52778
#
# Compressibility (1/GPa) = 0.01134922
#
# Stress axis : x y z
#
# Youngs Moduli (GPa) = 177.72588 148.57378 269.69302
#
# Poissons Ratio (x) = 0.08348 0.10108
# Poissons Ratio (y) = 0.09986 0.38332
# Poissons Ratio (z) = 0.06661 0.21117
#
# Static dielectric constant tensor:
#      x y z
#    x 2.046610 0.000000 0.000000 
#    y 0.000000 2.106460 0.000000 
#    z 0.000000 0.000000 2.011930 
# 
# From -- ./inp_files/18964.got.cif
#   From: 2010.05.17/outbox.cif.g08.bks.cpg/sg68_10_cif.got.tgz:18964.got - 2010.06.03 18:57:09.
