data_PCOD9510882
_publ_section_title
;
Structure prediction by ZEFSAII (Michael W. Deem and Ramdas Pophale) SiO2 
 PCOD9510882
Probable space group: C C C A
;
_chemical_formula_sum "Si O2"
_cell_formula_units_Z 60
_cell_length_a 17.854990
_cell_length_b 15.018341
_cell_length_c 9.168065
_cell_angle_alpha 90.000000
_cell_angle_beta 90.000000
_cell_angle_gamma 90.000000
_cell_volume 2458.437976
_symmetry_space_group_name_H-M "C C C A"
_symmetry_group_IT_number 68
_space_group.IT_coordinate_system_code '2'
_symmetry_cell_setting 'orthorhombic'
loop_
_space_group_symop_operation_xyz
x,y,z
-x,1/2-y,z
x,1/2-y,1/2-z
-x,y,1/2-z
-x,-y,-z
x,1/2+y,-z
-x,1/2+y,1/2+z
x,-y,1/2+z
1/2+x,1/2+y,z
1/2-x,-y,z
1/2+x,-y,1/2-z
1/2-x,1/2+y,1/2-z
1/2-x,1/2-y,-z
1/2+x,y,-z
1/2-x,y,1/2+z
1/2+x,1/2-y,1/2+z
loop_
_atom_site_type_symbol
_atom_site_label
_atom_site_fract_x
_atom_site_fract_y
_atom_site_fract_z
Si Si1 0.941936 0.504509 0.870491
Si Si2 0.000000 0.250000 0.750000
Si Si3 0.610830 0.323287 0.996858
Si Si4 0.800722 0.586132 0.245323
Si Si5 0.193883 0.250000 0.250000
O O1 0.869316 0.442200 0.851564
O O2 0.000000 0.476151 0.750000
O O3 0.919434 0.608384 0.873551
O O4 0.000000 0.500000 0.000000
O O5 0.944130 0.205952 0.871462
O O6 0.668178 0.384508 0.087799
O O7 0.644820 0.243579 0.898803
O O8 0.750000 0.500000 0.230452
O O9 0.748583 0.668280 0.288174
#
# Coordination Sequence:
#
# PCOD9510882 Si02
#       5
#    16   4  16  16   8
#     4  12  26  50  82 118 161 220 278 346 425 504
#     4  12  30  54  80 120 182 216 274 356 418 510
#     4  12  28  51  81 120 168 220 277 345 423 500
#     4  12  27  51  82 122 168 215 276 352 419 500
#     4  12  29  51  85 124 163 220 288 346 417 514
#
# _framework density 24.405740000000002
#
# number of rings (size 3 to 8) (size 9 to 14) (size 15 to 20)
#    0.000    0.000    5.333    3.200    7.467    0.000 
#    0.000    0.000    0.000    0.000    0.000    0.000 
#    0.000    0.000    0.000    0.000    0.000    0.000 
#
# Total GULP energy -167381.758068 kJ/mol
# GULP energy per Si atom -5579.391936 kJ/mol
# Density = 2.435019 g / cm^3
# Si number density = 24.405740 Si / 1000 Ang^3
#
#
#
# Elastic Constant Matrix: (Units=GPa)
#
#
# Indices 1 2 3 4 5 6 
#
# 1 145.2470 68.1208 86.2571 0.0000 0.0000 0.0000
# 2 68.1208 111.9696 58.3536 0.0000 0.0000 0.0000
# 3 86.2571 58.3536 144.7897 0.0000 0.0000 0.0000
# 4 0.0000 0.0000 0.0000 48.7080 0.0000 0.0000
# 5 0.0000 0.0000 0.0000 0.0000 22.6918 0.0000
# 6 0.0000 0.0000 0.0000 0.0000 0.0000 29.9000
#
#
#
# Elastic Compliance Matrix: (Units=1/GPa)
#
#
# Indices 1 2 3 4 5 6 
#
# 1 0.012303 -0.004640 -0.005460 0.000000 0.000000 0.000000
# 2 -0.004640 0.013055 -0.002498 0.000000 0.000000 0.000000
# 3 -0.005460 -0.002498 0.011166 0.000000 0.000000 0.000000
# 4 0.000000 0.000000 0.000000 0.020531 0.000000 0.000000
# 5 0.000000 0.000000 0.000000 0.000000 0.044069 0.000000
# 6 0.000000 0.000000 0.000000 0.000000 0.000000 0.033445
#
#
# Mechanical properties :
#
#
# Convention : Reuss Voigt Hill
#
# Bulk Modulus (GPa) = 88.25789 91.94102 90.09945
# Shear Modulus (GPa) = 30.57381 32.87827 31.72604
#
# Velocity S-wave (km/s) = 3.54323 3.67434 3.60938
# Velocity P-wave (km/s) = 7.27878 7.46691 7.37344
#
# Compressibility (1/GPa) = 0.01133043
#
# Stress axis : x y z
#
# Youngs Moduli (GPa) = 81.28040 76.59686 89.56106
#
# Poissons Ratio (x) = 0.35539 0.48896
# Poissons Ratio (y) = 0.37712 0.22368
# Poissons Ratio (z) = 0.44375 0.19130
#
# Static dielectric constant tensor:
#      x y z
#    x 2.210310 0.000000 0.000000 
#    y 0.000000 2.236450 0.000000 
#    z 0.000000 0.000000 2.009400 
# 
# From -- ./inp_files/5658.got.cif
#   From: 2010.05.17/outbox.cif.g08.bks.cpg/sg68_3_cif.got.tgz:5658.got - 2010.06.03 18:57:09.
