data_PCOD9510609
_publ_section_title
;
Structure prediction by ZEFSAII (Michael W. Deem and Ramdas Pophale) SiO2 
 PCOD9510609
Probable space group: C C C A
;
_chemical_formula_sum "Si O2"
_cell_formula_units_Z 88
_cell_length_a 13.180949
_cell_length_b 22.844434
_cell_length_c 15.243713
_cell_angle_alpha 90.000000
_cell_angle_beta 90.000000
_cell_angle_gamma 90.000000
_cell_volume 4590.054535
_symmetry_space_group_name_H-M "C C C A"
_symmetry_group_IT_number 68
_space_group.IT_coordinate_system_code '2'
_symmetry_cell_setting 'orthorhombic'
loop_
_space_group_symop_operation_xyz
x,y,z
-x,1/2-y,z
x,1/2-y,1/2-z
-x,y,1/2-z
-x,-y,-z
x,1/2+y,-z
-x,1/2+y,1/2+z
x,-y,1/2+z
1/2+x,1/2+y,z
1/2-x,-y,z
1/2+x,-y,1/2-z
1/2-x,1/2+y,1/2-z
1/2-x,1/2-y,-z
1/2+x,y,-z
1/2-x,y,1/2+z
1/2+x,1/2-y,1/2+z
loop_
_atom_site_type_symbol
_atom_site_label
_atom_site_fract_x
_atom_site_fract_y
_atom_site_fract_z
Si Si1 0.455915 0.546365 0.930669
Si Si2 0.597960 0.545267 0.212569
Si Si3 0.258622 0.385377 0.406264
Si Si4 0.379220 0.680182 0.752378
Si Si5 0.750000 0.000000 0.641377
Si Si6 0.651622 0.383514 0.424696
O O1 0.445593 0.511260 0.839220
O O2 0.343411 0.570624 0.944970
O O3 0.532825 0.600894 0.933153
O O4 0.500000 0.500000 0.000000
O O5 0.500000 0.578871 0.250000
O O6 0.671315 0.579722 0.146554
O O7 0.665145 0.525882 0.294231
O O8 0.320492 0.346174 0.336317
O O9 0.202019 0.356125 0.488865
O O10 0.370066 0.750000 0.750000
O O11 0.500000 0.665728 0.750000
O O12 0.333026 0.652483 0.663999
O O13 0.799250 0.052481 0.588172
#
# Coordination Sequence:
#
# PCOD9510609 Si02
#       6
#    16  16  16  16   8  16
#     4  12  22  35  56  95 140 174 206 249 320 406
#     4  12  23  35  57  89 139 178 212 251 313 395
#     4  12  25  41  63  97 131 170 221 273 333 387
#     4  11  25  49  73  92 122 173 234 285 328 389
#     4  12  22  36  60  96 134 178 204 256 328 396
#     4  12  24  39  65  99 134 169 215 268 325 401
#
# _framework density 19.171887000000002
#
# number of rings (size 3 to 8) (size 9 to 14) (size 15 to 20)
#    0.000    0.182    9.091    1.091    0.000    0.727 
#    0.000    0.000    0.000    0.545    0.000    0.000 
#    0.000    0.000    0.000    0.000    0.000    0.000 
#
# Total GULP energy -245778.495089 kJ/mol
# GULP energy per Si atom -5585.874888 kJ/mol
# Density = 1.912825 g / cm^3
# Si number density = 19.171887 Si / 1000 Ang^3
#
#
#
# Elastic Constant Matrix: (Units=GPa)
#
#
# Indices 1 2 3 4 5 6 
#
# 1 136.4487 29.1915 59.9093 0.0000 0.0000 0.0000
# 2 29.1915 51.7713 32.1968 0.0000 0.0000 0.0000
# 3 59.9093 32.1968 110.9517 0.0000 0.0000 0.0000
# 4 0.0000 0.0000 0.0000 6.2036 0.0000 0.0000
# 5 0.0000 0.0000 0.0000 0.0000 39.8260 0.0000
# 6 0.0000 0.0000 0.0000 0.0000 0.0000 19.5900
#
#
#
# Elastic Compliance Matrix: (Units=1/GPa)
#
#
# Indices 1 2 3 4 5 6 
#
# 1 0.009919 -0.002760 -0.004555 0.000000 0.000000 0.000000
# 2 -0.002760 0.024337 -0.005572 0.000000 0.000000 0.000000
# 3 -0.004555 -0.005572 0.013089 0.000000 0.000000 0.000000
# 4 0.000000 0.000000 0.000000 0.161197 0.000000 0.000000
# 5 0.000000 0.000000 0.000000 0.000000 0.025109 0.000000
# 6 0.000000 0.000000 0.000000 0.000000 0.000000 0.051047
#
#
# Mechanical properties :
#
#
# Convention : Reuss Voigt Hill
#
# Bulk Modulus (GPa) = 46.35746 60.19632 53.27689
# Shear Modulus (GPa) = 15.73993 24.98218 20.36105
#
# Velocity S-wave (km/s) = 2.86840 3.61371 3.26241
# Velocity P-wave (km/s) = 5.93319 6.99130 6.48386
#
# Compressibility (1/GPa) = 0.02157150
#
# Stress axis : x y z
#
# Youngs Moduli (GPa) = 100.81476 41.08918 76.39803
#
# Poissons Ratio (x) = 0.11342 0.34799
# Poissons Ratio (y) = 0.27827 0.42569
# Poissons Ratio (z) = 0.45921 0.22895
#
# Static dielectric constant tensor:
#      x y z
#    x 1.730240 0.000000 0.000000 
#    y 0.000000 1.639040 0.000000 
#    z 0.000000 0.000000 1.702240 
# 
# From -- ./inp_files/20949.got.cif
#   From: 2010.05.17/outbox.cif.g08.bks.cpg/sg68_11_cif.got.tgz:20949.got - 2010.06.03 18:57:09.
