data_PCOD9510614
_publ_section_title
;
Structure prediction by ZEFSAII (Michael W. Deem and Ramdas Pophale) SiO2 
 PCOD9510614
Probable space group: C C C A
;
_chemical_formula_sum "Si O2"
_cell_formula_units_Z 56
_cell_length_a 15.965368
_cell_length_b 11.027289
_cell_length_c 12.952732
_cell_angle_alpha 90.000000
_cell_angle_beta 90.000000
_cell_angle_gamma 90.000000
_cell_volume 2280.389695
_symmetry_space_group_name_H-M "C C C A"
_symmetry_group_IT_number 68
_space_group.IT_coordinate_system_code '2'
_symmetry_cell_setting 'orthorhombic'
loop_
_space_group_symop_operation_xyz
x,y,z
-x,1/2-y,z
x,1/2-y,1/2-z
-x,y,1/2-z
-x,-y,-z
x,1/2+y,-z
-x,1/2+y,1/2+z
x,-y,1/2+z
1/2+x,1/2+y,z
1/2-x,-y,z
1/2+x,-y,1/2-z
1/2-x,1/2+y,1/2-z
1/2-x,1/2-y,-z
1/2+x,y,-z
1/2-x,y,1/2+z
1/2+x,1/2-y,1/2+z
loop_
_atom_site_type_symbol
_atom_site_label
_atom_site_fract_x
_atom_site_fract_y
_atom_site_fract_z
Si Si1 0.130960 0.182581 0.946027
Si Si2 0.461011 0.598850 0.861545
Si Si3 0.750000 0.000000 0.679557
Si Si4 0.872554 0.351301 0.175218
O O1 0.115970 0.312157 0.890141
O O2 0.190649 0.086389 0.889402
O O3 0.037283 0.125347 0.938541
O O4 0.156351 0.201181 0.064904
O O5 0.500000 0.626969 0.750000
O O6 0.432709 0.461617 0.853927
O O7 0.698536 0.087773 0.754801
O O8 0.909472 0.250000 0.250000
#
# Coordination Sequence:
#
# PCOD9510614 Si02
#       4
#    16  16   8  16
#     4  11  26  51  80 109 157 210 251 322 394 459
#     4  11  25  51  81 107 156 209 260 312 394 466
#     4  12  28  50  78 112 164 200 256 322 396 466
#     4  12  30  47  78 118 151 197 267 325 375 468
#
# _framework density 24.557205
#
# number of rings (size 3 to 8) (size 9 to 14) (size 15 to 20)
#    0.000    0.571    2.857    3.429    8.000    6.286 
#    0.000    0.000    0.000    0.000    0.000    0.000 
#    0.000    0.000    0.000    0.000    0.000    0.000 
#
# Total GULP energy -156854.129864 kJ/mol
# GULP energy per Si atom -5601.933209 kJ/mol
# Density = 2.450131 g / cm^3
# Si number density = 24.557205 Si / 1000 Ang^3
#
#
#
# Elastic Constant Matrix: (Units=GPa)
#
#
# Indices 1 2 3 4 5 6 
#
# 1 89.5475 56.2199 50.7778 0.0000 0.0000 0.0000
# 2 56.2199 183.5415 82.6276 0.0000 0.0000 0.0000
# 3 50.7778 82.6276 220.9485 0.0000 0.0000 0.0000
# 4 0.0000 0.0000 0.0000 46.5842 0.0000 0.0000
# 5 0.0000 0.0000 0.0000 0.0000 30.4703 0.0000
# 6 0.0000 0.0000 0.0000 0.0000 0.0000 41.7152
#
#
#
# Elastic Compliance Matrix: (Units=1/GPa)
#
#
# Indices 1 2 3 4 5 6 
#
# 1 0.014536 -0.003545 -0.002015 0.000000 0.000000 0.000000
# 2 -0.003545 0.007416 -0.001959 0.000000 0.000000 0.000000
# 3 -0.002015 -0.001959 0.005721 0.000000 0.000000 0.000000
# 4 0.000000 0.000000 0.000000 0.021467 0.000000 0.000000
# 5 0.000000 0.000000 0.000000 0.000000 0.032819 0.000000
# 6 0.000000 0.000000 0.000000 0.000000 0.000000 0.023972
#
#
# Mechanical properties :
#
#
# Convention : Reuss Voigt Hill
#
# Bulk Modulus (GPa) = 79.14043 97.03203 88.08623
# Shear Modulus (GPa) = 39.94263 44.04808 41.99536
#
# Velocity S-wave (km/s) = 4.03738 4.23980 4.13983
# Velocity P-wave (km/s) = 7.35057 7.97284 7.66802
#
# Compressibility (1/GPa) = 0.01263577
#
# Stress axis : x y z
#
# Youngs Moduli (GPa) = 68.79695 134.84276 174.78260
#
# Poissons Ratio (x) = 0.47806 0.35213
# Poissons Ratio (y) = 0.24391 0.34233
# Poissons Ratio (z) = 0.13860 0.26410
#
# Static dielectric constant tensor:
#      x y z
#    x 1.996750 0.000000 0.000000 
#    y 0.000000 1.997620 0.000000 
#    z 0.000000 0.000000 1.967670 
# 
# From -- ./inp_files/13909.got.cif
#   From: 2010.05.17/outbox.cif.g08.bks.cpg/sg68_7_cif.got.tgz:13909.got - 2010.06.03 18:57:09.
