data_PCOD9510015
_publ_section_title
;
Structure prediction by ZEFSAII (Michael W. Deem and Ramdas Pophale) SiO2 
 PCOD9510015
Probable space group: C C C A
;
_chemical_formula_sum "Si O2"
_cell_formula_units_Z 88
_cell_length_a 8.631876
_cell_length_b 22.321112
_cell_length_c 21.848875
_cell_angle_alpha 90.000000
_cell_angle_beta 90.000000
_cell_angle_gamma 90.000000
_cell_volume 4209.689843
_symmetry_space_group_name_H-M "C C C A"
_symmetry_group_IT_number 68
_space_group.IT_coordinate_system_code '2'
_symmetry_cell_setting 'orthorhombic'
loop_
_space_group_symop_operation_xyz
x,y,z
-x,1/2-y,z
x,1/2-y,1/2-z
-x,y,1/2-z
-x,-y,-z
x,1/2+y,-z
-x,1/2+y,1/2+z
x,-y,1/2+z
1/2+x,1/2+y,z
1/2-x,-y,z
1/2+x,-y,1/2-z
1/2-x,1/2+y,1/2-z
1/2-x,1/2-y,-z
1/2+x,y,-z
1/2-x,y,1/2+z
1/2+x,1/2-y,1/2+z
loop_
_atom_site_type_symbol
_atom_site_label
_atom_site_fract_x
_atom_site_fract_y
_atom_site_fract_z
Si Si1 0.942816 0.627520 0.679127
Si Si2 0.133495 0.620171 0.033735
Si Si3 0.625654 0.405738 0.115387
Si Si4 0.544834 0.183649 0.566137
Si Si5 0.250000 0.000000 0.514032
Si Si6 0.067440 0.003817 0.317521
O O1 0.761390 0.620288 0.659198
O O2 0.000000 0.633397 0.750000
O O3 0.015784 0.679337 0.638358
O O4 0.015714 0.565802 0.652057
O O5 0.287062 0.656842 0.050693
O O6 0.992064 0.637410 0.079055
O O7 0.161125 0.547739 0.030065
O O8 0.077403 0.640106 0.967015
O O9 0.678776 0.451790 0.061624
O O10 0.513894 0.445999 0.156420
O O11 0.500000 0.250000 0.544489
O O12 0.000000 0.009795 0.250000
O O13 0.250000 0.000000 0.316980
#
# Coordination Sequence:
#
# PCOD9510015 Si02
#       6
#    16  16  16  16   8  16
#     4  11  23  42  62  90 129 176 228 281 337 402
#     4  12  25  40  67 103 134 183 221 283 353 410
#     4  12  22  38  64  98 141 175 220 275 347 426
#     4  12  25  45  66  93 132 179 233 283 338 406
#     4  12  22  38  64  98 146 174 218 274 344 422
#     4  11  21  35  58  91 131 174 213 264 336 411
#
# _framework density 20.904152
#
# number of rings (size 3 to 8) (size 9 to 14) (size 15 to 20)
#    0.000    0.364    5.455    4.364    3.818    0.364 
#    0.000    0.000    0.000    0.000    0.000   10.182 
#    0.000    0.000    0.000    0.000    0.000    0.000 
#
# Total GULP energy -245292.409905 kJ/mol
# GULP energy per Si atom -5574.827498 kJ/mol
# Density = 2.085657 g / cm^3
# Si number density = 20.904152 Si / 1000 Ang^3
#
#
#
# Elastic Constant Matrix: (Units=GPa)
#
#
# Indices 1 2 3 4 5 6 
#
# 1 170.4614 33.3456 63.6166 0.0000 0.0000 0.0000
# 2 33.3456 57.6102 36.0443 0.0000 0.0000 0.0000
# 3 63.6166 36.0443 91.4861 0.0000 0.0000 0.0000
# 4 0.0000 0.0000 0.0000 34.0325 0.0000 0.0000
# 5 0.0000 0.0000 0.0000 0.0000 33.5162 0.0000
# 6 0.0000 0.0000 0.0000 0.0000 0.0000 14.1139
#
#
#
# Elastic Compliance Matrix: (Units=1/GPa)
#
#
# Indices 1 2 3 4 5 6 
#
# 1 0.008023 -0.001531 -0.004976 0.000000 0.000000 0.000000
# 2 -0.001531 0.023329 -0.008127 0.000000 0.000000 0.000000
# 3 -0.004976 -0.008127 0.017593 0.000000 0.000000 0.000000
# 4 0.000000 0.000000 0.000000 0.029384 0.000000 0.000000
# 5 0.000000 0.000000 0.000000 0.000000 0.029836 0.000000
# 6 0.000000 0.000000 0.000000 0.000000 0.000000 0.070852
#
#
# Mechanical properties :
#
#
# Convention : Reuss Voigt Hill
#
# Bulk Modulus (GPa) = 50.81949 65.06340 57.94144
# Shear Modulus (GPa) = 23.27295 28.76927 26.02111
#
# Velocity S-wave (km/s) = 3.34026 3.71380 3.53197
# Velocity P-wave (km/s) = 6.26418 7.04145 6.66416
#
# Compressibility (1/GPa) = 0.01967749
#
# Stress axis : x y z
#
# Youngs Moduli (GPa) = 124.64449 42.86589 56.84240
#
# Poissons Ratio (x) = 0.06561 0.28284
# Poissons Ratio (y) = 0.19078 0.46195
# Poissons Ratio (z) = 0.62021 0.34836
#
# Static dielectric constant tensor:
#      x y z
#    x 1.808640 0.000000 0.000000 
#    y 0.000000 1.799490 0.000000 
#    z 0.000000 0.000000 1.800220 
# 
# From -- ./inp_files/36311.got.cif
#   From: 2010.05.17/outbox.cif.g08.bks.cpg/sg68_19_cif.got.tgz:36311.got - 2010.06.03 18:57:09.
