data_PCOD9510985
_publ_section_title
;
Structure prediction by ZEFSAII (Michael W. Deem and Ramdas Pophale) SiO2 
 PCOD9510985
Probable space group: F M M M
;
_chemical_formula_sum "Si O2"
_cell_formula_units_Z 160
_cell_length_a 25.628196
_cell_length_b 15.289745
_cell_length_c 20.636853
_cell_angle_alpha 90.000000
_cell_angle_beta 90.000000
_cell_angle_gamma 90.000000
_cell_volume 8086.521578
_symmetry_space_group_name_H-M "F M M M"
_symmetry_group_IT_number 69
_symmetry_cell_setting 'orthorhombic'
loop_
_space_group_symop_operation_xyz
x,y,z
-x,-y,z
x,-y,-z
-x,y,-z
-x,-y,-z
x,y,-z
-x,y,z
x,-y,z
x,1/2+y,1/2+z
-x,1/2-y,1/2+z
x,1/2-y,1/2-z
-x,1/2+y,1/2-z
-x,1/2-y,1/2-z
x,1/2+y,1/2-z
-x,1/2+y,1/2+z
x,1/2-y,1/2+z
1/2+x,y,1/2+z
1/2-x,-y,1/2+z
1/2+x,-y,1/2-z
1/2-x,y,1/2-z
1/2-x,-y,1/2-z
1/2+x,y,1/2-z
1/2-x,y,1/2+z
1/2+x,-y,1/2+z
1/2+x,1/2+y,z
1/2-x,1/2-y,z
1/2+x,1/2-y,-z
1/2-x,1/2+y,-z
1/2-x,1/2-y,-z
1/2+x,1/2+y,-z
1/2-x,1/2+y,z
1/2+x,1/2-y,z
loop_
_atom_site_type_symbol
_atom_site_label
_atom_site_fract_x
_atom_site_fract_y
_atom_site_fract_z
Si Si1 0.670732 0.404873 0.397079
Si Si2 0.723122 0.344979 0.878014
Si Si3 0.557477 0.169779 0.300986
Si Si4 0.665207 0.857585 0.747471
Si Si5 0.615728 0.725963 0.928218
O O1 0.650612 0.500000 0.414529
O O2 0.731672 0.395510 0.415506
O O3 0.672883 0.392988 0.319024
O O4 0.635867 0.325846 0.422732
O O5 0.750000 0.250000 0.867035
O O6 0.706390 0.382261 0.807973
O O7 0.668784 0.329082 0.914678
O O8 0.500000 0.128878 0.303510
O O9 0.554482 0.250000 0.250000
O O10 0.607362 0.115979 0.276234
O O11 0.575251 0.205765 0.371086
O O12 0.666666 0.750000 0.750000
O O13 0.595726 0.708381 0.000000
#
# Coordination Sequence:
#
# PCOD9510985 Si02
#       5
#    32  32  32  32  32
#     4  11  21  30  46  76 108 141 177 210 251 308
#     4   9  17  28  48  68  97 135 178 212 250 300
#     4   9  16  31  57  80  93 123 175 222 260 299
#     4  10  15  29  49  73  97 132 166 214 263 301
#     4  10  20  34  51  74 105 143 178 214 257 303
#
# _framework density 19.786010000000001
#
# number of rings (size 3 to 8) (size 9 to 14) (size 15 to 20)
#    0.000    2.200    8.000    0.600    0.000    6.000 
#    0.000    0.000    0.000    2.400    0.000    1.400 
#    0.000    0.000    0.000    8.800    0.000    0.000 
#
# Total GULP energy -222995.393916 kJ/mol
# GULP energy per Si atom -5574.884848 kJ/mol
# Density = 1.974098 g / cm^3
# Si number density = 19.786010 Si / 1000 Ang^3
#
#
#
# Elastic Constant Matrix: (Units=GPa)
#
#
# Indices 1 2 3 4 5 6 
#
# 1 89.3398 -7.7722 14.9018 0.0000 0.0000 0.0000
# 2 -7.7722 34.9053 -3.9860 0.0000 0.0000 0.0000
# 3 14.9018 -3.9860 116.1389 0.0000 0.0000 0.0000
# 4 0.0000 0.0000 0.0000 0.6277 0.0000 0.0000
# 5 0.0000 0.0000 0.0000 0.0000 -16.7818 0.0000
# 6 0.0000 0.0000 0.0000 0.0000 0.0000 2.5839
#
#
#
# Elastic Compliance Matrix: (Units=1/GPa)
#
#
# Indices 1 2 3 4 5 6 
#
# 1 0.011640 0.002431 -0.001410 0.000000 0.000000 0.000000
# 2 0.002431 0.029269 0.000693 0.000000 0.000000 0.000000
# 3 -0.001410 0.000693 0.008815 0.000000 0.000000 0.000000
# 4 0.000000 0.000000 0.000000 1.593055 0.000000 0.000000
# 5 0.000000 0.000000 0.000000 0.000000 -0.059589 0.000000
# 6 0.000000 0.000000 0.000000 0.000000 0.000000 0.387011
#
#
# Mechanical properties :
#
#
# Convention : Reuss Voigt Hill
#
# Bulk Modulus (GPa) = 18.81430 27.40788 23.11109
# Shear Modulus (GPa) = 2.51954 13.10201 7.81077
#
# Velocity S-wave (km/s) = 1.12967 2.57609 1.98902
# Velocity P-wave (km/s) = 3.35128 4.76765 4.12078
#
# Compressibility (1/GPa) = 0.05315106
#
# Stress axis : x y z
#
# Youngs Moduli (GPa) = 85.91144 34.16545 113.44199
#
# Poissons Ratio (x) = -0.08305 0.15996
# Poissons Ratio (y) = -0.20883 -0.07858
# Poissons Ratio (z) = 0.12114 -0.02367
#
# Static dielectric constant tensor:
#      x y z
#    x 1.709310 0.000000 0.000000 
#    y 0.000000 1.742160 0.000000 
#    z 0.000000 0.000000 1.722420 
# 
# From -- ./inp_files/33938.got.cif
#   From: 2010.05.17/outbox.cif.g08.bks.cpg/sg69_17_cif.got.tgz:33938.got - 2010.06.03 19:29:58.
