data_PCOD9510098
_publ_section_title
;
Structure prediction by ZEFSAII (Michael W. Deem and Ramdas Pophale) SiO2 
 PCOD9510098
Probable space group: C C C A
;
_chemical_formula_sum "Si O2"
_cell_formula_units_Z 112
_cell_length_a 12.174901
_cell_length_b 16.392472
_cell_length_c 27.128145
_cell_angle_alpha 90.000000
_cell_angle_beta 90.000000
_cell_angle_gamma 90.000000
_cell_volume 5414.146300
_symmetry_space_group_name_H-M "C C C A"
_symmetry_group_IT_number 68
_space_group.IT_coordinate_system_code '2'
_symmetry_cell_setting 'orthorhombic'
loop_
_space_group_symop_operation_xyz
x,y,z
-x,1/2-y,z
x,1/2-y,1/2-z
-x,y,1/2-z
-x,-y,-z
x,1/2+y,-z
-x,1/2+y,1/2+z
x,-y,1/2+z
1/2+x,1/2+y,z
1/2-x,-y,z
1/2+x,-y,1/2-z
1/2-x,1/2+y,1/2-z
1/2-x,1/2-y,-z
1/2+x,y,-z
1/2-x,y,1/2+z
1/2+x,1/2-y,1/2+z
loop_
_atom_site_type_symbol
_atom_site_label
_atom_site_fract_x
_atom_site_fract_y
_atom_site_fract_z
Si Si1 0.475433 0.381760 0.845195
Si Si2 0.368434 0.539191 0.866785
Si Si3 0.567186 0.833274 0.057428
Si Si4 0.877093 0.277363 0.647794
Si Si5 0.198513 0.704708 0.048303
Si Si6 0.339142 0.271026 0.692786
Si Si7 0.500595 0.080511 0.466246
O O1 0.426316 0.469812 0.833386
O O2 0.501694 0.387074 0.903502
O O3 0.391917 0.306685 0.836219
O O4 0.585751 0.349604 0.818976
O O5 0.250000 0.500000 0.881063
O O6 0.356012 0.627260 0.841534
O O7 0.443694 0.560841 0.914341
O O8 0.500000 0.750000 0.057725
O O9 0.691238 0.826434 0.074983
O O10 0.571501 0.861895 0.001564
O O11 0.858679 0.261449 0.589182
O O12 0.786758 0.224863 0.676738
O O13 0.000000 0.250000 0.659747
O O14 0.115156 0.629853 0.037469
O O15 0.250000 0.750000 0.000000
O O16 0.349305 0.250000 0.750000
O O17 0.500000 0.000000 0.500000
#
# Coordination Sequence:
#
# PCOD9510098 Si02
#       7
#    16  16  16  16  16  16  16
#     4  11  21  43  71 104 133 174 228 292 345 414
#     4  12  26  43  68  99 148 188 231 287 352 414
#     4  12  22  38  63  93 131 183 236 280 326 398
#     4  12  25  47  71 103 140 189 232 286 355 427
#     4  12  25  40  65  92 139 191 236 281 332 413
#     4  11  24  46  81 107 129 174 238 294 359 433
#     4  12  27  39  58 101 140 188 243 286 335 399
#
# _framework density 20.686547000000001
#
# number of rings (size 3 to 8) (size 9 to 14) (size 15 to 20)
#    0.000    0.286    8.571    1.714    4.000    0.286 
#    0.000    2.143    9.429    0.000    0.000    0.000 
#    0.000    0.000    0.000    0.000    0.000    0.000 
#
# Total GULP energy -312477.220541 kJ/mol
# GULP energy per Si atom -5579.950367 kJ/mol
# Density = 2.063946 g / cm^3
# Si number density = 20.686547 Si / 1000 Ang^3
#
#
#
# Elastic Constant Matrix: (Units=GPa)
#
#
# Indices 1 2 3 4 5 6 
#
# 1 158.7962 60.1461 21.8107 0.0000 0.0000 0.0000
# 2 60.1461 114.2178 10.3345 0.0000 0.0000 0.0000
# 3 21.8107 10.3345 63.6856 0.0000 0.0000 0.0000
# 4 0.0000 0.0000 0.0000 18.0005 0.0000 0.0000
# 5 0.0000 0.0000 0.0000 0.0000 -40.5452 0.0000
# 6 0.0000 0.0000 0.0000 0.0000 0.0000 33.0085
#
#
#
# Elastic Compliance Matrix: (Units=1/GPa)
#
#
# Indices 1 2 3 4 5 6 
#
# 1 0.008140 -0.004094 -0.002123 0.000000 0.000000 0.000000
# 2 -0.004094 0.010945 -0.000374 0.000000 0.000000 0.000000
# 3 -0.002123 -0.000374 0.016490 0.000000 0.000000 0.000000
# 4 0.000000 0.000000 0.000000 0.055554 0.000000 0.000000
# 5 0.000000 0.000000 0.000000 0.000000 -0.024664 0.000000
# 6 0.000000 0.000000 0.000000 0.000000 0.000000 0.030295
#
#
# Mechanical properties :
#
#
# Convention : Reuss Voigt Hill
#
# Bulk Modulus (GPa) = 44.65895 57.92026 51.28961
# Shear Modulus (GPa) = 42.58692 18.38665 30.48679
#
# Velocity S-wave (km/s) = 4.54219 2.98455 3.84311
# Velocity P-wave (km/s) = 7.01027 6.31953 6.67384
#
# Compressibility (1/GPa) = 0.02239193
#
# Stress axis : x y z
#
# Youngs Moduli (GPa) = 122.85397 91.36579 60.64286
#
# Poissons Ratio (x) = 0.37407 0.12876
# Poissons Ratio (y) = 0.50299 0.02268
# Poissons Ratio (z) = 0.26085 0.03416
#
# Static dielectric constant tensor:
#      x y z
#    x 1.782060 0.000000 0.000000 
#    y 0.000000 1.681350 0.000000 
#    z 0.000000 0.000000 1.753610 
# 
# From -- ./inp_files/54816.got.cif
#   From: 2010.05.17/outbox.cif.g08.bks.cpg/sg68_28_cif.got.tgz:54816.got - 2010.06.03 18:57:09.
