data_PCOD9510135
_publ_section_title
;
Structure prediction by ZEFSAII (Michael W. Deem and Ramdas Pophale) SiO2 
 PCOD9510135
Probable space group: C C C A
;
_chemical_formula_sum "Si O2"
_cell_formula_units_Z 116
_cell_length_a 9.501239
_cell_length_b 24.174835
_cell_length_c 25.066071
_cell_angle_alpha 90.000000
_cell_angle_beta 90.000000
_cell_angle_gamma 90.000000
_cell_volume 5757.448034
_symmetry_space_group_name_H-M "C C C A"
_symmetry_group_IT_number 68
_space_group.IT_coordinate_system_code '2'
_symmetry_cell_setting 'orthorhombic'
loop_
_space_group_symop_operation_xyz
x,y,z
-x,1/2-y,z
x,1/2-y,1/2-z
-x,y,1/2-z
-x,-y,-z
x,1/2+y,-z
-x,1/2+y,1/2+z
x,-y,1/2+z
1/2+x,1/2+y,z
1/2-x,-y,z
1/2+x,-y,1/2-z
1/2-x,1/2+y,1/2-z
1/2-x,1/2-y,-z
1/2+x,y,-z
1/2-x,y,1/2+z
1/2+x,1/2-y,1/2+z
loop_
_atom_site_type_symbol
_atom_site_label
_atom_site_fract_x
_atom_site_fract_y
_atom_site_fract_z
Si Si1 0.855934 0.449891 0.110097
Si Si2 0.372704 0.540476 0.511845
Si Si3 0.644529 0.154405 0.727422
Si Si4 0.088601 0.877456 0.395526
Si Si5 0.000000 0.250000 0.750000
Si Si6 0.691020 0.775130 0.652978
Si Si7 0.302127 0.646854 0.836764
Si Si8 0.839256 0.946924 0.658118
O O1 0.750000 0.500000 0.125614
O O2 0.813926 0.393855 0.139550
O O3 0.019245 0.461999 0.125056
O O4 0.829429 0.439919 0.047167
O O5 0.500000 0.500000 0.500000
O O6 0.250000 0.500000 0.534691
O O7 0.426496 0.590464 0.548799
O O8 0.500000 0.176603 0.750000
O O9 0.675458 0.193653 0.676822
O O10 0.762281 0.151608 0.774240
O O11 0.620634 0.092192 0.707068
O O12 0.128741 0.812412 0.394335
O O13 0.224075 0.909410 0.372391
O O14 0.950985 0.879070 0.357142
O O15 0.908034 0.218486 0.705879
O O16 0.704473 0.710299 0.642649
O O17 0.750000 0.000000 0.674825
#
# Coordination Sequence:
#
# PCOD9510135 Si02
#       8
#    16  16  16  16   4  16  16  16
#     4  11  24  42  65  96 126 169 222 276 330 402
#     4  11  22  41  68  93 124 171 221 273 333 396
#     4  11  23  42  61  93 128 170 214 265 324 399
#     4  11  22  39  64  94 127 167 219 276 323 388
#     4  12  16  40  58  92 124 160 224 254 304 404
#     4  11  22  37  66  90 127 168 217 265 320 394
#     4  12  22  40  63  94 126 165 220 262 325 394
#     4  11  23  41  60  91 133 171 214 271 336 393
#
# _framework density 20.147814
#
# number of rings (size 3 to 8) (size 9 to 14) (size 15 to 20)
#    0.000    0.828    4.138    4.552    0.000    3.310 
#    2.483    0.690    0.000    3.310    0.000    0.000 
#    0.000    0.000    0.000    0.000    0.000    0.000 
#
# Total GULP energy -323110.260937 kJ/mol
# GULP energy per Si atom -5570.866568 kJ/mol
# Density = 2.010196 g / cm^3
# Si number density = 20.147814 Si / 1000 Ang^3
#
#
#
# Elastic Constant Matrix: (Units=GPa)
#
#
# Indices 1 2 3 4 5 6 
#
# 1 113.4225 36.7883 18.9086 0.0000 0.0000 0.0000
# 2 36.7883 135.2365 50.3190 0.0000 0.0000 0.0000
# 3 18.9086 50.3190 63.8310 0.0000 0.0000 0.0000
# 4 0.0000 0.0000 0.0000 36.0121 0.0000 0.0000
# 5 0.0000 0.0000 0.0000 0.0000 27.6276 0.0000
# 6 0.0000 0.0000 0.0000 0.0000 0.0000 100.8609
#
#
#
# Elastic Compliance Matrix: (Units=1/GPa)
#
#
# Indices 1 2 3 4 5 6 
#
# 1 0.009727 -0.002227 -0.001126 0.000000 0.000000 0.000000
# 2 -0.002227 0.010974 -0.007991 0.000000 0.000000 0.000000
# 3 -0.001126 -0.007991 0.022299 0.000000 0.000000 0.000000
# 4 0.000000 0.000000 0.000000 0.027768 0.000000 0.000000
# 5 0.000000 0.000000 0.000000 0.000000 0.036196 0.000000
# 6 0.000000 0.000000 0.000000 0.000000 0.000000 0.009915
#
#
# Mechanical properties :
#
#
# Convention : Reuss Voigt Hill
#
# Bulk Modulus (GPa) = 49.23188 58.28022 53.75605
# Shear Modulus (GPa) = 34.16791 46.66505 40.41648
#
# Velocity S-wave (km/s) = 4.12255 4.81784 4.48370
# Velocity P-wave (km/s) = 6.86651 7.74196 7.31734
#
# Compressibility (1/GPa) = 0.02031204
#
# Stress axis : x y z
#
# Youngs Moduli (GPa) = 102.81081 91.12819 44.84468
#
# Poissons Ratio (x) = 0.20295 0.05048
# Poissons Ratio (y) = 0.22897 0.35835
# Poissons Ratio (z) = 0.11573 0.72820
#
# Static dielectric constant tensor:
#      x y z
#    x 1.841140 0.000000 0.000000 
#    y 0.000000 1.753530 0.000000 
#    z 0.000000 0.000000 2.304360 
# 
# From -- ./inp_files/49631.got.cif
#   From: 2010.05.17/outbox.cif.g08.bks.cpg/sg68_25_cif.got.tgz:49631.got - 2010.06.03 18:57:09.
