data_PCOD9510543
_publ_section_title
;
Structure prediction by ZEFSAII (Michael W. Deem and Ramdas Pophale) SiO2 
 PCOD9510543
Probable space group: C C C A
;
_chemical_formula_sum "Si O2"
_cell_formula_units_Z 104
_cell_length_a 28.120324
_cell_length_b 8.462216
_cell_length_c 21.822025
_cell_angle_alpha 90.000000
_cell_angle_beta 90.000000
_cell_angle_gamma 90.000000
_cell_volume 5192.774648
_symmetry_space_group_name_H-M "C C C A"
_symmetry_group_IT_number 68
_space_group.IT_coordinate_system_code '2'
_symmetry_cell_setting 'orthorhombic'
loop_
_space_group_symop_operation_xyz
x,y,z
-x,1/2-y,z
x,1/2-y,1/2-z
-x,y,1/2-z
-x,-y,-z
x,1/2+y,-z
-x,1/2+y,1/2+z
x,-y,1/2+z
1/2+x,1/2+y,z
1/2-x,-y,z
1/2+x,-y,1/2-z
1/2-x,1/2+y,1/2-z
1/2-x,1/2-y,-z
1/2+x,y,-z
1/2-x,y,1/2+z
1/2+x,1/2-y,1/2+z
loop_
_atom_site_type_symbol
_atom_site_label
_atom_site_fract_x
_atom_site_fract_y
_atom_site_fract_z
Si Si1 0.946168 0.511648 0.249925
Si Si2 0.800020 0.601651 0.530941
Si Si3 0.306379 0.679964 0.685364
Si Si4 0.445995 0.235452 0.138954
Si Si5 0.648724 0.803986 0.928666
Si Si6 0.129646 0.250000 0.250000
Si Si7 0.801819 0.683045 0.849160
O O1 0.939415 0.580412 0.181347
O O2 0.943288 0.635820 0.306029
O O3 0.905063 0.391800 0.263607
O O4 0.000000 0.448126 0.250000
O O5 0.750000 0.500000 0.526731
O O6 0.841762 0.477171 0.545439
O O7 0.818693 0.687396 0.469861
O O8 0.797406 0.738029 0.583635
O O9 0.322986 0.750000 0.750000
O O10 0.327399 0.800170 0.637199
O O11 0.249762 0.689108 0.681266
O O12 0.317751 0.500987 0.661429
O O13 0.500000 0.250000 0.114621
O O14 0.405705 0.243293 0.086626
O O15 0.162605 0.215655 0.191959
#
# Coordination Sequence:
#
# PCOD9510543 Si02
#       7
#    16  16  16  16  16   8  16
#     4   9  19  36  61  91 127 164 210 266 331 400
#     4  12  26  45  65  94 130 184 230 270 315 397
#     4  11  25  41  62  91 132 171 214 264 332 382
#     4   9  20  41  65  92 120 165 219 271 331 396
#     4  12  25  41  70  89 129 173 225 273 329 385
#     4  12  21  34  58  98 132 164 209 268 338 378
#     4  11  25  39  60  91 134 169 219 263 318 387
#
# _framework density 20.027829000000001
#
# number of rings (size 3 to 8) (size 9 to 14) (size 15 to 20)
#    0.000    1.231    2.308    4.385    8.615    0.000 
#    0.000    0.769    0.000    1.846    0.000    0.000 
#    0.000    0.000    0.000    0.000    0.000    0.000 
#
# Total GULP energy -289915.318275 kJ/mol
# GULP energy per Si atom -5575.294582 kJ/mol
# Density = 1.998224 g / cm^3
# Si number density = 20.027829 Si / 1000 Ang^3
#
#
#
# Elastic Constant Matrix: (Units=GPa)
#
#
# Indices 1 2 3 4 5 6 
#
# 1 118.7479 28.4921 34.6157 0.0000 0.0000 0.0000
# 2 28.4921 59.1377 31.7126 0.0000 0.0000 0.0000
# 3 34.6157 31.7126 125.9563 0.0000 0.0000 0.0000
# 4 0.0000 0.0000 0.0000 17.8234 0.0000 0.0000
# 5 0.0000 0.0000 0.0000 0.0000 29.5552 0.0000
# 6 0.0000 0.0000 0.0000 0.0000 0.0000 6.9717
#
#
#
# Elastic Compliance Matrix: (Units=1/GPa)
#
#
# Indices 1 2 3 4 5 6 
#
# 1 0.009844 -0.003806 -0.001747 0.000000 0.000000 0.000000
# 2 -0.003806 0.021020 -0.004247 0.000000 0.000000 0.000000
# 3 -0.001747 -0.004247 0.009489 0.000000 0.000000 0.000000
# 4 0.000000 0.000000 0.000000 0.056106 0.000000 0.000000
# 5 0.000000 0.000000 0.000000 0.000000 0.033835 0.000000
# 6 0.000000 0.000000 0.000000 0.000000 0.000000 0.143437
#
#
# Mechanical properties :
#
#
# Convention : Reuss Voigt Hill
#
# Bulk Modulus (GPa) = 48.18342 54.83140 51.50741
# Shear Modulus (GPa) = 16.65296 24.80483 20.72889
#
# Velocity S-wave (km/s) = 2.88669 3.52308 3.22064
# Velocity P-wave (km/s) = 5.93473 6.63223 6.29315
#
# Compressibility (1/GPa) = 0.02075403
#
# Stress axis : x y z
#
# Youngs Moduli (GPa) = 101.58870 47.57272 105.39012
#
# Poissons Ratio (x) = 0.18105 0.18412
# Poissons Ratio (y) = 0.38662 0.44754
# Poissons Ratio (z) = 0.17748 0.20202
#
# Static dielectric constant tensor:
#      x y z
#    x 1.734110 0.000000 0.000000 
#    y 0.000000 1.721960 0.000000 
#    z 0.000000 0.000000 1.739640 
# 
# From -- ./inp_files/41314.got.cif
#   From: 2010.05.17/outbox.cif.g08.bks.cpg/sg68_21_cif.got.tgz:41314.got - 2010.06.03 18:57:09.
