data_PCOD9510339
_publ_section_title
;
Structure prediction by ZEFSAII (Michael W. Deem and Ramdas Pophale) SiO2 
 PCOD9510339
Probable space group: C C C A
;
_chemical_formula_sum "Si O2"
_cell_formula_units_Z 116
_cell_length_a 19.415682
_cell_length_b 26.088353
_cell_length_c 9.430836
_cell_angle_alpha 90.000000
_cell_angle_beta 90.000000
_cell_angle_gamma 90.000000
_cell_volume 4776.936906
_symmetry_space_group_name_H-M "C C C A"
_symmetry_group_IT_number 68
_space_group.IT_coordinate_system_code '2'
_symmetry_cell_setting 'orthorhombic'
loop_
_space_group_symop_operation_xyz
x,y,z
-x,1/2-y,z
x,1/2-y,1/2-z
-x,y,1/2-z
-x,-y,-z
x,1/2+y,-z
-x,1/2+y,1/2+z
x,-y,1/2+z
1/2+x,1/2+y,z
1/2-x,-y,z
1/2+x,-y,1/2-z
1/2-x,1/2+y,1/2-z
1/2-x,1/2-y,-z
1/2+x,y,-z
1/2-x,y,1/2+z
1/2+x,1/2-y,1/2+z
loop_
_atom_site_type_symbol
_atom_site_label
_atom_site_fract_x
_atom_site_fract_y
_atom_site_fract_z
Si Si1 0.396068 0.168765 0.133930
Si Si2 0.899793 0.014367 0.211059
Si Si3 0.421155 0.590986 0.606218
Si Si4 0.000000 0.750000 0.250000
Si Si5 0.219639 0.625521 0.972676
Si Si6 0.535770 0.622088 0.379531
Si Si7 0.252724 0.807874 0.259121
Si Si8 0.185539 0.032286 0.546789
O O1 0.415462 0.124722 0.250364
O O2 0.450834 0.214048 0.157338
O O3 0.321083 0.189565 0.177252
O O4 0.405946 0.148897 0.974008
O O5 0.940174 0.967481 0.139378
O O6 0.877312 0.989362 0.360033
O O7 0.935834 0.069024 0.189972
O O8 0.831658 0.022398 0.116205
O O9 0.344645 0.594186 0.536639
O O10 0.476476 0.611729 0.496005
O O11 0.199135 0.653252 0.827608
O O12 0.285141 0.589546 0.938666
O O13 0.238197 0.668859 0.087292
O O14 0.500000 0.651607 0.250000
O O15 0.277893 0.750000 0.250000
O O16 0.250000 0.000000 0.594674
#
# Coordination Sequence:
#
# PCOD9510339 Si02
#       8
#    16  16  16   4  16  16  16  16
#     4  11  24  46  78 101 137 190 253 298 361 445
#     4  12  25  43  68  98 141 195 228 292 352 430
#     4  11  23  44  67 101 141 190 242 287 357 443
#     4  12  20  48  86  96 128 196 254 308 354 438
#     4  11  25  42  69  99 143 188 239 304 356 434
#     4  12  26  43  66 106 147 183 234 302 367 429
#     4  11  24  45  72 108 140 186 244 307 376 426
#     4  12  25  42  67  98 139 185 245 280 344 434
#
# _framework density 24.283342000000001
#
# number of rings (size 3 to 8) (size 9 to 14) (size 15 to 20)
#    0.000    0.552    3.448    5.379    1.931    2.207 
#    0.000    0.345    0.000    0.000    0.000    0.000 
#    0.000    0.000    0.000    0.000    0.000    0.000 
#
# Total GULP energy -324649.389128 kJ/mol
# GULP energy per Si atom -5597.403261 kJ/mol
# Density = 2.422807 g / cm^3
# Si number density = 24.283342 Si / 1000 Ang^3
#
#
#
# Elastic Constant Matrix: (Units=GPa)
#
#
# Indices 1 2 3 4 5 6 
#
# 1 71.6863 6.1328 30.2568 0.0000 0.0000 0.0000
# 2 6.1328 107.3456 15.3297 0.0000 0.0000 0.0000
# 3 30.2568 15.3297 108.8977 0.0000 0.0000 0.0000
# 4 0.0000 0.0000 0.0000 17.4890 0.0000 0.0000
# 5 0.0000 0.0000 0.0000 0.0000 41.8160 0.0000
# 6 0.0000 0.0000 0.0000 0.0000 0.0000 19.8370
#
#
#
# Elastic Compliance Matrix: (Units=1/GPa)
#
#
# Indices 1 2 3 4 5 6 
#
# 1 0.015811 -0.000282 -0.004353 0.000000 0.000000 0.000000
# 2 -0.000282 0.009512 -0.001261 0.000000 0.000000 0.000000
# 3 -0.004353 -0.001261 0.010570 0.000000 0.000000 0.000000
# 4 0.000000 0.000000 0.000000 0.057179 0.000000 0.000000
# 5 0.000000 0.000000 0.000000 0.000000 0.023914 0.000000
# 6 0.000000 0.000000 0.000000 0.000000 0.000000 0.050411
#
#
# Mechanical properties :
#
#
# Convention : Reuss Voigt Hill
#
# Bulk Modulus (GPa) = 41.49131 43.48538 42.48834
# Shear Modulus (GPa) = 26.70621 31.57576 29.14099
#
# Velocity S-wave (km/s) = 3.31988 3.60989 3.46792
# Velocity P-wave (km/s) = 5.64083 5.94318 5.79398
#
# Compressibility (1/GPa) = 0.02410143
#
# Stress axis : x y z
#
# Youngs Moduli (GPa) = 63.24620 105.13219 94.60743
#
# Poissons Ratio (x) = 0.02961 0.41187
# Poissons Ratio (y) = 0.01781 0.11928
# Poissons Ratio (z) = 0.27534 0.13255
#
# Static dielectric constant tensor:
#      x y z
#    x 1.954360 0.000000 0.000000 
#    y 0.000000 1.947590 0.000000 
#    z 0.000000 0.000000 1.919470 
# 
# From -- ./inp_files/8372.got.cif
#   From: 2010.05.17/outbox.cif.g08.bks.cpg/sg68_5_cif.got.tgz:8372.got - 2010.06.03 18:57:09.
