data_PCOD9510675
_publ_section_title
;
Structure prediction by ZEFSAII (Michael W. Deem and Ramdas Pophale) SiO2 
 PCOD9510675
Probable space group: C C C A
;
_chemical_formula_sum "Si O2"
_cell_formula_units_Z 64
_cell_length_a 26.839533
_cell_length_b 12.381715
_cell_length_c 8.424854
_cell_angle_alpha 90.000000
_cell_angle_beta 90.000000
_cell_angle_gamma 90.000000
_cell_volume 2799.742834
_symmetry_space_group_name_H-M "C C C A"
_symmetry_group_IT_number 68
_space_group.IT_coordinate_system_code '2'
_symmetry_cell_setting 'orthorhombic'
loop_
_space_group_symop_operation_xyz
x,y,z
-x,1/2-y,z
x,1/2-y,1/2-z
-x,y,1/2-z
-x,-y,-z
x,1/2+y,-z
-x,1/2+y,1/2+z
x,-y,1/2+z
1/2+x,1/2+y,z
1/2-x,-y,z
1/2+x,-y,1/2-z
1/2-x,1/2+y,1/2-z
1/2-x,1/2-y,-z
1/2+x,y,-z
1/2-x,y,1/2+z
1/2+x,1/2-y,1/2+z
loop_
_atom_site_type_symbol
_atom_site_label
_atom_site_fract_x
_atom_site_fract_y
_atom_site_fract_z
Si Si1 0.134696 0.130101 0.555884
Si Si2 0.983670 0.377168 0.567579
Si Si3 0.698973 0.206357 0.926491
Si Si4 0.692902 0.973821 0.651452
O O1 0.076122 0.118890 0.563252
O O2 0.150712 0.251137 0.518380
O O3 0.164957 0.093446 0.712328
O O4 0.156956 0.070131 0.400676
O O5 0.000000 0.250000 0.508832
O O6 0.000000 0.378018 0.750000
O O7 0.000000 0.500000 0.500000
O O8 0.699445 0.250000 0.750000
O O9 0.750000 0.250000 0.000000
O O10 0.698667 0.083962 0.979349
O O11 0.750000 0.000000 0.695305
#
# Coordination Sequence:
#
# PCOD9510675 Si02
#       4
#    16  16  16  16
#     4  12  26  45  76 101 148 198 243 317 385 458
#     4  11  28  53  79 114 152 204 274 340 401 470
#     4  12  26  44  67 105 147 191 241 297 375 468
#     4  12  25  43  70 111 150 190 247 299 384 480
#
# _framework density 22.859242999999999
#
# number of rings (size 3 to 8) (size 9 to 14) (size 15 to 20)
#    0.000    0.250    2.500    6.000   10.500    0.500 
#    0.000    0.000    0.000    0.000    0.000    0.000 
#    0.000    0.000    0.000    0.000    0.000    0.000 
#
# Total GULP energy -178192.147893 kJ/mol
# GULP energy per Si atom -5568.504622 kJ/mol
# Density = 2.280721 g / cm^3
# Si number density = 22.859243 Si / 1000 Ang^3
#
#
#
# Elastic Constant Matrix: (Units=GPa)
#
#
# Indices 1 2 3 4 5 6 
#
# 1 231.0708 52.3814 58.5330 0.0000 0.0000 0.0000
# 2 52.3814 125.5170 48.6048 0.0000 0.0000 0.0000
# 3 58.5330 48.6048 123.5555 0.0000 0.0000 0.0000
# 4 0.0000 0.0000 0.0000 43.6422 0.0000 0.0000
# 5 0.0000 0.0000 0.0000 0.0000 11.8832 0.0000
# 6 0.0000 0.0000 0.0000 0.0000 0.0000 36.1622
#
#
#
# Elastic Compliance Matrix: (Units=1/GPa)
#
#
# Indices 1 2 3 4 5 6 
#
# 1 0.005122 -0.001413 -0.001871 0.000000 0.000000 0.000000
# 2 -0.001413 0.009789 -0.003181 0.000000 0.000000 0.000000
# 3 -0.001871 -0.003181 0.010231 0.000000 0.000000 0.000000
# 4 0.000000 0.000000 0.000000 0.022914 0.000000 0.000000
# 5 0.000000 0.000000 0.000000 0.000000 0.084152 0.000000
# 6 0.000000 0.000000 0.000000 0.000000 0.000000 0.027653
#
#
# Mechanical properties :
#
#
# Convention : Reuss Voigt Hill
#
# Bulk Modulus (GPa) = 81.88776 88.79794 85.34285
# Shear Modulus (GPa) = 28.27076 39.71246 33.99161
#
# Velocity S-wave (km/s) = 3.52054 4.17257 3.86034
# Velocity P-wave (km/s) = 7.24058 7.88312 7.56867
#
# Compressibility (1/GPa) = 0.01221184
#
# Stress axis : x y z
#
# Youngs Moduli (GPa) = 195.24215 102.15871 97.74106
#
# Poissons Ratio (x) = 0.14437 0.18283
# Poissons Ratio (y) = 0.27591 0.31094
# Poissons Ratio (z) = 0.36520 0.32499
#
# Static dielectric constant tensor:
#      x y z
#    x 1.943690 0.000000 0.000000 
#    y 0.000000 8.925560 0.000000 
#    z 0.000000 0.000000 1.842530 
# 
# From -- ./inp_files/9349.got.cif
#   From: 2010.05.17/outbox.cif.g08.bks.cpg/sg68_5_cif.got.tgz:9349.got - 2010.06.03 18:57:09.
