data_PCOD9510656
_publ_section_title
;
Structure prediction by ZEFSAII (Michael W. Deem and Ramdas Pophale) SiO2 
 PCOD9510656
Probable space group: C C C A
;
_chemical_formula_sum "Si O2"
_cell_formula_units_Z 56
_cell_length_a 11.825431
_cell_length_b 15.633897
_cell_length_c 12.773528
_cell_angle_alpha 90.000000
_cell_angle_beta 90.000000
_cell_angle_gamma 90.000000
_cell_volume 2361.538820
_symmetry_space_group_name_H-M "C C C A"
_symmetry_group_IT_number 68
_space_group.IT_coordinate_system_code '2'
_symmetry_cell_setting 'orthorhombic'
loop_
_space_group_symop_operation_xyz
x,y,z
-x,1/2-y,z
x,1/2-y,1/2-z
-x,y,1/2-z
-x,-y,-z
x,1/2+y,-z
-x,1/2+y,1/2+z
x,-y,1/2+z
1/2+x,1/2+y,z
1/2-x,-y,z
1/2+x,-y,1/2-z
1/2-x,1/2+y,1/2-z
1/2-x,1/2-y,-z
1/2+x,y,-z
1/2-x,y,1/2+z
1/2+x,1/2-y,1/2+z
loop_
_atom_site_type_symbol
_atom_site_label
_atom_site_fract_x
_atom_site_fract_y
_atom_site_fract_z
Si Si1 0.206677 0.250000 0.750000
Si Si2 0.416506 0.396106 0.372156
Si Si3 0.123492 0.000632 0.819492
Si Si4 0.899659 0.320732 0.400618
O O1 0.124960 0.178670 0.703791
O O2 0.290163 0.281519 0.657189
O O3 0.370883 0.476454 0.304064
O O4 0.547167 0.427012 0.376069
O O5 0.380385 0.360681 0.484177
O O6 0.250000 0.000000 0.862164
O O7 0.074023 0.907067 0.837464
O O8 0.000000 0.250000 0.402316
#
# Coordination Sequence:
#
# PCOD9510656 Si02
#       4
#     8  16  16  16
#     4  12  27  53  80 120 168 211 277 346 398 496
#     4  11  28  49  83 111 165 212 276 325 423 482
#     4  11  26  52  79 120 159 209 271 345 403 493
#     4  12  29  51  82 119 161 219 277 340 410 482
#
# _framework density 23.713350999999999
#
# number of rings (size 3 to 8) (size 9 to 14) (size 15 to 20)
#    0.000    0.571    2.857    2.143   16.000    3.429 
#    0.000    0.000    0.000    0.000    0.000    0.000 
#    0.000    0.000    0.000    0.000    0.000    0.000 
#
# Total GULP energy -156177.793442 kJ/mol
# GULP energy per Si atom -5577.778337 kJ/mol
# Density = 2.365938 g / cm^3
# Si number density = 23.713351 Si / 1000 Ang^3
#
#
#
# Elastic Constant Matrix: (Units=GPa)
#
#
# Indices 1 2 3 4 5 6 
#
# 1 72.4194 39.4296 38.8906 0.0000 0.0000 0.0000
# 2 39.4296 163.9511 73.2156 0.0000 0.0000 0.0000
# 3 38.8906 73.2156 122.1636 0.0000 0.0000 0.0000
# 4 0.0000 0.0000 0.0000 27.1899 0.0000 0.0000
# 5 0.0000 0.0000 0.0000 0.0000 13.6214 0.0000
# 6 0.0000 0.0000 0.0000 0.0000 0.0000 300.4842
#
#
#
# Elastic Compliance Matrix: (Units=1/GPa)
#
#
# Indices 1 2 3 4 5 6 
#
# 1 0.017279 -0.002320 -0.004110 0.000000 0.000000 0.000000
# 2 -0.002320 0.008640 -0.004440 0.000000 0.000000 0.000000
# 3 -0.004110 -0.004440 0.012155 0.000000 0.000000 0.000000
# 4 0.000000 0.000000 0.000000 0.036778 0.000000 0.000000
# 5 0.000000 0.000000 0.000000 0.000000 0.073414 0.000000
# 6 0.000000 0.000000 0.000000 0.000000 0.000000 0.003328
#
#
# Mechanical properties :
#
#
# Convention : Reuss Voigt Hill
#
# Bulk Modulus (GPa) = 61.22141 73.51174 67.36658
# Shear Modulus (GPa) = 27.96762 82.05900 55.01331
#
# Velocity S-wave (km/s) = 3.43797 5.88895 4.82179
# Velocity P-wave (km/s) = 6.45235 8.79244 7.71168
#
# Compressibility (1/GPa) = 0.01633415
#
# Stress axis : x y z
#
# Youngs Moduli (GPa) = 57.87404 115.74227 82.27083
#
# Poissons Ratio (x) = 0.26852 0.33816
# Poissons Ratio (y) = 0.13427 0.36524
# Poissons Ratio (z) = 0.23788 0.51384
#
# Static dielectric constant tensor:
#      x y z
#    x 2.004160 0.000000 0.000000 
#    y 0.000000 1.962520 0.000000 
#    z 0.000000 0.000000 1.957480 
# 
# From -- ./inp_files/20154.got.cif
#   From: 2010.05.17/outbox.cif.g08.bks.cpg/sg68_11_cif.got.tgz:20154.got - 2010.06.03 18:57:09.
