data_PCOD9510891
_publ_section_title
;
Structure prediction by ZEFSAII (Michael W. Deem and Ramdas Pophale) SiO2 
 PCOD9510891
Probable space group: C C C A
;
_chemical_formula_sum "Si O2"
_cell_formula_units_Z 56
_cell_length_a 9.323687
_cell_length_b 23.786488
_cell_length_c 10.833296
_cell_angle_alpha 90.000000
_cell_angle_beta 90.000000
_cell_angle_gamma 90.000000
_cell_volume 2402.584217
_symmetry_space_group_name_H-M "C C C A"
_symmetry_group_IT_number 68
_space_group.IT_coordinate_system_code '2'
_symmetry_cell_setting 'orthorhombic'
loop_
_space_group_symop_operation_xyz
x,y,z
-x,1/2-y,z
x,1/2-y,1/2-z
-x,y,1/2-z
-x,-y,-z
x,1/2+y,-z
-x,1/2+y,1/2+z
x,-y,1/2+z
1/2+x,1/2+y,z
1/2-x,-y,z
1/2+x,-y,1/2-z
1/2-x,1/2+y,1/2-z
1/2-x,1/2-y,-z
1/2+x,y,-z
1/2-x,y,1/2+z
1/2+x,1/2-y,1/2+z
loop_
_atom_site_type_symbol
_atom_site_label
_atom_site_fract_x
_atom_site_fract_y
_atom_site_fract_z
Si Si1 0.750000 0.000000 0.578045
Si Si2 0.735078 0.096491 0.386705
Si Si3 0.384325 0.290579 0.501456
Si Si4 0.000000 0.979278 0.250000
Si Si5 0.000000 0.846317 0.750000
O O1 0.716302 0.945056 0.496409
O O2 0.604428 0.011579 0.655309
O O3 0.656511 0.151941 0.435196
O O4 0.617405 0.059611 0.316154
O O5 0.869805 0.117234 0.306734
O O6 0.500000 0.250000 0.438777
O O7 0.250000 0.250000 0.500000
O O8 0.439009 0.308997 0.637112
#
# Coordination Sequence:
#
# PCOD9510891 Si02
#       5
#     8  16  16   8   8
#     4  12  28  54  78 118 156 206 266 326 400 484
#     4  12  28  49  81 114 158 205 267 321 399 475
#     4  12  27  49  77 113 157 209 264 323 387 468
#     4  12  28  49  78 116 150 210 249 330 394 462
#     4  12  27  53  77 116 157 208 256 330 396 458
#
# _framework density 23.308236999999998
#
# number of rings (size 3 to 8) (size 9 to 14) (size 15 to 20)
#    0.000    0.000    2.857    5.571    4.000    8.000 
#    0.000    0.000    0.000    0.000    0.000    0.000 
#    0.000    0.000    0.000    0.000    0.000    0.000 
#
# Total GULP energy -156854.177024 kJ/mol
# GULP energy per Si atom -5601.934894 kJ/mol
# Density = 2.325519 g / cm^3
# Si number density = 23.308237 Si / 1000 Ang^3
#
#
#
# Elastic Constant Matrix: (Units=GPa)
#
#
# Indices 1 2 3 4 5 6 
#
# 1 170.6158 46.2022 51.0656 0.0000 0.0000 0.0000
# 2 46.2022 152.9549 53.5817 0.0000 0.0000 0.0000
# 3 51.0656 53.5817 92.1080 0.0000 0.0000 0.0000
# 4 0.0000 0.0000 0.0000 -5.2214 0.0000 0.0000
# 5 0.0000 0.0000 0.0000 0.0000 56.7748 0.0000
# 6 0.0000 0.0000 0.0000 0.0000 0.0000 49.3803
#
#
#
# Elastic Compliance Matrix: (Units=1/GPa)
#
#
# Indices 1 2 3 4 5 6 
#
# 1 0.007139 -0.000967 -0.003396 0.000000 0.000000 0.000000
# 2 -0.000967 0.008342 -0.004317 0.000000 0.000000 0.000000
# 3 -0.003396 -0.004317 0.015251 0.000000 0.000000 0.000000
# 4 0.000000 0.000000 0.000000 -0.191520 0.000000 0.000000
# 5 0.000000 0.000000 0.000000 0.000000 0.017613 0.000000
# 6 0.000000 0.000000 0.000000 0.000000 0.000000 0.020251
#
#
# Mechanical properties :
#
#
# Convention : Reuss Voigt Hill
#
# Bulk Modulus (GPa) = 74.77560 79.70864 77.24212
# Shear Modulus (GPa) = -49.45236 37.84204 -5.80516
#
# Velocity S-wave (km/s) = -4.61115 4.03370 -1.57988
# Velocity P-wave (km/s) = 1.94949 7.48105 5.46657
#
# Compressibility (1/GPa) = 0.01337335
#
# Stress axis : x y z
#
# Youngs Moduli (GPa) = 140.07015 119.87277 65.57155
#
# Poissons Ratio (x) = 0.11592 0.22265
# Poissons Ratio (y) = 0.13545 0.28306
# Poissons Ratio (z) = 0.47561 0.51746
#
# Static dielectric constant tensor:
#      x y z
#    x 1.779850 0.000000 0.000000 
#    y 0.000000 1.926200 0.000000 
#    z 0.000000 0.000000 1.956880 
# 
# From -- ./inp_files/10625.got.cif
#   From: 2010.05.17/outbox.cif.g08.bks.cpg/sg68_6_cif.got.tgz:10625.got - 2010.06.03 18:57:09.
