data_PCOD9510967
_publ_section_title
;
Structure prediction by ZEFSAII (Michael W. Deem and Ramdas Pophale) SiO2 
 PCOD9510967
Probable space group: C C C A
;
_chemical_formula_sum "Si O2"
_cell_formula_units_Z 56
_cell_length_a 21.000000
_cell_length_b 12.000000
_cell_length_c 24.000000
_cell_angle_alpha 90.000000
_cell_angle_beta 90.000000
_cell_angle_gamma 90.000000
_cell_volume 6048.000000
_symmetry_space_group_name_H-M "C C C A"
_symmetry_group_IT_number 68
_space_group.IT_coordinate_system_code '2'
_symmetry_cell_setting 'orthorhombic'
loop_
_space_group_symop_operation_xyz
x,y,z
-x,1/2-y,z
x,1/2-y,1/2-z
-x,y,1/2-z
-x,-y,-z
x,1/2+y,-z
-x,1/2+y,1/2+z
x,-y,1/2+z
1/2+x,1/2+y,z
1/2-x,-y,z
1/2+x,-y,1/2-z
1/2-x,1/2+y,1/2-z
1/2-x,1/2-y,-z
1/2+x,y,-z
1/2-x,y,1/2+z
1/2+x,1/2-y,1/2+z
loop_
_atom_site_type_symbol
_atom_site_label
_atom_site_fract_x
_atom_site_fract_y
_atom_site_fract_z
Si Si1 0.684610 0.348450 0.904801
Si Si2 0.499705 0.384854 0.683019
Si Si3 0.179003 0.745354 0.374919
Si Si4 0.623241 0.531664 0.829530
Si Si5 0.179846 0.057429 0.531010
Si Si6 0.625871 0.894328 0.386141
Si Si7 0.316197 0.957086 0.709729
O O1 0.755665 0.305260 0.892899
O O2 0.670497 0.445959 0.860748
O O3 0.642062 0.236344 0.894719
O O4 0.675360 0.398557 0.967345
O O5 0.500000 0.250000 0.676863
O O6 0.500000 0.402503 0.750000
O O7 0.442523 0.464142 0.663238
O O8 0.559440 0.415498 0.644633
O O9 0.131296 0.846258 0.357979
O O10 0.167062 0.661687 0.427163
O O11 0.185491 0.662404 0.321494
O O12 0.637180 0.542535 0.763064
O O13 0.250000 0.000000 0.537527
O O14 0.134278 0.959959 0.555498
O O15 0.671647 0.953383 0.340180
O O16 0.250000 0.000000 0.734547
#
# Coordination Sequence:
#
# PCOD9510967 Si02
#       7
#    16  16  16  16  16  16  16
#     4  12  23  39  66 101 132 172 218 279 337 415
#     4  11  23  44  68  90 126 177 228 277 332 409
#     4  11  22  40  62  98 134 169 214 269 348 409
#     4  12  25  37  64  98 128 171 225 276 337 410
#     4  11  23  41  68  93 137 179 214 275 340 415
#     4  11  22  42  68  95 126 178 231 272 338 400
#     4  11  21  40  62  96 139 170 205 282 350 414
#
# _framework density 9.2592590000000001
#
# number of rings (size 3 to 8) (size 9 to 14) (size 15 to 20)
#    0.000    0.714    5.714    3.857    2.000    0.571 
#    0.000    3.571    3.143    0.000    0.000    0.000 
#    0.000    0.000    0.000    0.000    0.000    0.000 
#
# Total GULP energy -312123.064028 kJ/mol
# GULP energy per Si atom -5573.626143 kJ/mol
# Density = 0.923818 g / cm^3
# Si number density = 9.259259 Si / 1000 Ang^3
#
#
#
# Elastic Constant Matrix: (Units=GPa)
#
#
# Indices 1 2 3 4 5 6 
#
# 1 78.9279 26.6624 23.5275 0.0000 0.0000 0.0000
# 2 26.6624 139.9365 46.9603 0.0000 0.0000 0.0000
# 3 23.5275 46.9603 123.5945 0.0000 0.0000 0.0000
# 4 0.0000 0.0000 0.0000 40.8020 0.0000 0.0000
# 5 0.0000 0.0000 0.0000 0.0000 19.0149 0.0000
# 6 0.0000 0.0000 0.0000 0.0000 0.0000 33.6214
#
#
#
# Elastic Compliance Matrix: (Units=1/GPa)
#
#
# Indices 1 2 3 4 5 6 
#
# 1 0.013913 -0.002020 -0.001881 0.000000 0.000000 0.000000
# 2 -0.002020 0.008484 -0.002839 0.000000 0.000000 0.000000
# 3 -0.001881 -0.002839 0.009528 0.000000 0.000000 0.000000
# 4 0.000000 0.000000 0.000000 0.024509 0.000000 0.000000
# 5 0.000000 0.000000 0.000000 0.000000 0.052590 0.000000
# 6 0.000000 0.000000 0.000000 0.000000 0.000000 0.029743
#
#
# Mechanical properties :
#
#
# Convention : Reuss Voigt Hill
#
# Bulk Modulus (GPa) = 54.21557 59.63991 56.92774
# Shear Modulus (GPa) = 31.56695 35.04157 33.30426
#
# Velocity S-wave (km/s) = 4.13318 4.35471 4.24539
# Velocity P-wave (km/s) = 7.21925 7.58684 7.40533
#
# Compressibility (1/GPa) = 0.01844489
#
# Stress axis : x y z
#
# Youngs Moduli (GPa) = 71.87653 117.87469 104.95683
#
# Poissons Ratio (x) = 0.23806 0.19743
# Poissons Ratio (y) = 0.14516 0.29797
# Poissons Ratio (z) = 0.13521 0.33464
#
# Static dielectric constant tensor:
#      x y z
#    x 1.751250 0.000000 0.000000 
#    y 0.000000 1.640610 0.000000 
#    z 0.000000 0.000000 1.627530 
# 
# From -- ./inp_files/46665.got.cif
#   From: 2010.05.17/outbox.ucp.g08.bks.cvg/sg68_24_cif.got.tgz:46665.got - 2010.06.11 16:49:25.
