data_PCOD9510037
_publ_section_title
;
Structure prediction by ZEFSAII (Michael W. Deem and Ramdas Pophale) SiO2 
 PCOD9510037
Probable space group: C C C A
;
_chemical_formula_sum "Si O2"
_cell_formula_units_Z 112
_cell_length_a 13.967221
_cell_length_b 17.845927
_cell_length_c 24.870391
_cell_angle_alpha 90.000000
_cell_angle_beta 90.000000
_cell_angle_gamma 90.000000
_cell_volume 6199.144078
_symmetry_space_group_name_H-M "C C C A"
_symmetry_group_IT_number 68
_space_group.IT_coordinate_system_code '2'
_symmetry_cell_setting 'orthorhombic'
loop_
_space_group_symop_operation_xyz
x,y,z
-x,1/2-y,z
x,1/2-y,1/2-z
-x,y,1/2-z
-x,-y,-z
x,1/2+y,-z
-x,1/2+y,1/2+z
x,-y,1/2+z
1/2+x,1/2+y,z
1/2-x,-y,z
1/2+x,-y,1/2-z
1/2-x,1/2+y,1/2-z
1/2-x,1/2-y,-z
1/2+x,y,-z
1/2-x,y,1/2+z
1/2+x,1/2-y,1/2+z
loop_
_atom_site_type_symbol
_atom_site_label
_atom_site_fract_x
_atom_site_fract_y
_atom_site_fract_z
Si Si1 0.885598 0.660598 0.745739
Si Si2 0.494219 0.614864 0.528954
Si Si3 0.512114 0.955108 0.083178
Si Si4 0.298969 0.080309 0.848906
Si Si5 0.302415 0.175391 0.437863
Si Si6 0.786707 0.348533 0.549678
Si Si7 0.180889 0.065948 0.145096
O O1 0.872952 0.750000 0.750000
O O2 0.830336 0.620643 0.794372
O O3 0.844841 0.626433 0.690518
O O4 0.000000 0.645266 0.750000
O O5 0.491301 0.604430 0.464471
O O6 0.468587 0.534129 0.554247
O O7 0.415307 0.671715 0.550696
O O8 0.600777 0.635557 0.546393
O O9 0.604568 0.931363 0.116477
O O10 0.419838 0.962898 0.121194
O O11 0.229074 0.131665 0.884873
O O12 0.250000 0.000000 0.839286
O O13 0.255481 0.136534 0.490363
O O14 0.269090 0.261249 0.437178
O O15 0.736851 0.397938 0.594877
O O16 0.250000 0.000000 0.166347
#
# Coordination Sequence:
#
# PCOD9510037 Si02
#       7
#    16  16  16  16  16  16  16
#     4  11  25  44  66  91 121 157 203 263 319 370
#     4  11  21  38  58  90 131 167 201 253 290 373
#     4  11  22  35  63  94 122 157 211 247 300 355
#     4  12  23  42  65  90 121 162 207 259 304 371
#     4  11  23  37  58  90 127 167 205 248 308 365
#     4  11  23  37  58  90 127 167 205 248 308 365
#     4  12  23  42  65  90 121 162 207 259 304 371
#
# _framework density 18.06701
#
# number of rings (size 3 to 8) (size 9 to 14) (size 15 to 20)
#    0.000    0.714    7.143    1.714    0.000    0.571 
#    0.000    0.000    0.000    0.000    0.000    4.000 
#    0.000    0.000    0.000    0.000    0.000    0.000 
#
# Total GULP energy -312969.294418 kJ/mol
# GULP energy per Si atom -5588.737400 kJ/mol
# Density = 1.802589 g / cm^3
# Si number density = 18.067010 Si / 1000 Ang^3
#
#
#
# Elastic Constant Matrix: (Units=GPa)
#
#
# Indices 1 2 3 4 5 6 
#
# 1 84.0290 -5.9557 9.3918 0.0000 0.0000 0.0000
# 2 -5.9557 48.3185 14.6432 0.0000 0.0000 0.0000
# 3 9.3918 14.6432 71.5409 0.0000 0.0000 0.0000
# 4 0.0000 0.0000 0.0000 25.1694 0.0000 0.0000
# 5 0.0000 0.0000 0.0000 0.0000 29.3573 0.0000
# 6 0.0000 0.0000 0.0000 0.0000 0.0000 25.3165
#
#
#
# Elastic Compliance Matrix: (Units=1/GPa)
#
#
# Indices 1 2 3 4 5 6 
#
# 1 0.012281 0.002135 -0.002049 0.000000 0.000000 0.000000
# 2 0.002135 0.022436 -0.004872 0.000000 0.000000 0.000000
# 3 -0.002049 -0.004872 0.015244 0.000000 0.000000 0.000000
# 4 0.000000 0.000000 0.000000 0.039731 0.000000 0.000000
# 5 0.000000 0.000000 0.000000 0.000000 0.034063 0.000000
# 6 0.000000 0.000000 0.000000 0.000000 0.000000 0.039500
#
#
# Mechanical properties :
#
#
# Convention : Reuss Voigt Hill
#
# Bulk Modulus (GPa) = 24.76025 26.67189 25.71607
# Shear Modulus (GPa) = 26.83973 28.35593 27.59783
#
# Velocity S-wave (km/s) = 3.85849 3.96597 3.91260
# Velocity P-wave (km/s) = 5.79525 5.98053 5.88862
#
# Compressibility (1/GPa) = 0.04038732
#
# Stress axis : x y z
#
# Youngs Moduli (GPa) = 81.42666 44.57175 65.59817
#
# Poissons Ratio (x) = -0.09515 0.13442
# Poissons Ratio (y) = -0.17383 0.31962
# Poissons Ratio (z) = 0.16686 0.21717
#
# Static dielectric constant tensor:
#      x y z
#    x 1.601960 0.000000 0.000000 
#    y 0.000000 1.619760 0.000000 
#    z 0.000000 0.000000 1.592160 
# 
# From -- ./inp_files/22611.got.cif
#   From: 2010.05.17/outbox.cif.g08.bks.cpg/sg68_12_cif.got.tgz:22611.got - 2010.06.03 18:57:09.
