data_PCOD9510833
_publ_section_title
;
Structure prediction by ZEFSAII (Michael W. Deem and Ramdas Pophale) SiO2 
 PCOD9510833
Probable space group: C C C A
;
_chemical_formula_sum "Si O2"
_cell_formula_units_Z 32
_cell_length_a 8.280405
_cell_length_b 16.581318
_cell_length_c 8.353780
_cell_angle_alpha 90.000000
_cell_angle_beta 90.000000
_cell_angle_gamma 90.000000
_cell_volume 1146.974232
_symmetry_space_group_name_H-M "C C C A"
_symmetry_group_IT_number 68
_space_group.IT_coordinate_system_code '2'
_symmetry_cell_setting 'orthorhombic'
loop_
_space_group_symop_operation_xyz
x,y,z
-x,1/2-y,z
x,1/2-y,1/2-z
-x,y,1/2-z
-x,-y,-z
x,1/2+y,-z
-x,1/2+y,1/2+z
x,-y,1/2+z
1/2+x,1/2+y,z
1/2-x,-y,z
1/2+x,-y,1/2-z
1/2-x,1/2+y,1/2-z
1/2-x,1/2-y,-z
1/2+x,y,-z
1/2-x,y,1/2+z
1/2+x,1/2-y,1/2+z
loop_
_atom_site_type_symbol
_atom_site_label
_atom_site_fract_x
_atom_site_fract_y
_atom_site_fract_z
Si Si1 0.375884 0.188453 0.627710
Si Si2 0.611193 0.056544 0.109514
O O1 0.500000 0.250000 0.539631
O O2 0.284346 0.250000 0.750000
O O3 0.500000 0.144206 0.750000
O O4 0.310584 0.125127 0.503746
O O5 0.500000 0.091170 0.250000
O O6 0.750000 0.000000 0.180300
O O7 0.500000 0.000000 0.000000
#
# Coordination Sequence:
#
# PCOD9510833 Si02
#       2
#    16  16
#     4   6  17  42  76 105 152 186 261 308 373 453
#     4  12  25  44  76 114 158 203 253 320 389 464
#
# _framework density 27.899495000000002
#
# number of rings (size 3 to 8) (size 9 to 14) (size 15 to 20)
#    3.000    0.000    0.000    3.000    0.000    1.000 
#    0.000    5.000    0.000    0.000    0.000    3.500 
#    0.000    0.000    0.000    0.000    0.000    0.000 
#
# Total GULP energy -89230.811130 kJ/mol
# GULP energy per Si atom -5576.925696 kJ/mol
# Density = 2.783599 g / cm^3
# Si number density = 27.899495 Si / 1000 Ang^3
#
#
#
# Elastic Constant Matrix: (Units=GPa)
#
#
# Indices 1 2 3 4 5 6 
#
# 1 63.8285 42.3862 45.8367 0.0000 0.0000 0.0000
# 2 42.3862 135.0144 86.7006 0.0000 0.0000 0.0000
# 3 45.8367 86.7006 135.8812 0.0000 0.0000 0.0000
# 4 0.0000 0.0000 0.0000 34.3230 0.0000 0.0000
# 5 0.0000 0.0000 0.0000 0.0000 48.8026 0.0000
# 6 0.0000 0.0000 0.0000 0.0000 0.0000 36.6997
#
#
#
# Elastic Compliance Matrix: (Units=1/GPa)
#
#
# Indices 1 2 3 4 5 6 
#
# 1 0.021645 -0.003569 -0.005024 0.000000 0.000000 0.000000
# 2 -0.003569 0.013136 -0.007178 0.000000 0.000000 0.000000
# 3 -0.005024 -0.007178 0.013634 0.000000 0.000000 0.000000
# 4 0.000000 0.000000 0.000000 0.029135 0.000000 0.000000
# 5 0.000000 0.000000 0.000000 0.000000 0.020491 0.000000
# 6 0.000000 0.000000 0.000000 0.000000 0.000000 0.027248
#
#
# Mechanical properties :
#
#
# Convention : Reuss Voigt Hill
#
# Bulk Modulus (GPa) = 59.26497 76.06344 67.66421
# Shear Modulus (GPa) = 30.77751 34.61843 32.69797
#
# Velocity S-wave (km/s) = 3.32498 3.52636 3.42715
# Velocity P-wave (km/s) = 6.00243 6.62592 6.32186
#
# Compressibility (1/GPa) = 0.01687337
#
# Stress axis : x y z
#
# Youngs Moduli (GPa) = 46.20004 76.12450 73.34459
#
# Poissons Ratio (x) = 0.27167 0.36852
# Poissons Ratio (y) = 0.16487 0.52647
# Poissons Ratio (z) = 0.23213 0.54642
#
# Static dielectric constant tensor:
#      x y z
#    x 2.133780 0.000000 0.000000 
#    y 0.000000 2.164540 0.000000 
#    z 0.000000 0.000000 2.110770 
# 
# From -- ./inp_files/3465.got.cif
#   From: 2010.05.17/outbox.cif.g08.bks.cpg/sg68_2_cif.got.tgz:3465.got - 2010.06.03 18:57:09.
