data_PCOD9510096
_publ_section_title
;
Structure prediction by ZEFSAII (Michael W. Deem and Ramdas Pophale) SiO2 
 PCOD9510096
Probable space group: C C C A
;
_chemical_formula_sum "Si O2"
_cell_formula_units_Z 64
_cell_length_a 9.661502
_cell_length_b 18.634690
_cell_length_c 18.097429
_cell_angle_alpha 90.000000
_cell_angle_beta 90.000000
_cell_angle_gamma 90.000000
_cell_volume 3258.244734
_symmetry_space_group_name_H-M "C C C A"
_symmetry_group_IT_number 68
_space_group.IT_coordinate_system_code '2'
_symmetry_cell_setting 'orthorhombic'
loop_
_space_group_symop_operation_xyz
x,y,z
-x,1/2-y,z
x,1/2-y,1/2-z
-x,y,1/2-z
-x,-y,-z
x,1/2+y,-z
-x,1/2+y,1/2+z
x,-y,1/2+z
1/2+x,1/2+y,z
1/2-x,-y,z
1/2+x,-y,1/2-z
1/2-x,1/2+y,1/2-z
1/2-x,1/2-y,-z
1/2+x,y,-z
1/2-x,y,1/2+z
1/2+x,1/2-y,1/2+z
loop_
_atom_site_type_symbol
_atom_site_label
_atom_site_fract_x
_atom_site_fract_y
_atom_site_fract_z
Si Si1 0.978504 0.830375 0.957364
Si Si2 0.267273 0.584968 0.560634
Si Si3 0.659069 0.570414 0.769074
Si Si4 0.868938 0.325690 0.208149
O O1 0.909165 0.819288 0.876921
O O2 0.000000 0.750000 0.988645
O O3 0.122584 0.872667 0.947255
O O4 0.877840 0.877680 0.007508
O O5 0.250000 0.500000 0.543882
O O6 0.319275 0.590121 0.645085
O O7 0.500000 0.559276 0.750000
O O8 0.750000 0.500000 0.755441
O O9 0.728965 0.631356 0.719509
O O10 0.854403 0.250000 0.250000
O O11 0.000000 0.362610 0.250000
#
# Coordination Sequence:
#
# PCOD9510096 Si02
#       4
#    16  16  16  16
#     4  12  24  44  70  96 138 180 224 274 343 402
#     4  11  26  44  65 102 137 176 226 278 336 410
#     4  11  25  43  68  98 132 174 229 281 335 402
#     4  11  21  43  69  94 129 182 220 275 332 400
#
# _framework density 19.642478000000001
#
# number of rings (size 3 to 8) (size 9 to 14) (size 15 to 20)
#    0.000    0.750    5.000    2.250    7.000    1.500 
#    0.000    0.000    0.000    0.000    0.000    0.000 
#    0.000    0.000    0.000    0.000    0.000    0.000 
#
# Total GULP energy -178949.404083 kJ/mol
# GULP energy per Si atom -5592.168878 kJ/mol
# Density = 1.959777 g / cm^3
# Si number density = 19.642478 Si / 1000 Ang^3
#
#
#
# Elastic Constant Matrix: (Units=GPa)
#
#
# Indices 1 2 3 4 5 6 
#
# 1 198.3517 85.6468 62.9980 0.0000 0.0000 0.0000
# 2 85.6468 127.3539 58.0084 0.0000 0.0000 0.0000
# 3 62.9980 58.0084 62.2690 0.0000 0.0000 0.0000
# 4 0.0000 0.0000 0.0000 21.7579 0.0000 0.0000
# 5 0.0000 0.0000 0.0000 0.0000 19.9655 0.0000
# 6 0.0000 0.0000 0.0000 0.0000 0.0000 32.6160
#
#
#
# Elastic Compliance Matrix: (Units=1/GPa)
#
#
# Indices 1 2 3 4 5 6 
#
# 1 0.008019 -0.002949 -0.005366 0.000000 0.000000 0.000000
# 2 -0.002949 0.014724 -0.010733 0.000000 0.000000 0.000000
# 3 -0.005366 -0.010733 0.031487 0.000000 0.000000 0.000000
# 4 0.000000 0.000000 0.000000 0.045960 0.000000 0.000000
# 5 0.000000 0.000000 0.000000 0.000000 0.050086 0.000000
# 6 0.000000 0.000000 0.000000 0.000000 0.000000 0.030660
#
#
# Mechanical properties :
#
#
# Convention : Reuss Voigt Hill
#
# Bulk Modulus (GPa) = 61.98049 89.03122 75.50585
# Shear Modulus (GPa) = 22.28052 26.95597 24.61825
#
# Velocity S-wave (km/s) = 3.37160 3.70852 3.54406
# Velocity P-wave (km/s) = 6.83957 7.98509 7.43443
#
# Compressibility (1/GPa) = 0.01613411
#
# Stress axis : x y z
#
# Youngs Moduli (GPa) = 124.70274 67.91542 31.75899
#
# Poissons Ratio (x) = 0.20027 0.17042
# Poissons Ratio (y) = 0.36772 0.34088
# Poissons Ratio (z) = 0.66915 0.72897
#
# Static dielectric constant tensor:
#      x y z
#    x 1.674990 0.000000 0.000000 
#    y 0.000000 1.723440 0.000000 
#    z 0.000000 0.000000 1.666680 
# 
# From -- ./inp_files/27841.got.cif
#   From: 2010.05.17/outbox.cif.g08.bks.cpg/sg68_14_cif.got.tgz:27841.got - 2010.06.03 18:57:09.
