data_PCOD9510372
_publ_section_title
;
Structure prediction by ZEFSAII (Michael W. Deem and Ramdas Pophale) SiO2 
 PCOD9510372
Probable space group: C C C A
;
_chemical_formula_sum "Si O2"
_cell_formula_units_Z 64
_cell_length_a 16.879246
_cell_length_b 18.661789
_cell_length_c 7.641366
_cell_angle_alpha 90.000000
_cell_angle_beta 90.000000
_cell_angle_gamma 90.000000
_cell_volume 2407.006811
_symmetry_space_group_name_H-M "C C C A"
_symmetry_group_IT_number 68
_space_group.IT_coordinate_system_code '2'
_symmetry_cell_setting 'orthorhombic'
loop_
_space_group_symop_operation_xyz
x,y,z
-x,1/2-y,z
x,1/2-y,1/2-z
-x,y,1/2-z
-x,-y,-z
x,1/2+y,-z
-x,1/2+y,1/2+z
x,-y,1/2+z
1/2+x,1/2+y,z
1/2-x,-y,z
1/2+x,-y,1/2-z
1/2-x,1/2+y,1/2-z
1/2-x,1/2-y,-z
1/2+x,y,-z
1/2-x,y,1/2+z
1/2+x,1/2-y,1/2+z
loop_
_atom_site_type_symbol
_atom_site_label
_atom_site_fract_x
_atom_site_fract_y
_atom_site_fract_z
Si Si1 0.302710 0.595425 0.486689
Si Si2 0.377419 0.269113 0.048504
Si Si3 0.972595 0.361813 0.446073
Si Si4 0.638972 0.542097 0.640435
O O1 0.311431 0.680001 0.463511
O O2 0.340891 0.575089 0.672569
O O3 0.350787 0.543453 0.355913
O O4 0.212494 0.570666 0.475935
O O5 0.360694 0.250000 0.250000
O O6 0.455181 0.320615 0.040352
O O7 0.402353 0.197552 0.947529
O O8 0.940945 0.428866 0.555692
O O9 0.000000 0.376905 0.250000
#
# Coordination Sequence:
#
# PCOD9510372 Si02
#       4
#    16  16  16  16
#     4  11  25  45  73  97 139 178 230 283 337 405
#     4  11  23  46  67  97 138 180 218 282 339 401
#     4  11  25  44  69 100 139 176 225 280 336 408
#     4  11  25  46  70 102 134 180 228 283 339 402
#
# _framework density 26.589039
#
# number of rings (size 3 to 8) (size 9 to 14) (size 15 to 20)
#    0.000    1.000    2.500    6.000    7.000    2.000 
#    0.000    0.000    0.000    0.000    0.000    0.000 
#    0.000    0.000    0.000    0.000    0.000    0.000 
#
# Total GULP energy -179496.667643 kJ/mol
# GULP energy per Si atom -5609.270864 kJ/mol
# Density = 2.652852 g / cm^3
# Si number density = 26.589039 Si / 1000 Ang^3
#
#
#
# Elastic Constant Matrix: (Units=GPa)
#
#
# Indices 1 2 3 4 5 6 
#
# 1 52.7781 35.7259 16.5698 0.0000 0.0000 0.0000
# 2 35.7259 100.8401 6.3347 0.0000 0.0000 0.0000
# 3 16.5698 6.3347 97.7540 0.0000 0.0000 0.0000
# 4 0.0000 0.0000 0.0000 34.4610 0.0000 0.0000
# 5 0.0000 0.0000 0.0000 0.0000 33.1535 0.0000
# 6 0.0000 0.0000 0.0000 0.0000 0.0000 61.8557
#
#
#
# Elastic Compliance Matrix: (Units=1/GPa)
#
#
# Indices 1 2 3 4 5 6 
#
# 1 0.026307 -0.009077 -0.003871 0.000000 0.000000 0.000000
# 2 -0.009077 0.013089 0.000690 0.000000 0.000000 0.000000
# 3 -0.003871 0.000690 0.010841 0.000000 0.000000 0.000000
# 4 0.000000 0.000000 0.000000 0.029018 0.000000 0.000000
# 5 0.000000 0.000000 0.000000 0.000000 0.030163 0.000000
# 6 0.000000 0.000000 0.000000 0.000000 0.000000 0.016167
#
#
# Mechanical properties :
#
#
# Convention : Reuss Voigt Hill
#
# Bulk Modulus (GPa) = 38.87696 40.95922 39.91809
# Shear Modulus (GPa) = 31.51121 38.74348 35.12735
#
# Velocity S-wave (km/s) = 3.44629 3.82137 3.63867
# Velocity P-wave (km/s) = 5.52169 5.90834 5.71828
#
# Compressibility (1/GPa) = 0.02572218
#
# Stress axis : x y z
#
# Youngs Moduli (GPa) = 38.01302 76.39943 92.24098
#
# Poissons Ratio (x) = 0.69347 0.35706
# Poissons Ratio (y) = 0.34504 -0.06368
# Poissons Ratio (z) = 0.14715 -0.05274
#
# Static dielectric constant tensor:
#      x y z
#    x 2.138570 0.000000 0.000000 
#    y 0.000000 2.109850 0.000000 
#    z 0.000000 0.000000 2.042390 
# 
# From -- ./inp_files/5830.got.cif
#   From: 2010.05.17/outbox.cif.g08.bks.cpg/sg68_3_cif.got.tgz:5830.got - 2010.06.03 18:57:09.
