data_PCOD9510652
_publ_section_title
;
Structure prediction by ZEFSAII (Michael W. Deem and Ramdas Pophale) SiO2 
 PCOD9510652
Probable space group: C C C A
;
_chemical_formula_sum "Si O2"
_cell_formula_units_Z 48
_cell_length_a 5.053319
_cell_length_b 17.674348
_cell_length_c 20.604333
_cell_angle_alpha 90.000000
_cell_angle_beta 90.000000
_cell_angle_gamma 90.000000
_cell_volume 1840.257840
_symmetry_space_group_name_H-M "C C C A"
_symmetry_group_IT_number 68
_space_group.IT_coordinate_system_code '2'
_symmetry_cell_setting 'orthorhombic'
loop_
_space_group_symop_operation_xyz
x,y,z
-x,1/2-y,z
x,1/2-y,1/2-z
-x,y,1/2-z
-x,-y,-z
x,1/2+y,-z
-x,1/2+y,1/2+z
x,-y,1/2+z
1/2+x,1/2+y,z
1/2-x,-y,z
1/2+x,-y,1/2-z
1/2-x,1/2+y,1/2-z
1/2-x,1/2-y,-z
1/2+x,y,-z
1/2-x,y,1/2+z
1/2+x,1/2-y,1/2+z
loop_
_atom_site_type_symbol
_atom_site_label
_atom_site_fract_x
_atom_site_fract_y
_atom_site_fract_z
Si Si1 0.750000 0.500000 0.649992
Si Si2 0.000000 0.750000 0.916807
Si Si3 0.000000 0.250000 0.835752
Si Si4 0.500000 0.617883 0.750000
Si Si5 0.084049 0.416447 0.040498
O O1 0.637469 0.563286 0.698717
O O2 0.964189 0.543927 0.604799
O O3 0.255873 0.721117 0.877259
O O4 0.911387 0.674593 0.952877
O O5 0.137262 0.181197 0.795694
O O6 0.881611 0.433646 0.981692
#
# Coordination Sequence:
#
# PCOD9510652 Si02
#       5
#     8   8   8   8  16
#     4  12  28  48  78 118 158 202 256 318 400 450
#     4  12  24  50  79 112 151 204 262 314 372 466
#     4  11  26  51  77 112 155 201 258 311 382 455
#     4  11  28  48  78 115 154 206 250 323 378 472
#     4  12  27  50  78 112 156 205 258 317 380 458
#
# _framework density 26.083302
#
# number of rings (size 3 to 8) (size 9 to 14) (size 15 to 20)
#    0.000    0.333    3.333    4.000    4.667    2.667 
#    0.000    0.000    0.000    0.000    0.000    0.000 
#    0.000    0.000    0.000    0.000    0.000    0.000 
#
# Total GULP energy -134250.309055 kJ/mol
# GULP energy per Si atom -5593.762877 kJ/mol
# Density = 2.602394 g / cm^3
# Si number density = 26.083302 Si / 1000 Ang^3
#
#
#
# Elastic Constant Matrix: (Units=GPa)
#
#
# Indices 1 2 3 4 5 6 
#
# 1 106.3105 45.6163 54.6989 0.0000 0.0000 0.0000
# 2 45.6163 207.4068 75.3310 0.0000 0.0000 0.0000
# 3 54.6989 75.3310 133.1630 0.0000 0.0000 0.0000
# 4 0.0000 0.0000 0.0000 1.2784 0.0000 0.0000
# 5 0.0000 0.0000 0.0000 0.0000 48.6269 0.0000
# 6 0.0000 0.0000 0.0000 0.0000 0.0000 48.4174
#
#
#
# Elastic Compliance Matrix: (Units=1/GPa)
#
#
# Indices 1 2 3 4 5 6 
#
# 1 0.012116 -0.001079 -0.004367 0.000000 0.000000 0.000000
# 2 -0.001079 0.006164 -0.003044 0.000000 0.000000 0.000000
# 3 -0.004367 -0.003044 0.011025 0.000000 0.000000 0.000000
# 4 0.000000 0.000000 0.000000 0.782229 0.000000 0.000000
# 5 0.000000 0.000000 0.000000 0.000000 0.020565 0.000000
# 6 0.000000 0.000000 0.000000 0.000000 0.000000 0.020654
#
#
# Mechanical properties :
#
#
# Convention : Reuss Voigt Hill
#
# Bulk Modulus (GPa) = 81.12438 88.68587 84.90512
# Shear Modulus (GPa) = 5.72187 37.74680 21.73433
#
# Velocity S-wave (km/s) = 1.48272 3.80829 2.88977
# Velocity P-wave (km/s) = 5.83959 7.30837 6.61487
#
# Compressibility (1/GPa) = 0.01232675
#
# Stress axis : x y z
#
# Youngs Moduli (GPa) = 82.53558 162.22380 90.70070
#
# Poissons Ratio (x) = 0.17501 0.39605
# Poissons Ratio (y) = 0.08904 0.27610
# Poissons Ratio (z) = 0.36040 0.49382
#
# Static dielectric constant tensor:
#      x y z
#    x 1.922770 0.000000 0.000000 
#    y 0.000000 1.987840 0.000000 
#    z 0.000000 0.000000 2.169680 
# 
# From -- ./inp_files/41925.got.cif
#   From: 2010.05.17/outbox.cif.g08.bks.cpg/sg68_21_cif.got.tgz:41925.got - 2010.06.03 18:57:09.
