data_PCOD9510002
_publ_section_title
;
Structure prediction by ZEFSAII (Michael W. Deem and Ramdas Pophale) SiO2 
 PCOD9510002
Probable space group: C C C A
;
_chemical_formula_sum "Si O2"
_cell_formula_units_Z 96
_cell_length_a 21.599196
_cell_length_b 11.519524
_cell_length_c 15.399949
_cell_angle_alpha 90.000000
_cell_angle_beta 90.000000
_cell_angle_gamma 90.000000
_cell_volume 3831.699144
_symmetry_space_group_name_H-M "C C C A"
_symmetry_group_IT_number 68
_space_group.IT_coordinate_system_code '2'
_symmetry_cell_setting 'orthorhombic'
loop_
_space_group_symop_operation_xyz
x,y,z
-x,1/2-y,z
x,1/2-y,1/2-z
-x,y,1/2-z
-x,-y,-z
x,1/2+y,-z
-x,1/2+y,1/2+z
x,-y,1/2+z
1/2+x,1/2+y,z
1/2-x,-y,z
1/2+x,-y,1/2-z
1/2-x,1/2+y,1/2-z
1/2-x,1/2-y,-z
1/2+x,y,-z
1/2-x,y,1/2+z
1/2+x,1/2-y,1/2+z
loop_
_atom_site_type_symbol
_atom_site_label
_atom_site_fract_x
_atom_site_fract_y
_atom_site_fract_z
Si Si1 0.250000 0.000000 0.191261
Si Si2 0.857551 0.888717 0.417863
Si Si3 0.553268 0.905887 0.444840
Si Si4 0.052187 0.936640 0.817661
Si Si5 0.064404 0.187003 0.859584
Si Si6 0.756673 0.750000 0.750000
Si Si7 0.351126 0.784847 0.391033
O O1 0.192746 0.972981 0.125064
O O2 0.238076 0.886746 0.252887
O O3 0.878387 0.776650 0.360762
O O4 0.840402 0.840931 0.514174
O O5 0.918464 0.967617 0.429180
O O6 0.484237 0.907556 0.407275
O O7 0.558665 0.863328 0.542973
O O8 0.597834 0.815850 0.396664
O O9 0.117299 0.874397 0.823985
O O10 0.000000 0.899056 0.750000
O O11 0.067261 0.071526 0.802631
O O12 0.000000 0.250000 0.842055
O O13 0.790804 0.739925 0.656352
#
# Coordination Sequence:
#
# PCOD9510002 Si02
#       7
#     8  16  16  16  16   8  16
#     4  12  30  54  76 106 146 198 258 326 384 444
#     4  11  24  47  75 100 138 192 255 305 359 447
#     4  11  20  43  66  99 138 182 235 288 350 446
#     4  12  24  37  65 106 152 188 226 287 374 457
#     4  11  22  39  68 101 138 183 227 292 360 436
#     4  12  28  52  75 106 147 188 246 324 386 442
#     4  11  24  43  75 105 141 188 247 298 371 451
#
# _framework density 25.054158000000001
#
# number of rings (size 3 to 8) (size 9 to 14) (size 15 to 20)
#    0.000    0.667    5.000    4.000    0.000    3.667 
#    0.000    0.000    0.000    0.000    0.000    0.000 
#    0.000    0.000    0.000    0.000    0.000    0.000 
#
# Total GULP energy -268221.878430 kJ/mol
# GULP energy per Si atom -5587.955801 kJ/mol
# Density = 2.499713 g / cm^3
# Si number density = 25.054158 Si / 1000 Ang^3
#
#
#
# Elastic Constant Matrix: (Units=GPa)
#
#
# Indices 1 2 3 4 5 6 
#
# 1 31.7959 0.7607 1.4331 0.0000 0.0000 0.0000
# 2 0.7607 127.6026 17.1869 0.0000 0.0000 0.0000
# 3 1.4331 17.1869 71.8061 0.0000 0.0000 0.0000
# 4 0.0000 0.0000 0.0000 24.4436 0.0000 0.0000
# 5 0.0000 0.0000 0.0000 0.0000 16.5610 0.0000
# 6 0.0000 0.0000 0.0000 0.0000 0.0000 41.5169
#
#
#
# Elastic Compliance Matrix: (Units=1/GPa)
#
#
# Indices 1 2 3 4 5 6 
#
# 1 0.031480 -0.000106 -0.000603 0.000000 0.000000 0.000000
# 2 -0.000106 0.008098 -0.001936 0.000000 0.000000 0.000000
# 3 -0.000603 -0.001936 0.014402 0.000000 0.000000 0.000000
# 4 0.000000 0.000000 0.000000 0.040911 0.000000 0.000000
# 5 0.000000 0.000000 0.000000 0.000000 0.060383 0.000000
# 6 0.000000 0.000000 0.000000 0.000000 0.000000 0.024087
#
#
# Mechanical properties :
#
#
# Convention : Reuss Voigt Hill
#
# Bulk Modulus (GPa) = 20.53833 29.99622 25.26727
# Shear Modulus (GPa) = 24.89033 30.62588 27.75811
#
# Velocity S-wave (km/s) = 3.15534 3.50006 3.33216
# Velocity P-wave (km/s) = 4.63576 5.32282 4.99113
#
# Compressibility (1/GPa) = 0.04868946
#
# Stress axis : x y z
#
# Youngs Moduli (GPa) = 31.76588 123.48343 69.43550
#
# Poissons Ratio (x) = 0.01315 0.04186
# Poissons Ratio (y) = 0.00338 0.13444
# Poissons Ratio (z) = 0.01915 0.23909
#
# Static dielectric constant tensor:
#      x y z
#    x 1.958040 0.000000 0.000000 
#    y 0.000000 2.118290 0.000000 
#    z 0.000000 0.000000 2.048910 
# 
# From -- ./inp_files/33569.got.cif
#   From: 2010.05.17/outbox.cif.g08.bks.cpg/sg68_17_cif.got.tgz:33569.got - 2010.06.03 18:57:09.
