data_PCOD9510448
_publ_section_title
;
Structure prediction by ZEFSAII (Michael W. Deem and Ramdas Pophale) SiO2 
 PCOD9510448
Probable space group: C C C A
;
_chemical_formula_sum "Si O2"
_cell_formula_units_Z 64
_cell_length_a 34.916621
_cell_length_b 9.124390
_cell_length_c 10.443476
_cell_angle_alpha 90.000000
_cell_angle_beta 90.000000
_cell_angle_gamma 90.000000
_cell_volume 3327.216965
_symmetry_space_group_name_H-M "C C C A"
_symmetry_group_IT_number 68
_space_group.IT_coordinate_system_code '2'
_symmetry_cell_setting 'orthorhombic'
loop_
_space_group_symop_operation_xyz
x,y,z
-x,1/2-y,z
x,1/2-y,1/2-z
-x,y,1/2-z
-x,-y,-z
x,1/2+y,-z
-x,1/2+y,1/2+z
x,-y,1/2+z
1/2+x,1/2+y,z
1/2-x,-y,z
1/2+x,-y,1/2-z
1/2-x,1/2+y,1/2-z
1/2-x,1/2-y,-z
1/2+x,y,-z
1/2-x,y,1/2+z
1/2+x,1/2-y,1/2+z
loop_
_atom_site_type_symbol
_atom_site_label
_atom_site_fract_x
_atom_site_fract_y
_atom_site_fract_z
Si Si1 0.641205 0.333446 0.382263
Si Si2 0.732968 0.336182 0.380377
Si Si3 0.483373 0.412551 0.618096
Si Si4 0.106590 0.845063 0.878680
O O1 0.631359 0.250000 0.250000
O O2 0.687086 0.332739 0.396183
O O3 0.620336 0.251256 0.500049
O O4 0.629351 0.502816 0.375313
O O5 0.742613 0.250000 0.250000
O O6 0.750000 0.500000 0.375395
O O7 0.750000 0.250000 0.500000
O O8 0.500000 0.250000 0.610981
O O9 0.500000 0.478494 0.750000
O O10 0.500000 0.500000 0.500000
O O11 0.437824 0.393724 0.615114
O O12 0.112154 0.750000 0.750000
#
# Coordination Sequence:
#
# PCOD9510448 Si02
#       4
#    16  16  16  16
#     4  11  26  42  67  99 132 178 221 269 339 392
#     4  11  24  43  67  98 133 174 223 272 329 396
#     4  11  24  44  65  96 129 170 221 267 330 390
#     4  12  24  44  67  94 136 172 222 278 327 396
#
# _framework density 19.235295000000001
#
# number of rings (size 3 to 8) (size 9 to 14) (size 15 to 20)
#    0.000    0.750    2.500    5.250    3.500    8.500 
#    0.000    0.000    0.000    0.000    0.000    0.000 
#    0.000    0.000    0.000    0.000    0.000    0.000 
#
# Total GULP energy -178971.588146 kJ/mol
# GULP energy per Si atom -5592.862130 kJ/mol
# Density = 1.919151 g / cm^3
# Si number density = 19.235295 Si / 1000 Ang^3
#
#
#
# Elastic Constant Matrix: (Units=GPa)
#
#
# Indices 1 2 3 4 5 6 
#
# 1 104.3287 58.0571 97.7350 0.0000 0.0000 0.0000
# 2 58.0571 156.7251 112.8121 0.0000 0.0000 0.0000
# 3 97.7350 112.8121 239.5714 0.0000 0.0000 0.0000
# 4 0.0000 0.0000 0.0000 5.5450 0.0000 0.0000
# 5 0.0000 0.0000 0.0000 0.0000 30.5785 0.0000
# 6 0.0000 0.0000 0.0000 0.0000 0.0000 34.2013
#
#
#
# Elastic Compliance Matrix: (Units=1/GPa)
#
#
# Indices 1 2 3 4 5 6 
#
# 1 0.015858 -0.001842 -0.005602 0.000000 0.000000 0.000000
# 2 -0.001842 0.009866 -0.003894 0.000000 0.000000 0.000000
# 3 -0.005602 -0.003894 0.008293 0.000000 0.000000 0.000000
# 4 0.000000 0.000000 0.000000 0.180343 0.000000 0.000000
# 5 0.000000 0.000000 0.000000 0.000000 0.032703 0.000000
# 6 0.000000 0.000000 0.000000 0.000000 0.000000 0.029239
#
#
# Mechanical properties :
#
#
# Convention : Reuss Voigt Hill
#
# Bulk Modulus (GPa) = 88.17837 115.31483 101.74660
# Shear Modulus (GPa) = 16.51477 29.53304 23.02391
#
# Velocity S-wave (km/s) = 2.93331 3.92261 3.46347
# Velocity P-wave (km/s) = 7.57719 8.97751 8.30691
#
# Compressibility (1/GPa) = 0.01134065
#
# Stress axis : x y z
#
# Youngs Moduli (GPa) = 63.05905 101.35596 120.57840
#
# Poissons Ratio (x) = 0.18671 0.67548
# Poissons Ratio (y) = 0.11616 0.46958
# Poissons Ratio (z) = 0.35326 0.39472
#
# Static dielectric constant tensor:
#      x y z
#    x 1.743420 0.000000 0.000000 
#    y 0.000000 1.625700 0.000000 
#    z 0.000000 0.000000 1.641470 
# 
# From -- ./inp_files/17455.got.cif
#   From: 2010.05.17/outbox.cif.g08.bks.cpg/sg68_9_cif.got.tgz:17455.got - 2010.06.03 18:57:09.
