data_PCOD9510593
_publ_section_title
;
Structure prediction by ZEFSAII (Michael W. Deem and Ramdas Pophale) SiO2 
 PCOD9510593
Probable space group: C C C A
;
_chemical_formula_sum "Si O2"
_cell_formula_units_Z 48
_cell_length_a 14.476815
_cell_length_b 14.888029
_cell_length_c 8.800792
_cell_angle_alpha 90.000000
_cell_angle_beta 90.000000
_cell_angle_gamma 90.000000
_cell_volume 1896.845626
_symmetry_space_group_name_H-M "C C C A"
_symmetry_group_IT_number 68
_space_group.IT_coordinate_system_code '2'
_symmetry_cell_setting 'orthorhombic'
loop_
_space_group_symop_operation_xyz
x,y,z
-x,1/2-y,z
x,1/2-y,1/2-z
-x,y,1/2-z
-x,-y,-z
x,1/2+y,-z
-x,1/2+y,1/2+z
x,-y,1/2+z
1/2+x,1/2+y,z
1/2-x,-y,z
1/2+x,-y,1/2-z
1/2-x,1/2+y,1/2-z
1/2-x,1/2-y,-z
1/2+x,y,-z
1/2-x,y,1/2+z
1/2+x,1/2-y,1/2+z
loop_
_atom_site_type_symbol
_atom_site_label
_atom_site_fract_x
_atom_site_fract_y
_atom_site_fract_z
Si Si1 0.821333 0.839069 0.849786
Si Si2 0.490272 0.141732 0.428070
Si Si3 0.319064 0.080098 0.965424
O O1 0.845509 0.750000 0.750000
O O2 0.810655 0.908850 0.713653
O O3 0.723787 0.836799 0.937556
O O4 0.896921 0.868801 0.974063
O O5 0.500000 0.250000 0.437317
O O6 0.500000 0.118801 0.250000
O O7 0.572761 0.085151 0.502764
O O8 0.250000 0.000000 0.007797
#
# Coordination Sequence:
#
# PCOD9510593 Si02
#       3
#    16  16  16
#     4  12  25  47  79 113 155 211 270 324 395 481
#     4  11  25  46  80 118 151 204 271 329 391 477
#     4  12  27  46  74 116 164 207 261 336 403 464
#
# _framework density 25.30517
#
# number of rings (size 3 to 8) (size 9 to 14) (size 15 to 20)
#    0.000    0.333    3.333    5.000    4.667    1.333 
#    0.000    5.000    0.000    0.000    0.000    0.000 
#    0.000    0.000    0.000    0.000    0.000    0.000 
#
# Total GULP energy -134151.966626 kJ/mol
# GULP energy per Si atom -5589.665276 kJ/mol
# Density = 2.524757 g / cm^3
# Si number density = 25.305170 Si / 1000 Ang^3
#
#
#
# Elastic Constant Matrix: (Units=GPa)
#
#
# Indices 1 2 3 4 5 6 
#
# 1 154.9308 21.6043 48.5814 0.0000 0.0000 0.0000
# 2 21.6043 78.6865 6.0777 0.0000 0.0000 0.0000
# 3 48.5814 6.0777 182.4050 0.0000 0.0000 0.0000
# 4 0.0000 0.0000 0.0000 29.1817 0.0000 0.0000
# 5 0.0000 0.0000 0.0000 0.0000 50.7792 0.0000
# 6 0.0000 0.0000 0.0000 0.0000 0.0000 38.3322
#
#
#
# Elastic Compliance Matrix: (Units=1/GPa)
#
#
# Indices 1 2 3 4 5 6 
#
# 1 0.007304 -0.001860 -0.001883 0.000000 0.000000 0.000000
# 2 -0.001860 0.013215 0.000055 0.000000 0.000000 0.000000
# 3 -0.001883 0.000055 0.005982 0.000000 0.000000 0.000000
# 4 0.000000 0.000000 0.000000 0.034268 0.000000 0.000000
# 5 0.000000 0.000000 0.000000 0.000000 0.019693 0.000000
# 6 0.000000 0.000000 0.000000 0.000000 0.000000 0.026088
#
#
# Mechanical properties :
#
#
# Convention : Reuss Voigt Hill
#
# Bulk Modulus (GPa) = 52.28817 63.17212 57.73015
# Shear Modulus (GPa) = 41.56191 46.30920 43.93556
#
# Velocity S-wave (km/s) = 4.05708 4.28253 4.17133
# Velocity P-wave (km/s) = 6.53104 7.03361 6.78698
#
# Compressibility (1/GPa) = 0.01912478
#
# Stress axis : x y z
#
# Youngs Moduli (GPa) = 136.90243 75.67096 167.16498
#
# Poissons Ratio (x) = 0.14075 0.31485
# Poissons Ratio (y) = 0.25465 -0.00921
# Poissons Ratio (z) = 0.25785 -0.00417
#
# Static dielectric constant tensor:
#      x y z
#    x 1.942180 0.000000 0.000000 
#    y 0.000000 2.386110 0.000000 
#    z 0.000000 0.000000 1.989580 
# 
# From -- ./inp_files/4427.got.cif
#   From: 2010.05.17/outbox.cif.g08.bks.cpg/sg68_3_cif.got.tgz:4427.got - 2010.06.03 18:57:09.
