data_PCOD9510634
_publ_section_title
;
Structure prediction by ZEFSAII (Michael W. Deem and Ramdas Pophale) SiO2 
 PCOD9510634
Probable space group: C C C A
;
_chemical_formula_sum "Si O2"
_cell_formula_units_Z 56
_cell_length_a 10.532891
_cell_length_b 16.113873
_cell_length_c 14.746901
_cell_angle_alpha 90.000000
_cell_angle_beta 90.000000
_cell_angle_gamma 90.000000
_cell_volume 2502.927622
_symmetry_space_group_name_H-M "C C C A"
_symmetry_group_IT_number 68
_space_group.IT_coordinate_system_code '2'
_symmetry_cell_setting 'orthorhombic'
loop_
_space_group_symop_operation_xyz
x,y,z
-x,1/2-y,z
x,1/2-y,1/2-z
-x,y,1/2-z
-x,-y,-z
x,1/2+y,-z
-x,1/2+y,1/2+z
x,-y,1/2+z
1/2+x,1/2+y,z
1/2-x,-y,z
1/2+x,-y,1/2-z
1/2-x,1/2+y,1/2-z
1/2-x,1/2-y,-z
1/2+x,y,-z
1/2-x,y,1/2+z
1/2+x,1/2-y,1/2+z
loop_
_atom_site_type_symbol
_atom_site_label
_atom_site_fract_x
_atom_site_fract_y
_atom_site_fract_z
Si Si1 0.126444 0.052679 0.506894
Si Si2 0.742954 0.750000 0.250000
Si Si3 0.143369 0.927462 0.219505
Si Si4 0.133923 0.775939 0.937323
O O1 0.138854 0.084428 0.610291
O O2 0.125768 0.125735 0.434892
O O3 0.250000 0.000000 0.488193
O O4 0.000000 0.000000 0.500000
O O5 0.821086 0.663584 0.260126
O O6 0.657298 0.738837 0.161124
O O7 0.000000 0.951282 0.250000
O O8 0.250000 0.000000 0.237513
O O9 0.000000 0.750000 0.978530
O O10 0.250000 0.750000 0.000000
#
# Coordination Sequence:
#
# PCOD9510634 Si02
#       4
#    16   8  16  16
#     4  11  26  47  75 108 146 194 244 305 377 446
#     4  12  28  48  76 112 152 204 252 308 380 452
#     4  11  28  48  75 112 150 195 252 310 376 449
#     4  12  27  48  75 109 149 194 250 310 374 447
#
# _framework density 22.373799000000002
#
# number of rings (size 3 to 8) (size 9 to 14) (size 15 to 20)
#    0.000    0.571    2.857    2.571   16.000    0.000 
#    0.000    0.000    0.000    0.000    0.000    0.000 
#    0.000    0.000    0.000    0.000    0.000    0.000 
#
# Total GULP energy -156631.503187 kJ/mol
# GULP energy per Si atom -5593.982257 kJ/mol
# Density = 2.232288 g / cm^3
# Si number density = 22.373799 Si / 1000 Ang^3
#
#
#
# Elastic Constant Matrix: (Units=GPa)
#
#
# Indices 1 2 3 4 5 6 
#
# 1 204.2044 63.6638 19.7208 0.0000 0.0000 0.0000
# 2 63.6638 103.6800 3.3938 0.0000 0.0000 0.0000
# 3 19.7208 3.3938 49.4097 0.0000 0.0000 0.0000
# 4 0.0000 0.0000 0.0000 39.7494 0.0000 0.0000
# 5 0.0000 0.0000 0.0000 0.0000 54.0710 0.0000
# 6 0.0000 0.0000 0.0000 0.0000 0.0000 38.8807
#
#
#
# Elastic Compliance Matrix: (Units=1/GPa)
#
#
# Indices 1 2 3 4 5 6 
#
# 1 0.006297 -0.003793 -0.002253 0.000000 0.000000 0.000000
# 2 -0.003793 0.011951 0.000693 0.000000 0.000000 0.000000
# 3 -0.002253 0.000693 0.021091 0.000000 0.000000 0.000000
# 4 0.000000 0.000000 0.000000 0.025158 0.000000 0.000000
# 5 0.000000 0.000000 0.000000 0.000000 0.018494 0.000000
# 6 0.000000 0.000000 0.000000 0.000000 0.000000 0.025720
#
#
# Mechanical properties :
#
#
# Convention : Reuss Voigt Hill
#
# Bulk Modulus (GPa) = 34.92424 58.98344 46.95384
# Shear Modulus (GPa) = 38.77150 44.57459 41.67304
#
# Velocity S-wave (km/s) = 4.16732 4.46832 4.32045
# Velocity P-wave (km/s) = 6.22887 7.28294 6.77643
#
# Compressibility (1/GPa) = 0.02863340
#
# Stress axis : x y z
#
# Youngs Moduli (GPa) = 158.80252 83.67218 47.41468
#
# Poissons Ratio (x) = 0.31736 0.10682
# Poissons Ratio (y) = 0.60233 -0.03286
# Poissons Ratio (z) = 0.35776 -0.05798
#
# Static dielectric constant tensor:
#      x y z
#    x 1.732070 0.000000 0.000000 
#    y 0.000000 2.009790 0.000000 
#    z 0.000000 0.000000 1.848710 
# 
# From -- ./inp_files/20138.got.cif
#   From: 2010.05.17/outbox.cif.g08.bks.cpg/sg68_11_cif.got.tgz:20138.got - 2010.06.03 18:57:09.
