data_PCOD9510030
_publ_section_title
;
Structure prediction by ZEFSAII (Michael W. Deem and Ramdas Pophale) SiO2 
 PCOD9510030
Probable space group: C C C A
;
_chemical_formula_sum "Si O2"
_cell_formula_units_Z 60
_cell_length_a 18.704113
_cell_length_b 4.996350
_cell_length_c 30.651260
_cell_angle_alpha 90.000000
_cell_angle_beta 90.000000
_cell_angle_gamma 90.000000
_cell_volume 2864.430591
_symmetry_space_group_name_H-M "C C C A"
_symmetry_group_IT_number 68
_space_group.IT_coordinate_system_code '2'
_symmetry_cell_setting 'orthorhombic'
loop_
_space_group_symop_operation_xyz
x,y,z
-x,1/2-y,z
x,1/2-y,1/2-z
-x,y,1/2-z
-x,-y,-z
x,1/2+y,-z
-x,1/2+y,1/2+z
x,-y,1/2+z
1/2+x,1/2+y,z
1/2-x,-y,z
1/2+x,-y,1/2-z
1/2-x,1/2+y,1/2-z
1/2-x,1/2-y,-z
1/2+x,y,-z
1/2-x,y,1/2+z
1/2+x,1/2-y,1/2+z
loop_
_atom_site_type_symbol
_atom_site_label
_atom_site_fract_x
_atom_site_fract_y
_atom_site_fract_z
Si Si1 0.086933 0.764804 0.525602
Si Si2 0.750000 0.000000 0.224641
Si Si3 0.079216 0.384014 0.376611
Si Si4 0.889406 0.097792 0.678761
Si Si5 0.000000 0.750000 0.250000
O O1 0.111165 0.471958 0.511443
O O2 0.105766 0.865955 0.573701
O O3 0.000000 0.750000 0.524795
O O4 0.785879 0.250000 0.250000
O O5 0.687828 0.153935 0.198685
O O6 0.084628 0.677076 0.355693
O O7 0.000000 0.250000 0.376550
O O8 0.120283 0.182956 0.345233
O O9 0.947896 0.087515 0.717530
#
# Coordination Sequence:
#
# PCOD9510030 Si02
#       5
#    16   8  16  16   4
#     4   9  17  30  52  82 120 154 186 240 315 377
#     4  12  26  44  62  88 124 170 222 258 316 376
#     4  11  21  37  58  91 122 155 204 258 309 370
#     4  12  25  39  62  88 123 165 206 260 309 372
#     4  12  24  42  64  90 120 164 216 254 324 354
#
# _framework density 20.946573000000001
#
# number of rings (size 3 to 8) (size 9 to 14) (size 15 to 20)
#    0.000    1.067    4.000    3.200    0.000    5.333 
#    0.000    0.000    0.000    0.000    0.000   18.667 
#    0.000    0.000    0.000    0.000    0.000    0.000 
#
# Total GULP energy -167407.047058 kJ/mol
# GULP energy per Si atom -5580.234902 kJ/mol
# Density = 2.089890 g / cm^3
# Si number density = 20.946573 Si / 1000 Ang^3
#
#
#
# Elastic Constant Matrix: (Units=GPa)
#
#
# Indices 1 2 3 4 5 6 
#
# 1 56.6125 -2.6123 18.4033 0.0000 0.0000 0.0000
# 2 -2.6123 87.8010 25.8406 0.0000 0.0000 0.0000
# 3 18.4033 25.8406 122.5874 0.0000 0.0000 0.0000
# 4 0.0000 0.0000 0.0000 30.6015 0.0000 0.0000
# 5 0.0000 0.0000 0.0000 0.0000 -89.9552 0.0000
# 6 0.0000 0.0000 0.0000 0.0000 0.0000 22.9305
#
#
#
# Elastic Compliance Matrix: (Units=1/GPa)
#
#
# Indices 1 2 3 4 5 6 
#
# 1 0.018748 0.001478 -0.003126 0.000000 0.000000 0.000000
# 2 0.001478 0.012259 -0.002806 0.000000 0.000000 0.000000
# 3 -0.003126 -0.002806 0.009218 0.000000 0.000000 0.000000
# 4 0.000000 0.000000 0.000000 0.032678 0.000000 0.000000
# 5 0.000000 0.000000 0.000000 0.000000 -0.011117 0.000000
# 6 0.000000 0.000000 0.000000 0.000000 0.000000 0.043610
#
#
# Mechanical properties :
#
#
# Convention : Reuss Voigt Hill
#
# Bulk Modulus (GPa) = 31.93129 38.91825 35.42477
# Shear Modulus (GPa) = 40.08178 7.73998 23.91088
#
# Velocity S-wave (km/s) = 4.37913 1.92435 3.38230
# Velocity P-wave (km/s) = 6.39111 4.85362 5.67468
#
# Compressibility (1/GPa) = 0.03131724
#
# Stress axis : x y z
#
# Youngs Moduli (GPa) = 53.33804 81.57137 108.48060
#
# Poissons Ratio (x) = -0.12055 0.33912
# Poissons Ratio (y) = -0.07883 0.30440
# Poissons Ratio (z) = 0.16674 0.22889
#
# Static dielectric constant tensor:
#      x y z
#    x 1.905230 0.000000 0.000000 
#    y 0.000000 1.844320 0.000000 
#    z 0.000000 0.000000 1.775300 
# 
# From -- ./inp_files/48018.got.cif
#   From: 2010.05.17/outbox.cif.g08.bks.cpg/sg68_25_cif.got.tgz:48018.got - 2010.06.03 18:57:09.
