data_PCOD9510324
_publ_section_title
;
Structure prediction by ZEFSAII (Michael W. Deem and Ramdas Pophale) SiO2 
 PCOD9510324
Probable space group: C C C A
;
_chemical_formula_sum "Si O2"
_cell_formula_units_Z 64
_cell_length_a 11.035707
_cell_length_b 16.793207
_cell_length_c 15.590657
_cell_angle_alpha 90.000000
_cell_angle_beta 90.000000
_cell_angle_gamma 90.000000
_cell_volume 2889.337137
_symmetry_space_group_name_H-M "C C C A"
_symmetry_group_IT_number 68
_space_group.IT_coordinate_system_code '2'
_symmetry_cell_setting 'orthorhombic'
loop_
_space_group_symop_operation_xyz
x,y,z
-x,1/2-y,z
x,1/2-y,1/2-z
-x,y,1/2-z
-x,-y,-z
x,1/2+y,-z
-x,1/2+y,1/2+z
x,-y,1/2+z
1/2+x,1/2+y,z
1/2-x,-y,z
1/2+x,-y,1/2-z
1/2-x,1/2+y,1/2-z
1/2-x,1/2-y,-z
1/2+x,y,-z
1/2-x,y,1/2+z
1/2+x,1/2-y,1/2+z
loop_
_atom_site_type_symbol
_atom_site_label
_atom_site_fract_x
_atom_site_fract_y
_atom_site_fract_z
Si Si1 0.580368 0.682908 0.098407
Si Si2 0.809556 0.240887 0.652075
Si Si3 0.893582 0.012430 0.319831
Si Si4 0.497669 0.867791 0.909887
O O1 0.500000 0.750000 0.142428
O O2 0.705569 0.729882 0.088806
O O3 0.598299 0.603476 0.151487
O O4 0.520410 0.657072 0.008415
O O5 0.768162 0.250000 0.750000
O O6 0.912768 0.306923 0.637602
O O7 0.866956 0.154264 0.632492
O O8 0.000000 0.997898 0.250000
O O9 0.750000 0.000000 0.297957
O O10 0.939768 0.952811 0.395203
#
# Coordination Sequence:
#
# PCOD9510324 Si02
#       4
#    16  16  16  16
#     4  12  27  44  73 111 148 187 249 317 376 442
#     4  11  23  42  75 104 146 192 249 304 372 449
#     4  12  28  50  73 109 152 203 253 312 382 457
#     4  11  23  47  74 104 140 199 252 302 374 454
#
# _framework density 22.150410000000001
#
# number of rings (size 3 to 8) (size 9 to 14) (size 15 to 20)
#    0.000    0.500    5.000    4.500    3.500    0.000 
#    0.000    0.000    0.000    0.000    0.000    0.000 
#    0.000    0.000    0.000    0.000    0.000    0.000 
#
# Total GULP energy -178529.148433 kJ/mol
# GULP energy per Si atom -5579.035889 kJ/mol
# Density = 2.209999 g / cm^3
# Si number density = 22.150410 Si / 1000 Ang^3
#
#
#
# Elastic Constant Matrix: (Units=GPa)
#
#
# Indices 1 2 3 4 5 6 
#
# 1 126.2918 81.3273 43.3730 0.0000 0.0000 0.0000
# 2 81.3273 126.1682 15.9408 0.0000 0.0000 0.0000
# 3 43.3730 15.9408 81.8930 0.0000 0.0000 0.0000
# 4 0.0000 0.0000 0.0000 51.7716 0.0000 0.0000
# 5 0.0000 0.0000 0.0000 0.0000 15.6176 0.0000
# 6 0.0000 0.0000 0.0000 0.0000 0.0000 36.3661
#
#
#
# Elastic Compliance Matrix: (Units=1/GPa)
#
#
# Indices 1 2 3 4 5 6 
#
# 1 0.016624 -0.009845 -0.006888 0.000000 0.000000 0.000000
# 2 -0.009845 0.013957 0.002498 0.000000 0.000000 0.000000
# 3 -0.006888 0.002498 0.015373 0.000000 0.000000 0.000000
# 4 0.000000 0.000000 0.000000 0.019316 0.000000 0.000000
# 5 0.000000 0.000000 0.000000 0.000000 0.064030 0.000000
# 6 0.000000 0.000000 0.000000 0.000000 0.000000 0.027498
#
#
# Mechanical properties :
#
#
# Convention : Reuss Voigt Hill
#
# Bulk Modulus (GPa) = 57.20165 68.40389 62.80277
# Shear Modulus (GPa) = 26.16485 33.66519 29.91502
#
# Velocity S-wave (km/s) = 3.44064 3.90275 3.67896
# Velocity P-wave (km/s) = 6.45479 7.15941 6.81621
#
# Compressibility (1/GPa) = 0.01748201
#
# Stress axis : x y z
#
# Youngs Moduli (GPa) = 60.15475 71.65073 65.04917
#
# Poissons Ratio (x) = 0.70542 0.44806
# Poissons Ratio (y) = 0.59224 -0.16247
# Poissons Ratio (z) = 0.41435 -0.17896
#
# Static dielectric constant tensor:
#      x y z
#    x 2.355580 0.000000 0.000000 
#    y 0.000000 1.788710 0.000000 
#    z 0.000000 0.000000 1.819030 
# 
# From -- ./inp_files/20435.got.cif
#   From: 2010.05.17/outbox.cif.g08.bks.cpg/sg68_11_cif.got.tgz:20435.got - 2010.06.03 18:57:09.
