data_PCOD9510212
_publ_section_title
;
Structure prediction by ZEFSAII (Michael W. Deem and Ramdas Pophale) SiO2 
 PCOD9510212
Probable space group: C C C A
;
_chemical_formula_sum "Si O2"
_cell_formula_units_Z 72
_cell_length_a 12.632356
_cell_length_b 16.075713
_cell_length_c 16.868714
_cell_angle_alpha 90.000000
_cell_angle_beta 90.000000
_cell_angle_gamma 90.000000
_cell_volume 3425.599413
_symmetry_space_group_name_H-M "C C C A"
_symmetry_group_IT_number 68
_space_group.IT_coordinate_system_code '2'
_symmetry_cell_setting 'orthorhombic'
loop_
_space_group_symop_operation_xyz
x,y,z
-x,1/2-y,z
x,1/2-y,1/2-z
-x,y,1/2-z
-x,-y,-z
x,1/2+y,-z
-x,1/2+y,1/2+z
x,-y,1/2+z
1/2+x,1/2+y,z
1/2-x,-y,z
1/2+x,-y,1/2-z
1/2-x,1/2+y,1/2-z
1/2-x,1/2-y,-z
1/2+x,y,-z
1/2-x,y,1/2+z
1/2+x,1/2-y,1/2+z
loop_
_atom_site_type_symbol
_atom_site_label
_atom_site_fract_x
_atom_site_fract_y
_atom_site_fract_z
Si Si1 0.448640 0.341219 0.902191
Si Si2 0.000390 0.650192 0.421985
Si Si3 0.173565 0.932861 0.312731
Si Si4 0.227853 0.401410 0.853606
Si Si5 0.000000 0.552032 0.750000
O O1 0.500000 0.250000 0.896027
O O2 0.321162 0.348053 0.894757
O O3 0.490218 0.394321 0.828624
O O4 0.484387 0.376656 0.987057
O O5 0.901375 0.617990 0.370399
O O6 0.000000 0.750000 0.419968
O O7 0.112245 0.619936 0.387387
O O8 0.230790 0.882652 0.241791
O O9 0.250000 0.000000 0.354561
O O10 0.097929 0.991461 0.260609
O O11 0.250000 0.500000 0.867324
#
# Coordination Sequence:
#
# PCOD9510212 Si02
#       5
#    16  16  16  16   8
#     4  11  26  44  68 104 142 181 226 286 348 414
#     4  11  26  45  70 104 142 176 230 287 348 414
#     4  11  22  42  70 102 132 183 234 282 341 406
#     4  11  22  46  69  99 143 179 230 286 338 412
#     4  12  21  44  67  96 136 180 234 272 333 412
#
# _framework density 21.018219999999999
#
# number of rings (size 3 to 8) (size 9 to 14) (size 15 to 20)
#    0.000    0.889    6.667    0.333    0.000   13.333 
#    4.000    0.000    0.000    0.000    0.000    0.000 
#    0.000    0.000    0.000    0.000    0.000    0.000 
#
# Total GULP energy -201086.704069 kJ/mol
# GULP energy per Si atom -5585.741780 kJ/mol
# Density = 2.097038 g / cm^3
# Si number density = 21.018220 Si / 1000 Ang^3
#
#
#
# Elastic Constant Matrix: (Units=GPa)
#
#
# Indices 1 2 3 4 5 6 
#
# 1 107.2063 34.2382 34.4167 0.0000 0.0000 0.0000
# 2 34.2382 71.2511 48.8078 0.0000 0.0000 0.0000
# 3 34.4167 48.8078 149.4665 0.0000 0.0000 0.0000
# 4 0.0000 0.0000 0.0000 35.7513 0.0000 0.0000
# 5 0.0000 0.0000 0.0000 0.0000 28.7881 0.0000
# 6 0.0000 0.0000 0.0000 0.0000 0.0000 44.4751
#
#
#
# Elastic Compliance Matrix: (Units=1/GPa)
#
#
# Indices 1 2 3 4 5 6 
#
# 1 0.011146 -0.004635 -0.001053 0.000000 0.000000 0.000000
# 2 -0.004635 0.020006 -0.005466 0.000000 0.000000 0.000000
# 3 -0.001053 -0.005466 0.008718 0.000000 0.000000 0.000000
# 4 0.000000 0.000000 0.000000 0.027971 0.000000 0.000000
# 5 0.000000 0.000000 0.000000 0.000000 0.034737 0.000000
# 6 0.000000 0.000000 0.000000 0.000000 0.000000 0.022484
#
#
# Mechanical properties :
#
#
# Convention : Reuss Voigt Hill
#
# Bulk Modulus (GPa) = 56.93802 62.53880 59.73841
# Shear Modulus (GPa) = 32.63216 35.83364 34.23290
#
# Velocity S-wave (km/s) = 3.94454 4.13350 4.04012
# Velocity P-wave (km/s) = 6.92058 7.25261 7.08854
#
# Compressibility (1/GPa) = 0.01756296
#
# Stress axis : x y z
#
# Youngs Moduli (GPa) = 89.71804 49.98500 114.70820
#
# Poissons Ratio (x) = 0.23166 0.12080
# Poissons Ratio (y) = 0.41581 0.62696
# Poissons Ratio (z) = 0.09448 0.27320
#
# Static dielectric constant tensor:
#      x y z
#    x 1.977530 0.000000 0.000000 
#    y 0.000000 1.758650 0.000000 
#    z 0.000000 0.000000 1.773630 
# 
# From -- ./inp_files/29404.got.cif
#   From: 2010.05.17/outbox.cif.g08.bks.cpg/sg68_15_cif.got.tgz:29404.got - 2010.06.03 18:57:09.
