data_PCOD9510685
_publ_section_title
;
Structure prediction by ZEFSAII (Michael W. Deem and Ramdas Pophale) SiO2 
 PCOD9510685
Probable space group: C C C A
;
_chemical_formula_sum "Si O2"
_cell_formula_units_Z 76
_cell_length_a 13.415501
_cell_length_b 18.925395
_cell_length_c 12.336450
_cell_angle_alpha 90.000000
_cell_angle_beta 90.000000
_cell_angle_gamma 90.000000
_cell_volume 3132.146387
_symmetry_space_group_name_H-M "C C C A"
_symmetry_group_IT_number 68
_space_group.IT_coordinate_system_code '2'
_symmetry_cell_setting 'orthorhombic'
loop_
_space_group_symop_operation_xyz
x,y,z
-x,1/2-y,z
x,1/2-y,1/2-z
-x,y,1/2-z
-x,-y,-z
x,1/2+y,-z
-x,1/2+y,1/2+z
x,-y,1/2+z
1/2+x,1/2+y,z
1/2-x,-y,z
1/2+x,-y,1/2-z
1/2-x,1/2+y,1/2-z
1/2-x,1/2-y,-z
1/2+x,y,-z
1/2-x,y,1/2+z
1/2+x,1/2-y,1/2+z
loop_
_atom_site_type_symbol
_atom_site_label
_atom_site_fract_x
_atom_site_fract_y
_atom_site_fract_z
Si Si1 0.919801 0.145153 0.664150
Si Si2 0.537912 0.149752 0.914964
Si Si3 0.500000 0.250000 0.750000
Si Si4 0.593769 0.482999 0.882124
Si Si5 0.750000 0.000000 0.433431
Si Si6 0.720553 0.380201 0.727996
O O1 0.943905 0.167448 0.540335
O O2 0.806918 0.159411 0.705648
O O3 0.000000 0.172367 0.750000
O O4 0.929461 0.059515 0.664547
O O5 0.459625 0.195681 0.843775
O O6 0.497801 0.069676 0.904074
O O7 0.638801 0.160450 0.844798
O O8 0.664748 0.435948 0.805828
O O9 0.656291 0.502252 0.988047
O O10 0.730903 0.068613 0.361637
#
# Coordination Sequence:
#
# PCOD9510685 Si02
#       6
#    16  16   4  16   8  16
#     4  12  24  39  69 108 145 177 224 297 372 429
#     4  12  26  45  71  97 140 192 248 292 352 416
#     4  12  28  52  74  96 134 196 260 296 336 420
#     4  12  21  36  63 105 142 181 224 288 358 432
#     4  12  20  34  64 104 160 180 210 282 372 442
#     4  12  21  39  61 103 144 184 225 279 357 438
#
# _framework density 24.264510000000001
#
# number of rings (size 3 to 8) (size 9 to 14) (size 15 to 20)
#    0.000    0.000    8.421    3.158    0.000    0.000 
#    0.000    1.579    0.000    0.000    0.000    0.000 
#    0.000    0.000    0.000    0.000    0.000    0.000 
#
# Total GULP energy -212186.424385 kJ/mol
# GULP energy per Si atom -5583.853273 kJ/mol
# Density = 2.420928 g / cm^3
# Si number density = 24.264510 Si / 1000 Ang^3
#
#
#
# Elastic Constant Matrix: (Units=GPa)
#
#
# Indices 1 2 3 4 5 6 
#
# 1 111.5626 25.8195 92.9182 0.0000 0.0000 0.0000
# 2 25.8195 79.6358 19.0797 0.0000 0.0000 0.0000
# 3 92.9182 19.0797 211.6364 0.0000 0.0000 0.0000
# 4 0.0000 0.0000 0.0000 5.5339 0.0000 0.0000
# 5 0.0000 0.0000 0.0000 0.0000 38.3410 0.0000
# 6 0.0000 0.0000 0.0000 0.0000 0.0000 3.1158
#
#
#
# Elastic Compliance Matrix: (Units=1/GPa)
#
#
# Indices 1 2 3 4 5 6 
#
# 1 0.014956 -0.003348 -0.006265 0.000000 0.000000 0.000000
# 2 -0.003348 0.013584 0.000245 0.000000 0.000000 0.000000
# 3 -0.006265 0.000245 0.007453 0.000000 0.000000 0.000000
# 4 0.000000 0.000000 0.000000 0.180705 0.000000 0.000000
# 5 0.000000 0.000000 0.000000 0.000000 0.026082 0.000000
# 6 0.000000 0.000000 0.000000 0.000000 0.000000 0.320943
#
#
# Mechanical properties :
#
#
# Convention : Reuss Voigt Hill
#
# Bulk Modulus (GPa) = 57.94183 75.38551 66.66367
# Shear Modulus (GPa) = 8.50036 27.06596 17.78316
#
# Velocity S-wave (km/s) = 1.87372 3.34347 2.71013
# Velocity P-wave (km/s) = 5.34903 6.78533 6.10954
#
# Compressibility (1/GPa) = 0.01725869
#
# Stress axis : x y z
#
# Youngs Moduli (GPa) = 66.86245 73.61648 134.16692
#
# Poissons Ratio (x) = 0.24648 0.84050
# Poissons Ratio (y) = 0.22386 -0.03292
# Poissons Ratio (z) = 0.41886 -0.01806
#
# Static dielectric constant tensor:
#      x y z
#    x 2.038530 0.000000 0.000000 
#    y 0.000000 2.003970 0.000000 
#    z 0.000000 0.000000 1.921290 
# 
# From -- ./inp_files/13224.got.cif
#   From: 2010.05.17/outbox.cif.g08.bks.cpg/sg68_7_cif.got.tgz:13224.got - 2010.06.03 18:57:09.
