data_PCOD9510895
_publ_section_title
;
Structure prediction by ZEFSAII (Michael W. Deem and Ramdas Pophale) SiO2 
 PCOD9510895
Probable space group: C C C A
;
_chemical_formula_sum "Si O2"
_cell_formula_units_Z 60
_cell_length_a 14.856894
_cell_length_b 17.062974
_cell_length_c 9.757110
_cell_angle_alpha 90.000000
_cell_angle_beta 90.000000
_cell_angle_gamma 90.000000
_cell_volume 2473.454666
_symmetry_space_group_name_H-M "C C C A"
_symmetry_group_IT_number 68
_space_group.IT_coordinate_system_code '2'
_symmetry_cell_setting 'orthorhombic'
loop_
_space_group_symop_operation_xyz
x,y,z
-x,1/2-y,z
x,1/2-y,1/2-z
-x,y,1/2-z
-x,-y,-z
x,1/2+y,-z
-x,1/2+y,1/2+z
x,-y,1/2+z
1/2+x,1/2+y,z
1/2-x,-y,z
1/2+x,-y,1/2-z
1/2-x,1/2+y,1/2-z
1/2-x,1/2-y,-z
1/2+x,y,-z
1/2-x,y,1/2+z
1/2+x,1/2-y,1/2+z
loop_
_atom_site_type_symbol
_atom_site_label
_atom_site_fract_x
_atom_site_fract_y
_atom_site_fract_z
Si Si1 0.966934 0.436263 0.894894
Si Si2 0.500000 0.250000 0.750000
Si Si3 0.891497 0.324018 0.498185
Si Si4 0.259760 0.912458 0.853989
Si Si5 0.801391 0.750000 0.250000
O O1 0.000000 0.468377 0.750000
O O2 0.862246 0.417287 0.906303
O O3 0.025946 0.359510 0.918236
O O4 0.000000 0.500000 0.000000
O O5 0.565614 0.204358 0.644831
O O6 0.817452 0.391530 0.464511
O O7 0.849791 0.260005 0.601736
O O8 0.254124 0.834728 0.760213
O O9 0.250000 0.000000 0.792157
#
# Coordination Sequence:
#
# PCOD9510895 Si02
#       5
#    16   4  16  16   8
#     4  12  27  52  82 117 164 220 278 347 429 506
#     4  12  30  50  78 120 174 216 278 352 414 502
#     4  12  28  52  82 120 167 222 280 350 420 505
#     4  12  27  50  84 124 166 217 283 346 429 502
#     4  12  27  53  85 119 168 224 281 351 421 505
#
# _framework density 24.257570000000001
#
# number of rings (size 3 to 8) (size 9 to 14) (size 15 to 20)
#    0.000    0.000    5.333    3.200    1.867    6.400 
#    0.000    0.000    0.000    0.000    0.000    0.000 
#    0.000    0.000    0.000    0.000    0.000    0.000 
#
# Total GULP energy -167548.858612 kJ/mol
# GULP energy per Si atom -5584.961954 kJ/mol
# Density = 2.420236 g / cm^3
# Si number density = 24.257570 Si / 1000 Ang^3
#
#
#
# Elastic Constant Matrix: (Units=GPa)
#
#
# Indices 1 2 3 4 5 6 
#
# 1 168.4181 37.1658 31.7849 0.0000 0.0000 0.0000
# 2 37.1658 171.3527 40.9774 0.0000 0.0000 0.0000
# 3 31.7849 40.9774 147.5757 0.0000 0.0000 0.0000
# 4 0.0000 0.0000 0.0000 37.6138 0.0000 0.0000
# 5 0.0000 0.0000 0.0000 0.0000 -3.7104 0.0000
# 6 0.0000 0.0000 0.0000 0.0000 0.0000 65.2117
#
#
#
# Elastic Compliance Matrix: (Units=1/GPa)
#
#
# Indices 1 2 3 4 5 6 
#
# 1 0.006388 -0.001132 -0.001062 0.000000 0.000000 0.000000
# 2 -0.001132 0.006451 -0.001548 0.000000 0.000000 0.000000
# 3 -0.001062 -0.001548 0.007435 0.000000 0.000000 0.000000
# 4 0.000000 0.000000 0.000000 0.026586 0.000000 0.000000
# 5 0.000000 0.000000 0.000000 0.000000 -0.269510 0.000000
# 6 0.000000 0.000000 0.000000 0.000000 0.000000 0.015335
#
#
# Mechanical properties :
#
#
# Convention : Reuss Voigt Hill
#
# Bulk Modulus (GPa) = 78.17357 78.57808 78.37583
# Shear Modulus (GPa) = -25.56632 44.98425 9.70896
#
# Velocity S-wave (km/s) = -3.24999 4.31099 2.00278
# Velocity P-wave (km/s) = 4.26769 7.56592 6.14233
#
# Compressibility (1/GPa) = 0.01279205
#
# Stress axis : x y z
#
# Youngs Moduli (GPa) = 156.55171 155.00357 134.50694
#
# Poissons Ratio (x) = 0.17540 0.14279
# Poissons Ratio (y) = 0.17715 0.20817
# Poissons Ratio (z) = 0.16619 0.23989
#
# Static dielectric constant tensor:
#      x y z
#    x 1.956150 0.000000 0.000000 
#    y 0.000000 1.920180 0.000000 
#    z 0.000000 0.000000 2.155610 
# 
# From -- ./inp_files/12707.got.cif
#   From: 2010.05.17/outbox.cif.g08.bks.cpg/sg68_7_cif.got.tgz:12707.got - 2010.06.03 18:57:09.
