data_PCOD9510287
_publ_section_title
;
Structure prediction by ZEFSAII (Michael W. Deem and Ramdas Pophale) SiO2 
 PCOD9510287
Probable space group: C C C A
;
_chemical_formula_sum "Si O2"
_cell_formula_units_Z 104
_cell_length_a 23.159293
_cell_length_b 27.876544
_cell_length_c 8.175074
_cell_angle_alpha 90.000000
_cell_angle_beta 90.000000
_cell_angle_gamma 90.000000
_cell_volume 5277.836361
_symmetry_space_group_name_H-M "C C C A"
_symmetry_group_IT_number 68
_space_group.IT_coordinate_system_code '2'
_symmetry_cell_setting 'orthorhombic'
loop_
_space_group_symop_operation_xyz
x,y,z
-x,1/2-y,z
x,1/2-y,1/2-z
-x,y,1/2-z
-x,-y,-z
x,1/2+y,-z
-x,1/2+y,1/2+z
x,-y,1/2+z
1/2+x,1/2+y,z
1/2-x,-y,z
1/2+x,-y,1/2-z
1/2-x,1/2+y,1/2-z
1/2-x,1/2-y,-z
1/2+x,y,-z
1/2-x,y,1/2+z
1/2+x,1/2-y,1/2+z
loop_
_atom_site_type_symbol
_atom_site_label
_atom_site_fract_x
_atom_site_fract_y
_atom_site_fract_z
Si Si1 0.715619 0.123704 0.485817
Si Si2 0.213656 0.213156 0.108742
Si Si3 0.674883 0.444084 0.521820
Si Si4 0.352301 0.958884 0.669694
Si Si5 0.628711 0.643515 0.213267
Si Si6 0.019864 0.551711 0.438497
Si Si7 0.500000 0.120495 0.750000
O O1 0.741824 0.168416 0.386798
O O2 0.768576 0.087077 0.530339
O O3 0.679409 0.090163 0.369475
O O4 0.673466 0.142065 0.631522
O O5 0.198169 0.250000 0.250000
O O6 0.154129 0.183351 0.087353
O O7 0.250000 0.250000 0.000000
O O8 0.683258 0.493810 0.618208
O O9 0.639766 0.459536 0.362731
O O10 0.637961 0.408635 0.633909
O O11 0.411463 0.954021 0.573825
O O12 0.561110 0.648952 0.250425
O O13 0.002468 0.588990 0.581947
O O14 0.000000 0.562494 0.250000
O O15 0.000000 0.500000 0.500000
#
# Coordination Sequence:
#
# PCOD9510287 Si02
#       7
#    16  16  16  16  16  16   8
#     4  11  23  41  63  94 130 165 215 270 338 397
#     4  11  23  43  72  97 126 160 210 274 343 416
#     4  11  24  37  60  91 131 175 221 271 329 392
#     4  12  23  39  57  89 130 175 223 273 324 385
#     4  11  23  43  66  97 128 176 218 272 340 395
#     4  12  24  39  60  87 128 190 240 274 320 387
#     4  12  24  44  65  92 140 176 232 284 325 408
#
# _framework density 19.705044000000001
#
# number of rings (size 3 to 8) (size 9 to 14) (size 15 to 20)
#    0.000    0.615    3.846    6.000    2.154    1.231 
#    0.000    0.385    0.000    0.000    0.000    1.077 
#    0.000    0.000    0.000    0.000    0.000    0.000 
#
# Total GULP energy -289551.876537 kJ/mol
# GULP energy per Si atom -5568.305318 kJ/mol
# Density = 1.966019 g / cm^3
# Si number density = 19.705044 Si / 1000 Ang^3
#
#
#
# Elastic Constant Matrix: (Units=GPa)
#
#
# Indices 1 2 3 4 5 6 
#
# 1 133.1979 41.2750 13.8282 0.0000 0.0000 0.0000
# 2 41.2750 129.0834 18.4683 0.0000 0.0000 0.0000
# 3 13.8282 18.4683 66.3569 0.0000 0.0000 0.0000
# 4 0.0000 0.0000 0.0000 28.2164 0.0000 0.0000
# 5 0.0000 0.0000 0.0000 0.0000 25.8106 0.0000
# 6 0.0000 0.0000 0.0000 0.0000 0.0000 18.3510
#
#
#
# Elastic Compliance Matrix: (Units=1/GPa)
#
#
# Indices 1 2 3 4 5 6 
#
# 1 0.008402 -0.002537 -0.001045 0.000000 0.000000 0.000000
# 2 -0.002537 0.008834 -0.001930 0.000000 0.000000 0.000000
# 3 -0.001045 -0.001930 0.015825 0.000000 0.000000 0.000000
# 4 0.000000 0.000000 0.000000 0.035440 0.000000 0.000000
# 5 0.000000 0.000000 0.000000 0.000000 0.038744 0.000000
# 6 0.000000 0.000000 0.000000 0.000000 0.000000 0.054493
#
#
# Mechanical properties :
#
#
# Convention : Reuss Voigt Hill
#
# Bulk Modulus (GPa) = 45.37724 52.86460 49.12092
# Shear Modulus (GPa) = 27.76103 31.48005 29.62054
#
# Velocity S-wave (km/s) = 3.75751 4.00129 3.88131
# Velocity P-wave (km/s) = 6.47328 6.94502 6.71330
#
# Compressibility (1/GPa) = 0.02203748
#
# Stress axis : x y z
#
# Youngs Moduli (GPa) = 119.01479 113.19465 63.19154
#
# Poissons Ratio (x) = 0.28720 0.06602
# Poissons Ratio (y) = 0.30196 0.12196
# Poissons Ratio (z) = 0.12435 0.21847
#
# Static dielectric constant tensor:
#      x y z
#    x 1.617420 0.000000 0.000000 
#    y 0.000000 1.779890 0.000000 
#    z 0.000000 0.000000 1.770870 
# 
# From -- ./inp_files/7355.got.cif
#   From: 2010.05.17/outbox.cif.g08.bks.cpg/sg68_4_cif.got.tgz:7355.got - 2010.06.03 18:57:09.
