data_PCOD9510610
_publ_section_title
;
Structure prediction by ZEFSAII (Michael W. Deem and Ramdas Pophale) SiO2 
 PCOD9510610
Probable space group: C C C A
;
_chemical_formula_sum "Si O2"
_cell_formula_units_Z 64
_cell_length_a 9.548972
_cell_length_b 28.241427
_cell_length_c 9.849866
_cell_angle_alpha 90.000000
_cell_angle_beta 90.000000
_cell_angle_gamma 90.000000
_cell_volume 2656.278331
_symmetry_space_group_name_H-M "C C C A"
_symmetry_group_IT_number 68
_space_group.IT_coordinate_system_code '2'
_symmetry_cell_setting 'orthorhombic'
loop_
_space_group_symop_operation_xyz
x,y,z
-x,1/2-y,z
x,1/2-y,1/2-z
-x,y,1/2-z
-x,-y,-z
x,1/2+y,-z
-x,1/2+y,1/2+z
x,-y,1/2+z
1/2+x,1/2+y,z
1/2-x,-y,z
1/2+x,-y,1/2-z
1/2-x,1/2+y,1/2-z
1/2-x,1/2-y,-z
1/2+x,y,-z
1/2-x,y,1/2+z
1/2+x,1/2-y,1/2+z
loop_
_atom_site_type_symbol
_atom_site_label
_atom_site_fract_x
_atom_site_fract_y
_atom_site_fract_z
Si Si1 0.750000 0.000000 0.164482
Si Si2 0.907654 0.587936 0.476587
Si Si3 0.155984 0.650486 0.409479
Si Si4 0.000000 0.555322 0.750000
Si Si5 0.350788 0.303489 0.694197
O O1 0.641494 0.973600 0.259328
O O2 0.846558 0.960955 0.086273
O O3 0.773898 0.615638 0.531097
O O4 0.007001 0.579958 0.606669
O O5 0.011690 0.621842 0.392653
O O6 0.223812 0.670217 0.270839
O O7 0.144991 0.689711 0.531228
O O8 0.342352 0.250000 0.750000
O O9 0.500000 0.322394 0.750000
#
# Coordination Sequence:
#
# PCOD9510610 Si02
#       5
#     8  16  16   8  16
#     4  12  28  44  70 102 142 198 244 308 366 432
#     4  12  26  46  69 103 146 190 250 297 367 432
#     4  12  25  47  76 107 145 196 244 304 364 449
#     4  12  26  46  66  96 143 188 243 306 366 428
#     4  11  25  49  76 111 151 191 242 311 380 444
#
# _framework density 24.093859999999999
#
# number of rings (size 3 to 8) (size 9 to 14) (size 15 to 20)
#    0.000    0.250    5.000    3.750    3.500    1.000 
#    0.000    1.250    0.000    0.000    0.000    0.000 
#    0.000    0.000    0.000    0.000    0.000    0.000 
#
# Total GULP energy -178855.243447 kJ/mol
# GULP energy per Si atom -5589.226358 kJ/mol
# Density = 2.403902 g / cm^3
# Si number density = 24.093860 Si / 1000 Ang^3
#
#
#
# Elastic Constant Matrix: (Units=GPa)
#
#
# Indices 1 2 3 4 5 6 
#
# 1 147.0221 38.4918 31.6095 0.0000 0.0000 0.0000
# 2 38.4918 89.7518 28.7557 0.0000 0.0000 0.0000
# 3 31.6095 28.7557 129.4300 0.0000 0.0000 0.0000
# 4 0.0000 0.0000 0.0000 84.6737 0.0000 0.0000
# 5 0.0000 0.0000 0.0000 0.0000 42.2817 0.0000
# 6 0.0000 0.0000 0.0000 0.0000 0.0000 44.1790
#
#
#
# Elastic Compliance Matrix: (Units=1/GPa)
#
#
# Indices 1 2 3 4 5 6 
#
# 1 0.007848 -0.002963 -0.001258 0.000000 0.000000 0.000000
# 2 -0.002963 0.013114 -0.002190 0.000000 0.000000 0.000000
# 3 -0.001258 -0.002190 0.008520 0.000000 0.000000 0.000000
# 4 0.000000 0.000000 0.000000 0.011810 0.000000 0.000000
# 5 0.000000 0.000000 0.000000 0.000000 0.023651 0.000000
# 6 0.000000 0.000000 0.000000 0.000000 0.000000 0.022635
#
#
# Mechanical properties :
#
#
# Convention : Reuss Voigt Hill
#
# Bulk Modulus (GPa) = 60.02403 62.65753 61.34078
# Shear Modulus (GPa) = 47.19053 52.05002 49.62027
#
# Velocity S-wave (km/s) = 4.43042 4.65295 4.54305
# Velocity P-wave (km/s) = 7.15110 7.41138 7.28240
#
# Compressibility (1/GPa) = 0.01665999
#
# Stress axis : x y z
#
# Youngs Moduli (GPa) = 127.42302 76.25411 117.36968
#
# Poissons Ratio (x) = 0.22590 0.14770
# Poissons Ratio (y) = 0.37749 0.25705
# Poissons Ratio (z) = 0.16035 0.16700
#
# Static dielectric constant tensor:
#      x y z
#    x 1.926000 0.000000 0.000000 
#    y 0.000000 2.013170 0.000000 
#    z 0.000000 0.000000 1.916790 
# 
# From -- ./inp_files/10816.got.cif
#   From: 2010.05.17/outbox.cif.g08.bks.cpg/sg68_6_cif.got.tgz:10816.got - 2010.06.03 18:57:09.
