data_PCOD9510162
_publ_section_title
;
Structure prediction by ZEFSAII (Michael W. Deem and Ramdas Pophale) SiO2 
 PCOD9510162
Probable space group: C C C A
;
_chemical_formula_sum "Si O2"
_cell_formula_units_Z 104
_cell_length_a 30.068580
_cell_length_b 8.815650
_cell_length_c 18.524500
_cell_angle_alpha 90.000000
_cell_angle_beta 90.000000
_cell_angle_gamma 90.000000
_cell_volume 4910.364745
_symmetry_space_group_name_H-M "C C C A"
_symmetry_group_IT_number 68
_space_group.IT_coordinate_system_code '2'
_symmetry_cell_setting 'orthorhombic'
loop_
_space_group_symop_operation_xyz
x,y,z
-x,1/2-y,z
x,1/2-y,1/2-z
-x,y,1/2-z
-x,-y,-z
x,1/2+y,-z
-x,1/2+y,1/2+z
x,-y,1/2+z
1/2+x,1/2+y,z
1/2-x,-y,z
1/2+x,-y,1/2-z
1/2-x,1/2+y,1/2-z
1/2-x,1/2-y,-z
1/2+x,y,-z
1/2-x,y,1/2+z
1/2+x,1/2-y,1/2+z
loop_
_atom_site_type_symbol
_atom_site_label
_atom_site_fract_x
_atom_site_fract_y
_atom_site_fract_z
Si Si1 0.084992 0.925713 0.087793
Si Si2 0.832228 0.814200 0.321387
Si Si3 0.331843 0.951644 0.920882
Si Si4 0.493806 0.069340 0.667115
Si Si5 0.707547 0.221255 0.949801
Si Si6 0.430105 0.574429 0.568387
Si Si7 0.750000 0.000000 0.333679
O O1 0.133803 0.898800 0.123654
O O2 0.067260 0.755926 0.072340
O O3 0.054786 0.014951 0.144090
O O4 0.077084 0.014297 0.012861
O O5 0.856061 0.750000 0.250000
O O6 0.812563 0.672542 0.366390
O O7 0.790578 0.914871 0.295468
O O8 0.382786 0.969154 0.896660
O O9 0.310304 0.115767 0.925768
O O10 0.326986 0.870630 0.999373
O O11 0.500000 0.250000 0.662683
O O12 0.500000 0.021581 0.750000
O O13 0.529049 0.996385 0.611544
O O14 0.724263 0.118666 0.884811
O O15 0.750000 0.250000 0.000000
#
# Coordination Sequence:
#
# PCOD9510162 Si02
#       7
#    16  16  16  16  16  16   8
#     4  11  24  44  74  99 146 175 241 295 351 430
#     4  11  27  45  66  97 139 192 237 289 360 432
#     4  11  22  39  66  98 136 172 231 285 342 419
#     4  11  26  45  70 103 145 186 230 286 357 430
#     4  12  20  37  67 100 133 174 230 296 358 404
#     4  11  23  41  70 105 130 184 229 291 350 411
#     4  12  24  40  64  96 134 176 236 290 350 422
#
# _framework density 21.179690999999998
#
# number of rings (size 3 to 8) (size 9 to 14) (size 15 to 20)
#    0.000    0.769    3.077    4.615    4.308    3.077 
#    0.000    0.000    3.385    0.000    0.000    0.000 
#    0.000    0.000    0.000    0.000    0.000    0.000 
#
# Total GULP energy -290490.699754 kJ/mol
# GULP energy per Si atom -5586.359611 kJ/mol
# Density = 2.113149 g / cm^3
# Si number density = 21.179691 Si / 1000 Ang^3
#
#
#
# Elastic Constant Matrix: (Units=GPa)
#
#
# Indices 1 2 3 4 5 6 
#
# 1 72.1901 39.4576 21.6928 0.0000 0.0000 0.0000
# 2 39.4576 114.9698 30.7246 0.0000 0.0000 0.0000
# 3 21.6928 30.7246 102.3026 0.0000 0.0000 0.0000
# 4 0.0000 0.0000 0.0000 9.8696 0.0000 0.0000
# 5 0.0000 0.0000 0.0000 0.0000 16.5188 0.0000
# 6 0.0000 0.0000 0.0000 0.0000 0.0000 28.6765
#
#
#
# Elastic Compliance Matrix: (Units=1/GPa)
#
#
# Indices 1 2 3 4 5 6 
#
# 1 0.017444 -0.005434 -0.002067 0.000000 0.000000 0.000000
# 2 -0.005434 0.011150 -0.002196 0.000000 0.000000 0.000000
# 3 -0.002067 -0.002196 0.010873 0.000000 0.000000 0.000000
# 4 0.000000 0.000000 0.000000 0.101321 0.000000 0.000000
# 5 0.000000 0.000000 0.000000 0.000000 0.060537 0.000000
# 6 0.000000 0.000000 0.000000 0.000000 0.000000 0.034872
#
#
# Mechanical properties :
#
#
# Convention : Reuss Voigt Hill
#
# Bulk Modulus (GPa) = 49.82178 52.57916 51.20047
# Shear Modulus (GPa) = 19.06347 24.18548 21.62447
#
# Velocity S-wave (km/s) = 3.00339 3.38289 3.19878
# Velocity P-wave (km/s) = 5.96671 6.33544 6.15384
#
# Compressibility (1/GPa) = 0.02007155
#
# Stress axis : x y z
#
# Youngs Moduli (GPa) = 57.32736 89.68653 91.97267
#
# Poissons Ratio (x) = 0.48739 0.19009
# Poissons Ratio (y) = 0.31154 0.20200
# Poissons Ratio (z) = 0.11848 0.19698
#
# Static dielectric constant tensor:
#      x y z
#    x 1.881020 0.000000 0.000000 
#    y 0.000000 1.659860 0.000000 
#    z 0.000000 0.000000 1.780340 
# 
# From -- ./inp_files/41572.got.cif
#   From: 2010.05.17/outbox.cif.g08.bks.cpg/sg68_21_cif.got.tgz:41572.got - 2010.06.03 18:57:09.
