data_PCOD9510475
_publ_section_title
;
Structure prediction by ZEFSAII (Michael W. Deem and Ramdas Pophale) SiO2 
 PCOD9510475
Probable space group: C C C A
;
_chemical_formula_sum "Si O2"
_cell_formula_units_Z 128
_cell_length_a 19.089519
_cell_length_b 24.844142
_cell_length_c 10.526197
_cell_angle_alpha 90.000000
_cell_angle_beta 90.000000
_cell_angle_gamma 90.000000
_cell_volume 4992.182828
_symmetry_space_group_name_H-M "C C C A"
_symmetry_group_IT_number 68
_space_group.IT_coordinate_system_code '2'
_symmetry_cell_setting 'orthorhombic'
loop_
_space_group_symop_operation_xyz
x,y,z
-x,1/2-y,z
x,1/2-y,1/2-z
-x,y,1/2-z
-x,-y,-z
x,1/2+y,-z
-x,1/2+y,1/2+z
x,-y,1/2+z
1/2+x,1/2+y,z
1/2-x,-y,z
1/2+x,-y,1/2-z
1/2-x,1/2+y,1/2-z
1/2-x,1/2-y,-z
1/2+x,y,-z
1/2-x,y,1/2+z
1/2+x,1/2-y,1/2+z
loop_
_atom_site_type_symbol
_atom_site_label
_atom_site_fract_x
_atom_site_fract_y
_atom_site_fract_z
Si Si1 0.077403 0.851420 0.457982
Si Si2 0.073478 0.611692 0.789940
Si Si3 0.664801 0.954414 0.618527
Si Si4 0.427143 0.881667 0.595213
Si Si5 0.796661 0.723303 0.888324
Si Si6 0.889896 0.233246 0.880177
Si Si7 0.804956 0.606372 0.915062
Si Si8 0.602006 0.003572 0.365896
O O1 0.110905 0.854420 0.598746
O O2 0.118401 0.898494 0.381332
O O3 0.074863 0.790485 0.410068
O O4 0.997984 0.870333 0.482567
O O5 0.129330 0.603716 0.679240
O O6 0.060660 0.551054 0.838661
O O7 0.000000 0.636790 0.750000
O O8 0.656040 0.985143 0.751317
O O9 0.755856 0.063194 0.592094
O O10 0.635966 0.990990 0.503015
O O11 0.423030 0.823613 0.663379
O O12 0.346594 0.890025 0.547904
O O13 0.443342 0.942465 0.638257
O O14 0.805361 0.750000 0.750000
O O15 0.768698 0.662774 0.877293
O O16 0.750000 0.750000 0.000000
O O17 0.866283 0.718306 0.975321
O O18 0.846453 0.250000 0.750000
#
# Coordination Sequence:
#
# PCOD9510475 Si02
#       8
#    16  16  16  16  16  16  16  16
#     4  11  24  45  74 111 150 198 253 322 388 462
#     4  11  24  44  75 105 150 199 256 321 387 460
#     4  11  27  46  76 106 153 195 254 317 387 459
#     4  11  25  43  72 107 149 194 258 312 387 462
#     4  11  24  44  74 109 153 204 258 318 386 465
#     4  11  24  44  71 108 152 198 250 315 385 464
#     4  11  25  47  72 111 151 201 258 317 389 466
#     4  11  27  46  73 108 147 200 255 318 387 464
#
# _framework density 25.640084999999999
#
# number of rings (size 3 to 8) (size 9 to 14) (size 15 to 20)
#    0.000    1.000    1.250    3.750    1.750   11.000 
#    0.000    0.000    0.000    0.000    0.000    0.000 
#    0.000    0.000    0.000    0.000    0.000    0.000 
#
# Total GULP energy -356592.048308 kJ/mol
# GULP energy per Si atom -5571.750755 kJ/mol
# Density = 2.558173 g / cm^3
# Si number density = 25.640085 Si / 1000 Ang^3
#
#
#
# Elastic Constant Matrix: (Units=GPa)
#
#
# Indices 1 2 3 4 5 6 
#
# 1 71.2824 19.4991 12.2942 0.0000 0.0000 0.0000
# 2 19.4991 179.5367 46.5698 0.0000 0.0000 0.0000
# 3 12.2942 46.5698 132.7253 0.0000 0.0000 0.0000
# 4 0.0000 0.0000 0.0000 24.8723 0.0000 0.0000
# 5 0.0000 0.0000 0.0000 0.0000 21.5504 0.0000
# 6 0.0000 0.0000 0.0000 0.0000 0.0000 27.2839
#
#
#
# Elastic Compliance Matrix: (Units=1/GPa)
#
#
# Indices 1 2 3 4 5 6 
#
# 1 0.014550 -0.001354 -0.000873 0.000000 0.000000 0.000000
# 2 -0.001354 0.006254 -0.002069 0.000000 0.000000 0.000000
# 3 -0.000873 -0.002069 0.008341 0.000000 0.000000 0.000000
# 4 0.000000 0.000000 0.000000 0.040205 0.000000 0.000000
# 5 0.000000 0.000000 0.000000 0.000000 0.046403 0.000000
# 6 0.000000 0.000000 0.000000 0.000000 0.000000 0.036652
#
#
# Mechanical properties :
#
#
# Convention : Reuss Voigt Hill
#
# Bulk Modulus (GPa) = 48.65340 60.03007 54.34174
# Shear Modulus (GPa) = 29.78924 35.08674 32.43799
#
# Velocity S-wave (km/s) = 3.41225 3.70325 3.56072
# Velocity P-wave (km/s) = 5.87719 6.46133 6.17617
#
# Compressibility (1/GPa) = 0.02055355
#
# Stress axis : x y z
#
# Youngs Moduli (GPa) = 68.73061 159.90914 119.88852
#
# Poissons Ratio (x) = 0.21649 0.10463
# Poissons Ratio (y) = 0.09305 0.24803
# Poissons Ratio (z) = 0.05998 0.33082
#
# Static dielectric constant tensor:
#      x y z
#    x 2.004130 0.000000 0.000000 
#    y 0.000000 2.015460 0.000000 
#    z 0.000000 0.000000 2.171860 
# 
# From -- ./inp_files/16699.got.cif
#   From: 2010.05.17/outbox.cif.g08.bks.cpg/sg68_9_cif.got.tgz:16699.got - 2010.06.03 18:57:09.
