data_PCOD9510042
_publ_section_title
;
Structure prediction by ZEFSAII (Michael W. Deem and Ramdas Pophale) SiO2 
 PCOD9510042
Probable space group: C C C A
;
_chemical_formula_sum "Si O2"
_cell_formula_units_Z 112
_cell_length_a 15.195581
_cell_length_b 11.726497
_cell_length_c 23.845927
_cell_angle_alpha 90.000000
_cell_angle_beta 90.000000
_cell_angle_gamma 90.000000
_cell_volume 4249.128028
_symmetry_space_group_name_H-M "C C C A"
_symmetry_group_IT_number 68
_space_group.IT_coordinate_system_code '2'
_symmetry_cell_setting 'orthorhombic'
loop_
_space_group_symop_operation_xyz
x,y,z
-x,1/2-y,z
x,1/2-y,1/2-z
-x,y,1/2-z
-x,-y,-z
x,1/2+y,-z
-x,1/2+y,1/2+z
x,-y,1/2+z
1/2+x,1/2+y,z
1/2-x,-y,z
1/2+x,-y,1/2-z
1/2-x,1/2+y,1/2-z
1/2-x,1/2-y,-z
1/2+x,y,-z
1/2-x,y,1/2+z
1/2+x,1/2-y,1/2+z
loop_
_atom_site_type_symbol
_atom_site_label
_atom_site_fract_x
_atom_site_fract_y
_atom_site_fract_z
Si Si1 0.724309 0.381983 0.485324
Si Si2 0.850115 0.980731 0.315686
Si Si3 0.441214 0.583356 0.413667
Si Si4 0.873718 0.717278 0.312580
Si Si5 0.461136 0.631030 0.574302
Si Si6 0.174507 0.639634 0.713290
Si Si7 0.627349 0.317065 0.909614
O O1 0.750000 0.500000 0.518578
O O2 0.750000 0.250000 0.500000
O O3 0.625040 0.391108 0.462727
O O4 0.792028 0.387393 0.432891
O O5 0.862982 0.848537 0.331756
O O6 0.750000 0.000000 0.334784
O O7 0.920553 0.055080 0.348801
O O8 0.848877 0.030281 0.251813
O O9 0.459775 0.457466 0.435982
O O10 0.369048 0.681620 0.423849
O O11 0.533746 0.638829 0.429517
O O12 0.908483 0.750000 0.250000
O O13 0.928224 0.648182 0.360014
O O14 0.778099 0.658929 0.303103
O O15 0.500000 0.750000 0.556913
O O16 0.154055 0.750000 0.750000
O O17 0.123858 0.655034 0.655985
#
# Coordination Sequence:
#
# PCOD9510042 Si02
#       7
#    16  16  16  16  16  16  16
#     4  12  29  57  88 121 149 201 265 331 424 506
#     4  12  22  38  61  99 155 205 264 308 372 442
#     4  11  25  42  70 110 150 201 251 317 385 459
#     4  11  23  39  62 100 148 209 257 301 371 456
#     4  12  26  49  77 116 159 203 256 332 401 475
#     4  11  21  38  63  99 145 207 262 306 360 454
#     4  11  24  48  75 104 153 200 261 320 392 477
#
# _framework density 26.358350000000002
#
# number of rings (size 3 to 8) (size 9 to 14) (size 15 to 20)
#    0.000    0.571    8.571    0.000    2.000    2.571 
#    2.571    1.429    0.000    0.000    0.000    0.000 
#    0.000    0.000    0.000    0.000    0.000    0.000 
#
# Total GULP energy -312484.431650 kJ/mol
# GULP energy per Si atom -5580.079137 kJ/mol
# Density = 2.629836 g / cm^3
# Si number density = 26.358350 Si / 1000 Ang^3
#
#
#
# Elastic Constant Matrix: (Units=GPa)
#
#
# Indices 1 2 3 4 5 6 
#
# 1 86.5531 34.2997 11.1801 0.0000 0.0000 0.0000
# 2 34.2997 189.8015 24.0968 0.0000 0.0000 0.0000
# 3 11.1801 24.0968 98.9032 0.0000 0.0000 0.0000
# 4 0.0000 0.0000 0.0000 11.5635 0.0000 0.0000
# 5 0.0000 0.0000 0.0000 0.0000 -1.0640 0.0000
# 6 0.0000 0.0000 0.0000 0.0000 0.0000 36.2964
#
#
#
# Elastic Compliance Matrix: (Units=1/GPa)
#
#
# Indices 1 2 3 4 5 6 
#
# 1 0.012521 -0.002149 -0.000892 0.000000 0.000000 0.000000
# 2 -0.002149 0.005806 -0.001172 0.000000 0.000000 0.000000
# 3 -0.000892 -0.001172 0.010497 0.000000 0.000000 0.000000
# 4 0.000000 0.000000 0.000000 0.086479 0.000000 0.000000
# 5 0.000000 0.000000 0.000000 0.000000 -0.939852 0.000000
# 6 0.000000 0.000000 0.000000 0.000000 0.000000 0.027551
#
#
# Mechanical properties :
#
#
# Convention : Reuss Voigt Hill
#
# Bulk Modulus (GPa) = 49.02383 57.15679 53.09031
# Shear Modulus (GPa) = -6.39571 29.73793 11.67111
#
# Velocity S-wave (km/s) = -1.55940 3.36254 2.10653
# Velocity P-wave (km/s) = 3.92391 6.06689 5.10902
#
# Compressibility (1/GPa) = 0.02039824
#
# Stress axis : x y z
#
# Youngs Moduli (GPa) = 79.86861 172.24057 95.26415
#
# Poissons Ratio (x) = 0.37022 0.08494
# Poissons Ratio (y) = 0.17167 0.11161
# Poissons Ratio (z) = 0.07121 0.20179
#
# Static dielectric constant tensor:
#      x y z
#    x 2.179970 0.000000 0.000000 
#    y 0.000000 1.943660 0.000000 
#    z 0.000000 0.000000 2.162290 
# 
# From -- ./inp_files/55270.got.cif
#   From: 2010.05.17/outbox.cif.g08.bks.cpg/sg68_28_cif.got.tgz:55270.got - 2010.06.03 18:57:09.
