data_PCOD9510669
_publ_section_title
;
Structure prediction by ZEFSAII (Michael W. Deem and Ramdas Pophale) SiO2 
 PCOD9510669
Probable space group: C C C A
;
_chemical_formula_sum "Si O2"
_cell_formula_units_Z 56
_cell_length_a 16.426251
_cell_length_b 8.945493
_cell_length_c 16.759977
_cell_angle_alpha 90.000000
_cell_angle_beta 90.000000
_cell_angle_gamma 90.000000
_cell_volume 2462.726328
_symmetry_space_group_name_H-M "C C C A"
_symmetry_group_IT_number 68
_space_group.IT_coordinate_system_code '2'
_symmetry_cell_setting 'orthorhombic'
loop_
_space_group_symop_operation_xyz
x,y,z
-x,1/2-y,z
x,1/2-y,1/2-z
-x,y,1/2-z
-x,-y,-z
x,1/2+y,-z
-x,1/2+y,1/2+z
x,-y,1/2+z
1/2+x,1/2+y,z
1/2-x,-y,z
1/2+x,-y,1/2-z
1/2-x,1/2+y,1/2-z
1/2-x,1/2-y,-z
1/2+x,y,-z
1/2-x,y,1/2+z
1/2+x,1/2-y,1/2+z
loop_
_atom_site_type_symbol
_atom_site_label
_atom_site_fract_x
_atom_site_fract_y
_atom_site_fract_z
Si Si1 0.813417 0.188691 0.936529
Si Si2 0.750000 0.500000 0.201271
Si Si3 0.915304 0.582891 0.783619
Si Si4 0.413541 0.478495 0.041254
O O1 0.767782 0.142734 0.855770
O O2 0.884431 0.313780 0.931477
O O3 0.750000 0.250000 0.000000
O O4 0.851415 0.040588 0.975455
O O5 0.831722 0.487153 0.252358
O O6 0.914670 0.750000 0.750000
O O7 0.914370 0.577495 0.878909
O O8 0.000000 0.512763 0.750000
O O9 0.500000 0.500000 0.000000
#
# Coordination Sequence:
#
# PCOD9510669 Si02
#       4
#    16   8  16  16
#     4  12  25  45  75 107 145 193 256 308 387 464
#     4  12  26  46  76 110 154 196 260 324 392 464
#     4  11  28  46  73 107 154 199 251 316 399 460
#     4  12  27  47  75 110 148 199 256 321 385 474
#
# _framework density 22.739028000000001
#
# number of rings (size 3 to 8) (size 9 to 14) (size 15 to 20)
#    0.000    0.286    2.857    4.286   16.000    0.000 
#    0.000    1.429    0.000    0.000    0.000    0.000 
#    0.000    0.000    0.000    0.000    0.000    0.000 
#
# Total GULP energy -156722.482317 kJ/mol
# GULP energy per Si atom -5597.231511 kJ/mol
# Density = 2.268727 g / cm^3
# Si number density = 22.739028 Si / 1000 Ang^3
#
#
#
# Elastic Constant Matrix: (Units=GPa)
#
#
# Indices 1 2 3 4 5 6 
#
# 1 191.7620 19.7296 57.5446 0.0000 0.0000 0.0000
# 2 19.7296 78.3544 14.3822 0.0000 0.0000 0.0000
# 3 57.5446 14.3822 129.4034 0.0000 0.0000 0.0000
# 4 0.0000 0.0000 0.0000 29.4509 0.0000 0.0000
# 5 0.0000 0.0000 0.0000 0.0000 54.1166 0.0000
# 6 0.0000 0.0000 0.0000 0.0000 0.0000 37.3985
#
#
#
# Elastic Compliance Matrix: (Units=1/GPa)
#
#
# Indices 1 2 3 4 5 6 
#
# 1 0.006103 -0.001060 -0.002596 0.000000 0.000000 0.000000
# 2 -0.001060 0.013212 -0.000997 0.000000 0.000000 0.000000
# 3 -0.002596 -0.000997 0.008993 0.000000 0.000000 0.000000
# 4 0.000000 0.000000 0.000000 0.033955 0.000000 0.000000
# 5 0.000000 0.000000 0.000000 0.000000 0.018479 0.000000
# 6 0.000000 0.000000 0.000000 0.000000 0.000000 0.026739
#
#
# Mechanical properties :
#
#
# Convention : Reuss Voigt Hill
#
# Bulk Modulus (GPa) = 52.62639 64.75917 58.69278
# Shear Modulus (GPa) = 40.61030 44.71742 42.66386
#
# Velocity S-wave (km/s) = 4.23061 4.43939 4.33626
# Velocity P-wave (km/s) = 6.85988 7.40397 7.13711
#
# Compressibility (1/GPa) = 0.01900187
#
# Stress axis : x y z
#
# Youngs Moduli (GPa) = 163.85606 75.68601 111.19710
#
# Poissons Ratio (x) = 0.08024 0.28868
# Poissons Ratio (y) = 0.17372 0.11086
# Poissons Ratio (z) = 0.42538 0.07546
#
# Static dielectric constant tensor:
#      x y z
#    x 1.877970 0.000000 0.000000 
#    y 0.000000 1.887800 0.000000 
#    z 0.000000 0.000000 1.790210 
# 
# From -- ./inp_files/21595.got.cif
#   From: 2010.05.17/outbox.cif.g08.bks.cpg/sg68_11_cif.got.tgz:21595.got - 2010.06.03 18:57:09.
