data_PCOD9510170
_publ_section_title
;
Structure prediction by ZEFSAII (Michael W. Deem and Ramdas Pophale) SiO2 
 PCOD9510170
Probable space group: C C C A
;
_chemical_formula_sum "Si O2"
_cell_formula_units_Z 116
_cell_length_a 27.600202
_cell_length_b 10.907991
_cell_length_c 16.216608
_cell_angle_alpha 90.000000
_cell_angle_beta 90.000000
_cell_angle_gamma 90.000000
_cell_volume 4882.216681
_symmetry_space_group_name_H-M "C C C A"
_symmetry_group_IT_number 68
_space_group.IT_coordinate_system_code '2'
_symmetry_cell_setting 'orthorhombic'
loop_
_space_group_symop_operation_xyz
x,y,z
-x,1/2-y,z
x,1/2-y,1/2-z
-x,y,1/2-z
-x,-y,-z
x,1/2+y,-z
-x,1/2+y,1/2+z
x,-y,1/2+z
1/2+x,1/2+y,z
1/2-x,-y,z
1/2+x,-y,1/2-z
1/2-x,1/2+y,1/2-z
1/2-x,1/2-y,-z
1/2+x,y,-z
1/2-x,y,1/2+z
1/2+x,1/2-y,1/2+z
loop_
_atom_site_type_symbol
_atom_site_label
_atom_site_fract_x
_atom_site_fract_y
_atom_site_fract_z
Si Si1 0.836942 0.218656 0.655635
Si Si2 0.268472 0.122328 0.043311
Si Si3 0.500000 0.750000 0.750000
Si Si4 0.344522 0.838391 0.405474
Si Si5 0.842175 0.443351 0.095661
Si Si6 0.071587 0.939007 0.995089
Si Si7 0.442820 0.810056 0.912989
Si Si8 0.195580 0.476511 0.229687
O O1 0.849208 0.250000 0.750000
O O2 0.799528 0.318620 0.619675
O O3 0.885023 0.202763 0.602515
O O4 0.813564 0.085083 0.664517
O O5 0.215498 0.053390 0.065790
O O6 0.250000 0.250000 0.000000
O O7 0.309403 0.099972 0.971857
O O8 0.466127 0.816215 0.820004
O O9 0.353268 0.697011 0.421300
O O10 0.315835 0.854483 0.320711
O O11 0.397306 0.898001 0.414605
O O12 0.886791 0.518998 0.059565
O O13 0.839151 0.471714 0.192330
O O14 0.046751 0.818769 0.037396
O O15 0.046883 0.065738 0.964964
O O16 0.250000 0.500000 0.257322
#
# Coordination Sequence:
#
# PCOD9510170 Si02
#       8
#    16  16   4  16  16  16  16  16
#     4  12  22  40  68  91 138 193 241 295 358 431
#     4  11  24  38  58  93 131 184 246 301 347 410
#     4  12  32  48  88 118 148 178 232 302 376 492
#     4  11  23  39  62  97 133 194 238 298 352 415
#     4  11  22  40  60  95 132 190 243 293 353 413
#     4  11  22  43  80 105 145 185 243 289 365 453
#     4  12  24  50  77 116 144 190 241 298 376 454
#     4  12  26  39  57  96 141 193 252 311 356 402
#
# _framework density 23.759699000000001
#
# number of rings (size 3 to 8) (size 9 to 14) (size 15 to 20)
#    0.000    0.552    7.586    1.241    3.862    1.103 
#    0.000    0.000    0.000    0.828    0.000    0.000 
#    0.000    0.000    0.000    0.000    0.000    0.000 
#
# Total GULP energy -323470.335535 kJ/mol
# GULP energy per Si atom -5577.074751 kJ/mol
# Density = 2.370562 g / cm^3
# Si number density = 23.759699 Si / 1000 Ang^3
#
#
#
# Elastic Constant Matrix: (Units=GPa)
#
#
# Indices 1 2 3 4 5 6 
#
# 1 74.8665 53.2564 30.6586 0.0000 0.0000 0.0000
# 2 53.2564 146.7466 50.1303 0.0000 0.0000 0.0000
# 3 30.6586 50.1303 132.2658 0.0000 0.0000 0.0000
# 4 0.0000 0.0000 0.0000 47.3165 0.0000 0.0000
# 5 0.0000 0.0000 0.0000 0.0000 39.4126 0.0000
# 6 0.0000 0.0000 0.0000 0.0000 0.0000 35.8405
#
#
#
# Elastic Compliance Matrix: (Units=1/GPa)
#
#
# Indices 1 2 3 4 5 6 
#
# 1 0.018454 -0.006015 -0.001998 0.000000 0.000000 0.000000
# 2 -0.006015 0.009788 -0.002316 0.000000 0.000000 0.000000
# 3 -0.001998 -0.002316 0.008901 0.000000 0.000000 0.000000
# 4 0.000000 0.000000 0.000000 0.021134 0.000000 0.000000
# 5 0.000000 0.000000 0.000000 0.000000 0.025373 0.000000
# 6 0.000000 0.000000 0.000000 0.000000 0.000000 0.027901
#
#
# Mechanical properties :
#
#
# Convention : Reuss Voigt Hill
#
# Bulk Modulus (GPa) = 60.65403 69.10772 64.88088
# Shear Modulus (GPa) = 36.30979 39.16949 37.73964
#
# Velocity S-wave (km/s) = 3.91347 4.06466 3.98978
# Velocity P-wave (km/s) = 6.78262 7.15387 6.97072
#
# Compressibility (1/GPa) = 0.01648695
#
# Stress axis : x y z
#
# Youngs Moduli (GPa) = 54.18941 102.16226 112.34285
#
# Poissons Ratio (x) = 0.61447 0.22445
# Poissons Ratio (y) = 0.32593 0.26016
# Poissons Ratio (z) = 0.10826 0.23658
#
# Static dielectric constant tensor:
#      x y z
#    x 1.992370 0.000000 0.000000 
#    y 0.000000 2.099760 0.000000 
#    z 0.000000 0.000000 1.940620 
# 
# From -- ./inp_files/34176.got.cif
#   From: 2010.05.17/outbox.cif.g08.bks.cpg/sg68_18_cif.got.tgz:34176.got - 2010.06.03 18:57:09.
