data_PCOD9510979
_publ_section_title
;
Structure prediction by ZEFSAII (Michael W. Deem and Ramdas Pophale) SiO2 
 PCOD9510979
Probable space group: F M M M
;
_chemical_formula_sum "Si O2"
_cell_formula_units_Z 128
_cell_length_a 24.056513
_cell_length_b 18.084630
_cell_length_c 15.363408
_cell_angle_alpha 90.000000
_cell_angle_beta 90.000000
_cell_angle_gamma 90.000000
_cell_volume 6683.898841
_symmetry_space_group_name_H-M "F M M M"
_symmetry_group_IT_number 69
_symmetry_cell_setting 'orthorhombic'
loop_
_space_group_symop_operation_xyz
x,y,z
-x,-y,z
x,-y,-z
-x,y,-z
-x,-y,-z
x,y,-z
-x,y,z
x,-y,z
x,1/2+y,1/2+z
-x,1/2-y,1/2+z
x,1/2-y,1/2-z
-x,1/2+y,1/2-z
-x,1/2-y,1/2-z
x,1/2+y,1/2-z
-x,1/2+y,1/2+z
x,1/2-y,1/2+z
1/2+x,y,1/2+z
1/2-x,-y,1/2+z
1/2+x,-y,1/2-z
1/2-x,y,1/2-z
1/2-x,-y,1/2-z
1/2+x,y,1/2-z
1/2-x,y,1/2+z
1/2+x,-y,1/2+z
1/2+x,1/2+y,z
1/2-x,1/2-y,z
1/2+x,1/2-y,-z
1/2-x,1/2+y,-z
1/2-x,1/2-y,-z
1/2+x,1/2+y,-z
1/2-x,1/2+y,z
1/2+x,1/2-y,z
loop_
_atom_site_type_symbol
_atom_site_label
_atom_site_fract_x
_atom_site_fract_y
_atom_site_fract_z
Si Si1 0.000000 0.412283 0.649894
Si Si2 0.619792 0.286867 0.653331
Si Si3 0.500000 0.320082 0.683695
Si Si4 0.185532 0.584524 0.231078
Si Si5 0.377268 0.129459 0.594575
O O1 0.000000 0.390067 0.751732
O O2 0.056436 0.379432 0.609705
O O3 0.000000 0.500000 0.637647
O O4 0.617588 0.250000 0.750000
O O5 0.557549 0.314306 0.632545
O O6 0.660348 0.356086 0.664188
O O7 0.636428 0.216811 0.596519
O O8 0.500000 0.250000 0.750000
O O9 0.179911 0.500000 0.200911
O O10 0.250000 0.600227 0.250000
O O11 0.152545 0.593165 0.322561
O O12 0.362665 0.098126 0.500000
#
# Coordination Sequence:
#
# PCOD9510979 Si02
#       5
#    16  32  16  32  32
#     4  12  21  31  52  88 122 146 174 218 284 347
#     4   9  17  32  54  74 105 144 184 215 256 321
#     4  10  14  30  52  75 107 145 181 213 246 321
#     4  10  21  37  56  78 105 142 188 234 277 323
#     4  11  22  35  54  84 118 146 175 222 287 340
#
# _framework density 19.150500000000001
#
# number of rings (size 3 to 8) (size 9 to 14) (size 15 to 20)
#    0.000    1.750    7.500    1.125    0.000    7.000 
#    0.000    2.500    0.000    2.250    0.000    0.000 
#    0.000    5.000    0.000    0.000    0.000    0.000 
#
# Total GULP energy -178428.910045 kJ/mol
# GULP energy per Si atom -5575.903439 kJ/mol
# Density = 1.910691 g / cm^3
# Si number density = 19.150500 Si / 1000 Ang^3
#
#
#
# Elastic Constant Matrix: (Units=GPa)
#
#
# Indices 1 2 3 4 5 6 
#
# 1 101.4322 47.2933 -10.5160 0.0000 0.0000 0.0000
# 2 47.2933 124.5647 -8.2906 0.0000 0.0000 0.0000
# 3 -10.5160 -8.2906 27.3383 0.0000 0.0000 0.0000
# 4 0.0000 0.0000 0.0000 6.7332 0.0000 0.0000
# 5 0.0000 0.0000 0.0000 0.0000 -2.3234 0.0000
# 6 0.0000 0.0000 0.0000 0.0000 0.0000 28.0295
#
#
#
# Elastic Compliance Matrix: (Units=1/GPa)
#
#
# Indices 1 2 3 4 5 6 
#
# 1 0.012278 -0.004437 0.003377 0.000000 0.000000 0.000000
# 2 -0.004437 0.009797 0.001264 0.000000 0.000000 0.000000
# 3 0.003377 0.001264 0.038261 0.000000 0.000000 0.000000
# 4 0.000000 0.000000 0.000000 0.148518 0.000000 0.000000
# 5 0.000000 0.000000 0.000000 0.000000 -0.430396 0.000000
# 6 0.000000 0.000000 0.000000 0.000000 0.000000 0.035677
#
#
# Mechanical properties :
#
#
# Convention : Reuss Voigt Hill
#
# Bulk Modulus (GPa) = 16.46220 34.47874 25.47047
# Shear Modulus (GPa) = -30.11545 21.47774 -4.31885
#
# Velocity S-wave (km/s) = -3.96986 3.35255 -1.50337
# Velocity P-wave (km/s) = 3.52111 5.74711 3.21178
#
# Compressibility (1/GPa) = 0.06074523
#
# Stress axis : x y z
#
# Youngs Moduli (GPa) = 81.44956 102.07675 26.13609
#
# Poissons Ratio (x) = 0.45288 -0.08827
# Poissons Ratio (y) = 0.36136 -0.03304
# Poissons Ratio (z) = -0.27508 -0.12905
#
# Static dielectric constant tensor:
#      x y z
#    x 1.673310 0.000000 0.000000 
#    y 0.000000 1.693410 0.000000 
#    z 0.000000 0.000000 1.681760 
# 
# From -- ./inp_files/15341.got.cif
#   From: 2010.05.17/outbox.cif.g08.bks.cpg/sg69_8_cif.got.tgz:15341.got - 2010.06.03 19:29:58.
