data_PCOD9510350
_publ_section_title
;
Structure prediction by ZEFSAII (Michael W. Deem and Ramdas Pophale) SiO2 
 PCOD9510350
Probable space group: C C C A
;
_chemical_formula_sum "Si O2"
_cell_formula_units_Z 116
_cell_length_a 25.504747
_cell_length_b 19.255522
_cell_length_c 11.286423
_cell_angle_alpha 90.000000
_cell_angle_beta 90.000000
_cell_angle_gamma 90.000000
_cell_volume 5542.843789
_symmetry_space_group_name_H-M "C C C A"
_symmetry_group_IT_number 68
_space_group.IT_coordinate_system_code '2'
_symmetry_cell_setting 'orthorhombic'
loop_
_space_group_symop_operation_xyz
x,y,z
-x,1/2-y,z
x,1/2-y,1/2-z
-x,y,1/2-z
-x,-y,-z
x,1/2+y,-z
-x,1/2+y,1/2+z
x,-y,1/2+z
1/2+x,1/2+y,z
1/2-x,-y,z
1/2+x,-y,1/2-z
1/2-x,1/2+y,1/2-z
1/2-x,1/2-y,-z
1/2+x,y,-z
1/2-x,y,1/2+z
1/2+x,1/2-y,1/2+z
loop_
_atom_site_type_symbol
_atom_site_label
_atom_site_fract_x
_atom_site_fract_y
_atom_site_fract_z
Si Si1 0.109303 0.042998 0.733570
Si Si2 0.764026 0.787053 0.626281
Si Si3 0.117997 0.750475 0.877219
Si Si4 0.788828 0.935654 0.108259
Si Si5 0.966843 0.061053 0.557241
Si Si6 0.000000 0.250000 0.750000
Si Si7 0.439055 0.657027 0.927377
Si Si8 0.864381 0.412930 0.093746
O O1 0.160334 0.067394 0.806130
O O2 0.055620 0.048182 0.810548
O O3 0.097799 0.093863 0.620947
O O4 0.123614 0.963040 0.704041
O O5 0.746058 0.750000 0.750000
O O6 0.750000 0.750000 0.500000
O O7 0.826781 0.789983 0.634186
O O8 0.741197 0.863750 0.623461
O O9 0.089727 0.750000 0.750000
O O10 0.134287 0.670215 0.897456
O O11 0.086491 0.791628 0.977292
O O12 0.750000 0.000000 0.130583
O O13 0.812384 0.937610 0.974805
O O14 0.913753 0.070352 0.487474
O O15 0.005306 0.125043 0.534550
O O16 0.000000 0.000000 0.500000
O O17 0.040949 0.297413 0.819318
#
# Coordination Sequence:
#
# PCOD9510350 Si02
#       8
#    16  16  16  16  16   4  16  16
#     4  11  26  44  73 106 142 193 245 306 369 445
#     4  11  26  48  75 104 147 195 246 305 382 450
#     4  11  28  47  72 105 149 193 242 303 378 447
#     4  11  28  44  71 106 141 187 250 308 368 439
#     4  11  23  44  70 106 141 190 238 294 366 437
#     4  12  24  44  78 108 144 176 258 298 356 440
#     4  12  25  46  75 106 145 189 243 305 363 439
#     4  11  25  46  69 102 144 186 244 298 367 441
#
# _framework density 20.927886000000001
#
# number of rings (size 3 to 8) (size 9 to 14) (size 15 to 20)
#    0.000    0.828    4.138    0.828   11.586    0.552 
#    0.000    2.414    0.000    0.000    0.000    0.000 
#    0.000    0.000    0.000    0.000    0.000    0.000 
#
# Total GULP energy -323551.415330 kJ/mol
# GULP energy per Si atom -5578.472678 kJ/mol
# Density = 2.088025 g / cm^3
# Si number density = 20.927886 Si / 1000 Ang^3
#
#
#
# Elastic Constant Matrix: (Units=GPa)
#
#
# Indices 1 2 3 4 5 6 
#
# 1 104.5350 64.9556 38.2580 0.0000 0.0000 0.0000
# 2 64.9556 137.7813 45.6982 0.0000 0.0000 0.0000
# 3 38.2580 45.6982 93.4206 0.0000 0.0000 0.0000
# 4 0.0000 0.0000 0.0000 31.0365 0.0000 0.0000
# 5 0.0000 0.0000 0.0000 0.0000 20.3473 0.0000
# 6 0.0000 0.0000 0.0000 0.0000 0.0000 43.3012
#
#
#
# Elastic Compliance Matrix: (Units=1/GPa)
#
#
# Indices 1 2 3 4 5 6 
#
# 1 0.014216 -0.005695 -0.003036 0.000000 0.000000 0.000000
# 2 -0.005695 0.010945 -0.003022 0.000000 0.000000 0.000000
# 3 -0.003036 -0.003022 0.013426 0.000000 0.000000 0.000000
# 4 0.000000 0.000000 0.000000 0.032220 0.000000 0.000000
# 5 0.000000 0.000000 0.000000 0.000000 0.049147 0.000000
# 6 0.000000 0.000000 0.000000 0.000000 0.000000 0.023094
#
#
# Mechanical properties :
#
#
# Convention : Reuss Voigt Hill
#
# Bulk Modulus (GPa) = 66.30725 70.39564 68.35145
# Shear Modulus (GPa) = 29.14092 31.39200 30.26646
#
# Velocity S-wave (km/s) = 3.73560 3.87720 3.80705
# Velocity P-wave (km/s) = 7.09639 7.33170 7.21500
#
# Compressibility (1/GPa) = 0.01508131
#
# Stress axis : x y z
#
# Youngs Moduli (GPa) = 70.34288 91.36624 74.48420
#
# Poissons Ratio (x) = 0.52034 0.22613
# Poissons Ratio (y) = 0.40061 0.22506
# Poissons Ratio (z) = 0.21356 0.27608
#
# Static dielectric constant tensor:
#      x y z
#    x 1.681650 0.000000 0.000000 
#    y 0.000000 1.764010 0.000000 
#    z 0.000000 0.000000 1.871810 
# 
# From -- ./inp_files/17245.got.cif
#   From: 2010.05.17/outbox.cif.g08.bks.cpg/sg68_9_cif.got.tgz:17245.got - 2010.06.03 18:57:09.
