data_PCOD9510428
_publ_section_title
;
Structure prediction by ZEFSAII (Michael W. Deem and Ramdas Pophale) SiO2 
 PCOD9510428
Probable space group: C C C A
;
_chemical_formula_sum "Si O2"
_cell_formula_units_Z 84
_cell_length_a 18.219980
_cell_length_b 19.738868
_cell_length_c 10.889288
_cell_angle_alpha 90.000000
_cell_angle_beta 90.000000
_cell_angle_gamma 90.000000
_cell_volume 3916.242921
_symmetry_space_group_name_H-M "C C C A"
_symmetry_group_IT_number 68
_space_group.IT_coordinate_system_code '2'
_symmetry_cell_setting 'orthorhombic'
loop_
_space_group_symop_operation_xyz
x,y,z
-x,1/2-y,z
x,1/2-y,1/2-z
-x,y,1/2-z
-x,-y,-z
x,1/2+y,-z
-x,1/2+y,1/2+z
x,-y,1/2+z
1/2+x,1/2+y,z
1/2-x,-y,z
1/2+x,-y,1/2-z
1/2-x,1/2+y,1/2-z
1/2-x,1/2-y,-z
1/2+x,y,-z
1/2-x,y,1/2+z
1/2+x,1/2-y,1/2+z
loop_
_atom_site_type_symbol
_atom_site_label
_atom_site_fract_x
_atom_site_fract_y
_atom_site_fract_z
Si Si1 0.000000 0.250000 0.933848
Si Si2 0.454015 0.494608 0.124095
Si Si3 0.609306 0.134627 0.697416
Si Si4 0.500000 0.750000 0.250000
Si Si5 0.738523 0.815447 0.585407
Si Si6 0.618116 0.750000 0.750000
Si Si7 0.392123 0.127069 0.514591
O O1 0.062574 0.284617 0.846973
O O2 0.052429 0.191117 0.990982
O O3 0.500000 0.486997 0.250000
O O4 0.411002 0.565668 0.129656
O O5 0.500000 0.500000 0.000000
O O6 0.408735 0.427916 0.089873
O O7 0.554732 0.198913 0.678496
O O8 0.688604 0.160496 0.653236
O O9 0.598061 0.114778 0.840331
O O10 0.750000 0.750000 0.500000
O O11 0.674173 0.799642 0.682634
O O12 0.695896 0.864718 0.494456
#
# Coordination Sequence:
#
# PCOD9510428 Si02
#       7
#     8  16  16   4  16   8  16
#     4   9  21  40  73 109 134 182 241 299 372 435
#     4  12  26  49  72 109 146 193 250 316 375 453
#     4  12  25  47  73 108 146 191 253 308 383 466
#     4  12  20  40  76 104 134 186 244 314 380 442
#     4  11  24  42  67 105 149 190 238 306 372 451
#     4   9  19  38  59 103 144 178 224 295 363 434
#     4  11  24  45  74 104 147 197 245 307 380 453
#
# _framework density 21.449128999999999
#
# number of rings (size 3 to 8) (size 9 to 14) (size 15 to 20)
#    0.000    0.952    2.857    3.429    5.333    5.333 
#    3.429    2.857    0.000    0.000    0.000    0.000 
#    0.000    0.000    0.000    0.000    0.000    0.000 
#
# Total GULP energy -233963.312607 kJ/mol
# GULP energy per Si atom -5570.555062 kJ/mol
# Density = 2.140031 g / cm^3
# Si number density = 21.449129 Si / 1000 Ang^3
#
#
#
# Elastic Constant Matrix: (Units=GPa)
#
#
# Indices 1 2 3 4 5 6 
#
# 1 169.9544 68.2490 60.4687 0.0000 0.0000 0.0000
# 2 68.2490 129.8642 49.7073 0.0000 0.0000 0.0000
# 3 60.4687 49.7073 110.1213 0.0000 0.0000 0.0000
# 4 0.0000 0.0000 0.0000 40.2108 0.0000 0.0000
# 5 0.0000 0.0000 0.0000 0.0000 37.1855 0.0000
# 6 0.0000 0.0000 0.0000 0.0000 0.0000 32.3700
#
#
#
# Elastic Compliance Matrix: (Units=1/GPa)
#
#
# Indices 1 2 3 4 5 6 
#
# 1 0.008255 -0.003147 -0.003112 0.000000 0.000000 0.000000
# 2 -0.003147 0.010508 -0.003015 0.000000 0.000000 0.000000
# 3 -0.003112 -0.003015 0.012151 0.000000 0.000000 0.000000
# 4 0.000000 0.000000 0.000000 0.024869 0.000000 0.000000
# 5 0.000000 0.000000 0.000000 0.000000 0.026892 0.000000
# 6 0.000000 0.000000 0.000000 0.000000 0.000000 0.030893
#
#
# Mechanical properties :
#
#
# Convention : Reuss Voigt Hill
#
# Bulk Modulus (GPa) = 80.87338 85.19885 83.03611
# Shear Modulus (GPa) = 36.70006 37.38759 37.04382
#
# Velocity S-wave (km/s) = 4.14094 4.17955 4.16029
# Velocity P-wave (km/s) = 7.78780 7.94350 7.86603
#
# Compressibility (1/GPa) = 0.01236501
#
# Stress axis : x y z
#
# Youngs Moduli (GPa) = 121.13748 95.16193 82.29779
#
# Poissons Ratio (x) = 0.29948 0.25614
# Poissons Ratio (y) = 0.38123 0.24815
# Poissons Ratio (z) = 0.37703 0.28694
#
# Static dielectric constant tensor:
#      x y z
#    x 1.878780 0.000000 0.000000 
#    y 0.000000 1.769300 0.000000 
#    z 0.000000 0.000000 1.723270 
# 
# From -- ./inp_files/14414.got.cif
#   From: 2010.05.17/outbox.cif.g08.bks.cpg/sg68_8_cif.got.tgz:14414.got - 2010.06.03 18:57:09.
