data_PCOD9510168
_publ_section_title
;
Structure prediction by ZEFSAII (Michael W. Deem and Ramdas Pophale) SiO2 
 PCOD9510168
Probable space group: C C C A
;
_chemical_formula_sum "Si O2"
_cell_formula_units_Z 72
_cell_length_a 17.843074
_cell_length_b 18.432074
_cell_length_c 9.031772
_cell_angle_alpha 90.000000
_cell_angle_beta 90.000000
_cell_angle_gamma 90.000000
_cell_volume 2970.413073
_symmetry_space_group_name_H-M "C C C A"
_symmetry_group_IT_number 68
_space_group.IT_coordinate_system_code '2'
_symmetry_cell_setting 'orthorhombic'
loop_
_space_group_symop_operation_xyz
x,y,z
-x,1/2-y,z
x,1/2-y,1/2-z
-x,y,1/2-z
-x,-y,-z
x,1/2+y,-z
-x,1/2+y,1/2+z
x,-y,1/2+z
1/2+x,1/2+y,z
1/2-x,-y,z
1/2+x,-y,1/2-z
1/2-x,1/2+y,1/2-z
1/2-x,1/2-y,-z
1/2+x,y,-z
1/2-x,y,1/2+z
1/2+x,1/2-y,1/2+z
loop_
_atom_site_type_symbol
_atom_site_label
_atom_site_fract_x
_atom_site_fract_y
_atom_site_fract_z
Si Si1 0.750000 0.500000 0.526860
Si Si2 0.404930 0.942502 0.383218
Si Si3 0.191793 0.142392 0.191246
Si Si4 0.035185 0.098232 0.887296
Si Si5 0.322990 0.302374 0.108939
O O1 0.675912 0.533539 0.449153
O O2 0.781351 0.567252 0.619082
O O3 0.386869 0.879149 0.266522
O O4 0.469475 0.915085 0.494574
O O5 0.434894 0.020199 0.329148
O O6 0.252706 0.157668 0.317663
O O7 0.195823 0.207154 0.068888
O O8 0.107724 0.143924 0.925286
O O9 0.000000 0.139256 0.750000
O O10 0.344466 0.250000 0.250000
#
# Coordination Sequence:
#
# PCOD9510168 Si02
#       5
#     8  16  16  16  16
#     4  12  20  42  70 112 150 184 240 326 388 448
#     4  11  22  39  71 111 153 188 241 321 390 452
#     4  12  23  43  71 109 144 192 262 320 379 453
#     4  11  24  41  67 107 151 194 241 311 397 458
#     4  12  27  46  70  99 145 206 258 313 373 462
#
# _framework density 24.239052999999998
#
# number of rings (size 3 to 8) (size 9 to 14) (size 15 to 20)
#    0.000    0.444    4.444    5.333    3.111    0.444 
#    0.000    0.000    0.000    0.000    0.000    0.000 
#    0.000    0.000    0.000    0.000    0.000    0.000 
#
# Total GULP energy -200663.343900 kJ/mol
# GULP energy per Si atom -5573.981775 kJ/mol
# Density = 2.418388 g / cm^3
# Si number density = 24.239053 Si / 1000 Ang^3
#
#
#
# Elastic Constant Matrix: (Units=GPa)
#
#
# Indices 1 2 3 4 5 6 
#
# 1 135.1137 44.1562 60.6614 0.0000 0.0000 0.0000
# 2 44.1562 89.1973 38.5172 0.0000 0.0000 0.0000
# 3 60.6614 38.5172 112.0865 0.0000 0.0000 0.0000
# 4 0.0000 0.0000 0.0000 52.8180 0.0000 0.0000
# 5 0.0000 0.0000 0.0000 0.0000 37.9534 0.0000
# 6 0.0000 0.0000 0.0000 0.0000 0.0000 18.2346
#
#
#
# Elastic Compliance Matrix: (Units=1/GPa)
#
#
# Indices 1 2 3 4 5 6 
#
# 1 0.010512 -0.003226 -0.004581 0.000000 0.000000 0.000000
# 2 -0.003226 0.014155 -0.003118 0.000000 0.000000 0.000000
# 3 -0.004581 -0.003118 0.012472 0.000000 0.000000 0.000000
# 4 0.000000 0.000000 0.000000 0.018933 0.000000 0.000000
# 5 0.000000 0.000000 0.000000 0.000000 0.026348 0.000000
# 6 0.000000 0.000000 0.000000 0.000000 0.000000 0.054841
#
#
# Mechanical properties :
#
#
# Convention : Reuss Voigt Hill
#
# Bulk Modulus (GPa) = 65.40450 69.22969 67.31709
# Shear Modulus (GPa) = 30.44951 34.67204 32.56078
#
# Velocity S-wave (km/s) = 3.54816 3.78619 3.66911
# Velocity P-wave (km/s) = 6.62024 6.90919 6.76626
#
# Compressibility (1/GPa) = 0.01528947
#
# Stress axis : x y z
#
# Youngs Moduli (GPa) = 95.13024 70.64878 80.17826
#
# Poissons Ratio (x) = 0.22790 0.36726
# Poissons Ratio (y) = 0.30688 0.25001
# Poissons Ratio (z) = 0.43575 0.22030
#
# Static dielectric constant tensor:
#      x y z
#    x 2.001860 0.000000 0.000000 
#    y 0.000000 1.976260 0.000000 
#    z 0.000000 0.000000 2.105200 
# 
# From -- ./inp_files/5925.got.cif
#   From: 2010.05.17/outbox.cif.g08.bks.cpg/sg68_3_cif.got.tgz:5925.got - 2010.06.03 18:57:09.
