data_PCOD9510663
_publ_section_title
;
Structure prediction by ZEFSAII (Michael W. Deem and Ramdas Pophale) SiO2 
 PCOD9510663
Probable space group: C C C A
;
_chemical_formula_sum "Si O2"
_cell_formula_units_Z 32
_cell_length_a 15.244410
_cell_length_b 9.225491
_cell_length_c 9.240347
_cell_angle_alpha 90.000000
_cell_angle_beta 90.000000
_cell_angle_gamma 90.000000
_cell_volume 1299.536227
_symmetry_space_group_name_H-M "C C C A"
_symmetry_group_IT_number 68
_space_group.IT_coordinate_system_code '2'
_symmetry_cell_setting 'orthorhombic'
loop_
_space_group_symop_operation_xyz
x,y,z
-x,1/2-y,z
x,1/2-y,1/2-z
-x,y,1/2-z
-x,-y,-z
x,1/2+y,-z
-x,1/2+y,1/2+z
x,-y,1/2+z
1/2+x,1/2+y,z
1/2-x,-y,z
1/2+x,-y,1/2-z
1/2-x,1/2+y,1/2-z
1/2-x,1/2-y,-z
1/2+x,y,-z
1/2-x,y,1/2+z
1/2+x,1/2-y,1/2+z
loop_
_atom_site_type_symbol
_atom_site_label
_atom_site_fract_x
_atom_site_fract_y
_atom_site_fract_z
Si Si1 0.160214 0.908585 0.814087
Si Si2 0.587273 0.350505 0.131137
O O1 0.169990 0.750000 0.750000
O O2 0.409822 0.002645 0.716800
O O3 0.250000 0.000000 0.810274
O O4 0.129961 0.886247 0.978896
O O5 0.500000 0.250000 0.104013
O O6 0.635503 0.250000 0.250000
#
# Coordination Sequence:
#
# PCOD9510663 Si02
#       2
#    16  16
#     4  12  27  50  79 111 151 198 251 311 375 446
#     4  11  27  49  76 112 152 197 250 310 376 445
#
# _framework density 24.624168999999998
#
# number of rings (size 3 to 8) (size 9 to 14) (size 15 to 20)
#    0.000    0.500    0.000    6.000    0.000   25.000 
#    0.000    5.000    0.000    0.000    0.000    0.000 
#    0.000    0.000    0.000    0.000    0.000    0.000 
#
# Total GULP energy -89365.048899 kJ/mol
# GULP energy per Si atom -5585.315556 kJ/mol
# Density = 2.456812 g / cm^3
# Si number density = 24.624169 Si / 1000 Ang^3
#
#
#
# Elastic Constant Matrix: (Units=GPa)
#
#
# Indices 1 2 3 4 5 6 
#
# 1 176.8851 115.5751 82.8172 0.0000 0.0000 0.0000
# 2 115.5751 263.4818 120.1133 0.0000 0.0000 0.0000
# 3 82.8172 120.1133 259.4462 0.0000 0.0000 0.0000
# 4 0.0000 0.0000 0.0000 63.0172 0.0000 0.0000
# 5 0.0000 0.0000 0.0000 0.0000 -21.1255 0.0000
# 6 0.0000 0.0000 0.0000 0.0000 0.0000 -67.5713
#
#
#
# Elastic Compliance Matrix: (Units=1/GPa)
#
#
# Indices 1 2 3 4 5 6 
#
# 1 0.008213 -0.003052 -0.001209 0.000000 0.000000 0.000000
# 2 -0.003052 0.005944 -0.001778 0.000000 0.000000 0.000000
# 3 -0.001209 -0.001778 0.005063 0.000000 0.000000 0.000000
# 4 0.000000 0.000000 0.000000 0.015869 0.000000 0.000000
# 5 0.000000 0.000000 0.000000 0.000000 -0.047336 0.000000
# 6 0.000000 0.000000 0.000000 0.000000 0.000000 -0.014799
#
#
# Mechanical properties :
#
#
# Convention : Reuss Voigt Hill
#
# Bulk Modulus (GPa) = 139.97589 148.53605 144.25597
# Shear Modulus (GPa) = -397.23182 20.28458 -188.47362
#
# Velocity S-wave (km/s) = -12.71488 2.87325 -8.75821
# Velocity P-wave (km/s) = 12.59322 8.45338 6.60036
#
# Compressibility (1/GPa) = 0.00714409
#
# Stress axis : x y z
#
# Youngs Moduli (GPa) = 121.75351 168.22550 197.49611
#
# Poissons Ratio (x) = 0.51336 0.23877
# Poissons Ratio (y) = 0.37154 0.35113
# Poissons Ratio (z) = 0.14720 0.29909
#
# Static dielectric constant tensor:
#      x y z
#    x 2.078530 0.000000 0.000000 
#    y 0.000000 1.811220 0.000000 
#    z 0.000000 0.000000 1.885320 
# 
# From -- ./inp_files/3405.got.cif
#   From: 2010.05.17/outbox.cif.g08.bks.cpg/sg68_2_cif.got.tgz:3405.got - 2010.06.03 18:57:09.
