data_PCOD9510828
_publ_section_title
;
Structure prediction by ZEFSAII (Michael W. Deem and Ramdas Pophale) SiO2 
 PCOD9510828
Probable space group: C C C A
;
_chemical_formula_sum "Si O2"
_cell_formula_units_Z 48
_cell_length_a 30.893404
_cell_length_b 4.921951
_cell_length_c 13.478161
_cell_angle_alpha 90.000000
_cell_angle_beta 90.000000
_cell_angle_gamma 90.000000
_cell_volume 2049.432833
_symmetry_space_group_name_H-M "C C C A"
_symmetry_group_IT_number 68
_space_group.IT_coordinate_system_code '2'
_symmetry_cell_setting 'orthorhombic'
loop_
_space_group_symop_operation_xyz
x,y,z
-x,1/2-y,z
x,1/2-y,1/2-z
-x,y,1/2-z
-x,-y,-z
x,1/2+y,-z
-x,1/2+y,1/2+z
x,-y,1/2+z
1/2+x,1/2+y,z
1/2-x,-y,z
1/2+x,-y,1/2-z
1/2-x,1/2+y,1/2-z
1/2-x,1/2-y,-z
1/2+x,y,-z
1/2-x,y,1/2+z
1/2+x,1/2-y,1/2+z
loop_
_atom_site_type_symbol
_atom_site_label
_atom_site_fract_x
_atom_site_fract_y
_atom_site_fract_z
Si Si1 0.918166 0.517598 0.814342
Si Si2 0.500000 0.750000 0.425362
Si Si3 0.720260 0.250000 0.250000
Si Si4 0.663611 0.555123 0.935036
O O1 0.929575 0.250000 0.750000
O O2 0.958910 0.682143 0.857155
O O3 0.886451 0.423073 0.901581
O O4 0.893757 0.750000 0.750000
O O5 0.500000 0.500000 0.500000
O O6 0.750000 0.500000 0.216445
O O7 0.691326 0.143671 0.159308
O O8 0.672217 0.253363 0.972951
#
# Coordination Sequence:
#
# PCOD9510828 Si02
#       4
#    16   8   8  16
#     4  12  25  45  74 105 147 200 255 306 376 446
#     4  12  25  44  67 106 148 190 254 311 368 441
#     4  12  28  48  76 112 155 193 248 316 376 452
#     4  12  26  47  77 111 149 199 250 304 377 452
#
# _framework density 23.421112000000001
#
# number of rings (size 3 to 8) (size 9 to 14) (size 15 to 20)
#    0.000    0.000    1.667    8.500    2.333    5.333 
#    0.000    0.000    0.000    0.000    0.000    0.000 
#    0.000    0.000    0.000    0.000    0.000    0.000 
#
# Total GULP energy -134470.599079 kJ/mol
# GULP energy per Si atom -5602.941628 kJ/mol
# Density = 2.336780 g / cm^3
# Si number density = 23.421112 Si / 1000 Ang^3
#
#
#
# Elastic Constant Matrix: (Units=GPa)
#
#
# Indices 1 2 3 4 5 6 
#
# 1 107.6479 26.5227 37.0769 0.0000 0.0000 0.0000
# 2 26.5227 156.0907 29.6066 0.0000 0.0000 0.0000
# 3 37.0769 29.6066 103.5820 0.0000 0.0000 0.0000
# 4 0.0000 0.0000 0.0000 60.7412 0.0000 0.0000
# 5 0.0000 0.0000 0.0000 0.0000 -120.6591 0.0000
# 6 0.0000 0.0000 0.0000 0.0000 0.0000 36.6543
#
#
#
# Elastic Compliance Matrix: (Units=1/GPa)
#
#
# Indices 1 2 3 4 5 6 
#
# 1 0.010792 -0.001164 -0.003530 0.000000 0.000000 0.000000
# 2 -0.001164 0.006899 -0.001555 0.000000 0.000000 0.000000
# 3 -0.003530 -0.001555 0.011362 0.000000 0.000000 0.000000
# 4 0.000000 0.000000 0.000000 0.016463 0.000000 0.000000
# 5 0.000000 0.000000 0.000000 0.000000 -0.008288 0.000000
# 6 0.000000 0.000000 0.000000 0.000000 0.000000 0.027282
#
#
# Mechanical properties :
#
#
# Convention : Reuss Voigt Hill
#
# Bulk Modulus (GPa) = 60.40680 61.52590 60.96635
# Shear Modulus (GPa) = 60.58452 13.62155 37.10303
#
# Velocity S-wave (km/s) = 5.09153 2.41424 3.98448
# Velocity P-wave (km/s) = 7.77254 5.83934 6.87424
#
# Compressibility (1/GPa) = 0.01655443
#
# Stress axis : x y z
#
# Youngs Moduli (GPa) = 92.65836 144.94106 88.00952
#
# Poissons Ratio (x) = 0.16874 0.31070
# Poissons Ratio (y) = 0.10787 0.13688
# Poissons Ratio (z) = 0.32711 0.22543
#
# Static dielectric constant tensor:
#      x y z
#    x 1.895430 0.000000 0.000000 
#    y 0.000000 1.839480 0.000000 
#    z 0.000000 0.000000 1.796570 
# 
# From -- ./inp_files/25709.got.cif
#   From: 2010.05.17/outbox.cif.g08.bks.cpg/sg68_13_cif.got.tgz:25709.got - 2010.06.03 18:57:09.
