data_PCOD9510532
_publ_section_title
;
Structure prediction by ZEFSAII (Michael W. Deem and Ramdas Pophale) SiO2 
 PCOD9510532
Probable space group: C C C A
;
_chemical_formula_sum "Si O2"
_cell_formula_units_Z 64
_cell_length_a 30.911052
_cell_length_b 9.043026
_cell_length_c 10.314095
_cell_angle_alpha 90.000000
_cell_angle_beta 90.000000
_cell_angle_gamma 90.000000
_cell_volume 2883.093271
_symmetry_space_group_name_H-M "C C C A"
_symmetry_group_IT_number 68
_space_group.IT_coordinate_system_code '2'
_symmetry_cell_setting 'orthorhombic'
loop_
_space_group_symop_operation_xyz
x,y,z
-x,1/2-y,z
x,1/2-y,1/2-z
-x,y,1/2-z
-x,-y,-z
x,1/2+y,-z
-x,1/2+y,1/2+z
x,-y,1/2+z
1/2+x,1/2+y,z
1/2-x,-y,z
1/2+x,-y,1/2-z
1/2-x,1/2+y,1/2-z
1/2-x,1/2-y,-z
1/2+x,y,-z
1/2-x,y,1/2+z
1/2+x,1/2-y,1/2+z
loop_
_atom_site_type_symbol
_atom_site_label
_atom_site_fract_x
_atom_site_fract_y
_atom_site_fract_z
Si Si1 0.000000 0.750000 0.044225
Si Si2 0.926984 0.186182 0.379859
Si Si3 0.800349 0.464836 0.326196
Si Si4 0.500000 0.516915 0.750000
Si Si5 0.833398 0.649109 0.561141
O O1 0.017502 0.622509 0.136773
O O2 0.959192 0.704927 0.956833
O O3 0.906150 0.250000 0.250000
O O4 0.885293 0.144651 0.459947
O O5 0.961840 0.071671 0.320885
O O6 0.750000 0.500000 0.303388
O O7 0.814466 0.589915 0.427426
O O8 0.813286 0.308484 0.396793
O O9 0.822507 0.455795 0.184642
#
# Coordination Sequence:
#
# PCOD9510532 Si02
#       5
#     8  16  16   8  16
#     4  11  25  40  66  96 133 179 226 266 332 395
#     4  12  23  42  65  94 137 173 222 273 333 390
#     4  11  24  48  70  99 136 177 227 283 349 414
#     4  11  25  40  66  94 133 181 222 272 326 399
#     4  11  27  42  72 105 136 180 228 284 341 418
#
# _framework density 22.19838
#
# number of rings (size 3 to 8) (size 9 to 14) (size 15 to 20)
#    0.000    0.750    5.000    2.250    7.000    3.000 
#    0.000    0.000    0.000    0.000    0.000    0.000 
#    0.000    0.000    0.000    0.000    0.000    0.000 
#
# Total GULP energy -178506.177343 kJ/mol
# GULP energy per Si atom -5578.318042 kJ/mol
# Density = 2.214786 g / cm^3
# Si number density = 22.198380 Si / 1000 Ang^3
#
#
#
# Elastic Constant Matrix: (Units=GPa)
#
#
# Indices 1 2 3 4 5 6 
#
# 1 163.5905 18.9833 28.8154 0.0000 0.0000 0.0000
# 2 18.9833 45.5350 -4.0157 0.0000 0.0000 0.0000
# 3 28.8154 -4.0157 50.1440 0.0000 0.0000 0.0000
# 4 0.0000 0.0000 0.0000 29.7499 0.0000 0.0000
# 5 0.0000 0.0000 0.0000 0.0000 14.3585 0.0000
# 6 0.0000 0.0000 0.0000 0.0000 0.0000 0.9078
#
#
#
# Elastic Compliance Matrix: (Units=1/GPa)
#
#
# Indices 1 2 3 4 5 6 
#
# 1 0.007299 -0.003437 -0.004470 0.000000 0.000000 0.000000
# 2 -0.003437 0.023736 0.003876 0.000000 0.000000 0.000000
# 3 -0.004470 0.003876 0.022821 0.000000 0.000000 0.000000
# 4 0.000000 0.000000 0.000000 0.033614 0.000000 0.000000
# 5 0.000000 0.000000 0.000000 0.000000 0.069645 0.000000
# 6 0.000000 0.000000 0.000000 0.000000 0.000000 1.101596
#
#
# Mechanical properties :
#
#
# Convention : Reuss Voigt Hill
#
# Bulk Modulus (GPa) = 21.83651 38.53725 30.18688
# Shear Modulus (GPa) = 3.90004 23.36900 13.63452
#
# Velocity S-wave (km/s) = 1.32692 3.24811 2.48102
# Velocity P-wave (km/s) = 3.49370 5.60937 4.67285
#
# Compressibility (1/GPa) = 0.04579487
#
# Stress axis : x y z
#
# Youngs Moduli (GPa) = 137.00572 42.13033 43.81839
#
# Poissons Ratio (x) = 0.14481 0.19585
# Poissons Ratio (y) = 0.47090 -0.16984
# Poissons Ratio (z) = 0.61236 -0.16330
#
# Static dielectric constant tensor:
#      x y z
#    x 1.763620 0.000000 0.000000 
#    y 0.000000 1.892050 0.000000 
#    z 0.000000 0.000000 1.866960 
# 
# From -- ./inp_files/9372.got.cif
#   From: 2010.05.17/outbox.cif.g08.bks.cpg/sg68_5_cif.got.tgz:9372.got - 2010.06.03 18:57:09.
