data_PCOD9510764
_publ_section_title
;
Structure prediction by ZEFSAII (Michael W. Deem and Ramdas Pophale) SiO2 
 PCOD9510764
Probable space group: C C C A
;
_chemical_formula_sum "Si O2"
_cell_formula_units_Z 56
_cell_length_a 9.136095
_cell_length_b 19.210019
_cell_length_c 13.603271
_cell_angle_alpha 90.000000
_cell_angle_beta 90.000000
_cell_angle_gamma 90.000000
_cell_volume 2387.436071
_symmetry_space_group_name_H-M "C C C A"
_symmetry_group_IT_number 68
_space_group.IT_coordinate_system_code '2'
_symmetry_cell_setting 'orthorhombic'
loop_
_space_group_symop_operation_xyz
x,y,z
-x,1/2-y,z
x,1/2-y,1/2-z
-x,y,1/2-z
-x,-y,-z
x,1/2+y,-z
-x,1/2+y,1/2+z
x,-y,1/2+z
1/2+x,1/2+y,z
1/2-x,-y,z
1/2+x,-y,1/2-z
1/2-x,1/2+y,1/2-z
1/2-x,1/2-y,-z
1/2+x,y,-z
1/2-x,y,1/2+z
1/2+x,1/2-y,1/2+z
loop_
_atom_site_type_symbol
_atom_site_label
_atom_site_fract_x
_atom_site_fract_y
_atom_site_fract_z
Si Si1 0.442707 0.120315 0.445858
Si Si2 0.500000 0.250000 0.927300
Si Si3 0.260281 0.178529 0.788686
Si Si4 0.265358 0.576155 0.380831
O O1 0.426394 0.194462 0.500575
O O2 0.348887 0.128875 0.347687
O O3 0.372870 0.069108 0.526026
O O4 0.609092 0.103236 0.420371
O O5 0.386250 0.207761 0.860007
O O6 0.186688 0.250000 0.750000
O O7 0.318256 0.133119 0.697770
O O8 0.250000 0.500000 0.334553
#
# Coordination Sequence:
#
# PCOD9510764 Si02
#       4
#    16   8  16  16
#     4  12  25  49  73 105 150 194 248 303 369 443
#     4  12  23  46  77 108 144 194 243 312 369 436
#     4  12  25  46  75 110 146 191 252 310 367 438
#     4  12  28  48  73 109 150 198 245 302 375 447
#
# _framework density 23.456126000000001
#
# number of rings (size 3 to 8) (size 9 to 14) (size 15 to 20)
#    0.000    0.000    5.714    4.714    0.000    2.286 
#   10.286    0.000    0.000    0.000    0.000    0.000 
#    0.000    0.000    0.000    0.000    0.000    0.000 
#
# Total GULP energy -156861.258871 kJ/mol
# GULP energy per Si atom -5602.187817 kJ/mol
# Density = 2.340274 g / cm^3
# Si number density = 23.456126 Si / 1000 Ang^3
#
#
#
# Elastic Constant Matrix: (Units=GPa)
#
#
# Indices 1 2 3 4 5 6 
#
# 1 95.8040 -8.3149 23.6030 0.0000 0.0000 0.0000
# 2 -8.3149 101.8837 14.1557 0.0000 0.0000 0.0000
# 3 23.6030 14.1557 88.1914 0.0000 0.0000 0.0000
# 4 0.0000 0.0000 0.0000 34.2944 0.0000 0.0000
# 5 0.0000 0.0000 0.0000 0.0000 15.6155 0.0000
# 6 0.0000 0.0000 0.0000 0.0000 0.0000 20.1643
#
#
#
# Elastic Compliance Matrix: (Units=1/GPa)
#
#
# Indices 1 2 3 4 5 6 
#
# 1 0.011362 0.001380 -0.003262 0.000000 0.000000 0.000000
# 2 0.001380 0.010207 -0.002008 0.000000 0.000000 0.000000
# 3 -0.003262 -0.002008 0.012534 0.000000 0.000000 0.000000
# 4 0.000000 0.000000 0.000000 0.029159 0.000000 0.000000
# 5 0.000000 0.000000 0.000000 0.000000 0.064039 0.000000
# 6 0.000000 0.000000 0.000000 0.000000 0.000000 0.049593
#
#
# Mechanical properties :
#
#
# Convention : Reuss Voigt Hill
#
# Bulk Modulus (GPa) = 37.98896 38.30743 38.14819
# Shear Modulus (GPa) = 25.84687 31.11052 28.47870
#
# Velocity S-wave (km/s) = 3.32313 3.64583 3.48821
# Velocity P-wave (km/s) = 5.56373 5.83864 5.70284
#
# Compressibility (1/GPa) = 0.02632344
#
# Stress axis : x y z
#
# Youngs Moduli (GPa) = 88.01639 97.97453 79.78074
#
# Poissons Ratio (x) = -0.13525 0.26027
# Poissons Ratio (y) = -0.12151 0.16018
# Poissons Ratio (z) = 0.28714 0.19671
#
# Static dielectric constant tensor:
#      x y z
#    x 1.871140 0.000000 0.000000 
#    y 0.000000 1.880710 0.000000 
#    z 0.000000 0.000000 1.890310 
# 
# From -- ./inp_files/11405.got.cif
#   From: 2010.05.17/outbox.cif.g08.bks.cpg/sg68_6_cif.got.tgz:11405.got - 2010.06.03 18:57:09.
