data_PCOD9510814
_publ_section_title
;
Structure prediction by ZEFSAII (Michael W. Deem and Ramdas Pophale) SiO2 
 PCOD9510814
Probable space group: C C C A
;
_chemical_formula_sum "Si O2"
_cell_formula_units_Z 60
_cell_length_a 17.229962
_cell_length_b 9.953946
_cell_length_c 16.542586
_cell_angle_alpha 90.000000
_cell_angle_beta 90.000000
_cell_angle_gamma 90.000000
_cell_volume 2837.154596
_symmetry_space_group_name_H-M "C C C A"
_symmetry_group_IT_number 68
_space_group.IT_coordinate_system_code '2'
_symmetry_cell_setting 'orthorhombic'
loop_
_space_group_symop_operation_xyz
x,y,z
-x,1/2-y,z
x,1/2-y,1/2-z
-x,y,1/2-z
-x,-y,-z
x,1/2+y,-z
-x,1/2+y,1/2+z
x,-y,1/2+z
1/2+x,1/2+y,z
1/2-x,-y,z
1/2+x,-y,1/2-z
1/2-x,1/2+y,1/2-z
1/2-x,1/2-y,-z
1/2+x,y,-z
1/2-x,y,1/2+z
1/2+x,1/2-y,1/2+z
loop_
_atom_site_type_symbol
_atom_site_label
_atom_site_fract_x
_atom_site_fract_y
_atom_site_fract_z
Si Si1 0.877988 0.956671 0.328647
Si Si2 0.500000 0.250000 0.250000
Si Si3 0.195528 0.721819 0.074919
Si Si4 0.946354 0.620947 0.529880
Si Si5 0.750000 0.500000 0.301905
O O1 0.824434 0.862453 0.383972
O O2 0.826200 0.008450 0.254433
O O3 0.944832 0.852196 0.299641
O O4 0.909578 0.074378 0.385370
O O5 0.236019 0.627091 0.140518
O O6 0.250000 0.750000 0.000000
O O7 0.118650 0.652725 0.037602
O O8 0.000000 0.750000 0.540026
O O9 0.000000 0.500000 0.500000
#
# Coordination Sequence:
#
# PCOD9510814 Si02
#       5
#    16   4  16  16   8
#     4  12  25  46  73 110 151 205 253 320 394 459
#     4  12  24  48  74 100 164 198 244 320 412 444
#     4  12  25  47  75 105 152 198 257 321 379 457
#     4  12  26  48  78 110 152 203 261 311 387 470
#     4  12  26  44  74 112 152 196 258 324 382 460
#
# _framework density 21.147946999999998
#
# number of rings (size 3 to 8) (size 9 to 14) (size 15 to 20)
#    0.000    0.000    5.333    4.800    0.000    0.000 
#    0.000    3.333    0.000    0.000    0.000    0.000 
#    0.000    0.000    0.000    0.000    0.000    0.000 
#
# Total GULP energy -168074.602495 kJ/mol
# GULP energy per Si atom -5602.486750 kJ/mol
# Density = 2.109981 g / cm^3
# Si number density = 21.147947 Si / 1000 Ang^3
#
#
#
# Elastic Constant Matrix: (Units=GPa)
#
#
# Indices 1 2 3 4 5 6 
#
# 1 122.3666 76.3268 84.2727 0.0000 0.0000 0.0000
# 2 76.3268 151.1141 76.5890 0.0000 0.0000 0.0000
# 3 84.2727 76.5890 162.9394 0.0000 0.0000 0.0000
# 4 0.0000 0.0000 0.0000 50.7615 0.0000 0.0000
# 5 0.0000 0.0000 0.0000 0.0000 49.1713 0.0000
# 6 0.0000 0.0000 0.0000 0.0000 0.0000 32.0848
#
#
#
# Elastic Compliance Matrix: (Units=1/GPa)
#
#
# Indices 1 2 3 4 5 6 
#
# 1 0.014910 -0.004755 -0.005476 0.000000 0.000000 0.000000
# 2 -0.004755 0.010204 -0.002337 0.000000 0.000000 0.000000
# 3 -0.005476 -0.002337 0.010068 0.000000 0.000000 0.000000
# 4 0.000000 0.000000 0.000000 0.019700 0.000000 0.000000
# 5 0.000000 0.000000 0.000000 0.000000 0.020337 0.000000
# 6 0.000000 0.000000 0.000000 0.000000 0.000000 0.031167
#
#
# Mechanical properties :
#
#
# Convention : Reuss Voigt Hill
#
# Bulk Modulus (GPa) = 99.55278 101.19967 100.37622
# Shear Modulus (GPa) = 37.07263 39.68563 38.37913
#
# Velocity S-wave (km/s) = 4.19144 4.33664 4.26466
# Velocity P-wave (km/s) = 8.40243 8.54590 8.47447
#
# Compressibility (1/GPa) = 0.01004492
#
# Stress axis : x y z
#
# Youngs Moduli (GPa) = 67.07060 98.00322 99.32576
#
# Poissons Ratio (x) = 0.46604 0.54392
# Poissons Ratio (y) = 0.31894 0.23210
# Poissons Ratio (z) = 0.36728 0.22901
#
# Static dielectric constant tensor:
#      x y z
#    x 1.732370 0.000000 0.000000 
#    y 0.000000 1.710660 0.000000 
#    z 0.000000 0.000000 2.737340 
# 
# From -- ./inp_files/27716.got.cif
#   From: 2010.05.17/outbox.cif.g08.bks.cpg/sg68_14_cif.got.tgz:27716.got - 2010.06.03 18:57:09.
