data_PCOD9510034
_publ_section_title
;
Structure prediction by ZEFSAII (Michael W. Deem and Ramdas Pophale) SiO2 
 PCOD9510034
Probable space group: C C C A
;
_chemical_formula_sum "Si O2"
_cell_formula_units_Z 56
_cell_length_a 11.491905
_cell_length_b 19.298915
_cell_length_c 13.379292
_cell_angle_alpha 90.000000
_cell_angle_beta 90.000000
_cell_angle_gamma 90.000000
_cell_volume 2967.276743
_symmetry_space_group_name_H-M "C C C A"
_symmetry_group_IT_number 68
_space_group.IT_coordinate_system_code '2'
_symmetry_cell_setting 'orthorhombic'
loop_
_space_group_symop_operation_xyz
x,y,z
-x,1/2-y,z
x,1/2-y,1/2-z
-x,y,1/2-z
-x,-y,-z
x,1/2+y,-z
-x,1/2+y,1/2+z
x,-y,1/2+z
1/2+x,1/2+y,z
1/2-x,-y,z
1/2+x,-y,1/2-z
1/2-x,1/2+y,1/2-z
1/2-x,1/2-y,-z
1/2+x,y,-z
1/2-x,y,1/2+z
1/2+x,1/2-y,1/2+z
loop_
_atom_site_type_symbol
_atom_site_label
_atom_site_fract_x
_atom_site_fract_y
_atom_site_fract_z
Si Si1 0.648588 0.443080 0.100758
Si Si2 0.698410 0.077580 0.621232
Si Si3 0.640887 0.329827 0.258752
Si Si4 0.500000 0.031279 0.750000
O O1 0.750000 0.500000 0.100944
O O2 0.681420 0.377122 0.166751
O O3 0.543813 0.481664 0.159389
O O4 0.637190 0.418506 0.986743
O O5 0.800465 0.132455 0.645401
O O6 0.601672 0.078567 0.706866
O O7 0.750000 0.000000 0.629020
O O8 0.676372 0.250000 0.250000
O O9 0.500000 0.331771 0.250000
#
# Coordination Sequence:
#
# PCOD9510034 Si02
#       4
#    16  16  16   8
#     4  11  21  37  64  91 115 154 200 250 297 352
#     4  11  22  37  62  92 119 153 202 252 298 350
#     4  11  22  41  62  83 123 163 199 241 295 362
#     4  12  18  38  64  90 120 152 192 256 304 346
#
# _framework density 18.872523999999999
#
# number of rings (size 3 to 8) (size 9 to 14) (size 15 to 20)
#    0.000    0.857    7.143    0.857    0.000    3.429 
#    0.000    0.714    0.000    0.000    0.000    0.000 
#    0.000    0.000    0.000    0.000    0.000    0.000 
#
# Total GULP energy -156117.932080 kJ/mol
# GULP energy per Si atom -5575.640431 kJ/mol
# Density = 1.882957 g / cm^3
# Si number density = 18.872524 Si / 1000 Ang^3
#
#
#
# Elastic Constant Matrix: (Units=GPa)
#
#
# Indices 1 2 3 4 5 6 
#
# 1 75.2602 23.3001 42.0077 0.0000 0.0000 0.0000
# 2 23.3001 119.2487 25.3012 0.0000 0.0000 0.0000
# 3 42.0077 25.3012 114.2726 0.0000 0.0000 0.0000
# 4 0.0000 0.0000 0.0000 4.2848 0.0000 0.0000
# 5 0.0000 0.0000 0.0000 0.0000 30.5807 0.0000
# 6 0.0000 0.0000 0.0000 0.0000 0.0000 26.4233
#
#
#
# Elastic Compliance Matrix: (Units=1/GPa)
#
#
# Indices 1 2 3 4 5 6 
#
# 1 0.017214 -0.002120 -0.005858 0.000000 0.000000 0.000000
# 2 -0.002120 0.009060 -0.001227 0.000000 0.000000 0.000000
# 3 -0.005858 -0.001227 0.011176 0.000000 0.000000 0.000000
# 4 0.000000 0.000000 0.000000 0.233383 0.000000 0.000000
# 5 0.000000 0.000000 0.000000 0.000000 0.032700 0.000000
# 6 0.000000 0.000000 0.000000 0.000000 0.000000 0.037845
#
#
# Mechanical properties :
#
#
# Convention : Reuss Voigt Hill
#
# Bulk Modulus (GPa) = 52.52260 54.44437 53.48348
# Shear Modulus (GPa) = 13.65612 26.80257 20.22935
#
# Velocity S-wave (km/s) = 2.69290 3.77263 3.27753
# Velocity P-wave (km/s) = 6.12858 6.92012 6.53635
#
# Compressibility (1/GPa) = 0.01903942
#
# Stress axis : x y z
#
# Youngs Moduli (GPa) = 58.09333 110.37047 89.47584
#
# Poissons Ratio (x) = 0.23403 0.52419
# Poissons Ratio (y) = 0.12318 0.10975
# Poissons Ratio (z) = 0.34034 0.13538
#
# Static dielectric constant tensor:
#      x y z
#    x 1.709520 0.000000 0.000000 
#    y 0.000000 1.634630 0.000000 
#    z 0.000000 0.000000 1.709150 
# 
# From -- ./inp_files/11436.got.cif
#   From: 2010.05.17/outbox.cif.g08.bks.cpg/sg68_6_cif.got.tgz:11436.got - 2010.06.03 18:57:09.
