data_PCOD9510443
_publ_section_title
;
Structure prediction by ZEFSAII (Michael W. Deem and Ramdas Pophale) SiO2 
 PCOD9510443
Probable space group: C C C A
;
_chemical_formula_sum "Si O2"
_cell_formula_units_Z 60
_cell_length_a 4.995269
_cell_length_b 23.815265
_cell_length_c 22.387977
_cell_angle_alpha 90.000000
_cell_angle_beta 90.000000
_cell_angle_gamma 90.000000
_cell_volume 2663.355572
_symmetry_space_group_name_H-M "C C C A"
_symmetry_group_IT_number 68
_space_group.IT_coordinate_system_code '2'
_symmetry_cell_setting 'orthorhombic'
loop_
_space_group_symop_operation_xyz
x,y,z
-x,1/2-y,z
x,1/2-y,1/2-z
-x,y,1/2-z
-x,-y,-z
x,1/2+y,-z
-x,1/2+y,1/2+z
x,-y,1/2+z
1/2+x,1/2+y,z
1/2-x,-y,z
1/2+x,-y,1/2-z
1/2-x,1/2+y,1/2-z
1/2-x,1/2-y,-z
1/2+x,y,-z
1/2-x,y,1/2+z
1/2+x,1/2-y,1/2+z
loop_
_atom_site_type_symbol
_atom_site_label
_atom_site_fract_x
_atom_site_fract_y
_atom_site_fract_z
Si Si1 0.717237 0.597010 0.361934
Si Si2 0.250000 0.500000 0.219056
Si Si3 0.250000 0.500000 0.042659
Si Si4 0.787082 0.171986 0.849770
Si Si5 0.500000 0.750000 0.545071
Si Si6 0.500000 0.250000 0.750000
O O1 0.609147 0.549892 0.316879
O O2 0.774239 0.556910 0.418287
O O3 0.484082 0.641741 0.371226
O O4 0.979575 0.627349 0.335660
O O5 0.500000 0.472148 0.250000
O O6 0.500000 0.500000 0.000000
O O7 0.920931 0.202202 0.906913
O O8 0.687151 0.212213 0.794892
O O9 0.250000 0.750000 0.500000
#
# Coordination Sequence:
#
# PCOD9510443 Si02
#       6
#    16   8   8  16   8   4
#     4  11  26  44  70 108 142 185 246 293 368 454
#     4  11  24  43  66 102 140 183 224 287 352 438
#     4  11  24  45  74 108 152 187 236 305 366 452
#     4  12  27  48  74 107 146 198 255 309 383 448
#     4  12  27  49  72 103 145 190 254 324 374 438
#     4  12  30  50  76 110 154 206 264 336 372 460
#
# _framework density 22.527971999999998
#
# number of rings (size 3 to 8) (size 9 to 14) (size 15 to 20)
#    0.000    0.533    0.000    7.200    5.600   14.400 
#    0.000    0.000    0.000    0.000    0.000    0.000 
#    0.000    0.000    0.000    0.000    0.000    0.000 
#
# Total GULP energy -167352.782719 kJ/mol
# GULP energy per Si atom -5578.426091 kJ/mol
# Density = 2.247670 g / cm^3
# Si number density = 22.527972 Si / 1000 Ang^3
#
#
#
# Elastic Constant Matrix: (Units=GPa)
#
#
# Indices 1 2 3 4 5 6 
#
# 1 178.8676 65.4730 49.4228 0.0000 0.0000 0.0000
# 2 65.4730 134.4129 74.3890 0.0000 0.0000 0.0000
# 3 49.4228 74.3890 108.7040 0.0000 0.0000 0.0000
# 4 0.0000 0.0000 0.0000 -117.7777 0.0000 0.0000
# 5 0.0000 0.0000 0.0000 0.0000 34.8184 0.0000
# 6 0.0000 0.0000 0.0000 0.0000 0.0000 49.6623
#
#
#
# Elastic Compliance Matrix: (Units=1/GPa)
#
#
# Indices 1 2 3 4 5 6 
#
# 1 0.006925 -0.002625 -0.001352 0.000000 0.000000 0.000000
# 2 -0.002625 0.012970 -0.007682 0.000000 0.000000 0.000000
# 3 -0.001352 -0.007682 0.015071 0.000000 0.000000 0.000000
# 4 0.000000 0.000000 0.000000 -0.008491 0.000000 0.000000
# 5 0.000000 0.000000 0.000000 0.000000 0.028720 0.000000
# 6 0.000000 0.000000 0.000000 0.000000 0.000000 0.020136
#
#
# Mechanical properties :
#
#
# Convention : Reuss Voigt Hill
#
# Bulk Modulus (GPa) = 85.85485 88.95047 87.40266
# Shear Modulus (GPa) = 48.76432 8.85390 28.80911
#
# Velocity S-wave (km/s) = 4.65759 1.98462 3.57993
# Velocity P-wave (km/s) = 8.19251 6.69491 7.48128
#
# Compressibility (1/GPa) = 0.01164757
#
# Stress axis : x y z
#
# Youngs Moduli (GPa) = 144.40028 77.10085 66.35108
#
# Poissons Ratio (x) = 0.20238 0.08973
# Poissons Ratio (y) = 0.37903 0.50973
# Poissons Ratio (z) = 0.19527 0.59231
#
# Static dielectric constant tensor:
#      x y z
#    x 2.081030 0.000000 0.000000 
#    y 0.000000 1.860890 0.000000 
#    z 0.000000 0.000000 2.477380 
# 
# From -- ./inp_files/35000.got.cif
#   From: 2010.05.17/outbox.cif.g08.bks.cpg/sg68_18_cif.got.tgz:35000.got - 2010.06.03 18:57:09.
