data_PCOD9510081
_publ_section_title
;
Structure prediction by ZEFSAII (Michael W. Deem and Ramdas Pophale) SiO2 
 PCOD9510081
Probable space group: C C C A
;
_chemical_formula_sum "Si O2"
_cell_formula_units_Z 116
_cell_length_a 29.660762
_cell_length_b 17.832497
_cell_length_c 11.601128
_cell_angle_alpha 90.000000
_cell_angle_beta 90.000000
_cell_angle_gamma 90.000000
_cell_volume 6136.131841
_symmetry_space_group_name_H-M "C C C A"
_symmetry_group_IT_number 68
_space_group.IT_coordinate_system_code '2'
_symmetry_cell_setting 'orthorhombic'
loop_
_space_group_symop_operation_xyz
x,y,z
-x,1/2-y,z
x,1/2-y,1/2-z
-x,y,1/2-z
-x,-y,-z
x,1/2+y,-z
-x,1/2+y,1/2+z
x,-y,1/2+z
1/2+x,1/2+y,z
1/2-x,-y,z
1/2+x,-y,1/2-z
1/2-x,1/2+y,1/2-z
1/2-x,1/2-y,-z
1/2+x,y,-z
1/2-x,y,1/2+z
1/2+x,1/2-y,1/2+z
loop_
_atom_site_type_symbol
_atom_site_label
_atom_site_fract_x
_atom_site_fract_y
_atom_site_fract_z
Si Si1 0.847761 0.087981 0.636601
Si Si2 0.210363 0.173932 0.677726
Si Si3 0.130226 0.077089 0.294227
Si Si4 0.049747 0.831396 0.699764
Si Si5 0.000000 0.250000 0.750000
Si Si6 0.929586 0.195603 0.563065
Si Si7 0.309245 0.868161 0.099476
Si Si8 0.646981 0.287493 0.966332
O O1 0.820480 0.118434 0.746703
O O2 0.890978 0.139895 0.609144
O O3 0.814484 0.098720 0.528066
O O4 0.865594 0.004111 0.650462
O O5 0.217510 0.250000 0.750000
O O6 0.258540 0.142196 0.640914
O O7 0.183275 0.196452 0.564226
O O8 0.082065 0.103217 0.245030
O O9 0.164385 0.079753 0.187677
O O10 0.143852 0.142330 0.382805
O O11 0.065986 0.750000 0.750000
O O12 0.050355 0.829254 0.560707
O O13 0.000000 0.840912 0.750000
O O14 0.966801 0.206607 0.661515
O O15 0.900738 0.269808 0.528522
O O16 0.335924 0.788143 0.097421
#
# Coordination Sequence:
#
# PCOD9510081 Si02
#       8
#    16  16  16  16   4  16  16  16
#     4  11  27  45  63  97 141 177 215 271 339 404
#     4  12  23  41  70  98 131 175 230 276 320 387
#     4  12  24  44  67  95 138 176 215 271 347 383
#     4  11  21  41  73 103 123 166 226 280 325 396
#     4  12  24  40  70 104 128 172 222 282 324 396
#     4  11  22  44  67  97 135 169 222 274 328 399
#     4  11  24  44  66  97 129 175 228 278 312 392
#     4  11  22  41  72  95 128 179 223 270 328 387
#
# _framework density 18.904416999999999
#
# number of rings (size 3 to 8) (size 9 to 14) (size 15 to 20)
#    0.000    0.690    6.897    3.310    3.862    0.552 
#    1.241    0.690    0.000    0.000    0.000    0.000 
#    0.000    0.000    0.000    0.000    0.000    0.000 
#
# Total GULP energy -324121.198058 kJ/mol
# GULP energy per Si atom -5588.296518 kJ/mol
# Density = 1.886139 g / cm^3
# Si number density = 18.904417 Si / 1000 Ang^3
#
#
#
# Elastic Constant Matrix: (Units=GPa)
#
#
# Indices 1 2 3 4 5 6 
#
# 1 115.4617 18.0913 39.8045 0.0000 0.0000 0.0000
# 2 18.0913 81.6859 27.3705 0.0000 0.0000 0.0000
# 3 39.8045 27.3705 92.3521 0.0000 0.0000 0.0000
# 4 0.0000 0.0000 0.0000 13.5668 0.0000 0.0000
# 5 0.0000 0.0000 0.0000 0.0000 73.0573 0.0000
# 6 0.0000 0.0000 0.0000 0.0000 0.0000 -20.3120
#
#
#
# Elastic Compliance Matrix: (Units=1/GPa)
#
#
# Indices 1 2 3 4 5 6 
#
# 1 0.010228 -0.000875 -0.004149 0.000000 0.000000 0.000000
# 2 -0.000875 0.013667 -0.003673 0.000000 0.000000 0.000000
# 3 -0.004149 -0.003673 0.013705 0.000000 0.000000 0.000000
# 4 0.000000 0.000000 0.000000 0.073709 0.000000 0.000000
# 5 0.000000 0.000000 0.000000 0.000000 0.013688 0.000000
# 6 0.000000 0.000000 0.000000 0.000000 0.000000 -0.049232
#
#
# Mechanical properties :
#
#
# Convention : Reuss Voigt Hill
#
# Bulk Modulus (GPa) = 49.49231 51.11469 50.30350
# Shear Modulus (GPa) = 50.05247 26.87799 38.46523
#
# Velocity S-wave (km/s) = 5.15112 3.77474 4.51568
# Velocity P-wave (km/s) = 7.84958 6.78936 7.33864
#
# Compressibility (1/GPa) = 0.02020516
#
# Stress axis : x y z
#
# Youngs Moduli (GPa) = 97.76715 73.17098 72.96553
#
# Poissons Ratio (x) = 0.06403 0.30275
# Poissons Ratio (y) = 0.08555 0.26802
# Poissons Ratio (z) = 0.40565 0.26877
#
# Static dielectric constant tensor:
#      x y z
#    x 1.649590 0.000000 0.000000 
#    y 0.000000 1.660480 0.000000 
#    z 0.000000 0.000000 1.647130 
# 
# From -- ./inp_files/17864.got.cif
#   From: 2010.05.17/outbox.cif.g08.bks.cpg/sg68_9_cif.got.tgz:17864.got - 2010.06.03 18:57:09.
