data_PCOD9510033
_publ_section_title
;
Structure prediction by ZEFSAII (Michael W. Deem and Ramdas Pophale) SiO2 
 PCOD9510033
Probable space group: C C C A
;
_chemical_formula_sum "Si O2"
_cell_formula_units_Z 116
_cell_length_a 29.877144
_cell_length_b 9.671657
_cell_length_c 21.986009
_cell_angle_alpha 90.000000
_cell_angle_beta 90.000000
_cell_angle_gamma 90.000000
_cell_volume 6353.109896
_symmetry_space_group_name_H-M "C C C A"
_symmetry_group_IT_number 68
_space_group.IT_coordinate_system_code '2'
_symmetry_cell_setting 'orthorhombic'
loop_
_space_group_symop_operation_xyz
x,y,z
-x,1/2-y,z
x,1/2-y,1/2-z
-x,y,1/2-z
-x,-y,-z
x,1/2+y,-z
-x,1/2+y,1/2+z
x,-y,1/2+z
1/2+x,1/2+y,z
1/2-x,-y,z
1/2+x,-y,1/2-z
1/2-x,1/2+y,1/2-z
1/2-x,1/2-y,-z
1/2+x,y,-z
1/2-x,y,1/2+z
1/2+x,1/2-y,1/2+z
loop_
_atom_site_type_symbol
_atom_site_label
_atom_site_fract_x
_atom_site_fract_y
_atom_site_fract_z
Si Si1 0.801823 0.496086 0.874455
Si Si2 0.300925 0.046204 0.631286
Si Si3 0.646672 0.724048 0.591209
Si Si4 0.438321 0.473722 0.249701
Si Si5 0.845747 0.097516 0.245101
Si Si6 0.548910 0.250709 0.353941
Si Si7 0.700426 0.777638 0.029281
Si Si8 0.500000 0.250000 0.750000
O O1 0.750000 0.500000 0.857021
O O2 0.824547 0.346363 0.877424
O O3 0.826989 0.577627 0.821904
O O4 0.802852 0.571563 0.939825
O O5 0.309682 0.084022 0.701309
O O6 0.307196 0.170838 0.584085
O O7 0.250000 0.000000 0.623440
O O8 0.334241 0.921852 0.614325
O O9 0.593967 0.739517 0.605770
O O10 0.662160 0.735064 0.521234
O O11 0.385217 0.490122 0.255432
O O12 0.452462 0.377145 0.306193
O O13 0.447169 0.387870 0.187937
O O14 0.461838 0.623238 0.249515
O O15 0.864940 0.250000 0.250000
O O16 0.500000 0.250000 0.385613
O O17 0.750000 0.750000 0.000000
#
# Coordination Sequence:
#
# PCOD9510033 Si02
#       8
#    16  16  16  16  16  16  16   4
#     4  12  24  42  63  92 132 175 216 272 328 390
#     4  12  24  42  63  92 132 175 216 272 328 390
#     4  12  25  38  68 100 126 173 230 273 314 391
#     4  11  21  37  63  93 130 164 214 270 325 399
#     4  12  24  39  59  96 136 165 204 270 347 389
#     4  11  22  42  64  95 128 172 216 275 330 384
#     4  12  24  43  66  89 128 180 229 266 316 386
#     4  12  20  34  64  96 120 166 216 268 332 400
#
# _framework density 18.258773999999999
#
# number of rings (size 3 to 8) (size 9 to 14) (size 15 to 20)
#    0.000    0.276    8.966    1.655    0.000    0.552 
#    0.000    0.000    0.000    3.310    3.586    0.000 
#    0.000    0.000    0.000    0.000    0.000    0.000 
#
# Total GULP energy -323200.565292 kJ/mol
# GULP energy per Si atom -5572.423540 kJ/mol
# Density = 1.821722 g / cm^3
# Si number density = 18.258774 Si / 1000 Ang^3
#
#
#
# Elastic Constant Matrix: (Units=GPa)
#
#
# Indices 1 2 3 4 5 6 
#
# 1 125.3690 12.6850 17.7854 0.0000 0.0000 0.0000
# 2 12.6850 93.3764 5.4091 0.0000 0.0000 0.0000
# 3 17.7854 5.4091 63.1405 0.0000 0.0000 0.0000
# 4 0.0000 0.0000 0.0000 25.2238 0.0000 0.0000
# 5 0.0000 0.0000 0.0000 0.0000 2.9387 0.0000
# 6 0.0000 0.0000 0.0000 0.0000 0.0000 26.5174
#
#
#
# Elastic Compliance Matrix: (Units=1/GPa)
#
#
# Indices 1 2 3 4 5 6 
#
# 1 0.008402 -0.001009 -0.002280 0.000000 0.000000 0.000000
# 2 -0.001009 0.010884 -0.000648 0.000000 0.000000 0.000000
# 3 -0.002280 -0.000648 0.016536 0.000000 0.000000 0.000000
# 4 0.000000 0.000000 0.000000 0.039645 0.000000 0.000000
# 5 0.000000 0.000000 0.000000 0.000000 0.340281 0.000000
# 6 0.000000 0.000000 0.000000 0.000000 0.000000 0.037711
#
#
# Mechanical properties :
#
#
# Convention : Reuss Voigt Hill
#
# Bulk Modulus (GPa) = 35.78293 39.29388 37.53841
# Shear Modulus (GPa) = 10.62362 27.33640 18.98001
#
# Velocity S-wave (km/s) = 2.41475 3.87352 3.22763
# Velocity P-wave (km/s) = 5.23592 6.44770 5.87315
#
# Compressibility (1/GPa) = 0.02794628
#
# Stress axis : x y z
#
# Youngs Moduli (GPa) = 119.01845 91.87796 60.47587
#
# Poissons Ratio (x) = 0.09273 0.13790
# Poissons Ratio (y) = 0.12013 0.03920
# Poissons Ratio (z) = 0.27139 0.05955
#
# Static dielectric constant tensor:
#      x y z
#    x 1.672850 0.000000 0.000000 
#    y 0.000000 1.664170 0.000000 
#    z 0.000000 0.000000 1.627550 
# 
# From -- ./inp_files/47319.got.cif
#   From: 2010.05.17/outbox.cif.g08.bks.cpg/sg68_24_cif.got.tgz:47319.got - 2010.06.03 18:57:09.
