data_PCOD9510934
_publ_section_title
;
Structure prediction by ZEFSAII (Michael W. Deem and Ramdas Pophale) SiO2 
 PCOD9510934
Probable space group: C C C A
;
_chemical_formula_sum "Si O2"
_cell_formula_units_Z 48
_cell_length_a 12.000000
_cell_length_b 18.000000
_cell_length_c 24.000000
_cell_angle_alpha 90.000000
_cell_angle_beta 90.000000
_cell_angle_gamma 90.000000
_cell_volume 5184.000000
_symmetry_space_group_name_H-M "C C C A"
_symmetry_group_IT_number 68
_space_group.IT_coordinate_system_code '2'
_symmetry_cell_setting 'orthorhombic'
loop_
_space_group_symop_operation_xyz
x,y,z
-x,1/2-y,z
x,1/2-y,1/2-z
-x,y,1/2-z
-x,-y,-z
x,1/2+y,-z
-x,1/2+y,1/2+z
x,-y,1/2+z
1/2+x,1/2+y,z
1/2-x,-y,z
1/2+x,-y,1/2-z
1/2-x,1/2+y,1/2-z
1/2-x,1/2-y,-z
1/2+x,y,-z
1/2-x,y,1/2+z
1/2+x,1/2-y,1/2+z
loop_
_atom_site_type_symbol
_atom_site_label
_atom_site_fract_x
_atom_site_fract_y
_atom_site_fract_z
Si Si1 0.328214 0.223644 0.917264
Si Si2 0.455114 0.366456 0.954480
Si Si3 0.215039 0.804664 0.695689
Si Si4 0.131359 0.959118 0.648939
Si Si5 0.456062 0.616425 0.813297
Si Si6 0.071612 0.325540 0.574266
O O1 0.364403 0.299342 0.948825
O O2 0.425280 0.165587 0.933666
O O3 0.328876 0.251340 0.853438
O O4 0.203349 0.193802 0.926981
O O5 0.417670 0.429224 0.910093
O O6 0.457432 0.379092 0.021387
O O7 0.210743 0.750000 0.750000
O O8 0.148088 0.884422 0.687877
O O9 0.341675 0.834361 0.684504
O O10 0.250000 0.000000 0.638771
O O11 0.063726 0.027836 0.676326
O O12 0.500000 0.626779 0.750000
O O13 0.534020 0.643658 0.864841
O O14 0.000000 0.250000 0.565228
#
# Coordination Sequence:
#
# PCOD9510934 Si02
#       6
#    16  16  16  16  16  16
#     4  10  20  36  58  96 124 154 205 267 309 359
#     4  10  22  38  63  89 125 164 206 258 314 372
#     4  10  20  37  64  91 119 163 216 260 309 367
#     4   9  22  43  61  85 127 173 207 251 322 382
#     4  11  24  39  60  90 127 167 208 258 314 380
#     4  12  22  36  64  96 125 161 207 266 319 366
#
# _framework density 9.2592590000000001
#
# number of rings (size 3 to 8) (size 9 to 14) (size 15 to 20)
#    0.000    1.667    3.333    1.500    0.000    2.000 
#    0.000    8.333    0.000    0.000    0.000    0.000 
#    0.000    0.000    0.000    0.000    0.000    0.000 
#
# Total GULP energy -267544.542310 kJ/mol
# GULP energy per Si atom -5573.844631 kJ/mol
# Density = 0.923818 g / cm^3
# Si number density = 9.259259 Si / 1000 Ang^3
#
#
#
# Elastic Constant Matrix: (Units=GPa)
#
#
# Indices 1 2 3 4 5 6 
#
# 1 99.7978 29.5055 41.0368 0.0000 0.0000 0.0000
# 2 29.5055 79.5084 40.4971 0.0000 0.0000 0.0000
# 3 41.0368 40.4971 158.2312 0.0000 0.0000 0.0000
# 4 0.0000 0.0000 0.0000 36.8229 0.0000 0.0000
# 5 0.0000 0.0000 0.0000 0.0000 27.8970 0.0000
# 6 0.0000 0.0000 0.0000 0.0000 0.0000 21.2015
#
#
#
# Elastic Compliance Matrix: (Units=1/GPa)
#
#
# Indices 1 2 3 4 5 6 
#
# 1 0.011914 -0.003274 -0.002252 0.000000 0.000000 0.000000
# 2 -0.003274 0.015363 -0.003083 0.000000 0.000000 0.000000
# 3 -0.002252 -0.003083 0.007693 0.000000 0.000000 0.000000
# 4 0.000000 0.000000 0.000000 0.027157 0.000000 0.000000
# 5 0.000000 0.000000 0.000000 0.000000 0.035846 0.000000
# 6 0.000000 0.000000 0.000000 0.000000 0.000000 0.047166
#
#
# Mechanical properties :
#
#
# Convention : Reuss Voigt Hill
#
# Bulk Modulus (GPa) = 56.33219 62.17959 59.25589
# Shear Modulus (GPa) = 29.71337 32.28415 30.99876
#
# Velocity S-wave (km/s) = 4.00999 4.17987 4.09581
# Velocity P-wave (km/s) = 7.20593 7.54619 7.37802
#
# Compressibility (1/GPa) = 0.01775184
#
# Stress axis : x y z
#
# Youngs Moduli (GPa) = 83.93258 65.09338 129.99089
#
# Poissons Ratio (x) = 0.21314 0.29273
# Poissons Ratio (y) = 0.27483 0.40071
# Poissons Ratio (z) = 0.18901 0.20066
#
# Static dielectric constant tensor:
#      x y z
#    x 1.657860 0.000000 0.000000 
#    y 0.000000 1.636180 0.000000 
#    z 0.000000 0.000000 1.678030 
# 
# From -- ./inp_files/44403.got.cif
#   From: 2010.05.17/outbox.ucp.g08.bks.cvg/sg68_23_cif.got.tgz:44403.got - 2010.06.11 16:49:25.
