data_PCOD9510101
_publ_section_title
;
Structure prediction by ZEFSAII (Michael W. Deem and Ramdas Pophale) SiO2 
 PCOD9510101
Probable space group: C C C A
;
_chemical_formula_sum "Si O2"
_cell_formula_units_Z 80
_cell_length_a 15.621898
_cell_length_b 12.078163
_cell_length_c 20.407123
_cell_angle_alpha 90.000000
_cell_angle_beta 90.000000
_cell_angle_gamma 90.000000
_cell_volume 3850.494135
_symmetry_space_group_name_H-M "C C C A"
_symmetry_group_IT_number 68
_space_group.IT_coordinate_system_code '2'
_symmetry_cell_setting 'orthorhombic'
loop_
_space_group_symop_operation_xyz
x,y,z
-x,1/2-y,z
x,1/2-y,1/2-z
-x,y,1/2-z
-x,-y,-z
x,1/2+y,-z
-x,1/2+y,1/2+z
x,-y,1/2+z
1/2+x,1/2+y,z
1/2-x,-y,z
1/2+x,-y,1/2-z
1/2-x,1/2+y,1/2-z
1/2-x,1/2-y,-z
1/2+x,y,-z
1/2-x,y,1/2+z
1/2+x,1/2-y,1/2+z
loop_
_atom_site_type_symbol
_atom_site_label
_atom_site_fract_x
_atom_site_fract_y
_atom_site_fract_z
Si Si1 0.583968 0.267714 0.943943
Si Si2 0.344042 0.047152 0.600789
Si Si3 0.152294 0.523274 0.620894
Si Si4 0.007979 0.628425 0.421682
Si Si5 0.397349 0.619394 0.256206
O O1 0.500000 0.250000 0.898859
O O2 0.631070 0.149917 0.947366
O O3 0.641152 0.356097 0.909782
O O4 0.542015 0.335125 0.005408
O O5 0.354322 0.089028 0.674868
O O6 0.250000 0.000000 0.586670
O O7 0.415993 0.952469 0.598129
O O8 0.250000 0.500000 0.606462
O O9 0.138337 0.541751 0.698221
O O10 0.080456 0.439294 0.590665
O O11 0.000000 0.750000 0.388412
O O12 0.379791 0.750000 0.250000
O O13 0.500000 0.604243 0.250000
#
# Coordination Sequence:
#
# PCOD9510101 Si02
#       5
#    16  16  16  16  16
#     4  11  23  47  72  97 141 190 239 288 349 430
#     4  12  26  45  72 108 139 185 249 295 355 433
#     4  12  25  44  72 108 142 184 240 299 363 422
#     4  11  27  45  68 102 147 187 231 298 360 420
#     4  11  21  43  76 104 137 188 239 297 357 429
#
# _framework density 20.776554999999998
#
# number of rings (size 3 to 8) (size 9 to 14) (size 15 to 20)
#    0.000    0.600    6.000    1.200    5.600    1.600 
#    0.000    2.000    0.000    0.000    0.000    0.000 
#    0.000    0.000    0.000    0.000    0.000    0.000 
#
# Total GULP energy -222873.532157 kJ/mol
# GULP energy per Si atom -5571.838304 kJ/mol
# Density = 2.072927 g / cm^3
# Si number density = 20.776555 Si / 1000 Ang^3
#
#
#
# Elastic Constant Matrix: (Units=GPa)
#
#
# Indices 1 2 3 4 5 6 
#
# 1 192.7048 99.8377 26.9476 0.0000 0.0000 0.0000
# 2 99.8377 170.0576 31.7838 0.0000 0.0000 0.0000
# 3 26.9476 31.7838 87.5573 0.0000 0.0000 0.0000
# 4 0.0000 0.0000 0.0000 55.4529 0.0000 0.0000
# 5 0.0000 0.0000 0.0000 0.0000 48.2571 0.0000
# 6 0.0000 0.0000 0.0000 0.0000 0.0000 39.3353
#
#
#
# Elastic Compliance Matrix: (Units=1/GPa)
#
#
# Indices 1 2 3 4 5 6 
#
# 1 0.007505 -0.004263 -0.000762 0.000000 0.000000 0.000000
# 2 -0.004263 0.008730 -0.001857 0.000000 0.000000 0.000000
# 3 -0.000762 -0.001857 0.012330 0.000000 0.000000 0.000000
# 4 0.000000 0.000000 0.000000 0.018033 0.000000 0.000000
# 5 0.000000 0.000000 0.000000 0.000000 0.020722 0.000000
# 6 0.000000 0.000000 0.000000 0.000000 0.000000 0.025422
#
#
# Mechanical properties :
#
#
# Convention : Reuss Voigt Hill
#
# Bulk Modulus (GPa) = 67.56855 85.27309 76.42082
# Shear Modulus (GPa) = 44.86670 48.05913 46.46291
#
# Velocity S-wave (km/s) = 4.65207 4.81473 4.73410
# Velocity P-wave (km/s) = 7.83887 8.48769 8.16972
#
# Compressibility (1/GPa) = 0.01479978
#
# Stress axis : x y z
#
# Youngs Moduli (GPa) = 133.25030 114.54208 81.10463
#
# Poissons Ratio (x) = 0.48834 0.06181
# Poissons Ratio (y) = 0.56810 0.15061
# Poissons Ratio (z) = 0.10155 0.21271
#
# Static dielectric constant tensor:
#      x y z
#    x 1.748940 0.000000 0.000000 
#    y 0.000000 1.815980 0.000000 
#    z 0.000000 0.000000 1.896440 
# 
# From -- ./inp_files/45187.got.cif
#   From: 2010.05.17/outbox.cif.g08.bks.cpg/sg68_23_cif.got.tgz:45187.got - 2010.06.03 18:57:09.
