data_PCOD9510558
_publ_section_title
;
Structure prediction by ZEFSAII (Michael W. Deem and Ramdas Pophale) SiO2 
 PCOD9510558
Probable space group: C C C A
;
_chemical_formula_sum "Si O2"
_cell_formula_units_Z 68
_cell_length_a 22.217927
_cell_length_b 7.649354
_cell_length_c 14.630434
_cell_angle_alpha 90.000000
_cell_angle_beta 90.000000
_cell_angle_gamma 90.000000
_cell_volume 2486.483059
_symmetry_space_group_name_H-M "C C C A"
_symmetry_group_IT_number 68
_space_group.IT_coordinate_system_code '2'
_symmetry_cell_setting 'orthorhombic'
loop_
_space_group_symop_operation_xyz
x,y,z
-x,1/2-y,z
x,1/2-y,1/2-z
-x,y,1/2-z
-x,-y,-z
x,1/2+y,-z
-x,1/2+y,1/2+z
x,-y,1/2+z
1/2+x,1/2+y,z
1/2-x,-y,z
1/2+x,-y,1/2-z
1/2-x,1/2+y,1/2-z
1/2-x,1/2-y,-z
1/2+x,y,-z
1/2-x,y,1/2+z
1/2+x,1/2-y,1/2+z
loop_
_atom_site_type_symbol
_atom_site_label
_atom_site_fract_x
_atom_site_fract_y
_atom_site_fract_z
Si Si1 0.159794 0.481854 0.661732
Si Si2 0.105528 0.175152 0.110353
Si Si3 0.807347 0.890741 0.371833
Si Si4 0.542414 0.618960 0.935911
Si Si5 0.500000 0.750000 0.250000
O O1 0.158874 0.689858 0.641525
O O2 0.192884 0.318016 0.611673
O O3 0.180941 0.439960 0.764295
O O4 0.089507 0.456135 0.636092
O O5 0.049472 0.162036 0.181340
O O6 0.135122 0.989272 0.089225
O O7 0.078659 0.224368 0.013365
O O8 0.750000 0.000000 0.403380
O O9 0.500000 0.750000 0.882204
O O10 0.500000 0.500000 0.000000
#
# Coordination Sequence:
#
# PCOD9510558 Si02
#       5
#    16  16  16  16   4
#     4  11  25  44  70 104 135 187 241 296 366 432
#     4  12  24  44  70 103 149 185 241 295 380 434
#     4  11  27  48  73 102 136 189 258 311 354 428
#     4  12  23  43  69 102 151 191 223 288 368 453
#     4  12  20  40  70 108 136 196 232 306 358 440
#
# _framework density 27.347864999999999
#
# number of rings (size 3 to 8) (size 9 to 14) (size 15 to 20)
#    0.000    0.471    5.882    1.412    6.588    0.000 
#    0.000    2.353    0.000    0.000    0.000    0.000 
#    0.000    0.000    0.000    0.000    0.000    0.000 
#
# Total GULP energy -189711.875775 kJ/mol
# GULP energy per Si atom -5579.761052 kJ/mol
# Density = 2.728562 g / cm^3
# Si number density = 27.347865 Si / 1000 Ang^3
#
#
#
# Elastic Constant Matrix: (Units=GPa)
#
#
# Indices 1 2 3 4 5 6 
#
# 1 127.9867 37.0936 28.6122 0.0000 0.0000 0.0000
# 2 37.0936 149.6019 29.6656 0.0000 0.0000 0.0000
# 3 28.6122 29.6656 72.5104 0.0000 0.0000 0.0000
# 4 0.0000 0.0000 0.0000 43.3736 0.0000 0.0000
# 5 0.0000 0.0000 0.0000 0.0000 149.6800 0.0000
# 6 0.0000 0.0000 0.0000 0.0000 0.0000 47.6213
#
#
#
# Elastic Compliance Matrix: (Units=1/GPa)
#
#
# Indices 1 2 3 4 5 6 
#
# 1 0.008928 -0.001649 -0.002848 0.000000 0.000000 0.000000
# 2 -0.001649 0.007579 -0.002450 0.000000 0.000000 0.000000
# 3 -0.002848 -0.002450 0.015917 0.000000 0.000000 0.000000
# 4 0.000000 0.000000 0.000000 0.023055 0.000000 0.000000
# 5 0.000000 0.000000 0.000000 0.000000 0.006681 0.000000
# 6 0.000000 0.000000 0.000000 0.000000 0.000000 0.020999
#
#
# Mechanical properties :
#
#
# Convention : Reuss Voigt Hill
#
# Bulk Modulus (GPa) = 53.96698 60.09352 57.03025
# Shear Modulus (GPa) = 48.43495 65.11682 56.77589
#
# Velocity S-wave (km/s) = 4.21297 4.88490 4.56133
# Velocity P-wave (km/s) = 6.59105 7.33742 6.97423
#
# Compressibility (1/GPa) = 0.01852985
#
# Stress axis : x y z
#
# Youngs Moduli (GPa) = 112.00775 131.94181 62.82402
#
# Poissons Ratio (x) = 0.21755 0.17894
# Poissons Ratio (y) = 0.18469 0.15393
# Poissons Ratio (z) = 0.31904 0.32328
#
# Static dielectric constant tensor:
#      x y z
#    x 2.171850 0.000000 0.000000 
#    y 0.000000 1.643430 0.000000 
#    z 0.000000 0.000000 2.230780 
# 
# From -- ./inp_files/28168.got.cif
#   From: 2010.05.17/outbox.cif.g08.bks.cpg/sg68_15_cif.got.tgz:28168.got - 2010.06.03 18:57:09.
