data_PCOD9510810
_publ_section_title
;
Structure prediction by ZEFSAII (Michael W. Deem and Ramdas Pophale) SiO2 
 PCOD9510810
Probable space group: C C C A
;
_chemical_formula_sum "Si O2"
_cell_formula_units_Z 72
_cell_length_a 21.151226
_cell_length_b 5.070918
_cell_length_c 28.833435
_cell_angle_alpha 90.000000
_cell_angle_beta 90.000000
_cell_angle_gamma 90.000000
_cell_volume 3092.562729
_symmetry_space_group_name_H-M "C C C A"
_symmetry_group_IT_number 68
_space_group.IT_coordinate_system_code '2'
_symmetry_cell_setting 'orthorhombic'
loop_
_space_group_symop_operation_xyz
x,y,z
-x,1/2-y,z
x,1/2-y,1/2-z
-x,y,1/2-z
-x,-y,-z
x,1/2+y,-z
-x,1/2+y,1/2+z
x,-y,1/2+z
1/2+x,1/2+y,z
1/2-x,-y,z
1/2+x,-y,1/2-z
1/2-x,1/2+y,1/2-z
1/2-x,1/2-y,-z
1/2+x,y,-z
1/2-x,y,1/2+z
1/2+x,1/2-y,1/2+z
loop_
_atom_site_type_symbol
_atom_site_label
_atom_site_fract_x
_atom_site_fract_y
_atom_site_fract_z
Si Si1 0.136005 0.243421 0.030244
Si Si2 0.118824 0.517475 0.279564
Si Si3 0.575294 0.248304 0.871134
Si Si4 0.250000 0.000000 0.575161
Si Si5 0.686352 0.332772 0.347603
O O1 0.096555 0.187785 0.076514
O O2 0.208846 0.201959 0.045514
O O3 0.123646 0.530211 0.009727
O O4 0.126867 0.250000 0.250000
O O5 0.085815 0.447110 0.327905
O O6 0.179762 0.663178 0.300888
O O7 0.086115 0.750000 0.250000
O O8 0.500000 0.250000 0.873334
O O9 0.623811 0.489178 0.856920
O O10 0.200749 0.148675 0.608462
O O11 0.750000 0.500000 0.343442
#
# Coordination Sequence:
#
# PCOD9510810 Si02
#       5
#    16  16  16   8  16
#     4  12  27  48  80 119 155 209 268 330 404 484
#     4  12  27  55  79 120 157 210 269 330 396 482
#     4  12  29  54  80 114 167 215 262 336 405 478
#     4  12  24  46  80 116 160 208 264 336 404 480
#     4  12  24  52  83 116 162 210 266 331 411 482
#
# _framework density 23.281659999999999
#
# number of rings (size 3 to 8) (size 9 to 14) (size 15 to 20)
#    0.000    0.000    6.667    2.000    0.000    2.222 
#   10.000    0.000    0.000    0.000    0.000    0.000 
#    0.000    0.000    0.000    0.000    0.000    0.000 
#
# Total GULP energy -201136.351933 kJ/mol
# GULP energy per Si atom -5587.120887 kJ/mol
# Density = 2.322867 g / cm^3
# Si number density = 23.281660 Si / 1000 Ang^3
#
#
#
# Elastic Constant Matrix: (Units=GPa)
#
#
# Indices 1 2 3 4 5 6 
#
# 1 123.9831 41.9482 45.2915 0.0000 0.0000 0.0000
# 2 41.9482 85.3026 41.9508 0.0000 0.0000 0.0000
# 3 45.2915 41.9508 165.2804 0.0000 0.0000 0.0000
# 4 0.0000 0.0000 0.0000 31.6759 0.0000 0.0000
# 5 0.0000 0.0000 0.0000 0.0000 -85.3418 0.0000
# 6 0.0000 0.0000 0.0000 0.0000 0.0000 -1.0755
#
#
#
# Elastic Compliance Matrix: (Units=1/GPa)
#
#
# Indices 1 2 3 4 5 6 
#
# 1 0.010086 -0.004114 -0.001720 0.000000 0.000000 0.000000
# 2 -0.004114 0.015073 -0.002698 0.000000 0.000000 0.000000
# 3 -0.001720 -0.002698 0.007206 0.000000 0.000000 0.000000
# 4 0.000000 0.000000 0.000000 0.031570 0.000000 0.000000
# 5 0.000000 0.000000 0.000000 0.000000 -0.011718 0.000000
# 6 0.000000 0.000000 0.000000 0.000000 0.000000 -0.929804
#
#
# Mechanical properties :
#
#
# Convention : Reuss Voigt Hill
#
# Bulk Modulus (GPa) = 65.35437 70.32744 67.84091
# Shear Modulus (GPa) = -5.84507 5.41009 -0.21749
#
# Velocity S-wave (km/s) = -1.58620 1.52604 -0.30597
# Velocity P-wave (km/s) = 4.97769 5.77736 5.39237
#
# Compressibility (1/GPa) = 0.01530119
#
# Stress axis : x y z
#
# Youngs Moduli (GPa) = 99.15010 66.34310 138.76482
#
# Poissons Ratio (x) = 0.27294 0.23861
# Poissons Ratio (y) = 0.40791 0.37445
# Poissons Ratio (z) = 0.17049 0.17902
#
# Static dielectric constant tensor:
#      x y z
#    x 2.145050 0.000000 0.000000 
#    y 0.000000 2.038760 0.000000 
#    z 0.000000 0.000000 1.878240 
# 
# From -- ./inp_files/52042.got.cif
#   From: 2010.05.17/outbox.cif.g08.bks.cpg/sg68_27_cif.got.tgz:52042.got - 2010.06.03 18:57:09.
