data_PCOD9510869
_publ_section_title
;
Structure prediction by ZEFSAII (Michael W. Deem and Ramdas Pophale) SiO2 
 PCOD9510869
Probable space group: C C C A
;
_chemical_formula_sum "Si O2"
_cell_formula_units_Z 68
_cell_length_a 18.319574
_cell_length_b 17.340168
_cell_length_c 7.613285
_cell_angle_alpha 90.000000
_cell_angle_beta 90.000000
_cell_angle_gamma 90.000000
_cell_volume 2418.470303
_symmetry_space_group_name_H-M "C C C A"
_symmetry_group_IT_number 68
_space_group.IT_coordinate_system_code '2'
_symmetry_cell_setting 'orthorhombic'
loop_
_space_group_symop_operation_xyz
x,y,z
-x,1/2-y,z
x,1/2-y,1/2-z
-x,y,1/2-z
-x,-y,-z
x,1/2+y,-z
-x,1/2+y,1/2+z
x,-y,1/2+z
1/2+x,1/2+y,z
1/2-x,-y,z
1/2+x,-y,1/2-z
1/2-x,1/2+y,1/2-z
1/2-x,1/2-y,-z
1/2+x,y,-z
1/2-x,y,1/2+z
1/2+x,1/2-y,1/2+z
loop_
_atom_site_type_symbol
_atom_site_label
_atom_site_fract_x
_atom_site_fract_y
_atom_site_fract_z
Si Si1 0.442088 0.547455 0.887811
Si Si2 0.823410 0.916736 0.922196
Si Si3 0.395263 0.786360 0.931780
Si Si4 0.000000 0.750000 0.750000
Si Si5 0.322226 0.643769 0.050470
O O1 0.500000 0.581503 0.750000
O O2 0.375743 0.485746 0.853002
O O3 0.500000 0.500000 0.000000
O O4 0.402004 0.612243 0.998337
O O5 0.816905 0.859439 0.757801
O O6 0.863709 0.872896 0.082720
O O7 0.739298 0.916617 0.984607
O O8 0.423312 0.750000 0.750000
O O9 0.447315 0.789813 0.103942
O O10 0.327297 0.729222 0.974515
#
# Coordination Sequence:
#
# PCOD9510869 Si02
#       5
#    16  16  16   4  16
#     4  12  29  48  77 112 156 205 260 325 402 473
#     4  12  27  50  78 113 157 207 266 331 392 479
#     4  12  28  48  81 115 159 207 267 327 404 469
#     4  12  26  48  72 118 156 196 252 322 396 450
#     4  12  27  50  78 111 158 205 266 329 395 479
#
# _framework density 28.116945000000001
#
# number of rings (size 3 to 8) (size 9 to 14) (size 15 to 20)
#    0.000    0.000    4.706    3.176   11.529    1.882 
#    0.000    0.000    0.000    0.000    0.000    0.000 
#    0.000    0.000    0.000    0.000    0.000    0.000 
#
# Total GULP energy -189960.824615 kJ/mol
# GULP energy per Si atom -5587.083077 kJ/mol
# Density = 2.805295 g / cm^3
# Si number density = 28.116945 Si / 1000 Ang^3
#
#
#
# Elastic Constant Matrix: (Units=GPa)
#
#
# Indices 1 2 3 4 5 6 
#
# 1 228.0448 40.4119 44.1262 0.0000 0.0000 0.0000
# 2 40.4119 97.6707 8.3946 0.0000 0.0000 0.0000
# 3 44.1262 8.3946 131.5870 0.0000 0.0000 0.0000
# 4 0.0000 0.0000 0.0000 40.5331 0.0000 0.0000
# 5 0.0000 0.0000 0.0000 0.0000 41.1057 0.0000
# 6 0.0000 0.0000 0.0000 0.0000 0.0000 45.3682
#
#
#
# Elastic Compliance Matrix: (Units=1/GPa)
#
#
# Indices 1 2 3 4 5 6 
#
# 1 0.005033 -0.001948 -0.001563 0.000000 0.000000 0.000000
# 2 -0.001948 0.011049 -0.000052 0.000000 0.000000 0.000000
# 3 -0.001563 -0.000052 0.008127 0.000000 0.000000 0.000000
# 4 0.000000 0.000000 0.000000 0.024671 0.000000 0.000000
# 5 0.000000 0.000000 0.000000 0.000000 0.024327 0.000000
# 6 0.000000 0.000000 0.000000 0.000000 0.000000 0.022042
#
#
# Mechanical properties :
#
#
# Convention : Reuss Voigt Hill
#
# Bulk Modulus (GPa) = 58.53857 71.46308 65.00082
# Shear Modulus (GPa) = 46.26641 49.69274 47.97957
#
# Velocity S-wave (km/s) = 4.06088 4.20856 4.13538
# Velocity P-wave (km/s) = 6.54618 7.00625 6.78012
#
# Compressibility (1/GPa) = 0.01708276
#
# Stress axis : x y z
#
# Youngs Moduli (GPa) = 198.69549 90.50662 123.04500
#
# Poissons Ratio (x) = 0.17631 0.19237
# Poissons Ratio (y) = 0.38706 0.00635
# Poissons Ratio (z) = 0.31065 0.00467
#
# Static dielectric constant tensor:
#      x y z
#    x 2.254770 0.000000 0.000000 
#    y 0.000000 2.252390 0.000000 
#    z 0.000000 0.000000 2.213840 
# 
# From -- ./inp_files/5972.got.cif
#   From: 2010.05.17/outbox.cif.g08.bks.cpg/sg68_3_cif.got.tgz:5972.got - 2010.06.03 18:57:09.
