data_PCOD9510679
_publ_section_title
;
Structure prediction by ZEFSAII (Michael W. Deem and Ramdas Pophale) SiO2 
 PCOD9510679
Probable space group: C C C A
;
_chemical_formula_sum "Si O2"
_cell_formula_units_Z 92
_cell_length_a 10.623268
_cell_length_b 19.613884
_cell_length_c 15.201066
_cell_angle_alpha 90.000000
_cell_angle_beta 90.000000
_cell_angle_gamma 90.000000
_cell_volume 3167.348019
_symmetry_space_group_name_H-M "C C C A"
_symmetry_group_IT_number 68
_space_group.IT_coordinate_system_code '2'
_symmetry_cell_setting 'orthorhombic'
loop_
_space_group_symop_operation_xyz
x,y,z
-x,1/2-y,z
x,1/2-y,1/2-z
-x,y,1/2-z
-x,-y,-z
x,1/2+y,-z
-x,1/2+y,1/2+z
x,-y,1/2+z
1/2+x,1/2+y,z
1/2-x,-y,z
1/2+x,-y,1/2-z
1/2-x,1/2+y,1/2-z
1/2-x,1/2-y,-z
1/2+x,y,-z
1/2-x,y,1/2+z
1/2+x,1/2-y,1/2+z
loop_
_atom_site_type_symbol
_atom_site_label
_atom_site_fract_x
_atom_site_fract_y
_atom_site_fract_z
Si Si1 0.500000 0.750000 0.750000
Si Si2 0.500000 0.414419 0.750000
Si Si3 0.535189 0.995164 0.619028
Si Si4 0.000000 0.750000 0.521748
Si Si5 0.148416 0.116494 0.481009
Si Si6 0.750000 0.500000 0.089555
Si Si7 0.826874 0.640090 0.320978
Si Si8 0.160534 0.808570 0.674117
O O1 0.585858 0.793815 0.684867
O O2 0.403545 0.460923 0.698376
O O3 0.550893 0.363454 0.678847
O O4 0.567247 0.047515 0.540110
O O5 0.386020 0.995226 0.633719
O O6 0.590931 0.922187 0.641849
O O7 0.064525 0.679686 0.482989
O O8 0.121238 0.776705 0.580464
O O9 0.219142 0.143881 0.394453
O O10 0.251730 0.074353 0.538787
O O11 0.773015 0.646286 0.219803
O O12 0.147172 0.750000 0.750000
#
# Coordination Sequence:
#
# PCOD9510679 Si02
#       8
#     4   8  16   8  16   8  16  16
#     4  12  26  44  66 120 182 186 244 338 412 448
#     4  12  22  38  74 114 138 180 254 312 393 469
#     4  12  26  48  76 109 147 196 266 323 391 462
#     4  12  21  42  77 122 155 211 266 324 396 475
#     4  12  24  47  81 107 152 214 267 312 380 476
#     4  12  30  54  76 102 160 214 268 332 376 466
#     4  12  24  42  71 108 154 209 245 321 399 465
#     4  12  18  37  70 109 155 190 238 321 390 458
#
# _framework density 29.046382000000001
#
# number of rings (size 3 to 8) (size 9 to 14) (size 15 to 20)
#    0.000    0.000    9.565    1.043    0.000    2.783 
#    3.130    1.739    0.000    0.000    0.000    0.000 
#    0.000    0.000    0.000    0.000    0.000    0.000 
#
# Total GULP energy -256237.150726 kJ/mol
# GULP energy per Si atom -5570.372842 kJ/mol
# Density = 2.898027 g / cm^3
# Si number density = 29.046382 Si / 1000 Ang^3
#
#
#
# Elastic Constant Matrix: (Units=GPa)
#
#
# Indices 1 2 3 4 5 6 
#
# 1 161.9390 78.9150 41.8525 0.0000 0.0000 0.0000
# 2 78.9150 250.9913 42.1230 0.0000 0.0000 0.0000
# 3 41.8525 42.1230 53.6898 0.0000 0.0000 0.0000
# 4 0.0000 0.0000 0.0000 52.3298 0.0000 0.0000
# 5 0.0000 0.0000 0.0000 0.0000 41.1395 0.0000
# 6 0.0000 0.0000 0.0000 0.0000 0.0000 19.3340
#
#
#
# Elastic Compliance Matrix: (Units=1/GPa)
#
#
# Indices 1 2 3 4 5 6 
#
# 1 0.008363 -0.001768 -0.005132 0.000000 0.000000 0.000000
# 2 -0.001768 0.004962 -0.002515 0.000000 0.000000 0.000000
# 3 -0.005132 -0.002515 0.024599 0.000000 0.000000 0.000000
# 4 0.000000 0.000000 0.000000 0.019110 0.000000 0.000000
# 5 0.000000 0.000000 0.000000 0.000000 0.024308 0.000000
# 6 0.000000 0.000000 0.000000 0.000000 0.000000 0.051722
#
#
# Mechanical properties :
#
#
# Convention : Reuss Voigt Hill
#
# Bulk Modulus (GPa) = 52.37147 88.04458 70.20802
# Shear Modulus (GPa) = 31.59382 42.80930 37.20156
#
# Velocity S-wave (km/s) = 3.30161 3.84321 3.58266
# Velocity P-wave (km/s) = 5.70996 7.07610 6.42942
#
# Compressibility (1/GPa) = 0.01909437
#
# Stress axis : x y z
#
# Youngs Moduli (GPa) = 119.57155 201.52364 40.65196
#
# Poissons Ratio (x) = 0.35634 0.20863
# Poissons Ratio (y) = 0.21143 0.10223
# Poissons Ratio (z) = 0.61365 0.50679
#
# Static dielectric constant tensor:
#      x y z
#    x 2.429450 0.000000 0.000000 
#    y 0.000000 2.316520 0.000000 
#    z 0.000000 0.000000 2.634430 
# 
# From -- ./inp_files/37536.got.cif
#   From: 2010.05.17/outbox.cif.g08.bks.cpg/sg68_19_cif.got.tgz:37536.got - 2010.06.03 18:57:09.
