data_PCOD9510927
_publ_section_title
;
Structure prediction by ZEFSAII (Michael W. Deem and Ramdas Pophale) SiO2 
 PCOD9510927
Probable space group: C C C A
;
_chemical_formula_sum "Si O2"
_cell_formula_units_Z 60
_cell_length_a 18.000000
_cell_length_b 21.000000
_cell_length_c 18.000000
_cell_angle_alpha 90.000000
_cell_angle_beta 90.000000
_cell_angle_gamma 90.000000
_cell_volume 6804.000000
_symmetry_space_group_name_H-M "C C C A"
_symmetry_group_IT_number 68
_space_group.IT_coordinate_system_code '2'
_symmetry_cell_setting 'orthorhombic'
loop_
_space_group_symop_operation_xyz
x,y,z
-x,1/2-y,z
x,1/2-y,1/2-z
-x,y,1/2-z
-x,-y,-z
x,1/2+y,-z
-x,1/2+y,1/2+z
x,-y,1/2+z
1/2+x,1/2+y,z
1/2-x,-y,z
1/2+x,-y,1/2-z
1/2-x,1/2+y,1/2-z
1/2-x,1/2-y,-z
1/2+x,y,-z
1/2-x,y,1/2+z
1/2+x,1/2-y,1/2+z
loop_
_atom_site_type_symbol
_atom_site_label
_atom_site_fract_x
_atom_site_fract_y
_atom_site_fract_z
Si Si1 0.301151 0.195447 0.965734
Si Si2 0.923471 0.789080 0.421946
Si Si3 0.299845 0.413079 0.231121
Si Si4 0.205785 0.281772 0.671579
Si Si5 0.096122 0.071632 0.633971
Si Si6 0.000000 0.488403 0.250000
Si Si7 0.854658 0.952944 0.677160
Si Si8 0.313264 0.053916 0.991458
O O1 0.277372 0.202902 0.879916
O O2 0.280081 0.125613 0.998008
O O3 0.250000 0.250000 0.000000
O O4 0.384583 0.205823 0.996485
O O5 0.858003 0.757743 0.371280
O O6 0.936093 0.859867 0.389611
O O7 0.000000 0.750000 0.421688
O O8 0.328578 0.349632 0.193061
O O9 0.331228 0.417674 0.313997
O O10 0.210939 0.416716 0.221497
O O11 0.332275 0.473256 0.187874
O O12 0.226103 0.250000 0.750000
O O13 0.128253 0.041693 0.557756
O O14 0.039128 0.031473 0.685260
O O15 0.935070 0.446877 0.286923
O O16 0.851130 0.941000 0.589605
O O17 0.250000 0.000000 0.990731
#
# Coordination Sequence:
#
# PCOD9510927 Si02
#       8
#    16  16  16  16  16   8  16  16
#     4   9  20  39  56  84 122 154 195 244 292 351
#     4  10  22  35  57  87 121 156 183 240 310 356
#     4  10  19  37  56  88 114 154 191 248 293 343
#     4  11  19  33  62  86 112 148 198 238 289 356
#     4  10  23  36  56  87 127 149 199 242 302 364
#     4  10  24  38  55  84 125 158 184 252 312 346
#     4  10  20  37  61  80 116 158 196 241 300 340
#     4  11  20  37  64  88 113 157 207 250 290 359
#
# _framework density 8.8183419999999995
#
# number of rings (size 3 to 8) (size 9 to 14) (size 15 to 20)
#    0.000    1.867    4.000    0.000    7.467    0.800 
#    0.000    0.000    5.867    0.400    0.000    0.000 
#    0.000    0.000    0.000    0.000    0.000    0.000 
#
# Total GULP energy -334100.983730 kJ/mol
# GULP energy per Si atom -5568.349729 kJ/mol
# Density = 0.879827 g / cm^3
# Si number density = 8.818342 Si / 1000 Ang^3
#
#
#
# Elastic Constant Matrix: (Units=GPa)
#
#
# Indices 1 2 3 4 5 6 
#
# 1 93.9770 7.1209 45.3282 0.0000 0.0000 0.0000
# 2 7.1209 60.9207 2.1546 0.0000 0.0000 0.0000
# 3 45.3282 2.1546 92.4517 0.0000 0.0000 0.0000
# 4 0.0000 0.0000 0.0000 20.5212 0.0000 0.0000
# 5 0.0000 0.0000 0.0000 0.0000 22.8289 0.0000
# 6 0.0000 0.0000 0.0000 0.0000 0.0000 10.9612
#
#
#
# Elastic Compliance Matrix: (Units=1/GPa)
#
#
# Indices 1 2 3 4 5 6 
#
# 1 0.014055 -0.001400 -0.006858 0.000000 0.000000 0.000000
# 2 -0.001400 0.016568 0.000300 0.000000 0.000000 0.000000
# 3 -0.006858 0.000300 0.014172 0.000000 0.000000 0.000000
# 4 0.000000 0.000000 0.000000 0.048730 0.000000 0.000000
# 5 0.000000 0.000000 0.000000 0.000000 0.043804 0.000000
# 6 0.000000 0.000000 0.000000 0.000000 0.000000 0.091231
#
#
# Mechanical properties :
#
#
# Convention : Reuss Voigt Hill
#
# Bulk Modulus (GPa) = 34.62797 39.61741 37.12269
# Shear Modulus (GPa) = 19.67707 23.71198 21.69452
#
# Velocity S-wave (km/s) = 3.34382 3.67068 3.51105
# Velocity P-wave (km/s) = 5.88089 6.36215 6.12625
#
# Compressibility (1/GPa) = 0.02887839
#
# Stress axis : x y z
#
# Youngs Moduli (GPa) = 71.14881 60.35797 70.56125
#
# Poissons Ratio (x) = 0.08452 0.48394
# Poissons Ratio (y) = 0.09963 -0.02120
# Poissons Ratio (z) = 0.48797 -0.01813
#
# Static dielectric constant tensor:
#      x y z
#    x 1.596760 0.000000 0.000000 
#    y 0.000000 1.637320 0.000000 
#    z 0.000000 0.000000 1.643550 
# 
# From -- ./inp_files/32295.got.cif
#   From: 2010.05.17/outbox.ucp.g08.bks.cvg/sg68_17_cif.got.tgz:32295.got - 2010.06.11 16:49:25.
