data_PCOD9510951
_publ_section_title
;
Structure prediction by ZEFSAII (Michael W. Deem and Ramdas Pophale) SiO2 
 PCOD9510951
Probable space group: C C C A
;
_chemical_formula_sum "Si O2"
_cell_formula_units_Z 46
_cell_length_a 18.000000
_cell_length_b 21.000000
_cell_length_c 12.000000
_cell_angle_alpha 90.000000
_cell_angle_beta 90.000000
_cell_angle_gamma 90.000000
_cell_volume 4536.000000
_symmetry_space_group_name_H-M "C C C A"
_symmetry_group_IT_number 68
_space_group.IT_coordinate_system_code '2'
_symmetry_cell_setting 'orthorhombic'
loop_
_space_group_symop_operation_xyz
x,y,z
-x,1/2-y,z
x,1/2-y,1/2-z
-x,y,1/2-z
-x,-y,-z
x,1/2+y,-z
-x,1/2+y,1/2+z
x,-y,1/2+z
1/2+x,1/2+y,z
1/2-x,-y,z
1/2+x,-y,1/2-z
1/2-x,1/2+y,1/2-z
1/2-x,1/2-y,-z
1/2+x,y,-z
1/2-x,y,1/2+z
1/2+x,1/2-y,1/2+z
loop_
_atom_site_type_symbol
_atom_site_label
_atom_site_fract_x
_atom_site_fract_y
_atom_site_fract_z
Si Si1 0.016608 0.392754 0.869709
Si Si2 0.500000 0.250000 0.077004
Si Si3 0.500000 0.750000 0.250000
Si Si4 0.753734 0.750000 0.750000
Si Si5 0.675582 0.386226 0.215922
Si Si6 0.250000 0.000000 0.591165
Si Si7 0.370903 0.919233 0.968231
Si Si8 0.621745 0.285361 0.585898
O O1 0.991628 0.318223 0.865924
O O2 0.105453 0.389564 0.868926
O O3 0.000000 0.423796 0.750000
O O4 0.961564 0.424099 0.960507
O O5 0.576181 0.254566 0.005775
O O6 0.443987 0.707215 0.322402
O O7 0.706522 0.814348 0.767946
O O8 0.809572 0.750574 0.643313
O O9 0.731180 0.438683 0.166708
O O10 0.652687 0.407775 0.340237
O O11 0.321376 0.023918 0.518921
O O12 0.355891 0.853537 0.036095
#
# Coordination Sequence:
#
# PCOD9510951 Si02
#       8
#    16   8   4   8  16   8  16  16
#     4   9  20  36  59  92 125 165 211 267 320 391
#     4   9  17  31  59  88 128 164 205 259 334 388
#     4   8  16  32  62  88 132 164 208 254 324 388
#     4  11  22  37  61  98 133 160 218 284 331 394
#     4  11  25  39  65  96 128 173 220 277 340 391
#     4  12  24  46  64  88 132 178 220 278 332 400
#     4  10  22  42  65  89 129 172 221 266 330 402
#     4   9  18  35  57  92 129 163 208 264 323 393
#
# _framework density 10.141093
#
# number of rings (size 3 to 8) (size 9 to 14) (size 15 to 20)
#    0.000    2.087    1.739    0.783    7.304    2.783 
#    0.000    0.000    5.739    0.000    0.000    0.000 
#    0.000    0.000    0.000    0.000    0.000    0.000 
#
# Total GULP energy -256135.363156 kJ/mol
# GULP energy per Si atom -5568.160069 kJ/mol
# Density = 1.011801 g / cm^3
# Si number density = 10.141093 Si / 1000 Ang^3
#
#
#
# Elastic Constant Matrix: (Units=GPa)
#
#
# Indices 1 2 3 4 5 6 
#
# 1 116.6390 51.3128 37.5329 0.0000 0.0000 0.0000
# 2 51.3128 99.3583 33.5326 0.0000 0.0000 0.0000
# 3 37.5329 33.5326 74.0269 0.0000 0.0000 0.0000
# 4 0.0000 0.0000 0.0000 16.7358 0.0000 0.0000
# 5 0.0000 0.0000 0.0000 0.0000 15.1440 0.0000
# 6 0.0000 0.0000 0.0000 0.0000 0.0000 38.9081
#
#
#
# Elastic Compliance Matrix: (Units=1/GPa)
#
#
# Indices 1 2 3 4 5 6 
#
# 1 0.011959 -0.004875 -0.003855 0.000000 0.000000 0.000000
# 2 -0.004875 0.013868 -0.003810 0.000000 0.000000 0.000000
# 3 -0.003855 -0.003810 0.017189 0.000000 0.000000 0.000000
# 4 0.000000 0.000000 0.000000 0.059752 0.000000 0.000000
# 5 0.000000 0.000000 0.000000 0.000000 0.066033 0.000000
# 6 0.000000 0.000000 0.000000 0.000000 0.000000 0.025702
#
#
# Mechanical properties :
#
#
# Convention : Reuss Voigt Hill
#
# Bulk Modulus (GPa) = 55.75542 59.42008 57.58775
# Shear Modulus (GPa) = 22.16692 25.33396 23.75044
#
# Velocity S-wave (km/s) = 3.30953 3.53806 3.42570
# Velocity P-wave (km/s) = 6.49257 6.78607 6.64094
#
# Compressibility (1/GPa) = 0.01793547
#
# Stress axis : x y z
#
# Youngs Moduli (GPa) = 83.62236 72.10780 58.17630
#
# Poissons Ratio (x) = 0.35152 0.22427
# Poissons Ratio (y) = 0.40765 0.22167
# Poissons Ratio (z) = 0.32236 0.27475
#
# Static dielectric constant tensor:
#      x y z
#    x 1.794270 0.000000 0.000000 
#    y 0.000000 1.672910 0.000000 
#    z 0.000000 0.000000 1.772770 
# 
# From -- ./inp_files/14527.got.cif
#   From: 2010.05.17/outbox.ucp.g08.bks.cvg/sg68_8_cif.got.tgz:14527.got - 2010.06.11 16:49:25.
