data_PCOD9510940
_publ_section_title
;
Structure prediction by ZEFSAII (Michael W. Deem and Ramdas Pophale) SiO2 
 PCOD9510940
Probable space group: C C C A
;
_chemical_formula_sum "Si O2"
_cell_formula_units_Z 48
_cell_length_a 15.000000
_cell_length_b 21.000000
_cell_length_c 15.000000
_cell_angle_alpha 90.000000
_cell_angle_beta 90.000000
_cell_angle_gamma 90.000000
_cell_volume 4725.000000
_symmetry_space_group_name_H-M "C C C A"
_symmetry_group_IT_number 68
_space_group.IT_coordinate_system_code '2'
_symmetry_cell_setting 'orthorhombic'
loop_
_space_group_symop_operation_xyz
x,y,z
-x,1/2-y,z
x,1/2-y,1/2-z
-x,y,1/2-z
-x,-y,-z
x,1/2+y,-z
-x,1/2+y,1/2+z
x,-y,1/2+z
1/2+x,1/2+y,z
1/2-x,-y,z
1/2+x,-y,1/2-z
1/2-x,1/2+y,1/2-z
1/2-x,1/2-y,-z
1/2+x,y,-z
1/2-x,y,1/2+z
1/2+x,1/2-y,1/2+z
loop_
_atom_site_type_symbol
_atom_site_label
_atom_site_fract_x
_atom_site_fract_y
_atom_site_fract_z
Si Si1 0.434757 0.041286 0.830559
Si Si2 0.006944 0.158869 0.066185
Si Si3 0.260411 0.750000 0.750000
Si Si4 0.836187 0.743664 0.930385
Si Si5 0.750000 0.000000 0.253393
Si Si6 0.643622 0.619390 0.714865
Si Si7 0.963636 0.911394 0.111190
O O1 0.500000 0.021560 0.750000
O O2 0.468447 0.109458 0.862075
O O3 0.332255 0.031641 0.801556
O O4 0.454486 0.986706 0.902092
O O5 0.916375 0.196970 0.037350
O O6 0.096052 0.197466 0.094707
O O7 0.044103 0.123154 0.980864
O O8 0.204803 0.775493 0.834772
O O9 0.315982 0.810041 0.711568
O O10 0.750000 0.750000 0.000000
O O11 0.790525 0.939573 0.305793
O O12 0.610893 0.608563 0.816754
O O13 0.557322 0.609607 0.654114
#
# Coordination Sequence:
#
# PCOD9510940 Si02
#       7
#    16  16   8  16   8  16  16
#     4  11  22  41  65  96 130 167 221 275 331 409
#     4  11  25  40  67  91 135 173 218 274 338 390
#     4  12  24  38  66  94 130 172 224 263 351 384
#     4  11  26  45  62  98 134 172 226 276 327 414
#     4  10  20  40  64  88 132 166 210 278 328 398
#     4  10  21  37  65  90 122 170 218 271 328 401
#     4  10  20  42  61  91 125 167 221 271 328 389
#
# _framework density 10.15873
#
# number of rings (size 3 to 8) (size 9 to 14) (size 15 to 20)
#    0.000    1.333    3.333    3.500    4.667    4.667 
#    0.000    0.833    0.000    0.000    0.000    0.000 
#    0.000    0.000    0.000    0.000    0.000    0.000 
#
# Total GULP energy -267307.294402 kJ/mol
# GULP energy per Si atom -5568.901967 kJ/mol
# Density = 1.013561 g / cm^3
# Si number density = 10.158730 Si / 1000 Ang^3
#
#
#
# Elastic Constant Matrix: (Units=GPa)
#
#
# Indices 1 2 3 4 5 6 
#
# 1 102.4885 13.5497 -6.5960 0.0000 0.0000 0.0000
# 2 13.5497 78.7139 -27.1301 0.0000 0.0000 0.0000
# 3 -6.5960 -27.1301 21.7186 0.0000 0.0000 0.0000
# 4 0.0000 0.0000 0.0000 20.5858 0.0000 0.0000
# 5 0.0000 0.0000 0.0000 0.0000 19.4546 0.0000
# 6 0.0000 0.0000 0.0000 0.0000 0.0000 52.2076
#
#
#
# Elastic Compliance Matrix: (Units=1/GPa)
#
#
# Indices 1 2 3 4 5 6 
#
# 1 0.010014 -0.001186 0.001559 0.000000 0.000000 0.000000
# 2 -0.001186 0.022450 0.027684 0.000000 0.000000 0.000000
# 3 0.001559 0.027684 0.081099 0.000000 0.000000 0.000000
# 4 0.000000 0.000000 0.000000 0.048577 0.000000 0.000000
# 5 0.000000 0.000000 0.000000 0.000000 0.051402 0.000000
# 6 0.000000 0.000000 0.000000 0.000000 0.000000 0.019154
#
#
# Mechanical properties :
#
#
# Convention : Reuss Voigt Hill
#
# Bulk Modulus (GPa) = 5.89358 18.06315 11.97836
# Shear Modulus (GPa) = 21.44616 33.32274 27.38445
#
# Velocity S-wave (km/s) = 3.25245 4.05421 3.67526
# Velocity P-wave (km/s) = 4.12452 5.55205 4.89065
#
# Compressibility (1/GPa) = 0.16967620
#
# Stress axis : x y z
#
# Youngs Moduli (GPa) = 99.85622 44.54327 12.33067
#
# Poissons Ratio (x) = 0.05285 -0.01923
# Poissons Ratio (y) = 0.11847 -0.34136
# Poissons Ratio (z) = -0.15571 -1.23312
#
# Static dielectric constant tensor:
#      x y z
#    x 1.695220 0.000000 0.000000 
#    y 0.000000 1.841640 0.000000 
#    z 0.000000 0.000000 1.708080 
# 
# From -- ./inp_files/22410.got.cif
#   From: 2010.05.17/outbox.ucp.g08.bks.cvg/sg68_12_cif.got.tgz:22410.got - 2010.06.11 16:49:25.
