data_PCOD9510780
_publ_section_title
;
Structure prediction by ZEFSAII (Michael W. Deem and Ramdas Pophale) SiO2 
 PCOD9510780
Probable space group: C C C A
;
_chemical_formula_sum "Si O2"
_cell_formula_units_Z 64
_cell_length_a 9.094878
_cell_length_b 15.302837
_cell_length_c 19.858150
_cell_angle_alpha 90.000000
_cell_angle_beta 90.000000
_cell_angle_gamma 90.000000
_cell_volume 2763.806392
_symmetry_space_group_name_H-M "C C C A"
_symmetry_group_IT_number 68
_space_group.IT_coordinate_system_code '2'
_symmetry_cell_setting 'orthorhombic'
loop_
_space_group_symop_operation_xyz
x,y,z
-x,1/2-y,z
x,1/2-y,1/2-z
-x,y,1/2-z
-x,-y,-z
x,1/2+y,-z
-x,1/2+y,1/2+z
x,-y,1/2+z
1/2+x,1/2+y,z
1/2-x,-y,z
1/2+x,-y,1/2-z
1/2-x,1/2+y,1/2-z
1/2-x,1/2-y,-z
1/2+x,y,-z
1/2-x,y,1/2+z
1/2+x,1/2-y,1/2+z
loop_
_atom_site_type_symbol
_atom_site_label
_atom_site_fract_x
_atom_site_fract_y
_atom_site_fract_z
Si Si1 0.593030 0.660728 0.072582
Si Si2 0.300807 0.406306 0.529079
Si Si3 0.352245 0.356690 0.166609
Si Si4 0.684615 0.645387 0.680468
O O1 0.500000 0.750000 0.084765
O O2 0.474047 0.601620 0.035336
O O3 0.668630 0.623430 0.139638
O O4 0.730621 0.663404 0.021873
O O5 0.250000 0.500000 0.504172
O O6 0.239594 0.391076 0.604265
O O7 0.305166 0.383224 0.241902
O O8 0.331389 0.251206 0.171363
O O9 0.522748 0.383515 0.155916
#
# Coordination Sequence:
#
# PCOD9510780 Si02
#       4
#    16  16  16  16
#     4  12  24  41  67  97 123 172 227 270 310 386
#     4  12  26  42  60  93 136 172 209 272 334 384
#     4   9  19  39  64  92 129 161 205 265 330 385
#     4   9  19  38  66  95 120 163 213 268 319 378
#
# _framework density 23.156472000000001
#
# number of rings (size 3 to 8) (size 9 to 14) (size 15 to 20)
#    0.000    1.500    2.500    4.500    3.500    1.000 
#    0.000    6.250    0.000    0.000    0.000    0.000 
#    0.000    0.000    0.000    0.000    0.000    0.000 
#
# Total GULP energy -178692.681771 kJ/mol
# GULP energy per Si atom -5584.146305 kJ/mol
# Density = 2.310377 g / cm^3
# Si number density = 23.156472 Si / 1000 Ang^3
#
#
#
# Elastic Constant Matrix: (Units=GPa)
#
#
# Indices 1 2 3 4 5 6 
#
# 1 105.4980 -16.0928 45.0416 0.0000 0.0000 0.0000
# 2 -16.0928 18.0741 -7.8636 0.0000 0.0000 0.0000
# 3 45.0416 -7.8636 85.0675 0.0000 0.0000 0.0000
# 4 0.0000 0.0000 0.0000 19.9976 0.0000 0.0000
# 5 0.0000 0.0000 0.0000 0.0000 22.5008 0.0000
# 6 0.0000 0.0000 0.0000 0.0000 0.0000 18.6536
#
#
#
# Elastic Compliance Matrix: (Units=1/GPa)
#
#
# Indices 1 2 3 4 5 6 
#
# 1 0.013615 0.009363 -0.006344 0.000000 0.000000 0.000000
# 2 0.009363 0.064085 0.000966 0.000000 0.000000 0.000000
# 3 -0.006344 0.000966 0.015204 0.000000 0.000000 0.000000
# 4 0.000000 0.000000 0.000000 0.050006 0.000000 0.000000
# 5 0.000000 0.000000 0.000000 0.000000 0.044443 0.000000
# 6 0.000000 0.000000 0.000000 0.000000 0.000000 0.053609
#
#
# Mechanical properties :
#
#
# Convention : Reuss Voigt Hill
#
# Bulk Modulus (GPa) = 9.91324 27.86780 18.89052
# Shear Modulus (GPa) = 18.75363 24.73402 21.74383
#
# Velocity S-wave (km/s) = 2.84890 3.27176 3.06763
# Velocity P-wave (km/s) = 3.88741 5.13160 4.55221
#
# Compressibility (1/GPa) = 0.10087518
#
# Stress axis : x y z
#
# Youngs Moduli (GPa) = 73.44597 15.60436 65.77418
#
# Poissons Ratio (x) = -0.14610 0.41725
# Poissons Ratio (y) = -0.68767 -0.06357
# Poissons Ratio (z) = 0.46591 -0.01508
#
# Static dielectric constant tensor:
#      x y z
#    x 1.859010 0.000000 0.000000 
#    y 0.000000 1.927580 0.000000 
#    z 0.000000 0.000000 1.854320 
# 
# From -- ./inp_files/35773.got.cif
#   From: 2010.05.17/outbox.cif.g08.bks.cpg/sg68_18_cif.got.tgz:35773.got - 2010.06.03 18:57:09.
