data_PCOD9510945
_publ_section_title
;
Structure prediction by ZEFSAII (Michael W. Deem and Ramdas Pophale) SiO2 
 PCOD9510945
Probable space group: C C C A
;
_chemical_formula_sum "Si O2"
_cell_formula_units_Z 52
_cell_length_a 9.000000
_cell_length_b 30.000000
_cell_length_c 21.000000
_cell_angle_alpha 90.000000
_cell_angle_beta 90.000000
_cell_angle_gamma 90.000000
_cell_volume 5670.000000
_symmetry_space_group_name_H-M "C C C A"
_symmetry_group_IT_number 68
_space_group.IT_coordinate_system_code '2'
_symmetry_cell_setting 'orthorhombic'
loop_
_space_group_symop_operation_xyz
x,y,z
-x,1/2-y,z
x,1/2-y,1/2-z
-x,y,1/2-z
-x,-y,-z
x,1/2+y,-z
-x,1/2+y,1/2+z
x,-y,1/2+z
1/2+x,1/2+y,z
1/2-x,-y,z
1/2+x,-y,1/2-z
1/2-x,1/2+y,1/2-z
1/2-x,1/2-y,-z
1/2+x,y,-z
1/2-x,y,1/2+z
1/2+x,1/2-y,1/2+z
loop_
_atom_site_type_symbol
_atom_site_label
_atom_site_fract_x
_atom_site_fract_y
_atom_site_fract_z
Si Si1 0.895570 0.968360 0.686836
Si Si2 0.395140 0.374267 0.942257
Si Si3 0.163913 0.774448 0.874929
Si Si4 0.932109 0.366476 0.318331
Si Si5 0.409153 0.022921 0.557844
Si Si6 0.500000 0.250000 0.108303
Si Si7 0.872904 0.683774 0.009863
O O1 0.854602 0.915268 0.683411
O O2 0.000000 0.973909 0.750000
O O3 0.990837 0.978136 0.622428
O O4 0.750000 0.000000 0.689878
O O5 0.432659 0.371946 0.867876
O O6 0.371271 0.425612 0.958914
O O7 0.271633 0.337945 0.959081
O O8 0.540427 0.357303 0.978654
O O9 0.157105 0.823267 0.842290
O O10 0.331750 0.754925 0.860197
O O11 0.000000 0.750000 0.860536
O O12 0.160566 0.782593 0.951451
O O13 0.000000 0.357019 0.250000
O O14 0.500000 0.000000 0.500000
O O15 0.250000 0.000000 0.568315
O O16 0.473793 0.207623 0.062444
#
# Coordination Sequence:
#
# PCOD9510945 Si02
#       7
#    16  16  16  16  16   8  16
#     4  10  21  41  68  90 117 159 210 256 308 381
#     4  10  21  35  58  85 112 160 193 242 310 361
#     4  11  22  36  61  90 120 167 203 253 319 360
#     4   9  21  41  62  83 118 160 206 243 300 372
#     4  11  22  37  56  89 128 161 200 252 315 377
#     4  12  20  34  58  91 119 148 204 256 296 374
#     4  11  19  35  54  85 119 147 198 252 304 361
#
# _framework density 9.1710759999999993
#
# number of rings (size 3 to 8) (size 9 to 14) (size 15 to 20)
#    0.000    1.538    2.308    4.154    0.000    2.769 
#    2.769    0.000    6.769    3.692    0.000    0.000 
#    0.000    0.000    0.000    0.000    0.000    0.000 
#
# Total GULP energy -289780.929418 kJ/mol
# GULP energy per Si atom -5572.710181 kJ/mol
# Density = 0.915020 g / cm^3
# Si number density = 9.171076 Si / 1000 Ang^3
#
#
#
# Elastic Constant Matrix: (Units=GPa)
#
#
# Indices 1 2 3 4 5 6 
#
# 1 115.9272 45.5821 22.6390 0.0000 0.0000 0.0000
# 2 45.5821 102.5068 31.8238 0.0000 0.0000 0.0000
# 3 22.6390 31.8238 84.8152 0.0000 0.0000 0.0000
# 4 0.0000 0.0000 0.0000 25.5331 0.0000 0.0000
# 5 0.0000 0.0000 0.0000 0.0000 17.4801 0.0000
# 6 0.0000 0.0000 0.0000 0.0000 0.0000 41.1105
#
#
#
# Elastic Compliance Matrix: (Units=1/GPa)
#
#
# Indices 1 2 3 4 5 6 
#
# 1 0.010560 -0.004324 -0.001196 0.000000 0.000000 0.000000
# 2 -0.004324 0.012813 -0.003653 0.000000 0.000000 0.000000
# 3 -0.001196 -0.003653 0.013480 0.000000 0.000000 0.000000
# 4 0.000000 0.000000 0.000000 0.039165 0.000000 0.000000
# 5 0.000000 0.000000 0.000000 0.000000 0.057208 0.000000
# 6 0.000000 0.000000 0.000000 0.000000 0.000000 0.024325
#
#
# Mechanical properties :
#
#
# Convention : Reuss Voigt Hill
#
# Bulk Modulus (GPa) = 54.03796 55.92653 54.98224
# Shear Modulus (GPa) = 27.46254 30.37170 28.91712
#
# Velocity S-wave (km/s) = 3.87361 4.07362 3.97487
# Velocity P-wave (km/s) = 7.03786 7.25829 7.14892
#
# Compressibility (1/GPa) = 0.01850551
#
# Stress axis : x y z
#
# Youngs Moduli (GPa) = 94.69669 78.04850 74.18221
#
# Poissons Ratio (x) = 0.33751 0.08873
# Poissons Ratio (y) = 0.40951 0.27100
# Poissons Ratio (z) = 0.11327 0.28512
#
# Static dielectric constant tensor:
#      x y z
#    x 1.647150 0.000000 0.000000 
#    y 0.000000 1.657160 0.000000 
#    z 0.000000 0.000000 1.635590 
# 
# From -- ./inp_files/36723.got.cif
#   From: 2010.05.17/outbox.ucp.g08.bks.cvg/sg68_19_cif.got.tgz:36723.got - 2010.06.11 16:49:25.
