data_PCOD9510032
_publ_section_title
;
Structure prediction by ZEFSAII (Michael W. Deem and Ramdas Pophale) SiO2 
 PCOD9510032
Probable space group: C C C A
;
_chemical_formula_sum "Si O2"
_cell_formula_units_Z 88
_cell_length_a 24.494820
_cell_length_b 14.754945
_cell_length_c 11.676522
_cell_angle_alpha 90.000000
_cell_angle_beta 90.000000
_cell_angle_gamma 90.000000
_cell_volume 4220.125334
_symmetry_space_group_name_H-M "C C C A"
_symmetry_group_IT_number 68
_space_group.IT_coordinate_system_code '2'
_symmetry_cell_setting 'orthorhombic'
loop_
_space_group_symop_operation_xyz
x,y,z
-x,1/2-y,z
x,1/2-y,1/2-z
-x,y,1/2-z
-x,-y,-z
x,1/2+y,-z
-x,1/2+y,1/2+z
x,-y,1/2+z
1/2+x,1/2+y,z
1/2-x,-y,z
1/2+x,-y,1/2-z
1/2-x,1/2+y,1/2-z
1/2-x,1/2-y,-z
1/2+x,y,-z
1/2-x,y,1/2+z
1/2+x,1/2-y,1/2+z
loop_
_atom_site_type_symbol
_atom_site_label
_atom_site_fract_x
_atom_site_fract_y
_atom_site_fract_z
Si Si1 0.131056 0.128623 0.537055
Si Si2 0.355638 0.710968 0.376677
Si Si3 0.237739 0.668714 0.326068
Si Si4 0.138117 0.941599 0.450760
Si Si5 0.750000 0.500000 0.333184
Si Si6 0.437887 0.141454 0.256912
O O1 0.120508 0.220654 0.469962
O O2 0.192807 0.131439 0.586964
O O3 0.093502 0.111938 0.644540
O O4 0.120437 0.045205 0.454988
O O5 0.370103 0.750000 0.250000
O O6 0.289743 0.716129 0.382846
O O7 0.366453 0.610302 0.427079
O O8 0.211351 0.750000 0.250000
O O9 0.262297 0.585952 0.250127
O O10 0.099380 0.889772 0.362403
O O11 0.200717 0.956088 0.407272
O O12 0.439445 0.250000 0.250000
O O13 0.500000 0.107602 0.250000
#
# Coordination Sequence:
#
# PCOD9510032 Si02
#       6
#    16  16  16  16   8  16
#     4  12  23  41  69  95 134 177 221 281 337 399
#     4  11  24  39  60  99 139 180 218 270 339 414
#     4  11  21  37  62  96 140 178 221 267 332 405
#     4  12  24  41  69  99 138 175 224 282 343 407
#     4  12  22  38  66 104 138 180 226 274 336 416
#     4  11  25  49  75  97 125 178 240 289 338 398
#
# _framework density 20.852461000000002
#
# number of rings (size 3 to 8) (size 9 to 14) (size 15 to 20)
#    0.000    0.545    3.636    6.545    2.545    0.727 
#    0.000    0.000    0.000    1.091    0.000    0.000 
#    0.000    0.000    0.000    0.000    0.000    0.000 
#
# Total GULP energy -245525.731591 kJ/mol
# GULP energy per Si atom -5580.130263 kJ/mol
# Density = 2.080500 g / cm^3
# Si number density = 20.852461 Si / 1000 Ang^3
#
#
#
# Elastic Constant Matrix: (Units=GPa)
#
#
# Indices 1 2 3 4 5 6 
#
# 1 67.9994 10.0463 31.0039 0.0000 0.0000 0.0000
# 2 10.0463 106.4327 15.7146 0.0000 0.0000 0.0000
# 3 31.0039 15.7146 74.3115 0.0000 0.0000 0.0000
# 4 0.0000 0.0000 0.0000 16.9115 0.0000 0.0000
# 5 0.0000 0.0000 0.0000 0.0000 -2.9543 0.0000
# 6 0.0000 0.0000 0.0000 0.0000 0.0000 -80.5294
#
#
#
# Elastic Compliance Matrix: (Units=1/GPa)
#
#
# Indices 1 2 3 4 5 6 
#
# 1 0.018200 -0.000616 -0.007463 0.000000 0.000000 0.000000
# 2 -0.000616 0.009719 -0.001798 0.000000 0.000000 0.000000
# 3 -0.007463 -0.001798 0.016951 0.000000 0.000000 0.000000
# 4 0.000000 0.000000 0.000000 0.059132 0.000000 0.000000
# 5 0.000000 0.000000 0.000000 0.000000 -0.338492 0.000000
# 6 0.000000 0.000000 0.000000 0.000000 0.000000 -0.012418
#
#
# Mechanical properties :
#
#
# Convention : Reuss Voigt Hill
#
# Bulk Modulus (GPa) = 39.81641 40.25257 40.03449
# Shear Modulus (GPa) = -22.85376 -0.51587 -11.68481
#
# Velocity S-wave (km/s) = -3.31414 -0.49792 -2.36975
# Velocity P-wave (km/s) = 2.11922 4.36060 3.42826
#
# Compressibility (1/GPa) = 0.02511528
#
# Stress axis : x y z
#
# Youngs Moduli (GPa) = 54.94598 102.88832 58.99426
#
# Poissons Ratio (x) = 0.06338 0.44027
# Poissons Ratio (y) = 0.03385 0.10609
# Poissons Ratio (z) = 0.41006 0.18503
#
# Static dielectric constant tensor:
#      x y z
#    x 1.989460 0.000000 0.000000 
#    y 0.000000 1.793780 0.000000 
#    z 0.000000 0.000000 1.814200 
# 
# From -- ./inp_files/16334.got.cif
#   From: 2010.05.17/outbox.cif.g08.bks.cpg/sg68_9_cif.got.tgz:16334.got - 2010.06.03 18:57:09.
