data_PCOD9510581
_publ_section_title
;
Structure prediction by ZEFSAII (Michael W. Deem and Ramdas Pophale) SiO2 
 PCOD9510581
Probable space group: C C C A
;
_chemical_formula_sum "Si O2"
_cell_formula_units_Z 32
_cell_length_a 8.186534
_cell_length_b 15.796102
_cell_length_c 10.306560
_cell_angle_alpha 90.000000
_cell_angle_beta 90.000000
_cell_angle_gamma 90.000000
_cell_volume 1332.796167
_symmetry_space_group_name_H-M "C C C A"
_symmetry_group_IT_number 68
_space_group.IT_coordinate_system_code '2'
_symmetry_cell_setting 'orthorhombic'
loop_
_space_group_symop_operation_xyz
x,y,z
-x,1/2-y,z
x,1/2-y,1/2-z
-x,y,1/2-z
-x,-y,-z
x,1/2+y,-z
-x,1/2+y,1/2+z
x,-y,1/2+z
1/2+x,1/2+y,z
1/2-x,-y,z
1/2+x,-y,1/2-z
1/2-x,1/2+y,1/2-z
1/2-x,1/2-y,-z
1/2+x,y,-z
1/2-x,y,1/2+z
1/2+x,1/2-y,1/2+z
loop_
_atom_site_type_symbol
_atom_site_label
_atom_site_fract_x
_atom_site_fract_y
_atom_site_fract_z
Si Si1 0.615848 0.923815 0.624842
Si Si2 0.065175 0.843833 0.890274
O O1 0.500000 0.927733 0.750000
O O2 0.740078 0.844457 0.622188
O O3 0.503803 0.906938 0.499506
O O4 0.750000 0.000000 0.623738
O O5 0.000000 0.750000 0.915161
O O6 0.000000 0.871342 0.750000
#
# Coordination Sequence:
#
# PCOD9510581 Si02
#       2
#    16  16
#     4  12  26  47  73 106 146 191 239 297 357 426
#     4  11  25  46  72 106 144 188 239 294 358 428
#
# _framework density 24.009674
#
# number of rings (size 3 to 8) (size 9 to 14) (size 15 to 20)
#    0.000    0.500    0.000    7.500    0.000    9.000 
#    0.000    0.000    0.000    0.000    0.000    0.000 
#    0.000    0.000    0.000    0.000    0.000    0.000 
#
# Total GULP energy -89525.831353 kJ/mol
# GULP energy per Si atom -5595.364460 kJ/mol
# Density = 2.395503 g / cm^3
# Si number density = 24.009674 Si / 1000 Ang^3
#
#
#
# Elastic Constant Matrix: (Units=GPa)
#
#
# Indices 1 2 3 4 5 6 
#
# 1 212.8422 60.6514 112.3743 0.0000 0.0000 0.0000
# 2 60.6514 142.3575 65.9070 0.0000 0.0000 0.0000
# 3 112.3743 65.9070 266.2607 0.0000 0.0000 0.0000
# 4 0.0000 0.0000 0.0000 -60.7426 0.0000 0.0000
# 5 0.0000 0.0000 0.0000 0.0000 70.9134 0.0000
# 6 0.0000 0.0000 0.0000 0.0000 0.0000 55.3018
#
#
#
# Elastic Compliance Matrix: (Units=1/GPa)
#
#
# Indices 1 2 3 4 5 6 
#
# 1 0.006375 -0.001661 -0.002279 0.000000 0.000000 0.000000
# 2 -0.001661 0.008366 -0.001370 0.000000 0.000000 0.000000
# 3 -0.002279 -0.001370 0.005057 0.000000 0.000000 0.000000
# 4 0.000000 0.000000 0.000000 -0.016463 0.000000 0.000000
# 5 0.000000 0.000000 0.000000 0.000000 0.014102 0.000000
# 6 0.000000 0.000000 0.000000 0.000000 0.000000 0.018083
#
#
# Mechanical properties :
#
#
# Convention : Reuss Voigt Hill
#
# Bulk Modulus (GPa) = 108.95805 122.14733 115.55269
# Shear Modulus (GPa) = 101.62700 38.59637 70.11169
#
# Velocity S-wave (km/s) = 6.51302 4.01376 5.40970
# Velocity P-wave (km/s) = 10.10142 8.51264 9.34087
#
# Compressibility (1/GPa) = 0.00917784
#
# Stress axis : x y z
#
# Youngs Moduli (GPa) = 156.86102 119.52567 197.75045
#
# Poissons Ratio (x) = 0.19850 0.45077
# Poissons Ratio (y) = 0.26051 0.27092
# Poissons Ratio (z) = 0.35756 0.16375
#
# Static dielectric constant tensor:
#      x y z
#    x 2.187650 0.000000 0.000000 
#    y 0.000000 2.099740 0.000000 
#    z 0.000000 0.000000 1.924980 
# 
# From -- ./inp_files/3117.got.cif
#   From: 2010.05.17/outbox.cif.g08.bks.cpg/sg68_2_cif.got.tgz:3117.got - 2010.06.03 18:57:09.
