data_PCOD9510147
_publ_section_title
;
Structure prediction by ZEFSAII (Michael W. Deem and Ramdas Pophale) SiO2 
 PCOD9510147
Probable space group: C C C A
;
_chemical_formula_sum "Si O2"
_cell_formula_units_Z 64
_cell_length_a 21.729594
_cell_length_b 7.432847
_cell_length_c 17.900685
_cell_angle_alpha 90.000000
_cell_angle_beta 90.000000
_cell_angle_gamma 90.000000
_cell_volume 2891.188818
_symmetry_space_group_name_H-M "C C C A"
_symmetry_group_IT_number 68
_space_group.IT_coordinate_system_code '2'
_symmetry_cell_setting 'orthorhombic'
loop_
_space_group_symop_operation_xyz
x,y,z
-x,1/2-y,z
x,1/2-y,1/2-z
-x,y,1/2-z
-x,-y,-z
x,1/2+y,-z
-x,1/2+y,1/2+z
x,-y,1/2+z
1/2+x,1/2+y,z
1/2-x,-y,z
1/2+x,-y,1/2-z
1/2-x,1/2+y,1/2-z
1/2-x,1/2-y,-z
1/2+x,y,-z
1/2-x,y,1/2+z
1/2+x,1/2-y,1/2+z
loop_
_atom_site_type_symbol
_atom_site_label
_atom_site_fract_x
_atom_site_fract_y
_atom_site_fract_z
Si Si1 0.139350 0.630900 0.903591
Si Si2 0.817442 0.519536 0.817466
Si Si3 0.186910 0.240295 0.546887
Si Si4 0.064427 0.957415 0.724299
O O1 0.170193 0.778213 0.848381
O O2 0.179313 0.453758 0.917180
O O3 0.078069 0.557825 0.863479
O O4 0.134713 0.724604 0.984172
O O5 0.750000 0.500000 0.781357
O O6 0.815646 0.391009 0.889808
O O7 0.874531 0.467646 0.764802
O O8 0.250000 0.250000 0.500000
O O9 0.061877 0.750000 0.750000
O O10 0.000000 0.040392 0.750000
#
# Coordination Sequence:
#
# PCOD9510147 Si02
#       4
#    16  16  16  16
#     4  11  22  39  63  94 128 172 209 264 327 383
#     4  11  22  38  65  98 128 167 218 267 324 388
#     4  12  22  36  63  99 135 165 206 268 332 384
#     4   9  22  46  69  89 133 179 221 270 325 385
#
# _framework density 22.136223999999999
#
# number of rings (size 3 to 8) (size 9 to 14) (size 15 to 20)
#    0.000    1.250    5.000    0.750    0.000    3.000 
#    4.500    3.750    5.500    0.000    0.000    0.000 
#    0.000    0.000    0.000    0.000    0.000    0.000 
#
# Total GULP energy -178785.818439 kJ/mol
# GULP energy per Si atom -5587.056826 kJ/mol
# Density = 2.208584 g / cm^3
# Si number density = 22.136224 Si / 1000 Ang^3
#
#
#
# Elastic Constant Matrix: (Units=GPa)
#
#
# Indices 1 2 3 4 5 6 
#
# 1 145.1093 23.1610 51.9139 0.0000 0.0000 0.0000
# 2 23.1610 130.8899 18.3254 0.0000 0.0000 0.0000
# 3 51.9139 18.3254 84.3970 0.0000 0.0000 0.0000
# 4 0.0000 0.0000 0.0000 28.7102 0.0000 0.0000
# 5 0.0000 0.0000 0.0000 0.0000 17.2290 0.0000
# 6 0.0000 0.0000 0.0000 0.0000 0.0000 12.3583
#
#
#
# Elastic Compliance Matrix: (Units=1/GPa)
#
#
# Indices 1 2 3 4 5 6 
#
# 1 0.008924 -0.000836 -0.005308 0.000000 0.000000 0.000000
# 2 -0.000836 0.007958 -0.001214 0.000000 0.000000 0.000000
# 3 -0.005308 -0.001214 0.015377 0.000000 0.000000 0.000000
# 4 0.000000 0.000000 0.000000 0.034831 0.000000 0.000000
# 5 0.000000 0.000000 0.000000 0.000000 0.058042 0.000000
# 6 0.000000 0.000000 0.000000 0.000000 0.000000 0.080917
#
#
# Mechanical properties :
#
#
# Convention : Reuss Voigt Hill
#
# Bulk Modulus (GPa) = 56.99916 60.79965 58.89941
# Shear Modulus (GPa) = 22.06425 29.45921 25.76173
#
# Velocity S-wave (km/s) = 3.16056 3.65199 3.41513
# Velocity P-wave (km/s) = 6.25492 6.73116 6.49740
#
# Compressibility (1/GPa) = 0.01754412
#
# Stress axis : x y z
#
# Youngs Moduli (GPa) = 112.06251 125.66199 65.03199
#
# Poissons Ratio (x) = 0.10505 0.34516
# Poissons Ratio (y) = 0.09368 0.07893
# Poissons Ratio (z) = 0.59478 0.15252
#
# Static dielectric constant tensor:
#      x y z
#    x 1.890600 0.000000 0.000000 
#    y 0.000000 1.841680 0.000000 
#    z 0.000000 0.000000 1.867480 
# 
# From -- ./inp_files/33366.got.cif
#   From: 2010.05.17/outbox.cif.g08.bks.cpg/sg68_17_cif.got.tgz:33366.got - 2010.06.03 18:57:09.
