data_PCOD9510699
_publ_section_title
;
Structure prediction by ZEFSAII (Michael W. Deem and Ramdas Pophale) SiO2 
 PCOD9510699
Probable space group: C C C A
;
_chemical_formula_sum "Si O2"
_cell_formula_units_Z 56
_cell_length_a 6.396788
_cell_length_b 23.464901
_cell_length_c 17.262915
_cell_angle_alpha 90.000000
_cell_angle_beta 90.000000
_cell_angle_gamma 90.000000
_cell_volume 2591.163492
_symmetry_space_group_name_H-M "C C C A"
_symmetry_group_IT_number 68
_space_group.IT_coordinate_system_code '2'
_symmetry_cell_setting 'orthorhombic'
loop_
_space_group_symop_operation_xyz
x,y,z
-x,1/2-y,z
x,1/2-y,1/2-z
-x,y,1/2-z
-x,-y,-z
x,1/2+y,-z
-x,1/2+y,1/2+z
x,-y,1/2+z
1/2+x,1/2+y,z
1/2-x,-y,z
1/2+x,-y,1/2-z
1/2-x,1/2+y,1/2-z
1/2-x,1/2-y,-z
1/2+x,y,-z
1/2-x,y,1/2+z
1/2+x,1/2-y,1/2+z
loop_
_atom_site_type_symbol
_atom_site_label
_atom_site_fract_x
_atom_site_fract_y
_atom_site_fract_z
Si Si1 0.326089 0.059921 0.306071
Si Si2 0.500000 0.250000 0.537718
Si Si3 0.127909 0.941679 0.057481
Si Si4 0.501662 0.875399 0.099903
O O1 0.500000 0.084929 0.250000
O O2 0.435860 0.043619 0.387404
O O3 0.145397 0.102748 0.330839
O O4 0.250000 0.000000 0.270267
O O5 0.750000 0.250000 0.500000
O O6 0.495648 0.308609 0.584876
O O7 0.271479 0.900188 0.108679
O O8 0.250000 0.000000 0.040916
O O9 0.071754 0.906525 0.980714
#
# Coordination Sequence:
#
# PCOD9510699 Si02
#       4
#    16   8  16  16
#     4  12  26  42  64 102 143 187 232 294 371 446
#     4  12  24  44  72 111 149 190 246 306 366 432
#     4  12  21  39  66 101 141 174 231 299 369 427
#     4  12  24  40  70 106 141 184 239 303 359 440
#
# _framework density 21.611913999999999
#
# number of rings (size 3 to 8) (size 9 to 14) (size 15 to 20)
#    0.000    0.000    8.571    2.571    0.000    0.000 
#    0.000    0.000    0.000    5.143    0.000    0.000 
#    0.000    0.000    0.000    0.000    0.000    0.000 
#
# Total GULP energy -156256.127907 kJ/mol
# GULP energy per Si atom -5580.575997 kJ/mol
# Density = 2.156272 g / cm^3
# Si number density = 21.611914 Si / 1000 Ang^3
#
#
#
# Elastic Constant Matrix: (Units=GPa)
#
#
# Indices 1 2 3 4 5 6 
#
# 1 111.4870 31.4743 33.0501 0.0000 0.0000 0.0000
# 2 31.4743 169.6167 14.2759 0.0000 0.0000 0.0000
# 3 33.0501 14.2759 67.7452 0.0000 0.0000 0.0000
# 4 0.0000 0.0000 0.0000 13.4041 0.0000 0.0000
# 5 0.0000 0.0000 0.0000 0.0000 60.3981 0.0000
# 6 0.0000 0.0000 0.0000 0.0000 0.0000 25.5265
#
#
#
# Elastic Compliance Matrix: (Units=1/GPa)
#
#
# Indices 1 2 3 4 5 6 
#
# 1 0.010898 -0.001603 -0.004979 0.000000 0.000000 0.000000
# 2 -0.001603 0.006238 -0.000532 0.000000 0.000000 0.000000
# 3 -0.004979 -0.000532 0.017302 0.000000 0.000000 0.000000
# 4 0.000000 0.000000 0.000000 0.074604 0.000000 0.000000
# 5 0.000000 0.000000 0.000000 0.000000 0.016557 0.000000
# 6 0.000000 0.000000 0.000000 0.000000 0.000000 0.039175
#
#
# Mechanical properties :
#
#
# Convention : Reuss Voigt Hill
#
# Bulk Modulus (GPa) = 49.48171 56.27216 52.87693
# Shear Modulus (GPa) = 26.91934 37.86899 32.39416
#
# Velocity S-wave (km/s) = 3.53310 4.19050 3.87577
# Velocity P-wave (km/s) = 6.29198 7.03618 6.67446
#
# Compressibility (1/GPa) = 0.02020949
#
# Stress axis : x y z
#
# Youngs Moduli (GPa) = 91.75761 160.30903 57.79545
#
# Poissons Ratio (x) = 0.25701 0.28776
# Poissons Ratio (y) = 0.14711 0.03077
# Poissons Ratio (z) = 0.45686 0.08534
#
# Static dielectric constant tensor:
#      x y z
#    x 2.017280 0.000000 0.000000 
#    y 0.000000 1.755040 0.000000 
#    z 0.000000 0.000000 1.807960 
# 
# From -- ./inp_files/34903.got.cif
#   From: 2010.05.17/outbox.cif.g08.bks.cpg/sg68_18_cif.got.tgz:34903.got - 2010.06.03 18:57:09.
