data_PCOD9510491
_publ_section_title
;
Structure prediction by ZEFSAII (Michael W. Deem and Ramdas Pophale) SiO2 
 PCOD9510491
Probable space group: C C C A
;
_chemical_formula_sum "Si O2"
_cell_formula_units_Z 60
_cell_length_a 11.314745
_cell_length_b 18.150378
_cell_length_c 13.774256
_cell_angle_alpha 90.000000
_cell_angle_beta 90.000000
_cell_angle_gamma 90.000000
_cell_volume 2828.776237
_symmetry_space_group_name_H-M "C C C A"
_symmetry_group_IT_number 68
_space_group.IT_coordinate_system_code '2'
_symmetry_cell_setting 'orthorhombic'
loop_
_space_group_symop_operation_xyz
x,y,z
-x,1/2-y,z
x,1/2-y,1/2-z
-x,y,1/2-z
-x,-y,-z
x,1/2+y,-z
-x,1/2+y,1/2+z
x,-y,1/2+z
1/2+x,1/2+y,z
1/2-x,-y,z
1/2+x,-y,1/2-z
1/2-x,1/2+y,1/2-z
1/2-x,1/2-y,-z
1/2+x,y,-z
1/2-x,y,1/2+z
1/2+x,1/2-y,1/2+z
loop_
_atom_site_type_symbol
_atom_site_label
_atom_site_fract_x
_atom_site_fract_y
_atom_site_fract_z
Si Si1 0.250000 0.500000 0.995803
Si Si2 0.851925 0.616813 0.649131
Si Si3 0.116367 0.590773 0.637458
Si Si4 0.273633 0.732819 0.614370
Si Si5 0.500000 0.250000 0.250000
O O1 0.217686 0.568443 0.928163
O O2 0.143675 0.476113 0.066224
O O3 0.865579 0.571880 0.749576
O O4 0.790528 0.695841 0.662719
O O5 0.987919 0.624909 0.617701
O O6 0.210041 0.655102 0.623497
O O7 0.250000 0.750000 0.500000
O O8 0.401142 0.723799 0.667977
#
# Coordination Sequence:
#
# PCOD9510491 Si02
#       5
#     8  16  16  16   4
#     4  12  24  42  68 104 140 192 242 288 366 440
#     4  11  24  45  68  99 139 185 238 299 362 435
#     4  11  24  45  68  99 139 185 238 299 362 435
#     4  12  25  45  75 107 140 187 245 307 375 426
#     4  12  28  48  74 122 144 188 244 324 360 442
#
# _framework density 21.210584999999998
#
# number of rings (size 3 to 8) (size 9 to 14) (size 15 to 20)
#    0.000    0.533    5.333    2.400    3.733    2.133 
#    4.800    0.000    0.000    0.000    0.000    0.000 
#    0.000    0.000    0.000    0.000    0.000    0.000 
#
# Total GULP energy -167014.445538 kJ/mol
# GULP energy per Si atom -5567.148185 kJ/mol
# Density = 2.116231 g / cm^3
# Si number density = 21.210585 Si / 1000 Ang^3
#
#
#
# Elastic Constant Matrix: (Units=GPa)
#
#
# Indices 1 2 3 4 5 6 
#
# 1 98.2024 7.9908 1.5331 0.0000 0.0000 0.0000
# 2 7.9908 61.4809 0.3281 0.0000 0.0000 0.0000
# 3 1.5331 0.3281 101.7587 0.0000 0.0000 0.0000
# 4 0.0000 0.0000 0.0000 -0.3365 0.0000 0.0000
# 5 0.0000 0.0000 0.0000 0.0000 -11.9313 0.0000
# 6 0.0000 0.0000 0.0000 0.0000 0.0000 14.9824
#
#
#
# Elastic Compliance Matrix: (Units=1/GPa)
#
#
# Indices 1 2 3 4 5 6 
#
# 1 0.010294 -0.001337 -0.000151 0.000000 0.000000 0.000000
# 2 -0.001337 0.016439 -0.000033 0.000000 0.000000 0.000000
# 3 -0.000151 -0.000033 0.009830 0.000000 0.000000 0.000000
# 4 0.000000 0.000000 0.000000 -2.971383 0.000000 0.000000
# 5 0.000000 0.000000 0.000000 0.000000 -0.083813 0.000000
# 6 0.000000 0.000000 0.000000 0.000000 0.000000 0.066745
#
#
# Mechanical properties :
#
#
# Convention : Reuss Voigt Hill
#
# Bulk Modulus (GPa) = 29.83171 31.23842 30.53507
# Shear Modulus (GPa) = -1.70203 17.31556 7.80677
#
# Velocity S-wave (km/s) = -0.89676 2.86031 1.92057
# Velocity P-wave (km/s) = 3.60872 5.06638 4.39835
#
# Compressibility (1/GPa) = 0.03352137
#
# Stress axis : x y z
#
# Youngs Moduli (GPa) = 97.14195 60.83026 101.73407
#
# Poissons Ratio (x) = 0.08134 0.01534
# Poissons Ratio (y) = 0.12989 0.00334
# Poissons Ratio (z) = 0.01465 0.00200
#
# Static dielectric constant tensor:
#      x y z
#    x 1.775960 0.000000 0.000000 
#    y 0.000000 1.709640 0.000000 
#    z 0.000000 0.000000 1.917060 
# 
# From -- ./inp_files/12713.got.cif
#   From: 2010.05.17/outbox.cif.g08.bks.cpg/sg68_7_cif.got.tgz:12713.got - 2010.06.03 18:57:09.
