data_PCOD9510608
_publ_section_title
;
Structure prediction by ZEFSAII (Michael W. Deem and Ramdas Pophale) SiO2 
 PCOD9510608
Probable space group: C C C A
;
_chemical_formula_sum "Si O2"
_cell_formula_units_Z 108
_cell_length_a 32.242582
_cell_length_b 13.806304
_cell_length_c 11.486505
_cell_angle_alpha 90.000000
_cell_angle_beta 90.000000
_cell_angle_gamma 90.000000
_cell_volume 5113.227910
_symmetry_space_group_name_H-M "C C C A"
_symmetry_group_IT_number 68
_space_group.IT_coordinate_system_code '2'
_symmetry_cell_setting 'orthorhombic'
loop_
_space_group_symop_operation_xyz
x,y,z
-x,1/2-y,z
x,1/2-y,1/2-z
-x,y,1/2-z
-x,-y,-z
x,1/2+y,-z
-x,1/2+y,1/2+z
x,-y,1/2+z
1/2+x,1/2+y,z
1/2-x,-y,z
1/2+x,-y,1/2-z
1/2-x,1/2+y,1/2-z
1/2-x,1/2-y,-z
1/2+x,y,-z
1/2-x,y,1/2+z
1/2+x,1/2-y,1/2+z
loop_
_atom_site_type_symbol
_atom_site_label
_atom_site_fract_x
_atom_site_fract_y
_atom_site_fract_z
Si Si1 0.940280 0.149570 0.067960
Si Si2 0.366647 0.200439 0.523747
Si Si3 0.820998 0.398811 0.238712
Si Si4 0.289392 0.182028 0.975009
Si Si5 0.500000 0.750000 0.250000
Si Si6 0.890502 0.034437 0.658651
Si Si7 0.750000 0.500000 0.593428
Si Si8 0.457405 0.358480 0.302891
O O1 0.904597 0.230447 0.055209
O O2 0.971669 0.183779 0.167122
O O3 0.918333 0.049090 0.100190
O O4 0.961146 0.143908 0.941450
O O5 0.349553 0.152312 0.642085
O O6 0.329665 0.266301 0.470152
O O7 0.379873 0.117573 0.434064
O O8 0.803091 0.332165 0.341460
O O9 0.848946 0.482821 0.296020
O O10 0.781832 0.441183 0.171807
O O11 0.250000 0.250000 0.000000
O O12 0.276803 0.076213 0.019694
O O13 0.917609 0.081076 0.762071
O O14 0.452905 0.250000 0.250000
O O15 0.500000 0.399555 0.250000
#
# Coordination Sequence:
#
# PCOD9510608 Si02
#       8
#    16  16  16  16   4  16   8  16
#     4  12  27  49  77 115 151 197 263 306 384 462
#     4  12  26  49  75 106 151 195 254 315 381 456
#     4  12  26  47  71 105 146 192 245 313 374 446
#     4  12  27  47  71 104 144 195 243 308 382 445
#     4  12  28  48  82 116 154 216 252 322 384 464
#     4  12  27  46  79 108 149 200 249 313 388 454
#     4  12  28  44  72 104 146 188 254 306 370 460
#     4  11  25  49  73 108 154 194 241 314 375 452
#
# _framework density 21.121686
#
# number of rings (size 3 to 8) (size 9 to 14) (size 15 to 20)
#    0.000    0.148    4.444    4.444    5.185    0.593 
#    0.000    0.000    0.000    0.000    0.000    0.000 
#    0.000    0.000    0.000    0.000    0.000    0.000 
#
# Total GULP energy -302401.770553 kJ/mol
# GULP energy per Si atom -5600.032788 kJ/mol
# Density = 2.107361 g / cm^3
# Si number density = 21.121686 Si / 1000 Ang^3
#
#
#
# Elastic Constant Matrix: (Units=GPa)
#
#
# Indices 1 2 3 4 5 6 
#
# 1 136.3786 48.7089 63.7919 0.0000 0.0000 0.0000
# 2 48.7089 112.7865 51.6238 0.0000 0.0000 0.0000
# 3 63.7919 51.6238 136.3004 0.0000 0.0000 0.0000
# 4 0.0000 0.0000 0.0000 15.0537 0.0000 0.0000
# 5 0.0000 0.0000 0.0000 0.0000 392.3769 0.0000
# 6 0.0000 0.0000 0.0000 0.0000 0.0000 28.0660
#
#
#
# Elastic Compliance Matrix: (Units=1/GPa)
#
#
# Indices 1 2 3 4 5 6 
#
# 1 0.009994 -0.002631 -0.003681 0.000000 0.000000 0.000000
# 2 -0.002631 0.011419 -0.003093 0.000000 0.000000 0.000000
# 3 -0.003681 -0.003093 0.010231 0.000000 0.000000 0.000000
# 4 0.000000 0.000000 0.000000 0.066429 0.000000 0.000000
# 5 0.000000 0.000000 0.000000 0.000000 0.002549 0.000000
# 6 0.000000 0.000000 0.000000 0.000000 0.000000 0.035630
#
#
# Mechanical properties :
#
#
# Convention : Reuss Voigt Hill
#
# Bulk Modulus (GPa) = 77.92556 79.30164 78.61360
# Shear Modulus (GPa) = 31.37952 101.85538 66.61745
#
# Velocity S-wave (km/s) = 3.85860 6.95182 5.62213
# Velocity P-wave (km/s) = 7.53827 10.10266 8.91317
#
# Compressibility (1/GPa) = 0.01283276
#
# Stress axis : x y z
#
# Youngs Moduli (GPa) = 100.05919 87.57703 97.74191
#
# Poissons Ratio (x) = 0.23045 0.35977
# Poissons Ratio (y) = 0.26329 0.30234
# Poissons Ratio (z) = 0.36830 0.27090
#
# Static dielectric constant tensor:
#      x y z
#    x 1.731010 0.000000 0.000000 
#    y 0.000000 1.795580 0.000000 
#    z 0.000000 0.000000 1.746180 
# 
# From -- ./inp_files/17819.got.cif
#   From: 2010.05.17/outbox.cif.g08.bks.cpg/sg68_9_cif.got.tgz:17819.got - 2010.06.03 18:57:09.
