data_PCOD9510335
_publ_section_title
;
Structure prediction by ZEFSAII (Michael W. Deem and Ramdas Pophale) SiO2 
 PCOD9510335
Probable space group: C C C A
;
_chemical_formula_sum "Si O2"
_cell_formula_units_Z 88
_cell_length_a 17.441649
_cell_length_b 29.785225
_cell_length_c 8.617601
_cell_angle_alpha 90.000000
_cell_angle_beta 90.000000
_cell_angle_gamma 90.000000
_cell_volume 4476.873363
_symmetry_space_group_name_H-M "C C C A"
_symmetry_group_IT_number 68
_space_group.IT_coordinate_system_code '2'
_symmetry_cell_setting 'orthorhombic'
loop_
_space_group_symop_operation_xyz
x,y,z
-x,1/2-y,z
x,1/2-y,1/2-z
-x,y,1/2-z
-x,-y,-z
x,1/2+y,-z
-x,1/2+y,1/2+z
x,-y,1/2+z
1/2+x,1/2+y,z
1/2-x,-y,z
1/2+x,-y,1/2-z
1/2-x,1/2+y,1/2-z
1/2-x,1/2-y,-z
1/2+x,y,-z
1/2-x,y,1/2+z
1/2+x,1/2-y,1/2+z
loop_
_atom_site_type_symbol
_atom_site_label
_atom_site_fract_x
_atom_site_fract_y
_atom_site_fract_z
Si Si1 0.630599 0.652532 0.226248
Si Si2 0.199220 0.056896 0.213594
Si Si3 0.492385 0.348189 0.495144
Si Si4 0.500000 0.250000 0.007259
Si Si5 0.867882 0.750000 0.750000
Si Si6 0.000000 0.076646 0.750000
Si Si7 0.148094 0.973445 0.369373
O O1 0.683919 0.609405 0.232254
O O2 0.569883 0.652122 0.367392
O O3 0.671675 0.701299 0.239719
O O4 0.576362 0.647141 0.074401
O O5 0.287122 0.046039 0.253051
O O6 0.152010 0.026799 0.338036
O O7 0.172970 0.040456 0.042886
O O8 0.492799 0.298812 0.417835
O O9 0.473589 0.389109 0.383784
O O10 0.425639 0.251893 0.895873
O O11 0.932977 0.046491 0.678936
#
# Coordination Sequence:
#
# PCOD9510335 Si02
#       7
#    16  16  16   8   8   8  16
#     4   9  17  34  61  83 116 158 200 240 298 354
#     4  11  23  44  62  84 117 164 196 241 308 358
#     4   9  18  31  54  88 120 156 197 244 295 351
#     4   7  12  27  48  78 120 156 192 234 292 352
#     4   7  12  26  54  88 106 147 204 242 276 359
#     4  12  24  37  56  96 124 147 200 258 292 346
#     4  11  26  41  63  87 120 157 203 242 295 364
#
# _framework density 19.656576000000001
#
# number of rings (size 3 to 8) (size 9 to 14) (size 15 to 20)
#    0.000    2.364    1.818    4.364    5.091    2.545 
#    0.000    0.000    0.000    3.273    0.000    0.000 
#    0.000    0.000    0.000    0.000    0.000    0.000 
#
# Total GULP energy -245150.167245 kJ/mol
# GULP energy per Si atom -5571.594710 kJ/mol
# Density = 1.961184 g / cm^3
# Si number density = 19.656576 Si / 1000 Ang^3
#
#
#
# Elastic Constant Matrix: (Units=GPa)
#
#
# Indices 1 2 3 4 5 6 
#
# 1 24.5661 20.5734 2.5414 0.0000 0.0000 0.0000
# 2 20.5734 156.0790 18.0841 0.0000 0.0000 0.0000
# 3 2.5414 18.0841 70.1843 0.0000 0.0000 0.0000
# 4 0.0000 0.0000 0.0000 101.9747 0.0000 0.0000
# 5 0.0000 0.0000 0.0000 0.0000 10.0647 0.0000
# 6 0.0000 0.0000 0.0000 0.0000 0.0000 28.1402
#
#
#
# Elastic Compliance Matrix: (Units=1/GPa)
#
#
# Indices 1 2 3 4 5 6 
#
# 1 0.045758 -0.006019 -0.000106 0.000000 0.000000 0.000000
# 2 -0.006019 0.007396 -0.001688 0.000000 0.000000 0.000000
# 3 -0.000106 -0.001688 0.014687 0.000000 0.000000 0.000000
# 4 0.000000 0.000000 0.000000 0.009806 0.000000 0.000000
# 5 0.000000 0.000000 0.000000 0.000000 0.099357 0.000000
# 6 0.000000 0.000000 0.000000 0.000000 0.000000 0.035536
#
#
# Mechanical properties :
#
#
# Convention : Reuss Voigt Hill
#
# Bulk Modulus (GPa) = 19.15145 37.02522 28.08833
# Shear Modulus (GPa) = 20.36062 42.01130 31.18596
#
# Velocity S-wave (km/s) = 3.22190 4.62807 3.98746
# Velocity P-wave (km/s) = 4.85850 6.88735 5.95990
#
# Compressibility (1/GPa) = 0.05221537
#
# Stress axis : x y z
#
# Youngs Moduli (GPa) = 21.85389 135.20842 68.08781
#
# Poissons Ratio (x) = 0.81386 0.00721
# Poissons Ratio (y) = 0.13155 0.11491
# Poissons Ratio (z) = 0.00232 0.22820
#
# Static dielectric constant tensor:
#      x y z
#    x 1.653390 0.000000 0.000000 
#    y 0.000000 1.752120 0.000000 
#    z 0.000000 0.000000 1.721430 
# 
# From -- ./inp_files/6442.got.cif
#   From: 2010.05.17/outbox.cif.g08.bks.cpg/sg68_4_cif.got.tgz:6442.got - 2010.06.03 18:57:09.
