data_PCOD9510264
_publ_section_title
;
Structure prediction by ZEFSAII (Michael W. Deem and Ramdas Pophale) SiO2 
 PCOD9510264
Probable space group: C C C A
;
_chemical_formula_sum "Si O2"
_cell_formula_units_Z 96
_cell_length_a 16.966361
_cell_length_b 19.744268
_cell_length_c 14.417112
_cell_angle_alpha 90.000000
_cell_angle_beta 90.000000
_cell_angle_gamma 90.000000
_cell_volume 4829.564973
_symmetry_space_group_name_H-M "C C C A"
_symmetry_group_IT_number 68
_space_group.IT_coordinate_system_code '2'
_symmetry_cell_setting 'orthorhombic'
loop_
_space_group_symop_operation_xyz
x,y,z
-x,1/2-y,z
x,1/2-y,1/2-z
-x,y,1/2-z
-x,-y,-z
x,1/2+y,-z
-x,1/2+y,1/2+z
x,-y,1/2+z
1/2+x,1/2+y,z
1/2-x,-y,z
1/2+x,-y,1/2-z
1/2-x,1/2+y,1/2-z
1/2-x,1/2-y,-z
1/2+x,y,-z
1/2-x,y,1/2+z
1/2+x,1/2-y,1/2+z
loop_
_atom_site_type_symbol
_atom_site_label
_atom_site_fract_x
_atom_site_fract_y
_atom_site_fract_z
Si Si1 0.213846 0.924540 0.134723
Si Si2 0.214671 0.173315 0.278935
Si Si3 0.056114 0.412714 0.488773
Si Si4 0.958923 0.038263 0.846498
Si Si5 0.466075 0.174498 0.842481
Si Si6 0.732563 0.920919 0.559061
O O1 0.270840 0.872818 0.188118
O O2 0.125442 0.927774 0.173672
O O3 0.250000 0.000000 0.141553
O O4 0.207126 0.907813 0.025443
O O5 0.236716 0.250000 0.250000
O O6 0.126800 0.175659 0.322367
O O7 0.260896 0.131602 0.357626
O O8 0.053632 0.476415 0.418047
O O9 0.148409 0.408435 0.511129
O O10 0.016640 0.417479 0.589913
O O11 0.003233 0.359664 0.432280
O O12 0.000000 0.020309 0.750000
O O13 0.500000 0.250000 0.844243
O O14 0.500000 0.139409 0.750000
O O15 0.750000 0.000000 0.587984
#
# Coordination Sequence:
#
# PCOD9510264 Si02
#       6
#    16  16  16  16  16  16
#     4  11  23  42  64  98 132 171 223 277 335 391
#     4  12  26  43  67  98 135 181 219 273 338 399
#     4  11  23  41  66  98 128 177 217 275 339 387
#     4  11  23  39  66  97 130 168 219 272 337 401
#     4  11  23  42  64  96 132 169 227 274 331 399
#     4  11  23  44  67 100 135 171 228 279 334 405
#
# _framework density 19.877566999999999
#
# number of rings (size 3 to 8) (size 9 to 14) (size 15 to 20)
#    0.000    0.833    5.000    4.000    4.667    0.667 
#    3.000    0.000    0.000    0.000    0.000    0.000 
#    0.000    0.000    0.000    0.000    0.000    0.000 
#
# Total GULP energy -267562.241048 kJ/mol
# GULP energy per Si atom -5574.213355 kJ/mol
# Density = 1.983232 g / cm^3
# Si number density = 19.877567 Si / 1000 Ang^3
#
#
#
# Elastic Constant Matrix: (Units=GPa)
#
#
# Indices 1 2 3 4 5 6 
#
# 1 86.3027 19.0914 27.8637 0.0000 0.0000 0.0000
# 2 19.0914 100.7844 54.7992 0.0000 0.0000 0.0000
# 3 27.8637 54.7992 130.3701 0.0000 0.0000 0.0000
# 4 0.0000 0.0000 0.0000 30.2643 0.0000 0.0000
# 5 0.0000 0.0000 0.0000 0.0000 19.7307 0.0000
# 6 0.0000 0.0000 0.0000 0.0000 0.0000 16.4516
#
#
#
# Elastic Compliance Matrix: (Units=1/GPa)
#
#
# Indices 1 2 3 4 5 6 
#
# 1 0.012555 -0.001192 -0.002183 0.000000 0.000000 0.000000
# 2 -0.001192 0.012975 -0.005199 0.000000 0.000000 0.000000
# 3 -0.002183 -0.005199 0.010322 0.000000 0.000000 0.000000
# 4 0.000000 0.000000 0.000000 0.033042 0.000000 0.000000
# 5 0.000000 0.000000 0.000000 0.000000 0.050682 0.000000
# 6 0.000000 0.000000 0.000000 0.000000 0.000000 0.060784
#
#
# Mechanical properties :
#
#
# Convention : Reuss Voigt Hill
#
# Bulk Modulus (GPa) = 53.45894 57.88509 55.67202
# Shear Modulus (GPa) = 24.54071 27.66953 26.10512
#
# Velocity S-wave (km/s) = 3.51749 3.73500 3.62787
# Velocity P-wave (km/s) = 6.59162 6.91262 6.75403
#
# Compressibility (1/GPa) = 0.01870594
#
# Stress axis : x y z
#
# Youngs Moduli (GPa) = 79.64709 77.07267 96.87767
#
# Poissons Ratio (x) = 0.09184 0.21144
# Poissons Ratio (y) = 0.09491 0.50367
# Poissons Ratio (z) = 0.17383 0.40071
#
# Static dielectric constant tensor:
#      x y z
#    x 1.791800 0.000000 0.000000 
#    y 0.000000 1.701660 0.000000 
#    z 0.000000 0.000000 1.774100 
# 
# From -- ./inp_files/22345.got.cif
#   From: 2010.05.17/outbox.cif.g08.bks.cpg/sg68_12_cif.got.tgz:22345.got - 2010.06.03 18:57:09.
