data_PCOD9510340
_publ_section_title
;
Structure prediction by ZEFSAII (Michael W. Deem and Ramdas Pophale) SiO2 
 PCOD9510340
Probable space group: C C C A
;
_chemical_formula_sum "Si O2"
_cell_formula_units_Z 60
_cell_length_a 13.905761
_cell_length_b 7.681659
_cell_length_c 21.183714
_cell_angle_alpha 90.000000
_cell_angle_beta 90.000000
_cell_angle_gamma 90.000000
_cell_volume 2262.829800
_symmetry_space_group_name_H-M "C C C A"
_symmetry_group_IT_number 68
_space_group.IT_coordinate_system_code '2'
_symmetry_cell_setting 'orthorhombic'
loop_
_space_group_symop_operation_xyz
x,y,z
-x,1/2-y,z
x,1/2-y,1/2-z
-x,y,1/2-z
-x,-y,-z
x,1/2+y,-z
-x,1/2+y,1/2+z
x,-y,1/2+z
1/2+x,1/2+y,z
1/2-x,-y,z
1/2+x,-y,1/2-z
1/2-x,1/2+y,1/2-z
1/2-x,1/2-y,-z
1/2+x,y,-z
1/2-x,y,1/2+z
1/2+x,1/2-y,1/2+z
loop_
_atom_site_type_symbol
_atom_site_label
_atom_site_fract_x
_atom_site_fract_y
_atom_site_fract_z
Si Si1 0.111615 0.199687 0.881184
Si Si2 0.639738 0.545136 0.760021
Si Si3 0.921123 0.864095 0.975549
Si Si4 0.500000 0.750000 0.250000
Si Si5 0.750000 0.500000 0.109370
O O1 0.125629 0.032426 0.836823
O O2 0.189733 0.343278 0.859324
O O3 0.000000 0.250000 0.874028
O O4 0.124501 0.191998 0.957036
O O5 0.612133 0.750000 0.750000
O O6 0.750000 0.500000 0.749603
O O7 0.575961 0.398051 0.725200
O O8 0.000000 0.750000 0.938509
O O9 0.833906 0.914968 0.932456
O O10 0.000000 0.000000 0.000000
#
# Coordination Sequence:
#
# PCOD9510340 Si02
#       5
#    16  16  16   4   8
#     4  11  25  44  70 109 147 193 256 306 375 467
#     4  12  28  51  81 115 153 196 262 318 394 462
#     4  11  23  44  67 102 147 193 245 299 363 446
#     4  12  26  56  84 104 156 200 234 340 380 452
#     4  12  24  44  74 100 154 198 240 316 374 432
#
# _framework density 26.515471000000002
#
# number of rings (size 3 to 8) (size 9 to 14) (size 15 to 20)
#    0.000    0.533    6.667    2.800    3.733    2.133 
#    2.400    0.000    0.000    0.000    0.000    0.000 
#    0.000    0.000    0.000    0.000    0.000    0.000 
#
# Total GULP energy -167217.150609 kJ/mol
# GULP energy per Si atom -5573.905020 kJ/mol
# Density = 2.645512 g / cm^3
# Si number density = 26.515471 Si / 1000 Ang^3
#
#
#
# Elastic Constant Matrix: (Units=GPa)
#
#
# Indices 1 2 3 4 5 6 
#
# 1 203.8169 61.1714 33.5752 0.0000 0.0000 0.0000
# 2 61.1714 122.2339 21.3100 0.0000 0.0000 0.0000
# 3 33.5752 21.3100 102.3157 0.0000 0.0000 0.0000
# 4 0.0000 0.0000 0.0000 33.2953 0.0000 0.0000
# 5 0.0000 0.0000 0.0000 0.0000 19.9137 0.0000
# 6 0.0000 0.0000 0.0000 0.0000 0.0000 77.3511
#
#
#
# Elastic Compliance Matrix: (Units=1/GPa)
#
#
# Indices 1 2 3 4 5 6 
#
# 1 0.005957 -0.002740 -0.001384 0.000000 0.000000 0.000000
# 2 -0.002740 0.009749 -0.001132 0.000000 0.000000 0.000000
# 3 -0.001384 -0.001132 0.010464 0.000000 0.000000 0.000000
# 4 0.000000 0.000000 0.000000 0.030034 0.000000 0.000000
# 5 0.000000 0.000000 0.000000 0.000000 0.050217 0.000000
# 6 0.000000 0.000000 0.000000 0.000000 0.000000 0.012928
#
#
# Mechanical properties :
#
#
# Convention : Reuss Voigt Hill
#
# Bulk Modulus (GPa) = 63.86122 73.38664 68.62393
# Shear Modulus (GPa) = 37.01549 46.93270 41.97410
#
# Velocity S-wave (km/s) = 3.74036 4.21172 3.98301
# Velocity P-wave (km/s) = 6.54144 7.16857 6.86217
#
# Compressibility (1/GPa) = 0.01565896
#
# Stress axis : x y z
#
# Youngs Moduli (GPa) = 167.88052 102.57091 95.57008
#
# Poissons Ratio (x) = 0.28101 0.13228
# Poissons Ratio (y) = 0.45994 0.10814
# Poissons Ratio (z) = 0.23236 0.11606
#
# Static dielectric constant tensor:
#      x y z
#    x 2.173110 0.000000 0.000000 
#    y 0.000000 2.585430 0.000000 
#    z 0.000000 0.000000 2.837810 
# 
# From -- ./inp_files/44944.got.cif
#   From: 2010.05.17/outbox.cif.g08.bks.cpg/sg68_23_cif.got.tgz:44944.got - 2010.06.03 18:57:09.
