data_PCOD9510755
_publ_section_title
;
Structure prediction by ZEFSAII (Michael W. Deem and Ramdas Pophale) SiO2 
 PCOD9510755
Probable space group: C C C A
;
_chemical_formula_sum "Si O2"
_cell_formula_units_Z 68
_cell_length_a 20.029198
_cell_length_b 27.041978
_cell_length_c 5.101139
_cell_angle_alpha 90.000000
_cell_angle_beta 90.000000
_cell_angle_gamma 90.000000
_cell_volume 2762.925487
_symmetry_space_group_name_H-M "C C C A"
_symmetry_group_IT_number 68
_space_group.IT_coordinate_system_code '2'
_symmetry_cell_setting 'orthorhombic'
loop_
_space_group_symop_operation_xyz
x,y,z
-x,1/2-y,z
x,1/2-y,1/2-z
-x,y,1/2-z
-x,-y,-z
x,1/2+y,-z
-x,1/2+y,1/2+z
x,-y,1/2+z
1/2+x,1/2+y,z
1/2-x,-y,z
1/2+x,-y,1/2-z
1/2-x,1/2+y,1/2-z
1/2-x,1/2-y,-z
1/2+x,y,-z
1/2-x,y,1/2+z
1/2+x,1/2-y,1/2+z
loop_
_atom_site_type_symbol
_atom_site_label
_atom_site_fract_x
_atom_site_fract_y
_atom_site_fract_z
Si Si1 0.148707 0.528553 0.213680
Si Si2 0.608258 0.299426 0.892196
Si Si3 0.500000 0.750000 0.750000
Si Si4 0.208724 0.864278 0.219043
Si Si5 0.500000 0.868570 0.250000
Si Si6 0.500000 0.062386 0.250000
O O1 0.169603 0.487219 0.423266
O O2 0.177965 0.581028 0.301673
O O3 0.068102 0.532276 0.212917
O O4 0.634983 0.250000 0.750000
O O5 0.568845 0.337771 0.705283
O O6 0.546543 0.281897 0.067243
O O7 0.658718 0.325189 0.090408
O O8 0.227727 0.858448 0.523984
O O9 0.489244 0.902860 0.499949
#
# Coordination Sequence:
#
# PCOD9510755 Si02
#       6
#    16  16   4  16   8   8
#     4  12  26  47  77 110 147 193 249 315 382 448
#     4  12  27  45  79 113 151 196 253 309 382 455
#     4  12  24  48  76 120 148 188 248 312 398 462
#     4  12  31  51  74 106 150 206 257 303 364 444
#     4  12  23  43  76 112 150 196 236 311 383 466
#     4  12  25  43  77 115 156 183 241 321 397 446
#
# _framework density 24.611592999999999
#
# number of rings (size 3 to 8) (size 9 to 14) (size 15 to 20)
#    0.000    0.000    4.706    4.235    6.588    3.765 
#    0.000    0.000    0.000    0.000    0.000    0.000 
#    0.000    0.000    0.000    0.000    0.000    0.000 
#
# Total GULP energy -190672.967230 kJ/mol
# GULP energy per Si atom -5608.028448 kJ/mol
# Density = 2.455558 g / cm^3
# Si number density = 24.611593 Si / 1000 Ang^3
#
#
#
# Elastic Constant Matrix: (Units=GPa)
#
#
# Indices 1 2 3 4 5 6 
#
# 1 82.5301 14.5377 -18.0345 0.0000 0.0000 0.0000
# 2 14.5377 83.9286 6.0048 0.0000 0.0000 0.0000
# 3 -18.0345 6.0048 73.4824 0.0000 0.0000 0.0000
# 4 0.0000 0.0000 0.0000 25.5465 0.0000 0.0000
# 5 0.0000 0.0000 0.0000 0.0000 -65.4743 0.0000
# 6 0.0000 0.0000 0.0000 0.0000 0.0000 14.3609
#
#
#
# Elastic Compliance Matrix: (Units=1/GPa)
#
#
# Indices 1 2 3 4 5 6 
#
# 1 0.013328 -0.002558 0.003480 0.000000 0.000000 0.000000
# 2 -0.002558 0.012476 -0.001647 0.000000 0.000000 0.000000
# 3 0.003480 -0.001647 0.014597 0.000000 0.000000 0.000000
# 4 0.000000 0.000000 0.000000 0.039144 0.000000 0.000000
# 5 0.000000 0.000000 0.000000 0.000000 -0.015273 0.000000
# 6 0.000000 0.000000 0.000000 0.000000 0.000000 0.069634
#
#
# Mechanical properties :
#
#
# Convention : Reuss Voigt Hill
#
# Bulk Modulus (GPa) = 25.67302 27.21744 26.44523
# Shear Modulus (GPa) = 33.70660 10.71550 22.21105
#
# Velocity S-wave (km/s) = 3.70475 2.08885 3.00736
# Velocity P-wave (km/s) = 5.36229 4.11102 4.77779
#
# Compressibility (1/GPa) = 0.03895140
#
# Stress axis : x y z
#
# Youngs Moduli (GPa) = 75.03145 80.15560 68.50547
#
# Poissons Ratio (x) = 0.20500 -0.23840
# Poissons Ratio (y) = 0.19190 0.11284
# Poissons Ratio (z) = -0.26111 0.13203
#
# Static dielectric constant tensor:
#      x y z
#    x 1.849410 0.000000 0.000000 
#    y 0.000000 2.080530 0.000000 
#    z 0.000000 0.000000 1.931400 
# 
# From -- ./inp_files/1561.got.cif
#   From: 2010.05.17/outbox.cif.g08.bks.cpg/sg68_1_cif.got.tgz:1561.got - 2010.06.03 18:57:09.
