data_PCOD9510798
_publ_section_title
;
Structure prediction by ZEFSAII (Michael W. Deem and Ramdas Pophale) SiO2 
 PCOD9510798
Probable space group: C C C A
;
_chemical_formula_sum "Si O2"
_cell_formula_units_Z 44
_cell_length_a 5.517360
_cell_length_b 24.647075
_cell_length_c 14.105527
_cell_angle_alpha 90.000000
_cell_angle_beta 90.000000
_cell_angle_gamma 90.000000
_cell_volume 1918.165278
_symmetry_space_group_name_H-M "C C C A"
_symmetry_group_IT_number 68
_space_group.IT_coordinate_system_code '2'
_symmetry_cell_setting 'orthorhombic'
loop_
_space_group_symop_operation_xyz
x,y,z
-x,1/2-y,z
x,1/2-y,1/2-z
-x,y,1/2-z
-x,-y,-z
x,1/2+y,-z
-x,1/2+y,1/2+z
x,-y,1/2+z
1/2+x,1/2+y,z
1/2-x,-y,z
1/2+x,-y,1/2-z
1/2-x,1/2+y,1/2-z
1/2-x,1/2-y,-z
1/2+x,y,-z
1/2-x,y,1/2+z
1/2+x,1/2-y,1/2+z
loop_
_atom_site_type_symbol
_atom_site_label
_atom_site_fract_x
_atom_site_fract_y
_atom_site_fract_z
Si Si1 0.807593 0.287714 0.090955
Si Si2 0.500000 0.750000 0.750000
Si Si3 0.000000 0.466885 0.250000
Si Si4 0.917039 0.410440 0.051040
O O1 0.605093 0.292222 0.171007
O O2 0.906460 0.344894 0.056382
O O3 0.000000 0.250000 0.144264
O O4 0.750000 0.250000 0.000000
O O5 0.750000 0.500000 0.265232
O O6 0.953020 0.432003 0.156300
O O7 0.654742 0.427444 0.009134
#
# Coordination Sequence:
#
# PCOD9510798 Si02
#       4
#    16   4   8  16
#     4  12  24  45  68 110 158 193 244 299 362 471
#     4  12  26  38  72  96 160 216 236 292 378 414
#     4  12  30  53  77 112 147 192 269 330 370 446
#     4  12  27  48  80 111 150 201 246 307 390 449
#
# _framework density 22.938587999999999
#
# number of rings (size 3 to 8) (size 9 to 14) (size 15 to 20)
#    0.000    0.000    5.455    2.727    5.091    5.818 
#    0.000    0.000    0.000    0.000    0.000    0.000 
#    0.000    0.000    0.000    0.000    0.000    0.000 
#
# Total GULP energy -122795.113672 kJ/mol
# GULP energy per Si atom -5581.596076 kJ/mol
# Density = 2.288638 g / cm^3
# Si number density = 22.938588 Si / 1000 Ang^3
#
#
#
# Elastic Constant Matrix: (Units=GPa)
#
#
# Indices 1 2 3 4 5 6 
#
# 1 145.8250 38.8265 82.1034 0.0000 0.0000 0.0000
# 2 38.8265 75.3258 57.7188 0.0000 0.0000 0.0000
# 3 82.1034 57.7188 232.7197 0.0000 0.0000 0.0000
# 4 0.0000 0.0000 0.0000 30.9491 0.0000 0.0000
# 5 0.0000 0.0000 0.0000 0.0000 44.2201 0.0000
# 6 0.0000 0.0000 0.0000 0.0000 0.0000 23.2825
#
#
#
# Elastic Compliance Matrix: (Units=1/GPa)
#
#
# Indices 1 2 3 4 5 6 
#
# 1 0.008987 -0.002720 -0.002496 0.000000 0.000000 0.000000
# 2 -0.002720 0.017214 -0.003310 0.000000 0.000000 0.000000
# 3 -0.002496 -0.003310 0.005999 0.000000 0.000000 0.000000
# 4 0.000000 0.000000 0.000000 0.032311 0.000000 0.000000
# 5 0.000000 0.000000 0.000000 0.000000 0.022614 0.000000
# 6 0.000000 0.000000 0.000000 0.000000 0.000000 0.042951
#
#
# Mechanical properties :
#
#
# Convention : Reuss Voigt Hill
#
# Bulk Modulus (GPa) = 66.01505 90.12974 78.07239
# Shear Modulus (GPa) = 32.85677 38.03848 35.44762
#
# Velocity S-wave (km/s) = 3.78879 4.07661 3.93533
# Velocity P-wave (km/s) = 6.92686 7.84445 7.39989
#
# Compressibility (1/GPa) = 0.01514806
#
# Stress axis : x y z
#
# Youngs Moduli (GPa) = 111.27145 58.09330 166.70778
#
# Poissons Ratio (x) = 0.15800 0.41612
# Poissons Ratio (y) = 0.30263 0.55177
# Poissons Ratio (z) = 0.27774 0.19228
#
# Static dielectric constant tensor:
#      x y z
#    x 1.967610 0.000000 0.000000 
#    y 0.000000 1.881990 0.000000 
#    z 0.000000 0.000000 1.791690 
# 
# From -- ./inp_files/18168.got.cif
#   From: 2010.05.17/outbox.cif.g08.bks.cpg/sg68_10_cif.got.tgz:18168.got - 2010.06.03 18:57:09.
