data_PCOD9510022
_publ_section_title
;
Structure prediction by ZEFSAII (Michael W. Deem and Ramdas Pophale) SiO2 
 PCOD9510022
Probable space group: C C C A
;
_chemical_formula_sum "Si O2"
_cell_formula_units_Z 96
_cell_length_a 24.967909
_cell_length_b 9.624637
_cell_length_c 21.498358
_cell_angle_alpha 90.000000
_cell_angle_beta 90.000000
_cell_angle_gamma 90.000000
_cell_volume 5166.207222
_symmetry_space_group_name_H-M "C C C A"
_symmetry_group_IT_number 68
_space_group.IT_coordinate_system_code '2'
_symmetry_cell_setting 'orthorhombic'
loop_
_space_group_symop_operation_xyz
x,y,z
-x,1/2-y,z
x,1/2-y,1/2-z
-x,y,1/2-z
-x,-y,-z
x,1/2+y,-z
-x,1/2+y,1/2+z
x,-y,1/2+z
1/2+x,1/2+y,z
1/2-x,-y,z
1/2+x,-y,1/2-z
1/2-x,1/2+y,1/2-z
1/2-x,1/2-y,-z
1/2+x,y,-z
1/2-x,y,1/2+z
1/2+x,1/2-y,1/2+z
loop_
_atom_site_type_symbol
_atom_site_label
_atom_site_fract_x
_atom_site_fract_y
_atom_site_fract_z
Si Si1 0.379738 0.274508 0.074747
Si Si2 0.462700 0.126935 0.519548
Si Si3 0.634359 0.973170 0.392058
Si Si4 0.186502 0.526171 0.634144
Si Si5 0.194869 0.731408 0.963059
Si Si6 0.303096 0.907289 0.230570
O O1 0.346861 0.403292 0.102555
O O2 0.376642 0.136940 0.116068
O O3 0.435355 0.323124 0.045291
O O4 0.349121 0.227251 0.012866
O O5 0.500000 0.250000 0.544230
O O6 0.417696 0.086035 0.570921
O O7 0.500000 0.000000 0.500000
O O8 0.682717 0.923942 0.438399
O O9 0.654827 0.915227 0.325835
O O10 0.250000 0.500000 0.634514
O O11 0.184251 0.667166 0.594673
O O12 0.170533 0.537082 0.705922
O O13 0.250000 0.750000 0.000000
O O14 0.286562 0.750000 0.250000
O O15 0.250000 0.000000 0.215667
#
# Coordination Sequence:
#
# PCOD9510022 Si02
#       6
#    16  16  16  16  16  16
#     4  11  24  37  63 101 124 166 214 267 337 386
#     4  11  23  45  70  99 129 159 211 287 352 392
#     4  11  25  40  64  94 127 173 221 266 323 397
#     4  11  23  40  58  90 136 175 215 257 306 387
#     4  11  21  36  57  89 133 167 209 263 320 383
#     4  11  26  43  62  90 136 190 224 255 308 390
#
# _framework density 18.582298000000002
#
# number of rings (size 3 to 8) (size 9 to 14) (size 15 to 20)
#    0.000    1.000    5.000    2.000    9.333    0.000 
#    0.000    0.000    0.000    3.500    0.000    0.000 
#    0.000    0.000    0.000    0.000    0.000    0.000 
#
# Total GULP energy -267500.804322 kJ/mol
# GULP energy per Si atom -5572.933423 kJ/mol
# Density = 1.854000 g / cm^3
# Si number density = 18.582298 Si / 1000 Ang^3
#
#
#
# Elastic Constant Matrix: (Units=GPa)
#
#
# Indices 1 2 3 4 5 6 
#
# 1 98.0393 53.0989 43.8363 0.0000 0.0000 0.0000
# 2 53.0989 131.6332 37.8940 0.0000 0.0000 0.0000
# 3 43.8363 37.8940 110.3590 0.0000 0.0000 0.0000
# 4 0.0000 0.0000 0.0000 0.7689 0.0000 0.0000
# 5 0.0000 0.0000 0.0000 0.0000-1091.1839 0.0000
# 6 0.0000 0.0000 0.0000 0.0000 0.0000 29.3207
#
#
#
# Elastic Compliance Matrix: (Units=1/GPa)
#
#
# Indices 1 2 3 4 5 6 
#
# 1 0.014615 -0.004688 -0.004196 0.000000 0.000000 0.000000
# 2 -0.004688 0.009934 -0.001549 0.000000 0.000000 0.000000
# 3 -0.004196 -0.001549 0.011260 0.000000 0.000000 0.000000
# 4 0.000000 0.000000 0.000000 1.300495 0.000000 0.000000
# 5 0.000000 0.000000 0.000000 0.000000 -0.000916 0.000000
# 6 0.000000 0.000000 0.000000 0.000000 0.000000 0.034106
#
#
# Mechanical properties :
#
#
# Convention : Reuss Voigt Hill
#
# Bulk Modulus (GPa) = 66.91693 67.74334 67.33014
# Shear Modulus (GPa) = 3.58336 -198.53869 -97.47767
#
# Velocity S-wave (km/s) = 1.39017 -10.34770 -7.25060
# Velocity P-wave (km/s) = 6.21820 10.30687 5.81229
#
# Compressibility (1/GPa) = 0.01494390
#
# Stress axis : x y z
#
# Youngs Moduli (GPa) = 68.42365 100.66770 88.81170
#
# Poissons Ratio (x) = 0.47189 0.37262
# Poissons Ratio (y) = 0.32074 0.13756
# Poissons Ratio (z) = 0.28708 0.15593
#
# Static dielectric constant tensor:
#      x y z
#    x 1.600340 0.000000 0.000000 
#    y 0.000000 1.692780 0.000000 
#    z 0.000000 0.000000 1.702400 
# 
# From -- ./inp_files/46931.got.cif
#   From: 2010.05.17/outbox.cif.g08.bks.cpg/sg68_24_cif.got.tgz:46931.got - 2010.06.03 18:57:09.
