data_PCOD9510789
_publ_section_title
;
Structure prediction by ZEFSAII (Michael W. Deem and Ramdas Pophale) SiO2 
 PCOD9510789
Probable space group: C C C A
;
_chemical_formula_sum "Si O2"
_cell_formula_units_Z 52
_cell_length_a 14.054582
_cell_length_b 7.146230
_cell_length_c 18.557952
_cell_angle_alpha 90.000000
_cell_angle_beta 90.000000
_cell_angle_gamma 90.000000
_cell_volume 1863.910138
_symmetry_space_group_name_H-M "C C C A"
_symmetry_group_IT_number 68
_space_group.IT_coordinate_system_code '2'
_symmetry_cell_setting 'orthorhombic'
loop_
_space_group_symop_operation_xyz
x,y,z
-x,1/2-y,z
x,1/2-y,1/2-z
-x,y,1/2-z
-x,-y,-z
x,1/2+y,-z
-x,1/2+y,1/2+z
x,-y,1/2+z
1/2+x,1/2+y,z
1/2-x,-y,z
1/2+x,-y,1/2-z
1/2-x,1/2+y,1/2-z
1/2-x,1/2-y,-z
1/2+x,y,-z
1/2-x,y,1/2+z
1/2+x,1/2-y,1/2+z
loop_
_atom_site_type_symbol
_atom_site_label
_atom_site_fract_x
_atom_site_fract_y
_atom_site_fract_z
Si Si1 0.155689 0.589516 0.884357
Si Si2 0.636983 0.522674 0.339574
Si Si3 0.000000 0.750000 0.250000
Si Si4 0.105312 0.233346 0.972667
O O1 0.250000 0.500000 0.850654
O O2 0.114763 0.755270 0.836532
O O3 0.105611 0.407756 0.917163
O O4 0.174698 0.698704 0.959648
O O5 0.750000 0.500000 0.324694
O O6 0.570374 0.390934 0.291921
O O7 0.619847 0.442115 0.420152
O O8 0.000000 0.250000 0.006072
#
# Coordination Sequence:
#
# PCOD9510789 Si02
#       4
#    16  16   4  16
#     4  12  24  43  81 124 165 210 255 331 434 510
#     4  12  27  55  85 115 164 212 288 352 408 506
#     4  12  32  64  82 114 158 236 308 356 416 478
#     4  12  24  42  75 130 170 205 260 328 426 514
#
# _framework density 27.898340999999999
#
# number of rings (size 3 to 8) (size 9 to 14) (size 15 to 20)
#    0.000    0.000    7.692    2.769    0.000    0.000 
#    5.538    1.538    0.000    0.000    0.000    0.000 
#    0.000    0.000    0.000    0.000    0.000    0.000 
#
# Total GULP energy -145464.999867 kJ/mol
# GULP energy per Si atom -5594.807687 kJ/mol
# Density = 2.783484 g / cm^3
# Si number density = 27.898341 Si / 1000 Ang^3
#
#
#
# Elastic Constant Matrix: (Units=GPa)
#
#
# Indices 1 2 3 4 5 6 
#
# 1 109.8516 38.0722 23.0055 0.0000 0.0000 0.0000
# 2 38.0722 285.6880 42.1525 0.0000 0.0000 0.0000
# 3 23.0055 42.1525 100.4910 0.0000 0.0000 0.0000
# 4 0.0000 0.0000 0.0000 19.1584 0.0000 0.0000
# 5 0.0000 0.0000 0.0000 0.0000 14.6631 0.0000
# 6 0.0000 0.0000 0.0000 0.0000 0.0000 49.1492
#
#
#
# Elastic Compliance Matrix: (Units=1/GPa)
#
#
# Indices 1 2 3 4 5 6 
#
# 1 0.009845 -0.001044 -0.001816 0.000000 0.000000 0.000000
# 2 -0.001044 0.003842 -0.001373 0.000000 0.000000 0.000000
# 3 -0.001816 -0.001373 0.010943 0.000000 0.000000 0.000000
# 4 0.000000 0.000000 0.000000 0.052196 0.000000 0.000000
# 5 0.000000 0.000000 0.000000 0.000000 0.068199 0.000000
# 6 0.000000 0.000000 0.000000 0.000000 0.000000 0.020346
#
#
# Mechanical properties :
#
#
# Convention : Reuss Voigt Hill
#
# Bulk Modulus (GPa) = 61.86302 78.05455 69.95879
# Shear Modulus (GPa) = 27.89795 42.78082 35.33938
#
# Velocity S-wave (km/s) = 3.16569 3.92018 3.56296
# Velocity P-wave (km/s) = 5.96529 6.96630 6.48514
#
# Compressibility (1/GPa) = 0.01616475
#
# Stress axis : x y z
#
# Youngs Moduli (GPa) = 101.57076 260.28246 91.38591
#
# Poissons Ratio (x) = 0.27176 0.16595
# Poissons Ratio (y) = 0.10605 0.12543
# Poissons Ratio (z) = 0.18445 0.35725
#
# Static dielectric constant tensor:
#      x y z
#    x 2.180700 0.000000 0.000000 
#    y 0.000000 2.200620 0.000000 
#    z 0.000000 0.000000 2.138840 
# 
# From -- ./inp_files/35475.got.cif
#   From: 2010.05.17/outbox.cif.g08.bks.cpg/sg68_18_cif.got.tgz:35475.got - 2010.06.03 18:57:09.
