data_PCOD9510301
_publ_section_title
;
Structure prediction by ZEFSAII (Michael W. Deem and Ramdas Pophale) SiO2 
 PCOD9510301
Probable space group: C C C A
;
_chemical_formula_sum "Si O2"
_cell_formula_units_Z 104
_cell_length_a 19.011853
_cell_length_b 27.775836
_cell_length_c 8.623267
_cell_angle_alpha 90.000000
_cell_angle_beta 90.000000
_cell_angle_gamma 90.000000
_cell_volume 4553.689562
_symmetry_space_group_name_H-M "C C C A"
_symmetry_group_IT_number 68
_space_group.IT_coordinate_system_code '2'
_symmetry_cell_setting 'orthorhombic'
loop_
_space_group_symop_operation_xyz
x,y,z
-x,1/2-y,z
x,1/2-y,1/2-z
-x,y,1/2-z
-x,-y,-z
x,1/2+y,-z
-x,1/2+y,1/2+z
x,-y,1/2+z
1/2+x,1/2+y,z
1/2-x,-y,z
1/2+x,-y,1/2-z
1/2-x,1/2+y,1/2-z
1/2-x,1/2-y,-z
1/2+x,y,-z
1/2-x,y,1/2+z
1/2+x,1/2-y,1/2+z
loop_
_atom_site_type_symbol
_atom_site_label
_atom_site_fract_x
_atom_site_fract_y
_atom_site_fract_z
Si Si1 0.083657 0.240639 0.064444
Si Si2 0.056025 0.479538 0.123816
Si Si3 0.326239 0.898181 0.393287
Si Si4 0.700875 0.858790 0.773963
Si Si5 0.428416 0.915363 0.843447
Si Si6 0.068564 0.361550 0.351469
Si Si7 0.670933 0.250000 0.250000
O O1 0.102471 0.250000 0.250000
O O2 0.089868 0.183871 0.049327
O O3 0.000000 0.250000 0.049037
O O4 0.126280 0.258961 0.911721
O O5 0.119029 0.442937 0.077631
O O6 0.092800 0.528957 0.181770
O O7 0.000000 0.459944 0.250000
O O8 0.000000 0.500000 0.000000
O O9 0.303314 0.869190 0.544029
O O10 0.253465 0.899202 0.298396
O O11 0.372521 0.867894 0.275527
O O12 0.625597 0.876625 0.717313
O O13 0.712021 0.801811 0.735373
O O14 0.500000 0.909156 0.750000
O O15 0.438320 0.903899 0.024491
O O16 0.000000 0.351578 0.250000
#
# Coordination Sequence:
#
# PCOD9510301 Si02
#       7
#    16  16  16  16  16  16   8
#     4  11  23  41  68 110 149 194 259 324 386 444
#     4  11  23  46  77 112 143 189 243 319 396 463
#     4  12  27  48  72 103 150 194 257 310 392 478
#     4  12  28  48  71 105 145 205 250 315 378 464
#     4  11  24  43  74 109 148 192 256 312 385 460
#     4  12  22  42  71 105 147 192 243 321 381 455
#     4  12  27  48  70 104 153 208 262 314 386 464
#
# _framework density 22.838622000000001
#
# number of rings (size 3 to 8) (size 9 to 14) (size 15 to 20)
#    0.000    0.462    3.077    7.154    2.154    1.231 
#    1.385    1.538    0.000    0.000    0.000    0.000 
#    0.000    0.000    0.000    0.000    0.000    0.000 
#
# Total GULP energy -289649.614947 kJ/mol
# GULP energy per Si atom -5570.184903 kJ/mol
# Density = 2.278664 g / cm^3
# Si number density = 22.838622 Si / 1000 Ang^3
#
#
#
# Elastic Constant Matrix: (Units=GPa)
#
#
# Indices 1 2 3 4 5 6 
#
# 1 59.9241 25.4162 25.1799 0.0000 0.0000 0.0000
# 2 25.4162 116.0294 6.6919 0.0000 0.0000 0.0000
# 3 25.1799 6.6919 128.1335 0.0000 0.0000 0.0000
# 4 0.0000 0.0000 0.0000 40.4410 0.0000 0.0000
# 5 0.0000 0.0000 0.0000 0.0000 48.5200 0.0000
# 6 0.0000 0.0000 0.0000 0.0000 0.0000 43.7310
#
#
#
# Elastic Compliance Matrix: (Units=1/GPa)
#
#
# Indices 1 2 3 4 5 6 
#
# 1 0.020018 -0.004171 -0.003716 0.000000 0.000000 0.000000
# 2 -0.004171 0.009513 0.000323 0.000000 0.000000 0.000000
# 3 -0.003716 0.000323 0.008518 0.000000 0.000000 0.000000
# 4 0.000000 0.000000 0.000000 0.024727 0.000000 0.000000
# 5 0.000000 0.000000 0.000000 0.000000 0.020610 0.000000
# 6 0.000000 0.000000 0.000000 0.000000 0.000000 0.022867
#
#
# Mechanical properties :
#
#
# Convention : Reuss Voigt Hill
#
# Bulk Modulus (GPa) = 43.62713 46.51814 45.07263
# Shear Modulus (GPa) = 38.75298 42.99165 40.87232
#
# Velocity S-wave (km/s) = 4.12371 4.34338 4.23497
# Velocity P-wave (km/s) = 6.46662 6.75024 6.60995
#
# Compressibility (1/GPa) = 0.02292152
#
# Stress axis : x y z
#
# Youngs Moduli (GPa) = 49.95458 105.11409 117.40185
#
# Poissons Ratio (x) = 0.43840 0.43627
# Poissons Ratio (y) = 0.20834 -0.03789
# Poissons Ratio (z) = 0.18563 -0.03392
#
# Static dielectric constant tensor:
#      x y z
#    x 2.325350 0.000000 0.000000 
#    y 0.000000 1.918050 0.000000 
#    z 0.000000 0.000000 1.941760 
# 
# From -- ./inp_files/7356.got.cif
#   From: 2010.05.17/outbox.cif.g08.bks.cpg/sg68_4_cif.got.tgz:7356.got - 2010.06.03 18:57:09.
