data_PCOD9510596
_publ_section_title
;
Structure prediction by ZEFSAII (Michael W. Deem and Ramdas Pophale) SiO2 
 PCOD9510596
Probable space group: C C C A
;
_chemical_formula_sum "Si O2"
_cell_formula_units_Z 56
_cell_length_a 10.472323
_cell_length_b 13.047890
_cell_length_c 16.151416
_cell_angle_alpha 90.000000
_cell_angle_beta 90.000000
_cell_angle_gamma 90.000000
_cell_volume 2206.957239
_symmetry_space_group_name_H-M "C C C A"
_symmetry_group_IT_number 68
_space_group.IT_coordinate_system_code '2'
_symmetry_cell_setting 'orthorhombic'
loop_
_space_group_symop_operation_xyz
x,y,z
-x,1/2-y,z
x,1/2-y,1/2-z
-x,y,1/2-z
-x,-y,-z
x,1/2+y,-z
-x,1/2+y,1/2+z
x,-y,1/2+z
1/2+x,1/2+y,z
1/2-x,-y,z
1/2+x,-y,1/2-z
1/2-x,1/2+y,1/2-z
1/2-x,1/2-y,-z
1/2+x,y,-z
1/2-x,y,1/2+z
1/2+x,1/2-y,1/2+z
loop_
_atom_site_type_symbol
_atom_site_label
_atom_site_fract_x
_atom_site_fract_y
_atom_site_fract_z
Si Si1 0.178172 0.106641 0.161565
Si Si2 0.561975 0.095437 0.544692
Si Si3 0.500000 0.750000 0.594581
Si Si4 0.764545 0.660136 0.344068
O O1 0.204919 0.115026 0.260346
O O2 0.227634 0.220914 0.140237
O O3 0.036557 0.110743 0.122140
O O4 0.250000 0.000000 0.135214
O O5 0.570140 0.179308 0.472475
O O6 0.701809 0.097350 0.582658
O O7 0.500000 0.000000 0.500000
O O8 0.583167 0.827731 0.650510
#
# Coordination Sequence:
#
# PCOD9510596 Si02
#       4
#    16  16   8  16
#     4  11  25  47  75 108 156 208 264 324 415 490
#     4  12  26  44  79 109 153 202 269 330 418 485
#     4  12  26  45  77 108 152 198 260 340 402 485
#     4  11  26  50  72 109 157 204 269 331 409 497
#
# _framework density 25.374303000000001
#
# number of rings (size 3 to 8) (size 9 to 14) (size 15 to 20)
#    0.000    0.571    2.857    3.429    8.000    4.571 
#    5.143    0.000    0.000    0.000    0.000    0.000 
#    0.000    0.000    0.000    0.000    0.000    0.000 
#
# Total GULP energy -156151.360216 kJ/mol
# GULP energy per Si atom -5576.834293 kJ/mol
# Density = 2.531655 g / cm^3
# Si number density = 25.374303 Si / 1000 Ang^3
#
#
#
# Elastic Constant Matrix: (Units=GPa)
#
#
# Indices 1 2 3 4 5 6 
#
# 1 49.6451 -9.3642 47.7097 0.0000 0.0000 0.0000
# 2 -9.3642 121.9811 27.3846 0.0000 0.0000 0.0000
# 3 47.7097 27.3846 123.8450 0.0000 0.0000 0.0000
# 4 0.0000 0.0000 0.0000 -97.6314 0.0000 0.0000
# 5 0.0000 0.0000 0.0000 0.0000 535.0286 0.0000
# 6 0.0000 0.0000 0.0000 0.0000 0.0000 33.8156
#
#
#
# Elastic Compliance Matrix: (Units=1/GPa)
#
#
# Indices 1 2 3 4 5 6 
#
# 1 0.035913 0.006169 -0.015199 0.000000 0.000000 0.000000
# 2 0.006169 0.009686 -0.004518 0.000000 0.000000 0.000000
# 3 -0.015199 -0.004518 0.014929 0.000000 0.000000 0.000000
# 4 0.000000 0.000000 0.000000 -0.010243 0.000000 0.000000
# 5 0.000000 0.000000 0.000000 0.000000 0.001869 0.000000
# 6 0.000000 0.000000 0.000000 0.000000 0.000000 0.029572
#
#
# Mechanical properties :
#
#
# Convention : Reuss Voigt Hill
#
# Bulk Modulus (GPa) = 29.91196 47.43682 38.67439
# Shear Modulus (GPa) = 41.67788 109.55863 75.61826
#
# Velocity S-wave (km/s) = 4.05720 6.57805 5.46496
# Velocity P-wave (km/s) = 5.81048 8.74241 7.42265
#
# Compressibility (1/GPa) = 0.03343144
#
# Stress axis : x y z
#
# Youngs Moduli (GPa) = 27.84479 103.24227 66.98350
#
# Poissons Ratio (x) = -0.63692 1.01810
# Poissons Ratio (y) = -0.17178 0.30266
# Poissons Ratio (z) = 0.42322 0.46649
#
# Static dielectric constant tensor:
#      x y z
#    x 2.179240 0.000000 0.000000 
#    y 0.000000 1.868710 0.000000 
#    z 0.000000 0.000000 1.986900 
# 
# From -- ./inp_files/20112.got.cif
#   From: 2010.05.17/outbox.cif.g08.bks.cpg/sg68_11_cif.got.tgz:20112.got - 2010.06.03 18:57:09.
