data_PCOD9510201
_publ_section_title
;
Structure prediction by ZEFSAII (Michael W. Deem and Ramdas Pophale) SiO2 
 PCOD9510201
Probable space group: C C C A
;
_chemical_formula_sum "Si O2"
_cell_formula_units_Z 88
_cell_length_a 21.008243
_cell_length_b 14.786306
_cell_length_c 11.713459
_cell_angle_alpha 90.000000
_cell_angle_beta 90.000000
_cell_angle_gamma 90.000000
_cell_volume 3638.602249
_symmetry_space_group_name_H-M "C C C A"
_symmetry_group_IT_number 68
_space_group.IT_coordinate_system_code '2'
_symmetry_cell_setting 'orthorhombic'
loop_
_space_group_symop_operation_xyz
x,y,z
-x,1/2-y,z
x,1/2-y,1/2-z
-x,y,1/2-z
-x,-y,-z
x,1/2+y,-z
-x,1/2+y,1/2+z
x,-y,1/2+z
1/2+x,1/2+y,z
1/2-x,-y,z
1/2+x,-y,1/2-z
1/2-x,1/2+y,1/2-z
1/2-x,1/2-y,-z
1/2+x,y,-z
1/2-x,y,1/2+z
1/2+x,1/2-y,1/2+z
loop_
_atom_site_type_symbol
_atom_site_label
_atom_site_fract_x
_atom_site_fract_y
_atom_site_fract_z
Si Si1 0.117827 0.074121 0.866733
Si Si2 0.222064 0.324532 0.915331
Si Si3 0.912682 0.616397 0.805582
Si Si4 0.471697 0.348508 0.940221
Si Si5 0.250000 0.000000 0.958017
Si Si6 0.618707 0.750000 0.750000
Si Si7 0.317113 0.750000 0.250000
O O1 0.090582 0.156788 0.791270
O O2 0.108823 0.985205 0.790549
O O3 0.193498 0.059444 0.897224
O O4 0.077342 0.096637 0.981375
O O5 0.160531 0.281388 0.858181
O O6 0.274376 0.323285 0.814334
O O7 0.250000 0.250000 0.000000
O O8 0.214738 0.423329 0.967475
O O9 0.939982 0.655658 0.686634
O O10 0.858550 0.688720 0.835680
O O11 0.962420 0.603764 0.907842
O O12 0.500000 0.250000 0.978174
#
# Coordination Sequence:
#
# PCOD9510201 Si02
#       7
#    16  16  16  16   8   8   8
#     4  12  28  47  72 111 153 196 248 317 384 452
#     4  11  24  44  66 106 153 196 249 301 380 460
#     4  11  23  45  77 108 142 192 260 312 372 457
#     4  11  24  50  76 107 144 197 256 309 380 454
#     4  12  26  44  76 108 142 202 244 300 390 462
#     4  11  28  46  67 109 155 195 249 308 384 454
#     4  11  22  41  74 107 149 192 246 320 370 456
#
# _framework density 24.185110999999999
#
# number of rings (size 3 to 8) (size 9 to 14) (size 15 to 20)
#    0.000    0.727    3.636    3.273    7.636    1.455 
#    6.545    0.000    0.000    0.000    0.000    0.000 
#    0.000    0.000    0.000    0.000    0.000    0.000 
#
# Total GULP energy -245188.219125 kJ/mol
# GULP energy per Si atom -5572.459526 kJ/mol
# Density = 2.413007 g / cm^3
# Si number density = 24.185111 Si / 1000 Ang^3
#
#
#
# Elastic Constant Matrix: (Units=GPa)
#
#
# Indices 1 2 3 4 5 6 
#
# 1 52.3303 6.4904 5.0850 0.0000 0.0000 0.0000
# 2 6.4904 138.2342 10.0055 0.0000 0.0000 0.0000
# 3 5.0850 10.0055 53.2992 0.0000 0.0000 0.0000
# 4 0.0000 0.0000 0.0000 30.1154 0.0000 0.0000
# 5 0.0000 0.0000 0.0000 0.0000 36.9957 0.0000
# 6 0.0000 0.0000 0.0000 0.0000 0.0000 15.7583
#
#
#
# Elastic Compliance Matrix: (Units=1/GPa)
#
#
# Indices 1 2 3 4 5 6 
#
# 1 0.019372 -0.000786 -0.001701 0.000000 0.000000 0.000000
# 2 -0.000786 0.007366 -0.001308 0.000000 0.000000 0.000000
# 3 -0.001701 -0.001308 0.019170 0.000000 0.000000 0.000000
# 4 0.000000 0.000000 0.000000 0.033206 0.000000 0.000000
# 5 0.000000 0.000000 0.000000 0.000000 0.027030 0.000000
# 6 0.000000 0.000000 0.000000 0.000000 0.000000 0.063458
#
#
# Mechanical properties :
#
#
# Convention : Reuss Voigt Hill
#
# Bulk Modulus (GPa) = 26.09730 31.89174 28.99452
# Shear Modulus (GPa) = 26.32077 31.39273 28.85675
#
# Velocity S-wave (km/s) = 3.30253 3.60671 3.45796
# Velocity P-wave (km/s) = 5.03550 5.52808 5.28753
#
# Compressibility (1/GPa) = 0.03831814
#
# Stress axis : x y z
#
# Youngs Moduli (GPa) = 51.62038 135.76486 52.16562
#
# Poissons Ratio (x) = 0.10678 0.08871
# Poissons Ratio (y) = 0.04060 0.06822
# Poissons Ratio (z) = 0.08778 0.17754
#
# Static dielectric constant tensor:
#      x y z
#    x 2.119160 0.000000 0.000000 
#    y 0.000000 2.869780 0.000000 
#    z 0.000000 0.000000 1.904520 
# 
# From -- ./inp_files/16373.got.cif
#   From: 2010.05.17/outbox.cif.g08.bks.cpg/sg68_9_cif.got.tgz:16373.got - 2010.06.03 18:57:09.
