data_PCOD9510822
_publ_section_title
;
Structure prediction by ZEFSAII (Michael W. Deem and Ramdas Pophale) SiO2 
 PCOD9510822
Probable space group: C C C A
;
_chemical_formula_sum "Si O2"
_cell_formula_units_Z 48
_cell_length_a 9.213397
_cell_length_b 13.771310
_cell_length_c 14.583332
_cell_angle_alpha 90.000000
_cell_angle_beta 90.000000
_cell_angle_gamma 90.000000
_cell_volume 1850.341130
_symmetry_space_group_name_H-M "C C C A"
_symmetry_group_IT_number 68
_space_group.IT_coordinate_system_code '2'
_symmetry_cell_setting 'orthorhombic'
loop_
_space_group_symop_operation_xyz
x,y,z
-x,1/2-y,z
x,1/2-y,1/2-z
-x,y,1/2-z
-x,-y,-z
x,1/2+y,-z
-x,1/2+y,1/2+z
x,-y,1/2+z
1/2+x,1/2+y,z
1/2-x,-y,z
1/2+x,-y,1/2-z
1/2-x,1/2+y,1/2-z
1/2-x,1/2-y,-z
1/2+x,y,-z
1/2-x,y,1/2+z
1/2+x,1/2-y,1/2+z
loop_
_atom_site_type_symbol
_atom_site_label
_atom_site_fract_x
_atom_site_fract_y
_atom_site_fract_z
Si Si1 0.500000 0.750000 0.038937
Si Si2 0.766839 0.689653 0.665594
Si Si3 0.002004 0.578746 0.080210
Si Si4 0.500000 0.541580 0.250000
O O1 0.635175 0.765736 0.107355
O O2 0.431862 0.829942 0.971774
O O3 0.699578 0.750000 0.750000
O O4 0.651464 0.625673 0.610601
O O5 0.881188 0.610637 0.703945
O O6 0.063277 0.528157 0.170602
O O7 0.000000 0.500000 0.000000
#
# Coordination Sequence:
#
# PCOD9510822 Si02
#       4
#     8  16  16   8
#     4  12  25  49  76 116 156 208 278 334 424 494
#     4  12  24  51  81 113 159 214 273 346 408 505
#     4  12  28  48  75 116 158 213 269 337 421 497
#     4  12  25  49  76 114 156 206 276 336 418 482
#
# _framework density 25.941161999999998
#
# number of rings (size 3 to 8) (size 9 to 14) (size 15 to 20)
#    0.000    0.000    6.667    2.000    4.667    0.000 
#    6.000    0.000    0.000    0.000    0.000    0.000 
#    0.000    0.000    0.000    0.000    0.000    0.000 
#
# Total GULP energy -134290.402136 kJ/mol
# GULP energy per Si atom -5595.433422 kJ/mol
# Density = 2.588212 g / cm^3
# Si number density = 25.941162 Si / 1000 Ang^3
#
#
#
# Elastic Constant Matrix: (Units=GPa)
#
#
# Indices 1 2 3 4 5 6 
#
# 1 114.9330 7.5411 29.4076 0.0000 0.0000 0.0000
# 2 7.5411 117.0429 41.5233 0.0000 0.0000 0.0000
# 3 29.4076 41.5233 164.0366 0.0000 0.0000 0.0000
# 4 0.0000 0.0000 0.0000 73.1703 0.0000 0.0000
# 5 0.0000 0.0000 0.0000 0.0000 27.5677 0.0000
# 6 0.0000 0.0000 0.0000 0.0000 0.0000 43.0511
#
#
#
# Elastic Compliance Matrix: (Units=1/GPa)
#
#
# Indices 1 2 3 4 5 6 
#
# 1 0.009119 -0.000008 -0.001633 0.000000 0.000000 0.000000
# 2 -0.000008 0.009387 -0.002375 0.000000 0.000000 0.000000
# 3 -0.001633 -0.002375 0.006990 0.000000 0.000000 0.000000
# 4 0.000000 0.000000 0.000000 0.013667 0.000000 0.000000
# 5 0.000000 0.000000 0.000000 0.000000 0.036274 0.000000
# 6 0.000000 0.000000 0.000000 0.000000 0.000000 0.023228
#
#
# Mechanical properties :
#
#
# Convention : Reuss Voigt Hill
#
# Bulk Modulus (GPa) = 57.25877 61.43962 59.34919
# Shear Modulus (GPa) = 44.43732 49.92719 47.18226
#
# Velocity S-wave (km/s) = 4.14334 4.39182 4.26939
# Velocity P-wave (km/s) = 6.70896 7.03229 6.87253
#
# Compressibility (1/GPa) = 0.01746457
#
# Stress axis : x y z
#
# Youngs Moduli (GPa) = 109.66087 106.53183 143.06134
#
# Poissons Ratio (x) = 0.00088 0.23358
# Poissons Ratio (y) = 0.00091 0.33972
# Poissons Ratio (z) = 0.17904 0.25298
#
# Static dielectric constant tensor:
#      x y z
#    x 1.993070 0.000000 0.000000 
#    y 0.000000 1.967860 0.000000 
#    z 0.000000 0.000000 2.120410 
# 
# From -- ./inp_files/20045.got.cif
#   From: 2010.05.17/outbox.cif.g08.bks.cpg/sg68_11_cif.got.tgz:20045.got - 2010.06.03 18:57:09.
