data_PCOD9510184
_publ_section_title
;
Structure prediction by ZEFSAII (Michael W. Deem and Ramdas Pophale) SiO2 
 PCOD9510184
Probable space group: C C C A
;
_chemical_formula_sum "Si O2"
_cell_formula_units_Z 64
_cell_length_a 28.913335
_cell_length_b 7.679741
_cell_length_c 11.752546
_cell_angle_alpha 90.000000
_cell_angle_beta 90.000000
_cell_angle_gamma 90.000000
_cell_volume 2609.616691
_symmetry_space_group_name_H-M "C C C A"
_symmetry_group_IT_number 68
_space_group.IT_coordinate_system_code '2'
_symmetry_cell_setting 'orthorhombic'
loop_
_space_group_symop_operation_xyz
x,y,z
-x,1/2-y,z
x,1/2-y,1/2-z
-x,y,1/2-z
-x,-y,-z
x,1/2+y,-z
-x,1/2+y,1/2+z
x,-y,1/2+z
1/2+x,1/2+y,z
1/2-x,-y,z
1/2+x,-y,1/2-z
1/2-x,1/2+y,1/2-z
1/2-x,1/2-y,-z
1/2+x,y,-z
1/2-x,y,1/2+z
1/2+x,1/2-y,1/2+z
loop_
_atom_site_type_symbol
_atom_site_label
_atom_site_fract_x
_atom_site_fract_y
_atom_site_fract_z
Si Si1 0.165232 0.025995 0.104481
Si Si2 0.102200 0.664729 0.575351
Si Si3 0.250000 0.000000 0.931938
Si Si4 0.965452 0.112838 0.575254
Si Si5 0.217962 0.750000 0.250000
O O1 0.185899 0.907957 0.205387
O O2 0.140687 0.209599 0.131001
O O3 0.127478 0.918456 0.033590
O O4 0.206538 0.035055 0.012460
O O5 0.072512 0.512060 0.638338
O O6 0.064187 0.786697 0.519022
O O7 0.249407 0.167629 0.848815
O O8 0.000000 0.250000 0.634354
O O9 0.000000 0.000000 0.500000
#
# Coordination Sequence:
#
# PCOD9510184 Si02
#       5
#    16  16   8  16   8
#     4  11  22  41  57  89 129 168 223 281 333 398
#     4   9  18  32  57  85 133 159 204 279 317 386
#     4  12  26  42  62  86 126 170 230 292 336 406
#     4   8  14  28  54  91 122 156 209 250 317 407
#     4  12  26  40  64  86 119 182 229 278 360 404
#
# _framework density 24.524675999999999
#
# number of rings (size 3 to 8) (size 9 to 14) (size 15 to 20)
#    0.000    2.000    2.500    1.500    3.500    0.000 
#    0.000    0.000    0.000    0.000    0.000   21.875 
#   22.500    0.000    0.000    0.000    0.000    6.500 
#
# Total GULP energy -178548.829548 kJ/mol
# GULP energy per Si atom -5579.650923 kJ/mol
# Density = 2.446886 g / cm^3
# Si number density = 24.524676 Si / 1000 Ang^3
#
#
#
# Elastic Constant Matrix: (Units=GPa)
#
#
# Indices 1 2 3 4 5 6 
#
# 1 165.7331 81.1238 43.1563 0.0000 0.0000 0.0000
# 2 81.1238 156.5631 50.4085 0.0000 0.0000 0.0000
# 3 43.1563 50.4085 86.3436 0.0000 0.0000 0.0000
# 4 0.0000 0.0000 0.0000 39.7583 0.0000 0.0000
# 5 0.0000 0.0000 0.0000 0.0000 -51.6749 0.0000
# 6 0.0000 0.0000 0.0000 0.0000 0.0000 34.9827
#
#
#
# Elastic Compliance Matrix: (Units=1/GPa)
#
#
# Indices 1 2 3 4 5 6 
#
# 1 0.008364 -0.003680 -0.002032 0.000000 0.000000 0.000000
# 2 -0.003680 0.009484 -0.003698 0.000000 0.000000 0.000000
# 3 -0.002032 -0.003698 0.014756 0.000000 0.000000 0.000000
# 4 0.000000 0.000000 0.000000 0.025152 0.000000 0.000000
# 5 0.000000 0.000000 0.000000 0.000000 -0.019352 0.000000
# 6 0.000000 0.000000 0.000000 0.000000 0.000000 0.028586
#
#
# Mechanical properties :
#
#
# Convention : Reuss Voigt Hill
#
# Bulk Modulus (GPa) = 72.54234 84.22409 78.38321
# Shear Modulus (GPa) = 55.30636 20.20999 37.75818
#
# Velocity S-wave (km/s) = 4.75397 2.87377 3.92803
# Velocity P-wave (km/s) = 7.73157 6.74007 7.25279
#
# Compressibility (1/GPa) = 0.01378505
#
# Stress axis : x y z
#
# Youngs Moduli (GPa) = 119.55867 105.43629 67.76718
#
# Poissons Ratio (x) = 0.38795 0.13773
# Poissons Ratio (y) = 0.43992 0.25060
# Poissons Ratio (z) = 0.24299 0.38990
#
# Static dielectric constant tensor:
#      x y z
#    x 1.951750 0.000000 0.000000 
#    y 0.000000 2.088520 0.000000 
#    z 0.000000 0.000000 1.882700 
# 
# From -- ./inp_files/10775.got.cif
#   From: 2010.05.17/outbox.cif.g08.bks.cpg/sg68_6_cif.got.tgz:10775.got - 2010.06.03 18:57:09.
