data_PCOD9510860
_publ_section_title
;
Structure prediction by ZEFSAII (Michael W. Deem and Ramdas Pophale) SiO2 
 PCOD9510860
Probable space group: C C C A
;
_chemical_formula_sum "Si O2"
_cell_formula_units_Z 88
_cell_length_a 11.918006
_cell_length_b 27.588526
_cell_length_c 13.852814
_cell_angle_alpha 90.000000
_cell_angle_beta 90.000000
_cell_angle_gamma 90.000000
_cell_volume 4554.808269
_symmetry_space_group_name_H-M "C C C A"
_symmetry_group_IT_number 68
_space_group.IT_coordinate_system_code '2'
_symmetry_cell_setting 'orthorhombic'
loop_
_space_group_symop_operation_xyz
x,y,z
-x,1/2-y,z
x,1/2-y,1/2-z
-x,y,1/2-z
-x,-y,-z
x,1/2+y,-z
-x,1/2+y,1/2+z
x,-y,1/2+z
1/2+x,1/2+y,z
1/2-x,-y,z
1/2+x,-y,1/2-z
1/2-x,1/2+y,1/2-z
1/2-x,1/2-y,-z
1/2+x,y,-z
1/2-x,y,1/2+z
1/2+x,1/2-y,1/2+z
loop_
_atom_site_type_symbol
_atom_site_label
_atom_site_fract_x
_atom_site_fract_y
_atom_site_fract_z
Si Si1 0.997974 0.142790 0.415168
Si Si2 0.624654 0.064867 0.229605
Si Si3 0.687285 0.250000 0.750000
Si Si4 0.582230 0.953810 0.510966
Si Si5 0.312178 0.144862 0.755055
Si Si6 0.250000 0.500000 0.872106
Si Si7 0.500000 0.250000 0.584137
O O1 0.979583 0.096548 0.483295
O O2 0.897933 0.142037 0.335251
O O3 0.997453 0.196621 0.463919
O O4 0.111007 0.139110 0.350929
O O5 0.500000 0.083276 0.250000
O O6 0.719321 0.104348 0.246873
O O7 0.654718 0.022035 0.303340
O O8 0.626069 0.047743 0.119663
O O9 0.744586 0.301969 0.752111
O O10 0.606032 0.249327 0.656670
O O11 0.500000 0.000000 0.500000
O O12 0.687531 0.961582 0.439951
#
# Coordination Sequence:
#
# PCOD9510860 Si02
#       7
#    16  16   8  16  16   8   8
#     4   9  18  35  64  94 116 154 209 261 314 351
#     4  12  26  41  61  88 125 164 208 247 310 378
#     4   7  12  28  57  92 112 150 203 251 310 352
#     4  12  26  41  62  90 124 162 206 257 319 375
#     4   9  18  35  64  89 120 157 204 261 304 362
#     4  12  26  46  62  86 120 166 210 266 306 374
#     4   7  12  28  58  92 117 140 202 272 297 352
#
# _framework density 19.320242
#
# number of rings (size 3 to 8) (size 9 to 14) (size 15 to 20)
#    0.000    2.000    3.636    2.727    5.091    0.000 
#    0.000    0.455    4.000    3.273    0.000    0.000 
#    0.000    0.000    0.000    0.000    0.000    0.000 
#
# Total GULP energy -245326.849650 kJ/mol
# GULP energy per Si atom -5575.610219 kJ/mol
# Density = 1.927627 g / cm^3
# Si number density = 19.320242 Si / 1000 Ang^3
#
#
#
# Elastic Constant Matrix: (Units=GPa)
#
#
# Indices 1 2 3 4 5 6 
#
# 1 67.2269 21.5189 16.0585 0.0000 0.0000 0.0000
# 2 21.5189 114.2969 34.9691 0.0000 0.0000 0.0000
# 3 16.0585 34.9691 83.9654 0.0000 0.0000 0.0000
# 4 0.0000 0.0000 0.0000 15.5805 0.0000 0.0000
# 5 0.0000 0.0000 0.0000 0.0000 18.7933 0.0000
# 6 0.0000 0.0000 0.0000 0.0000 0.0000 25.0360
#
#
#
# Elastic Compliance Matrix: (Units=1/GPa)
#
#
# Indices 1 2 3 4 5 6 
#
# 1 0.016142 -0.002400 -0.002087 0.000000 0.000000 0.000000
# 2 -0.002400 0.010384 -0.003865 0.000000 0.000000 0.000000
# 3 -0.002087 -0.003865 0.013919 0.000000 0.000000 0.000000
# 4 0.000000 0.000000 0.000000 0.064183 0.000000 0.000000
# 5 0.000000 0.000000 0.000000 0.000000 0.053210 0.000000
# 6 0.000000 0.000000 0.000000 0.000000 0.000000 0.039942
#
#
# Mechanical properties :
#
#
# Convention : Reuss Voigt Hill
#
# Bulk Modulus (GPa) = 42.12689 45.62023 43.87356
# Shear Modulus (GPa) = 22.48211 24.74483 23.61347
#
# Velocity S-wave (km/s) = 3.41494 3.58267 3.49981
# Velocity P-wave (km/s) = 6.11563 6.38576 6.25216
#
# Compressibility (1/GPa) = 0.02373781
#
# Stress axis : x y z
#
# Youngs Moduli (GPa) = 61.95019 96.30479 71.84570
#
# Poissons Ratio (x) = 0.23117 0.14998
# Poissons Ratio (y) = 0.14871 0.27771
# Poissons Ratio (z) = 0.12932 0.37226
#
# Static dielectric constant tensor:
#      x y z
#    x 1.662140 0.000000 0.000000 
#    y 0.000000 1.722970 0.000000 
#    z 0.000000 0.000000 1.663730 
# 
# From -- ./inp_files/12114.got.cif
#   From: 2010.05.17/outbox.cif.g08.bks.cpg/sg68_7_cif.got.tgz:12114.got - 2010.06.03 18:57:09.
