data_PCOD9510599
_publ_section_title
;
Structure prediction by ZEFSAII (Michael W. Deem and Ramdas Pophale) SiO2 
 PCOD9510599
Probable space group: C C C A
;
_chemical_formula_sum "Si O2"
_cell_formula_units_Z 64
_cell_length_a 8.128225
_cell_length_b 30.976217
_cell_length_c 9.670592
_cell_angle_alpha 90.000000
_cell_angle_beta 90.000000
_cell_angle_gamma 90.000000
_cell_volume 2434.877721
_symmetry_space_group_name_H-M "C C C A"
_symmetry_group_IT_number 68
_space_group.IT_coordinate_system_code '2'
_symmetry_cell_setting 'orthorhombic'
loop_
_space_group_symop_operation_xyz
x,y,z
-x,1/2-y,z
x,1/2-y,1/2-z
-x,y,1/2-z
-x,-y,-z
x,1/2+y,-z
-x,1/2+y,1/2+z
x,-y,1/2+z
1/2+x,1/2+y,z
1/2-x,-y,z
1/2+x,-y,1/2-z
1/2-x,1/2+y,1/2-z
1/2-x,1/2-y,-z
1/2+x,y,-z
1/2-x,y,1/2+z
1/2+x,1/2-y,1/2+z
loop_
_atom_site_type_symbol
_atom_site_label
_atom_site_fract_x
_atom_site_fract_y
_atom_site_fract_z
Si Si1 0.219032 0.423679 0.331905
Si Si2 0.629090 0.459270 0.928866
Si Si3 0.896224 0.294426 0.369357
Si Si4 0.657949 0.166998 0.329257
O O1 0.364763 0.447898 0.410472
O O2 0.217406 0.423977 0.167142
O O3 0.228808 0.373909 0.370409
O O4 0.060121 0.451937 0.382341
O O5 0.750000 0.500000 0.901664
O O6 0.725378 0.298636 0.285244
O O7 0.878425 0.311542 0.523154
O O8 0.000000 0.250000 0.384325
O O9 0.000000 0.319082 0.250000
O O10 0.500000 0.148035 0.250000
#
# Coordination Sequence:
#
# PCOD9510599 Si02
#       4
#    16  16  16  16
#     4  11  27  45  78 117 159 210 269 334 405 483
#     4  11  25  47  76 115 162 208 271 332 405 484
#     4  11  28  51  83 118 165 212 275 340 413 503
#     4  12  28  50  82 119 164 216 276 342 420 496
#
# _framework density 26.284687000000002
#
# number of rings (size 3 to 8) (size 9 to 14) (size 15 to 20)
#    0.000    0.750    0.000    4.500   14.000   11.500 
#    0.000    1.250    0.000    0.000    0.000    0.000 
#    0.000    0.000    0.000    0.000    0.000    0.000 
#
# Total GULP energy -178228.613819 kJ/mol
# GULP energy per Si atom -5569.644182 kJ/mol
# Density = 2.622486 g / cm^3
# Si number density = 26.284687 Si / 1000 Ang^3
#
#
#
# Elastic Constant Matrix: (Units=GPa)
#
#
# Indices 1 2 3 4 5 6 
#
# 1 90.1203 53.6050 37.4770 0.0000 0.0000 0.0000
# 2 53.6050 154.7607 45.8534 0.0000 0.0000 0.0000
# 3 37.4770 45.8534 197.4716 0.0000 0.0000 0.0000
# 4 0.0000 0.0000 0.0000 33.9911 0.0000 0.0000
# 5 0.0000 0.0000 0.0000 0.0000 31.9365 0.0000
# 6 0.0000 0.0000 0.0000 0.0000 0.0000 24.1090
#
#
#
# Elastic Compliance Matrix: (Units=1/GPa)
#
#
# Indices 1 2 3 4 5 6 
#
# 1 0.014489 -0.004515 -0.001702 0.000000 0.000000 0.000000
# 2 -0.004515 0.008346 -0.001081 0.000000 0.000000 0.000000
# 3 -0.001702 -0.001081 0.005638 0.000000 0.000000 0.000000
# 4 0.000000 0.000000 0.000000 0.029419 0.000000 0.000000
# 5 0.000000 0.000000 0.000000 0.000000 0.031312 0.000000
# 6 0.000000 0.000000 0.000000 0.000000 0.000000 0.041478
#
#
# Mechanical properties :
#
#
# Convention : Reuss Voigt Hill
#
# Bulk Modulus (GPa) = 72.05405 79.58039 75.81722
# Shear Modulus (GPa) = 33.35488 38.36847 35.86167
#
# Velocity S-wave (km/s) = 3.56615 3.82478 3.69773
# Velocity P-wave (km/s) = 6.66551 7.06026 6.86572
#
# Compressibility (1/GPa) = 0.01387847
#
# Stress axis : x y z
#
# Youngs Moduli (GPa) = 69.01703 119.82345 177.36862
#
# Poissons Ratio (x) = 0.54095 0.30180
# Poissons Ratio (y) = 0.31158 0.19175
# Poissons Ratio (z) = 0.11743 0.12954
#
# Static dielectric constant tensor:
#      x y z
#    x 2.608980 0.000000 0.000000 
#    y 0.000000 2.075170 0.000000 
#    z 0.000000 0.000000 2.046880 
# 
# From -- ./inp_files/10771.got.cif
#   From: 2010.05.17/outbox.cif.g08.bks.cpg/sg68_6_cif.got.tgz:10771.got - 2010.06.03 18:57:09.
