data_PCOD9510825
_publ_section_title
;
Structure prediction by ZEFSAII (Michael W. Deem and Ramdas Pophale) SiO2 
 PCOD9510825
Probable space group: C C C A
;
_chemical_formula_sum "Si O2"
_cell_formula_units_Z 56
_cell_length_a 5.525471
_cell_length_b 15.358043
_cell_length_c 28.327162
_cell_angle_alpha 90.000000
_cell_angle_beta 90.000000
_cell_angle_gamma 90.000000
_cell_volume 2403.854899
_symmetry_space_group_name_H-M "C C C A"
_symmetry_group_IT_number 68
_space_group.IT_coordinate_system_code '2'
_symmetry_cell_setting 'orthorhombic'
loop_
_space_group_symop_operation_xyz
x,y,z
-x,1/2-y,z
x,1/2-y,1/2-z
-x,y,1/2-z
-x,-y,-z
x,1/2+y,-z
-x,1/2+y,1/2+z
x,-y,1/2+z
1/2+x,1/2+y,z
1/2-x,-y,z
1/2+x,-y,1/2-z
1/2-x,1/2+y,1/2-z
1/2-x,1/2-y,-z
1/2+x,y,-z
1/2-x,y,1/2+z
1/2+x,1/2-y,1/2+z
loop_
_atom_site_type_symbol
_atom_site_label
_atom_site_fract_x
_atom_site_fract_y
_atom_site_fract_z
Si Si1 0.500000 0.909803 0.750000
Si Si2 0.750000 0.500000 0.665806
Si Si3 0.249896 0.802166 0.316437
Si Si4 0.111142 0.910040 0.901674
Si Si5 0.000000 0.750000 0.529587
O O1 0.730904 0.855156 0.732571
O O2 0.439294 0.961832 0.703073
O O3 0.617164 0.434886 0.630821
O O4 0.500000 0.750000 0.319876
O O5 0.225577 0.859131 0.363930
O O6 0.000000 0.750000 0.314839
O O7 0.025525 0.839441 0.940066
O O8 0.250000 0.000000 0.916973
O O9 0.250000 0.750000 0.500000
#
# Coordination Sequence:
#
# PCOD9510825 Si02
#       5
#     8   8  16  16   8
#     4  12  25  42  74 117 170 224 290 317 382 456
#     4  12  26  48  74 118 174 222 278 332 392 488
#     4  12  27  47  74 114 164 224 276 329 386 468
#     4  12  28  52  86 114 166 215 267 340 432 487
#     4  12  34  58  92 125 156 197 274 352 432 534
#
# _framework density 23.295914
#
# number of rings (size 3 to 8) (size 9 to 14) (size 15 to 20)
#    0.000    0.000    4.286    3.857    6.000    8.000 
#    0.000    0.000    0.000    0.000    0.000    0.000 
#    0.000    0.000    0.000    0.000    0.000    0.000 
#
# Total GULP energy -156519.390908 kJ/mol
# GULP energy per Si atom -5589.978247 kJ/mol
# Density = 2.324289 g / cm^3
# Si number density = 23.295914 Si / 1000 Ang^3
#
#
#
# Elastic Constant Matrix: (Units=GPa)
#
#
# Indices 1 2 3 4 5 6 
#
# 1 160.6477 81.2299 78.6874 0.0000 0.0000 0.0000
# 2 81.2299 150.3117 99.8022 0.0000 0.0000 0.0000
# 3 78.6874 99.8022 160.6011 0.0000 0.0000 0.0000
# 4 0.0000 0.0000 0.0000 79.2037 0.0000 0.0000
# 5 0.0000 0.0000 0.0000 0.0000 42.4724 0.0000
# 6 0.0000 0.0000 0.0000 0.0000 0.0000 46.2032
#
#
#
# Elastic Compliance Matrix: (Units=1/GPa)
#
#
# Indices 1 2 3 4 5 6 
#
# 1 0.009070 -0.003321 -0.002380 0.000000 0.000000 0.000000
# 2 -0.003321 0.012542 -0.006167 0.000000 0.000000 0.000000
# 3 -0.002380 -0.006167 0.011225 0.000000 0.000000 0.000000
# 4 0.000000 0.000000 0.000000 0.012626 0.000000 0.000000
# 5 0.000000 0.000000 0.000000 0.000000 0.023545 0.000000
# 6 0.000000 0.000000 0.000000 0.000000 0.000000 0.021644
#
#
# Mechanical properties :
#
#
# Convention : Reuss Voigt Hill
#
# Bulk Modulus (GPa) = 109.87792 110.11106 109.99449
# Shear Modulus (GPa) = 42.58189 47.69857 45.14023
#
# Velocity S-wave (km/s) = 4.28000 4.52985 4.40669
# Velocity P-wave (km/s) = 8.46718 8.64455 8.55632
#
# Compressibility (1/GPa) = 0.00910101
#
# Stress axis : x y z
#
# Youngs Moduli (GPa) = 110.25509 79.73021 89.08741
#
# Poissons Ratio (x) = 0.26481 0.21202
# Poissons Ratio (y) = 0.36619 0.54939
# Poissons Ratio (z) = 0.26240 0.49169
#
# Static dielectric constant tensor:
#      x y z
#    x 2.060970 0.000000 0.000000 
#    y 0.000000 2.196470 0.000000 
#    z 0.000000 0.000000 1.807230 
# 
# From -- ./inp_files/52801.got.cif
#   From: 2010.05.17/outbox.cif.g08.bks.cpg/sg68_27_cif.got.tgz:52801.got - 2010.06.03 18:57:09.
