data_PCOD9510093
_publ_section_title
;
Structure prediction by ZEFSAII (Michael W. Deem and Ramdas Pophale) SiO2 
 PCOD9510093
Probable space group: C C C A
;
_chemical_formula_sum "Si O2"
_cell_formula_units_Z 60
_cell_length_a 8.061908
_cell_length_b 14.501029
_cell_length_c 20.764707
_cell_angle_alpha 90.000000
_cell_angle_beta 90.000000
_cell_angle_gamma 90.000000
_cell_volume 2427.518041
_symmetry_space_group_name_H-M "C C C A"
_symmetry_group_IT_number 68
_space_group.IT_coordinate_system_code '2'
_symmetry_cell_setting 'orthorhombic'
loop_
_space_group_symop_operation_xyz
x,y,z
-x,1/2-y,z
x,1/2-y,1/2-z
-x,y,1/2-z
-x,-y,-z
x,1/2+y,-z
-x,1/2+y,1/2+z
x,-y,1/2+z
1/2+x,1/2+y,z
1/2-x,-y,z
1/2+x,-y,1/2-z
1/2-x,1/2+y,1/2-z
1/2-x,1/2-y,-z
1/2+x,y,-z
1/2-x,y,1/2+z
1/2+x,1/2-y,1/2+z
loop_
_atom_site_type_symbol
_atom_site_label
_atom_site_fract_x
_atom_site_fract_y
_atom_site_fract_z
Si Si1 0.716203 0.901650 0.964431
Si Si2 0.398874 0.575847 0.824405
Si Si3 0.433761 0.157728 0.912453
Si Si4 0.500000 0.250000 0.250000
Si Si5 0.250000 0.500000 0.163332
O O1 0.596386 0.909267 0.902713
O O2 0.892699 0.885753 0.932525
O O3 0.750000 0.000000 0.998427
O O4 0.656257 0.831591 0.018542
O O5 0.250000 0.500000 0.814239
O O6 0.390344 0.678671 0.793276
O O7 0.580011 0.536546 0.805559
O O8 0.500000 0.250000 0.879251
O O9 0.319559 0.090946 0.872030
#
# Coordination Sequence:
#
# PCOD9510093 Si02
#       5
#    16  16  16   4   8
#     4  11  21  43  65 102 155 190 240 293 363 437
#     4  11  27  51  76 108 144 192 251 320 376 445
#     4  12  24  37  68 113 152 201 237 286 357 461
#     4  12  32  52  86 106 140 198 264 324 398 436
#     4  12  24  46  76 106 158 192 236 302 378 446
#
# _framework density 24.716602999999999
#
# number of rings (size 3 to 8) (size 9 to 14) (size 15 to 20)
#    0.000    0.533    6.667    3.200    7.467    0.000 
#    0.000    1.333    0.000    0.000    0.000    0.000 
#    0.000    0.000    0.000    0.000    0.000    0.000 
#
# Total GULP energy -167365.126648 kJ/mol
# GULP energy per Si atom -5578.837555 kJ/mol
# Density = 2.466035 g / cm^3
# Si number density = 24.716603 Si / 1000 Ang^3
#
#
#
# Elastic Constant Matrix: (Units=GPa)
#
#
# Indices 1 2 3 4 5 6 
#
# 1 175.0667 62.4032 46.2466 0.0000 0.0000 0.0000
# 2 62.4032 176.5802 57.0250 0.0000 0.0000 0.0000
# 3 46.2466 57.0250 80.9251 0.0000 0.0000 0.0000
# 4 0.0000 0.0000 0.0000 -257.8029 0.0000 0.0000
# 5 0.0000 0.0000 0.0000 0.0000 131.9139 0.0000
# 6 0.0000 0.0000 0.0000 0.0000 0.0000 47.6455
#
#
#
# Elastic Compliance Matrix: (Units=1/GPa)
#
#
# Indices 1 2 3 4 5 6 
#
# 1 0.007036 -0.001538 -0.002937 0.000000 0.000000 0.000000
# 2 -0.001538 0.007668 -0.004524 0.000000 0.000000 0.000000
# 3 -0.002937 -0.004524 0.017224 0.000000 0.000000 0.000000
# 4 0.000000 0.000000 0.000000 -0.003879 0.000000 0.000000
# 5 0.000000 0.000000 0.000000 0.000000 0.007581 0.000000
# 6 0.000000 0.000000 0.000000 0.000000 0.000000 0.020988
#
#
# Mechanical properties :
#
#
# Convention : Reuss Voigt Hill
#
# Bulk Modulus (GPa) = 71.79417 84.88016 78.33716
# Shear Modulus (GPa) = 63.08370 2.14445 32.61408
#
# Velocity S-wave (km/s) = 5.05749 0.93247 3.63646
# Velocity P-wave (km/s) = 7.95074 5.96450 7.02814
#
# Compressibility (1/GPa) = 0.01392871
#
# Stress axis : x y z
#
# Youngs Moduli (GPa) = 142.12076 130.41627 58.05950
#
# Poissons Ratio (x) = 0.20059 0.17053
# Poissons Ratio (y) = 0.21859 0.26267
# Poissons Ratio (z) = 0.41744 0.59003
#
# Static dielectric constant tensor:
#      x y z
#    x 1.789320 0.000000 0.000000 
#    y 0.000000 -1.871480 0.000000 
#    z 0.000000 0.000000 2.175680 
# 
# From -- ./inp_files/42689.got.cif
#   From: 2010.05.17/outbox.cif.g08.bks.cpg/sg68_22_cif.got.tgz:42689.got - 2010.06.03 18:57:09.
