data_PCOD9510570
_publ_section_title
;
Structure prediction by ZEFSAII (Michael W. Deem and Ramdas Pophale) SiO2 
 PCOD9510570
Probable space group: C C C A
;
_chemical_formula_sum "Si O2"
_cell_formula_units_Z 56
_cell_length_a 26.300415
_cell_length_b 5.389551
_cell_length_c 17.849426
_cell_angle_alpha 90.000000
_cell_angle_beta 90.000000
_cell_angle_gamma 90.000000
_cell_volume 2530.110226
_symmetry_space_group_name_H-M "C C C A"
_symmetry_group_IT_number 68
_space_group.IT_coordinate_system_code '2'
_symmetry_cell_setting 'orthorhombic'
loop_
_space_group_symop_operation_xyz
x,y,z
-x,1/2-y,z
x,1/2-y,1/2-z
-x,y,1/2-z
-x,-y,-z
x,1/2+y,-z
-x,1/2+y,1/2+z
x,-y,1/2+z
1/2+x,1/2+y,z
1/2-x,-y,z
1/2+x,-y,1/2-z
1/2-x,1/2+y,1/2-z
1/2-x,1/2-y,-z
1/2+x,y,-z
1/2-x,y,1/2+z
1/2+x,1/2-y,1/2+z
loop_
_atom_site_type_symbol
_atom_site_label
_atom_site_fract_x
_atom_site_fract_y
_atom_site_fract_z
Si Si1 0.634686 0.682507 0.047442
Si Si2 0.198335 0.109545 0.325291
Si Si3 0.443393 0.358824 0.828935
Si Si4 0.114962 0.750000 0.250000
O O1 0.674865 0.704111 0.114748
O O2 0.582015 0.706809 0.092863
O O3 0.639772 0.422701 0.005147
O O4 0.213703 0.250000 0.250000
O O5 0.250000 0.000000 0.357832
O O6 0.154675 0.915725 0.299103
O O7 0.500000 0.250000 0.830585
O O8 0.421611 0.250000 0.750000
O O9 0.424878 0.638687 0.811597
#
# Coordination Sequence:
#
# PCOD9510570 Si02
#       4
#    16  16  16   8
#     4  12  27  48  72 106 160 203 243 308 383 461
#     4  12  25  44  78 110 141 200 257 314 375 446
#     4  11  25  45  74 109 135 195 255 317 371 441
#     4  12  20  47  76 106 150 178 257 324 372 434
#
# _framework density 22.133424000000002
#
# number of rings (size 3 to 8) (size 9 to 14) (size 15 to 20)
#    0.000    0.286    7.143    1.714    0.000    4.571 
#    0.000    0.000    0.000    0.000    0.000    0.000 
#    0.000    0.000    0.000    0.000    0.000    0.000 
#
# Total GULP energy -156123.053098 kJ/mol
# GULP energy per Si atom -5575.823325 kJ/mol
# Density = 2.208305 g / cm^3
# Si number density = 22.133424 Si / 1000 Ang^3
#
#
#
# Elastic Constant Matrix: (Units=GPa)
#
#
# Indices 1 2 3 4 5 6 
#
# 1 112.6641 14.7360 -10.4842 0.0000 0.0000 0.0000
# 2 14.7360 64.4391 11.2965 0.0000 0.0000 0.0000
# 3 -10.4842 11.2965 79.6311 0.0000 0.0000 0.0000
# 4 0.0000 0.0000 0.0000 50.7035 0.0000 0.0000
# 5 0.0000 0.0000 0.0000 0.0000 -56.4659 0.0000
# 6 0.0000 0.0000 0.0000 0.0000 0.0000 21.3927
#
#
#
# Elastic Compliance Matrix: (Units=1/GPa)
#
#
# Indices 1 2 3 4 5 6 
#
# 1 0.009337 -0.002411 0.001571 0.000000 0.000000 0.000000
# 2 -0.002411 0.016537 -0.002663 0.000000 0.000000 0.000000
# 3 0.001571 -0.002663 0.013143 0.000000 0.000000 0.000000
# 4 0.000000 0.000000 0.000000 0.019723 0.000000 0.000000
# 5 0.000000 0.000000 0.000000 0.000000 -0.017710 0.000000
# 6 0.000000 0.000000 0.000000 0.000000 0.000000 0.046745
#
#
# Mechanical properties :
#
#
# Convention : Reuss Voigt Hill
#
# Bulk Modulus (GPa) = 31.23892 31.98123 31.61007
# Shear Modulus (GPa) = 47.41566 19.20512 33.31039
#
# Velocity S-wave (km/s) = 4.63348 2.94887 3.88362
# Velocity P-wave (km/s) = 6.53988 5.10638 5.86708
#
# Compressibility (1/GPa) = 0.03201135
#
# Stress axis : x y z
#
# Youngs Moduli (GPa) = 107.09521 60.47151 76.08842
#
# Poissons Ratio (x) = 0.14578 -0.11956
# Poissons Ratio (y) = 0.25818 0.20265
# Poissons Ratio (z) = -0.16829 0.16105
#
# Static dielectric constant tensor:
#      x y z
#    x 1.819130 0.000000 0.000000 
#    y 0.000000 2.206610 0.000000 
#    z 0.000000 0.000000 1.790100 
# 
# From -- ./inp_files/26219.got.cif
#   From: 2010.05.17/outbox.cif.g08.bks.cpg/sg68_14_cif.got.tgz:26219.got - 2010.06.03 18:57:09.
