data_PCOD9510723
_publ_section_title
;
Structure prediction by ZEFSAII (Michael W. Deem and Ramdas Pophale) SiO2 
 PCOD9510723
Probable space group: C C C A
;
_chemical_formula_sum "Si O2"
_cell_formula_units_Z 92
_cell_length_a 21.046698
_cell_length_b 9.088856
_cell_length_c 21.416502
_cell_angle_alpha 90.000000
_cell_angle_beta 90.000000
_cell_angle_gamma 90.000000
_cell_volume 4096.771393
_symmetry_space_group_name_H-M "C C C A"
_symmetry_group_IT_number 68
_space_group.IT_coordinate_system_code '2'
_symmetry_cell_setting 'orthorhombic'
loop_
_space_group_symop_operation_xyz
x,y,z
-x,1/2-y,z
x,1/2-y,1/2-z
-x,y,1/2-z
-x,-y,-z
x,1/2+y,-z
-x,1/2+y,1/2+z
x,-y,1/2+z
1/2+x,1/2+y,z
1/2-x,-y,z
1/2+x,-y,1/2-z
1/2-x,1/2+y,1/2-z
1/2-x,1/2-y,-z
1/2+x,y,-z
1/2-x,y,1/2+z
1/2+x,1/2-y,1/2+z
loop_
_atom_site_type_symbol
_atom_site_label
_atom_site_fract_x
_atom_site_fract_y
_atom_site_fract_z
Si Si1 0.410585 0.787167 0.583711
Si Si2 0.738019 0.825170 0.933109
Si Si3 0.500000 0.250000 0.250000
Si Si4 0.171932 0.225869 0.319543
Si Si5 0.500000 0.250000 0.525548
Si Si6 0.053571 0.916669 0.639589
Si Si7 0.925861 0.477378 0.832520
O O1 0.335906 0.802348 0.579707
O O2 0.448534 0.821815 0.520505
O O3 0.424909 0.619712 0.604232
O O4 0.433402 0.909254 0.633075
O O5 0.780461 0.757452 0.876860
O O6 0.750000 0.000000 0.936299
O O7 0.750000 0.750000 0.000000
O O8 0.549844 0.140630 0.216603
O O9 0.199472 0.250000 0.250000
O O10 0.112785 0.339637 0.327731
O O11 0.139358 0.064725 0.323872
O O12 0.542632 0.350868 0.570576
O O13 0.983163 0.905600 0.667757
#
# Coordination Sequence:
#
# PCOD9510723 Si02
#       7
#    16  16   4  16   8  16  16
#     4  12  26  44  70 108 149 195 251 316 380 449
#     4  12  30  52  80 110 154 206 264 320 381 460
#     4  12  22  44  70 112 148 198 238 324 392 464
#     4  12  28  52  77 110 157 206 258 317 391 463
#     4  12  23  38  77 111 156 191 252 320 392 458
#     4  12  22  44  71 115 147 193 248 317 385 453
#     4  12  25  43  74 111 148 192 255 308 390 459
#
# _framework density 22.456707999999999
#
# number of rings (size 3 to 8) (size 9 to 14) (size 15 to 20)
#    0.000    0.000    6.957    2.609    2.435    0.696 
#    4.696    0.000    0.000    0.000    0.000    0.000 
#    0.000    0.000    0.000    0.000    0.000    0.000 
#
# Total GULP energy -257100.307503 kJ/mol
# GULP energy per Si atom -5589.137120 kJ/mol
# Density = 2.240560 g / cm^3
# Si number density = 22.456708 Si / 1000 Ang^3
#
#
#
# Elastic Constant Matrix: (Units=GPa)
#
#
# Indices 1 2 3 4 5 6 
#
# 1 141.0168 24.5379 45.9653 0.0000 0.0000 0.0000
# 2 24.5379 108.7850 44.2424 0.0000 0.0000 0.0000
# 3 45.9653 44.2424 139.6975 0.0000 0.0000 0.0000
# 4 0.0000 0.0000 0.0000 20.4302 0.0000 0.0000
# 5 0.0000 0.0000 0.0000 0.0000 30.9921 0.0000
# 6 0.0000 0.0000 0.0000 0.0000 0.0000 29.2827
#
#
#
# Elastic Compliance Matrix: (Units=1/GPa)
#
#
# Indices 1 2 3 4 5 6 
#
# 1 0.008010 -0.000844 -0.002368 0.000000 0.000000 0.000000
# 2 -0.000844 0.010640 -0.003092 0.000000 0.000000 0.000000
# 3 -0.002368 -0.003092 0.008917 0.000000 0.000000 0.000000
# 4 0.000000 0.000000 0.000000 0.048947 0.000000 0.000000
# 5 0.000000 0.000000 0.000000 0.000000 0.032266 0.000000
# 6 0.000000 0.000000 0.000000 0.000000 0.000000 0.034150
#
#
# Mechanical properties :
#
#
# Convention : Reuss Voigt Hill
#
# Bulk Modulus (GPa) = 66.84983 68.77672 67.81328
# Shear Modulus (GPa) = 31.14767 34.45791 32.80279
#
# Velocity S-wave (km/s) = 3.72830 3.92141 3.82607
# Velocity P-wave (km/s) = 6.95461 7.15515 7.05559
#
# Compressibility (1/GPa) = 0.01495890
#
# Stress axis : x y z
#
# Youngs Moduli (GPa) = 124.84159 93.98214 112.14595
#
# Poissons Ratio (x) = 0.07928 0.26561
# Poissons Ratio (y) = 0.10531 0.34678
# Poissons Ratio (z) = 0.29568 0.29062
#
# Static dielectric constant tensor:
#      x y z
#    x 1.824440 0.000000 0.000000 
#    y 0.000000 1.884610 0.000000 
#    z 0.000000 0.000000 1.935090 
# 
# From -- ./inp_files/40783.got.cif
#   From: 2010.05.17/outbox.cif.g08.bks.cpg/sg68_21_cif.got.tgz:40783.got - 2010.06.03 18:57:09.
