data_PCOD9510731
_publ_section_title
;
Structure prediction by ZEFSAII (Michael W. Deem and Ramdas Pophale) SiO2 
 PCOD9510731
Probable space group: C C C A
;
_chemical_formula_sum "Si O2"
_cell_formula_units_Z 68
_cell_length_a 5.397342
_cell_length_b 18.556422
_cell_length_c 30.874814
_cell_angle_alpha 90.000000
_cell_angle_beta 90.000000
_cell_angle_gamma 90.000000
_cell_volume 3092.277982
_symmetry_space_group_name_H-M "C C C A"
_symmetry_group_IT_number 68
_space_group.IT_coordinate_system_code '2'
_symmetry_cell_setting 'orthorhombic'
loop_
_space_group_symop_operation_xyz
x,y,z
-x,1/2-y,z
x,1/2-y,1/2-z
-x,y,1/2-z
-x,-y,-z
x,1/2+y,-z
-x,1/2+y,1/2+z
x,-y,1/2+z
1/2+x,1/2+y,z
1/2-x,-y,z
1/2+x,-y,1/2-z
1/2-x,1/2+y,1/2-z
1/2-x,1/2-y,-z
1/2+x,y,-z
1/2-x,y,1/2+z
1/2+x,1/2-y,1/2+z
loop_
_atom_site_type_symbol
_atom_site_label
_atom_site_fract_x
_atom_site_fract_y
_atom_site_fract_z
Si Si1 0.250000 0.500000 0.277847
Si Si2 0.500000 0.750000 0.368083
Si Si3 0.607712 0.854857 0.823183
Si Si4 0.834979 0.634741 0.411292
Si Si5 0.000000 0.250000 0.527682
Si Si6 0.500000 0.250000 0.250000
Si Si7 0.750000 0.500000 0.471096
O O1 0.500000 0.501265 0.250000
O O2 0.261416 0.425435 0.304306
O O3 0.694575 0.795137 0.339313
O O4 0.624970 0.691261 0.398597
O O5 0.457811 0.881344 0.865091
O O6 0.442975 0.812985 0.786889
O O7 0.016990 0.680182 0.441791
O O8 0.745445 0.568312 0.439236
O O9 0.250000 0.250000 0.500000
O O10 0.500000 0.500000 0.500000
#
# Coordination Sequence:
#
# PCOD9510731 Si02
#       7
#     8   8  16  16   8   4   8
#     4  12  32  52  76 114 160 210 268 324 396 462
#     4  12  25  47  80 112 152 216 254 330 390 468
#     4  12  28  48  79 111 162 207 264 330 388 476
#     4  12  27  50  75 115 156 204 263 321 404 464
#     4  12  24  44  76 108 146 191 249 316 375 461
#     4  12  22  54  68 118 158 206 276 320 396 460
#     4  12  32  54  82 118 160 210 264 334 410 490
#
# _framework density 21.990261
#
# number of rings (size 3 to 8) (size 9 to 14) (size 15 to 20)
#    0.000    0.000    5.882    2.118   13.176    0.000 
#    0.000    0.000    0.000    0.000    0.000    0.000 
#    0.000    0.000    0.000    0.000    0.000    0.000 
#
# Total GULP energy -189776.733457 kJ/mol
# GULP energy per Si atom -5581.668631 kJ/mol
# Density = 2.194021 g / cm^3
# Si number density = 21.990261 Si / 1000 Ang^3
#
#
#
# Elastic Constant Matrix: (Units=GPa)
#
#
# Indices 1 2 3 4 5 6 
#
# 1 120.7319 47.3340 71.8128 0.0000 0.0000 0.0000
# 2 47.3340 185.9949 86.2891 0.0000 0.0000 0.0000
# 3 71.8128 86.2891 168.8566 0.0000 0.0000 0.0000
# 4 0.0000 0.0000 0.0000 714.5123 0.0000 0.0000
# 5 0.0000 0.0000 0.0000 0.0000 -935.6750 0.0000
# 6 0.0000 0.0000 0.0000 0.0000 0.0000 27.9783
#
#
#
# Elastic Compliance Matrix: (Units=1/GPa)
#
#
# Indices 1 2 3 4 5 6 
#
# 1 0.011186 -0.000838 -0.004329 0.000000 0.000000 0.000000
# 2 -0.000838 0.007110 -0.003277 0.000000 0.000000 0.000000
# 3 -0.004329 -0.003277 0.009438 0.000000 0.000000 0.000000
# 4 0.000000 0.000000 0.000000 0.001400 0.000000 0.000000
# 5 0.000000 0.000000 0.000000 0.000000 -0.001069 0.000000
# 6 0.000000 0.000000 0.000000 0.000000 0.000000 0.035742
#
#
# Mechanical properties :
#
#
# Convention : Reuss Voigt Hill
#
# Bulk Modulus (GPa) = 92.20186 98.49502 95.34844
# Shear Modulus (GPa) = 59.30427 -20.62703 19.33862
#
# Velocity S-wave (km/s) = 5.19875 -3.06601 2.96871
# Velocity P-wave (km/s) = 8.83490 5.68802 7.42998
#
# Compressibility (1/GPa) = 0.01084577
#
# Stress axis : x y z
#
# Youngs Moduli (GPa) = 89.39351 140.64510 105.95719
#
# Poissons Ratio (x) = 0.11793 0.45869
# Poissons Ratio (y) = 0.07496 0.34720
# Poissons Ratio (z) = 0.38698 0.46087
#
# Static dielectric constant tensor:
#      x y z
#    x 1.867690 0.000000 0.000000 
#    y 0.000000 1.901120 0.000000 
#    z 0.000000 0.000000 1.833120 
# 
# From -- ./inp_files/48259.got.cif
#   From: 2010.05.17/outbox.cif.g08.bks.cpg/sg68_25_cif.got.tgz:48259.got - 2010.06.03 18:57:09.
