data_PCOD9510103
_publ_section_title
;
Structure prediction by ZEFSAII (Michael W. Deem and Ramdas Pophale) SiO2 
 PCOD9510103
Probable space group: C C C A
;
_chemical_formula_sum "Si O2"
_cell_formula_units_Z 72
_cell_length_a 12.944104
_cell_length_b 16.798939
_cell_length_c 16.218287
_cell_angle_alpha 90.000000
_cell_angle_beta 90.000000
_cell_angle_gamma 90.000000
_cell_volume 3526.621316
_symmetry_space_group_name_H-M "C C C A"
_symmetry_group_IT_number 68
_space_group.IT_coordinate_system_code '2'
_symmetry_cell_setting 'orthorhombic'
loop_
_space_group_symop_operation_xyz
x,y,z
-x,1/2-y,z
x,1/2-y,1/2-z
-x,y,1/2-z
-x,-y,-z
x,1/2+y,-z
-x,1/2+y,1/2+z
x,-y,1/2+z
1/2+x,1/2+y,z
1/2-x,-y,z
1/2+x,-y,1/2-z
1/2-x,1/2+y,1/2-z
1/2-x,1/2-y,-z
1/2+x,y,-z
1/2-x,y,1/2+z
1/2+x,1/2-y,1/2+z
loop_
_atom_site_type_symbol
_atom_site_label
_atom_site_fract_x
_atom_site_fract_y
_atom_site_fract_z
Si Si1 0.022568 0.899611 0.847599
Si Si2 0.750000 0.500000 0.184607
Si Si3 0.306580 0.346150 0.913941
Si Si4 0.414052 0.436679 0.193688
Si Si5 0.254412 0.170078 0.894953
O O1 0.133536 0.865702 0.873696
O O2 0.000000 0.884048 0.750000
O O3 0.929114 0.859149 0.898241
O O4 0.031036 0.995646 0.862246
O O5 0.743572 0.578165 0.129876
O O6 0.653536 0.491244 0.244903
O O7 0.265300 0.263658 0.876143
O O8 0.274670 0.342198 0.009287
O O9 0.500000 0.395454 0.250000
O O10 0.335508 0.376163 0.152888
#
# Coordination Sequence:
#
# PCOD9510103 Si02
#       5
#    16   8  16  16  16
#     4  11  21  44  73  98 129 184 242 278 326 422
#     4  12  22  42  66 100 134 176 226 286 332 412
#     4  11  26  42  67 101 137 177 229 278 352 411
#     4  11  22  42  68 101 134 176 236 281 346 409
#     4  11  25  44  67 103 140 177 223 296 346 408
#
# _framework density 20.416142000000001
#
# number of rings (size 3 to 8) (size 9 to 14) (size 15 to 20)
#    0.000    0.889    6.667    0.667    3.111    7.111 
#    0.000    4.444    0.000    0.000    0.000    0.000 
#    0.000    0.000    0.000    0.000    0.000    0.000 
#
# Total GULP energy -201040.747782 kJ/mol
# GULP energy per Si atom -5584.465216 kJ/mol
# Density = 2.036967 g / cm^3
# Si number density = 20.416142 Si / 1000 Ang^3
#
#
#
# Elastic Constant Matrix: (Units=GPa)
#
#
# Indices 1 2 3 4 5 6 
#
# 1 103.5252 41.4324 55.9433 0.0000 0.0000 0.0000
# 2 41.4324 158.2091 57.5577 0.0000 0.0000 0.0000
# 3 55.9433 57.5577 71.2190 0.0000 0.0000 0.0000
# 4 0.0000 0.0000 0.0000 30.6737 0.0000 0.0000
# 5 0.0000 0.0000 0.0000 0.0000 38.7573 0.0000
# 6 0.0000 0.0000 0.0000 0.0000 0.0000 31.4561
#
#
#
# Elastic Compliance Matrix: (Units=1/GPa)
#
#
# Indices 1 2 3 4 5 6 
#
# 1 0.016820 0.000569 -0.013672 0.000000 0.000000 0.000000
# 2 0.000569 0.008972 -0.007698 0.000000 0.000000 0.000000
# 3 -0.013672 -0.007698 0.031003 0.000000 0.000000 0.000000
# 4 0.000000 0.000000 0.000000 0.032601 0.000000 0.000000
# 5 0.000000 0.000000 0.000000 0.000000 0.025802 0.000000
# 6 0.000000 0.000000 0.000000 0.000000 0.000000 0.031790
#
#
# Mechanical properties :
#
#
# Convention : Reuss Voigt Hill
#
# Bulk Modulus (GPa) = 65.82414 71.42445 68.62430
# Shear Modulus (GPa) = 25.81907 32.04542 28.93224
#
# Velocity S-wave (km/s) = 3.56004 3.96613 3.76856
# Velocity P-wave (km/s) = 7.01496 7.48558 7.25409
#
# Compressibility (1/GPa) = 0.01519199
#
# Stress axis : x y z
#
# Youngs Moduli (GPa) = 59.45322 111.45233 32.25526
#
# Poissons Ratio (x) = -0.06344 0.44100
# Poissons Ratio (y) = -0.03384 0.24832
# Poissons Ratio (z) = 0.81286 0.85801
#
# Static dielectric constant tensor:
#      x y z
#    x 1.758790 0.000000 0.000000 
#    y 0.000000 1.749010 0.000000 
#    z 0.000000 0.000000 1.732150 
# 
# From -- ./inp_files/21988.got.cif
#   From: 2010.05.17/outbox.cif.g08.bks.cpg/sg68_11_cif.got.tgz:21988.got - 2010.06.03 18:57:09.
