data_PCOD9510955
_publ_section_title
;
Structure prediction by ZEFSAII (Michael W. Deem and Ramdas Pophale) SiO2 
 PCOD9510955
Probable space group: C C C A
;
_chemical_formula_sum "Si O2"
_cell_formula_units_Z 56
_cell_length_a 15.000000
_cell_length_b 15.000000
_cell_length_c 24.000000
_cell_angle_alpha 90.000000
_cell_angle_beta 90.000000
_cell_angle_gamma 90.000000
_cell_volume 5400.000000
_symmetry_space_group_name_H-M "C C C A"
_symmetry_group_IT_number 68
_space_group.IT_coordinate_system_code '2'
_symmetry_cell_setting 'orthorhombic'
loop_
_space_group_symop_operation_xyz
x,y,z
-x,1/2-y,z
x,1/2-y,1/2-z
-x,y,1/2-z
-x,-y,-z
x,1/2+y,-z
-x,1/2+y,1/2+z
x,-y,1/2+z
1/2+x,1/2+y,z
1/2-x,-y,z
1/2+x,-y,1/2-z
1/2-x,1/2+y,1/2-z
1/2-x,1/2-y,-z
1/2+x,y,-z
1/2-x,y,1/2+z
1/2+x,1/2-y,1/2+z
loop_
_atom_site_type_symbol
_atom_site_label
_atom_site_fract_x
_atom_site_fract_y
_atom_site_fract_z
Si Si1 0.399276 0.712550 0.811546
Si Si2 0.407632 0.120172 0.778466
Si Si3 0.078073 0.186709 0.045808
Si Si4 0.353378 0.989258 0.678200
Si Si5 0.320301 0.924550 0.949889
Si Si6 0.280923 0.213815 0.868633
Si Si7 0.481006 0.531423 0.110915
O O1 0.500000 0.750000 0.830220
O O2 0.387674 0.750000 0.750000
O O3 0.386858 0.607042 0.801565
O O4 0.311982 0.738621 0.848967
O O5 0.500000 0.156082 0.750000
O O6 0.338109 0.184093 0.812821
O O7 0.439404 0.056258 0.829010
O O8 0.365803 0.062666 0.727702
O O9 0.147911 0.232359 0.091035
O O10 0.000000 0.250000 0.019897
O O11 0.010561 0.118855 0.077238
O O12 0.138643 0.137911 0.998859
O O13 0.250000 0.000000 0.661799
O O14 0.420031 0.997003 0.625739
O O15 0.260112 0.868025 0.905411
O O16 0.250000 0.000000 0.970752
O O17 0.407436 0.971419 0.920822
#
# Coordination Sequence:
#
# PCOD9510955 Si02
#       7
#    16  16  16  16  16  16  16
#     4  11  26  41  66 105 149 186 233 293 361 436
#     4  10  23  42  76 103 141 191 240 283 357 451
#     4  12  26  48  70 106 143 182 248 321 365 417
#     4  11  24  42  69 106 143 188 233 287 351 449
#     4  12  26  45  77 104 137 198 247 295 366 446
#     4  12  25  47  73 105 147 191 238 305 371 428
#     4  11  24  45  72  99 139 189 236 293 359 431
#
# _framework density 10.370369999999999
#
# number of rings (size 3 to 8) (size 9 to 14) (size 15 to 20)
#    0.000    0.714    2.857    3.429   10.000    4.571 
#    0.000    2.143    0.000    0.000    0.000    0.000 
#    0.000    0.000    0.000    0.000    0.000    0.000 
#
# Total GULP energy -312206.331655 kJ/mol
# GULP energy per Si atom -5575.113065 kJ/mol
# Density = 1.034677 g / cm^3
# Si number density = 10.370370 Si / 1000 Ang^3
#
#
#
# Elastic Constant Matrix: (Units=GPa)
#
#
# Indices 1 2 3 4 5 6 
#
# 1 190.0327 59.3684 77.0051 0.0000 0.0000 0.0000
# 2 59.3684 93.6553 34.3526 0.0000 0.0000 0.0000
# 3 77.0051 34.3526 61.5724 0.0000 0.0000 0.0000
# 4 0.0000 0.0000 0.0000 30.1970 0.0000 0.0000
# 5 0.0000 0.0000 0.0000 0.0000 29.1885 0.0000
# 6 0.0000 0.0000 0.0000 0.0000 0.0000 49.7357
#
#
#
# Elastic Compliance Matrix: (Units=1/GPa)
#
#
# Indices 1 2 3 4 5 6 
#
# 1 0.011097 -0.002444 -0.012515 0.000000 0.000000 0.000000
# 2 -0.002444 0.013963 -0.004734 0.000000 0.000000 0.000000
# 3 -0.012515 -0.004734 0.034534 0.000000 0.000000 0.000000
# 4 0.000000 0.000000 0.000000 0.033116 0.000000 0.000000
# 5 0.000000 0.000000 0.000000 0.000000 0.034260 0.000000
# 6 0.000000 0.000000 0.000000 0.000000 0.000000 0.020106
#
#
# Mechanical properties :
#
#
# Convention : Reuss Voigt Hill
#
# Bulk Modulus (GPa) = 49.48381 76.30140 62.89260
# Shear Modulus (GPa) = 25.88025 33.45986 29.67005
#
# Velocity S-wave (km/s) = 3.53625 4.02088 3.78633
# Velocity P-wave (km/s) = 6.37052 7.64360 7.03591
#
# Compressibility (1/GPa) = 0.02020863
#
# Stress axis : x y z
#
# Youngs Moduli (GPa) = 90.11366 71.61763 28.95717
#
# Poissons Ratio (x) = 0.17504 0.36240
# Poissons Ratio (y) = 0.22024 0.13707
# Poissons Ratio (z) = 1.12777 0.33901
#
# Static dielectric constant tensor:
#      x y z
#    x 1.753200 0.000000 0.000000 
#    y 0.000000 2.084220 0.000000 
#    z 0.000000 0.000000 1.742520 
# 
# From -- ./inp_files/45527.got.cif
#   From: 2010.05.17/outbox.ucp.g08.bks.cvg/sg68_23_cif.got.tgz:45527.got - 2010.06.11 16:49:25.
