data_PCOD9510566
_publ_section_title
;
Structure prediction by ZEFSAII (Michael W. Deem and Ramdas Pophale) SiO2 
 PCOD9510566
Probable space group: C C C A
;
_chemical_formula_sum "Si O2"
_cell_formula_units_Z 44
_cell_length_a 10.949979
_cell_length_b 11.678303
_cell_length_c 13.808598
_cell_angle_alpha 90.000000
_cell_angle_beta 90.000000
_cell_angle_gamma 90.000000
_cell_volume 1765.804470
_symmetry_space_group_name_H-M "C C C A"
_symmetry_group_IT_number 68
_space_group.IT_coordinate_system_code '2'
_symmetry_cell_setting 'orthorhombic'
loop_
_space_group_symop_operation_xyz
x,y,z
-x,1/2-y,z
x,1/2-y,1/2-z
-x,y,1/2-z
-x,-y,-z
x,1/2+y,-z
-x,1/2+y,1/2+z
x,-y,1/2+z
1/2+x,1/2+y,z
1/2-x,-y,z
1/2+x,-y,1/2-z
1/2-x,1/2+y,1/2-z
1/2-x,1/2-y,-z
1/2+x,y,-z
1/2-x,y,1/2+z
1/2+x,1/2-y,1/2+z
loop_
_atom_site_type_symbol
_atom_site_label
_atom_site_fract_x
_atom_site_fract_y
_atom_site_fract_z
Si Si1 0.580049 0.906212 0.105980
Si Si2 0.250000 0.000000 0.743471
Si Si3 0.500000 0.250000 0.750000
Si Si4 0.561495 0.367166 0.106628
O O1 0.687517 0.907738 0.183988
O O2 0.470211 0.843611 0.164174
O O3 0.544443 0.038115 0.093575
O O4 0.611770 0.853245 0.002863
O O5 0.157916 0.074171 0.677845
O O6 0.500000 0.250000 0.139229
#
# Coordination Sequence:
#
# PCOD9510566 Si02
#       4
#    16   8   4  16
#     4  11  25  45  70 105 149 195 243 306 383 439
#     4  12  24  46  74 114 140 196 250 298 378 446
#     4  12  20  48  66  92 148 192 228 302 364 444
#     4  11  25  48  72 108 153 192 250 314 368 449
#
# _framework density 24.917822000000001
#
# number of rings (size 3 to 8) (size 9 to 14) (size 15 to 20)
#    0.000    0.727    5.455    1.091    0.000    5.818 
#    0.000    7.273    0.000    0.000    0.000    0.000 
#    0.000    0.000    0.000    0.000    0.000    0.000 
#
# Total GULP energy -122565.201862 kJ/mol
# GULP energy per Si atom -5571.145539 kJ/mol
# Density = 2.486111 g / cm^3
# Si number density = 24.917822 Si / 1000 Ang^3
#
#
#
# Elastic Constant Matrix: (Units=GPa)
#
#
# Indices 1 2 3 4 5 6 
#
# 1 78.1870 19.3162 60.8768 0.0000 0.0000 0.0000
# 2 19.3162 148.4485 40.0951 0.0000 0.0000 0.0000
# 3 60.8768 40.0951 226.8228 0.0000 0.0000 0.0000
# 4 0.0000 0.0000 0.0000 -42.8391 0.0000 0.0000
# 5 0.0000 0.0000 0.0000 0.0000 3.3082 0.0000
# 6 0.0000 0.0000 0.0000 0.0000 0.0000 15.5614
#
#
#
# Elastic Compliance Matrix: (Units=1/GPa)
#
#
# Indices 1 2 3 4 5 6 
#
# 1 0.016305 -0.000987 -0.004202 0.000000 0.000000 0.000000
# 2 -0.000987 0.007134 -0.000996 0.000000 0.000000 0.000000
# 3 -0.004202 -0.000996 0.005713 0.000000 0.000000 0.000000
# 4 0.000000 0.000000 0.000000 -0.023343 0.000000 0.000000
# 5 0.000000 0.000000 0.000000 0.000000 0.302276 0.000000
# 6 0.000000 0.000000 0.000000 0.000000 0.000000 0.064262
#
#
# Mechanical properties :
#
#
# Convention : Reuss Voigt Hill
#
# Bulk Modulus (GPa) = 59.58729 77.11495 68.35112
# Shear Modulus (GPa) = 12.81034 17.41745 15.11390
#
# Velocity S-wave (km/s) = 2.26985 2.64672 2.46549
# Velocity P-wave (km/s) = 5.55293 6.35256 5.96616
#
# Compressibility (1/GPa) = 0.01678210
#
# Stress axis : x y z
#
# Youngs Moduli (GPa) = 61.33058 140.17759 175.05444
#
# Poissons Ratio (x) = 0.13832 0.73552
# Poissons Ratio (y) = 0.06052 0.17439
# Poissons Ratio (z) = 0.25769 0.13964
#
# Static dielectric constant tensor:
#      x y z
#    x 2.165730 0.000000 0.000000 
#    y 0.000000 2.018550 0.000000 
#    z 0.000000 0.000000 2.011320 
# 
# From -- ./inp_files/19938.got.cif
#   From: 2010.05.17/outbox.cif.g08.bks.cpg/sg68_10_cif.got.tgz:19938.got - 2010.06.03 18:57:09.
