data_PCOD9510481
_publ_section_title
;
Structure prediction by ZEFSAII (Michael W. Deem and Ramdas Pophale) SiO2 
 PCOD9510481
Probable space group: C C C A
;
_chemical_formula_sum "Si O2"
_cell_formula_units_Z 112
_cell_length_a 12.932550
_cell_length_b 33.200398
_cell_length_c 11.747591
_cell_angle_alpha 90.000000
_cell_angle_beta 90.000000
_cell_angle_gamma 90.000000
_cell_volume 5044.013892
_symmetry_space_group_name_H-M "C C C A"
_symmetry_group_IT_number 68
_space_group.IT_coordinate_system_code '2'
_symmetry_cell_setting 'orthorhombic'
loop_
_space_group_symop_operation_xyz
x,y,z
-x,1/2-y,z
x,1/2-y,1/2-z
-x,y,1/2-z
-x,-y,-z
x,1/2+y,-z
-x,1/2+y,1/2+z
x,-y,1/2+z
1/2+x,1/2+y,z
1/2-x,-y,z
1/2+x,-y,1/2-z
1/2-x,1/2+y,1/2-z
1/2-x,1/2-y,-z
1/2+x,y,-z
1/2-x,y,1/2+z
1/2+x,1/2-y,1/2+z
loop_
_atom_site_type_symbol
_atom_site_label
_atom_site_fract_x
_atom_site_fract_y
_atom_site_fract_z
Si Si1 0.314348 0.727533 0.349726
Si Si2 0.886404 0.397243 0.457854
Si Si3 0.622157 0.648265 0.236775
Si Si4 0.482267 0.974696 0.117098
Si Si5 0.549373 0.367698 0.371008
Si Si6 0.326210 0.916552 0.047175
Si Si7 0.602770 0.775472 0.596612
O O1 0.373530 0.750000 0.250000
O O2 0.301292 0.683117 0.301980
O O3 0.382337 0.723783 0.461135
O O4 0.207273 0.751536 0.368316
O O5 0.844628 0.369806 0.356567
O O6 0.947428 0.434489 0.400686
O O7 0.795322 0.414788 0.533531
O O8 0.957286 0.369281 0.536605
O O9 0.500000 0.659335 0.250000
O O10 0.633298 0.615578 0.138484
O O11 0.500000 0.988889 0.250000
O O12 0.366559 0.958503 0.096106
O O13 0.500000 0.000000 0.000000
O O14 0.500000 0.378863 0.250000
O O15 0.625474 0.401407 0.426124
O O16 0.593306 0.322050 0.364987
O O17 0.500000 0.750000 0.625589
#
# Coordination Sequence:
#
# PCOD9510481 Si02
#       7
#    16  16  16  16  16  16  16
#     4  11  28  40  66 100 128 187 247 300 361 432
#     4  11  25  43  76 106 137 190 247 291 359 444
#     4  12  22  47  73  95 146 189 242 303 361 433
#     4  11  24  50  75 109 153 194 234 299 369 449
#     4  11  26  43  67  98 139 186 235 299 363 429
#     4  11  24  44  73 109 136 186 243 291 361 438
#     4  11  27  44  58  93 140 178 237 302 377 416
#
# _framework density 22.204539
#
# number of rings (size 3 to 8) (size 9 to 14) (size 15 to 20)
#    0.000    0.857    5.714    0.000   12.000    2.857 
#    0.000    1.429    0.000    0.000    0.000    0.000 
#    0.000    0.000    0.000    0.000    0.000    0.000 
#
# Total GULP energy -312527.336517 kJ/mol
# GULP energy per Si atom -5580.845295 kJ/mol
# Density = 2.215400 g / cm^3
# Si number density = 22.204539 Si / 1000 Ang^3
#
#
#
# Elastic Constant Matrix: (Units=GPa)
#
#
# Indices 1 2 3 4 5 6 
#
# 1 81.6870 -4.2485 9.9423 0.0000 0.0000 0.0000
# 2 -4.2485 52.6315 28.2772 0.0000 0.0000 0.0000
# 3 9.9423 28.2772 148.2728 0.0000 0.0000 0.0000
# 4 0.0000 0.0000 0.0000 33.2485 0.0000 0.0000
# 5 0.0000 0.0000 0.0000 0.0000 12.8212 0.0000
# 6 0.0000 0.0000 0.0000 0.0000 0.0000 13.3571
#
#
#
# Elastic Compliance Matrix: (Units=1/GPa)
#
#
# Indices 1 2 3 4 5 6 
#
# 1 0.012466 0.001621 -0.001145 0.000000 0.000000 0.000000
# 2 0.001621 0.021380 -0.004186 0.000000 0.000000 0.000000
# 3 -0.001145 -0.004186 0.007619 0.000000 0.000000 0.000000
# 4 0.000000 0.000000 0.000000 0.030077 0.000000 0.000000
# 5 0.000000 0.000000 0.000000 0.000000 0.077996 0.000000
# 6 0.000000 0.000000 0.000000 0.000000 0.000000 0.074866
#
#
# Mechanical properties :
#
#
# Convention : Reuss Voigt Hill
#
# Bulk Modulus (GPa) = 29.37248 38.94816 34.16032
# Shear Modulus (GPa) = 20.56161 28.46004 24.51083
#
# Velocity S-wave (km/s) = 3.04634 3.58400 3.32605
# Velocity P-wave (km/s) = 5.06265 5.89113 5.49254
#
# Compressibility (1/GPa) = 0.03404547
#
# Stress axis : x y z
#
# Youngs Moduli (GPa) = 80.22107 46.77267 131.24305
#
# Poissons Ratio (x) = -0.07584 0.15029
# Poissons Ratio (y) = -0.13007 0.54940
# Poissons Ratio (z) = 0.09186 0.19580
#
# Static dielectric constant tensor:
#      x y z
#    x 1.861440 0.000000 0.000000 
#    y 0.000000 1.882670 0.000000 
#    z 0.000000 0.000000 1.853090 
# 
# From -- ./inp_files/13614.got.cif
#   From: 2010.05.17/outbox.cif.g08.bks.cpg/sg68_7_cif.got.tgz:13614.got - 2010.06.03 18:57:09.
