data_PCOD9510592
_publ_section_title
;
Structure prediction by ZEFSAII (Michael W. Deem and Ramdas Pophale) SiO2 
 PCOD9510592
Probable space group: C C C A
;
_chemical_formula_sum "Si O2"
_cell_formula_units_Z 120
_cell_length_a 22.174079
_cell_length_b 12.640068
_cell_length_c 17.730186
_cell_angle_alpha 90.000000
_cell_angle_beta 90.000000
_cell_angle_gamma 90.000000
_cell_volume 4969.449624
_symmetry_space_group_name_H-M "C C C A"
_symmetry_group_IT_number 68
_space_group.IT_coordinate_system_code '2'
_symmetry_cell_setting 'orthorhombic'
loop_
_space_group_symop_operation_xyz
x,y,z
-x,1/2-y,z
x,1/2-y,1/2-z
-x,y,1/2-z
-x,-y,-z
x,1/2+y,-z
-x,1/2+y,1/2+z
x,-y,1/2+z
1/2+x,1/2+y,z
1/2-x,-y,z
1/2+x,-y,1/2-z
1/2-x,1/2+y,1/2-z
1/2-x,1/2-y,-z
1/2+x,y,-z
1/2-x,y,1/2+z
1/2+x,1/2-y,1/2+z
loop_
_atom_site_type_symbol
_atom_site_label
_atom_site_fract_x
_atom_site_fract_y
_atom_site_fract_z
Si Si1 0.637427 0.385662 0.551686
Si Si2 0.794422 0.809491 0.621135
Si Si3 0.165535 0.804094 0.326850
Si Si4 0.063073 0.192227 0.592435
Si Si5 0.948515 0.480927 0.166188
Si Si6 0.437641 0.964011 0.450885
Si Si7 0.129225 0.955215 0.804456
Si Si8 0.750000 0.500000 0.985150
O O1 0.666329 0.271455 0.570006
O O2 0.605045 0.414474 0.629246
O O3 0.585470 0.427755 0.491830
O O4 0.693201 0.462026 0.533450
O O5 0.730760 0.761384 0.649066
O O6 0.824178 0.858508 0.698264
O O7 0.769344 0.902969 0.567383
O O8 0.146430 0.750000 0.250000
O O9 0.119115 0.768628 0.392132
O O10 0.160283 0.929616 0.308576
O O11 0.061420 0.126570 0.514247
O O12 0.000000 0.250000 0.599145
O O13 0.065015 0.104132 0.657494
O O14 0.932442 0.455865 0.254192
O O15 0.003960 0.468820 0.105104
O O16 0.388557 0.934570 0.390654
#
# Coordination Sequence:
#
# PCOD9510592 Si02
#       8
#    16  16  16  16  16  16  16   8
#     4  11  26  45  76 113 156 209 269 326 416 491
#     4  12  27  47  77 113 165 210 266 339 416 499
#     4  12  26  47  76 117 156 215 272 337 417 484
#     4  11  25  46  79 116 155 206 268 339 406 486
#     4  11  26  49  73 113 156 212 268 337 407 491
#     4  11  25  49  76 115 161 206 267 339 409 497
#     4  12  25  49  75 112 160 206 273 333 407 490
#     4  12  24  48  72 112 156 206 260 336 396 498
#
# _framework density 24.147544
#
# number of rings (size 3 to 8) (size 9 to 14) (size 15 to 20)
#    0.000    0.533    4.000    3.200    5.600    5.600 
#    0.000    0.000    0.000    2.400    0.000    0.000 
#    0.000    0.000    0.000    0.000    0.000    0.000 
#
# Total GULP energy -334365.285427 kJ/mol
# GULP energy per Si atom -5572.754757 kJ/mol
# Density = 2.409258 g / cm^3
# Si number density = 24.147544 Si / 1000 Ang^3
#
#
#
# Elastic Constant Matrix: (Units=GPa)
#
#
# Indices 1 2 3 4 5 6 
#
# 1 94.2290 -7.3577 23.0104 0.0000 0.0000 0.0000
# 2 -7.3577 13.1482 -2.8803 0.0000 0.0000 0.0000
# 3 23.0104 -2.8803 102.1985 0.0000 0.0000 0.0000
# 4 0.0000 0.0000 0.0000 64.6179 0.0000 0.0000
# 5 0.0000 0.0000 0.0000 0.0000 27.6339 0.0000
# 6 0.0000 0.0000 0.0000 0.0000 0.0000 52.1124
#
#
#
# Elastic Compliance Matrix: (Units=1/GPa)
#
#
# Indices 1 2 3 4 5 6 
#
# 1 0.011682 0.005998 -0.002461 0.000000 0.000000 0.000000
# 2 0.005998 0.079608 0.000893 0.000000 0.000000 0.000000
# 3 -0.002461 0.000893 0.010364 0.000000 0.000000 0.000000
# 4 0.000000 0.000000 0.000000 0.015476 0.000000 0.000000
# 5 0.000000 0.000000 0.000000 0.000000 0.036187 0.000000
# 6 0.000000 0.000000 0.000000 0.000000 0.000000 0.019189
#
#
# Mechanical properties :
#
#
# Convention : Reuss Voigt Hill
#
# Bulk Modulus (GPa) = 9.04861 26.12450 17.58655
# Shear Modulus (GPa) = 24.93956 41.99306 33.46631
#
# Velocity S-wave (km/s) = 3.21721 4.17468 3.72682
# Velocity P-wave (km/s) = 4.18998 5.83776 5.08111
#
# Compressibility (1/GPa) = 0.11051421
#
# Stress axis : x y z
#
# Youngs Moduli (GPa) = 85.60326 12.56151 96.48607
#
# Poissons Ratio (x) = -0.07534 0.23747
# Poissons Ratio (y) = -0.51345 -0.08618
# Poissons Ratio (z) = 0.21068 -0.01122
#
# Static dielectric constant tensor:
#      x y z
#    x 2.111560 0.000000 0.000000 
#    y 0.000000 1.933380 0.000000 
#    z 0.000000 0.000000 1.946330 
# 
# From -- ./inp_files/40953.got.cif
#   From: 2010.05.17/outbox.cif.g08.bks.cpg/sg68_21_cif.got.tgz:40953.got - 2010.06.03 18:57:09.
