data_PCOD9510973
_publ_section_title
;
Structure prediction by ZEFSAII (Michael W. Deem and Ramdas Pophale) SiO2 
 PCOD9510973
Probable space group: C C C A
;
_chemical_formula_sum "Si O2"
_cell_formula_units_Z 58
_cell_length_a 27.000000
_cell_length_b 9.000000
_cell_length_c 24.000000
_cell_angle_alpha 90.000000
_cell_angle_beta 90.000000
_cell_angle_gamma 90.000000
_cell_volume 5832.000000
_symmetry_space_group_name_H-M "C C C A"
_symmetry_group_IT_number 68
_space_group.IT_coordinate_system_code '2'
_symmetry_cell_setting 'orthorhombic'
loop_
_space_group_symop_operation_xyz
x,y,z
-x,1/2-y,z
x,1/2-y,1/2-z
-x,y,1/2-z
-x,-y,-z
x,1/2+y,-z
-x,1/2+y,1/2+z
x,-y,1/2+z
1/2+x,1/2+y,z
1/2-x,-y,z
1/2+x,-y,1/2-z
1/2-x,1/2+y,1/2-z
1/2-x,1/2-y,-z
1/2+x,y,-z
1/2-x,y,1/2+z
1/2+x,1/2-y,1/2+z
loop_
_atom_site_type_symbol
_atom_site_label
_atom_site_fract_x
_atom_site_fract_y
_atom_site_fract_z
Si Si1 0.000000 0.250000 0.750000
Si Si2 0.161215 0.228617 0.883845
Si Si3 0.348493 0.343222 0.867964
Si Si4 0.745038 0.818764 0.189198
Si Si5 0.621267 0.942879 0.071225
Si Si6 0.505867 0.567845 0.437892
Si Si7 0.931058 0.571137 0.156357
Si Si8 0.193409 0.047296 0.534149
O O1 0.035958 0.352462 0.792390
O O2 0.206451 0.246119 0.841587
O O3 0.109298 0.310080 0.867946
O O4 0.184625 0.285920 0.942466
O O5 0.148039 0.056242 0.887558
O O6 0.305687 0.250169 0.836479
O O7 0.374164 0.224956 0.908450
O O8 0.391388 0.432863 0.833321
O O9 0.321014 0.454808 0.910515
O O10 0.746745 0.750000 0.250000
O O11 0.750000 0.000000 0.188126
O O12 0.563030 0.974066 0.073157
O O13 0.651615 0.966799 0.013646
O O14 0.500000 0.750000 0.437537
O O15 0.500000 0.500000 0.500000
O O16 0.468827 0.491031 0.392033
O O17 0.250000 0.000000 0.518186
#
# Coordination Sequence:
#
# PCOD9510973 Si02
#       8
#     4  16  16  16  16  16  16  16
#     4  12  28  52  86 108 144 200 262 322 388 454
#     4  11  25  45  72 104 144 187 237 295 355 443
#     4  11  24  48  67 108 146 185 242 300 358 433
#     4  12  28  46  73 102 141 191 242 299 364 437
#     4  12  25  42  70 105 145 188 237 287 363 433
#     4  12  27  47  74 107 147 197 248 309 370 443
#     4  11  27  51  77 107 146 192 249 315 372 439
#     4  11  24  38  69 105 148 191 227 290 360 441
#
# _framework density 9.9451300000000007
#
# number of rings (size 3 to 8) (size 9 to 14) (size 15 to 20)
#    0.000    0.552    4.138    3.310   11.586    1.103 
#    2.483    0.345    0.000    0.000    0.000    0.000 
#    0.000    0.000    0.000    0.000    0.000    0.000 
#
# Total GULP energy -323338.688105 kJ/mol
# GULP energy per Si atom -5574.804967 kJ/mol
# Density = 0.992249 g / cm^3
# Si number density = 9.945130 Si / 1000 Ang^3
#
#
#
# Elastic Constant Matrix: (Units=GPa)
#
#
# Indices 1 2 3 4 5 6 
#
# 1 177.7479 36.1970 64.1075 0.0000 0.0000 0.0000
# 2 36.1970 110.1235 36.3989 0.0000 0.0000 0.0000
# 3 64.1075 36.3989 103.5594 0.0000 0.0000 0.0000
# 4 0.0000 0.0000 0.0000 36.9830 0.0000 0.0000
# 5 0.0000 0.0000 0.0000 0.0000 36.6852 0.0000
# 6 0.0000 0.0000 0.0000 0.0000 0.0000 47.3998
#
#
#
# Elastic Compliance Matrix: (Units=1/GPa)
#
#
# Indices 1 2 3 4 5 6 
#
# 1 0.007345 -0.001031 -0.004184 0.000000 0.000000 0.000000
# 2 -0.001031 0.010419 -0.003024 0.000000 0.000000 0.000000
# 3 -0.004184 -0.003024 0.013309 0.000000 0.000000 0.000000
# 4 0.000000 0.000000 0.000000 0.027039 0.000000 0.000000
# 5 0.000000 0.000000 0.000000 0.000000 0.027259 0.000000
# 6 0.000000 0.000000 0.000000 0.000000 0.000000 0.021097
#
#
# Mechanical properties :
#
#
# Convention : Reuss Voigt Hill
#
# Bulk Modulus (GPa) = 68.51750 73.87085 71.19418
# Shear Modulus (GPa) = 39.11964 41.19542 40.15753
#
# Velocity S-wave (km/s) = 4.43964 4.55591 4.49815
# Velocity P-wave (km/s) = 7.79764 8.05574 7.92774
#
# Compressibility (1/GPa) = 0.01459481
#
# Stress axis : x y z
#
# Youngs Moduli (GPa) = 136.14423 95.97766 75.13465
#
# Poissons Ratio (x) = 0.09897 0.31440
# Poissons Ratio (y) = 0.14039 0.22719
# Poissons Ratio (z) = 0.56970 0.29021
#
# Static dielectric constant tensor:
#      x y z
#    x 1.716300 0.000000 0.000000 
#    y 0.000000 1.763720 0.000000 
#    z 0.000000 0.000000 1.730180 
# 
# From -- ./inp_files/47315.got.cif
#   From: 2010.05.17/outbox.ucp.g08.bks.cvg/sg68_24_cif.got.tgz:47315.got - 2010.06.11 16:49:25.
