data_PCOD9510246
_publ_section_title
;
Structure prediction by ZEFSAII (Michael W. Deem and Ramdas Pophale) SiO2 
 PCOD9510246
Probable space group: C C C A
;
_chemical_formula_sum "Si O2"
_cell_formula_units_Z 56
_cell_length_a 25.743530
_cell_length_b 9.015211
_cell_length_c 9.594630
_cell_angle_alpha 90.000000
_cell_angle_beta 90.000000
_cell_angle_gamma 90.000000
_cell_volume 2226.753919
_symmetry_space_group_name_H-M "C C C A"
_symmetry_group_IT_number 68
_space_group.IT_coordinate_system_code '2'
_symmetry_cell_setting 'orthorhombic'
loop_
_space_group_symop_operation_xyz
x,y,z
-x,1/2-y,z
x,1/2-y,1/2-z
-x,y,1/2-z
-x,-y,-z
x,1/2+y,-z
-x,1/2+y,1/2+z
x,-y,1/2+z
1/2+x,1/2+y,z
1/2-x,-y,z
1/2+x,-y,1/2-z
1/2-x,1/2+y,1/2-z
1/2-x,1/2-y,-z
1/2+x,y,-z
1/2-x,y,1/2+z
1/2+x,1/2-y,1/2+z
loop_
_atom_site_type_symbol
_atom_site_label
_atom_site_fract_x
_atom_site_fract_y
_atom_site_fract_z
Si Si1 0.602946 0.750000 0.750000
Si Si2 0.212908 0.612433 0.548358
Si Si3 0.643864 0.645716 0.040262
Si Si4 0.462777 0.977761 0.130677
O O1 0.637764 0.820205 0.626284
O O2 0.564915 0.628165 0.683250
O O3 0.250000 0.500000 0.631215
O O4 0.250000 0.750000 0.500000
O O5 0.182511 0.496551 0.445181
O O6 0.166176 0.705729 0.609131
O O7 0.586242 0.620075 0.091269
O O8 0.500000 0.919390 0.250000
O O9 0.500000 0.000000 0.000000
#
# Coordination Sequence:
#
# PCOD9510246 Si02
#       4
#     8  16  16  16
#     4  12  25  46  72 106 166 194 262 324 391 452
#     4   9  20  42  76 108 150 198 259 323 392 468
#     4  11  22  44  77 109 154 206 251 326 388 467
#     4  12  26  45  76 112 156 214 255 318 390 466
#
# _framework density 25.148713999999998
#
# number of rings (size 3 to 8) (size 9 to 14) (size 15 to 20)
#    0.000    1.143    5.714    0.429    0.000    0.000 
#    0.000   14.286    0.000    0.000    0.000    0.000 
#    0.000    0.000    0.000    0.000    0.000    0.000 
#
# Total GULP energy -156416.665576 kJ/mol
# GULP energy per Si atom -5586.309485 kJ/mol
# Density = 2.509147 g / cm^3
# Si number density = 25.148714 Si / 1000 Ang^3
#
#
#
# Elastic Constant Matrix: (Units=GPa)
#
#
# Indices 1 2 3 4 5 6 
#
# 1 195.4641 86.8310 49.8297 0.0000 0.0000 0.0000
# 2 86.8310 175.2798 34.6735 0.0000 0.0000 0.0000
# 3 49.8297 34.6735 113.9949 0.0000 0.0000 0.0000
# 4 0.0000 0.0000 0.0000 23.2368 0.0000 0.0000
# 5 0.0000 0.0000 0.0000 0.0000 21.2023 0.0000
# 6 0.0000 0.0000 0.0000 0.0000 0.0000 59.4143
#
#
#
# Elastic Compliance Matrix: (Units=1/GPa)
#
#
# Indices 1 2 3 4 5 6 
#
# 1 0.007018 -0.003053 -0.002139 0.000000 0.000000 0.000000
# 2 -0.003053 0.007399 -0.000916 0.000000 0.000000 0.000000
# 3 -0.002139 -0.000916 0.009986 0.000000 0.000000 0.000000
# 4 0.000000 0.000000 0.000000 0.043035 0.000000 0.000000
# 5 0.000000 0.000000 0.000000 0.000000 0.047165 0.000000
# 6 0.000000 0.000000 0.000000 0.000000 0.000000 0.016831
#
#
# Mechanical properties :
#
#
# Convention : Reuss Voigt Hill
#
# Bulk Modulus (GPa) = 82.05889 91.93414 86.99652
# Shear Modulus (GPa) = 33.84978 41.66432 37.75705
#
# Velocity S-wave (km/s) = 3.67275 4.07470 3.87893
# Velocity P-wave (km/s) = 7.11939 7.66636 7.39793
#
# Compressibility (1/GPa) = 0.01218637
#
# Stress axis : x y z
#
# Youngs Moduli (GPa) = 142.49736 135.15508 100.14196
#
# Poissons Ratio (x) = 0.41268 0.21419
# Poissons Ratio (y) = 0.43509 0.09171
# Poissons Ratio (z) = 0.30478 0.12378
#
# Static dielectric constant tensor:
#      x y z
#    x 2.014860 0.000000 0.000000 
#    y 0.000000 1.965590 0.000000 
#    z 0.000000 0.000000 2.158000 
# 
# From -- ./inp_files/16859.got.cif
#   From: 2010.05.17/outbox.cif.g08.bks.cpg/sg68_9_cif.got.tgz:16859.got - 2010.06.03 18:57:09.
