data_PCOD9510358
_publ_section_title
;
Structure prediction by ZEFSAII (Michael W. Deem and Ramdas Pophale) SiO2 
 PCOD9510358
Probable space group: C C C A
;
_chemical_formula_sum "Si O2"
_cell_formula_units_Z 112
_cell_length_a 15.288117
_cell_length_b 26.773117
_cell_length_c 11.213306
_cell_angle_alpha 90.000000
_cell_angle_beta 90.000000
_cell_angle_gamma 90.000000
_cell_volume 4589.724392
_symmetry_space_group_name_H-M "C C C A"
_symmetry_group_IT_number 68
_space_group.IT_coordinate_system_code '2'
_symmetry_cell_setting 'orthorhombic'
loop_
_space_group_symop_operation_xyz
x,y,z
-x,1/2-y,z
x,1/2-y,1/2-z
-x,y,1/2-z
-x,-y,-z
x,1/2+y,-z
-x,1/2+y,1/2+z
x,-y,1/2+z
1/2+x,1/2+y,z
1/2-x,-y,z
1/2+x,-y,1/2-z
1/2-x,1/2+y,1/2-z
1/2-x,1/2-y,-z
1/2+x,y,-z
1/2-x,y,1/2+z
1/2+x,1/2-y,1/2+z
loop_
_atom_site_type_symbol
_atom_site_label
_atom_site_fract_x
_atom_site_fract_y
_atom_site_fract_z
Si Si1 0.446685 0.796110 0.948059
Si Si2 0.460422 0.043443 0.868041
Si Si3 0.635804 0.041945 0.021440
Si Si4 0.907880 0.347164 0.385767
Si Si5 0.270526 0.382290 0.434650
Si Si6 0.336307 0.291322 0.826894
Si Si7 0.600088 0.117707 0.223374
O O1 0.500000 0.750000 0.894881
O O2 0.517259 0.830185 0.020720
O O3 0.382386 0.774346 0.050466
O O4 0.399189 0.829949 0.849549
O O5 0.500000 0.017468 0.750000
O O6 0.428603 0.098186 0.835986
O O7 0.380223 0.014042 0.930061
O O8 0.543599 0.050002 0.954198
O O9 0.638374 0.076792 0.136149
O O10 0.715940 0.066121 0.948189
O O11 0.813633 0.356128 0.449133
O O12 0.902484 0.309225 0.276191
O O13 0.211772 0.340966 0.369567
O O14 0.351340 0.387808 0.346891
O O15 0.283290 0.250000 0.750000
O O16 0.500000 0.107824 0.250000
#
# Coordination Sequence:
#
# PCOD9510358 Si02
#       7
#    16  16  16  16  16  16  16
#     4  12  24  45  73 107 141 201 266 323 389 484
#     4  11  23  44  76 108 142 190 252 321 387 476
#     4  11  24  45  72 107 144 193 253 307 397 465
#     4  12  24  44  69 104 149 199 258 318 393 468
#     4  12  26  46  70 106 156 202 250 327 392 471
#     4  12  26  43  73 104 147 202 259 327 398 463
#     4  12  24  48  73 106 153 203 255 321 390 480
#
# _framework density 24.402336999999999
#
# number of rings (size 3 to 8) (size 9 to 14) (size 15 to 20)
#    0.000    0.286    5.714    3.429    0.000    3.714 
#    0.000    1.429    0.000    0.000    0.000    0.000 
#    0.000    0.000    0.000    0.000    0.000    0.000 
#
# Total GULP energy -313122.010760 kJ/mol
# GULP energy per Si atom -5591.464478 kJ/mol
# Density = 2.434680 g / cm^3
# Si number density = 24.402337 Si / 1000 Ang^3
#
#
#
# Elastic Constant Matrix: (Units=GPa)
#
#
# Indices 1 2 3 4 5 6 
#
# 1 85.7685 12.6297 21.0341 0.0000 0.0000 0.0000
# 2 12.6297 77.4717 11.0180 0.0000 0.0000 0.0000
# 3 21.0341 11.0180 54.4851 0.0000 0.0000 0.0000
# 4 0.0000 0.0000 0.0000 20.1705 0.0000 0.0000
# 5 0.0000 0.0000 0.0000 0.0000 47.8585 0.0000
# 6 0.0000 0.0000 0.0000 0.0000 0.0000 -20.8620
#
#
#
# Elastic Compliance Matrix: (Units=1/GPa)
#
#
# Indices 1 2 3 4 5 6 
#
# 1 0.013035 -0.001451 -0.004739 0.000000 0.000000 0.000000
# 2 -0.001451 0.013452 -0.002160 0.000000 0.000000 0.000000
# 3 -0.004739 -0.002160 0.020620 0.000000 0.000000 0.000000
# 4 0.000000 0.000000 0.000000 0.049577 0.000000 0.000000
# 5 0.000000 0.000000 0.000000 0.000000 0.020895 0.000000
# 6 0.000000 0.000000 0.000000 0.000000 0.000000 -0.047934
#
#
# Mechanical properties :
#
#
# Convention : Reuss Voigt Hill
#
# Bulk Modulus (GPa) = 32.88725 34.12096 33.50410
# Shear Modulus (GPa) = 51.82392 20.96962 36.39677
#
# Velocity S-wave (km/s) = 4.61339 2.93461 3.86622
# Velocity P-wave (km/s) = 6.47180 5.04932 5.80430
#
# Compressibility (1/GPa) = 0.03040692
#
# Stress axis : x y z
#
# Youngs Moduli (GPa) = 76.71578 74.34007 48.49688
#
# Poissons Ratio (x) = 0.10787 0.22982
# Poissons Ratio (y) = 0.11132 0.10475
# Poissons Ratio (z) = 0.36354 0.16057
#
# Static dielectric constant tensor:
#      x y z
#    x 1.963930 0.000000 0.000000 
#    y 0.000000 1.990630 0.000000 
#    z 0.000000 0.000000 1.969340 
# 
# From -- ./inp_files/13612.got.cif
#   From: 2010.05.17/outbox.cif.g08.bks.cpg/sg68_7_cif.got.tgz:13612.got - 2010.06.03 18:57:09.
