data_PCOD9510005
_publ_section_title
;
Structure prediction by ZEFSAII (Michael W. Deem and Ramdas Pophale) SiO2 
 PCOD9510005
Probable space group: C C C A
;
_chemical_formula_sum "Si O2"
_cell_formula_units_Z 104
_cell_length_a 16.005929
_cell_length_b 21.763526
_cell_length_c 13.827520
_cell_angle_alpha 90.000000
_cell_angle_beta 90.000000
_cell_angle_gamma 90.000000
_cell_volume 4816.753704
_symmetry_space_group_name_H-M "C C C A"
_symmetry_group_IT_number 68
_space_group.IT_coordinate_system_code '2'
_symmetry_cell_setting 'orthorhombic'
loop_
_space_group_symop_operation_xyz
x,y,z
-x,1/2-y,z
x,1/2-y,1/2-z
-x,y,1/2-z
-x,-y,-z
x,1/2+y,-z
-x,1/2+y,1/2+z
x,-y,1/2+z
1/2+x,1/2+y,z
1/2-x,-y,z
1/2+x,-y,1/2-z
1/2-x,1/2+y,1/2-z
1/2-x,1/2-y,-z
1/2+x,y,-z
1/2-x,y,1/2+z
1/2+x,1/2-y,1/2+z
loop_
_atom_site_type_symbol
_atom_site_label
_atom_site_fract_x
_atom_site_fract_y
_atom_site_fract_z
Si Si1 0.500000 0.250000 0.372943
Si Si2 0.819060 0.676924 0.568888
Si Si3 0.138716 0.691834 0.512866
Si Si4 0.348507 0.493101 0.154646
Si Si5 0.926949 0.871507 0.115621
Si Si6 0.079015 0.909143 0.695326
Si Si7 0.953788 0.072800 0.031247
O O1 0.568796 0.217377 0.440238
O O2 0.450707 0.191432 0.329465
O O3 0.837281 0.749665 0.578090
O O4 0.721858 0.670976 0.543333
O O5 0.872242 0.651846 0.476528
O O6 0.851827 0.638367 0.659301
O O7 0.098195 0.633278 0.563464
O O8 0.250000 0.500000 0.147916
O O9 0.375310 0.422885 0.171642
O O10 0.384049 0.537397 0.238077
O O11 0.391614 0.517212 0.054949
O O12 0.007934 0.907890 0.072186
O O13 0.000000 0.878869 0.750000
O O14 0.032903 0.936651 0.601128
#
# Coordination Sequence:
#
# PCOD9510005 Si02
#       7
#     8  16  16  16  16  16  16
#     4   8  16  30  52  84 108 136 178 240 300 346
#     4   9  17  32  55  85 113 144 189 248 299 353
#     4   9  16  30  57  86 112 138 185 249 304 348
#     4  11  21  34  51  77 115 156 191 234 290 358
#     4   9  17  32  56  81 109 142 189 241 294 351
#     4   9  20  37  52  75 116 154 189 229 292 369
#     4   9  18  35  55  81 109 143 188 236 295 357
#
# _framework density 21.591307
#
# number of rings (size 3 to 8) (size 9 to 14) (size 15 to 20)
#    0.000    2.769    0.000    2.308    0.000    0.000 
#    0.000   20.769    0.000    0.000    0.000   25.308 
#    0.000    0.000    0.000    0.000    0.000    0.154 
#
# Total GULP energy -289834.875977 kJ/mol
# GULP energy per Si atom -5573.747615 kJ/mol
# Density = 2.154216 g / cm^3
# Si number density = 21.591307 Si / 1000 Ang^3
#
#
#
# Elastic Constant Matrix: (Units=GPa)
#
#
# Indices 1 2 3 4 5 6 
#
# 1 132.0351 66.1262 22.1468 0.0000 0.0000 0.0000
# 2 66.1262 167.5614 33.8300 0.0000 0.0000 0.0000
# 3 22.1468 33.8300 37.8919 0.0000 0.0000 0.0000
# 4 0.0000 0.0000 0.0000 18.7524 0.0000 0.0000
# 5 0.0000 0.0000 0.0000 0.0000 23.6073 0.0000
# 6 0.0000 0.0000 0.0000 0.0000 0.0000 25.8924
#
#
#
# Elastic Compliance Matrix: (Units=1/GPa)
#
#
# Indices 1 2 3 4 5 6 
#
# 1 0.009667 -0.003262 -0.002737 0.000000 0.000000 0.000000
# 2 -0.003262 0.008381 -0.005576 0.000000 0.000000 0.000000
# 3 -0.002737 -0.005576 0.032969 0.000000 0.000000 0.000000
# 4 0.000000 0.000000 0.000000 0.053326 0.000000 0.000000
# 5 0.000000 0.000000 0.000000 0.000000 0.042360 0.000000
# 6 0.000000 0.000000 0.000000 0.000000 0.000000 0.038621
#
#
# Mechanical properties :
#
#
# Convention : Reuss Voigt Hill
#
# Bulk Modulus (GPa) = 35.88650 64.63271 50.25961
# Shear Modulus (GPa) = 22.96060 28.00946 25.48503
#
# Velocity S-wave (km/s) = 3.26455 3.60565 3.43933
# Velocity P-wave (km/s) = 5.55577 6.87996 6.25302
#
# Compressibility (1/GPa) = 0.02786563
#
# Stress axis : x y z
#
# Youngs Moduli (GPa) = 103.44826 119.31585 30.33139
#
# Poissons Ratio (x) = 0.38923 0.08303
# Poissons Ratio (y) = 0.33746 0.16913
# Poissons Ratio (z) = 0.28318 0.66531
#
# Static dielectric constant tensor:
#      x y z
#    x 1.772700 0.000000 0.000000 
#    y 0.000000 1.810510 0.000000 
#    z 0.000000 0.000000 1.825330 
# 
# From -- ./inp_files/31106.got.cif
#   From: 2010.05.17/outbox.cif.g08.bks.cpg/sg68_16_cif.got.tgz:31106.got - 2010.06.03 18:57:09.
