data_PCOD9510539
_publ_section_title
;
Structure prediction by ZEFSAII (Michael W. Deem and Ramdas Pophale) SiO2 
 PCOD9510539
Probable space group: C C C A
;
_chemical_formula_sum "Si O2"
_cell_formula_units_Z 48
_cell_length_a 8.002136
_cell_length_b 17.318968
_cell_length_c 13.512297
_cell_angle_alpha 90.000000
_cell_angle_beta 90.000000
_cell_angle_gamma 90.000000
_cell_volume 1872.652179
_symmetry_space_group_name_H-M "C C C A"
_symmetry_group_IT_number 68
_space_group.IT_coordinate_system_code '2'
_symmetry_cell_setting 'orthorhombic'
loop_
_space_group_symop_operation_xyz
x,y,z
-x,1/2-y,z
x,1/2-y,1/2-z
-x,y,1/2-z
-x,-y,-z
x,1/2+y,-z
-x,1/2+y,1/2+z
x,-y,1/2+z
1/2+x,1/2+y,z
1/2-x,-y,z
1/2+x,-y,1/2-z
1/2-x,1/2+y,1/2-z
1/2-x,1/2-y,-z
1/2+x,y,-z
1/2-x,y,1/2+z
1/2+x,1/2-y,1/2+z
loop_
_atom_site_type_symbol
_atom_site_label
_atom_site_fract_x
_atom_site_fract_y
_atom_site_fract_z
Si Si1 0.250000 0.000000 0.641766
Si Si2 0.000000 0.620809 0.250000
Si Si3 0.063664 0.871202 0.646120
Si Si4 0.257084 0.779297 0.887692
O O1 0.361107 0.937845 0.703811
O O2 0.137042 0.940206 0.582312
O O3 0.087859 0.675807 0.164746
O O4 0.188953 0.799212 0.665811
O O5 0.000000 0.905428 0.750000
O O6 0.895431 0.837816 0.605615
O O7 0.250000 0.750000 0.000000
#
# Coordination Sequence:
#
# PCOD9510539 Si02
#       4
#     8   8  16  16
#     4  12  24  42  82 112 150 210 242 326 396 478
#     4  12  24  47  78 117 150 210 262 309 416 468
#     4  11  24  50  70 108 155 191 257 322 386 461
#     4  11  26  48  76 111 155 202 262 325 382 478
#
# _framework density 25.632097000000002
#
# number of rings (size 3 to 8) (size 9 to 14) (size 15 to 20)
#    0.000    0.667    5.000    2.000    0.000    8.000 
#    0.000    8.333    0.000    0.000    0.000    0.000 
#    0.000    0.000    0.000    0.000    0.000    0.000 
#
# Total GULP energy -133826.174715 kJ/mol
# GULP energy per Si atom -5576.090613 kJ/mol
# Density = 2.557376 g / cm^3
# Si number density = 25.632097 Si / 1000 Ang^3
#
#
#
# Elastic Constant Matrix: (Units=GPa)
#
#
# Indices 1 2 3 4 5 6 
#
# 1 153.8344 115.3669 36.3748 0.0000 0.0000 0.0000
# 2 115.3669 224.7824 49.3521 0.0000 0.0000 0.0000
# 3 36.3748 49.3521 72.9860 0.0000 0.0000 0.0000
# 4 0.0000 0.0000 0.0000 -28.2961 0.0000 0.0000
# 5 0.0000 0.0000 0.0000 0.0000 15.4244 0.0000
# 6 0.0000 0.0000 0.0000 0.0000 0.0000 63.7082
#
#
#
# Elastic Compliance Matrix: (Units=1/GPa)
#
#
# Indices 1 2 3 4 5 6 
#
# 1 0.010792 -0.005118 -0.001918 0.000000 0.000000 0.000000
# 2 -0.005118 0.007651 -0.002623 0.000000 0.000000 0.000000
# 3 -0.001918 -0.002623 0.016431 0.000000 0.000000 0.000000
# 4 0.000000 0.000000 0.000000 -0.035341 0.000000 0.000000
# 5 0.000000 0.000000 0.000000 0.000000 0.064832 0.000000
# 6 0.000000 0.000000 0.000000 0.000000 0.000000 0.015697
#
#
# Mechanical properties :
#
#
# Convention : Reuss Voigt Hill
#
# Bulk Modulus (GPa) = 64.28187 94.86559 79.57373
# Shear Modulus (GPa) = 47.81670 26.86789 37.34230
#
# Velocity S-wave (km/s) = 4.32383 3.24112 3.82102
# Velocity P-wave (km/s) = 7.07534 7.14824 7.11188
#
# Compressibility (1/GPa) = 0.01555648
#
# Stress axis : x y z
#
# Youngs Moduli (GPa) = 92.66070 130.69652 60.86115
#
# Poissons Ratio (x) = 0.66888 0.11673
# Poissons Ratio (y) = 0.47422 0.15964
# Poissons Ratio (z) = 0.17772 0.34283
#
# Static dielectric constant tensor:
#      x y z
#    x 1.976610 0.000000 0.000000 
#    y 0.000000 2.082300 0.000000 
#    z 0.000000 0.000000 2.533170 
# 
# From -- ./inp_files/18839.got.cif
#   From: 2010.05.17/outbox.cif.g08.bks.cpg/sg68_10_cif.got.tgz:18839.got - 2010.06.03 18:57:09.
