data_PCOD9510782
_publ_section_title
;
Structure prediction by ZEFSAII (Michael W. Deem and Ramdas Pophale) SiO2 
 PCOD9510782
Probable space group: C C C A
;
_chemical_formula_sum "Si O2"
_cell_formula_units_Z 64
_cell_length_a 10.345512
_cell_length_b 15.844457
_cell_length_c 19.543987
_cell_angle_alpha 90.000000
_cell_angle_beta 90.000000
_cell_angle_gamma 90.000000
_cell_volume 3203.631196
_symmetry_space_group_name_H-M "C C C A"
_symmetry_group_IT_number 68
_space_group.IT_coordinate_system_code '2'
_symmetry_cell_setting 'orthorhombic'
loop_
_space_group_symop_operation_xyz
x,y,z
-x,1/2-y,z
x,1/2-y,1/2-z
-x,y,1/2-z
-x,-y,-z
x,1/2+y,-z
-x,1/2+y,1/2+z
x,-y,1/2+z
1/2+x,1/2+y,z
1/2-x,-y,z
1/2+x,-y,1/2-z
1/2-x,1/2+y,1/2-z
1/2-x,1/2-y,-z
1/2+x,y,-z
1/2-x,y,1/2+z
1/2+x,1/2-y,1/2+z
loop_
_atom_site_type_symbol
_atom_site_label
_atom_site_fract_x
_atom_site_fract_y
_atom_site_fract_z
Si Si1 0.366747 0.221792 0.048563
Si Si2 0.487489 0.392059 0.830845
Si Si3 0.211355 0.238034 0.330035
Si Si4 0.102272 0.476112 0.941639
O O1 0.500000 0.250000 0.015319
O O2 0.333901 0.264247 0.121102
O O3 0.386986 0.123956 0.064191
O O4 0.250000 0.250000 0.000000
O O5 0.500000 0.411324 0.750000
O O6 0.377783 0.320690 0.844374
O O7 0.622212 0.343524 0.845609
O O8 0.447831 0.472580 0.875289
O O9 0.241808 0.250000 0.250000
O O10 0.250000 0.500000 0.958613
O O11 0.000000 0.500000 0.000000
#
# Coordination Sequence:
#
# PCOD9510782 Si02
#       4
#    16  16  16  16
#     4  12  26  42  64  95 131 173 214 269 326 380
#     4   9  19  40  68  94 122 170 213 260 325 395
#     4   9  19  40  68  92 124 167 214 257 324 397
#     4  12  24  42  65  95 131 169 221 270 318 381
#
# _framework density 19.977331
#
# number of rings (size 3 to 8) (size 9 to 14) (size 15 to 20)
#    0.000    1.500    2.500    4.500    3.500    0.500 
#    4.500    1.250    0.000    0.000    0.000    0.000 
#    0.000    0.000    0.000    0.000    0.000    0.000 
#
# Total GULP energy -178577.761427 kJ/mol
# GULP energy per Si atom -5580.555045 kJ/mol
# Density = 1.993186 g / cm^3
# Si number density = 19.977331 Si / 1000 Ang^3
#
#
#
# Elastic Constant Matrix: (Units=GPa)
#
#
# Indices 1 2 3 4 5 6 
#
# 1 132.4984 41.9138 57.6952 0.0000 0.0000 0.0000
# 2 41.9138 124.5816 47.0751 0.0000 0.0000 0.0000
# 3 57.6952 47.0751 80.8838 0.0000 0.0000 0.0000
# 4 0.0000 0.0000 0.0000 -112.8760 0.0000 0.0000
# 5 0.0000 0.0000 0.0000 0.0000 32.7317 0.0000
# 6 0.0000 0.0000 0.0000 0.0000 0.0000 23.9661
#
#
#
# Elastic Compliance Matrix: (Units=1/GPa)
#
#
# Indices 1 2 3 4 5 6 
#
# 1 0.011034 -0.000946 -0.007320 0.000000 0.000000 0.000000
# 2 -0.000946 0.010371 -0.005361 0.000000 0.000000 0.000000
# 3 -0.007320 -0.005361 0.020705 0.000000 0.000000 0.000000
# 4 0.000000 0.000000 0.000000 -0.008859 0.000000 0.000000
# 5 0.000000 0.000000 0.000000 0.000000 0.030551 0.000000
# 6 0.000000 0.000000 0.000000 0.000000 0.000000 0.041726
#
#
# Mechanical properties :
#
#
# Convention : Reuss Voigt Hill
#
# Bulk Modulus (GPa) = 67.31516 70.14801 68.73159
# Shear Modulus (GPa) = 36.30189 1.51634 18.90911
#
# Velocity S-wave (km/s) = 4.26743 0.87217 3.07991
# Velocity P-wave (km/s) = 7.61907 6.01700 6.86493
#
# Compressibility (1/GPa) = 0.01485549
#
# Stress axis : x y z
#
# Youngs Moduli (GPa) = 90.62912 96.42295 48.29772
#
# Poissons Ratio (x) = 0.09125 0.35353
# Poissons Ratio (y) = 0.08576 0.25892
# Poissons Ratio (z) = 0.66339 0.51692
#
# Static dielectric constant tensor:
#      x y z
#    x 1.749250 0.000000 0.000000 
#    y 0.000000 1.816320 0.000000 
#    z 0.000000 0.000000 1.735220 
# 
# From -- ./inp_files/35731.got.cif
#   From: 2010.05.17/outbox.cif.g08.bks.cpg/sg68_18_cif.got.tgz:35731.got - 2010.06.03 18:57:09.
