data_PCOD9510843
_publ_section_title
;
Structure prediction by ZEFSAII (Michael W. Deem and Ramdas Pophale) SiO2 
 PCOD9510843
Probable space group: C C C A
;
_chemical_formula_sum "Si O2"
_cell_formula_units_Z 64
_cell_length_a 14.195381
_cell_length_b 21.537516
_cell_length_c 8.553392
_cell_angle_alpha 90.000000
_cell_angle_beta 90.000000
_cell_angle_gamma 90.000000
_cell_volume 2615.056295
_symmetry_space_group_name_H-M "C C C A"
_symmetry_group_IT_number 68
_space_group.IT_coordinate_system_code '2'
_symmetry_cell_setting 'orthorhombic'
loop_
_space_group_symop_operation_xyz
x,y,z
-x,1/2-y,z
x,1/2-y,1/2-z
-x,y,1/2-z
-x,-y,-z
x,1/2+y,-z
-x,1/2+y,1/2+z
x,-y,1/2+z
1/2+x,1/2+y,z
1/2-x,-y,z
1/2+x,-y,1/2-z
1/2-x,1/2+y,1/2-z
1/2-x,1/2-y,-z
1/2+x,y,-z
1/2-x,y,1/2+z
1/2+x,1/2-y,1/2+z
loop_
_atom_site_type_symbol
_atom_site_label
_atom_site_fract_x
_atom_site_fract_y
_atom_site_fract_z
Si Si1 0.214385 0.181104 0.696081
Si Si2 0.853971 0.517398 0.737588
Si Si3 0.574620 0.406060 0.032543
Si Si4 0.139532 0.373170 0.495085
O O1 0.189499 0.250000 0.750000
O O2 0.146633 0.149997 0.566866
O O3 0.319587 0.177072 0.627433
O O4 0.195892 0.139069 0.847095
O O5 0.750000 0.500000 0.794442
O O6 0.592813 0.556508 0.371216
O O7 0.907620 0.457786 0.667336
O O8 0.838180 0.562392 0.589692
O O9 0.470920 0.376652 0.029410
#
# Coordination Sequence:
#
# PCOD9510843 Si02
#       4
#    16  16  16  16
#     4  12  28  54  81 113 160 216 268 334 398 466
#     4  12  25  48  81 118 164 207 255 332 415 483
#     4  12  27  49  79 120 161 208 268 327 405 484
#     4  12  27  49  79 115 158 209 265 332 398 482
#
# _framework density 24.473659999999999
#
# number of rings (size 3 to 8) (size 9 to 14) (size 15 to 20)
#    0.000    0.000    2.500    6.750    0.000    4.000 
#    0.000    2.500    0.000    0.000    0.000    0.000 
#    0.000    0.000    0.000    0.000    0.000    0.000 
#
# Total GULP energy -179370.756219 kJ/mol
# GULP energy per Si atom -5605.336132 kJ/mol
# Density = 2.441796 g / cm^3
# Si number density = 24.473660 Si / 1000 Ang^3
#
#
#
# Elastic Constant Matrix: (Units=GPa)
#
#
# Indices 1 2 3 4 5 6 
#
# 1 153.8591 38.6503 90.2253 0.0000 0.0000 0.0000
# 2 38.6503 131.0748 60.3066 0.0000 0.0000 0.0000
# 3 90.2253 60.3066 142.5915 0.0000 0.0000 0.0000
# 4 0.0000 0.0000 0.0000 19.5792 0.0000 0.0000
# 5 0.0000 0.0000 0.0000 0.0000 42.5923 0.0000
# 6 0.0000 0.0000 0.0000 0.0000 0.0000 19.3345
#
#
#
# Elastic Compliance Matrix: (Units=1/GPa)
#
#
# Indices 1 2 3 4 5 6 
#
# 1 0.010334 -0.000048 -0.006519 0.000000 0.000000 0.000000
# 2 -0.000048 0.009473 -0.003976 0.000000 0.000000 0.000000
# 3 -0.006519 -0.003976 0.012819 0.000000 0.000000 0.000000
# 4 0.000000 0.000000 0.000000 0.051075 0.000000 0.000000
# 5 0.000000 0.000000 0.000000 0.000000 0.023478 0.000000
# 6 0.000000 0.000000 0.000000 0.000000 0.000000 0.051721
#
#
# Mechanical properties :
#
#
# Convention : Reuss Voigt Hill
#
# Bulk Modulus (GPa) = 86.64834 89.54330 88.09582
# Shear Modulus (GPa) = 27.19870 32.19076 29.69473
#
# Velocity S-wave (km/s) = 3.33730 3.63067 3.48707
# Velocity P-wave (km/s) = 7.09448 7.36497 7.23099
#
# Compressibility (1/GPa) = 0.01154090
#
# Stress axis : x y z
#
# Youngs Moduli (GPa) = 96.76645 105.56675 78.00756
#
# Poissons Ratio (x) = 0.00507 0.50850
# Poissons Ratio (y) = 0.00465 0.31015
# Poissons Ratio (z) = 0.63079 0.41972
#
# Static dielectric constant tensor:
#      x y z
#    x 1.973690 0.000000 0.000000 
#    y 0.000000 1.957990 0.000000 
#    z 0.000000 0.000000 1.972370 
# 
# From -- ./inp_files/4988.got.cif
#   From: 2010.05.17/outbox.cif.g08.bks.cpg/sg68_3_cif.got.tgz:4988.got - 2010.06.03 18:57:09.
