data_PCOD9510695
_publ_section_title
;
Structure prediction by ZEFSAII (Michael W. Deem and Ramdas Pophale) SiO2 
 PCOD9510695
Probable space group: C C C A
;
_chemical_formula_sum "Si O2"
_cell_formula_units_Z 92
_cell_length_a 21.472230
_cell_length_b 9.390449
_cell_length_c 20.251846
_cell_angle_alpha 90.000000
_cell_angle_beta 90.000000
_cell_angle_gamma 90.000000
_cell_volume 4083.458301
_symmetry_space_group_name_H-M "C C C A"
_symmetry_group_IT_number 68
_space_group.IT_coordinate_system_code '2'
_symmetry_cell_setting 'orthorhombic'
loop_
_space_group_symop_operation_xyz
x,y,z
-x,1/2-y,z
x,1/2-y,1/2-z
-x,y,1/2-z
-x,-y,-z
x,1/2+y,-z
-x,1/2+y,1/2+z
x,-y,1/2+z
1/2+x,1/2+y,z
1/2-x,-y,z
1/2+x,-y,1/2-z
1/2-x,1/2+y,1/2-z
1/2-x,1/2-y,-z
1/2+x,y,-z
1/2-x,y,1/2+z
1/2+x,1/2-y,1/2+z
loop_
_atom_site_type_symbol
_atom_site_label
_atom_site_fract_x
_atom_site_fract_y
_atom_site_fract_z
Si Si1 0.710253 0.356204 0.456039
Si Si2 0.500000 0.750000 0.516317
Si Si3 0.396147 0.168271 0.562443
Si Si4 0.057997 0.915150 0.126155
Si Si5 0.151589 0.794912 0.318705
Si Si6 0.074572 0.561608 0.648823
Si Si7 0.000000 0.750000 0.750000
O O1 0.750000 0.500000 0.445183
O O2 0.750000 0.250000 0.500000
O O3 0.651008 0.374635 0.504693
O O4 0.691271 0.284513 0.386351
O O5 0.535821 0.856349 0.469155
O O6 0.446806 0.823259 0.559251
O O7 0.398921 0.329250 0.592370
O O8 0.397362 0.051841 0.620149
O O9 0.091186 0.809432 0.176906
O O10 0.986023 0.961894 0.134086
O O11 0.183371 0.750000 0.250000
O O12 0.127223 0.956751 0.324280
O O13 0.045127 0.659693 0.704405
#
# Coordination Sequence:
#
# PCOD9510695 Si02
#       7
#    16   8  16  16  16  16   4
#     4  12  27  51  77 101 137 185 244 308 361 416
#     4  12  21  34  69 105 145 176 228 288 358 417
#     4  12  24  41  70 107 144 183 245 293 356 424
#     4  12  21  39  63 105 148 192 223 282 351 436
#     4  12  27  45  71 102 141 189 242 293 358 428
#     4  12  23  40  66 105 154 193 228 281 349 445
#     4  12  22  40  62 104 162 196 228 256 356 432
#
# _framework density 22.529924000000001
#
# number of rings (size 3 to 8) (size 9 to 14) (size 15 to 20)
#    0.000    0.000    6.957    3.652    2.435    0.696 
#    0.000    2.609    3.826    0.000    0.000    0.000 
#    0.000    0.000    0.000    0.000    0.000    0.000 
#
# Total GULP energy -256723.335660 kJ/mol
# GULP energy per Si atom -5580.942080 kJ/mol
# Density = 2.247864 g / cm^3
# Si number density = 22.529924 Si / 1000 Ang^3
#
#
#
# Elastic Constant Matrix: (Units=GPa)
#
#
# Indices 1 2 3 4 5 6 
#
# 1 63.2114 22.4712 33.6176 0.0000 0.0000 0.0000
# 2 22.4712 106.4036 47.4542 0.0000 0.0000 0.0000
# 3 33.6176 47.4542 131.4807 0.0000 0.0000 0.0000
# 4 0.0000 0.0000 0.0000 -314.4696 0.0000 0.0000
# 5 0.0000 0.0000 0.0000 0.0000 19.4782 0.0000
# 6 0.0000 0.0000 0.0000 0.0000 0.0000 34.2876
#
#
#
# Elastic Compliance Matrix: (Units=1/GPa)
#
#
# Indices 1 2 3 4 5 6 
#
# 1 0.018720 -0.002168 -0.004004 0.000000 0.000000 0.000000
# 2 -0.002168 0.011452 -0.003579 0.000000 0.000000 0.000000
# 3 -0.004004 -0.003579 0.009921 0.000000 0.000000 0.000000
# 4 0.000000 0.000000 0.000000 -0.003180 0.000000 0.000000
# 5 0.000000 0.000000 0.000000 0.000000 0.051339 0.000000
# 6 0.000000 0.000000 0.000000 0.000000 0.000000 0.029165
#
#
# Mechanical properties :
#
#
# Convention : Reuss Voigt Hill
#
# Bulk Modulus (GPa) = 48.56319 56.46463 52.51391
# Shear Modulus (GPa) = 34.77451 -38.97057 -2.09803
#
# Velocity S-wave (km/s) = 3.93298 -4.16351 -0.96604
# Velocity P-wave (km/s) = 6.49817 1.41542 4.70264
#
# Compressibility (1/GPa) = 0.02059173
#
# Stress axis : x y z
#
# Youngs Moduli (GPa) = 53.41878 87.31950 100.79411
#
# Poissons Ratio (x) = 0.18928 0.40358
# Poissons Ratio (y) = 0.11580 0.36075
# Poissons Ratio (z) = 0.21389 0.31252
#
# Static dielectric constant tensor:
#      x y z
#    x 2.234730 0.000000 0.000000 
#    y 0.000000 1.546650 0.000000 
#    z 0.000000 0.000000 2.029850 
# 
# From -- ./inp_files/40788.got.cif
#   From: 2010.05.17/outbox.cif.g08.bks.cpg/sg68_21_cif.got.tgz:40788.got - 2010.06.03 18:57:09.
