data_PCOD9510914
_publ_section_title
;
Structure prediction by ZEFSAII (Michael W. Deem and Ramdas Pophale) SiO2 
 PCOD9510914
Probable space group: C C C A
;
_chemical_formula_sum "Si O2"
_cell_formula_units_Z 64
_cell_length_a 13.684205
_cell_length_b 10.541873
_cell_length_c 20.204697
_cell_angle_alpha 90.000000
_cell_angle_beta 90.000000
_cell_angle_gamma 90.000000
_cell_volume 2914.672030
_symmetry_space_group_name_H-M "C C C A"
_symmetry_group_IT_number 68
_space_group.IT_coordinate_system_code '2'
_symmetry_cell_setting 'orthorhombic'
loop_
_space_group_symop_operation_xyz
x,y,z
-x,1/2-y,z
x,1/2-y,1/2-z
-x,y,1/2-z
-x,-y,-z
x,1/2+y,-z
-x,1/2+y,1/2+z
x,-y,1/2+z
1/2+x,1/2+y,z
1/2-x,-y,z
1/2+x,-y,1/2-z
1/2-x,1/2+y,1/2-z
1/2-x,1/2-y,-z
1/2+x,y,-z
1/2-x,y,1/2+z
1/2+x,1/2-y,1/2+z
loop_
_atom_site_type_symbol
_atom_site_label
_atom_site_fract_x
_atom_site_fract_y
_atom_site_fract_z
Si Si1 0.187843 0.294812 0.595918
Si Si2 0.427669 0.550315 0.853147
Si Si3 0.664058 0.105328 0.959330
Si Si4 0.871011 0.108389 0.720232
O O1 0.115100 0.179098 0.614506
O O2 0.287190 0.233697 0.568261
O O3 0.140141 0.373550 0.536038
O O4 0.208306 0.370419 0.663344
O O5 0.417345 0.444229 0.909069
O O6 0.362831 0.524998 0.786467
O O7 0.534395 0.568125 0.822361
O O8 0.750000 0.000000 0.956665
O O9 0.887156 0.250000 0.750000
#
# Coordination Sequence:
#
# PCOD9510914 Si02
#       4
#    16  16  16  16
#     4   9  16  29  45  65  95 125 152 192 241 290
#     4   9  16  29  48  69  91 120 158 202 239 280
#     4   9  18  29  43  66  98 126 153 193 242 289
#     4   9  16  29  49  69  92 121 163 207 239 284
#
# _framework density 21.957872999999999
#
# number of rings (size 3 to 8) (size 9 to 14) (size 15 to 20)
#    0.000    3.000    0.000    5.250    0.000    1.000 
#    0.000    8.750    0.000    0.000    0.000    0.000 
#    0.000  180.000    0.000    0.000    0.000    0.000 
#
# Total GULP energy -178285.319581 kJ/mol
# GULP energy per Si atom -5571.416237 kJ/mol
# Density = 2.190790 g / cm^3
# Si number density = 21.957873 Si / 1000 Ang^3
#
#
#
# Elastic Constant Matrix: (Units=GPa)
#
#
# Indices 1 2 3 4 5 6 
#
# 1 24.0900 4.6986 8.9438 0.0000 0.0000 0.0000
# 2 4.6986 44.4896 42.5434 0.0000 0.0000 0.0000
# 3 8.9438 42.5434 185.3760 0.0000 0.0000 0.0000
# 4 0.0000 0.0000 0.0000 24.8152 0.0000 0.0000
# 5 0.0000 0.0000 0.0000 0.0000 31.4311 0.0000
# 6 0.0000 0.0000 0.0000 0.0000 0.0000 14.0095
#
#
#
# Elastic Compliance Matrix: (Units=1/GPa)
#
#
# Indices 1 2 3 4 5 6 
#
# 1 0.042631 -0.003248 -0.001311 0.000000 0.000000 0.000000
# 2 -0.003248 0.029044 -0.006509 0.000000 0.000000 0.000000
# 3 -0.001311 -0.006509 0.006951 0.000000 0.000000 0.000000
# 4 0.000000 0.000000 0.000000 0.040298 0.000000 0.000000
# 5 0.000000 0.000000 0.000000 0.000000 0.031816 0.000000
# 6 0.000000 0.000000 0.000000 0.000000 0.000000 0.071380
#
#
# Mechanical properties :
#
#
# Convention : Reuss Voigt Hill
#
# Bulk Modulus (GPa) = 17.70222 40.70302 29.20262
# Shear Modulus (GPa) = 19.00505 27.23583 23.12044
#
# Velocity S-wave (km/s) = 2.94517 3.52571 3.24843
# Velocity P-wave (km/s) = 4.43224 5.92885 5.23431
#
# Compressibility (1/GPa) = 0.05649010
#
# Stress axis : x y z
#
# Youngs Moduli (GPa) = 23.45686 34.43002 143.85398
#
# Poissons Ratio (x) = 0.11184 0.18864
# Poissons Ratio (y) = 0.07620 0.93633
# Poissons Ratio (z) = 0.03076 0.22410
#
# Static dielectric constant tensor:
#      x y z
#    x 2.006070 0.000000 0.000000 
#    y 0.000000 1.855190 0.000000 
#    z 0.000000 0.000000 1.869360 
# 
# From -- ./inp_files/31567.got.cif
#   From: 2010.05.17/outbox.cif.g08.bks.cpg/sg68_16_cif.got.tgz:31567.got - 2010.06.03 18:57:09.
