data_PCOD9510055
_publ_section_title
;
Structure prediction by ZEFSAII (Michael W. Deem and Ramdas Pophale) SiO2 
 PCOD9510055
Probable space group: C C C A
;
_chemical_formula_sum "Si O2"
_cell_formula_units_Z 84
_cell_length_a 13.863562
_cell_length_b 9.534291
_cell_length_c 23.862925
_cell_angle_alpha 90.000000
_cell_angle_beta 90.000000
_cell_angle_gamma 90.000000
_cell_volume 3154.183157
_symmetry_space_group_name_H-M "C C C A"
_symmetry_group_IT_number 68
_space_group.IT_coordinate_system_code '2'
_symmetry_cell_setting 'orthorhombic'
loop_
_space_group_symop_operation_xyz
x,y,z
-x,1/2-y,z
x,1/2-y,1/2-z
-x,y,1/2-z
-x,-y,-z
x,1/2+y,-z
-x,1/2+y,1/2+z
x,-y,1/2+z
1/2+x,1/2+y,z
1/2-x,-y,z
1/2+x,-y,1/2-z
1/2-x,1/2+y,1/2-z
1/2-x,1/2-y,-z
1/2+x,y,-z
1/2-x,y,1/2+z
1/2+x,1/2-y,1/2+z
loop_
_atom_site_type_symbol
_atom_site_label
_atom_site_fract_x
_atom_site_fract_y
_atom_site_fract_z
Si Si1 0.886135 0.403786 0.460846
Si Si2 0.699404 0.140743 0.213194
Si Si3 0.119230 0.588724 0.936746
Si Si4 0.500000 0.250000 0.750000
Si Si5 0.913202 0.501248 0.684066
Si Si6 0.079182 0.850707 0.384043
O O1 0.855677 0.460984 0.521563
O O2 0.846599 0.248546 0.448105
O O3 0.865512 0.539370 0.422152
O O4 0.002722 0.398952 0.449320
O O5 0.759840 0.250000 0.250000
O O6 0.655657 0.215590 0.158430
O O7 0.750000 0.000000 0.193268
O O8 0.629227 0.083809 0.263068
O O9 0.140787 0.539055 0.873818
O O10 0.442473 0.149061 0.709277
O O11 0.010064 0.428818 0.660531
O O12 0.000000 0.750000 0.414066
#
# Coordination Sequence:
#
# PCOD9510055 Si02
#       6
#    16  16  16   4  16  16
#     4   9  19  31  54  87 125 159 202 263 323 369
#     4  12  27  42  61  91 129 173 215 268 329 385
#     4   9  19  32  51  89 127 162 201 264 324 373
#     4  12  20  32  58  88 120 164 200 264 310 372
#     4  11  22  36  61  89 128 165 218 259 318 383
#     4  11  21  39  64  90 123 166 215 265 315 383
#
# _framework density 26.631302000000002
#
# number of rings (size 3 to 8) (size 9 to 14) (size 15 to 20)
#    0.000    1.524    3.810    2.286    9.333    0.000 
#    0.000    0.000    0.000    1.143    0.000    5.333 
#    0.000    0.000    0.000    0.000    0.000    0.000 
#
# Total GULP energy -234489.861619 kJ/mol
# GULP energy per Si atom -5583.091943 kJ/mol
# Density = 2.657069 g / cm^3
# Si number density = 26.631302 Si / 1000 Ang^3
#
#
#
# Elastic Constant Matrix: (Units=GPa)
#
#
# Indices 1 2 3 4 5 6 
#
# 1 35.3009 -3.7081 15.4721 0.0000 0.0000 0.0000
# 2 -3.7081 111.4208 48.2194 0.0000 0.0000 0.0000
# 3 15.4721 48.2194 173.7354 0.0000 0.0000 0.0000
# 4 0.0000 0.0000 0.0000 47.2823 0.0000 0.0000
# 5 0.0000 0.0000 0.0000 0.0000 1.8081 0.0000
# 6 0.0000 0.0000 0.0000 0.0000 0.0000 -53.0068
#
#
#
# Elastic Compliance Matrix: (Units=1/GPa)
#
#
# Indices 1 2 3 4 5 6 
#
# 1 0.030057 0.002453 -0.003358 0.000000 0.000000 0.000000
# 2 0.002453 0.010400 -0.003105 0.000000 0.000000 0.000000
# 3 -0.003358 -0.003105 0.006917 0.000000 0.000000 0.000000
# 4 0.000000 0.000000 0.000000 0.021150 0.000000 0.000000
# 5 0.000000 0.000000 0.000000 0.000000 0.553063 0.000000
# 6 0.000000 0.000000 0.000000 0.000000 0.000000 -0.018865
#
#
# Mechanical properties :
#
#
# Convention : Reuss Voigt Hill
#
# Bulk Modulus (GPa) = 25.40930 48.93599 37.17264
# Shear Modulus (GPa) = 8.01464 16.58164 12.29814
#
# Velocity S-wave (km/s) = 1.73667 2.49798 2.15127
# Velocity P-wave (km/s) = 3.68554 5.17060 4.48989
#
# Compressibility (1/GPa) = 0.03935567
#
# Stress axis : x y z
#
# Youngs Moduli (GPa) = 33.26981 96.15008 144.57770
#
# Poissons Ratio (x) = -0.23590 0.48545
# Poissons Ratio (y) = -0.08162 0.44892
# Poissons Ratio (z) = 0.11171 0.29855
#
# Static dielectric constant tensor:
#      x y z
#    x 2.231330 0.000000 0.000000 
#    y 0.000000 2.143880 0.000000 
#    z 0.000000 0.000000 2.044120 
# 
# From -- ./inp_files/46436.got.cif
#   From: 2010.05.17/outbox.cif.g08.bks.cpg/sg68_24_cif.got.tgz:46436.got - 2010.06.03 18:57:09.
