data_PCOD9510229
_publ_section_title
;
Structure prediction by ZEFSAII (Michael W. Deem and Ramdas Pophale) SiO2 
 PCOD9510229
Probable space group: C C C A
;
_chemical_formula_sum "Si O2"
_cell_formula_units_Z 64
_cell_length_a 17.762586
_cell_length_b 7.474959
_cell_length_c 19.877849
_cell_angle_alpha 90.000000
_cell_angle_beta 90.000000
_cell_angle_gamma 90.000000
_cell_volume 2639.273491
_symmetry_space_group_name_H-M "C C C A"
_symmetry_group_IT_number 68
_space_group.IT_coordinate_system_code '2'
_symmetry_cell_setting 'orthorhombic'
loop_
_space_group_symop_operation_xyz
x,y,z
-x,1/2-y,z
x,1/2-y,1/2-z
-x,y,1/2-z
-x,-y,-z
x,1/2+y,-z
-x,1/2+y,1/2+z
x,-y,1/2+z
1/2+x,1/2+y,z
1/2-x,-y,z
1/2+x,-y,1/2-z
1/2-x,1/2+y,1/2-z
1/2-x,1/2-y,-z
1/2+x,y,-z
1/2-x,y,1/2+z
1/2+x,1/2-y,1/2+z
loop_
_atom_site_type_symbol
_atom_site_label
_atom_site_fract_x
_atom_site_fract_y
_atom_site_fract_z
Si Si1 0.327856 0.396747 0.376795
Si Si2 0.837462 0.539678 0.767748
Si Si3 0.578599 0.673581 0.043212
Si Si4 0.623604 0.029957 0.090119
O O1 0.250000 0.500000 0.384321
O O2 0.350202 0.419835 0.298431
O O3 0.390741 0.502729 0.418026
O O4 0.318638 0.194983 0.402558
O O5 0.842197 0.750000 0.750000
O O6 0.750000 0.500000 0.786952
O O7 0.891557 0.504434 0.831171
O O8 0.500000 0.750000 0.069538
O O9 0.637449 0.835076 0.058072
O O10 0.568815 0.616036 0.965740
#
# Coordination Sequence:
#
# PCOD9510229 Si02
#       4
#    16  16  16  16
#     4  11  25  45  73 111 144 186 242 307 375 436
#     4  11  22  43  71 104 145 187 237 307 370 429
#     4  12  27  47  73 102 148 197 243 299 365 440
#     4  12  25  44  73 100 144 190 241 291 366 432
#
# _framework density 24.249098
#
# number of rings (size 3 to 8) (size 9 to 14) (size 15 to 20)
#    0.000    0.500    5.000    4.500    0.000    2.000 
#    0.000    2.500    5.500    0.000    0.000    0.000 
#    0.000    0.000    0.000    0.000    0.000    0.000 
#
# Total GULP energy -178565.899723 kJ/mol
# GULP energy per Si atom -5580.184366 kJ/mol
# Density = 2.419391 g / cm^3
# Si number density = 24.249098 Si / 1000 Ang^3
#
#
#
# Elastic Constant Matrix: (Units=GPa)
#
#
# Indices 1 2 3 4 5 6 
#
# 1 55.1275 22.1410 68.4545 0.0000 0.0000 0.0000
# 2 22.1410 160.2412 35.4398 0.0000 0.0000 0.0000
# 3 68.4545 35.4398 145.9198 0.0000 0.0000 0.0000
# 4 0.0000 0.0000 0.0000 51.3656 0.0000 0.0000
# 5 0.0000 0.0000 0.0000 0.0000 68.8767 0.0000
# 6 0.0000 0.0000 0.0000 0.0000 0.0000 23.7320
#
#
#
# Elastic Compliance Matrix: (Units=1/GPa)
#
#
# Indices 1 2 3 4 5 6 
#
# 1 0.043834 -0.001594 -0.020176 0.000000 0.000000 0.000000
# 2 -0.001594 0.006653 -0.000868 0.000000 0.000000 0.000000
# 3 -0.020176 -0.000868 0.016529 0.000000 0.000000 0.000000
# 4 0.000000 0.000000 0.000000 0.019468 0.000000 0.000000
# 5 0.000000 0.000000 0.000000 0.000000 0.014519 0.000000
# 6 0.000000 0.000000 0.000000 0.000000 0.000000 0.042137
#
#
# Mechanical properties :
#
#
# Convention : Reuss Voigt Hill
#
# Bulk Modulus (GPa) = 46.00061 68.15103 57.07582
# Shear Modulus (GPa) = 25.55402 44.47842 35.01622
#
# Velocity S-wave (km/s) = 3.24977 4.28744 3.80415
# Velocity P-wave (km/s) = 5.75261 7.25776 6.54857
#
# Compressibility (1/GPa) = 0.02173884
#
# Stress axis : x y z
#
# Youngs Moduli (GPa) = 22.81322 150.31211 60.49928
#
# Poissons Ratio (x) = 0.23965 1.22066
# Poissons Ratio (y) = 0.03637 0.05250
# Poissons Ratio (z) = 0.46029 0.13044
#
# Static dielectric constant tensor:
#      x y z
#    x 1.923370 0.000000 0.000000 
#    y 0.000000 1.964500 0.000000 
#    z 0.000000 0.000000 1.958490 
# 
# From -- ./inp_files/39117.got.cif
#   From: 2010.05.17/outbox.cif.g08.bks.cpg/sg68_20_cif.got.tgz:39117.got - 2010.06.03 18:57:09.
