data_PCOD9510381
_publ_section_title
;
Structure prediction by ZEFSAII (Michael W. Deem and Ramdas Pophale) SiO2 
 PCOD9510381
Probable space group: C C C A
;
_chemical_formula_sum "Si O2"
_cell_formula_units_Z 56
_cell_length_a 11.263678
_cell_length_b 10.576158
_cell_length_c 19.194536
_cell_angle_alpha 90.000000
_cell_angle_beta 90.000000
_cell_angle_gamma 90.000000
_cell_volume 2286.576706
_symmetry_space_group_name_H-M "C C C A"
_symmetry_group_IT_number 68
_space_group.IT_coordinate_system_code '2'
_symmetry_cell_setting 'orthorhombic'
loop_
_space_group_symop_operation_xyz
x,y,z
-x,1/2-y,z
x,1/2-y,1/2-z
-x,y,1/2-z
-x,-y,-z
x,1/2+y,-z
-x,1/2+y,1/2+z
x,-y,1/2+z
1/2+x,1/2+y,z
1/2-x,-y,z
1/2+x,-y,1/2-z
1/2-x,1/2+y,1/2-z
1/2-x,1/2-y,-z
1/2+x,y,-z
1/2-x,y,1/2+z
1/2+x,1/2-y,1/2+z
loop_
_atom_site_type_symbol
_atom_site_label
_atom_site_fract_x
_atom_site_fract_y
_atom_site_fract_z
Si Si1 0.879667 0.163749 0.657970
Si Si2 0.580413 0.124854 0.003309
Si Si3 0.000000 0.957457 0.750000
Si Si4 0.314204 0.133099 0.647480
O O1 0.859971 0.118646 0.578839
O O2 0.768705 0.253413 0.672221
O O3 0.000000 0.250000 0.659812
O O4 0.907287 0.048966 0.709455
O O5 0.500000 0.250000 0.003318
O O6 0.661751 0.137224 0.935381
O O7 0.500000 0.000000 0.000000
O O8 0.065965 0.877675 0.691224
O O9 0.250000 0.000000 0.659074
#
# Coordination Sequence:
#
# PCOD9510381 Si02
#       4
#    16  16   8  16
#     4  11  23  46  79 106 156 208 265 332 406 476
#     4  11  23  49  79 115 153 203 275 337 391 479
#     4  12  25  50  75 110 168 205 271 324 414 492
#     4  12  25  47  77 113 153 212 268 328 406 476
#
# _framework density 24.490759000000001
#
# number of rings (size 3 to 8) (size 9 to 14) (size 15 to 20)
#    0.000    0.571    5.714    3.000    0.000    0.000 
#   10.286    1.429    0.000    0.000    0.000    0.000 
#    0.000    0.000    0.000    0.000    0.000    0.000 
#
# Total GULP energy -157081.007679 kJ/mol
# GULP energy per Si atom -5610.035989 kJ/mol
# Density = 2.443502 g / cm^3
# Si number density = 24.490759 Si / 1000 Ang^3
#
#
#
# Elastic Constant Matrix: (Units=GPa)
#
#
# Indices 1 2 3 4 5 6 
#
# 1 78.0568 65.0926 56.2946 0.0000 0.0000 0.0000
# 2 65.0926 149.4603 48.1808 0.0000 0.0000 0.0000
# 3 56.2946 48.1808 212.3932 0.0000 0.0000 0.0000
# 4 0.0000 0.0000 0.0000 -1.5346 0.0000 0.0000
# 5 0.0000 0.0000 0.0000 0.0000 9.6135 0.0000
# 6 0.0000 0.0000 0.0000 0.0000 0.0000 60.1099
#
#
#
# Elastic Compliance Matrix: (Units=1/GPa)
#
#
# Indices 1 2 3 4 5 6 
#
# 1 0.023055 -0.008708 -0.004135 0.000000 0.000000 0.000000
# 2 -0.008708 0.010508 -0.000076 0.000000 0.000000 0.000000
# 3 -0.004135 -0.000076 0.005821 0.000000 0.000000 0.000000
# 4 0.000000 0.000000 0.000000 -0.651617 0.000000 0.000000
# 5 0.000000 0.000000 0.000000 0.000000 0.104021 0.000000
# 6 0.000000 0.000000 0.000000 0.000000 0.000000 0.016636
#
#
# Mechanical properties :
#
#
# Convention : Reuss Voigt Hill
#
# Bulk Modulus (GPa) = 73.81966 86.56071 80.19019
# Shear Modulus (GPa) = -10.84075 31.66056 10.40991
#
# Velocity S-wave (km/s) = -2.10620 3.59939 2.06392
# Velocity P-wave (km/s) = 4.92874 7.25914 6.20434
#
# Compressibility (1/GPa) = 0.01354653
#
# Stress axis : x y z
#
# Youngs Moduli (GPa) = 43.37414 95.16983 171.77757
#
# Poissons Ratio (x) = 0.82872 0.71037
# Poissons Ratio (y) = 0.37770 0.01299
# Poissons Ratio (z) = 0.17937 0.00720
#
# Static dielectric constant tensor:
#      x y z
#    x 1.930560 0.000000 0.000000 
#    y 0.000000 1.901040 0.000000 
#    z 0.000000 0.000000 1.958560 
# 
# From -- ./inp_files/36942.got.cif
#   From: 2010.05.17/outbox.cif.g08.bks.cpg/sg68_19_cif.got.tgz:36942.got - 2010.06.03 18:57:09.
