data_PCOD9510368
_publ_section_title
;
Structure prediction by ZEFSAII (Michael W. Deem and Ramdas Pophale) SiO2 
 PCOD9510368
Probable space group: C C C A
;
_chemical_formula_sum "Si O2"
_cell_formula_units_Z 108
_cell_length_a 28.181817
_cell_length_b 12.194980
_cell_length_c 13.304087
_cell_angle_alpha 90.000000
_cell_angle_beta 90.000000
_cell_angle_gamma 90.000000
_cell_volume 4572.304646
_symmetry_space_group_name_H-M "C C C A"
_symmetry_group_IT_number 68
_space_group.IT_coordinate_system_code '2'
_symmetry_cell_setting 'orthorhombic'
loop_
_space_group_symop_operation_xyz
x,y,z
-x,1/2-y,z
x,1/2-y,1/2-z
-x,y,1/2-z
-x,-y,-z
x,1/2+y,-z
-x,1/2+y,1/2+z
x,-y,1/2+z
1/2+x,1/2+y,z
1/2-x,-y,z
1/2+x,-y,1/2-z
1/2-x,1/2+y,1/2-z
1/2-x,1/2-y,-z
1/2+x,y,-z
1/2-x,y,1/2+z
1/2+x,1/2-y,1/2+z
loop_
_atom_site_type_symbol
_atom_site_label
_atom_site_fract_x
_atom_site_fract_y
_atom_site_fract_z
Si Si1 0.000000 0.750000 0.250000
Si Si2 0.848871 0.366880 0.868271
Si Si3 0.126331 0.577028 0.728784
Si Si4 0.150940 0.996449 0.072122
Si Si5 0.947088 0.297664 0.355206
Si Si6 0.728804 0.311051 0.098341
Si Si7 0.195534 0.250000 0.250000
Si Si8 0.426016 0.805122 0.588314
O O1 0.968103 0.819597 0.330122
O O2 0.851663 0.456449 0.782397
O O3 0.807321 0.280114 0.859905
O O4 0.896542 0.297036 0.870181
O O5 0.844163 0.438159 0.968785
O O6 0.132118 0.587719 0.848334
O O7 0.076098 0.582651 0.669816
O O8 0.162789 0.667155 0.685288
O O9 0.198826 0.922389 0.082199
O O10 0.108012 0.909280 0.076614
O O11 0.924605 0.250000 0.250000
O O12 0.937620 0.277065 0.472157
O O13 0.000000 0.250000 0.347731
O O14 0.771283 0.321793 0.177557
O O15 0.750000 0.250000 0.000000
#
# Coordination Sequence:
#
# PCOD9510368 Si02
#       8
#     4  16  16  16  16  16   8  16
#     4  12  24  46  74 100 148 182 230 298 376 436
#     4  11  24  42  71  99 141 188 243 290 364 438
#     4  12  24  43  69 101 136 196 237 304 369 435
#     4  11  24  44  72 100 148 189 246 297 369 439
#     4  11  23  45  75 101 140 184 241 305 371 438
#     4  11  25  42  65 106 145 192 240 304 359 425
#     4  12  26  41  67  98 146 187 249 294 364 426
#     4  11  24  47  71 105 144 191 232 312 371 439
#
# _framework density 23.620473
#
# number of rings (size 3 to 8) (size 9 to 14) (size 15 to 20)
#    0.000    0.741    2.963    4.444    2.074    7.704 
#    0.000   10.370    0.000    0.000    0.000    0.000 
#    0.000    0.000    0.000    0.000    0.000    0.000 
#
# Total GULP energy -301025.087390 kJ/mol
# GULP energy per Si atom -5574.538655 kJ/mol
# Density = 2.356671 g / cm^3
# Si number density = 23.620473 Si / 1000 Ang^3
#
#
#
# Elastic Constant Matrix: (Units=GPa)
#
#
# Indices 1 2 3 4 5 6 
#
# 1 131.2404 35.3174 45.5413 0.0000 0.0000 0.0000
# 2 35.3174 87.6587 12.3917 0.0000 0.0000 0.0000
# 3 45.5413 12.3917 139.9417 0.0000 0.0000 0.0000
# 4 0.0000 0.0000 0.0000 42.0976 0.0000 0.0000
# 5 0.0000 0.0000 0.0000 0.0000 32.3636 0.0000
# 6 0.0000 0.0000 0.0000 0.0000 0.0000 13.4257
#
#
#
# Elastic Compliance Matrix: (Units=1/GPa)
#
#
# Indices 1 2 3 4 5 6 
#
# 1 0.009514 -0.003438 -0.002792 0.000000 0.000000 0.000000
# 2 -0.003438 0.012795 -0.000014 0.000000 0.000000 0.000000
# 3 -0.002792 -0.000014 0.008056 0.000000 0.000000 0.000000
# 4 0.000000 0.000000 0.000000 0.023754 0.000000 0.000000
# 5 0.000000 0.000000 0.000000 0.000000 0.030899 0.000000
# 6 0.000000 0.000000 0.000000 0.000000 0.000000 0.074484
#
#
# Mechanical properties :
#
#
# Convention : Reuss Voigt Hill
#
# Bulk Modulus (GPa) = 55.93982 60.59351 58.26667
# Shear Modulus (GPa) = 28.09803 35.28340 31.69071
#
# Velocity S-wave (km/s) = 3.45275 3.86912 3.66685
# Velocity P-wave (km/s) = 6.29519 6.75786 6.53063
#
# Compressibility (1/GPa) = 0.01787635
#
# Stress axis : x y z
#
# Youngs Moduli (GPa) = 105.11305 78.15452 124.13831
#
# Poissons Ratio (x) = 0.26872 0.34654
# Poissons Ratio (y) = 0.36142 0.00174
# Poissons Ratio (z) = 0.29343 0.00110
#
# Static dielectric constant tensor:
#      x y z
#    x 1.935180 0.000000 0.000000 
#    y 0.000000 2.095010 0.000000 
#    z 0.000000 0.000000 1.944980 
# 
# From -- ./inp_files/26469.got.cif
#   From: 2010.05.17/outbox.cif.g08.bks.cpg/sg68_14_cif.got.tgz:26469.got - 2010.06.03 18:57:09.
