data_PCOD9510506
_publ_section_title
;
Structure prediction by ZEFSAII (Michael W. Deem and Ramdas Pophale) SiO2 
 PCOD9510506
Probable space group: C C C A
;
_chemical_formula_sum "Si O2"
_cell_formula_units_Z 88
_cell_length_a 14.085287
_cell_length_b 11.581837
_cell_length_c 25.300034
_cell_angle_alpha 90.000000
_cell_angle_beta 90.000000
_cell_angle_gamma 90.000000
_cell_volume 4127.283049
_symmetry_space_group_name_H-M "C C C A"
_symmetry_group_IT_number 68
_space_group.IT_coordinate_system_code '2'
_symmetry_cell_setting 'orthorhombic'
loop_
_space_group_symop_operation_xyz
x,y,z
-x,1/2-y,z
x,1/2-y,1/2-z
-x,y,1/2-z
-x,-y,-z
x,1/2+y,-z
-x,1/2+y,1/2+z
x,-y,1/2+z
1/2+x,1/2+y,z
1/2-x,-y,z
1/2+x,-y,1/2-z
1/2-x,1/2+y,1/2-z
1/2-x,1/2-y,-z
1/2+x,y,-z
1/2-x,y,1/2+z
1/2+x,1/2-y,1/2+z
loop_
_atom_site_type_symbol
_atom_site_label
_atom_site_fract_x
_atom_site_fract_y
_atom_site_fract_z
Si Si1 0.250000 0.000000 0.415405
Si Si2 0.250000 0.500000 0.778383
Si Si3 0.395879 0.375048 0.652042
Si Si4 0.456868 0.433483 0.306041
Si Si5 0.316118 0.250000 0.750000
Si Si6 0.500000 0.750000 0.439658
Si Si7 0.073685 0.593234 0.023492
Si Si8 0.000000 0.750000 0.116474
O O1 0.204520 0.090340 0.374016
O O2 0.329797 0.040703 0.456139
O O3 0.355554 0.502422 0.803464
O O4 0.255807 0.369916 0.753156
O O5 0.458061 0.481232 0.674631
O O6 0.379740 0.279301 0.697798
O O7 0.452990 0.337510 0.600432
O O8 0.500000 0.394915 0.250000
O O9 0.437133 0.325127 0.343956
O O10 0.423478 0.690229 0.477946
O O11 0.039178 0.655249 0.076608
O O12 0.000000 0.500000 0.000000
#
# Coordination Sequence:
#
# PCOD9510506 Si02
#       8
#     8   8  16  16   8   8  16   8
#     4  12  25  48  83 100 148 204 247 323 398 474
#     4  12  29  44  75 108 160 210 263 311 392 462
#     4  12  26  48  75 110 152 200 254 313 398 463
#     4  12  26  47  70 112 156 203 255 330 384 488
#     4  12  28  49  75 118 160 212 267 320 387 498
#     4  11  24  45  75 101 145 188 249 326 378 462
#     4  11  24  50  70 109 144 190 257 325 390 462
#     4  11  25  46  79 103 156 197 261 336 398 452
#
# _framework density 21.321532999999999
#
# number of rings (size 3 to 8) (size 9 to 14) (size 15 to 20)
#    0.000    0.364    5.455    1.909    5.091    1.455 
#    0.000    4.545    0.000    0.000    0.000    0.000 
#    0.000    0.000    0.000    0.000    0.000    0.000 
#
# Total GULP energy -245051.929128 kJ/mol
# GULP energy per Si atom -5569.362026 kJ/mol
# Density = 2.127300 g / cm^3
# Si number density = 21.321533 Si / 1000 Ang^3
#
#
#
# Elastic Constant Matrix: (Units=GPa)
#
#
# Indices 1 2 3 4 5 6 
#
# 1 104.5624 37.0866 51.0898 0.0000 0.0000 0.0000
# 2 37.0866 110.7770 53.3911 0.0000 0.0000 0.0000
# 3 51.0898 53.3911 163.6073 0.0000 0.0000 0.0000
# 4 0.0000 0.0000 0.0000 81.6594 0.0000 0.0000
# 5 0.0000 0.0000 0.0000 0.0000 1579.6018 0.0000
# 6 0.0000 0.0000 0.0000 0.0000 0.0000 23.1240
#
#
#
# Elastic Compliance Matrix: (Units=1/GPa)
#
#
# Indices 1 2 3 4 5 6 
#
# 1 0.011884 -0.002599 -0.002863 0.000000 0.000000 0.000000
# 2 -0.002599 0.011280 -0.002870 0.000000 0.000000 0.000000
# 3 -0.002863 -0.002870 0.007943 0.000000 0.000000 0.000000
# 4 0.000000 0.000000 0.000000 0.012246 0.000000 0.000000
# 5 0.000000 0.000000 0.000000 0.000000 0.000633 0.000000
# 6 0.000000 0.000000 0.000000 0.000000 0.000000 0.043245
#
#
# Mechanical properties :
#
#
# Convention : Reuss Voigt Hill
#
# Bulk Modulus (GPa) = 69.23132 73.56464 71.39798
# Shear Modulus (GPa) = 45.99426 352.70231 199.34829
#
# Velocity S-wave (km/s) = 4.64958 12.87555 9.67983
# Velocity P-wave (km/s) = 7.83361 15.98803 12.58933
#
# Compressibility (1/GPa) = 0.01444433
#
# Stress axis : x y z
#
# Youngs Moduli (GPa) = 84.14448 88.65040 125.90156
#
# Poissons Ratio (x) = 0.23038 0.36046
# Poissons Ratio (y) = 0.21867 0.36129
# Poissons Ratio (z) = 0.24091 0.25439
#
# Static dielectric constant tensor:
#      x y z
#    x 1.823340 0.000000 0.000000 
#    y 0.000000 1.866810 0.000000 
#    z 0.000000 0.000000 2.058690 
# 
# From -- ./inp_files/44313.got.cif
#   From: 2010.05.17/outbox.cif.g08.bks.cpg/sg68_23_cif.got.tgz:44313.got - 2010.06.03 18:57:09.
