data_PCOD9510059
_publ_section_title
;
Structure prediction by ZEFSAII (Michael W. Deem and Ramdas Pophale) SiO2 
 PCOD9510059
Probable space group: C C C A
;
_chemical_formula_sum "Si O2"
_cell_formula_units_Z 116
_cell_length_a 9.639379
_cell_length_b 22.362200
_cell_length_c 25.414779
_cell_angle_alpha 90.000000
_cell_angle_beta 90.000000
_cell_angle_gamma 90.000000
_cell_volume 5478.351843
_symmetry_space_group_name_H-M "C C C A"
_symmetry_group_IT_number 68
_space_group.IT_coordinate_system_code '2'
_symmetry_cell_setting 'orthorhombic'
loop_
_space_group_symop_operation_xyz
x,y,z
-x,1/2-y,z
x,1/2-y,1/2-z
-x,y,1/2-z
-x,-y,-z
x,1/2+y,-z
-x,1/2+y,1/2+z
x,-y,1/2+z
1/2+x,1/2+y,z
1/2-x,-y,z
1/2+x,-y,1/2-z
1/2-x,1/2+y,1/2-z
1/2-x,1/2-y,-z
1/2+x,y,-z
1/2-x,y,1/2+z
1/2+x,1/2-y,1/2+z
loop_
_atom_site_type_symbol
_atom_site_label
_atom_site_fract_x
_atom_site_fract_y
_atom_site_fract_z
Si Si1 0.631954 0.950910 0.564529
Si Si2 0.661726 0.631295 0.393705
Si Si3 0.398346 0.113442 0.544862
Si Si4 0.473851 0.318106 0.811307
Si Si5 0.231970 0.261989 0.437820
Si Si6 0.344649 0.174555 0.159786
Si Si7 0.157016 0.051873 0.613425
Si Si8 0.000000 0.250000 0.750000
O O1 0.704386 0.909789 0.608637
O O2 0.609282 0.906709 0.515191
O O3 0.480134 0.971685 0.583510
O O4 0.750000 0.000000 0.551299
O O5 0.551701 0.601825 0.433673
O O6 0.580145 0.638628 0.339852
O O7 0.697117 0.697702 0.413728
O O8 0.378053 0.183654 0.558440
O O9 0.269192 0.080684 0.573004
O O10 0.500000 0.250000 0.829225
O O11 0.500000 0.320158 0.750000
O O12 0.317214 0.331844 0.825897
O O13 0.250000 0.250000 0.500000
O O14 0.346156 0.289391 0.396465
O O15 0.392672 0.106998 0.149312
O O16 0.413343 0.209107 0.208750
O O17 0.250000 0.000000 0.639770
#
# Coordination Sequence:
#
# PCOD9510059 Si02
#       8
#    16  16  16  16  16  16  16   4
#     4  12  27  40  65 100 133 190 241 293 341 425
#     4  12  22  41  66 100 140 176 235 288 351 436
#     4  11  22  41  63  98 141 190 231 286 354 424
#     4  11  21  39  70  97 130 169 226 281 353 424
#     4  11  22  40  64 107 149 187 229 284 367 443
#     4  11  26  44  71 107 141 197 225 307 359 427
#     4  11  25  46  68  94 141 190 240 292 359 424
#     4  12  28  48  74 112 156 180 260 298 376 440
#
# _framework density 21.174251000000002
#
# number of rings (size 3 to 8) (size 9 to 14) (size 15 to 20)
#    0.000    0.690    5.517    3.310    3.862    1.655 
#    0.000    0.000    1.517    0.828    0.000    0.000 
#    0.000    0.000    0.000    0.000    0.000    0.000 
#
# Total GULP energy -323675.694040 kJ/mol
# GULP energy per Si atom -5580.615414 kJ/mol
# Density = 2.112606 g / cm^3
# Si number density = 21.174251 Si / 1000 Ang^3
#
#
#
# Elastic Constant Matrix: (Units=GPa)
#
#
# Indices 1 2 3 4 5 6 
#
# 1 88.8321 28.8430 10.4908 0.0000 0.0000 0.0000
# 2 28.8430 86.9726 14.4623 0.0000 0.0000 0.0000
# 3 10.4908 14.4623 93.2246 0.0000 0.0000 0.0000
# 4 0.0000 0.0000 0.0000 37.3332 0.0000 0.0000
# 5 0.0000 0.0000 0.0000 0.0000 16.4303 0.0000
# 6 0.0000 0.0000 0.0000 0.0000 0.0000 27.2979
#
#
#
# Elastic Compliance Matrix: (Units=1/GPa)
#
#
# Indices 1 2 3 4 5 6 
#
# 1 0.012673 -0.004071 -0.000795 0.000000 0.000000 0.000000
# 2 -0.004071 0.013110 -0.001576 0.000000 0.000000 0.000000
# 3 -0.000795 -0.001576 0.011061 0.000000 0.000000 0.000000
# 4 0.000000 0.000000 0.000000 0.026786 0.000000 0.000000
# 5 0.000000 0.000000 0.000000 0.000000 0.060863 0.000000
# 6 0.000000 0.000000 0.000000 0.000000 0.000000 0.036633
#
#
# Mechanical properties :
#
#
# Convention : Reuss Voigt Hill
#
# Bulk Modulus (GPa) = 41.73370 41.84679 41.79025
# Shear Modulus (GPa) = 27.47346 30.56117 29.01731
#
# Velocity S-wave (km/s) = 3.60598 3.80322 3.70592
# Velocity P-wave (km/s) = 6.09015 6.25236 6.17179
#
# Compressibility (1/GPa) = 0.02396145
#
# Stress axis : x y z
#
# Youngs Moduli (GPa) = 78.90974 76.27867 90.41060
#
# Poissons Ratio (x) = 0.31050 0.07184
# Poissons Ratio (y) = 0.32121 0.14246
# Poissons Ratio (z) = 0.06270 0.12019
#
# Static dielectric constant tensor:
#      x y z
#    x 1.787130 0.000000 0.000000 
#    y 0.000000 1.865500 0.000000 
#    z 0.000000 0.000000 1.757280 
# 
# From -- ./inp_files/49655.got.cif
#   From: 2010.05.17/outbox.cif.g08.bks.cpg/sg68_25_cif.got.tgz:49655.got - 2010.06.03 18:57:09.
