data_PCOD9510965
_publ_section_title
;
Structure prediction by ZEFSAII (Michael W. Deem and Ramdas Pophale) SiO2 
 PCOD9510965
Probable space group: C C C A
;
_chemical_formula_sum "Si O2"
_cell_formula_units_Z 40
_cell_length_a 9.000000
_cell_length_b 18.000000
_cell_length_c 27.000000
_cell_angle_alpha 90.000000
_cell_angle_beta 90.000000
_cell_angle_gamma 90.000000
_cell_volume 4374.000000
_symmetry_space_group_name_H-M "C C C A"
_symmetry_group_IT_number 68
_space_group.IT_coordinate_system_code '2'
_symmetry_cell_setting 'orthorhombic'
loop_
_space_group_symop_operation_xyz
x,y,z
-x,1/2-y,z
x,1/2-y,1/2-z
-x,y,1/2-z
-x,-y,-z
x,1/2+y,-z
-x,1/2+y,1/2+z
x,-y,1/2+z
1/2+x,1/2+y,z
1/2-x,-y,z
1/2+x,-y,1/2-z
1/2-x,1/2+y,1/2-z
1/2-x,1/2-y,-z
1/2+x,y,-z
1/2-x,y,1/2+z
1/2+x,1/2-y,1/2+z
loop_
_atom_site_type_symbol
_atom_site_label
_atom_site_fract_x
_atom_site_fract_y
_atom_site_fract_z
Si Si1 0.228564 0.911830 0.447105
Si Si2 0.832841 0.149635 0.658050
Si Si3 0.169432 0.839880 0.741874
Si Si4 0.673273 0.827311 0.858798
Si Si5 0.423104 0.832827 0.530946
O O1 0.243404 0.891551 0.388574
O O2 0.333453 0.861073 0.482717
O O3 0.061026 0.888034 0.460788
O O4 0.250000 0.000000 0.454971
O O5 0.769261 0.130525 0.712328
O O6 0.816132 0.238182 0.648172
O O7 0.010716 0.141133 0.655396
O O8 0.175963 0.750000 0.750000
O O9 0.220094 0.856834 0.685360
O O10 0.000000 0.863343 0.750000
O O11 0.679147 0.837375 0.918833
O O12 0.500000 0.750000 0.527567
#
# Coordination Sequence:
#
# PCOD9510965 Si02
#       5
#    16  16  16  16  16
#     4  11  23  38  57  83 120 157 193 241 299 354
#     4   9  17  32  51  76 108 148 187 225 285 344
#     4   9  17  28  47  81 112 138 178 236 290 330
#     4   9  16  31  53  78 107 142 189 235 275 336
#     4  11  21  38  59  87 115 153 204 243 288 346
#
# _framework density 9.1449470000000002
#
# number of rings (size 3 to 8) (size 9 to 14) (size 15 to 20)
#    0.000    2.200    4.000    1.800    0.000    4.000 
#    3.600    0.000    0.000    6.000    0.000    0.000 
#    0.000    0.000    0.000    0.000    0.000    0.000 
#
# Total GULP energy -222743.502284 kJ/mol
# GULP energy per Si atom -5568.587557 kJ/mol
# Density = 0.912413 g / cm^3
# Si number density = 9.144947 Si / 1000 Ang^3
#
#
#
# Elastic Constant Matrix: (Units=GPa)
#
#
# Indices 1 2 3 4 5 6 
#
# 1 62.6071 27.1637 53.2613 0.0000 0.0000 0.0000
# 2 27.1637 57.5940 39.4698 0.0000 0.0000 0.0000
# 3 53.2613 39.4698 139.8876 0.0000 0.0000 0.0000
# 4 0.0000 0.0000 0.0000 16.6466 0.0000 0.0000
# 5 0.0000 0.0000 0.0000 0.0000 39.3506 0.0000
# 6 0.0000 0.0000 0.0000 0.0000 0.0000 18.3978
#
#
#
# Elastic Compliance Matrix: (Units=1/GPa)
#
#
# Indices 1 2 3 4 5 6 
#
# 1 0.025538 -0.006671 -0.007841 0.000000 0.000000 0.000000
# 2 -0.006671 0.023268 -0.004025 0.000000 0.000000 0.000000
# 3 -0.007841 -0.004025 0.011270 0.000000 0.000000 0.000000
# 4 0.000000 0.000000 0.000000 0.060072 0.000000 0.000000
# 5 0.000000 0.000000 0.000000 0.000000 0.025413 0.000000
# 6 0.000000 0.000000 0.000000 0.000000 0.000000 0.054354
#
#
# Mechanical properties :
#
#
# Convention : Reuss Voigt Hill
#
# Bulk Modulus (GPa) = 43.47701 55.54204 49.50953
# Shear Modulus (GPa) = 20.43693 24.22528 22.33110
#
# Velocity S-wave (km/s) = 3.34636 3.64334 3.49800
# Velocity P-wave (km/s) = 6.22523 6.93773 6.59112
#
# Compressibility (1/GPa) = 0.02300066
#
# Stress axis : x y z
#
# Youngs Moduli (GPa) = 39.15804 42.97804 88.73349
#
# Poissons Ratio (x) = 0.28671 0.69576
# Poissons Ratio (y) = 0.26122 0.35716
# Poissons Ratio (z) = 0.30704 0.17299
#
# Static dielectric constant tensor:
#      x y z
#    x 1.647540 0.000000 0.000000 
#    y 0.000000 1.623380 0.000000 
#    z 0.000000 0.000000 1.655640 
# 
# From -- ./inp_files/49135.got.cif
#   From: 2010.05.17/outbox.ucp.g08.bks.cvg/sg68_25_cif.got.tgz:49135.got - 2010.06.11 16:49:25.
