data_PCOD9510728
_publ_section_title
;
Structure prediction by ZEFSAII (Michael W. Deem and Ramdas Pophale) SiO2 
 PCOD9510728
Probable space group: C C C A
;
_chemical_formula_sum "Si O2"
_cell_formula_units_Z 56
_cell_length_a 10.632923
_cell_length_b 19.741928
_cell_length_c 12.283856
_cell_angle_alpha 90.000000
_cell_angle_beta 90.000000
_cell_angle_gamma 90.000000
_cell_volume 2578.558266
_symmetry_space_group_name_H-M "C C C A"
_symmetry_group_IT_number 68
_space_group.IT_coordinate_system_code '2'
_symmetry_cell_setting 'orthorhombic'
loop_
_space_group_symop_operation_xyz
x,y,z
-x,1/2-y,z
x,1/2-y,1/2-z
-x,y,1/2-z
-x,-y,-z
x,1/2+y,-z
-x,1/2+y,1/2+z
x,-y,1/2+z
1/2+x,1/2+y,z
1/2-x,-y,z
1/2+x,-y,1/2-z
1/2-x,1/2+y,1/2-z
1/2-x,1/2-y,-z
1/2+x,y,-z
1/2-x,y,1/2+z
1/2+x,1/2-y,1/2+z
loop_
_atom_site_type_symbol
_atom_site_label
_atom_site_fract_x
_atom_site_fract_y
_atom_site_fract_z
Si Si1 0.550071 0.822533 0.577090
Si Si2 0.500000 0.576805 0.750000
Si Si3 0.750000 0.000000 0.765793
Si Si4 0.733376 0.750000 0.750000
Si Si5 0.108721 0.871030 0.657482
O O1 0.500000 0.750000 0.538907
O O2 0.466315 0.872228 0.651369
O O3 0.655728 0.795665 0.662903
O O4 0.573320 0.863892 0.468161
O O5 0.377523 0.533195 0.712976
O O6 0.807769 0.937686 0.830740
O O7 0.816712 0.697176 0.684710
O O8 0.000000 0.875746 0.750000
#
# Coordination Sequence:
#
# PCOD9510728 Si02
#       5
#    16   8   8   8  16
#     4  12  23  46  77 108 147 197 253 315 382 452
#     4  12  25  50  74 105 152 202 258 304 384 453
#     4  12  26  50  72 108 158 202 252 312 378 458
#     4  12  22  46  74 110 150 196 252 314 386 452
#     4  12  27  45  72 113 154 194 254 319 377 447
#
# _framework density 21.717562000000001
#
# number of rings (size 3 to 8) (size 9 to 14) (size 15 to 20)
#    0.000    0.000    7.143    3.000    0.000    4.571 
#    0.000    0.000    0.000    0.000    0.000    0.000 
#    0.000    0.000    0.000    0.000    0.000    0.000 
#
# Total GULP energy -156043.956823 kJ/mol
# GULP energy per Si atom -5572.998458 kJ/mol
# Density = 2.166813 g / cm^3
# Si number density = 21.717562 Si / 1000 Ang^3
#
#
#
# Elastic Constant Matrix: (Units=GPa)
#
#
# Indices 1 2 3 4 5 6 
#
# 1 94.4612 34.4883 38.9736 0.0000 0.0000 0.0000
# 2 34.4883 122.3706 29.7466 0.0000 0.0000 0.0000
# 3 38.9736 29.7466 137.5395 0.0000 0.0000 0.0000
# 4 0.0000 0.0000 0.0000 6.1615 0.0000 0.0000
# 5 0.0000 0.0000 0.0000 0.0000 41.2159 0.0000
# 6 0.0000 0.0000 0.0000 0.0000 0.0000 80.8214
#
#
#
# Elastic Compliance Matrix: (Units=1/GPa)
#
#
# Indices 1 2 3 4 5 6 
#
# 1 0.012893 -0.002898 -0.003027 0.000000 0.000000 0.000000
# 2 -0.002898 0.009277 -0.001185 0.000000 0.000000 0.000000
# 3 -0.003027 -0.001185 0.008385 0.000000 0.000000 0.000000
# 4 0.000000 0.000000 0.000000 0.162299 0.000000 0.000000
# 5 0.000000 0.000000 0.000000 0.000000 0.024262 0.000000
# 6 0.000000 0.000000 0.000000 0.000000 0.000000 0.012373
#
#
# Mechanical properties :
#
#
# Convention : Reuss Voigt Hill
#
# Bulk Modulus (GPa) = 61.21874 62.30982 61.76428
# Shear Modulus (GPa) = 20.06798 42.38396 31.22597
#
# Velocity S-wave (km/s) = 3.04311 4.42248 3.79597
# Velocity P-wave (km/s) = 6.37159 7.40480 6.90754
#
# Compressibility (1/GPa) = 0.01633487
#
# Stress axis : x y z
#
# Youngs Moduli (GPa) = 77.56023 107.79637 119.26612
#
# Poissons Ratio (x) = 0.31239 0.36098
# Poissons Ratio (y) = 0.22477 0.14135
# Poissons Ratio (z) = 0.23475 0.12776
#
# Static dielectric constant tensor:
#      x y z
#    x 1.931900 0.000000 0.000000 
#    y 0.000000 1.774210 0.000000 
#    z 0.000000 0.000000 1.385240 
# 
# From -- ./inp_files/11456.got.cif
#   From: 2010.05.17/outbox.cif.g08.bks.cpg/sg68_6_cif.got.tgz:11456.got - 2010.06.03 18:57:09.
