data_PCOD9510682
_publ_section_title
;
Structure prediction by ZEFSAII (Michael W. Deem and Ramdas Pophale) SiO2 
 PCOD9510682
Probable space group: C C C A
;
_chemical_formula_sum "Si O2"
_cell_formula_units_Z 72
_cell_length_a 9.209351
_cell_length_b 15.743669
_cell_length_c 22.492517
_cell_angle_alpha 90.000000
_cell_angle_beta 90.000000
_cell_angle_gamma 90.000000
_cell_volume 3261.166959
_symmetry_space_group_name_H-M "C C C A"
_symmetry_group_IT_number 68
_space_group.IT_coordinate_system_code '2'
_symmetry_cell_setting 'orthorhombic'
loop_
_space_group_symop_operation_xyz
x,y,z
-x,1/2-y,z
x,1/2-y,1/2-z
-x,y,1/2-z
-x,-y,-z
x,1/2+y,-z
-x,1/2+y,1/2+z
x,-y,1/2+z
1/2+x,1/2+y,z
1/2-x,-y,z
1/2+x,-y,1/2-z
1/2-x,1/2+y,1/2-z
1/2-x,1/2-y,-z
1/2+x,y,-z
1/2-x,y,1/2+z
1/2+x,1/2-y,1/2+z
loop_
_atom_site_type_symbol
_atom_site_label
_atom_site_fract_x
_atom_site_fract_y
_atom_site_fract_z
Si Si1 0.682130 0.658312 0.988214
Si Si2 0.265248 0.743970 0.316263
Si Si3 0.966189 0.438094 0.444680
Si Si4 0.013545 0.898813 0.817123
Si Si5 0.500000 0.250000 0.098838
O O1 0.808506 0.600592 0.960733
O O2 0.550639 0.672390 0.942223
O O3 0.750000 0.750000 0.000000
O O4 0.600413 0.627269 0.046932
O O5 0.203747 0.750000 0.250000
O O6 0.351619 0.832868 0.324668
O O7 0.378292 0.666538 0.319048
O O8 0.138841 0.729980 0.362375
O O9 0.974848 0.460272 0.374546
O O10 0.000000 0.500000 0.500000
O O11 0.000000 0.936569 0.750000
#
# Coordination Sequence:
#
# PCOD9510682 Si02
#       5
#    16  16  16  16   8
#     4  12  24  40  64  94 127 176 219 278 333 396
#     4   9  18  32  58  96 131 167 219 281 332 394
#     4  12  25  42  64  96 136 171 223 279 339 402
#     4   9  19  37  63  90 125 176 227 269 331 408
#     4  12  19  32  60  92 133 162 220 272 334 382
#
# _framework density 22.077985000000002
#
# number of rings (size 3 to 8) (size 9 to 14) (size 15 to 20)
#    0.000    1.333    4.444    3.667    3.111    0.000 
#    0.000    0.000    0.000    8.000    0.000    0.000 
#    0.000    0.000    0.000    0.000    0.000    0.000 
#
# Total GULP energy -200879.632780 kJ/mol
# GULP energy per Si atom -5579.989799 kJ/mol
# Density = 2.202773 g / cm^3
# Si number density = 22.077985 Si / 1000 Ang^3
#
#
#
# Elastic Constant Matrix: (Units=GPa)
#
#
# Indices 1 2 3 4 5 6 
#
# 1 99.1519 10.2520 51.9410 0.0000 0.0000 0.0000
# 2 10.2520 38.0599 31.0677 0.0000 0.0000 0.0000
# 3 51.9410 31.0677 193.8420 0.0000 0.0000 0.0000
# 4 0.0000 0.0000 0.0000 31.6544 0.0000 0.0000
# 5 0.0000 0.0000 0.0000 0.0000 50.2694 0.0000
# 6 0.0000 0.0000 0.0000 0.0000 0.0000 11.9220
#
#
#
# Elastic Compliance Matrix: (Units=1/GPa)
#
#
# Indices 1 2 3 4 5 6 
#
# 1 0.011748 -0.000684 -0.003038 0.000000 0.000000 0.000000
# 2 -0.000684 0.030269 -0.004668 0.000000 0.000000 0.000000
# 3 -0.003038 -0.004668 0.006721 0.000000 0.000000 0.000000
# 4 0.000000 0.000000 0.000000 0.031591 0.000000 0.000000
# 5 0.000000 0.000000 0.000000 0.000000 0.019893 0.000000
# 6 0.000000 0.000000 0.000000 0.000000 0.000000 0.083879
#
#
# Mechanical properties :
#
#
# Convention : Reuss Voigt Hill
#
# Bulk Modulus (GPa) = 31.29212 57.50837 44.40024
# Shear Modulus (GPa) = 23.63685 34.62202 29.12944
#
# Velocity S-wave (km/s) = 3.27556 3.96431 3.63628
# Velocity P-wave (km/s) = 5.33947 6.85993 6.14690
#
# Compressibility (1/GPa) = 0.03195693
#
# Stress axis : x y z
#
# Youngs Moduli (GPa) = 85.12169 33.03702 148.78527
#
# Poissons Ratio (x) = 0.02261 0.45204
# Poissons Ratio (y) = 0.05826 0.69452
# Poissons Ratio (z) = 0.25862 0.15421
#
# Static dielectric constant tensor:
#      x y z
#    x 1.913420 0.000000 0.000000 
#    y 0.000000 1.941180 0.000000 
#    z 0.000000 0.000000 1.873310 
# 
# From -- ./inp_files/42941.got.cif
#   From: 2010.05.17/outbox.cif.g08.bks.cpg/sg68_22_cif.got.tgz:42941.got - 2010.06.03 18:57:09.
