data_PCOD9510243
_publ_section_title
;
Structure prediction by ZEFSAII (Michael W. Deem and Ramdas Pophale) SiO2 
 PCOD9510243
Probable space group: C C C A
;
_chemical_formula_sum "Si O2"
_cell_formula_units_Z 112
_cell_length_a 11.287367
_cell_length_b 15.728263
_cell_length_c 29.514660
_cell_angle_alpha 90.000000
_cell_angle_beta 90.000000
_cell_angle_gamma 90.000000
_cell_volume 5239.757564
_symmetry_space_group_name_H-M "C C C A"
_symmetry_group_IT_number 68
_space_group.IT_coordinate_system_code '2'
_symmetry_cell_setting 'orthorhombic'
loop_
_space_group_symop_operation_xyz
x,y,z
-x,1/2-y,z
x,1/2-y,1/2-z
-x,y,1/2-z
-x,-y,-z
x,1/2+y,-z
-x,1/2+y,1/2+z
x,-y,1/2+z
1/2+x,1/2+y,z
1/2-x,-y,z
1/2+x,-y,1/2-z
1/2-x,1/2+y,1/2-z
1/2-x,1/2-y,-z
1/2+x,y,-z
1/2-x,y,1/2+z
1/2+x,1/2-y,1/2+z
loop_
_atom_site_type_symbol
_atom_site_label
_atom_site_fract_x
_atom_site_fract_y
_atom_site_fract_z
Si Si1 0.016293 0.851699 0.922570
Si Si2 0.989765 0.350643 0.320375
Si Si3 0.359009 0.755374 0.860763
Si Si4 0.252011 0.595806 0.806916
Si Si5 0.261082 0.597154 0.704535
Si Si6 0.623559 0.548424 0.009173
Si Si7 0.762347 0.687590 0.456792
O O1 0.030387 0.882645 0.871549
O O2 0.138696 0.861749 0.949487
O O3 0.000000 0.750000 0.922628
O O4 0.906448 0.897632 0.945807
O O5 0.873846 0.371912 0.292932
O O6 0.000000 0.250000 0.322588
O O7 0.113517 0.383830 0.303282
O O8 0.500000 0.750000 0.866325
O O9 0.310901 0.669440 0.837007
O O10 0.326232 0.836350 0.828606
O O11 0.296458 0.767812 0.909582
O O12 0.250000 0.500000 0.825713
O O13 0.308472 0.596053 0.756265
O O14 0.250000 0.500000 0.687761
O O15 0.750000 0.500000 0.013846
O O16 0.500000 0.500000 0.000000
O O17 0.640741 0.617325 0.969386
O O18 0.750000 0.750000 0.500000
#
# Coordination Sequence:
#
# PCOD9510243 Si02
#       7
#    16  16  16  16  16  16  16
#     4  11  22  44  73  98 139 189 235 299 357 433
#     4  11  22  44  73 104 137 184 243 293 360 427
#     4  12  28  48  72 107 145 195 244 299 373 446
#     4  11  26  47  71 108 143 186 240 302 364 433
#     4  11  25  45  74 105 145 190 235 295 372 438
#     4  12  27  44  68 108 143 188 244 305 367 435
#     4  12  26  48  73  98 143 192 241 292 367 437
#
# _framework density 21.375033999999999
#
# number of rings (size 3 to 8) (size 9 to 14) (size 15 to 20)
#    0.000    0.571    5.714    1.714    4.000    4.000 
#    0.000    0.000    0.000    0.000    0.000    0.000 
#    0.000    0.000    0.000    0.000    0.000    0.000 
#
# Total GULP energy -312852.887338 kJ/mol
# GULP energy per Si atom -5586.658702 kJ/mol
# Density = 2.132638 g / cm^3
# Si number density = 21.375034 Si / 1000 Ang^3
#
#
#
# Elastic Constant Matrix: (Units=GPa)
#
#
# Indices 1 2 3 4 5 6 
#
# 1 122.5304 43.6595 32.7712 0.0000 0.0000 0.0000
# 2 43.6595 130.9693 64.7138 0.0000 0.0000 0.0000
# 3 32.7712 64.7138 124.5698 0.0000 0.0000 0.0000
# 4 0.0000 0.0000 0.0000 15.1997 0.0000 0.0000
# 5 0.0000 0.0000 0.0000 0.0000 23.4455 0.0000
# 6 0.0000 0.0000 0.0000 0.0000 0.0000 39.4958
#
#
#
# Elastic Compliance Matrix: (Units=1/GPa)
#
#
# Indices 1 2 3 4 5 6 
#
# 1 0.009379 -0.002566 -0.001134 0.000000 0.000000 0.000000
# 2 -0.002566 0.010974 -0.005026 0.000000 0.000000 0.000000
# 3 -0.001134 -0.005026 0.010937 0.000000 0.000000 0.000000
# 4 0.000000 0.000000 0.000000 0.065791 0.000000 0.000000
# 5 0.000000 0.000000 0.000000 0.000000 0.042652 0.000000
# 6 0.000000 0.000000 0.000000 0.000000 0.000000 0.025319
#
#
# Mechanical properties :
#
#
# Convention : Reuss Voigt Hill
#
# Bulk Modulus (GPa) = 72.26772 73.37318 72.82045
# Shear Modulus (GPa) = 26.72121 31.42321 29.07221
#
# Velocity S-wave (km/s) = 3.53953 3.83833 3.69196
# Velocity P-wave (km/s) = 7.11247 7.35152 7.23298
#
# Compressibility (1/GPa) = 0.01383744
#
# Stress axis : x y z
#
# Youngs Moduli (GPa) = 106.62190 91.12268 91.43235
#
# Poissons Ratio (x) = 0.23383 0.10371
# Poissons Ratio (y) = 0.27360 0.45954
# Poissons Ratio (z) = 0.12094 0.45798
#
# Static dielectric constant tensor:
#      x y z
#    x 1.860550 0.000000 0.000000 
#    y 0.000000 1.846080 0.000000 
#    z 0.000000 0.000000 1.814700 
# 
# From -- ./inp_files/54831.got.cif
#   From: 2010.05.17/outbox.cif.g08.bks.cpg/sg68_28_cif.got.tgz:54831.got - 2010.06.03 18:57:09.
