data_PCOD9510353
_publ_section_title
;
Structure prediction by ZEFSAII (Michael W. Deem and Ramdas Pophale) SiO2 
 PCOD9510353
Probable space group: C C C A
;
_chemical_formula_sum "Si O2"
_cell_formula_units_Z 104
_cell_length_a 10.037064
_cell_length_b 24.476753
_cell_length_c 19.187520
_cell_angle_alpha 90.000000
_cell_angle_beta 90.000000
_cell_angle_gamma 90.000000
_cell_volume 4713.888918
_symmetry_space_group_name_H-M "C C C A"
_symmetry_group_IT_number 68
_space_group.IT_coordinate_system_code '2'
_symmetry_cell_setting 'orthorhombic'
loop_
_space_group_symop_operation_xyz
x,y,z
-x,1/2-y,z
x,1/2-y,1/2-z
-x,y,1/2-z
-x,-y,-z
x,1/2+y,-z
-x,1/2+y,1/2+z
x,-y,1/2+z
1/2+x,1/2+y,z
1/2-x,-y,z
1/2+x,-y,1/2-z
1/2-x,1/2+y,1/2-z
1/2-x,1/2-y,-z
1/2+x,y,-z
1/2-x,y,1/2+z
1/2+x,1/2-y,1/2+z
loop_
_atom_site_type_symbol
_atom_site_label
_atom_site_fract_x
_atom_site_fract_y
_atom_site_fract_z
Si Si1 0.613712 0.784184 0.507711
Si Si2 0.127440 0.393657 0.300792
Si Si3 0.525176 0.453905 0.058823
Si Si4 0.517475 0.626486 0.436211
Si Si5 0.750000 0.000000 0.837234
Si Si6 0.658275 0.313058 0.258151
Si Si7 0.303118 0.620057 0.603986
O O1 0.500000 0.750000 0.549675
O O2 0.750000 0.750000 0.500000
O O3 0.519035 0.809527 0.446209
O O4 0.666323 0.841524 0.537820
O O5 0.095026 0.394849 0.383785
O O6 0.184645 0.453910 0.288804
O O7 0.244439 0.349663 0.289083
O O8 0.000000 0.382324 0.250000
O O9 0.638881 0.472525 0.111988
O O10 0.393695 0.433659 0.100078
O O11 0.500000 0.500000 0.000000
O O12 0.552899 0.401065 0.010420
O O13 0.648140 0.609672 0.394006
O O14 0.697420 0.250000 0.250000
O O15 0.500000 0.316984 0.250000
O O16 0.673282 0.338779 0.333710
#
# Coordination Sequence:
#
# PCOD9510353 Si02
#       7
#    16  16  16  16   8  16  16
#     4  11  24  39  67 102 137 179 228 299 360 417
#     4  12  27  49  71 104 144 193 244 294 359 437
#     4  11  23  44  73 103 140 185 231 305 376 423
#     4  11  24  44  68 103 141 178 240 288 367 435
#     4  12  26  46  74 106 144 190 246 314 360 436
#     4  11  27  48  72 103 142 193 241 293 358 436
#     4  11  24  43  67 100 139 185 235 295 356 434
#
# _framework density 22.062462
#
# number of rings (size 3 to 8) (size 9 to 14) (size 15 to 20)
#    0.000    0.769    4.615    1.846    6.462    2.154 
#    0.000    0.000    0.000    0.000    0.000    0.000 
#    0.000    0.000    0.000    0.000    0.000    0.000 
#
# Total GULP energy -289621.431974 kJ/mol
# GULP energy per Si atom -5569.642923 kJ/mol
# Density = 2.201225 g / cm^3
# Si number density = 22.062462 Si / 1000 Ang^3
#
#
#
# Elastic Constant Matrix: (Units=GPa)
#
#
# Indices 1 2 3 4 5 6 
#
# 1 139.3422 65.9288 18.1475 0.0000 0.0000 0.0000
# 2 65.9288 114.3351 9.2867 0.0000 0.0000 0.0000
# 3 18.1475 9.2867 30.9501 0.0000 0.0000 0.0000
# 4 0.0000 0.0000 0.0000 29.6409 0.0000 0.0000
# 5 0.0000 0.0000 0.0000 0.0000 49.2178 0.0000
# 6 0.0000 0.0000 0.0000 0.0000 0.0000 160.6520
#
#
#
# Elastic Compliance Matrix: (Units=1/GPa)
#
#
# Indices 1 2 3 4 5 6 
#
# 1 0.010427 -0.005654 -0.004417 0.000000 0.000000 0.000000
# 2 -0.005654 0.012030 -0.000295 0.000000 0.000000 0.000000
# 3 -0.004417 -0.000295 0.034989 0.000000 0.000000 0.000000
# 4 0.000000 0.000000 0.000000 0.033737 0.000000 0.000000
# 5 0.000000 0.000000 0.000000 0.000000 0.020318 0.000000
# 6 0.000000 0.000000 0.000000 0.000000 0.000000 0.006225
#
#
# Mechanical properties :
#
#
# Convention : Reuss Voigt Hill
#
# Bulk Modulus (GPa) = 27.23736 52.37259 39.80498
# Shear Modulus (GPa) = 33.17964 60.65310 46.91637
#
# Velocity S-wave (km/s) = 3.88222 5.24893 4.61643
# Velocity P-wave (km/s) = 5.69806 7.77977 6.81882
#
# Compressibility (1/GPa) = 0.03671428
#
# Stress axis : x y z
#
# Youngs Moduli (GPa) = 95.90629 83.12421 28.58070
#
# Poissons Ratio (x) = 0.46995 0.12625
# Poissons Ratio (y) = 0.54222 0.00842
# Poissons Ratio (z) = 0.42365 0.02450
#
# Static dielectric constant tensor:
#      x y z
#    x 2.273160 0.000000 0.000000 
#    y 0.000000 1.859380 0.000000 
#    z 0.000000 0.000000 1.866110 
# 
# From -- ./inp_files/36596.got.cif
#   From: 2010.05.17/outbox.cif.g08.bks.cpg/sg68_19_cif.got.tgz:36596.got - 2010.06.03 18:57:09.
