data_PCOD9510249
_publ_section_title
;
Structure prediction by ZEFSAII (Michael W. Deem and Ramdas Pophale) SiO2 
 PCOD9510249
Probable space group: C C C A
;
_chemical_formula_sum "Si O2"
_cell_formula_units_Z 104
_cell_length_a 17.689752
_cell_length_b 19.129849
_cell_length_c 14.428125
_cell_angle_alpha 90.000000
_cell_angle_beta 90.000000
_cell_angle_gamma 90.000000
_cell_volume 4882.510463
_symmetry_space_group_name_H-M "C C C A"
_symmetry_group_IT_number 68
_space_group.IT_coordinate_system_code '2'
_symmetry_cell_setting 'orthorhombic'
loop_
_space_group_symop_operation_xyz
x,y,z
-x,1/2-y,z
x,1/2-y,1/2-z
-x,y,1/2-z
-x,-y,-z
x,1/2+y,-z
-x,1/2+y,1/2+z
x,-y,1/2+z
1/2+x,1/2+y,z
1/2-x,-y,z
1/2+x,-y,1/2-z
1/2-x,1/2+y,1/2-z
1/2-x,1/2-y,-z
1/2+x,y,-z
1/2-x,y,1/2+z
1/2+x,1/2-y,1/2+z
loop_
_atom_site_type_symbol
_atom_site_label
_atom_site_fract_x
_atom_site_fract_y
_atom_site_fract_z
Si Si1 0.109532 0.921987 0.909567
Si Si2 0.565608 0.926515 0.898386
Si Si3 0.804319 0.750000 0.750000
Si Si4 0.822715 0.867351 0.261818
Si Si5 0.250000 0.000000 0.329731
Si Si6 0.440447 0.189081 0.387629
Si Si7 0.500000 0.468954 0.750000
Si Si8 0.410719 0.759774 0.424692
O O1 0.055987 0.928297 0.819307
O O2 0.107060 0.841295 0.939139
O O3 0.190598 0.953725 0.886713
O O4 0.081313 0.960386 0.002294
O O5 0.635029 0.879447 0.859378
O O6 0.491951 0.878086 0.907587
O O7 0.548244 0.982310 0.818600
O O8 0.749364 0.683014 0.745161
O O9 0.858045 0.741169 0.661139
O O10 0.797198 0.943805 0.228520
O O11 0.883685 0.832557 0.192771
O O12 0.500000 0.250000 0.361811
O O13 0.399281 0.215898 0.480916
O O14 0.500000 0.750000 0.403205
#
# Coordination Sequence:
#
# PCOD9510249 Si02
#       8
#    16  16   8  16   8  16   8  16
#     4  12  26  47  75 108 150 196 253 310 384 464
#     4  12  23  47  75 110 138 195 251 310 376 445
#     4  12  27  42  71 110 148 198 254 304 393 460
#     4  12  26  45  75 107 152 198 247 312 385 457
#     4  12  26  52  66 108 164 200 240 308 388 478
#     4  11  22  45  75 108 143 185 252 319 371 438
#     4  12  26  46  76 102 146 192 256 312 376 450
#     4  11  25  46  72 106 144 189 253 319 379 445
#
# _framework density 21.300518
#
# number of rings (size 3 to 8) (size 9 to 14) (size 15 to 20)
#    0.000    0.308    7.692    1.615    2.154    3.077 
#    0.000    0.000    0.000    0.000    0.000    0.000 
#    0.000    0.000    0.000    0.000    0.000    0.000 
#
# Total GULP energy -290781.253809 kJ/mol
# GULP energy per Si atom -5591.947189 kJ/mol
# Density = 2.125204 g / cm^3
# Si number density = 21.300518 Si / 1000 Ang^3
#
#
#
# Elastic Constant Matrix: (Units=GPa)
#
#
# Indices 1 2 3 4 5 6 
#
# 1 103.5510 25.8294 53.9747 0.0000 0.0000 0.0000
# 2 25.8294 74.0408 33.4285 0.0000 0.0000 0.0000
# 3 53.9747 33.4285 152.2626 0.0000 0.0000 0.0000
# 4 0.0000 0.0000 0.0000 45.8098 0.0000 0.0000
# 5 0.0000 0.0000 0.0000 0.0000 13.0040 0.0000
# 6 0.0000 0.0000 0.0000 0.0000 0.0000 9.3158
#
#
#
# Elastic Compliance Matrix: (Units=1/GPa)
#
#
# Indices 1 2 3 4 5 6 
#
# 1 0.012272 -0.002572 -0.003785 0.000000 0.000000 0.000000
# 2 -0.002572 0.015531 -0.002498 0.000000 0.000000 0.000000
# 3 -0.003785 -0.002498 0.008458 0.000000 0.000000 0.000000
# 4 0.000000 0.000000 0.000000 0.021829 0.000000 0.000000
# 5 0.000000 0.000000 0.000000 0.000000 0.076899 0.000000
# 6 0.000000 0.000000 0.000000 0.000000 0.000000 0.107344
#
#
# Mechanical properties :
#
#
# Convention : Reuss Voigt Hill
#
# Bulk Modulus (GPa) = 53.90887 61.81331 57.86109
# Shear Modulus (GPa) = 18.78089 28.06738 23.42414
#
# Velocity S-wave (km/s) = 2.97258 3.63393 3.31977
# Velocity P-wave (km/s) = 6.09470 6.83300 6.47438
#
# Compressibility (1/GPa) = 0.01854982
#
# Stress axis : x y z
#
# Youngs Moduli (GPa) = 81.48792 64.38675 118.23214
#
# Poissons Ratio (x) = 0.16560 0.44757
# Poissons Ratio (y) = 0.20958 0.29535
# Poissons Ratio (z) = 0.30847 0.16084
#
# Static dielectric constant tensor:
#      x y z
#    x 2.826890 0.000000 0.000000 
#    y 0.000000 1.817560 0.000000 
#    z 0.000000 0.000000 1.808040 
# 
# From -- ./inp_files/23845.got.cif
#   From: 2010.05.17/outbox.cif.g08.bks.cpg/sg68_12_cif.got.tgz:23845.got - 2010.06.03 18:57:09.
