data_PCOD9510803
_publ_section_title
;
Structure prediction by ZEFSAII (Michael W. Deem and Ramdas Pophale) SiO2 
 PCOD9510803
Probable space group: C C C A
;
_chemical_formula_sum "Si O2"
_cell_formula_units_Z 64
_cell_length_a 7.674846
_cell_length_b 22.514501
_cell_length_c 14.979521
_cell_angle_alpha 90.000000
_cell_angle_beta 90.000000
_cell_angle_gamma 90.000000
_cell_volume 2588.391244
_symmetry_space_group_name_H-M "C C C A"
_symmetry_group_IT_number 68
_space_group.IT_coordinate_system_code '2'
_symmetry_cell_setting 'orthorhombic'
loop_
_space_group_symop_operation_xyz
x,y,z
-x,1/2-y,z
x,1/2-y,1/2-z
-x,y,1/2-z
-x,-y,-z
x,1/2+y,-z
-x,1/2+y,1/2+z
x,-y,1/2+z
1/2+x,1/2+y,z
1/2-x,-y,z
1/2+x,-y,1/2-z
1/2-x,1/2+y,1/2-z
1/2-x,1/2-y,-z
1/2+x,y,-z
1/2-x,y,1/2+z
1/2+x,1/2-y,1/2+z
loop_
_atom_site_type_symbol
_atom_site_label
_atom_site_fract_x
_atom_site_fract_y
_atom_site_fract_z
Si Si1 0.168391 0.889782 0.128009
Si Si2 0.182663 0.641351 0.700644
Si Si3 0.790130 0.755984 0.895470
Si Si4 0.202256 0.431917 0.552876
O O1 0.214264 0.901521 0.230957
O O2 0.205621 0.819051 0.127224
O O3 0.979864 0.911103 0.095641
O O4 0.289831 0.917974 0.051860
O O5 0.272451 0.702697 0.668848
O O6 0.159725 0.607926 0.606990
O O7 0.000000 0.653052 0.750000
O O8 0.000000 0.750000 0.887316
O O9 0.750000 0.750000 0.000000
O O10 0.250000 0.500000 0.566423
#
# Coordination Sequence:
#
# PCOD9510803 Si02
#       4
#    16  16  16  16
#     4  12  25  47  76 110 157 203 270 330 409 479
#     4  12  26  46  76 114 157 207 264 331 409 484
#     4  12  24  45  77 113 157 205 255 327 408 487
#     4  12  28  50  75 110 153 215 278 336 399 471
#
# _framework density 24.725784000000001
#
# number of rings (size 3 to 8) (size 9 to 14) (size 15 to 20)
#    0.000    0.000    5.000    5.250    0.000    3.000 
#    0.000    2.500    0.000    0.000    0.000    0.000 
#    0.000    0.000    0.000    0.000    0.000    0.000 
#
# Total GULP energy -179031.232106 kJ/mol
# GULP energy per Si atom -5594.726003 kJ/mol
# Density = 2.466951 g / cm^3
# Si number density = 24.725784 Si / 1000 Ang^3
#
#
#
# Elastic Constant Matrix: (Units=GPa)
#
#
# Indices 1 2 3 4 5 6 
#
# 1 144.8032 34.6021 35.8411 0.0000 0.0000 0.0000
# 2 34.6021 154.0590 3.7488 0.0000 0.0000 0.0000
# 3 35.8411 3.7488 102.7075 0.0000 0.0000 0.0000
# 4 0.0000 0.0000 0.0000 16.7028 0.0000 0.0000
# 5 0.0000 0.0000 0.0000 0.0000 48.0362 0.0000
# 6 0.0000 0.0000 0.0000 0.0000 0.0000 -151.3668
#
#
#
# Elastic Compliance Matrix: (Units=1/GPa)
#
#
# Indices 1 2 3 4 5 6 
#
# 1 0.007994 -0.001729 -0.002726 0.000000 0.000000 0.000000
# 2 -0.001729 0.006871 0.000353 0.000000 0.000000 0.000000
# 3 -0.002726 0.000353 0.010675 0.000000 0.000000 0.000000
# 4 0.000000 0.000000 0.000000 0.059870 0.000000 0.000000
# 5 0.000000 0.000000 0.000000 0.000000 0.020818 0.000000
# 6 0.000000 0.000000 0.000000 0.000000 0.000000 -0.006606
#
#
# Mechanical properties :
#
#
# Convention : Reuss Voigt Hill
#
# Bulk Modulus (GPa) = 57.69093 61.10597 59.39845
# Shear Modulus (GPa) = 44.01221 4.49963 24.25592
#
# Velocity S-wave (km/s) = 4.22360 1.35047 3.13548
# Velocity P-wave (km/s) = 6.86789 5.21525 6.09782
#
# Compressibility (1/GPa) = 0.01733375
#
# Stress axis : x y z
#
# Youngs Moduli (GPa) = 125.09437 145.54336 93.67716
#
# Poissons Ratio (x) = 0.25166 0.25541
# Poissons Ratio (y) = 0.21630 -0.03303
# Poissons Ratio (z) = 0.34107 -0.05132
#
# Static dielectric constant tensor:
#      x y z
#    x 2.117090 0.000000 0.000000 
#    y 0.000000 1.960530 0.000000 
#    z 0.000000 0.000000 2.046470 
# 
# From -- ./inp_files/19215.got.cif
#   From: 2010.05.17/outbox.cif.g08.bks.cpg/sg68_10_cif.got.tgz:19215.got - 2010.06.03 18:57:09.
