data_PCOD9510504
_publ_section_title
;
Structure prediction by ZEFSAII (Michael W. Deem and Ramdas Pophale) SiO2 
 PCOD9510504
Probable space group: C C C A
;
_chemical_formula_sum "Si O2"
_cell_formula_units_Z 48
_cell_length_a 5.075031
_cell_length_b 35.255547
_cell_length_c 12.893959
_cell_angle_alpha 90.000000
_cell_angle_beta 90.000000
_cell_angle_gamma 90.000000
_cell_volume 2307.025748
_symmetry_space_group_name_H-M "C C C A"
_symmetry_group_IT_number 68
_space_group.IT_coordinate_system_code '2'
_symmetry_cell_setting 'orthorhombic'
loop_
_space_group_symop_operation_xyz
x,y,z
-x,1/2-y,z
x,1/2-y,1/2-z
-x,y,1/2-z
-x,-y,-z
x,1/2+y,-z
-x,1/2+y,1/2+z
x,-y,1/2+z
1/2+x,1/2+y,z
1/2-x,-y,z
1/2+x,-y,1/2-z
1/2-x,1/2+y,1/2-z
1/2-x,1/2-y,-z
1/2+x,y,-z
1/2-x,y,1/2+z
1/2+x,1/2-y,1/2+z
loop_
_atom_site_type_symbol
_atom_site_label
_atom_site_fract_x
_atom_site_fract_y
_atom_site_fract_z
Si Si1 0.500000 0.813363 0.750000
Si Si2 0.000000 0.250000 0.574668
Si Si3 0.750000 0.500000 0.179447
Si Si4 0.000000 0.866503 0.750000
Si Si5 0.825509 0.578038 0.566390
O O1 0.472953 0.786105 0.650495
O O2 0.248279 0.839580 0.770043
O O3 0.750000 0.250000 0.500000
O O4 0.500000 0.488307 0.250000
O O5 0.842457 0.464577 0.110743
O O6 0.083709 0.893252 0.655004
O O7 0.526980 0.583396 0.528605
#
# Coordination Sequence:
#
# PCOD9510504 Si02
#       5
#     8   8   8   8  16
#     4  11  26  44  69 104 137 176 223 274 335 406
#     4  11  24  45  74 102 134 177 224 271 330 404
#     4  12  24  44  72  94 134 182 234 294 346 400
#     4  12  26  45  67 100 145 176 221 284 341 409
#     4  12  26  44  68  99 133 182 232 282 345 404
#
# _framework density 20.806010000000001
#
# number of rings (size 3 to 8) (size 9 to 14) (size 15 to 20)
#    0.000    0.333    1.667    7.000    2.333   10.667 
#    0.000    0.000    0.000    0.000    0.000    0.000 
#    0.000    0.000    0.000    0.000    0.000    0.000 
#
# Total GULP energy -134413.821504 kJ/mol
# GULP energy per Si atom -5600.575896 kJ/mol
# Density = 2.075865 g / cm^3
# Si number density = 20.806010 Si / 1000 Ang^3
#
#
#
# Elastic Constant Matrix: (Units=GPa)
#
#
# Indices 1 2 3 4 5 6 
#
# 1 140.0111 46.2158 36.0665 0.0000 0.0000 0.0000
# 2 46.2158 154.9827 63.9844 0.0000 0.0000 0.0000
# 3 36.0665 63.9844 110.6870 0.0000 0.0000 0.0000
# 4 0.0000 0.0000 0.0000 -52.8898 0.0000 0.0000
# 5 0.0000 0.0000 0.0000 0.0000 46.5434 0.0000
# 6 0.0000 0.0000 0.0000 0.0000 0.0000 43.9703
#
#
#
# Elastic Compliance Matrix: (Units=1/GPa)
#
#
# Indices 1 2 3 4 5 6 
#
# 1 0.008143 -0.001751 -0.001641 0.000000 0.000000 0.000000
# 2 -0.001751 0.008851 -0.004546 0.000000 0.000000 0.000000
# 3 -0.001641 -0.004546 0.012197 0.000000 0.000000 0.000000
# 4 0.000000 0.000000 0.000000 -0.018907 0.000000 0.000000
# 5 0.000000 0.000000 0.000000 0.000000 0.021485 0.000000
# 6 0.000000 0.000000 0.000000 0.000000 0.000000 0.022743
#
#
# Mechanical properties :
#
#
# Convention : Reuss Voigt Hill
#
# Bulk Modulus (GPa) = 75.10201 77.57935 76.34068
# Shear Modulus (GPa) = 66.82086 24.81904 45.81995
#
# Velocity S-wave (km/s) = 5.67326 3.45755 4.69790
# Velocity P-wave (km/s) = 8.89321 7.30120 8.13624
#
# Compressibility (1/GPa) = 0.01331522
#
# Stress axis : x y z
#
# Youngs Moduli (GPa) = 122.80567 112.97840 81.98524
#
# Poissons Ratio (x) = 0.19778 0.13457
# Poissons Ratio (y) = 0.21498 0.37272
# Poissons Ratio (z) = 0.20157 0.51362
#
# Static dielectric constant tensor:
#      x y z
#    x 1.698110 0.000000 0.000000 
#    y 0.000000 1.725140 0.000000 
#    z 0.000000 0.000000 1.729220 
# 
# From -- ./inp_files/18248.got.cif
#   From: 2010.05.17/outbox.cif.g08.bks.cpg/sg68_10_cif.got.tgz:18248.got - 2010.06.03 18:57:09.
