data_PCOD9510704
_publ_section_title
;
Structure prediction by ZEFSAII (Michael W. Deem and Ramdas Pophale) SiO2 
 PCOD9510704
Probable space group: C C C A
;
_chemical_formula_sum "Si O2"
_cell_formula_units_Z 64
_cell_length_a 21.994978
_cell_length_b 8.298191
_cell_length_c 15.714331
_cell_angle_alpha 90.000000
_cell_angle_beta 90.000000
_cell_angle_gamma 90.000000
_cell_volume 2868.156570
_symmetry_space_group_name_H-M "C C C A"
_symmetry_group_IT_number 68
_space_group.IT_coordinate_system_code '2'
_symmetry_cell_setting 'orthorhombic'
loop_
_space_group_symop_operation_xyz
x,y,z
-x,1/2-y,z
x,1/2-y,1/2-z
-x,y,1/2-z
-x,-y,-z
x,1/2+y,-z
-x,1/2+y,1/2+z
x,-y,1/2+z
1/2+x,1/2+y,z
1/2-x,-y,z
1/2+x,-y,1/2-z
1/2-x,1/2+y,1/2-z
1/2-x,1/2-y,-z
1/2+x,y,-z
1/2-x,y,1/2+z
1/2+x,1/2-y,1/2+z
loop_
_atom_site_type_symbol
_atom_site_label
_atom_site_fract_x
_atom_site_fract_y
_atom_site_fract_z
Si Si1 0.139876 0.750000 0.250000
Si Si2 0.884648 0.757126 0.559235
Si Si3 0.815686 0.081042 0.583002
Si Si4 0.500000 0.750000 0.563540
Si Si5 0.048553 0.519912 0.817032
O O1 0.176511 0.805645 0.334008
O O2 0.095858 0.895511 0.224005
O O3 0.830515 0.675361 0.504496
O O4 0.940336 0.755533 0.493438
O O5 0.910722 0.651972 0.636117
O O6 0.863907 0.933940 0.586405
O O7 0.750000 0.000000 0.582125
O O8 0.507631 0.589450 0.619289
O O9 0.000000 0.581721 0.750000
#
# Coordination Sequence:
#
# PCOD9510704 Si02
#       5
#     8  16  16   8  16
#     4  12  25  46  66 102 148 199 246 312 378 440
#     4  12  26  45  75 112 142 194 258 307 380 467
#     4  12  27  50  76 104 150 204 259 318 373 450
#     4  12  21  44  71 106 150 184 242 304 385 451
#     4  12  23  43  73 109 157 195 237 310 392 454
#
# _framework density 22.313984000000001
#
# number of rings (size 3 to 8) (size 9 to 14) (size 15 to 20)
#    0.000    0.000    7.500    1.500    3.500    3.000 
#    0.000    1.250    0.000    0.000    0.000    0.000 
#    0.000    0.000    0.000    0.000    0.000    0.000 
#
# Total GULP energy -179290.053500 kJ/mol
# GULP energy per Si atom -5602.814172 kJ/mol
# Density = 2.226320 g / cm^3
# Si number density = 22.313984 Si / 1000 Ang^3
#
#
#
# Elastic Constant Matrix: (Units=GPa)
#
#
# Indices 1 2 3 4 5 6 
#
# 1 98.3582 0.0283 27.2678 0.0000 0.0000 0.0000
# 2 0.0283 86.5227 31.7480 0.0000 0.0000 0.0000
# 3 27.2678 31.7480 102.7575 0.0000 0.0000 0.0000
# 4 0.0000 0.0000 0.0000 142.6158 0.0000 0.0000
# 5 0.0000 0.0000 0.0000 0.0000 20.0089 0.0000
# 6 0.0000 0.0000 0.0000 0.0000 0.0000 18.2460
#
#
#
# Elastic Compliance Matrix: (Units=1/GPa)
#
#
# Indices 1 2 3 4 5 6 
#
# 1 0.011086 0.001213 -0.003317 0.000000 0.000000 0.000000
# 2 0.001213 0.013168 -0.004390 0.000000 0.000000 0.000000
# 3 -0.003317 -0.004390 0.011968 0.000000 0.000000 0.000000
# 4 0.000000 0.000000 0.000000 0.007012 0.000000 0.000000
# 5 0.000000 0.000000 0.000000 0.000000 0.049978 0.000000
# 6 0.000000 0.000000 0.000000 0.000000 0.000000 0.054807
#
#
# Mechanical properties :
#
#
# Convention : Reuss Voigt Hill
#
# Bulk Modulus (GPa) = 43.03846 45.08073 44.05960
# Shear Modulus (GPa) = 29.62937 51.41374 40.52156
#
# Velocity S-wave (km/s) = 3.64791 4.80532 4.26604
# Velocity P-wave (km/s) = 6.08872 7.14387 6.63729
#
# Compressibility (1/GPa) = 0.02323503
#
# Stress axis : x y z
#
# Youngs Moduli (GPa) = 90.20340 75.94018 83.55449
#
# Poissons Ratio (x) = -0.09214 0.27712
# Poissons Ratio (y) = -0.10945 0.36684
# Poissons Ratio (z) = 0.29918 0.33341
#
# Static dielectric constant tensor:
#      x y z
#    x 1.792880 0.000000 0.000000 
#    y 0.000000 1.825040 0.000000 
#    z 0.000000 0.000000 1.881960 
# 
# From -- ./inp_files/25053.got.cif
#   From: 2010.05.17/outbox.cif.g08.bks.cpg/sg68_13_cif.got.tgz:25053.got - 2010.06.03 18:57:09.
