data_PCOD9510128
_publ_section_title
;
Structure prediction by ZEFSAII (Michael W. Deem and Ramdas Pophale) SiO2 
 PCOD9510128
Probable space group: C C C A
;
_chemical_formula_sum "Si O2"
_cell_formula_units_Z 120
_cell_length_a 16.408564
_cell_length_b 20.345224
_cell_length_c 15.136482
_cell_angle_alpha 90.000000
_cell_angle_beta 90.000000
_cell_angle_gamma 90.000000
_cell_volume 5053.101244
_symmetry_space_group_name_H-M "C C C A"
_symmetry_group_IT_number 68
_space_group.IT_coordinate_system_code '2'
_symmetry_cell_setting 'orthorhombic'
loop_
_space_group_symop_operation_xyz
x,y,z
-x,1/2-y,z
x,1/2-y,1/2-z
-x,y,1/2-z
-x,-y,-z
x,1/2+y,-z
-x,1/2+y,1/2+z
x,-y,1/2+z
1/2+x,1/2+y,z
1/2-x,-y,z
1/2+x,-y,1/2-z
1/2-x,1/2+y,1/2-z
1/2-x,1/2-y,-z
1/2+x,y,-z
1/2-x,y,1/2+z
1/2+x,1/2-y,1/2+z
loop_
_atom_site_type_symbol
_atom_site_label
_atom_site_fract_x
_atom_site_fract_y
_atom_site_fract_z
Si Si1 0.974126 0.152675 0.342081
Si Si2 0.250000 0.000000 0.366377
Si Si3 0.419162 0.855519 0.508124
Si Si4 0.254363 0.594001 0.472114
Si Si5 0.325263 0.926607 0.215315
Si Si6 0.277299 0.311093 0.187431
Si Si7 0.534953 0.325184 0.342099
Si Si8 0.340836 0.766869 0.056415
O O1 0.916460 0.092994 0.310827
O O2 0.916599 0.204543 0.390411
O O3 0.000000 0.181506 0.250000
O O4 0.046302 0.135501 0.409317
O O5 0.226099 0.942743 0.435842
O O6 0.318753 0.978934 0.294822
O O7 0.343514 0.901763 0.529298
O O8 0.493483 0.860717 0.575074
O O9 0.380613 0.781900 0.514597
O O10 0.286004 0.562139 0.381342
O O11 0.292352 0.667517 0.469999
O O12 0.272903 0.865807 0.257613
O O13 0.296187 0.250000 0.250000
O O14 0.215944 0.279697 0.115973
O O15 0.500000 0.250000 0.344517
O O16 0.500000 0.352710 0.250000
O O17 0.632434 0.331465 0.343170
#
# Coordination Sequence:
#
# PCOD9510128 Si02
#       8
#    16   8  16  16  16  16  16  16
#     4  11  23  40  65 103 146 184 224 293 369 442
#     4  12  26  48  76 100 126 194 258 302 354 404
#     4  12  25  40  66 109 145 184 225 290 385 448
#     4  11  24  46  72  99 140 184 248 307 348 431
#     4  11  26  46  73 104 139 186 250 304 355 436
#     4  12  20  41  70 103 142 183 228 294 374 450
#     4  11  22  37  58  94 145 191 217 269 351 446
#     4  11  24  38  66 107 150 185 232 297 368 452
#
# _framework density 23.747793000000001
#
# number of rings (size 3 to 8) (size 9 to 14) (size 15 to 20)
#    0.000    0.667    4.000    6.000    0.000    6.933 
#    0.000    0.000    0.000   37.600    0.000    0.000 
#    0.000    0.000    0.000    0.000    0.000    0.000 
#
# Total GULP energy -335604.863128 kJ/mol
# GULP energy per Si atom -5593.414385 kJ/mol
# Density = 2.369374 g / cm^3
# Si number density = 23.747793 Si / 1000 Ang^3
#
#
#
# Elastic Constant Matrix: (Units=GPa)
#
#
# Indices 1 2 3 4 5 6 
#
# 1 133.6056 15.2647 37.7394 0.0000 0.0000 0.0000
# 2 15.2647 31.9041 18.8827 0.0000 0.0000 0.0000
# 3 37.7394 18.8827 155.0374 0.0000 0.0000 0.0000
# 4 0.0000 0.0000 0.0000 48.9898 0.0000 0.0000
# 5 0.0000 0.0000 0.0000 0.0000 43.3856 0.0000
# 6 0.0000 0.0000 0.0000 0.0000 0.0000 24.5282
#
#
#
# Elastic Compliance Matrix: (Units=1/GPa)
#
#
# Indices 1 2 3 4 5 6 
#
# 1 0.008294 -0.002989 -0.001655 0.000000 0.000000 0.000000
# 2 -0.002989 0.034856 -0.003518 0.000000 0.000000 0.000000
# 3 -0.001655 -0.003518 0.007281 0.000000 0.000000 0.000000
# 4 0.000000 0.000000 0.000000 0.020412 0.000000 0.000000
# 5 0.000000 0.000000 0.000000 0.000000 0.023049 0.000000
# 6 0.000000 0.000000 0.000000 0.000000 0.000000 0.040769
#
#
# Mechanical properties :
#
#
# Convention : Reuss Voigt Hill
#
# Bulk Modulus (GPa) = 29.31840 51.59119 40.45479
# Shear Modulus (GPa) = 30.79697 39.95810 35.37753
#
# Velocity S-wave (km/s) = 3.60507 4.10640 3.86387
# Velocity P-wave (km/s) = 5.44988 6.65246 6.08097
#
# Compressibility (1/GPa) = 0.03410828
#
# Stress axis : x y z
#
# Youngs Moduli (GPa) = 120.57467 28.68956 137.33771
#
# Poissons Ratio (x) = 0.08574 0.22727
# Poissons Ratio (y) = 0.36036 0.48312
# Poissons Ratio (z) = 0.19953 0.10092
#
# Static dielectric constant tensor:
#      x y z
#    x 1.899100 0.000000 0.000000 
#    y 0.000000 1.983420 0.000000 
#    z 0.000000 0.000000 1.966600 
# 
# From -- ./inp_files/24849.got.cif
#   From: 2010.05.17/outbox.cif.g08.bks.cpg/sg68_13_cif.got.tgz:24849.got - 2010.06.03 18:57:09.
