data_PCOD9510863
_publ_section_title
;
Structure prediction by ZEFSAII (Michael W. Deem and Ramdas Pophale) SiO2 
 PCOD9510863
Probable space group: C C C A
;
_chemical_formula_sum "Si O2"
_cell_formula_units_Z 60
_cell_length_a 9.806183
_cell_length_b 25.501292
_cell_length_c 10.285702
_cell_angle_alpha 90.000000
_cell_angle_beta 90.000000
_cell_angle_gamma 90.000000
_cell_volume 2572.148956
_symmetry_space_group_name_H-M "C C C A"
_symmetry_group_IT_number 68
_space_group.IT_coordinate_system_code '2'
_symmetry_cell_setting 'orthorhombic'
loop_
_space_group_symop_operation_xyz
x,y,z
-x,1/2-y,z
x,1/2-y,1/2-z
-x,y,1/2-z
-x,-y,-z
x,1/2+y,-z
-x,1/2+y,1/2+z
x,-y,1/2+z
1/2+x,1/2+y,z
1/2-x,-y,z
1/2+x,-y,1/2-z
1/2-x,1/2+y,1/2-z
1/2-x,1/2-y,-z
1/2+x,y,-z
1/2-x,y,1/2+z
1/2+x,1/2-y,1/2+z
loop_
_atom_site_type_symbol
_atom_site_label
_atom_site_fract_x
_atom_site_fract_y
_atom_site_fract_z
Si Si1 0.754917 0.298097 0.600054
Si Si2 0.750000 0.500000 0.867687
Si Si3 0.000000 0.337730 0.250000
Si Si4 0.000000 0.750000 0.250000
Si Si5 0.500000 0.940147 0.750000
Si Si6 0.876239 0.602023 0.993067
O O1 0.750000 0.250000 0.500000
O O2 0.627054 0.303785 0.696551
O O3 0.897437 0.287062 0.671505
O O4 0.766026 0.353641 0.528350
O O5 0.630394 0.524201 0.780800
O O6 0.810414 0.546918 0.953837
O O7 0.953183 0.374228 0.368982
O O8 0.532276 0.907230 0.879402
#
# Coordination Sequence:
#
# PCOD9510863 Si02
#       6
#    16   8   8   4   8  16
#     4  12  27  49  77 111 152 198 251 311 380 455
#     4  12  26  48  76 112 154 202 260 322 384 458
#     4  12  27  51  79 115 153 203 259 319 384 462
#     4  12  26  46  72 108 148 192 238 306 376 448
#     4  12  26  48  75 111 151 203 256 318 388 462
#     4  12  26  48  78 114 153 202 257 321 386 459
#
# _framework density 23.326798
#
# number of rings (size 3 to 8) (size 9 to 14) (size 15 to 20)
#    0.000    0.000    0.000    9.600    0.000    3.733 
#    0.000    0.000    0.000    0.000    0.000    0.000 
#    0.000    0.000    0.000    0.000    0.000    0.000 
#
# Total GULP energy -168184.573231 kJ/mol
# GULP energy per Si atom -5606.152441 kJ/mol
# Density = 2.327371 g / cm^3
# Si number density = 23.326798 Si / 1000 Ang^3
#
#
#
# Elastic Constant Matrix: (Units=GPa)
#
#
# Indices 1 2 3 4 5 6 
#
# 1 172.6632 78.0278 105.5216 0.0000 0.0000 0.0000
# 2 78.0278 178.5764 98.4658 0.0000 0.0000 0.0000
# 3 105.5216 98.4658 193.1719 0.0000 0.0000 0.0000
# 4 0.0000 0.0000 0.0000 53.5891 0.0000 0.0000
# 5 0.0000 0.0000 0.0000 0.0000 17.1829 0.0000
# 6 0.0000 0.0000 0.0000 0.0000 0.0000 -363.6048
#
#
#
# Elastic Compliance Matrix: (Units=1/GPa)
#
#
# Indices 1 2 3 4 5 6 
#
# 1 0.009054 -0.001710 -0.004075 0.000000 0.000000 0.000000
# 2 -0.001710 0.008112 -0.003201 0.000000 0.000000 0.000000
# 3 -0.004075 -0.003201 0.009034 0.000000 0.000000 0.000000
# 4 0.000000 0.000000 0.000000 0.018660 0.000000 0.000000
# 5 0.000000 0.000000 0.000000 0.000000 0.058197 0.000000
# 6 0.000000 0.000000 0.000000 0.000000 0.000000 -0.002750
#
#
# Mechanical properties :
#
#
# Convention : Reuss Voigt Hill
#
# Bulk Modulus (GPa) = 121.50584 123.16022 122.33303
# Shear Modulus (GPa) = 41.31493 -41.07347 0.12073
#
# Velocity S-wave (km/s) = 4.21305 -4.20072 0.22775
# Velocity P-wave (km/s) = 8.71022 5.42073 7.25439
#
# Compressibility (1/GPa) = 0.00823006
#
# Stress axis : x y z
#
# Youngs Moduli (GPa) = 110.44452 123.27685 110.69085
#
# Poissons Ratio (x) = 0.21074 0.45102
# Poissons Ratio (y) = 0.18881 0.35432
# Poissons Ratio (z) = 0.45002 0.39461
#
# Static dielectric constant tensor:
#      x y z
#    x 1.780420 0.000000 0.000000 
#    y 0.000000 1.861860 0.000000 
#    z 0.000000 0.000000 2.024240 
# 
# From -- ./inp_files/8556.got.cif
#   From: 2010.05.17/outbox.cif.g08.bks.cpg/sg68_5_cif.got.tgz:8556.got - 2010.06.03 18:57:09.
