data_PCOD9510807
_publ_section_title
;
Structure prediction by ZEFSAII (Michael W. Deem and Ramdas Pophale) SiO2 
 PCOD9510807
Probable space group: C C C A
;
_chemical_formula_sum "Si O2"
_cell_formula_units_Z 72
_cell_length_a 24.508473
_cell_length_b 10.268053
_cell_length_c 12.449189
_cell_angle_alpha 90.000000
_cell_angle_beta 90.000000
_cell_angle_gamma 90.000000
_cell_volume 3132.891940
_symmetry_space_group_name_H-M "C C C A"
_symmetry_group_IT_number 68
_space_group.IT_coordinate_system_code '2'
_symmetry_cell_setting 'orthorhombic'
loop_
_space_group_symop_operation_xyz
x,y,z
-x,1/2-y,z
x,1/2-y,1/2-z
-x,y,1/2-z
-x,-y,-z
x,1/2+y,-z
-x,1/2+y,1/2+z
x,-y,1/2+z
1/2+x,1/2+y,z
1/2-x,-y,z
1/2+x,-y,1/2-z
1/2-x,1/2+y,1/2-z
1/2-x,1/2-y,-z
1/2+x,y,-z
1/2-x,y,1/2+z
1/2+x,1/2-y,1/2+z
loop_
_atom_site_type_symbol
_atom_site_label
_atom_site_fract_x
_atom_site_fract_y
_atom_site_fract_z
Si Si1 0.353644 0.638010 0.160730
Si Si2 0.891301 0.192801 0.931167
Si Si3 0.000000 0.750000 0.559029
Si Si4 0.250000 0.000000 0.761927
Si Si5 0.947354 0.520459 0.705534
Si Si6 0.315513 0.750000 0.750000
O O1 0.348088 0.750000 0.250000
O O2 0.300841 0.550711 0.171417
O O3 0.410557 0.571296 0.196053
O O4 0.356841 0.682876 0.039262
O O5 0.857429 0.279519 0.847455
O O6 0.905491 0.058907 0.868663
O O7 0.949851 0.230295 0.978109
O O8 0.023983 0.863974 0.636654
O O9 0.222803 0.130208 0.710070
O O10 0.000000 0.442500 0.750000
#
# Coordination Sequence:
#
# PCOD9510807 Si02
#       6
#    16  16   8   8  16   8
#     4  12  25  50  75 107 151 203 257 319 387 462
#     4  12  29  43  77 113 154 195 255 321 386 467
#     4  12  25  43  74 112 152 207 239 310 396 472
#     4  12  28  52  80 106 156 204 270 324 386 458
#     4  12  24  46  73 111 156 200 254 307 391 471
#     4  12  30  53  74 118 151 204 264 328 394 452
#
# _framework density 22.981963
#
# number of rings (size 3 to 8) (size 9 to 14) (size 15 to 20)
#    0.000    0.000    7.778    1.000    6.222    1.778 
#    0.000    0.000    0.000    0.000    0.000    0.000 
#    0.000    0.000    0.000    0.000    0.000    0.000 
#
# Total GULP energy -200901.682807 kJ/mol
# GULP energy per Si atom -5580.602300 kJ/mol
# Density = 2.292966 g / cm^3
# Si number density = 22.981963 Si / 1000 Ang^3
#
#
#
# Elastic Constant Matrix: (Units=GPa)
#
#
# Indices 1 2 3 4 5 6 
#
# 1 136.5894 21.9534 27.3109 0.0000 0.0000 0.0000
# 2 21.9534 65.1765 16.9929 0.0000 0.0000 0.0000
# 3 27.3109 16.9929 135.0538 0.0000 0.0000 0.0000
# 4 0.0000 0.0000 0.0000 25.4547 0.0000 0.0000
# 5 0.0000 0.0000 0.0000 0.0000-2863.3392 0.0000
# 6 0.0000 0.0000 0.0000 0.0000 0.0000 84.1929
#
#
#
# Elastic Compliance Matrix: (Units=1/GPa)
#
#
# Indices 1 2 3 4 5 6 
#
# 1 0.007960 -0.002338 -0.001316 0.000000 0.000000 0.000000
# 2 -0.002338 0.016550 -0.001610 0.000000 0.000000 0.000000
# 3 -0.001316 -0.001610 0.007873 0.000000 0.000000 0.000000
# 4 0.000000 0.000000 0.000000 0.039285 0.000000 0.000000
# 5 0.000000 0.000000 0.000000 0.000000 -0.000349 0.000000
# 6 0.000000 0.000000 0.000000 0.000000 0.000000 0.011877
#
#
# Mechanical properties :
#
#
# Convention : Reuss Voigt Hill
#
# Bulk Modulus (GPa) = 45.75257 52.14825 48.95041
# Shear Modulus (GPa) = 49.50054 -532.70081 -241.60014
#
# Velocity S-wave (km/s) = 4.64603 -15.24119 -10.26422
# Velocity P-wave (km/s) = 6.98084 16.94064 10.91451
#
# Compressibility (1/GPa) = 0.02185670
#
# Stress axis : x y z
#
# Youngs Moduli (GPa) = 125.62731 60.42230 127.01636
#
# Poissons Ratio (x) = 0.14128 0.16709
# Poissons Ratio (y) = 0.29374 0.20444
# Poissons Ratio (z) = 0.16526 0.09725
#
# Static dielectric constant tensor:
#      x y z
#    x 1.840420 0.000000 0.000000 
#    y 0.000000 2.219240 0.000000 
#    z 0.000000 0.000000 1.843530 
# 
# From -- ./inp_files/11884.got.cif
#   From: 2010.05.17/outbox.cif.g08.bks.cpg/sg68_6_cif.got.tgz:11884.got - 2010.06.03 18:57:09.
