data_PCOD9510542
_publ_section_title
;
Structure prediction by ZEFSAII (Michael W. Deem and Ramdas Pophale) SiO2 
 PCOD9510542
Probable space group: C C C A
;
_chemical_formula_sum "Si O2"
_cell_formula_units_Z 64
_cell_length_a 9.031346
_cell_length_b 15.397811
_cell_length_c 17.460043
_cell_angle_alpha 90.000000
_cell_angle_beta 90.000000
_cell_angle_gamma 90.000000
_cell_volume 2428.045240
_symmetry_space_group_name_H-M "C C C A"
_symmetry_group_IT_number 68
_space_group.IT_coordinate_system_code '2'
_symmetry_cell_setting 'orthorhombic'
loop_
_space_group_symop_operation_xyz
x,y,z
-x,1/2-y,z
x,1/2-y,1/2-z
-x,y,1/2-z
-x,-y,-z
x,1/2+y,-z
-x,1/2+y,1/2+z
x,-y,1/2+z
1/2+x,1/2+y,z
1/2-x,-y,z
1/2+x,-y,1/2-z
1/2-x,1/2+y,1/2-z
1/2-x,1/2-y,-z
1/2+x,y,-z
1/2-x,y,1/2+z
1/2+x,1/2-y,1/2+z
loop_
_atom_site_type_symbol
_atom_site_label
_atom_site_fract_x
_atom_site_fract_y
_atom_site_fract_z
Si Si1 0.500000 0.398774 0.250000
Si Si2 0.000000 0.250000 0.059183
Si Si3 0.750000 0.500000 0.362796
Si Si4 0.784550 0.321596 0.315525
Si Si5 0.250000 0.000000 0.148540
Si Si6 0.609198 0.419777 0.504863
O O1 0.661917 0.574426 0.313798
O O2 0.614083 0.454089 0.195165
O O3 0.861398 0.222954 0.111916
O O4 0.971124 0.330439 0.005896
O O5 0.610710 0.340448 0.300194
O O6 0.694174 0.431548 0.426272
O O7 0.824683 0.250000 0.250000
O O8 0.189881 0.070711 0.086828
O O9 0.500000 0.500000 0.500000
#
# Coordination Sequence:
#
# PCOD9510542 Si02
#       6
#     8   8   8  16   8  16
#     4  12  27  50  84 127 182 230 303 382 442 553
#     4  12  27  48  88 126 169 234 298 366 452 543
#     4  11  25  52  82 116 181 219 288 370 438 536
#     4  12  27  50  83 126 174 227 292 370 442 545
#     4  11  27  46  88 122 173 247 294 370 472 526
#     4  11  24  51  81 123 170 234 298 371 447 539
#
# _framework density 26.358651999999999
#
# number of rings (size 3 to 8) (size 9 to 14) (size 15 to 20)
#    0.000    0.500    2.500    4.500    3.500    1.000 
#    9.000    0.000    0.000    0.000    0.000    0.000 
#    0.000    0.000    0.000    0.000    0.000    0.000 
#
# Total GULP energy -178263.212968 kJ/mol
# GULP energy per Si atom -5570.725405 kJ/mol
# Density = 2.629866 g / cm^3
# Si number density = 26.358652 Si / 1000 Ang^3
#
#
#
# Elastic Constant Matrix: (Units=GPa)
#
#
# Indices 1 2 3 4 5 6 
#
# 1 134.4097 53.9769 62.5852 0.0000 0.0000 0.0000
# 2 53.9769 235.7188 84.6209 0.0000 0.0000 0.0000
# 3 62.5852 84.6209 120.3098 0.0000 0.0000 0.0000
# 4 0.0000 0.0000 0.0000 25.5207 0.0000 0.0000
# 5 0.0000 0.0000 0.0000 0.0000 49.9794 0.0000
# 6 0.0000 0.0000 0.0000 0.0000 0.0000 30.8717
#
#
#
# Elastic Compliance Matrix: (Units=1/GPa)
#
#
# Indices 1 2 3 4 5 6 
#
# 1 0.009873 -0.000558 -0.004743 0.000000 0.000000 0.000000
# 2 -0.000558 0.005707 -0.003724 0.000000 0.000000 0.000000
# 3 -0.004743 -0.003724 0.013399 0.000000 0.000000 0.000000
# 4 0.000000 0.000000 0.000000 0.039184 0.000000 0.000000
# 5 0.000000 0.000000 0.000000 0.000000 0.020008 0.000000
# 6 0.000000 0.000000 0.000000 0.000000 0.000000 0.032392
#
#
# Mechanical properties :
#
#
# Convention : Reuss Voigt Hill
#
# Bulk Modulus (GPa) = 91.50802 99.20047 95.35425
# Shear Modulus (GPa) = 35.14817 40.55805 37.85311
#
# Velocity S-wave (km/s) = 3.65562 3.92688 3.79367
# Velocity P-wave (km/s) = 7.25327 7.63394 7.44604
#
# Compressibility (1/GPa) = 0.01092800
#
# Stress axis : x y z
#
# Youngs Moduli (GPa) = 101.29014 175.22659 74.63517
#
# Poissons Ratio (x) = 0.09776 0.35402
# Poissons Ratio (y) = 0.05651 0.27792
# Poissons Ratio (z) = 0.48045 0.65250
#
# Static dielectric constant tensor:
#      x y z
#    x -7.631270 0.000000 0.000000 
#    y 0.000000 2.148520 0.000000 
#    z 0.000000 0.000000 2.905990 
# 
# From -- ./inp_files/29217.got.cif
#   From: 2010.05.17/outbox.cif.g08.bks.cpg/sg68_15_cif.got.tgz:29217.got - 2010.06.03 18:57:09.
