data_PCOD9510527
_publ_section_title
;
Structure prediction by ZEFSAII (Michael W. Deem and Ramdas Pophale) SiO2 
 PCOD9510527
Probable space group: C C C A
;
_chemical_formula_sum "Si O2"
_cell_formula_units_Z 60
_cell_length_a 10.952170
_cell_length_b 9.905811
_cell_length_c 21.301706
_cell_angle_alpha 90.000000
_cell_angle_beta 90.000000
_cell_angle_gamma 90.000000
_cell_volume 2311.024769
_symmetry_space_group_name_H-M "C C C A"
_symmetry_group_IT_number 68
_space_group.IT_coordinate_system_code '2'
_symmetry_cell_setting 'orthorhombic'
loop_
_space_group_symop_operation_xyz
x,y,z
-x,1/2-y,z
x,1/2-y,1/2-z
-x,y,1/2-z
-x,-y,-z
x,1/2+y,-z
-x,1/2+y,1/2+z
x,-y,1/2+z
1/2+x,1/2+y,z
1/2-x,-y,z
1/2+x,-y,1/2-z
1/2-x,1/2+y,1/2-z
1/2-x,1/2-y,-z
1/2+x,y,-z
1/2-x,y,1/2+z
1/2+x,1/2-y,1/2+z
loop_
_atom_site_type_symbol
_atom_site_label
_atom_site_fract_x
_atom_site_fract_y
_atom_site_fract_z
Si Si1 0.167597 0.192231 0.843230
Si Si2 0.000000 0.750000 0.577794
Si Si3 0.078586 0.097631 0.311400
Si Si4 0.374008 0.911171 0.984290
Si Si5 0.500000 0.750000 0.750000
O O1 0.308912 0.198645 0.825445
O O2 0.135326 0.159639 0.915367
O O3 0.095039 0.304292 0.804061
O O4 0.126460 0.053125 0.810123
O O5 0.008034 0.622705 0.623988
O O6 0.112424 0.787372 0.532946
O O7 0.000000 0.118348 0.250000
O O8 0.250000 0.000000 0.991369
O O9 0.500000 0.000000 0.000000
#
# Coordination Sequence:
#
# PCOD9510527 Si02
#       5
#    16   8  16  16   4
#     4  11  24  47  69 102 152 184 246 311 366 456
#     4  12  26  44  80 110 142 202 252 302 398 458
#     4  11  24  48  70 100 147 189 243 311 368 449
#     4  12  25  49  75 110 156 198 251 324 383 465
#     4  12  26  40  74 108 136 208 238 314 396 440
#
# _framework density 25.962508
#
# number of rings (size 3 to 8) (size 9 to 14) (size 15 to 20)
#    0.000    0.533    6.667    1.200    3.733    6.400 
#    4.800    0.000    0.000    0.000    0.000    0.000 
#    0.000    0.000    0.000    0.000    0.000    0.000 
#
# Total GULP energy -167186.568797 kJ/mol
# GULP energy per Si atom -5572.885627 kJ/mol
# Density = 2.590342 g / cm^3
# Si number density = 25.962508 Si / 1000 Ang^3
#
#
#
# Elastic Constant Matrix: (Units=GPa)
#
#
# Indices 1 2 3 4 5 6 
#
# 1 166.3874 20.9460 103.8543 0.0000 0.0000 0.0000
# 2 20.9460 60.3715 33.8492 0.0000 0.0000 0.0000
# 3 103.8543 33.8492 289.6924 0.0000 0.0000 0.0000
# 4 0.0000 0.0000 0.0000 34.5320 0.0000 0.0000
# 5 0.0000 0.0000 0.0000 0.0000 37.2734 0.0000
# 6 0.0000 0.0000 0.0000 0.0000 0.0000 44.3117
#
#
#
# Elastic Compliance Matrix: (Units=1/GPa)
#
#
# Indices 1 2 3 4 5 6 
#
# 1 0.007826 -0.001222 -0.002663 0.000000 0.000000 0.000000
# 2 -0.001222 0.017916 -0.001655 0.000000 0.000000 0.000000
# 3 -0.002663 -0.001655 0.004600 0.000000 0.000000 0.000000
# 4 0.000000 0.000000 0.000000 0.028959 0.000000 0.000000
# 5 0.000000 0.000000 0.000000 0.000000 0.026829 0.000000
# 6 0.000000 0.000000 0.000000 0.000000 0.000000 0.022567
#
#
# Mechanical properties :
#
#
# Convention : Reuss Voigt Hill
#
# Bulk Modulus (GPa) = 51.91682 92.63891 72.27786
# Shear Modulus (GPa) = 39.62026 47.07689 43.34858
#
# Velocity S-wave (km/s) = 3.91072 4.26286 4.09058
# Velocity P-wave (km/s) = 6.35860 7.74523 7.08592
#
# Compressibility (1/GPa) = 0.01926158
#
# Stress axis : x y z
#
# Youngs Moduli (GPa) = 127.77962 55.81525 217.39374
#
# Poissons Ratio (x) = 0.06822 0.57887
# Poissons Ratio (y) = 0.15618 0.35984
# Poissons Ratio (z) = 0.34025 0.09239
#
# Static dielectric constant tensor:
#      x y z
#    x 2.419860 0.000000 0.000000 
#    y 0.000000 2.804390 0.000000 
#    z 0.000000 0.000000 2.034050 
# 
# From -- ./inp_files/30420.got.cif
#   From: 2010.05.17/outbox.cif.g08.bks.cpg/sg68_16_cif.got.tgz:30420.got - 2010.06.03 18:57:09.
