data_PCOD9510312
_publ_section_title
;
Structure prediction by ZEFSAII (Michael W. Deem and Ramdas Pophale) SiO2 
 PCOD9510312
Probable space group: C C C A
;
_chemical_formula_sum "Si O2"
_cell_formula_units_Z 48
_cell_length_a 21.468489
_cell_length_b 10.331276
_cell_length_c 9.475562
_cell_angle_alpha 90.000000
_cell_angle_beta 90.000000
_cell_angle_gamma 90.000000
_cell_volume 2101.650137
_symmetry_space_group_name_H-M "C C C A"
_symmetry_group_IT_number 68
_space_group.IT_coordinate_system_code '2'
_symmetry_cell_setting 'orthorhombic'
loop_
_space_group_symop_operation_xyz
x,y,z
-x,1/2-y,z
x,1/2-y,1/2-z
-x,y,1/2-z
-x,-y,-z
x,1/2+y,-z
-x,1/2+y,1/2+z
x,-y,1/2+z
1/2+x,1/2+y,z
1/2-x,-y,z
1/2+x,-y,1/2-z
1/2-x,1/2+y,1/2-z
1/2-x,1/2-y,-z
1/2+x,y,-z
1/2-x,y,1/2+z
1/2+x,1/2-y,1/2+z
loop_
_atom_site_type_symbol
_atom_site_label
_atom_site_fract_x
_atom_site_fract_y
_atom_site_fract_z
Si Si1 0.257017 0.636794 0.362275
Si Si2 0.928289 0.596320 0.226382
Si Si3 0.351473 0.988766 0.479418
O O1 0.251157 0.750000 0.250000
O O2 0.250000 0.500000 0.277875
O O3 0.321173 0.616201 0.447136
O O4 0.202981 0.616297 0.481340
O O5 0.921258 0.750000 0.250000
O O6 0.879163 0.523383 0.328214
O O7 0.909542 0.559793 0.069321
O O8 0.000000 0.561091 0.250000
#
# Coordination Sequence:
#
# PCOD9510312 Si02
#       3
#    16  16  16
#     4   8  19  38  69 104 148 177 227 282 363 425
#     4  11  23  42  65  94 134 184 238 292 348 412
#     4   9  22  39  66  96 136 176 229 285 351 415
#
# _framework density 22.839196000000001
#
# number of rings (size 3 to 8) (size 9 to 14) (size 15 to 20)
#    2.000    0.333    0.000    2.000    0.000    8.000 
#    0.000   10.000    0.000    6.000    0.000    0.000 
#    0.000    0.000    0.000    0.000    0.000    0.000 
#
# Total GULP energy -133779.193749 kJ/mol
# GULP energy per Si atom -5574.133073 kJ/mol
# Density = 2.278721 g / cm^3
# Si number density = 22.839196 Si / 1000 Ang^3
#
#
#
# Elastic Constant Matrix: (Units=GPa)
#
#
# Indices 1 2 3 4 5 6 
#
# 1 119.3183 -12.6503 12.0038 0.0000 0.0000 0.0000
# 2 -12.6503 94.0819 24.7491 0.0000 0.0000 0.0000
# 3 12.0038 24.7491 82.5802 0.0000 0.0000 0.0000
# 4 0.0000 0.0000 0.0000 41.1178 0.0000 0.0000
# 5 0.0000 0.0000 0.0000 0.0000 72.9528 0.0000
# 6 0.0000 0.0000 0.0000 0.0000 0.0000 19.7562
#
#
#
# Elastic Compliance Matrix: (Units=1/GPa)
#
#
# Indices 1 2 3 4 5 6 
#
# 1 0.008732 0.001637 -0.001760 0.000000 0.000000 0.000000
# 2 0.001637 0.011846 -0.003788 0.000000 0.000000 0.000000
# 3 -0.001760 -0.003788 0.013501 0.000000 0.000000 0.000000
# 4 0.000000 0.000000 0.000000 0.024320 0.000000 0.000000
# 5 0.000000 0.000000 0.000000 0.000000 0.013707 0.000000
# 6 0.000000 0.000000 0.000000 0.000000 0.000000 0.050617
#
#
# Mechanical properties :
#
#
# Convention : Reuss Voigt Hill
#
# Bulk Modulus (GPa) = 38.08665 38.24284 38.16475
# Shear Modulus (GPa) = 35.89473 44.89056 40.39265
#
# Velocity S-wave (km/s) = 3.96868 4.43821 4.21000
# Velocity P-wave (km/s) = 6.14107 6.56082 6.35441
#
# Compressibility (1/GPa) = 0.02625592
#
# Stress axis : x y z
#
# Youngs Moduli (GPa) = 114.52726 84.41930 74.07129
#
# Poissons Ratio (x) = -0.13819 0.13035
# Poissons Ratio (y) = -0.18748 0.28059
# Poissons Ratio (z) = 0.20155 0.31978
#
# Static dielectric constant tensor:
#      x y z
#    x 1.840540 0.000000 0.000000 
#    y 0.000000 1.993710 0.000000 
#    z 0.000000 0.000000 1.886030 
# 
# From -- ./inp_files/15995.got.cif
#   From: 2010.05.17/outbox.cif.g08.bks.cpg/sg68_8_cif.got.tgz:15995.got - 2010.06.03 18:57:09.
