data_PCOD9510202
_publ_section_title
;
Structure prediction by ZEFSAII (Michael W. Deem and Ramdas Pophale) SiO2 
 PCOD9510202
Probable space group: C C C A
;
_chemical_formula_sum "Si O2"
_cell_formula_units_Z 84
_cell_length_a 11.239702
_cell_length_b 17.680346
_cell_length_c 21.003244
_cell_angle_alpha 90.000000
_cell_angle_beta 90.000000
_cell_angle_gamma 90.000000
_cell_volume 4173.802880
_symmetry_space_group_name_H-M "C C C A"
_symmetry_group_IT_number 68
_space_group.IT_coordinate_system_code '2'
_symmetry_cell_setting 'orthorhombic'
loop_
_space_group_symop_operation_xyz
x,y,z
-x,1/2-y,z
x,1/2-y,1/2-z
-x,y,1/2-z
-x,-y,-z
x,1/2+y,-z
-x,1/2+y,1/2+z
x,-y,1/2+z
1/2+x,1/2+y,z
1/2-x,-y,z
1/2+x,-y,1/2-z
1/2-x,1/2+y,1/2-z
1/2-x,1/2-y,-z
1/2+x,y,-z
1/2-x,y,1/2+z
1/2+x,1/2-y,1/2+z
loop_
_atom_site_type_symbol
_atom_site_label
_atom_site_fract_x
_atom_site_fract_y
_atom_site_fract_z
Si Si1 0.356041 0.940674 0.551938
Si Si2 0.323735 0.196558 0.148809
Si Si3 0.500000 0.250000 0.250000
Si Si4 0.990385 0.913371 0.947258
Si Si5 0.368610 0.288447 0.029807
Si Si6 0.054208 0.667307 0.815513
O O1 0.346910 0.873281 0.601330
O O2 0.383506 0.906694 0.482608
O O3 0.250000 0.000000 0.556268
O O4 0.465843 0.997731 0.562862
O O5 0.417655 0.200273 0.204804
O O6 0.341966 0.272287 0.104924
O O7 0.195284 0.181398 0.179593
O O8 0.982717 0.876733 0.878614
O O9 0.895487 0.868639 0.993865
O O10 0.500000 0.250000 0.018669
O O11 0.250000 0.250000 0.000000
O O12 0.000000 0.750000 0.820681
O O13 0.000000 0.634109 0.750000
#
# Coordination Sequence:
#
# PCOD9510202 Si02
#       6
#    16  16   4  16  16  16
#     4  11  22  42  65  98 133 170 222 287 351 394
#     4  12  24  43  68  98 133 178 224 288 334 405
#     4  12  24  44  66  96 132 172 244 270 332 408
#     4  11  23  38  68  98 132 174 223 281 347 416
#     4  12  22  40  70 106 135 171 228 289 348 397
#     4  11  24  42  63  96 135 178 223 270 337 410
#
# _framework density 20.125530000000001
#
# number of rings (size 3 to 8) (size 9 to 14) (size 15 to 20)
#    0.000    0.571    6.667    1.714    0.000    0.000 
#    1.714    3.810    0.000    0.000    0.000    0.000 
#    0.000    0.000    0.000    0.000    0.000    0.000 
#
# Total GULP energy -234125.390292 kJ/mol
# GULP energy per Si atom -5574.414055 kJ/mol
# Density = 2.007972 g / cm^3
# Si number density = 20.125530 Si / 1000 Ang^3
#
#
#
# Elastic Constant Matrix: (Units=GPa)
#
#
# Indices 1 2 3 4 5 6 
#
# 1 117.4766 28.6914 74.6614 0.0000 0.0000 0.0000
# 2 28.6914 78.1278 42.2440 0.0000 0.0000 0.0000
# 3 74.6614 42.2440 160.3319 0.0000 0.0000 0.0000
# 4 0.0000 0.0000 0.0000 15.4795 0.0000 0.0000
# 5 0.0000 0.0000 0.0000 0.0000 30.7388 0.0000
# 6 0.0000 0.0000 0.0000 0.0000 0.0000 -18.7030
#
#
#
# Elastic Compliance Matrix: (Units=1/GPa)
#
#
# Indices 1 2 3 4 5 6 
#
# 1 0.012271 -0.001652 -0.005279 0.000000 0.000000 0.000000
# 2 -0.001652 0.015148 -0.003222 0.000000 0.000000 0.000000
# 3 -0.005279 -0.003222 0.009544 0.000000 0.000000 0.000000
# 4 0.000000 0.000000 0.000000 0.064602 0.000000 0.000000
# 5 0.000000 0.000000 0.000000 0.000000 0.032532 0.000000
# 6 0.000000 0.000000 0.000000 0.000000 0.000000 -0.053467
#
#
# Mechanical properties :
#
#
# Convention : Reuss Voigt Hill
#
# Bulk Modulus (GPa) = 60.03250 71.90334 65.96792
# Shear Modulus (GPa) = 46.95370 19.52568 33.23969
#
# Velocity S-wave (km/s) = 4.83540 3.11817 4.06842
# Velocity P-wave (km/s) = 7.81464 6.98348 7.41072
#
# Compressibility (1/GPa) = 0.01665764
#
# Stress axis : x y z
#
# Youngs Moduli (GPa) = 81.49489 66.01380 104.77618
#
# Poissons Ratio (x) = 0.10905 0.55309
# Poissons Ratio (y) = 0.13463 0.33759
# Poissons Ratio (z) = 0.43020 0.21270
#
# Static dielectric constant tensor:
#      x y z
#    x 1.961060 0.000000 0.000000 
#    y 0.000000 -3.127040 0.000000 
#    z 0.000000 0.000000 1.768950 
# 
# From -- ./inp_files/37394.got.cif
#   From: 2010.05.17/outbox.cif.g08.bks.cpg/sg68_19_cif.got.tgz:37394.got - 2010.06.03 18:57:09.
