data_PCOD9510883
_publ_section_title
;
Structure prediction by ZEFSAII (Michael W. Deem and Ramdas Pophale) SiO2 
 PCOD9510883
Probable space group: C C C A
;
_chemical_formula_sum "Si O2"
_cell_formula_units_Z 60
_cell_length_a 15.294401
_cell_length_b 9.144265
_cell_length_c 17.276427
_cell_angle_alpha 90.000000
_cell_angle_beta 90.000000
_cell_angle_gamma 90.000000
_cell_volume 2416.212938
_symmetry_space_group_name_H-M "C C C A"
_symmetry_group_IT_number 68
_space_group.IT_coordinate_system_code '2'
_symmetry_cell_setting 'orthorhombic'
loop_
_space_group_symop_operation_xyz
x,y,z
-x,1/2-y,z
x,1/2-y,1/2-z
-x,y,1/2-z
-x,-y,-z
x,1/2+y,-z
-x,1/2+y,1/2+z
x,-y,1/2+z
1/2+x,1/2+y,z
1/2-x,-y,z
1/2+x,-y,1/2-z
1/2-x,1/2+y,1/2-z
1/2-x,1/2-y,-z
1/2+x,y,-z
1/2-x,y,1/2+z
1/2+x,1/2-y,1/2+z
loop_
_atom_site_type_symbol
_atom_site_label
_atom_site_fract_x
_atom_site_fract_y
_atom_site_fract_z
Si Si1 0.650035 0.199111 0.152773
Si Si2 0.093561 0.466804 0.037609
Si Si3 0.250000 0.500000 0.773916
Si Si4 0.500000 0.250000 0.250000
Si Si5 0.183017 0.834640 0.585067
O O1 0.599749 0.066805 0.112987
O O2 0.574134 0.302565 0.187947
O O3 0.707970 0.117625 0.217176
O O4 0.781490 0.731158 0.092703
O O5 0.120010 0.302799 0.063948
O O6 0.160338 0.541148 0.976869
O O7 0.000000 0.500000 0.000000
O O8 0.182399 0.585077 0.830748
#
# Coordination Sequence:
#
# PCOD9510883 Si02
#       5
#    16  16   8   4  16
#     4  12  27  51  81 118 161 219 273 343 431 502
#     4  12  30  51  80 123 163 220 286 353 415 513
#     4  12  26  50  86 112 158 218 284 342 434 526
#     4  12  28  48  76 122 166 200 278 358 416 500
#     4  12  28  52  81 117 164 221 278 342 436 512
#
# _framework density 24.832246999999999
#
# number of rings (size 3 to 8) (size 9 to 14) (size 15 to 20)
#    0.000    0.000    5.333    1.600   14.933    0.000 
#    0.000    0.000    0.000    0.000    0.000    0.000 
#    0.000    0.000    0.000    0.000    0.000    0.000 
#
# Total GULP energy -167212.578691 kJ/mol
# GULP energy per Si atom -5573.752623 kJ/mol
# Density = 2.477573 g / cm^3
# Si number density = 24.832247 Si / 1000 Ang^3
#
#
#
# Elastic Constant Matrix: (Units=GPa)
#
#
# Indices 1 2 3 4 5 6 
#
# 1 176.3322 74.1127 54.4185 0.0000 0.0000 0.0000
# 2 74.1127 183.4735 68.9521 0.0000 0.0000 0.0000
# 3 54.4185 68.9521 133.2712 0.0000 0.0000 0.0000
# 4 0.0000 0.0000 0.0000 58.9378 0.0000 0.0000
# 5 0.0000 0.0000 0.0000 0.0000 65.3565 0.0000
# 6 0.0000 0.0000 0.0000 0.0000 0.0000 -2.7589
#
#
#
# Elastic Compliance Matrix: (Units=1/GPa)
#
#
# Indices 1 2 3 4 5 6 
#
# 1 0.007152 -0.002224 -0.001770 0.000000 0.000000 0.000000
# 2 -0.002224 0.007457 -0.002950 0.000000 0.000000 0.000000
# 3 -0.001770 -0.002950 0.009753 0.000000 0.000000 0.000000
# 4 0.000000 0.000000 0.000000 0.016967 0.000000 0.000000
# 5 0.000000 0.000000 0.000000 0.000000 0.015301 0.000000
# 6 0.000000 0.000000 0.000000 0.000000 0.000000 -0.362458
#
#
# Mechanical properties :
#
#
# Convention : Reuss Voigt Hill
#
# Bulk Modulus (GPa) = 95.47310 98.67150 97.07230
# Shear Modulus (GPa) = -17.33406 44.01332 13.33963
#
# Velocity S-wave (km/s) = -2.64492 4.21459 2.32025
# Velocity P-wave (km/s) = 5.40400 7.96901 6.80839
#
# Compressibility (1/GPa) = 0.01047415
#
# Stress axis : x y z
#
# Youngs Moduli (GPa) = 139.82124 134.09396 102.53709
#
# Poissons Ratio (x) = 0.29821 0.18147
# Poissons Ratio (y) = 0.31095 0.30251
# Poissons Ratio (z) = 0.24745 0.39561
#
# Static dielectric constant tensor:
#      x y z
#    x 2.021090 0.000000 0.000000 
#    y 0.000000 2.052200 0.000000 
#    z 0.000000 0.000000 2.062430 
# 
# From -- ./inp_files/31482.got.cif
#   From: 2010.05.17/outbox.cif.g08.bks.cpg/sg68_16_cif.got.tgz:31482.got - 2010.06.03 18:57:09.
