data_PCOD9510160
_publ_section_title
;
Structure prediction by ZEFSAII (Michael W. Deem and Ramdas Pophale) SiO2 
 PCOD9510160
Probable space group: C C C A
;
_chemical_formula_sum "Si O2"
_cell_formula_units_Z 96
_cell_length_a 27.594567
_cell_length_b 18.985889
_cell_length_c 8.528198
_cell_angle_alpha 90.000000
_cell_angle_beta 90.000000
_cell_angle_gamma 90.000000
_cell_volume 4467.985922
_symmetry_space_group_name_H-M "C C C A"
_symmetry_group_IT_number 68
_space_group.IT_coordinate_system_code '2'
_symmetry_cell_setting 'orthorhombic'
loop_
_space_group_symop_operation_xyz
x,y,z
-x,1/2-y,z
x,1/2-y,1/2-z
-x,y,1/2-z
-x,-y,-z
x,1/2+y,-z
-x,1/2+y,1/2+z
x,-y,1/2+z
1/2+x,1/2+y,z
1/2-x,-y,z
1/2+x,-y,1/2-z
1/2-x,1/2+y,1/2-z
1/2-x,1/2-y,-z
1/2+x,y,-z
1/2-x,y,1/2+z
1/2+x,1/2-y,1/2+z
loop_
_atom_site_type_symbol
_atom_site_label
_atom_site_fract_x
_atom_site_fract_y
_atom_site_fract_z
Si Si1 0.606569 0.653726 0.444515
Si Si2 0.405922 0.598836 0.401625
Si Si3 0.551948 0.776355 0.569174
Si Si4 0.463624 0.958291 0.612352
Si Si5 0.296160 0.912578 0.564899
Si Si6 0.695456 0.071239 0.062039
O O1 0.599736 0.637926 0.262632
O O2 0.593927 0.733362 0.483719
O O3 0.567359 0.604813 0.537918
O O4 0.660273 0.634360 0.500626
O O5 0.440860 0.642967 0.517975
O O6 0.424832 0.520820 0.353274
O O7 0.355360 0.595648 0.492578
O O8 0.500000 0.750000 0.509591
O O9 0.554607 0.750000 0.750000
O O10 0.500000 0.935383 0.750000
O O11 0.500000 0.000000 0.500000
O O12 0.301097 0.920402 0.751509
O O13 0.241649 0.891177 0.517995
O O14 0.302198 0.988865 0.483643
#
# Coordination Sequence:
#
# PCOD9510160 Si02
#       6
#    16  16  16  16  16  16
#     4  12  25  43  68  96 134 176 224 273 337 394
#     4  12  25  44  66  98 133 178 222 275 334 399
#     4  11  27  45  67  93 135 182 226 272 331 400
#     4  12  26  40  65  98 132 171 224 282 328 389
#     4  11  22  39  65  98 132 171 215 275 338 394
#     4  11  22  39  65  97 134 168 218 273 338 396
#
# _framework density 21.486191000000002
#
# number of rings (size 3 to 8) (size 9 to 14) (size 15 to 20)
#    0.000    0.500    3.333    6.500    7.000    0.667 
#    0.000    0.833    0.000    0.000    0.000    0.000 
#    0.000    0.000    0.000    0.000    0.000    0.000 
#
# Total GULP energy -268482.328973 kJ/mol
# GULP energy per Si atom -5593.381854 kJ/mol
# Density = 2.143729 g / cm^3
# Si number density = 21.486191 Si / 1000 Ang^3
#
#
#
# Elastic Constant Matrix: (Units=GPa)
#
#
# Indices 1 2 3 4 5 6 
#
# 1 147.0675 28.3971 35.4857 0.0000 0.0000 0.0000
# 2 28.3971 74.1550 19.0463 0.0000 0.0000 0.0000
# 3 35.4857 19.0463 134.8210 0.0000 0.0000 0.0000
# 4 0.0000 0.0000 0.0000 29.7948 0.0000 0.0000
# 5 0.0000 0.0000 0.0000 0.0000 37.6720 0.0000
# 6 0.0000 0.0000 0.0000 0.0000 0.0000 35.8877
#
#
#
# Elastic Compliance Matrix: (Units=1/GPa)
#
#
# Indices 1 2 3 4 5 6 
#
# 1 0.007688 -0.002516 -0.001668 0.000000 0.000000 0.000000
# 2 -0.002516 0.014816 -0.001431 0.000000 0.000000 0.000000
# 3 -0.001668 -0.001431 0.008058 0.000000 0.000000 0.000000
# 4 0.000000 0.000000 0.000000 0.033563 0.000000 0.000000
# 5 0.000000 0.000000 0.000000 0.000000 0.026545 0.000000
# 6 0.000000 0.000000 0.000000 0.000000 0.000000 0.027865
#
#
# Mechanical properties :
#
#
# Convention : Reuss Voigt Hill
#
# Bulk Modulus (GPa) = 51.72470 57.98907 54.85689
# Shear Modulus (GPa) = 36.70841 38.87852 37.79347
#
# Velocity S-wave (km/s) = 4.13784 4.25840 4.19855
# Velocity P-wave (km/s) = 6.85235 7.15725 7.00646
#
# Compressibility (1/GPa) = 0.01933312
#
# Stress axis : x y z
#
# Youngs Moduli (GPa) = 130.07592 67.49410 124.09330
#
# Poissons Ratio (x) = 0.16978 0.20700
# Poissons Ratio (y) = 0.32721 0.17757
# Poissons Ratio (z) = 0.21698 0.09658
#
# Static dielectric constant tensor:
#      x y z
#    x 1.822800 0.000000 0.000000 
#    y 0.000000 1.814000 0.000000 
#    z 0.000000 0.000000 1.778240 
# 
# From -- ./inp_files/8944.got.cif
#   From: 2010.05.17/outbox.cif.g08.bks.cpg/sg68_5_cif.got.tgz:8944.got - 2010.06.03 18:57:09.
