data_PCOD9510016
_publ_section_title
;
Structure prediction by ZEFSAII (Michael W. Deem and Ramdas Pophale) SiO2 
 PCOD9510016
Probable space group: C C C A
;
_chemical_formula_sum "Si O2"
_cell_formula_units_Z 120
_cell_length_a 23.808175
_cell_length_b 10.960921
_cell_length_c 19.357348
_cell_angle_alpha 90.000000
_cell_angle_beta 90.000000
_cell_angle_gamma 90.000000
_cell_volume 5051.484346
_symmetry_space_group_name_H-M "C C C A"
_symmetry_group_IT_number 68
_space_group.IT_coordinate_system_code '2'
_symmetry_cell_setting 'orthorhombic'
loop_
_space_group_symop_operation_xyz
x,y,z
-x,1/2-y,z
x,1/2-y,1/2-z
-x,y,1/2-z
-x,-y,-z
x,1/2+y,-z
-x,1/2+y,1/2+z
x,-y,1/2+z
1/2+x,1/2+y,z
1/2-x,-y,z
1/2+x,-y,1/2-z
1/2-x,1/2+y,1/2-z
1/2-x,1/2-y,-z
1/2+x,y,-z
1/2-x,y,1/2+z
1/2+x,1/2-y,1/2+z
loop_
_atom_site_type_symbol
_atom_site_label
_atom_site_fract_x
_atom_site_fract_y
_atom_site_fract_z
Si Si1 0.036732 0.877797 0.404672
Si Si2 0.836997 0.082740 0.553672
Si Si3 0.381747 0.250000 0.750000
Si Si4 0.579647 0.110855 0.245136
Si Si5 0.571366 0.519935 0.608208
Si Si6 0.350863 0.658036 0.984994
Si Si7 0.685558 0.503441 0.288586
Si Si8 0.567024 0.747633 0.101319
O O1 0.095145 0.887814 0.444899
O O2 0.056658 0.923920 0.329268
O O3 0.000000 0.750000 0.402126
O O4 0.988301 0.967598 0.428432
O O5 0.816718 0.217879 0.530204
O O6 0.821305 0.969408 0.504656
O O7 0.819804 0.033247 0.629899
O O8 0.341901 0.369083 0.738023
O O9 0.420881 0.233636 0.817611
O O10 0.562911 0.250000 0.250000
O O11 0.559914 0.035781 0.310647
O O12 0.646480 0.097516 0.246586
O O13 0.612922 0.624636 0.582967
O O14 0.593010 0.387304 0.593062
O O15 0.395691 0.673572 0.048529
O O16 0.750000 0.500000 0.269298
O O17 0.500000 0.750000 0.087129
#
# Coordination Sequence:
#
# PCOD9510016 Si02
#       8
#    16  16   8  16  16  16  16  16
#     4  11  21  35  58  96 142 185 221 273 330 399
#     4  11  24  44  68  99 139 185 230 288 339 406
#     4  12  25  50  70 102 136 178 225 292 352 418
#     4  11  22  39  64  99 132 169 222 290 340 397
#     4  12  23  37  62  96 138 184 232 264 331 410
#     4  12  24  43  66  97 145 189 232 274 335 414
#     4  11  26  48  75  98 130 172 233 300 361 397
#     4  12  27  41  67  99 143 189 225 270 335 423
#
# _framework density 23.755393999999999
#
# number of rings (size 3 to 8) (size 9 to 14) (size 15 to 20)
#    0.000    0.533    6.667    2.200    4.667    2.133 
#    0.000    0.667    0.000    0.800    0.000    0.000 
#    0.000    0.000    0.000    0.000    0.000    0.000 
#
# Total GULP energy -334737.241096 kJ/mol
# GULP energy per Si atom -5578.954018 kJ/mol
# Density = 2.370133 g / cm^3
# Si number density = 23.755394 Si / 1000 Ang^3
#
#
#
# Elastic Constant Matrix: (Units=GPa)
#
#
# Indices 1 2 3 4 5 6 
#
# 1 76.7029 4.8764 -10.1590 0.0000 0.0000 0.0000
# 2 4.8764 147.9424 6.2555 0.0000 0.0000 0.0000
# 3 -10.1590 6.2555 109.9943 0.0000 0.0000 0.0000
# 4 0.0000 0.0000 0.0000 31.6205 0.0000 0.0000
# 5 0.0000 0.0000 0.0000 0.0000 15.6977 0.0000
# 6 0.0000 0.0000 0.0000 0.0000 0.0000 14.7937
#
#
#
# Elastic Compliance Matrix: (Units=1/GPa)
#
#
# Indices 1 2 3 4 5 6 
#
# 1 0.013234 -0.000489 0.001250 0.000000 0.000000 0.000000
# 2 -0.000489 0.006794 -0.000432 0.000000 0.000000 0.000000
# 3 0.001250 -0.000432 0.009231 0.000000 0.000000 0.000000
# 4 0.000000 0.000000 0.000000 0.031625 0.000000 0.000000
# 5 0.000000 0.000000 0.000000 0.000000 0.063703 0.000000
# 6 0.000000 0.000000 0.000000 0.000000 0.000000 0.067597
#
#
# Mechanical properties :
#
#
# Convention : Reuss Voigt Hill
#
# Bulk Modulus (GPa) = 33.42460 37.39839 35.41149
# Shear Modulus (GPa) = 24.81416 34.66683 29.74049
#
# Velocity S-wave (km/s) = 3.23549 3.82425 3.54212
# Velocity P-wave (km/s) = 5.29705 5.93946 5.62743
#
# Compressibility (1/GPa) = 0.02991808
#
# Stress axis : x y z
#
# Youngs Moduli (GPa) = 75.56302 147.19401 108.32622
#
# Poissons Ratio (x) = 0.07199 -0.13542
# Poissons Ratio (y) = 0.03696 0.04675
# Poissons Ratio (z) = -0.09446 0.06352
#
# Static dielectric constant tensor:
#      x y z
#    x 1.880020 0.000000 0.000000 
#    y 0.000000 1.842950 0.000000 
#    z 0.000000 0.000000 2.004540 
# 
# From -- ./inp_files/40934.got.cif
#   From: 2010.05.17/outbox.cif.g08.bks.cpg/sg68_21_cif.got.tgz:40934.got - 2010.06.03 18:57:09.
