data_PCOD9510056
_publ_section_title
;
Structure prediction by ZEFSAII (Michael W. Deem and Ramdas Pophale) SiO2 
 PCOD9510056
Probable space group: C C C A
;
_chemical_formula_sum "Si O2"
_cell_formula_units_Z 116
_cell_length_a 25.887468
_cell_length_b 9.692706
_cell_length_c 21.286243
_cell_angle_alpha 90.000000
_cell_angle_beta 90.000000
_cell_angle_gamma 90.000000
_cell_volume 5341.135928
_symmetry_space_group_name_H-M "C C C A"
_symmetry_group_IT_number 68
_space_group.IT_coordinate_system_code '2'
_symmetry_cell_setting 'orthorhombic'
loop_
_space_group_symop_operation_xyz
x,y,z
-x,1/2-y,z
x,1/2-y,1/2-z
-x,y,1/2-z
-x,-y,-z
x,1/2+y,-z
-x,1/2+y,1/2+z
x,-y,1/2+z
1/2+x,1/2+y,z
1/2-x,-y,z
1/2+x,-y,1/2-z
1/2-x,1/2+y,1/2-z
1/2-x,1/2-y,-z
1/2+x,y,-z
1/2-x,y,1/2+z
1/2+x,1/2-y,1/2+z
loop_
_atom_site_type_symbol
_atom_site_label
_atom_site_fract_x
_atom_site_fract_y
_atom_site_fract_z
Si Si1 0.000000 0.250000 0.750000
Si Si2 0.171555 0.222737 0.863569
Si Si3 0.361344 0.375265 0.878606
Si Si4 0.732139 0.641429 0.206884
Si Si5 0.637313 0.926142 0.087598
Si Si6 0.537873 0.627298 0.502151
Si Si7 0.929379 0.614835 0.147360
Si Si8 0.193478 0.058464 0.531791
O O1 0.030831 0.346852 0.798770
O O2 0.221575 0.265161 0.822310
O O3 0.122150 0.300601 0.835924
O O4 0.182855 0.303184 0.928889
O O5 0.151691 0.067063 0.876257
O O6 0.308651 0.414812 0.843142
O O7 0.366287 0.212984 0.873005
O O8 0.411034 0.456662 0.854768
O O9 0.348105 0.440752 0.947079
O O10 0.703139 0.750000 0.250000
O O11 0.750000 0.500000 0.239640
O O12 0.586273 0.911385 0.042851
O O13 0.685262 0.907946 0.040416
O O14 0.500000 0.750000 0.480179
O O15 0.500000 0.500000 0.500000
O O16 0.554753 0.653446 0.575182
O O17 0.250000 0.000000 0.542324
#
# Coordination Sequence:
#
# PCOD9510056 Si02
#       8
#     4  16  16  16  16  16  16  16
#     4  12  28  48  80 102 120 196 276 300 356 434
#     4  11  23  43  66 101 141 181 233 282 349 433
#     4  11  23  45  65 100 147 175 226 296 356 421
#     4  12  26  47  70  97 135 191 241 295 348 415
#     4  12  26  37  68 107 143 185 220 276 369 444
#     4  12  24  42  68 102 142 180 229 297 366 434
#     4  11  24  47  72  96 136 180 239 306 356 422
#     4  11  21  39  64  96 147 187 213 263 341 424
#
# _framework density 21.718226999999999
#
# number of rings (size 3 to 8) (size 9 to 14) (size 15 to 20)
#    0.000    0.552    7.586    2.483    4.828    1.103 
#    0.000    0.000    0.000    0.828    0.000    0.000 
#    0.000    0.000    0.000    0.000    0.000    0.000 
#
# Total GULP energy -323551.937637 kJ/mol
# GULP energy per Si atom -5578.481683 kJ/mol
# Density = 2.166880 g / cm^3
# Si number density = 21.718227 Si / 1000 Ang^3
#
#
#
# Elastic Constant Matrix: (Units=GPa)
#
#
# Indices 1 2 3 4 5 6 
#
# 1 99.9308 33.2381 22.6602 0.0000 0.0000 0.0000
# 2 33.2381 178.4393 17.4923 0.0000 0.0000 0.0000
# 3 22.6602 17.4923 47.3079 0.0000 0.0000 0.0000
# 4 0.0000 0.0000 0.0000 -15.5519 0.0000 0.0000
# 5 0.0000 0.0000 0.0000 0.0000 18.4415 0.0000
# 6 0.0000 0.0000 0.0000 0.0000 0.0000 39.3287
#
#
#
# Elastic Compliance Matrix: (Units=1/GPa)
#
#
# Indices 1 2 3 4 5 6 
#
# 1 0.011698 -0.001691 -0.004978 0.000000 0.000000 0.000000
# 2 -0.001691 0.006059 -0.001430 0.000000 0.000000 0.000000
# 3 -0.004978 -0.001430 0.024051 0.000000 0.000000 0.000000
# 4 0.000000 0.000000 0.000000 -0.064301 0.000000 0.000000
# 5 0.000000 0.000000 0.000000 0.000000 0.054226 0.000000
# 6 0.000000 0.000000 0.000000 0.000000 0.000000 0.025427
#
#
# Mechanical properties :
#
#
# Convention : Reuss Voigt Hill
#
# Bulk Modulus (GPa) = 39.04748 52.49547 45.77147
# Shear Modulus (GPa) = 61.05265 25.26281 43.15773
#
# Velocity S-wave (km/s) = 5.30776 3.41428 4.46260
# Velocity P-wave (km/s) = 7.45528 6.30609 6.90463
#
# Compressibility (1/GPa) = 0.02560985
#
# Stress axis : x y z
#
# Youngs Moduli (GPa) = 85.48317 165.03371 41.57746
#
# Poissons Ratio (x) = 0.27908 0.20698
# Poissons Ratio (y) = 0.14456 0.05948
# Poissons Ratio (z) = 0.42554 0.23608
#
# Static dielectric constant tensor:
#      x y z
#    x 1.851430 0.000000 0.000000 
#    y 0.000000 1.805670 0.000000 
#    z 0.000000 0.000000 1.886210 
# 
# From -- ./inp_files/47316.got.cif
#   From: 2010.05.17/outbox.cif.g08.bks.cpg/sg68_24_cif.got.tgz:47316.got - 2010.06.03 18:57:09.
