data_PCOD9510906
_publ_section_title
;
Structure prediction by ZEFSAII (Michael W. Deem and Ramdas Pophale) SiO2 
 PCOD9510906
Probable space group: C C C A
;
_chemical_formula_sum "Si O2"
_cell_formula_units_Z 44
_cell_length_a 13.880138
_cell_length_b 5.511146
_cell_length_c 27.012788
_cell_angle_alpha 90.000000
_cell_angle_beta 90.000000
_cell_angle_gamma 90.000000
_cell_volume 2066.355834
_symmetry_space_group_name_H-M "C C C A"
_symmetry_group_IT_number 68
_space_group.IT_coordinate_system_code '2'
_symmetry_cell_setting 'orthorhombic'
loop_
_space_group_symop_operation_xyz
x,y,z
-x,1/2-y,z
x,1/2-y,1/2-z
-x,y,1/2-z
-x,-y,-z
x,1/2+y,-z
-x,1/2+y,1/2+z
x,-y,1/2+z
1/2+x,1/2+y,z
1/2-x,-y,z
1/2+x,-y,1/2-z
1/2-x,1/2+y,1/2-z
1/2-x,1/2-y,-z
1/2+x,y,-z
1/2-x,y,1/2+z
1/2+x,1/2-y,1/2+z
loop_
_atom_site_type_symbol
_atom_site_label
_atom_site_fract_x
_atom_site_fract_y
_atom_site_fract_z
Si Si1 0.194850 0.744010 0.906197
Si Si2 0.000000 0.750000 0.531192
Si Si3 0.000000 0.750000 0.250000
Si Si4 0.607802 0.142404 0.801359
O O1 0.250000 0.500000 0.923624
O O2 0.094787 0.755815 0.935125
O O3 0.171137 0.699260 0.848316
O O4 0.250000 0.000000 0.912542
O O5 0.000000 0.500000 0.500000
O O6 0.076136 0.627577 0.287702
O O7 0.500000 0.250000 0.808736
O O8 0.647733 0.250000 0.750000
#
# Coordination Sequence:
#
# PCOD9510906 Si02
#       4
#    16   8   4  16
#     4  12  28  45  75 112 142 186 245 293 355 440
#     4  12  28  53  79 102 145 188 233 312 378 416
#     4   8  18  34  72  94 140 206 240 272 338 428
#     4   9  20  39  66 100 146 193 235 281 346 418
#
# _framework density 21.293526
#
# number of rings (size 3 to 8) (size 9 to 14) (size 15 to 20)
#    0.000    1.818    1.818    2.182   10.182    7.273 
#    0.000    0.000    0.000    0.000    0.000    0.000 
#    0.000    0.000    0.000    0.000    0.000    0.000 
#
# Total GULP energy -122695.070178 kJ/mol
# GULP energy per Si atom -5577.048644 kJ/mol
# Density = 2.124506 g / cm^3
# Si number density = 21.293526 Si / 1000 Ang^3
#
#
#
# Elastic Constant Matrix: (Units=GPa)
#
#
# Indices 1 2 3 4 5 6 
#
# 1 149.6784 85.1226 76.8820 0.0000 0.0000 0.0000
# 2 85.1226 161.6147 70.0086 0.0000 0.0000 0.0000
# 3 76.8820 70.0086 115.9819 0.0000 0.0000 0.0000
# 4 0.0000 0.0000 0.0000 32.3013 0.0000 0.0000
# 5 0.0000 0.0000 0.0000 0.0000 -32.2245 0.0000
# 6 0.0000 0.0000 0.0000 0.0000 0.0000 145.0089
#
#
#
# Elastic Compliance Matrix: (Units=1/GPa)
#
#
# Indices 1 2 3 4 5 6 
#
# 1 0.011607 -0.003765 -0.005421 0.000000 0.000000 0.000000
# 2 -0.003765 0.009599 -0.003299 0.000000 0.000000 0.000000
# 3 -0.005421 -0.003299 0.014207 0.000000 0.000000 0.000000
# 4 0.000000 0.000000 0.000000 0.030958 0.000000 0.000000
# 5 0.000000 0.000000 0.000000 0.000000 -0.031032 0.000000
# 6 0.000000 0.000000 0.000000 0.000000 0.000000 0.006896
#
#
# Mechanical properties :
#
#
# Convention : Reuss Voigt Hill
#
# Bulk Modulus (GPa) = 95.75587 99.03350 97.39469
# Shear Modulus (GPa) = 70.73500 42.03461 56.38480
#
# Velocity S-wave (km/s) = 5.76985 4.44785 5.15143
# Velocity P-wave (km/s) = 9.45808 8.54328 9.01229
#
# Compressibility (1/GPa) = 0.01044322
#
# Stress axis : x y z
#
# Youngs Moduli (GPa) = 86.15696 104.17240 70.38826
#
# Poissons Ratio (x) = 0.39219 0.38160
# Poissons Ratio (y) = 0.32437 0.23219
# Poissons Ratio (z) = 0.46709 0.34364
#
# Static dielectric constant tensor:
#      x y z
#    x 1.751300 0.000000 0.000000 
#    y 0.000000 1.459660 0.000000 
#    z 0.000000 0.000000 1.707650 
# 
# From -- ./inp_files/50541.got.cif
#   From: 2010.05.17/outbox.cif.g08.bks.cpg/sg68_26_cif.got.tgz:50541.got - 2010.06.03 18:57:09.
