data_PCOD9510011
_publ_section_title
;
Structure prediction by ZEFSAII (Michael W. Deem and Ramdas Pophale) SiO2 
 PCOD9510011
Probable space group: C C C A
;
_chemical_formula_sum "Si O2"
_cell_formula_units_Z 116
_cell_length_a 8.352717
_cell_length_b 26.253194
_cell_length_c 26.123691
_cell_angle_alpha 90.000000
_cell_angle_beta 90.000000
_cell_angle_gamma 90.000000
_cell_volume 5728.546638
_symmetry_space_group_name_H-M "C C C A"
_symmetry_group_IT_number 68
_space_group.IT_coordinate_system_code '2'
_symmetry_cell_setting 'orthorhombic'
loop_
_space_group_symop_operation_xyz
x,y,z
-x,1/2-y,z
x,1/2-y,1/2-z
-x,y,1/2-z
-x,-y,-z
x,1/2+y,-z
-x,1/2+y,1/2+z
x,-y,1/2+z
1/2+x,1/2+y,z
1/2-x,-y,z
1/2+x,-y,1/2-z
1/2-x,1/2+y,1/2-z
1/2-x,1/2-y,-z
1/2+x,y,-z
1/2-x,y,1/2+z
1/2+x,1/2-y,1/2+z
loop_
_atom_site_type_symbol
_atom_site_label
_atom_site_fract_x
_atom_site_fract_y
_atom_site_fract_z
Si Si1 0.604014 0.696084 0.924900
Si Si2 0.976276 0.331812 0.309422
Si Si3 0.521267 0.400398 0.902844
Si Si4 0.500000 0.750000 0.750000
Si Si5 0.759790 0.258699 0.668246
Si Si6 0.219250 0.441419 0.954178
Si Si7 0.846850 0.085000 0.561816
Si Si8 0.923335 0.197475 0.022897
O O1 0.652777 0.736734 0.881921
O O2 0.626945 0.638002 0.907255
O O3 0.736803 0.702411 0.968207
O O4 0.450654 0.694353 0.961820
O O5 0.831833 0.291193 0.311001
O O6 0.000000 0.343902 0.250000
O O7 0.953834 0.379270 0.346116
O O8 0.125736 0.301579 0.335203
O O9 0.348449 0.426265 0.910760
O O10 0.677764 0.435566 0.915006
O O11 0.527567 0.351224 0.942114
O O12 0.386068 0.778639 0.710108
O O13 0.250000 0.500000 0.968153
O O14 0.029122 0.436019 0.942538
O O15 0.283716 0.409721 0.003184
O O16 0.000000 0.250000 0.042969
#
# Coordination Sequence:
#
# PCOD9510011 Si02
#       8
#    16  16  16   4  16  16  16  16
#     4  11  22  36  54  83 124 166 208 256 311 372
#     4  11  21  44  64  83 121 173 221 267 321 376
#     4  11  24  39  63  91 127 172 211 263 330 376
#     4  12  24  38  56  92 116 158 244 284 318 350
#     4  11  22  39  60  86 123 171 217 271 314 366
#     4  12  24  40  66  97 127 169 210 264 327 402
#     4  11  21  39  60  91 132 161 211 257 314 393
#     4  11  21  35  50  79 122 167 208 237 300 381
#
# _framework density 20.249464
#
# number of rings (size 3 to 8) (size 9 to 14) (size 15 to 20)
#    0.000    0.828    6.897    2.897    0.966    1.103 
#    0.000    0.000    0.000    0.000    3.586    0.000 
#    0.000    0.000    0.000    0.000    0.000    0.000 
#
# Total GULP energy -322904.526402 kJ/mol
# GULP energy per Si atom -5567.319421 kJ/mol
# Density = 2.020337 g / cm^3
# Si number density = 20.249464 Si / 1000 Ang^3
#
#
#
# Elastic Constant Matrix: (Units=GPa)
#
#
# Indices 1 2 3 4 5 6 
#
# 1 143.7696 18.4254 40.3556 0.0000 0.0000 0.0000
# 2 18.4254 44.2224 16.0178 0.0000 0.0000 0.0000
# 3 40.3556 16.0178 117.9381 0.0000 0.0000 0.0000
# 4 0.0000 0.0000 0.0000 4.3871 0.0000 0.0000
# 5 0.0000 0.0000 0.0000 0.0000 26.1556 0.0000
# 6 0.0000 0.0000 0.0000 0.0000 0.0000 25.9612
#
#
#
# Elastic Compliance Matrix: (Units=1/GPa)
#
#
# Indices 1 2 3 4 5 6 
#
# 1 0.007938 -0.002444 -0.002384 0.000000 0.000000 0.000000
# 2 -0.002444 0.024535 -0.002496 0.000000 0.000000 0.000000
# 3 -0.002384 -0.002496 0.009634 0.000000 0.000000 0.000000
# 4 0.000000 0.000000 0.000000 0.227939 0.000000 0.000000
# 5 0.000000 0.000000 0.000000 0.000000 0.038233 0.000000
# 6 0.000000 0.000000 0.000000 0.000000 0.000000 0.038519
#
#
# Mechanical properties :
#
#
# Convention : Reuss Voigt Hill
#
# Bulk Modulus (GPa) = 36.41807 50.61418 43.51613
# Shear Modulus (GPa) = 13.49167 26.70954 20.10061
#
# Velocity S-wave (km/s) = 2.58403 3.63578 3.15405
# Velocity P-wave (km/s) = 5.18909 6.53259 5.89921
#
# Compressibility (1/GPa) = 0.02745890
#
# Stress axis : x y z
#
# Youngs Moduli (GPa) = 125.97587 40.75763 103.80034
#
# Poissons Ratio (x) = 0.09960 0.24749
# Poissons Ratio (y) = 0.30786 0.25909
# Poissons Ratio (z) = 0.30036 0.10173
#
# Static dielectric constant tensor:
#      x y z
#    x 1.859580 0.000000 0.000000 
#    y 0.000000 1.813200 0.000000 
#    z 0.000000 0.000000 1.728810 
# 
# From -- ./inp_files/43526.got.cif
#   From: 2010.05.17/outbox.cif.g08.bks.cpg/sg68_22_cif.got.tgz:43526.got - 2010.06.03 18:57:09.
