data_PCOD9510768
_publ_section_title
;
Structure prediction by ZEFSAII (Michael W. Deem and Ramdas Pophale) SiO2 
 PCOD9510768
Probable space group: C C C A
;
_chemical_formula_sum "Si O2"
_cell_formula_units_Z 40
_cell_length_a 12.983300
_cell_length_b 7.696290
_cell_length_c 13.630328
_cell_angle_alpha 90.000000
_cell_angle_beta 90.000000
_cell_angle_gamma 90.000000
_cell_volume 1361.986563
_symmetry_space_group_name_H-M "C C C A"
_symmetry_group_IT_number 68
_space_group.IT_coordinate_system_code '2'
_symmetry_cell_setting 'orthorhombic'
loop_
_space_group_symop_operation_xyz
x,y,z
-x,1/2-y,z
x,1/2-y,1/2-z
-x,y,1/2-z
-x,-y,-z
x,1/2+y,-z
-x,1/2+y,1/2+z
x,-y,1/2+z
1/2+x,1/2+y,z
1/2-x,-y,z
1/2+x,-y,1/2-z
1/2-x,1/2+y,1/2-z
1/2-x,1/2-y,-z
1/2+x,y,-z
1/2-x,y,1/2+z
1/2+x,1/2-y,1/2+z
loop_
_atom_site_type_symbol
_atom_site_label
_atom_site_fract_x
_atom_site_fract_y
_atom_site_fract_z
Si Si1 0.596123 0.030665 0.579962
Si Si2 0.170551 0.653468 0.385322
Si Si3 0.500000 0.750000 0.750000
Si Si4 0.500000 0.250000 0.750000
O O1 0.663478 0.633266 0.498435
O O2 0.572285 0.152797 0.671142
O O3 0.500000 0.000000 0.500000
O O4 0.433636 0.874840 0.679149
O O5 0.250000 0.500000 0.354344
O O6 0.157187 0.863679 0.377881
#
# Coordination Sequence:
#
# PCOD9510768 Si02
#       4
#    16  16   4   4
#     4  12  23  49  84 137 198 259 335 428 515 609
#     4  12  27  50  87 135 201 261 339 423 513 623
#     4  12  24  52  90 130 202 258 328 422 504 598
#     4  12  24  44  96 142 194 288 336 416 552 598
#
# _framework density 29.368863999999999
#
# number of rings (size 3 to 8) (size 9 to 14) (size 15 to 20)
#    0.000    0.000    8.000    2.400    0.000    0.000 
#    0.000    8.000    0.000    0.000    0.000   22.400 
#    0.000    2.800    0.000    0.000    0.000    0.000 
#
# Total GULP energy -111457.151772 kJ/mol
# GULP energy per Si atom -5572.857589 kJ/mol
# Density = 2.930202 g / cm^3
# Si number density = 29.368864 Si / 1000 Ang^3
#
#
#
# Elastic Constant Matrix: (Units=GPa)
#
#
# Indices 1 2 3 4 5 6 
#
# 1 178.2217 100.9314 82.3116 0.0000 0.0000 0.0000
# 2 100.9314 206.0867 82.8120 0.0000 0.0000 0.0000
# 3 82.3116 82.8120 273.7580 0.0000 0.0000 0.0000
# 4 0.0000 0.0000 0.0000 85.8686 0.0000 0.0000
# 5 0.0000 0.0000 0.0000 0.0000 46.2116 0.0000
# 6 0.0000 0.0000 0.0000 0.0000 0.0000 93.3151
#
#
#
# Elastic Compliance Matrix: (Units=1/GPa)
#
#
# Indices 1 2 3 4 5 6 
#
# 1 0.008228 -0.003455 -0.001429 0.000000 0.000000 0.000000
# 2 -0.003455 0.006975 -0.001071 0.000000 0.000000 0.000000
# 3 -0.001429 -0.001071 0.004406 0.000000 0.000000 0.000000
# 4 0.000000 0.000000 0.000000 0.011646 0.000000 0.000000
# 5 0.000000 0.000000 0.000000 0.000000 0.021640 0.000000
# 6 0.000000 0.000000 0.000000 0.000000 0.000000 0.010716
#
#
# Mechanical properties :
#
#
# Convention : Reuss Voigt Hill
#
# Bulk Modulus (GPa) = 129.88660 132.24182 131.06421
# Shear Modulus (GPa) = 64.03102 71.21313 67.62207
#
# Velocity S-wave (km/s) = 4.67436 4.92955 4.80365
# Velocity P-wave (km/s) = 8.57058 8.80490 8.68853
#
# Compressibility (1/GPa) = 0.00769902
#
# Stress axis : x y z
#
# Youngs Moduli (GPa) = 121.54063 143.36890 226.94473
#
# Poissons Ratio (x) = 0.49541 0.32420
# Poissons Ratio (y) = 0.41998 0.24305
# Poissons Ratio (z) = 0.17363 0.15354
#
# Static dielectric constant tensor:
#      x y z
#    x 3.026440 0.000000 0.000000 
#    y 0.000000 2.937650 0.000000 
#    z 0.000000 0.000000 2.218370 
# 
# From -- ./inp_files/19839.got.cif
#   From: 2010.05.17/outbox.cif.g08.bks.cpg/sg68_10_cif.got.tgz:19839.got - 2010.06.03 18:57:09.
