data_PCOD9510994
_publ_section_title
;
Structure prediction by ZEFSAII (Michael W. Deem and Ramdas Pophale) SiO2 
 PCOD9510994
Probable space group: F M M M
;
_chemical_formula_sum "Si O2"
_cell_formula_units_Z 112
_cell_length_a 31.943554
_cell_length_b 14.239608
_cell_length_c 11.192567
_cell_angle_alpha 90.000000
_cell_angle_beta 90.000000
_cell_angle_gamma 90.000000
_cell_volume 5091.092294
_symmetry_space_group_name_H-M "F M M M"
_symmetry_group_IT_number 69
_symmetry_cell_setting 'orthorhombic'
loop_
_space_group_symop_operation_xyz
x,y,z
-x,-y,z
x,-y,-z
-x,y,-z
-x,-y,-z
x,y,-z
-x,y,z
x,-y,z
x,1/2+y,1/2+z
-x,1/2-y,1/2+z
x,1/2-y,1/2-z
-x,1/2+y,1/2-z
-x,1/2-y,1/2-z
x,1/2+y,1/2-z
-x,1/2+y,1/2+z
x,1/2-y,1/2+z
1/2+x,y,1/2+z
1/2-x,-y,1/2+z
1/2+x,-y,1/2-z
1/2-x,y,1/2-z
1/2-x,-y,1/2-z
1/2+x,y,1/2-z
1/2-x,y,1/2+z
1/2+x,-y,1/2+z
1/2+x,1/2+y,z
1/2-x,1/2-y,z
1/2+x,1/2-y,-z
1/2-x,1/2+y,-z
1/2-x,1/2-y,-z
1/2+x,1/2+y,-z
1/2-x,1/2+y,z
1/2+x,1/2-y,z
loop_
_atom_site_type_symbol
_atom_site_label
_atom_site_fract_x
_atom_site_fract_y
_atom_site_fract_z
Si Si1 0.276357 0.113375 0.867244
Si Si2 0.593292 0.863821 0.370706
Si Si3 0.128282 0.348216 0.129213
Si Si4 0.000000 0.315969 0.366479
O O1 0.250000 0.138702 0.750000
O O2 0.321707 0.161423 0.862575
O O3 0.283017 0.000000 0.862442
O O4 0.257684 0.133179 0.000000
O O5 0.607517 0.899783 0.500000
O O6 0.605478 0.752871 0.372742
O O7 0.613553 0.898611 0.249016
O O8 0.543280 0.872459 0.362474
O O9 0.119363 0.392609 0.000000
O O10 0.000000 0.250000 0.250000
O O11 0.000000 0.268877 0.500000
#
# Coordination Sequence:
#
# PCOD9510994 Si02
#       4
#    32  32  32  16
#     4   9  18  32  48  64  81 105 140 178 213 250
#     4   9  17  27  41  64  90 114 140 169 204 245
#     4   9  16  27  43  62  85 110 136 170 210 249
#     4  10  16  24  40  62  88 117 145 171 197 238
#
# _framework density 21.999207999999999
#
# number of rings (size 3 to 8) (size 9 to 14) (size 15 to 20)
#    0.000    2.857    2.857    0.000    0.000    1.143 
#    0.000    2.857    0.000   15.429    0.000    4.000 
#    0.000   25.143    0.000    0.000    0.000    0.000 
#
# Total GULP energy -155999.885969 kJ/mol
# GULP energy per Si atom -5571.424499 kJ/mol
# Density = 2.194914 g / cm^3
# Si number density = 21.999208 Si / 1000 Ang^3
#
#
#
# Elastic Constant Matrix: (Units=GPa)
#
#
# Indices 1 2 3 4 5 6 
#
# 1 95.6174 8.3793 67.2322 0.0000 0.0000 0.0000
# 2 8.3793 80.6945 4.3900 0.0000 0.0000 0.0000
# 3 67.2322 4.3900 301.8285 0.0000 0.0000 0.0000
# 4 0.0000 0.0000 0.0000 -17.8314 0.0000 0.0000
# 5 0.0000 0.0000 0.0000 0.0000 43.0846 0.0000
# 6 0.0000 0.0000 0.0000 0.0000 0.0000 -39.4811
#
#
#
# Elastic Compliance Matrix: (Units=1/GPa)
#
#
# Indices 1 2 3 4 5 6 
#
# 1 0.012506 -0.001148 -0.002769 0.000000 0.000000 0.000000
# 2 -0.001148 0.012508 0.000074 0.000000 0.000000 0.000000
# 3 -0.002769 0.000074 0.003929 0.000000 0.000000 0.000000
# 4 0.000000 0.000000 0.000000 -0.056081 0.000000 0.000000
# 5 0.000000 0.000000 0.000000 0.000000 0.023210 0.000000
# 6 0.000000 0.000000 0.000000 0.000000 0.000000 -0.025329
#
#
# Mechanical properties :
#
#
# Convention : Reuss Voigt Hill
#
# Bulk Modulus (GPa) = 47.04543 70.90483 58.97513
# Shear Modulus (GPa) = -345.17713 23.69702 -160.74005
#
# Velocity S-wave (km/s) = -12.53974 3.28560 -8.55716
# Velocity P-wave (km/s) = 13.71964 6.83331 8.41232
#
# Compressibility (1/GPa) = 0.02125605
#
# Stress axis : x y z
#
# Youngs Moduli (GPa) = 79.96199 79.95130 254.52677
#
# Poissons Ratio (x) = 0.09178 0.70478
# Poissons Ratio (y) = 0.09179 -0.01878
# Poissons Ratio (z) = 0.22141 -0.00590
#
# Static dielectric constant tensor:
#      x y z
#    x 1.754250 0.000000 0.000000 
#    y 0.000000 1.818900 0.000000 
#    z 0.000000 0.000000 1.871830 
# 
# From -- ./inp_files/7353.got.cif
#   From: 2010.05.17/outbox.cif.g08.bks.cpg/sg69_4_cif.got.tgz:7353.got - 2010.06.03 19:29:58.
