data_PCOD9510281
_publ_section_title
;
Structure prediction by ZEFSAII (Michael W. Deem and Ramdas Pophale) SiO2 
 PCOD9510281
Probable space group: C C C A
;
_chemical_formula_sum "Si O2"
_cell_formula_units_Z 52
_cell_length_a 17.226845
_cell_length_b 4.886061
_cell_length_c 27.966747
_cell_angle_alpha 90.000000
_cell_angle_beta 90.000000
_cell_angle_gamma 90.000000
_cell_volume 2354.000682
_symmetry_space_group_name_H-M "C C C A"
_symmetry_group_IT_number 68
_space_group.IT_coordinate_system_code '2'
_symmetry_cell_setting 'orthorhombic'
loop_
_space_group_symop_operation_xyz
x,y,z
-x,1/2-y,z
x,1/2-y,1/2-z
-x,y,1/2-z
-x,-y,-z
x,1/2+y,-z
-x,1/2+y,1/2+z
x,-y,1/2+z
1/2+x,1/2+y,z
1/2-x,-y,z
1/2+x,-y,1/2-z
1/2-x,1/2+y,1/2-z
1/2-x,1/2-y,-z
1/2+x,y,-z
1/2-x,y,1/2+z
1/2+x,1/2-y,1/2+z
loop_
_atom_site_type_symbol
_atom_site_label
_atom_site_fract_x
_atom_site_fract_y
_atom_site_fract_z
Si Si1 0.155835 0.462504 0.530550
Si Si2 0.161290 0.399212 0.136551
Si Si3 0.921075 0.372343 0.671370
Si Si4 0.500000 0.250000 0.750000
O O1 0.132200 0.168829 0.511361
O O2 0.250000 0.500000 0.532385
O O3 0.128842 0.524504 0.583947
O O4 0.250000 0.500000 0.135805
O O5 0.125053 0.590912 0.177679
O O6 0.136396 0.085097 0.144544
O O7 0.000000 0.250000 0.647526
O O8 0.950788 0.547103 0.716152
#
# Coordination Sequence:
#
# PCOD9510281 Si02
#       4
#    16  16  16   4
#     4   9  17  32  57  91 131 172 209 249 308 385
#     4  11  23  40  68 104 133 163 215 280 327 361
#     4  12  24  44  71  91 126 173 224 256 324 414
#     4  12  26  48  74  88 114 180 228 244 318 440
#
# _framework density 22.090055
#
# number of rings (size 3 to 8) (size 9 to 14) (size 15 to 20)
#    0.000    1.231    3.077    3.231    0.000    4.923 
#    0.000    3.077    0.000   18.462    0.000    0.000 
#    0.000    0.000    0.000    0.000    0.000    0.000 
#
# Total GULP energy -144803.586720 kJ/mol
# GULP energy per Si atom -5569.368720 kJ/mol
# Density = 2.203978 g / cm^3
# Si number density = 22.090055 Si / 1000 Ang^3
#
#
#
# Elastic Constant Matrix: (Units=GPa)
#
#
# Indices 1 2 3 4 5 6 
#
# 1 66.1147 22.8538 10.5225 0.0000 0.0000 0.0000
# 2 22.8538 117.9959 8.9324 0.0000 0.0000 0.0000
# 3 10.5225 8.9324 67.5136 0.0000 0.0000 0.0000
# 4 0.0000 0.0000 0.0000 20.3311 0.0000 0.0000
# 5 0.0000 0.0000 0.0000 0.0000 14.2771 0.0000
# 6 0.0000 0.0000 0.0000 0.0000 0.0000 45.7205
#
#
#
# Elastic Compliance Matrix: (Units=1/GPa)
#
#
# Indices 1 2 3 4 5 6 
#
# 1 0.016520 -0.003035 -0.002173 0.000000 0.000000 0.000000
# 2 -0.003035 0.009118 -0.000733 0.000000 0.000000 0.000000
# 3 -0.002173 -0.000733 0.015248 0.000000 0.000000 0.000000
# 4 0.000000 0.000000 0.000000 0.049186 0.000000 0.000000
# 5 0.000000 0.000000 0.000000 0.000000 0.070042 0.000000
# 6 0.000000 0.000000 0.000000 0.000000 0.000000 0.021872
#
#
# Mechanical properties :
#
#
# Convention : Reuss Voigt Hill
#
# Bulk Modulus (GPa) = 34.47968 37.36018 35.91993
# Shear Modulus (GPa) = 24.56555 30.02011 27.29283
#
# Velocity S-wave (km/s) = 3.33838 3.69044 3.51882
# Velocity P-wave (km/s) = 5.52289 5.92525 5.72760
#
# Compressibility (1/GPa) = 0.02900259
#
# Stress axis : x y z
#
# Youngs Moduli (GPa) = 60.53170 109.67019 65.58418
#
# Poissons Ratio (x) = 0.33287 0.14253
# Poissons Ratio (y) = 0.18372 0.04810
# Poissons Ratio (z) = 0.13155 0.08043
#
# Static dielectric constant tensor:
#      x y z
#    x 1.951910 0.000000 0.000000 
#    y 0.000000 1.805410 0.000000 
#    z 0.000000 0.000000 1.825410 
# 
# From -- ./inp_files/55407.got.cif
#   From: 2010.05.17/outbox.cif.g08.bks.cpg/sg68_28_cif.got.tgz:55407.got - 2010.06.03 18:57:09.
