data_PCOD9510642
_publ_section_title
;
Structure prediction by ZEFSAII (Michael W. Deem and Ramdas Pophale) SiO2 
 PCOD9510642
Probable space group: C C C A
;
_chemical_formula_sum "Si O2"
_cell_formula_units_Z 48
_cell_length_a 24.529557
_cell_length_b 9.626760
_cell_length_c 8.369336
_cell_angle_alpha 90.000000
_cell_angle_beta 90.000000
_cell_angle_gamma 90.000000
_cell_volume 1976.336327
_symmetry_space_group_name_H-M "C C C A"
_symmetry_group_IT_number 68
_space_group.IT_coordinate_system_code '2'
_symmetry_cell_setting 'orthorhombic'
loop_
_space_group_symop_operation_xyz
x,y,z
-x,1/2-y,z
x,1/2-y,1/2-z
-x,y,1/2-z
-x,-y,-z
x,1/2+y,-z
-x,1/2+y,1/2+z
x,-y,1/2+z
1/2+x,1/2+y,z
1/2-x,-y,z
1/2+x,-y,1/2-z
1/2-x,1/2+y,1/2-z
1/2-x,1/2-y,-z
1/2+x,y,-z
1/2-x,y,1/2+z
1/2+x,1/2-y,1/2+z
loop_
_atom_site_type_symbol
_atom_site_label
_atom_site_fract_x
_atom_site_fract_y
_atom_site_fract_z
Si Si1 0.442980 0.598729 0.679599
Si Si2 0.215432 0.356715 0.605909
Si Si3 0.384803 0.119280 0.632006
O O1 0.437954 0.750000 0.750000
O O2 0.500000 0.543203 0.750000
O O3 0.394553 0.507955 0.751043
O O4 0.435778 0.616830 0.490894
O O5 0.199062 0.250000 0.750000
O O6 0.250000 0.500000 0.647317
O O7 0.250000 0.250000 0.500000
O O8 0.166695 0.394257 0.483731
O O9 0.381455 0.250000 0.750000
#
# Coordination Sequence:
#
# PCOD9510642 Si02
#       3
#    16  16  16
#     4  11  26  49  79 118 161 210 268 330 409 488
#     4  12  30  52  81 119 165 217 279 341 416 491
#     4  12  28  50  80 117 162 212 268 338 409 485
#
# _framework density 24.287362999999999
#
# number of rings (size 3 to 8) (size 9 to 14) (size 15 to 20)
#    0.000    0.333    0.000    6.000   18.667    3.333 
#    0.000    0.000    0.000    0.000    0.000    0.000 
#    0.000    0.000    0.000    0.000    0.000    0.000 
#
# Total GULP energy -134139.229528 kJ/mol
# GULP energy per Si atom -5589.134564 kJ/mol
# Density = 2.423208 g / cm^3
# Si number density = 24.287363 Si / 1000 Ang^3
#
#
#
# Elastic Constant Matrix: (Units=GPa)
#
#
# Indices 1 2 3 4 5 6 
#
# 1 126.3870 66.1382 71.8243 0.0000 0.0000 0.0000
# 2 66.1382 157.8211 79.5204 0.0000 0.0000 0.0000
# 3 71.8243 79.5204 179.7911 0.0000 0.0000 0.0000
# 4 0.0000 0.0000 0.0000 64.0068 0.0000 0.0000
# 5 0.0000 0.0000 0.0000 0.0000 49.3789 0.0000
# 6 0.0000 0.0000 0.0000 0.0000 0.0000 76.7349
#
#
#
# Elastic Compliance Matrix: (Units=1/GPa)
#
#
# Indices 1 2 3 4 5 6 
#
# 1 0.011356 -0.003182 -0.003129 0.000000 0.000000 0.000000
# 2 -0.003182 0.009045 -0.002729 0.000000 0.000000 0.000000
# 3 -0.003129 -0.002729 0.008019 0.000000 0.000000 0.000000
# 4 0.000000 0.000000 0.000000 0.015623 0.000000 0.000000
# 5 0.000000 0.000000 0.000000 0.000000 0.020252 0.000000
# 6 0.000000 0.000000 0.000000 0.000000 0.000000 0.013032
#
#
# Mechanical properties :
#
#
# Convention : Reuss Voigt Hill
#
# Bulk Modulus (GPa) = 96.72265 99.88498 98.30381
# Shear Modulus (GPa) = 50.57971 54.45855 52.51913
#
# Velocity S-wave (km/s) = 4.56845 4.74039 4.65521
# Velocity P-wave (km/s) = 8.23033 8.43666 8.33414
#
# Compressibility (1/GPa) = 0.01033884
#
# Stress axis : x y z
#
# Youngs Moduli (GPa) = 88.06223 110.55739 124.70171
#
# Poissons Ratio (x) = 0.35182 0.39018
# Poissons Ratio (y) = 0.28024 0.34035
# Poissons Ratio (z) = 0.27554 0.30175
#
# Static dielectric constant tensor:
#      x y z
#    x 2.117730 0.000000 0.000000 
#    y 0.000000 1.896270 0.000000 
#    z 0.000000 0.000000 1.943250 
# 
# From -- ./inp_files/9275.got.cif
#   From: 2010.05.17/outbox.cif.g08.bks.cpg/sg68_5_cif.got.tgz:9275.got - 2010.06.03 18:57:09.
