data_PCOD9510498
_publ_section_title
;
Structure prediction by ZEFSAII (Michael W. Deem and Ramdas Pophale) SiO2 
 PCOD9510498
Probable space group: C C C A
;
_chemical_formula_sum "Si O2"
_cell_formula_units_Z 88
_cell_length_a 14.543421
_cell_length_b 23.500102
_cell_length_c 11.468377
_cell_angle_alpha 90.000000
_cell_angle_beta 90.000000
_cell_angle_gamma 90.000000
_cell_volume 3919.568733
_symmetry_space_group_name_H-M "C C C A"
_symmetry_group_IT_number 68
_space_group.IT_coordinate_system_code '2'
_symmetry_cell_setting 'orthorhombic'
loop_
_space_group_symop_operation_xyz
x,y,z
-x,1/2-y,z
x,1/2-y,1/2-z
-x,y,1/2-z
-x,-y,-z
x,1/2+y,-z
-x,1/2+y,1/2+z
x,-y,1/2+z
1/2+x,1/2+y,z
1/2-x,-y,z
1/2+x,-y,1/2-z
1/2-x,1/2+y,1/2-z
1/2-x,1/2-y,-z
1/2+x,y,-z
1/2-x,y,1/2+z
1/2+x,1/2-y,1/2+z
loop_
_atom_site_type_symbol
_atom_site_label
_atom_site_fract_x
_atom_site_fract_y
_atom_site_fract_z
Si Si1 0.804496 0.341218 0.873685
Si Si2 0.824262 0.250000 0.250000
Si Si3 0.892485 0.438224 0.222874
Si Si4 0.430766 0.670407 0.427323
Si Si5 0.395200 0.066228 0.205276
Si Si6 0.128485 0.376197 0.040339
O O1 0.745802 0.296806 0.799667
O O2 0.837550 0.393164 0.791780
O O3 0.729545 0.351043 0.976982
O O4 0.894053 0.319760 0.942388
O O5 0.889333 0.217844 0.342494
O O6 0.892074 0.390653 0.121683
O O7 0.858403 0.501572 0.198760
O O8 0.855229 0.413720 0.343977
O O9 0.000000 0.444945 0.250000
O O10 0.541541 0.663901 0.428666
O O11 0.500000 0.066393 0.250000
O O12 0.396845 0.089942 0.074597
#
# Coordination Sequence:
#
# PCOD9510498 Si02
#       6
#    16   8  16  16  16  16
#     4  12  26  46  72 106 144 186 240 299 351 426
#     4  12  26  49  71 106 140 186 251 298 347 420
#     4   9  22  42  71 107 138 185 237 284 351 431
#     4  11  24  47  72 101 145 186 239 298 355 413
#     4  11  24  46  75 103 149 188 224 292 364 422
#     4  11  24  45  71 108 141 186 238 282 359 428
#
# _framework density 22.451450000000001
#
# number of rings (size 3 to 8) (size 9 to 14) (size 15 to 20)
#    0.000    1.091    3.636    1.636    2.545    4.364 
#    0.000    0.455    0.000    0.000    0.000    0.000 
#    0.000    0.000    0.000    0.000    0.000    0.000 
#
# Total GULP energy -245741.148820 kJ/mol
# GULP energy per Si atom -5585.026110 kJ/mol
# Density = 2.240035 g / cm^3
# Si number density = 22.451450 Si / 1000 Ang^3
#
#
#
# Elastic Constant Matrix: (Units=GPa)
#
#
# Indices 1 2 3 4 5 6 
#
# 1 136.0388 58.9814 35.1345 0.0000 0.0000 0.0000
# 2 58.9814 119.8906 15.8971 0.0000 0.0000 0.0000
# 3 35.1345 15.8971 55.4288 0.0000 0.0000 0.0000
# 4 0.0000 0.0000 0.0000 7.3441 0.0000 0.0000
# 5 0.0000 0.0000 0.0000 0.0000 34.9151 0.0000
# 6 0.0000 0.0000 0.0000 0.0000 0.0000 26.5567
#
#
#
# Elastic Compliance Matrix: (Units=1/GPa)
#
#
# Indices 1 2 3 4 5 6 
#
# 1 0.010749 -0.004558 -0.005506 0.000000 0.000000 0.000000
# 2 -0.004558 0.010603 -0.000152 0.000000 0.000000 0.000000
# 3 -0.005506 -0.000152 0.021575 0.000000 0.000000 0.000000
# 4 0.000000 0.000000 0.000000 0.136165 0.000000 0.000000
# 5 0.000000 0.000000 0.000000 0.000000 0.028641 0.000000
# 6 0.000000 0.000000 0.000000 0.000000 0.000000 0.037655
#
#
# Mechanical properties :
#
#
# Convention : Reuss Voigt Hill
#
# Bulk Modulus (GPa) = 44.45402 59.04269 51.74835
# Shear Modulus (GPa) = 18.29363 27.18619 22.73991
#
# Velocity S-wave (km/s) = 2.85758 3.48356 3.18598
# Velocity P-wave (km/s) = 5.54353 6.52191 6.05252
#
# Compressibility (1/GPa) = 0.02249515
#
# Stress axis : x y z
#
# Youngs Moduli (GPa) = 93.03068 94.30889 46.34994
#
# Poissons Ratio (x) = 0.42986 0.25522
# Poissons Ratio (y) = 0.42404 0.00704
# Poissons Ratio (z) = 0.51225 0.01433
#
# Static dielectric constant tensor:
#      x y z
#    x 1.993190 0.000000 0.000000 
#    y 0.000000 1.922890 0.000000 
#    z 0.000000 0.000000 1.836810 
# 
# From -- ./inp_files/13313.got.cif
#   From: 2010.05.17/outbox.cif.g08.bks.cpg/sg68_7_cif.got.tgz:13313.got - 2010.06.03 18:57:09.
