data_PCOD9510044
_publ_section_title
;
Structure prediction by ZEFSAII (Michael W. Deem and Ramdas Pophale) SiO2 
 PCOD9510044
Probable space group: C C C A
;
_chemical_formula_sum "Si O2"
_cell_formula_units_Z 68
_cell_length_a 20.154274
_cell_length_b 16.604247
_cell_length_c 9.781603
_cell_angle_alpha 90.000000
_cell_angle_beta 90.000000
_cell_angle_gamma 90.000000
_cell_volume 3273.379635
_symmetry_space_group_name_H-M "C C C A"
_symmetry_group_IT_number 68
_space_group.IT_coordinate_system_code '2'
_symmetry_cell_setting 'orthorhombic'
loop_
_space_group_symop_operation_xyz
x,y,z
-x,1/2-y,z
x,1/2-y,1/2-z
-x,y,1/2-z
-x,-y,-z
x,1/2+y,-z
-x,1/2+y,1/2+z
x,-y,1/2+z
1/2+x,1/2+y,z
1/2-x,-y,z
1/2+x,-y,1/2-z
1/2-x,1/2+y,1/2-z
1/2-x,1/2-y,-z
1/2+x,y,-z
1/2-x,y,1/2+z
1/2+x,1/2-y,1/2+z
loop_
_atom_site_type_symbol
_atom_site_label
_atom_site_fract_x
_atom_site_fract_y
_atom_site_fract_z
Si Si1 0.318603 0.828791 0.932412
Si Si2 0.000000 0.750000 0.750000
Si Si3 0.173793 0.966253 0.217085
Si Si4 0.667288 0.662610 0.488108
Si Si5 0.108326 0.367642 0.296451
O O1 0.340701 0.901340 0.835936
O O2 0.345015 0.738334 0.912708
O O3 0.239541 0.825669 0.921249
O O4 0.336615 0.846391 0.090348
O O5 0.044154 0.814826 0.664066
O O6 0.169999 0.918652 0.074446
O O7 0.250000 0.000000 0.234726
O O8 0.118818 0.036477 0.214990
O O9 0.619992 0.660709 0.358638
#
# Coordination Sequence:
#
# PCOD9510044 Si02
#       5
#    16   4  16  16  16
#     4  11  21  38  65 103 138 172 215 281 357 406
#     4  12  28  52  64  94 138 204 244 260 328 432
#     4  12  23  37  64 109 143 163 213 300 357 407
#     4  11  21  38  65 103 138 172 215 281 357 406
#     4  12  24  43  70  91 136 187 226 278 332 415
#
# _framework density 20.773637000000001
#
# number of rings (size 3 to 8) (size 9 to 14) (size 15 to 20)
#    0.000    0.471    7.059    2.118    0.000    3.765 
#    0.000    4.706    0.000    1.412    0.000    0.000 
#    0.000    0.000    0.000    0.000    0.000    0.000 
#
# Total GULP energy -189529.355067 kJ/mol
# GULP energy per Si atom -5574.392796 kJ/mol
# Density = 2.072635 g / cm^3
# Si number density = 20.773637 Si / 1000 Ang^3
#
#
#
# Elastic Constant Matrix: (Units=GPa)
#
#
# Indices 1 2 3 4 5 6 
#
# 1 46.3169 33.1458 12.8223 0.0000 0.0000 0.0000
# 2 33.1458 139.9033 20.2322 0.0000 0.0000 0.0000
# 3 12.8223 20.2322 66.1767 0.0000 0.0000 0.0000
# 4 0.0000 0.0000 0.0000 38.2190 0.0000 0.0000
# 5 0.0000 0.0000 0.0000 0.0000 7.6989 0.0000
# 6 0.0000 0.0000 0.0000 0.0000 0.0000 30.5940
#
#
#
# Elastic Compliance Matrix: (Units=1/GPa)
#
#
# Indices 1 2 3 4 5 6 
#
# 1 0.026706 -0.005837 -0.003390 0.000000 0.000000 0.000000
# 2 -0.005837 0.008754 -0.001545 0.000000 0.000000 0.000000
# 3 -0.003390 -0.001545 0.016240 0.000000 0.000000 0.000000
# 4 0.000000 0.000000 0.000000 0.026165 0.000000 0.000000
# 5 0.000000 0.000000 0.000000 0.000000 0.129888 0.000000
# 6 0.000000 0.000000 0.000000 0.000000 0.000000 0.032686
#
#
# Mechanical properties :
#
#
# Convention : Reuss Voigt Hill
#
# Bulk Modulus (GPa) = 33.16112 42.75529 37.95821
# Shear Modulus (GPa) = 18.37989 27.71550 23.04769
#
# Velocity S-wave (km/s) = 2.97774 3.65659 3.33448
# Velocity P-wave (km/s) = 5.27449 6.20111 5.75647
#
# Compressibility (1/GPa) = 0.03015579
#
# Stress axis : x y z
#
# Youngs Moduli (GPa) = 37.44484 114.23125 61.57490
#
# Poissons Ratio (x) = 0.66676 0.20874
# Poissons Ratio (y) = 0.21856 0.09516
# Poissons Ratio (z) = 0.12694 0.17654
#
# Static dielectric constant tensor:
#      x y z
#    x 1.756890 0.000000 0.000000 
#    y 0.000000 1.860210 0.000000 
#    z 0.000000 0.000000 1.731030 
# 
# From -- ./inp_files/6823.got.cif
#   From: 2010.05.17/outbox.cif.g08.bks.cpg/sg68_4_cif.got.tgz:6823.got - 2010.06.03 18:57:09.
