data_PCOD9510492
_publ_section_title
;
Structure prediction by ZEFSAII (Michael W. Deem and Ramdas Pophale) SiO2 
 PCOD9510492
Probable space group: C C C A
;
_chemical_formula_sum "Si O2"
_cell_formula_units_Z 64
_cell_length_a 9.812214
_cell_length_b 31.429036
_cell_length_c 10.067574
_cell_angle_alpha 90.000000
_cell_angle_beta 90.000000
_cell_angle_gamma 90.000000
_cell_volume 3104.723310
_symmetry_space_group_name_H-M "C C C A"
_symmetry_group_IT_number 68
_space_group.IT_coordinate_system_code '2'
_symmetry_cell_setting 'orthorhombic'
loop_
_space_group_symop_operation_xyz
x,y,z
-x,1/2-y,z
x,1/2-y,1/2-z
-x,y,1/2-z
-x,-y,-z
x,1/2+y,-z
-x,1/2+y,1/2+z
x,-y,1/2+z
1/2+x,1/2+y,z
1/2-x,-y,z
1/2+x,-y,1/2-z
1/2-x,1/2+y,1/2-z
1/2-x,1/2-y,-z
1/2+x,y,-z
1/2-x,y,1/2+z
1/2+x,1/2-y,1/2+z
loop_
_atom_site_type_symbol
_atom_site_label
_atom_site_fract_x
_atom_site_fract_y
_atom_site_fract_z
Si Si1 0.356262 0.231505 0.603735
Si Si2 0.735018 0.405725 0.956481
Si Si3 0.975650 0.137374 0.398143
Si Si4 0.158645 0.542214 0.291316
O O1 0.500000 0.250000 0.559854
O O2 0.324520 0.250000 0.750000
O O3 0.250000 0.250000 0.500000
O O4 0.393135 0.181630 0.611806
O O5 0.629542 0.365772 0.954323
O O6 0.771203 0.425064 0.813020
O O7 0.878883 0.392277 0.017016
O O8 0.669704 0.439335 0.059307
O O9 0.000000 0.121132 0.250000
O O10 0.250000 0.500000 0.284201
O O11 0.000000 0.535775 0.250000
#
# Coordination Sequence:
#
# PCOD9510492 Si02
#       4
#    16  16  16  16
#     4  11  24  45  69 104 142 184 232 282 349 412
#     4  12  26  45  71 104 139 180 239 286 352 424
#     4  12  24  44  73 101 141 184 231 297 343 413
#     4  12  28  46  70 103 140 185 234 292 359 424
#
# _framework density 20.613752000000002
#
# number of rings (size 3 to 8) (size 9 to 14) (size 15 to 20)
#    0.000    0.250    7.500    2.250    3.500    2.500 
#    0.000    0.000    0.000    0.000    0.000    0.000 
#    0.000    0.000    0.000    0.000    0.000    0.000 
#
# Total GULP energy -178559.197365 kJ/mol
# GULP energy per Si atom -5579.974918 kJ/mol
# Density = 2.056683 g / cm^3
# Si number density = 20.613752 Si / 1000 Ang^3
#
#
#
# Elastic Constant Matrix: (Units=GPa)
#
#
# Indices 1 2 3 4 5 6 
#
# 1 146.8135 21.6172 65.6720 0.0000 0.0000 0.0000
# 2 21.6172 60.7591 14.2035 0.0000 0.0000 0.0000
# 3 65.6720 14.2035 73.1898 0.0000 0.0000 0.0000
# 4 0.0000 0.0000 0.0000 8.6112 0.0000 0.0000
# 5 0.0000 0.0000 0.0000 0.0000 35.6122 0.0000
# 6 0.0000 0.0000 0.0000 0.0000 0.0000 41.1296
#
#
#
# Elastic Compliance Matrix: (Units=1/GPa)
#
#
# Indices 1 2 3 4 5 6 
#
# 1 0.011557 -0.001768 -0.010027 0.000000 0.000000 0.000000
# 2 -0.001768 0.017511 -0.001812 0.000000 0.000000 0.000000
# 3 -0.010027 -0.001812 0.023011 0.000000 0.000000 0.000000
# 4 0.000000 0.000000 0.000000 0.116128 0.000000 0.000000
# 5 0.000000 0.000000 0.000000 0.000000 0.028080 0.000000
# 6 0.000000 0.000000 0.000000 0.000000 0.000000 0.024313
#
#
# Mechanical properties :
#
#
# Convention : Reuss Voigt Hill
#
# Bulk Modulus (GPa) = 40.21505 53.74974 46.98239
# Shear Modulus (GPa) = 19.52348 29.02193 24.27270
#
# Velocity S-wave (km/s) = 3.08085 3.75626 3.43520
# Velocity P-wave (km/s) = 5.67510 6.70402 6.21091
#
# Compressibility (1/GPa) = 0.02486631
#
# Stress axis : x y z
#
# Youngs Moduli (GPa) = 86.52995 57.10704 43.45675
#
# Poissons Ratio (x) = 0.10096 0.43572
# Poissons Ratio (y) = 0.15297 0.07874
# Poissons Ratio (z) = 0.86760 0.10348
#
# Static dielectric constant tensor:
#      x y z
#    x 1.721120 0.000000 0.000000 
#    y 0.000000 2.710140 0.000000 
#    z 0.000000 0.000000 1.638350 
# 
# From -- ./inp_files/10769.got.cif
#   From: 2010.05.17/outbox.cif.g08.bks.cpg/sg68_6_cif.got.tgz:10769.got - 2010.06.03 18:57:09.
