data_PCOD9510157
_publ_section_title
;
Structure prediction by ZEFSAII (Michael W. Deem and Ramdas Pophale) SiO2 
 PCOD9510157
Probable space group: C C C A
;
_chemical_formula_sum "Si O2"
_cell_formula_units_Z 84
_cell_length_a 20.080294
_cell_length_b 23.808875
_cell_length_c 9.193584
_cell_angle_alpha 90.000000
_cell_angle_beta 90.000000
_cell_angle_gamma 90.000000
_cell_volume 4395.353310
_symmetry_space_group_name_H-M "C C C A"
_symmetry_group_IT_number 68
_space_group.IT_coordinate_system_code '2'
_symmetry_cell_setting 'orthorhombic'
loop_
_space_group_symop_operation_xyz
x,y,z
-x,1/2-y,z
x,1/2-y,1/2-z
-x,y,1/2-z
-x,-y,-z
x,1/2+y,-z
-x,1/2+y,1/2+z
x,-y,1/2+z
1/2+x,1/2+y,z
1/2-x,-y,z
1/2+x,-y,1/2-z
1/2-x,1/2+y,1/2-z
1/2-x,1/2-y,-z
1/2+x,y,-z
1/2-x,y,1/2+z
1/2+x,1/2-y,1/2+z
loop_
_atom_site_type_symbol
_atom_site_label
_atom_site_fract_x
_atom_site_fract_y
_atom_site_fract_z
Si Si1 0.699844 0.572371 0.731627
Si Si2 0.979724 0.444498 0.083284
Si Si3 0.000000 0.250000 0.250000
Si Si4 0.617063 0.688082 0.751548
Si Si5 0.673281 0.958101 0.433730
Si Si6 0.499950 0.328642 0.028546
O O1 0.663046 0.632950 0.726941
O O2 0.671700 0.522721 0.625519
O O3 0.775455 0.574547 0.671855
O O4 0.695312 0.549692 0.897926
O O5 0.900844 0.435658 0.077435
O O6 0.000000 0.447539 0.250000
O O7 0.013035 0.393761 0.998199
O O8 0.000000 0.500000 0.000000
O O9 0.002034 0.202069 0.376867
O O10 0.651108 0.750000 0.750000
O O11 0.571940 0.678767 0.895262
O O12 0.559636 0.692485 0.629479
#
# Coordination Sequence:
#
# PCOD9510157 Si02
#       6
#    16  16   4  16  16  16
#     4  11  23  42  68  91 133 182 217 272 329 402
#     4  12  25  38  63 100 135 164 214 284 338 397
#     4  12  20  42  60 100 124 178 216 270 338 382
#     4  11  22  42  66  95 130 176 222 265 336 402
#     4  11  23  42  63  95 132 173 226 263 339 406
#     4  11  22  39  64  94 137 171 217 276 334 398
#
# _framework density 19.111090999999998
#
# number of rings (size 3 to 8) (size 9 to 14) (size 15 to 20)
#    0.000    0.762    4.762    5.143    2.667    1.524 
#    0.000    0.952    2.095    0.000    0.000    0.000 
#    0.000    0.000    0.000    0.000    0.000    0.000 
#
# Total GULP energy -233860.568316 kJ/mol
# GULP energy per Si atom -5568.108769 kJ/mol
# Density = 1.906759 g / cm^3
# Si number density = 19.111091 Si / 1000 Ang^3
#
#
#
# Elastic Constant Matrix: (Units=GPa)
#
#
# Indices 1 2 3 4 5 6 
#
# 1 77.5683 20.0981 28.0221 0.0000 0.0000 0.0000
# 2 20.0981 173.5194 37.1860 0.0000 0.0000 0.0000
# 3 28.0221 37.1860 130.6293 0.0000 0.0000 0.0000
# 4 0.0000 0.0000 0.0000 32.3415 0.0000 0.0000
# 5 0.0000 0.0000 0.0000 0.0000 7.0130 0.0000
# 6 0.0000 0.0000 0.0000 0.0000 0.0000 25.0782
#
#
#
# Elastic Compliance Matrix: (Units=1/GPa)
#
#
# Indices 1 2 3 4 5 6 
#
# 1 0.014153 -0.001053 -0.002736 0.000000 0.000000 0.000000
# 2 -0.001053 0.006216 -0.001544 0.000000 0.000000 0.000000
# 3 -0.002736 -0.001544 0.008682 0.000000 0.000000 0.000000
# 4 0.000000 0.000000 0.000000 0.030920 0.000000 0.000000
# 5 0.000000 0.000000 0.000000 0.000000 0.142593 0.000000
# 6 0.000000 0.000000 0.000000 0.000000 0.000000 0.039875
#
#
# Mechanical properties :
#
#
# Convention : Reuss Voigt Hill
#
# Bulk Modulus (GPa) = 54.39224 61.36993 57.88108
# Shear Modulus (GPa) = 19.28768 32.64727 25.96748
#
# Velocity S-wave (km/s) = 3.18030 4.13763 3.69014
# Velocity P-wave (km/s) = 6.48141 7.41678 6.96481
#
# Compressibility (1/GPa) = 0.01838498
#
# Stress axis : x y z
#
# Youngs Moduli (GPa) = 70.65542 160.88058 115.18549
#
# Poissons Ratio (x) = 0.16939 0.31519
# Poissons Ratio (y) = 0.07439 0.17780
# Poissons Ratio (z) = 0.19334 0.24833
#
# Static dielectric constant tensor:
#      x y z
#    x 1.686690 0.000000 0.000000 
#    y 0.000000 1.695990 0.000000 
#    z 0.000000 0.000000 1.641610 
# 
# From -- ./inp_files/7076.got.cif
#   From: 2010.05.17/outbox.cif.g08.bks.cpg/sg68_4_cif.got.tgz:7076.got - 2010.06.03 18:57:09.
