data_PCOD9510496
_publ_section_title
;
Structure prediction by ZEFSAII (Michael W. Deem and Ramdas Pophale) SiO2 
 PCOD9510496
Probable space group: C C C A
;
_chemical_formula_sum "Si O2"
_cell_formula_units_Z 48
_cell_length_a 8.591537
_cell_length_b 24.970913
_cell_length_c 10.104536
_cell_angle_alpha 90.000000
_cell_angle_beta 90.000000
_cell_angle_gamma 90.000000
_cell_volume 2167.812229
_symmetry_space_group_name_H-M "C C C A"
_symmetry_group_IT_number 68
_space_group.IT_coordinate_system_code '2'
_symmetry_cell_setting 'orthorhombic'
loop_
_space_group_symop_operation_xyz
x,y,z
-x,1/2-y,z
x,1/2-y,1/2-z
-x,y,1/2-z
-x,-y,-z
x,1/2+y,-z
-x,1/2+y,1/2+z
x,-y,1/2+z
1/2+x,1/2+y,z
1/2-x,-y,z
1/2+x,-y,1/2-z
1/2-x,1/2+y,1/2-z
1/2-x,1/2-y,-z
1/2+x,y,-z
1/2-x,y,1/2+z
1/2+x,1/2-y,1/2+z
loop_
_atom_site_type_symbol
_atom_site_label
_atom_site_fract_x
_atom_site_fract_y
_atom_site_fract_z
Si Si1 0.890716 0.100759 0.121895
Si Si2 0.327716 0.774868 0.375107
Si Si3 0.559601 0.547636 0.900697
O O1 0.833775 0.161478 0.135686
O O2 0.742665 0.061005 0.112123
O O3 0.000000 0.088499 0.250000
O O4 0.984594 0.096554 0.983896
O O5 0.500000 0.750000 0.376970
O O6 0.242080 0.750000 0.250000
O O7 0.250000 0.750000 0.500000
O O8 0.500000 0.541230 0.750000
O O9 0.500000 0.500000 0.000000
#
# Coordination Sequence:
#
# PCOD9510496 Si02
#       3
#    16  16  16
#     4  12  25  48  76 108 154 204 258 322 389 463
#     4  11  24  45  70 108 154 200 261 310 376 459
#     4  12  28  48  75 109 148 200 262 326 402 469
#
# _framework density 22.142139
#
# number of rings (size 3 to 8) (size 9 to 14) (size 15 to 20)
#    0.000    0.333    3.333    6.000    4.667    3.333 
#    0.000    0.000    0.000    0.000    0.000    0.000 
#    0.000    0.000    0.000    0.000    0.000    0.000 
#
# Total GULP energy -134051.457696 kJ/mol
# GULP energy per Si atom -5585.477404 kJ/mol
# Density = 2.209174 g / cm^3
# Si number density = 22.142139 Si / 1000 Ang^3
#
#
#
# Elastic Constant Matrix: (Units=GPa)
#
#
# Indices 1 2 3 4 5 6 
#
# 1 154.5648 48.1510 87.4971 0.0000 0.0000 0.0000
# 2 48.1510 159.1870 61.1581 0.0000 0.0000 0.0000
# 3 87.4971 61.1581 258.2697 0.0000 0.0000 0.0000
# 4 0.0000 0.0000 0.0000 55.1938 0.0000 0.0000
# 5 0.0000 0.0000 0.0000 0.0000 45.1376 0.0000
# 6 0.0000 0.0000 0.0000 0.0000 0.0000 25.8971
#
#
#
# Elastic Compliance Matrix: (Units=1/GPa)
#
#
# Indices 1 2 3 4 5 6 
#
# 1 0.008353 -0.001583 -0.002455 0.000000 0.000000 0.000000
# 2 -0.001583 0.007211 -0.001171 0.000000 0.000000 0.000000
# 3 -0.002455 -0.001171 0.004981 0.000000 0.000000 0.000000
# 4 0.000000 0.000000 0.000000 0.018118 0.000000 0.000000
# 5 0.000000 0.000000 0.000000 0.000000 0.022154 0.000000
# 6 0.000000 0.000000 0.000000 0.000000 0.000000 0.038614
#
#
# Mechanical properties :
#
#
# Convention : Reuss Voigt Hill
#
# Bulk Modulus (GPa) = 98.75787 107.29265 103.02526
# Shear Modulus (GPa) = 44.15989 50.26006 47.20997
#
# Velocity S-wave (km/s) = 4.47070 4.76950 4.62251
# Velocity P-wave (km/s) = 8.44678 8.88213 8.66719
#
# Compressibility (1/GPa) = 0.01012578
#
# Stress axis : x y z
#
# Youngs Moduli (GPa) = 119.72205 138.68108 200.76817
#
# Poissons Ratio (x) = 0.21959 0.49284
# Poissons Ratio (y) = 0.18957 0.23511
# Poissons Ratio (z) = 0.29389 0.16241
#
# Static dielectric constant tensor:
#      x y z
#    x 1.819780 0.000000 0.000000 
#    y 0.000000 1.468540 0.000000 
#    z 0.000000 0.000000 1.836110 
# 
# From -- ./inp_files/3280.got.cif
#   From: 2010.05.17/outbox.cif.g08.bks.cpg/sg68_2_cif.got.tgz:3280.got - 2010.06.03 18:57:09.
