data_PCOD9510844
_publ_section_title
;
Structure prediction by ZEFSAII (Michael W. Deem and Ramdas Pophale) SiO2 
 PCOD9510844
Probable space group: C C C A
;
_chemical_formula_sum "Si O2"
_cell_formula_units_Z 56
_cell_length_a 14.305288
_cell_length_b 16.448294
_cell_length_c 8.989768
_cell_angle_alpha 90.000000
_cell_angle_beta 90.000000
_cell_angle_gamma 90.000000
_cell_volume 2115.270680
_symmetry_space_group_name_H-M "C C C A"
_symmetry_group_IT_number 68
_space_group.IT_coordinate_system_code '2'
_symmetry_cell_setting 'orthorhombic'
loop_
_space_group_symop_operation_xyz
x,y,z
-x,1/2-y,z
x,1/2-y,1/2-z
-x,y,1/2-z
-x,-y,-z
x,1/2+y,-z
-x,1/2+y,1/2+z
x,-y,1/2+z
1/2+x,1/2+y,z
1/2-x,-y,z
1/2+x,-y,1/2-z
1/2-x,1/2+y,1/2-z
1/2-x,1/2-y,-z
1/2+x,y,-z
1/2-x,y,1/2+z
1/2+x,1/2-y,1/2+z
loop_
_atom_site_type_symbol
_atom_site_label
_atom_site_fract_x
_atom_site_fract_y
_atom_site_fract_z
Si Si1 0.102130 0.980380 0.183887
Si Si2 0.335890 0.822934 0.864327
Si Si3 0.358011 0.610709 0.113591
Si Si4 0.500000 0.250000 0.936893
O O1 0.133644 0.901210 0.272139
O O2 0.000000 0.999093 0.250000
O O3 0.158295 0.060189 0.234948
O O4 0.110445 0.953930 0.012833
O O5 0.318778 0.750000 0.750000
O O6 0.237626 0.846538 0.938210
O O7 0.423491 0.798341 0.965290
O O8 0.434597 0.680867 0.135941
#
# Coordination Sequence:
#
# PCOD9510844 Si02
#       4
#    16  16  16   8
#     4  12  26  52  79 116 165 221 269 349 420 495
#     4  12  25  48  82 117 161 217 281 342 422 488
#     4  12  29  49  84 118 165 212 286 335 420 496
#     4  12  25  52  79 116 162 221 277 346 410 507
#
# _framework density 26.474152
#
# number of rings (size 3 to 8) (size 9 to 14) (size 15 to 20)
#    0.000    0.000    5.714    3.000    0.000    6.857 
#    0.000    0.000    0.000    0.000    0.000    0.000 
#    0.000    0.000    0.000    0.000    0.000    0.000 
#
# Total GULP energy -157155.847740 kJ/mol
# GULP energy per Si atom -5612.708848 kJ/mol
# Density = 2.641390 g / cm^3
# Si number density = 26.474152 Si / 1000 Ang^3
#
#
#
# Elastic Constant Matrix: (Units=GPa)
#
#
# Indices 1 2 3 4 5 6 
#
# 1 144.7429 40.3383 41.3725 0.0000 0.0000 0.0000
# 2 40.3383 181.4044 66.3984 0.0000 0.0000 0.0000
# 3 41.3725 66.3984 87.0725 0.0000 0.0000 0.0000
# 4 0.0000 0.0000 0.0000 43.7650 0.0000 0.0000
# 5 0.0000 0.0000 0.0000 0.0000 35.0836 0.0000
# 6 0.0000 0.0000 0.0000 0.0000 0.0000 43.1589
#
#
#
# Elastic Compliance Matrix: (Units=1/GPa)
#
#
# Indices 1 2 3 4 5 6 
#
# 1 0.008033 -0.000540 -0.003405 0.000000 0.000000 0.000000
# 2 -0.000540 0.007683 -0.005602 0.000000 0.000000 0.000000
# 3 -0.003405 -0.005602 0.017375 0.000000 0.000000 0.000000
# 4 0.000000 0.000000 0.000000 0.022849 0.000000 0.000000
# 5 0.000000 0.000000 0.000000 0.000000 0.028503 0.000000
# 6 0.000000 0.000000 0.000000 0.000000 0.000000 0.023170
#
#
# Mechanical properties :
#
#
# Convention : Reuss Voigt Hill
#
# Bulk Modulus (GPa) = 71.44914 78.82647 75.13781
# Shear Modulus (GPa) = 38.05950 42.07553 40.06751
#
# Velocity S-wave (km/s) = 3.79570 3.99093 3.89454
# Velocity P-wave (km/s) = 6.80122 7.14677 6.97613
#
# Compressibility (1/GPa) = 0.01399597
#
# Stress axis : x y z
#
# Youngs Moduli (GPa) = 124.49403 130.15387 57.55472
#
# Poissons Ratio (x) = 0.07026 0.19597
# Poissons Ratio (y) = 0.06721 0.32245
# Poissons Ratio (z) = 0.42390 0.72918
#
# Static dielectric constant tensor:
#      x y z
#    x 2.109110 0.000000 0.000000 
#    y 0.000000 2.011050 0.000000 
#    z 0.000000 0.000000 2.080770 
# 
# From -- ./inp_files/12497.got.cif
#   From: 2010.05.17/outbox.cif.g08.bks.cpg/sg68_7_cif.got.tgz:12497.got - 2010.06.03 18:57:09.
