data_PCOD9510092
_publ_section_title
;
Structure prediction by ZEFSAII (Michael W. Deem and Ramdas Pophale) SiO2 
 PCOD9510092
Probable space group: C C C A
;
_chemical_formula_sum "Si O2"
_cell_formula_units_Z 96
_cell_length_a 16.919978
_cell_length_b 20.020783
_cell_length_c 15.297285
_cell_angle_alpha 90.000000
_cell_angle_beta 90.000000
_cell_angle_gamma 90.000000
_cell_volume 5181.973771
_symmetry_space_group_name_H-M "C C C A"
_symmetry_group_IT_number 68
_space_group.IT_coordinate_system_code '2'
_symmetry_cell_setting 'orthorhombic'
loop_
_space_group_symop_operation_xyz
x,y,z
-x,1/2-y,z
x,1/2-y,1/2-z
-x,y,1/2-z
-x,-y,-z
x,1/2+y,-z
-x,1/2+y,1/2+z
x,-y,1/2+z
1/2+x,1/2+y,z
1/2-x,-y,z
1/2+x,-y,1/2-z
1/2-x,1/2+y,1/2-z
1/2-x,1/2-y,-z
1/2+x,y,-z
1/2-x,y,1/2+z
1/2+x,1/2-y,1/2+z
loop_
_atom_site_type_symbol
_atom_site_label
_atom_site_fract_x
_atom_site_fract_y
_atom_site_fract_z
Si Si1 0.528500 0.445883 0.429445
Si Si2 0.300269 0.932342 0.004327
Si Si3 0.101729 0.874240 0.664258
Si Si4 0.030268 0.322738 0.029382
Si Si5 0.310819 0.250000 0.750000
Si Si6 0.285203 0.804001 0.432198
Si Si7 0.000000 0.019192 0.250000
O O1 0.500000 0.500000 0.500000
O O2 0.621812 0.440733 0.445343
O O3 0.483701 0.377343 0.453721
O O4 0.511070 0.473987 0.334558
O O5 0.334750 0.904671 0.096362
O O6 0.250000 0.000000 0.014305
O O7 0.249469 0.875061 0.958774
O O8 0.136703 0.810487 0.712810
O O9 0.073020 0.931367 0.730085
O O10 0.025762 0.850020 0.607697
O O11 0.120167 0.311914 0.058851
O O12 0.000000 0.250000 0.002128
O O13 0.265501 0.279355 0.665820
O O14 0.250000 0.750000 0.500000
#
# Coordination Sequence:
#
# PCOD9510092 Si02
#       7
#    16  16  16  16   8  16   8
#     4  11  23  45  66  98 129 175 224 270 328 395
#     4  11  24  44  66  94 136 177 212 269 341 392
#     4  11  24  41  70 103 124 164 233 278 321 383
#     4  11  21  42  73  93 128 172 220 275 330 384
#     4  12  24  43  68 104 129 174 220 276 333 388
#     4  12  24  43  65  98 138 170 210 276 335 393
#     4  12  24  41  71  98 128 168 232 278 314 388
#
# _framework density 18.525760999999999
#
# number of rings (size 3 to 8) (size 9 to 14) (size 15 to 20)
#    0.000    0.667    6.667    3.000    2.333    0.667 
#    6.000    0.417    0.000    0.000    0.000    0.000 
#    0.000    0.000    0.000    0.000    0.000    0.000 
#
# Total GULP energy -268229.464701 kJ/mol
# GULP energy per Si atom -5588.113848 kJ/mol
# Density = 1.848360 g / cm^3
# Si number density = 18.525761 Si / 1000 Ang^3
#
#
#
# Elastic Constant Matrix: (Units=GPa)
#
#
# Indices 1 2 3 4 5 6 
#
# 1 76.0718 44.1047 26.3744 0.0000 0.0000 0.0000
# 2 44.1047 154.1084 69.9120 0.0000 0.0000 0.0000
# 3 26.3744 69.9120 145.9288 0.0000 0.0000 0.0000
# 4 0.0000 0.0000 0.0000 33.9715 0.0000 0.0000
# 5 0.0000 0.0000 0.0000 0.0000 12.6131 0.0000
# 6 0.0000 0.0000 0.0000 0.0000 0.0000 30.4059
#
#
#
# Elastic Compliance Matrix: (Units=1/GPa)
#
#
# Indices 1 2 3 4 5 6 
#
# 1 0.015849 -0.004135 -0.000883 0.000000 0.000000 0.000000
# 2 -0.004135 0.009370 -0.003742 0.000000 0.000000 0.000000
# 3 -0.000883 -0.003742 0.008805 0.000000 0.000000 0.000000
# 4 0.000000 0.000000 0.000000 0.029436 0.000000 0.000000
# 5 0.000000 0.000000 0.000000 0.000000 0.079283 0.000000
# 6 0.000000 0.000000 0.000000 0.000000 0.000000 0.032888
#
#
# Mechanical properties :
#
#
# Convention : Reuss Voigt Hill
#
# Bulk Modulus (GPa) = 60.59286 72.98792 66.79039
# Shear Modulus (GPa) = 25.16956 31.11262 28.14109
#
# Velocity S-wave (km/s) = 3.68995 4.10252 3.90170
# Velocity P-wave (km/s) = 7.13671 7.86921 7.51190
#
# Compressibility (1/GPa) = 0.01650359
#
# Stress axis : x y z
#
# Youngs Moduli (GPa) = 63.09453 106.72641 113.57415
#
# Poissons Ratio (x) = 0.44133 0.10033
# Poissons Ratio (y) = 0.26091 0.42494
# Poissons Ratio (z) = 0.05574 0.39932
#
# Static dielectric constant tensor:
#      x y z
#    x 1.696390 0.000000 0.000000 
#    y 0.000000 1.601110 0.000000 
#    z 0.000000 0.000000 1.637170 
# 
# From -- ./inp_files/22420.got.cif
#   From: 2010.05.17/outbox.cif.g08.bks.cpg/sg68_12_cif.got.tgz:22420.got - 2010.06.03 18:57:09.
