data_PCOD9510349
_publ_section_title
;
Structure prediction by ZEFSAII (Michael W. Deem and Ramdas Pophale) SiO2 
 PCOD9510349
Probable space group: C C C A
;
_chemical_formula_sum "Si O2"
_cell_formula_units_Z 64
_cell_length_a 18.220072
_cell_length_b 6.338164
_cell_length_c 22.436310
_cell_angle_alpha 90.000000
_cell_angle_beta 90.000000
_cell_angle_gamma 90.000000
_cell_volume 2590.985564
_symmetry_space_group_name_H-M "C C C A"
_symmetry_group_IT_number 68
_space_group.IT_coordinate_system_code '2'
_symmetry_cell_setting 'orthorhombic'
loop_
_space_group_symop_operation_xyz
x,y,z
-x,1/2-y,z
x,1/2-y,1/2-z
-x,y,1/2-z
-x,-y,-z
x,1/2+y,-z
-x,1/2+y,1/2+z
x,-y,1/2+z
1/2+x,1/2+y,z
1/2-x,-y,z
1/2+x,-y,1/2-z
1/2-x,1/2+y,1/2-z
1/2-x,1/2-y,-z
1/2+x,y,-z
1/2-x,y,1/2+z
1/2+x,1/2-y,1/2+z
loop_
_atom_site_type_symbol
_atom_site_label
_atom_site_fract_x
_atom_site_fract_y
_atom_site_fract_z
Si Si1 0.083783 0.749956 0.644802
Si Si2 0.056463 0.595950 0.049185
Si Si3 0.177600 0.629527 0.407253
Si Si4 0.323454 0.916317 0.793376
O O1 0.081325 0.604409 0.585882
O O2 0.129331 0.617221 0.691545
O O3 0.000000 0.750000 0.664931
O O4 0.123286 0.962966 0.624916
O O5 0.129631 0.742292 0.043085
O O6 0.000000 0.750000 0.084380
O O7 0.000000 0.500000 0.000000
O O8 0.250000 0.500000 0.426957
O O9 0.197072 0.797559 0.355248
O O10 0.361246 0.750000 0.750000
O O11 0.250000 0.000000 0.762453
#
# Coordination Sequence:
#
# PCOD9510349 Si02
#       4
#    16  16  16  16
#     4  11  23  44  72  99 142 191 238 295 360 429
#     4  11  24  41  72 102 133 188 240 293 372 442
#     4  11  23  44  70 103 140 188 242 300 367 433
#     4  11  24  41  72 104 140 189 242 291 364 439
#
# _framework density 24.701022999999999
#
# number of rings (size 3 to 8) (size 9 to 14) (size 15 to 20)
#    0.000    1.000    5.000    1.500    0.000    0.000 
#    0.000    5.000    0.000    0.000    0.000    0.000 
#    0.000    0.000    0.000    0.000    0.000    0.000 
#
# Total GULP energy -178816.039396 kJ/mol
# GULP energy per Si atom -5588.001231 kJ/mol
# Density = 2.464480 g / cm^3
# Si number density = 24.701023 Si / 1000 Ang^3
#
#
#
# Elastic Constant Matrix: (Units=GPa)
#
#
# Indices 1 2 3 4 5 6 
#
# 1 166.7832 66.4625 27.5610 0.0000 0.0000 0.0000
# 2 66.4625 137.7791 30.3779 0.0000 0.0000 0.0000
# 3 27.5610 30.3779 75.6387 0.0000 0.0000 0.0000
# 4 0.0000 0.0000 0.0000 32.7135 0.0000 0.0000
# 5 0.0000 0.0000 0.0000 0.0000 11.7604 0.0000
# 6 0.0000 0.0000 0.0000 0.0000 0.0000 69.1176
#
#
#
# Elastic Compliance Matrix: (Units=1/GPa)
#
#
# Indices 1 2 3 4 5 6 
#
# 1 0.007558 -0.003334 -0.001415 0.000000 0.000000 0.000000
# 2 -0.003334 0.009434 -0.002574 0.000000 0.000000 0.000000
# 3 -0.001415 -0.002574 0.014770 0.000000 0.000000 0.000000
# 4 0.000000 0.000000 0.000000 0.030568 0.000000 0.000000
# 5 0.000000 0.000000 0.000000 0.000000 0.085031 0.000000
# 6 0.000000 0.000000 0.000000 0.000000 0.000000 0.014468
#
#
# Mechanical properties :
#
#
# Convention : Reuss Voigt Hill
#
# Bulk Modulus (GPa) = 58.42440 69.88929 64.15684
# Shear Modulus (GPa) = 27.44525 39.77161 33.60843
#
# Velocity S-wave (km/s) = 3.33693 4.01698 3.69264
# Velocity P-wave (km/s) = 6.20893 7.06190 6.64910
#
# Compressibility (1/GPa) = 0.01711614
#
# Stress axis : x y z
#
# Youngs Moduli (GPa) = 132.30620 106.00228 67.70429
#
# Poissons Ratio (x) = 0.35341 0.09581
# Poissons Ratio (y) = 0.44111 0.17427
# Poissons Ratio (z) = 0.18722 0.27284
#
# Static dielectric constant tensor:
#      x y z
#    x 1.975460 0.000000 0.000000 
#    y 0.000000 2.043010 0.000000 
#    z 0.000000 0.000000 2.014930 
# 
# From -- ./inp_files/51592.got.cif
#   From: 2010.05.17/outbox.cif.g08.bks.cpg/sg68_26_cif.got.tgz:51592.got - 2010.06.03 18:57:09.
