data_PCOD9510370
_publ_section_title
;
Structure prediction by ZEFSAII (Michael W. Deem and Ramdas Pophale) SiO2 
 PCOD9510370
Probable space group: C C C A
;
_chemical_formula_sum "Si O2"
_cell_formula_units_Z 72
_cell_length_a 18.149195
_cell_length_b 23.860383
_cell_length_c 8.628392
_cell_angle_alpha 90.000000
_cell_angle_beta 90.000000
_cell_angle_gamma 90.000000
_cell_volume 3736.497060
_symmetry_space_group_name_H-M "C C C A"
_symmetry_group_IT_number 68
_space_group.IT_coordinate_system_code '2'
_symmetry_cell_setting 'orthorhombic'
loop_
_space_group_symop_operation_xyz
x,y,z
-x,1/2-y,z
x,1/2-y,1/2-z
-x,y,1/2-z
-x,-y,-z
x,1/2+y,-z
-x,1/2+y,1/2+z
x,-y,1/2+z
1/2+x,1/2+y,z
1/2-x,-y,z
1/2+x,-y,1/2-z
1/2-x,1/2+y,1/2-z
1/2-x,1/2-y,-z
1/2+x,y,-z
1/2-x,y,1/2+z
1/2+x,1/2-y,1/2+z
loop_
_atom_site_type_symbol
_atom_site_label
_atom_site_fract_x
_atom_site_fract_y
_atom_site_fract_z
Si Si1 0.000000 0.591727 0.750000
Si Si2 0.652918 0.964569 0.169623
Si Si3 0.506328 0.687762 0.000552
Si Si4 0.201952 0.072623 0.676982
Si Si5 0.371645 0.188255 0.240853
O O1 0.071492 0.555089 0.711944
O O2 0.989814 0.634601 0.609167
O O3 0.712039 0.937750 0.289129
O O4 0.661658 0.030803 0.201379
O O5 0.676759 0.945745 0.996109
O O6 0.500000 0.750000 0.073110
O O7 0.433361 0.685037 0.893986
O O8 0.578698 0.684744 0.894337
O O9 0.181546 0.136351 0.713713
O O10 0.335909 0.250000 0.250000
#
# Coordination Sequence:
#
# PCOD9510370 Si02
#       5
#     8  16  16  16  16
#     4  12  23  38  62 104 119 164 216 268 302 384
#     4  11  26  40  68  89 132 165 209 258 332 360
#     4   9  19  36  60  92 131 168 200 261 319 369
#     4  11  23  46  61  93 126 171 206 265 316 387
#     4   9  19  39  66  88 123 171 213 253 314 380
#
# _framework density 19.269385
#
# number of rings (size 3 to 8) (size 9 to 14) (size 15 to 20)
#    0.000    1.778    2.222    4.333    6.222    2.667 
#    0.000    3.333    0.000    0.000    0.000    0.000 
#    0.000    0.000    0.000    0.000    0.000    0.000 
#
# Total GULP energy -200840.888113 kJ/mol
# GULP energy per Si atom -5578.913559 kJ/mol
# Density = 1.922553 g / cm^3
# Si number density = 19.269385 Si / 1000 Ang^3
#
#
#
# Elastic Constant Matrix: (Units=GPa)
#
#
# Indices 1 2 3 4 5 6 
#
# 1 101.7206 58.9066 38.7978 0.0000 0.0000 0.0000
# 2 58.9066 147.6161 40.8902 0.0000 0.0000 0.0000
# 3 38.7978 40.8902 90.2796 0.0000 0.0000 0.0000
# 4 0.0000 0.0000 0.0000 32.8507 0.0000 0.0000
# 5 0.0000 0.0000 0.0000 0.0000 -132.0831 0.0000
# 6 0.0000 0.0000 0.0000 0.0000 0.0000 34.2227
#
#
#
# Elastic Compliance Matrix: (Units=1/GPa)
#
#
# Indices 1 2 3 4 5 6 
#
# 1 0.013925 -0.004459 -0.003965 0.000000 0.000000 0.000000
# 2 -0.004459 0.009174 -0.002239 0.000000 0.000000 0.000000
# 3 -0.003965 -0.002239 0.013795 0.000000 0.000000 0.000000
# 4 0.000000 0.000000 0.000000 0.030441 0.000000 0.000000
# 5 0.000000 0.000000 0.000000 0.000000 -0.007571 0.000000
# 6 0.000000 0.000000 0.000000 0.000000 0.000000 0.029220
#
#
# Mechanical properties :
#
#
# Convention : Reuss Voigt Hill
#
# Bulk Modulus (GPa) = 64.23163 68.53393 66.38278
# Shear Modulus (GPa) = 43.29078 0.39952 21.84515
#
# Velocity S-wave (km/s) = 4.74498 0.45583 3.37066
# Velocity P-wave (km/s) = 7.96403 5.99337 7.04791
#
# Compressibility (1/GPa) = 0.01556865
#
# Stress axis : x y z
#
# Youngs Moduli (GPa) = 71.81285 109.00693 72.49146
#
# Poissons Ratio (x) = 0.48601 0.28742
# Poissons Ratio (y) = 0.32018 0.16231
# Poissons Ratio (z) = 0.28473 0.24406
#
# Static dielectric constant tensor:
#      x y z
#    x 1.649070 0.000000 0.000000 
#    y 0.000000 1.683030 0.000000 
#    z 0.000000 0.000000 1.708120 
# 
# From -- ./inp_files/6092.got.cif
#   From: 2010.05.17/outbox.cif.g08.bks.cpg/sg68_4_cif.got.tgz:6092.got - 2010.06.03 18:57:09.
