data_PCOD9510228
_publ_section_title
;
Structure prediction by ZEFSAII (Michael W. Deem and Ramdas Pophale) SiO2 
 PCOD9510228
Probable space group: C C C A
;
_chemical_formula_sum "Si O2"
_cell_formula_units_Z 112
_cell_length_a 21.777424
_cell_length_b 15.462935
_cell_length_c 13.930882
_cell_angle_alpha 90.000000
_cell_angle_beta 90.000000
_cell_angle_gamma 90.000000
_cell_volume 4691.125490
_symmetry_space_group_name_H-M "C C C A"
_symmetry_group_IT_number 68
_space_group.IT_coordinate_system_code '2'
_symmetry_cell_setting 'orthorhombic'
loop_
_space_group_symop_operation_xyz
x,y,z
-x,1/2-y,z
x,1/2-y,1/2-z
-x,y,1/2-z
-x,-y,-z
x,1/2+y,-z
-x,1/2+y,1/2+z
x,-y,1/2+z
1/2+x,1/2+y,z
1/2-x,-y,z
1/2+x,-y,1/2-z
1/2-x,1/2+y,1/2-z
1/2-x,1/2-y,-z
1/2+x,y,-z
1/2-x,y,1/2+z
1/2+x,1/2-y,1/2+z
loop_
_atom_site_type_symbol
_atom_site_label
_atom_site_fract_x
_atom_site_fract_y
_atom_site_fract_z
Si Si1 0.126858 0.580073 0.412265
Si Si2 0.559422 0.588040 0.318144
Si Si3 0.487072 0.153466 0.004927
Si Si4 0.810292 0.458531 0.237402
Si Si5 0.671082 0.776140 0.566371
Si Si6 0.599614 0.059793 0.057254
Si Si7 0.704852 0.714769 0.147136
O O1 0.054179 0.597663 0.422567
O O2 0.154531 0.532899 0.321249
O O3 0.149931 0.678212 0.417284
O O4 0.139208 0.512242 0.500235
O O5 0.500000 0.597702 0.250000
O O6 0.549600 0.655392 0.404988
O O7 0.630477 0.589655 0.283834
O O8 0.560448 0.493505 0.366300
O O9 0.500000 0.250000 0.040075
O O10 0.550413 0.103818 0.986692
O O11 0.750000 0.500000 0.289320
O O12 0.781252 0.385926 0.167641
O O13 0.635475 0.860202 0.603879
O O14 0.667158 0.787191 0.451197
O O15 0.738087 0.774585 0.614173
O O16 0.683402 0.750000 0.250000
#
# Coordination Sequence:
#
# PCOD9510228 Si02
#       7
#    16  16  16  16  16  16  16
#     4  11  22  43  70  97 140 186 241 296 361 442
#     4  11  26  45  71 104 147 192 245 312 378 438
#     4  11  23  43  73 103 135 190 248 303 369 449
#     4  12  25  46  71 105 150 196 243 309 372 445
#     4  11  24  45  72 106 139 199 245 304 376 435
#     4  11  23  43  72 100 141 189 249 299 363 450
#     4  11  27  45  68 105 153 190 250 311 364 444
#
# _framework density 23.874867999999999
#
# number of rings (size 3 to 8) (size 9 to 14) (size 15 to 20)
#    0.000    0.857    4.286    3.429    6.000    0.286 
#    0.000    2.857    0.000    0.000    0.000    0.000 
#    0.000    0.000    0.000    0.000    0.000    0.000 
#
# Total GULP energy -312086.045414 kJ/mol
# GULP energy per Si atom -5572.965097 kJ/mol
# Density = 2.382053 g / cm^3
# Si number density = 23.874868 Si / 1000 Ang^3
#
#
#
# Elastic Constant Matrix: (Units=GPa)
#
#
# Indices 1 2 3 4 5 6 
#
# 1 109.8022 16.1162 19.9161 0.0000 0.0000 0.0000
# 2 16.1162 130.3786 -0.0156 0.0000 0.0000 0.0000
# 3 19.9161 -0.0156 49.3528 0.0000 0.0000 0.0000
# 4 0.0000 0.0000 0.0000 15.9768 0.0000 0.0000
# 5 0.0000 0.0000 0.0000 0.0000 23.4183 0.0000
# 6 0.0000 0.0000 0.0000 0.0000 0.0000 36.9557
#
#
#
# Elastic Compliance Matrix: (Units=1/GPa)
#
#
# Indices 1 2 3 4 5 6 
#
# 1 0.010023 -0.001239 -0.004045 0.000000 0.000000 0.000000
# 2 -0.001239 0.007823 0.000503 0.000000 0.000000 0.000000
# 3 -0.004045 0.000503 0.021895 0.000000 0.000000 0.000000
# 4 0.000000 0.000000 0.000000 0.062591 0.000000 0.000000
# 5 0.000000 0.000000 0.000000 0.000000 0.042702 0.000000
# 6 0.000000 0.000000 0.000000 0.000000 0.000000 0.027059
#
#
# Mechanical properties :
#
#
# Convention : Reuss Voigt Hill
#
# Bulk Modulus (GPa) = 33.13760 40.17411 36.65586
# Shear Modulus (GPa) = 26.08029 32.17128 29.12579
#
# Velocity S-wave (km/s) = 3.30869 3.67481 3.49655
# Velocity P-wave (km/s) = 5.33914 5.90501 5.62919
#
# Compressibility (1/GPa) = 0.03017720
#
# Stress axis : x y z
#
# Youngs Moduli (GPa) = 99.77147 127.82429 45.67293
#
# Poissons Ratio (x) = 0.15843 0.18475
# Poissons Ratio (y) = 0.12366 -0.02296
# Poissons Ratio (z) = 0.40358 -0.06425
#
# Static dielectric constant tensor:
#      x y z
#    x 2.059380 0.000000 0.000000 
#    y 0.000000 2.000610 0.000000 
#    z 0.000000 0.000000 1.957860 
# 
# From -- ./inp_files/25427.got.cif
#   From: 2010.05.17/outbox.cif.g08.bks.cpg/sg68_13_cif.got.tgz:25427.got - 2010.06.03 18:57:09.
