data_PCOD9510767
_publ_section_title
;
Structure prediction by ZEFSAII (Michael W. Deem and Ramdas Pophale) SiO2 
 PCOD9510767
Probable space group: C C C A
;
_chemical_formula_sum "Si O2"
_cell_formula_units_Z 60
_cell_length_a 17.778924
_cell_length_b 5.119841
_cell_length_c 26.357238
_cell_angle_alpha 90.000000
_cell_angle_beta 90.000000
_cell_angle_gamma 90.000000
_cell_volume 2399.174548
_symmetry_space_group_name_H-M "C C C A"
_symmetry_group_IT_number 68
_space_group.IT_coordinate_system_code '2'
_symmetry_cell_setting 'orthorhombic'
loop_
_space_group_symop_operation_xyz
x,y,z
-x,1/2-y,z
x,1/2-y,1/2-z
-x,y,1/2-z
-x,-y,-z
x,1/2+y,-z
-x,1/2+y,1/2+z
x,-y,1/2+z
1/2+x,1/2+y,z
1/2-x,-y,z
1/2+x,-y,1/2-z
1/2-x,1/2+y,1/2-z
1/2-x,1/2-y,-z
1/2+x,y,-z
1/2-x,y,1/2+z
1/2+x,1/2-y,1/2+z
loop_
_atom_site_type_symbol
_atom_site_label
_atom_site_fract_x
_atom_site_fract_y
_atom_site_fract_z
Si Si1 0.750000 0.500000 0.881771
Si Si2 0.377925 0.363033 0.698528
Si Si3 0.166633 0.825172 0.032038
Si Si4 0.000000 0.250000 0.750000
Si Si5 0.000000 0.750000 0.431470
Si Si6 0.500000 0.750000 0.365592
O O1 0.684040 0.425941 0.842783
O O2 0.790374 0.285252 0.918322
O O3 0.343549 0.250000 0.750000
O O4 0.440545 0.575226 0.717021
O O5 0.430838 0.159370 0.669053
O O6 0.076391 0.819586 0.039860
O O7 0.181857 0.617726 0.987018
O O8 0.977963 0.495656 0.399116
#
# Coordination Sequence:
#
# PCOD9510767 Si02
#       6
#     8  16  16   4   8   8
#     4  12  30  50  74 118 160 212 256 328 406 474
#     4  12  27  49  77 115 155 211 261 325 394 469
#     4  12  27  53  79 114 158 209 265 331 397 467
#     4  12  24  52  76 112 156 202 276 322 378 474
#     4  12  25  47  85 117 150 207 273 325 391 464
#     4  12  23  49  80 114 156 206 260 325 385 470
#
# _framework density 25.008603000000001
#
# number of rings (size 3 to 8) (size 9 to 14) (size 15 to 20)
#    0.000    0.000    5.333    4.000    1.867    0.000 
#    4.800    0.000    0.000    0.000    0.000    0.000 
#    0.000    0.000    0.000    0.000    0.000    0.000 
#
# Total GULP energy -167846.966424 kJ/mol
# GULP energy per Si atom -5594.898881 kJ/mol
# Density = 2.495168 g / cm^3
# Si number density = 25.008603 Si / 1000 Ang^3
#
#
#
# Elastic Constant Matrix: (Units=GPa)
#
#
# Indices 1 2 3 4 5 6 
#
# 1 179.6640 26.9874 84.2165 0.0000 0.0000 0.0000
# 2 26.9874 96.3413 43.4173 0.0000 0.0000 0.0000
# 3 84.2165 43.4173 158.9070 0.0000 0.0000 0.0000
# 4 0.0000 0.0000 0.0000 12.5652 0.0000 0.0000
# 5 0.0000 0.0000 0.0000 0.0000 11.8018 0.0000
# 6 0.0000 0.0000 0.0000 0.0000 0.0000 33.0891
#
#
#
# Elastic Compliance Matrix: (Units=1/GPa)
#
#
# Indices 1 2 3 4 5 6 
#
# 1 0.007416 -0.000349 -0.003835 0.000000 0.000000 0.000000
# 2 -0.000349 0.011854 -0.003054 0.000000 0.000000 0.000000
# 3 -0.003835 -0.003054 0.009160 0.000000 0.000000 0.000000
# 4 0.000000 0.000000 0.000000 0.079585 0.000000 0.000000
# 5 0.000000 0.000000 0.000000 0.000000 0.084733 0.000000
# 6 0.000000 0.000000 0.000000 0.000000 0.000000 0.030221
#
#
# Mechanical properties :
#
#
# Convention : Reuss Voigt Hill
#
# Bulk Modulus (GPa) = 71.66404 82.68384 77.17394
# Shear Modulus (GPa) = 20.65304 30.17730 25.41517
#
# Velocity S-wave (km/s) = 2.87686 3.47749 3.19134
# Velocity P-wave (km/s) = 6.30500 7.01840 6.67124
#
# Compressibility (1/GPa) = 0.01395400
#
# Stress axis : x y z
#
# Youngs Moduli (GPa) = 134.84421 84.36145 109.17373
#
# Poissons Ratio (x) = 0.02946 0.41867
# Poissons Ratio (y) = 0.04708 0.33338
# Poissons Ratio (z) = 0.51711 0.25761
#
# Static dielectric constant tensor:
#      x y z
#    x 2.124700 0.000000 0.000000 
#    y 0.000000 0.909440 0.000000 
#    z 0.000000 0.000000 2.040660 
# 
# From -- ./inp_files/51203.got.cif
#   From: 2010.05.17/outbox.cif.g08.bks.cpg/sg68_26_cif.got.tgz:51203.got - 2010.06.03 18:57:09.
