data_PCOD9510450
_publ_section_title
;
Structure prediction by ZEFSAII (Michael W. Deem and Ramdas Pophale) SiO2 
 PCOD9510450
Probable space group: C C C A
;
_chemical_formula_sum "Si O2"
_cell_formula_units_Z 88
_cell_length_a 12.368890
_cell_length_b 16.661014
_cell_length_c 18.498373
_cell_angle_alpha 90.000000
_cell_angle_beta 90.000000
_cell_angle_gamma 90.000000
_cell_volume 3812.112326
_symmetry_space_group_name_H-M "C C C A"
_symmetry_group_IT_number 68
_space_group.IT_coordinate_system_code '2'
_symmetry_cell_setting 'orthorhombic'
loop_
_space_group_symop_operation_xyz
x,y,z
-x,1/2-y,z
x,1/2-y,1/2-z
-x,y,1/2-z
-x,-y,-z
x,1/2+y,-z
-x,1/2+y,1/2+z
x,-y,1/2+z
1/2+x,1/2+y,z
1/2-x,-y,z
1/2+x,-y,1/2-z
1/2-x,1/2+y,1/2-z
1/2-x,1/2-y,-z
1/2+x,y,-z
1/2-x,y,1/2+z
1/2+x,1/2-y,1/2+z
loop_
_atom_site_type_symbol
_atom_site_label
_atom_site_fract_x
_atom_site_fract_y
_atom_site_fract_z
Si Si1 0.500000 0.750000 0.541459
Si Si2 0.188658 0.582924 0.874744
Si Si3 0.313818 0.339034 0.721504
Si Si4 0.059193 0.441950 0.102478
Si Si5 0.871538 0.623237 0.380817
Si Si6 0.186644 0.147219 0.500901
O O1 0.528443 0.824025 0.593307
O O2 0.604170 0.721989 0.495560
O O3 0.250000 0.500000 0.884113
O O4 0.181339 0.605495 0.791445
O O5 0.067196 0.573834 0.902588
O O6 0.260110 0.645352 0.920577
O O7 0.341308 0.250000 0.750000
O O8 0.391116 0.377263 0.659676
O O9 0.193002 0.344091 0.688442
O O10 0.094333 0.530710 0.127171
O O11 0.111118 0.426611 0.023853
O O12 0.784396 0.636286 0.444981
#
# Coordination Sequence:
#
# PCOD9510450 Si02
#       6
#     8  16  16  16  16  16
#     4  12  24  40  67 100 135 180 230 282 342 404
#     4  12  24  42  69 100 131 173 226 279 335 408
#     4  11  25  45  68  98 133 175 227 280 335 402
#     4  11  25  45  71  97 136 182 222 277 347 412
#     4  11  24  46  68  99 140 179 222 282 347 410
#     4  11  24  43  68  99 136 177 227 281 335 404
#
# _framework density 23.084316000000001
#
# number of rings (size 3 to 8) (size 9 to 14) (size 15 to 20)
#    0.000    0.727    0.000    8.727    0.000    8.000 
#    0.000    7.727    0.000    0.000    0.000    0.000 
#    0.000    0.000    0.000    0.000    0.000    0.000 
#
# Total GULP energy -246149.633785 kJ/mol
# GULP energy per Si atom -5594.309859 kJ/mol
# Density = 2.303177 g / cm^3
# Si number density = 23.084316 Si / 1000 Ang^3
#
#
#
# Elastic Constant Matrix: (Units=GPa)
#
#
# Indices 1 2 3 4 5 6 
#
# 1 123.0428 32.1468 46.3079 0.0000 0.0000 0.0000
# 2 32.1468 116.1520 20.0950 0.0000 0.0000 0.0000
# 3 46.3079 20.0950 69.3073 0.0000 0.0000 0.0000
# 4 0.0000 0.0000 0.0000 37.7056 0.0000 0.0000
# 5 0.0000 0.0000 0.0000 0.0000 15.9767 0.0000
# 6 0.0000 0.0000 0.0000 0.0000 0.0000 41.7256
#
#
#
# Elastic Compliance Matrix: (Units=1/GPa)
#
#
# Indices 1 2 3 4 5 6 
#
# 1 0.011245 -0.001908 -0.006960 0.000000 0.000000 0.000000
# 2 -0.001908 0.009388 -0.001447 0.000000 0.000000 0.000000
# 3 -0.006960 -0.001447 0.019499 0.000000 0.000000 0.000000
# 4 0.000000 0.000000 0.000000 0.026521 0.000000 0.000000
# 5 0.000000 0.000000 0.000000 0.000000 0.062591 0.000000
# 6 0.000000 0.000000 0.000000 0.000000 0.000000 0.023966
#
#
# Mechanical properties :
#
#
# Convention : Reuss Voigt Hill
#
# Bulk Modulus (GPa) = 51.27988 56.17797 53.72892
# Shear Modulus (GPa) = 27.72515 33.07842 30.40179
#
# Velocity S-wave (km/s) = 3.46936 3.78952 3.63297
# Velocity P-wave (km/s) = 6.18959 6.59819 6.39715
#
# Compressibility (1/GPa) = 0.01950083
#
# Stress axis : x y z
#
# Youngs Moduli (GPa) = 88.92550 106.52068 51.28567
#
# Poissons Ratio (x) = 0.20326 0.35697
# Poissons Ratio (y) = 0.16968 0.07421
# Poissons Ratio (z) = 0.61896 0.15413
#
# Static dielectric constant tensor:
#      x y z
#    x 1.897290 0.000000 0.000000 
#    y 0.000000 1.914540 0.000000 
#    z 0.000000 0.000000 1.889780 
# 
# From -- ./inp_files/37435.got.cif
#   From: 2010.05.17/outbox.cif.g08.bks.cpg/sg68_19_cif.got.tgz:37435.got - 2010.06.03 18:57:09.
