data_PCOD9510991
_publ_section_title
;
Structure prediction by ZEFSAII (Michael W. Deem and Ramdas Pophale) SiO2 
 PCOD9510991
Probable space group: F M M M
;
_chemical_formula_sum "Si O2"
_cell_formula_units_Z 112
_cell_length_a 18.802640
_cell_length_b 38.304365
_cell_length_c 8.582285
_cell_angle_alpha 90.000000
_cell_angle_beta 90.000000
_cell_angle_gamma 90.000000
_cell_volume 6181.160642
_symmetry_space_group_name_H-M "F M M M"
_symmetry_group_IT_number 69
_symmetry_cell_setting 'orthorhombic'
loop_
_space_group_symop_operation_xyz
x,y,z
-x,-y,z
x,-y,-z
-x,y,-z
-x,-y,-z
x,y,-z
-x,y,z
x,-y,z
x,1/2+y,1/2+z
-x,1/2-y,1/2+z
x,1/2-y,1/2-z
-x,1/2+y,1/2-z
-x,1/2-y,1/2-z
x,1/2+y,1/2-z
-x,1/2+y,1/2+z
x,1/2-y,1/2+z
1/2+x,y,1/2+z
1/2-x,-y,1/2+z
1/2+x,-y,1/2-z
1/2-x,y,1/2-z
1/2-x,-y,1/2-z
1/2+x,y,1/2-z
1/2-x,y,1/2+z
1/2+x,-y,1/2+z
1/2+x,1/2+y,z
1/2-x,1/2-y,z
1/2+x,1/2-y,-z
1/2-x,1/2+y,-z
1/2-x,1/2-y,-z
1/2+x,1/2+y,-z
1/2-x,1/2+y,z
1/2+x,1/2-y,z
loop_
_atom_site_type_symbol
_atom_site_label
_atom_site_fract_x
_atom_site_fract_y
_atom_site_fract_z
Si Si1 0.331274 0.572136 0.813948
Si Si2 0.831412 0.500000 0.186033
Si Si3 0.417787 0.786955 0.812327
Si Si4 0.669664 0.644921 0.312441
O O1 0.250000 0.572743 0.750000
O O2 0.363896 0.536221 0.748389
O O3 0.362176 0.608745 0.753817
O O4 0.329833 0.571137 0.000000
O O5 0.750000 0.500000 0.250000
O O6 0.829559 0.500000 0.000000
O O7 0.500000 0.790144 0.760969
O O8 0.389637 0.750000 0.750000
O O9 0.373880 0.820887 0.763641
O O10 0.416796 0.785811 0.000000
O O11 0.671061 0.642699 0.500000
O O12 0.750000 0.648206 0.250000
#
# Coordination Sequence:
#
# PCOD9510991 Si02
#       4
#    32  16  32  32
#     4  10  17  26  40  61  90 122 156 191 230 274
#     4  10  16  24  38  58  87 122 157 190 229 273
#     4   9  19  35  53  71  92 121 157 195 233 277
#     4  10  19  31  47  69  97 125 155 192 235 280
#
# _framework density 18.119575000000001
#
# number of rings (size 3 to 8) (size 9 to 14) (size 15 to 20)
#    0.000    2.286    0.000    8.143    0.000    2.857 
#    0.000    2.857    0.000    0.000    0.000    1.000 
#    0.000    8.000    0.000    0.000    0.000    0.000 
#
# Total GULP energy -156080.537604 kJ/mol
# GULP energy per Si atom -5574.304914 kJ/mol
# Density = 1.807833 g / cm^3
# Si number density = 18.119575 Si / 1000 Ang^3
#
#
#
# Elastic Constant Matrix: (Units=GPa)
#
#
# Indices 1 2 3 4 5 6 
#
# 1 20.1403 47.8029 14.2470 0.0000 -0.0003 0.0000
# 2 47.8029 240.7027 65.5745 0.0000 0.0000 0.0000
# 3 14.2470 65.5745 110.9304 0.0001 -0.0006 0.0001
# 4 0.0000 0.0000 0.0001 37.0946 0.0000 0.0000
# 5 -0.0003 0.0000 -0.0006 0.0000 11.5216 -0.0001
# 6 0.0000 0.0000 0.0001 0.0000 -0.0001 -10.9437
#
#
#
# Elastic Compliance Matrix: (Units=1/GPa)
#
#
# Indices 1 2 3 4 5 6 
#
# 1 0.094067 -0.018344 -0.001237 0.000000 0.000002 0.000000
# 2 -0.018344 0.008529 -0.002686 0.000000 -0.000001 0.000000
# 3 -0.001237 -0.002686 0.010761 0.000000 0.000001 0.000000
# 4 0.000000 0.000000 0.000000 0.026958 0.000000 0.000000
# 5 0.000002 -0.000001 0.000001 0.000000 0.086793 0.000000
# 6 0.000000 0.000000 0.000000 0.000000 0.000000 -0.091377
#
#
# Mechanical properties :
#
#
# Convention : Reuss Voigt Hill
#
# Bulk Modulus (GPa) = 14.53008 69.66914 42.09961
# Shear Modulus (GPa) = 24.60519 23.81112 24.20815
#
# Velocity S-wave (km/s) = 3.68901 3.62900 3.65913
# Velocity P-wave (km/s) = 5.11679 7.48950 6.41382
#
# Compressibility (1/GPa) = 0.06882273
#
# Stress axis : x y z
#
# Youngs Moduli (GPa) = 10.63068 117.24144 92.92526
#
# Poissons Ratio (x) = 2.15073 0.11497
# Poissons Ratio (y) = 0.19501 0.24960
# Poissons Ratio (z) = 0.01315 0.31491
#
# Static dielectric constant tensor:
#      x y z
#    x 1.602350 0.000000 0.000000 
#    y 0.000000 1.691280 0.000000 
#    z 0.000000 0.000000 1.608190 
# 
# From -- ./inp_files/3984.got.cif
#   From: 2010.05.17/outbox.cif.g08.bks.cpg/sg69_2_cif.got.tgz:3984.got - 2010.06.03 19:29:58.
