data_PCOD9510065
_publ_section_title
;
Structure prediction by ZEFSAII (Michael W. Deem and Ramdas Pophale) SiO2 
 PCOD9510065
Probable space group: C C C A
;
_chemical_formula_sum "Si O2"
_cell_formula_units_Z 100
_cell_length_a 9.229866
_cell_length_b 25.438530
_cell_length_c 18.557768
_cell_angle_alpha 90.000000
_cell_angle_beta 90.000000
_cell_angle_gamma 90.000000
_cell_volume 4357.256721
_symmetry_space_group_name_H-M "C C C A"
_symmetry_group_IT_number 68
_space_group.IT_coordinate_system_code '2'
_symmetry_cell_setting 'orthorhombic'
loop_
_space_group_symop_operation_xyz
x,y,z
-x,1/2-y,z
x,1/2-y,1/2-z
-x,y,1/2-z
-x,-y,-z
x,1/2+y,-z
-x,1/2+y,1/2+z
x,-y,1/2+z
1/2+x,1/2+y,z
1/2-x,-y,z
1/2+x,-y,1/2-z
1/2-x,1/2+y,1/2-z
1/2-x,1/2-y,-z
1/2+x,y,-z
1/2-x,y,1/2+z
1/2+x,1/2-y,1/2+z
loop_
_atom_site_type_symbol
_atom_site_label
_atom_site_fract_x
_atom_site_fract_y
_atom_site_fract_z
Si Si1 0.532942 0.935077 0.583878
Si Si2 0.139634 0.902643 0.939384
Si Si3 0.385769 0.333631 0.361500
Si Si4 0.617511 0.212941 0.513684
Si Si5 0.410472 0.984569 0.183543
Si Si6 0.419767 0.127625 0.684090
Si Si7 0.500000 0.750000 0.750000
O O1 0.704121 0.928179 0.571725
O O2 0.443263 0.924180 0.510113
O O3 0.471503 0.889262 0.638100
O O4 0.501267 0.992471 0.615847
O O5 0.030144 0.898733 0.872512
O O6 0.167380 0.840010 0.949053
O O7 0.436544 0.307079 0.436039
O O8 0.213262 0.345573 0.356926
O O9 0.413405 0.290726 0.300163
O O10 0.500000 0.250000 0.551865
O O11 0.750000 0.250000 0.500000
O O12 0.500000 0.009033 0.250000
O O13 0.365643 0.927196 0.217123
O O14 0.250000 0.000000 0.160577
O O15 0.500000 0.157087 0.750000
#
# Coordination Sequence:
#
# PCOD9510065 Si02
#       7
#    16  16  16  16  16  16   4
#     4  11  25  45  73 100 144 183 237 294 355 423
#     4  11  25  44  68 104 139 185 230 296 357 413
#     4  11  24  44  65 101 137 183 230 297 350 423
#     4  11  21  40  66  93 129 179 232 277 337 417
#     4  11  26  46  74 104 138 192 237 283 360 431
#     4  11  26  46  70 101 146 181 238 292 357 431
#     4  12  28  40  74 104 144 180 248 288 372 418
#
# _framework density 22.950219000000001
#
# number of rings (size 3 to 8) (size 9 to 14) (size 15 to 20)
#    0.000    0.960    2.400    4.800    7.840    0.640 
#    0.000    2.000    0.000    0.000    0.000    0.000 
#    0.000    0.000    0.000    0.000    0.000    0.000 
#
# Total GULP energy -278581.062666 kJ/mol
# GULP energy per Si atom -5571.621253 kJ/mol
# Density = 2.289798 g / cm^3
# Si number density = 22.950219 Si / 1000 Ang^3
#
#
#
# Elastic Constant Matrix: (Units=GPa)
#
#
# Indices 1 2 3 4 5 6 
#
# 1 140.0695 10.1957 11.9928 0.0000 0.0000 0.0000
# 2 10.1957 76.0589 15.8009 0.0000 0.0000 0.0000
# 3 11.9928 15.8009 58.8147 0.0000 0.0000 0.0000
# 4 0.0000 0.0000 0.0000 1.2984 0.0000 0.0000
# 5 0.0000 0.0000 0.0000 0.0000 -61.2342 0.0000
# 6 0.0000 0.0000 0.0000 0.0000 0.0000 -160.9226
#
#
#
# Elastic Compliance Matrix: (Units=1/GPa)
#
#
# Indices 1 2 3 4 5 6 
#
# 1 0.007302 -0.000709 -0.001298 0.000000 0.000000 0.000000
# 2 -0.000709 0.013994 -0.003615 0.000000 0.000000 0.000000
# 3 -0.001298 -0.003615 0.018238 0.000000 0.000000 0.000000
# 4 0.000000 0.000000 0.000000 0.770188 0.000000 0.000000
# 5 0.000000 0.000000 0.000000 0.000000 -0.016331 0.000000
# 6 0.000000 0.000000 0.000000 0.000000 0.000000 -0.006214
#
#
# Mechanical properties :
#
#
# Convention : Reuss Voigt Hill
#
# Bulk Modulus (GPa) = 35.34895 38.99135 37.17015
# Shear Modulus (GPa) = 6.18925 -28.37477 -11.09276
#
# Velocity S-wave (km/s) = 1.64398 -3.52001 -2.20088
# Velocity P-wave (km/s) = 4.36342 0.71120 3.12612
#
# Compressibility (1/GPa) = 0.02828938
#
# Stress axis : x y z
#
# Youngs Moduli (GPa) = 136.94689 71.46045 54.82915
#
# Poissons Ratio (x) = 0.05067 0.07119
# Poissons Ratio (y) = 0.09711 0.19820
# Poissons Ratio (z) = 0.17782 0.25832
#
# Static dielectric constant tensor:
#      x y z
#    x 1.767260 0.000000 0.000000 
#    y 0.000000 1.938340 0.000000 
#    z 0.000000 0.000000 1.935450 
# 
# From -- ./inp_files/36582.got.cif
#   From: 2010.05.17/outbox.cif.g08.bks.cpg/sg68_19_cif.got.tgz:36582.got - 2010.06.03 18:57:09.
