data_PCOD9510992
_publ_section_title
;
Structure prediction by ZEFSAII (Michael W. Deem and Ramdas Pophale) SiO2 
 PCOD9510992
Probable space group: F M M M
;
_chemical_formula_sum "Si O2"
_cell_formula_units_Z 120
_cell_length_a 14.182478
_cell_length_b 18.306967
_cell_length_c 27.245219
_cell_angle_alpha 90.000000
_cell_angle_beta 90.000000
_cell_angle_gamma 90.000000
_cell_volume 7073.898441
_symmetry_space_group_name_H-M "F M M M"
_symmetry_group_IT_number 69
_symmetry_cell_setting 'orthorhombic'
loop_
_space_group_symop_operation_xyz
x,y,z
-x,-y,z
x,-y,-z
-x,y,-z
-x,-y,-z
x,y,-z
-x,y,z
x,-y,z
x,1/2+y,1/2+z
-x,1/2-y,1/2+z
x,1/2-y,1/2-z
-x,1/2+y,1/2-z
-x,1/2-y,1/2-z
x,1/2+y,1/2-z
-x,1/2+y,1/2+z
x,1/2-y,1/2+z
1/2+x,y,1/2+z
1/2-x,-y,1/2+z
1/2+x,-y,1/2-z
1/2-x,y,1/2-z
1/2-x,-y,1/2-z
1/2+x,y,1/2-z
1/2-x,y,1/2+z
1/2+x,-y,1/2+z
1/2+x,1/2+y,z
1/2-x,1/2-y,z
1/2+x,1/2-y,-z
1/2-x,1/2+y,-z
1/2-x,1/2-y,-z
1/2+x,1/2+y,-z
1/2-x,1/2+y,z
1/2+x,1/2-y,z
loop_
_atom_site_type_symbol
_atom_site_label
_atom_site_fract_x
_atom_site_fract_y
_atom_site_fract_z
Si Si1 0.709626 0.167257 0.909490
Si Si2 0.197615 0.913365 0.000000
Si Si3 0.000000 0.794207 0.300234
Si Si4 0.500000 0.331906 0.000000
Si Si5 0.500000 0.278935 0.591146
Si Si6 0.212117 0.334525 0.800935
O O1 0.750000 0.250000 0.914744
O O2 0.750127 0.118187 0.952298
O O3 0.596451 0.175310 0.913297
O O4 0.738494 0.138576 0.855297
O O5 0.092935 0.880562 0.000000
O O6 0.196772 0.000000 0.000000
O O7 0.000000 0.750000 0.250000
O O8 0.000000 0.750347 0.352150
O O9 0.098803 0.836182 0.299623
O O10 0.500000 0.281254 0.048641
O O11 0.250000 0.367462 0.750000
O O12 0.250000 0.250000 0.800986
#
# Coordination Sequence:
#
# PCOD9510992 Si02
#       6
#    32  16  16   8  16  32
#     4  10  19  35  54  77 106 137 175 215 256 308
#     4  12  25  38  53  75 105 140 175 216 263 310
#     4  10  16  24  39  73 113 129 153 203 263 302
#     4  12  21  36  54  76 105 130 172 218 263 314
#     4  10  20  31  56  83 101 133 175 219 258 299
#     4   9  16  25  44  72 103 134 161 205 253 302
#
# _framework density 16.963773
#
# number of rings (size 3 to 8) (size 9 to 14) (size 15 to 20)
#    0.000    1.867    5.333    1.400    0.000    0.000 
#    0.000    1.333    0.000    0.800    0.000    0.000 
#    0.000    0.000    0.000    0.000    0.000    0.000 
#
# Total GULP energy -167034.515882 kJ/mol
# GULP energy per Si atom -5567.817196 kJ/mol
# Density = 1.692516 g / cm^3
# Si number density = 16.963773 Si / 1000 Ang^3
#
#
#
# Elastic Constant Matrix: (Units=GPa)
#
#
# Indices 1 2 3 4 5 6 
#
# 1 125.7016 24.1911 60.5474 0.0000 0.0000 0.0000
# 2 24.1911 44.1379 64.6722 0.0000 0.0000 0.0000
# 3 60.5474 64.6722 224.0828 0.0000 0.0000 0.0000
# 4 0.0000 0.0000 0.0000 1.5000 0.0000 0.0000
# 5 0.0000 0.0000 0.0000 0.0000 30.3935 0.0000
# 6 0.0000 0.0000 0.0000 0.0000 0.0000 0.5523
#
#
#
# Elastic Compliance Matrix: (Units=1/GPa)
#
#
# Indices 1 2 3 4 5 6 
#
# 1 0.009296 -0.002451 -0.001804 0.000000 0.000000 0.000000
# 2 -0.002451 0.039904 -0.010854 0.000000 0.000000 0.000000
# 3 -0.001804 -0.010854 0.008083 0.000000 0.000000 0.000000
# 4 0.000000 0.000000 0.000000 0.666686 0.000000 0.000000
# 5 0.000000 0.000000 0.000000 0.000000 0.032902 0.000000
# 6 0.000000 0.000000 0.000000 0.000000 0.000000 1.810748
#
#
# Mechanical properties :
#
#
# Convention : Reuss Voigt Hill
#
# Bulk Modulus (GPa) = 36.95078 76.97152 56.96115
# Shear Modulus (GPa) = 1.91802 22.78991 12.35396
#
# Velocity S-wave (km/s) = 1.06448 3.66928 2.70155
# Velocity P-wave (km/s) = 4.83118 7.96392 6.58651
#
# Compressibility (1/GPa) = 0.02706303
#
# Stress axis : x y z
#
# Youngs Moduli (GPa) = 107.57065 25.06038 123.71932
#
# Poissons Ratio (x) = 0.06143 0.22324
# Poissons Ratio (y) = 0.26368 1.34288
# Poissons Ratio (z) = 0.19410 0.27201
#
# Static dielectric constant tensor:
#      x y z
#    x 1.568620 0.000000 0.000000 
#    y 0.000000 1.521130 0.000000 
#    z 0.000000 0.000000 1.622690 
# 
# From -- ./inp_files/40044.got.cif
#   From: 2010.05.17/outbox.cif.g08.bks.cpg/sg69_21_cif.got.tgz:40044.got - 2010.06.03 19:29:58.
