data_PCOD9510633
_publ_section_title
;
Structure prediction by ZEFSAII (Michael W. Deem and Ramdas Pophale) SiO2 
 PCOD9510633
Probable space group: C C C A
;
_chemical_formula_sum "Si O2"
_cell_formula_units_Z 64
_cell_length_a 18.250437
_cell_length_b 17.333951
_cell_length_c 9.535521
_cell_angle_alpha 90.000000
_cell_angle_beta 90.000000
_cell_angle_gamma 90.000000
_cell_volume 3016.582862
_symmetry_space_group_name_H-M "C C C A"
_symmetry_group_IT_number 68
_space_group.IT_coordinate_system_code '2'
_symmetry_cell_setting 'orthorhombic'
loop_
_space_group_symop_operation_xyz
x,y,z
-x,1/2-y,z
x,1/2-y,1/2-z
-x,y,1/2-z
-x,-y,-z
x,1/2+y,-z
-x,1/2+y,1/2+z
x,-y,1/2+z
1/2+x,1/2+y,z
1/2-x,-y,z
1/2+x,-y,1/2-z
1/2-x,1/2+y,1/2-z
1/2-x,1/2-y,-z
1/2+x,y,-z
1/2-x,y,1/2+z
1/2+x,1/2-y,1/2+z
loop_
_atom_site_type_symbol
_atom_site_label
_atom_site_fract_x
_atom_site_fract_y
_atom_site_fract_z
Si Si1 0.078592 0.547634 0.499150
Si Si2 0.323421 0.956893 0.221805
Si Si3 0.917502 0.724950 0.100922
Si Si4 0.692724 0.708619 0.102585
O O1 0.132834 0.502816 0.396283
O O2 0.118565 0.554031 0.650967
O O3 0.078893 0.634518 0.436272
O O4 0.000000 0.500000 0.500000
O O5 0.296534 0.879693 0.142883
O O6 0.250000 0.000000 0.273008
O O7 0.881260 0.750000 0.250000
O O8 0.000000 0.750000 0.110520
O O9 0.882184 0.775098 0.977952
O O10 0.692349 0.750000 0.250000
O O11 0.750000 0.750000 0.000000
#
# Coordination Sequence:
#
# PCOD9510633 Si02
#       4
#    16  16  16  16
#     4  12  27  48  74 111 149 198 251 316 384 461
#     4  12  28  47  75 108 152 193 253 311 388 456
#     4  11  26  47  74 107 148 197 254 309 382 454
#     4  12  26  48  73 104 146 195 252 310 376 454
#
# _framework density 21.216058
#
# number of rings (size 3 to 8) (size 9 to 14) (size 15 to 20)
#    0.000    0.250    2.500    5.250   14.000    0.500 
#    0.000    0.000    0.000    0.000    0.000    0.000 
#    0.000    0.000    0.000    0.000    0.000    0.000 
#
# Total GULP energy -178754.844698 kJ/mol
# GULP energy per Si atom -5586.088897 kJ/mol
# Density = 2.116777 g / cm^3
# Si number density = 21.216058 Si / 1000 Ang^3
#
#
#
# Elastic Constant Matrix: (Units=GPa)
#
#
# Indices 1 2 3 4 5 6 
#
# 1 101.8211 26.8721 42.5695 0.0000 0.0000 0.0000
# 2 26.8721 161.3509 55.9448 0.0000 0.0000 0.0000
# 3 42.5695 55.9448 168.1121 0.0000 0.0000 0.0000
# 4 0.0000 0.0000 0.0000 36.5296 0.0000 0.0000
# 5 0.0000 0.0000 0.0000 0.0000 53.3671 0.0000
# 6 0.0000 0.0000 0.0000 0.0000 0.0000 33.0405
#
#
#
# Elastic Compliance Matrix: (Units=1/GPa)
#
#
# Indices 1 2 3 4 5 6 
#
# 1 0.011122 -0.000990 -0.002487 0.000000 0.000000 0.000000
# 2 -0.000990 0.007094 -0.002110 0.000000 0.000000 0.000000
# 3 -0.002487 -0.002110 0.007280 0.000000 0.000000 0.000000
# 4 0.000000 0.000000 0.000000 0.027375 0.000000 0.000000
# 5 0.000000 0.000000 0.000000 0.000000 0.018738 0.000000
# 6 0.000000 0.000000 0.000000 0.000000 0.000000 0.030266
#
#
# Mechanical properties :
#
#
# Convention : Reuss Voigt Hill
#
# Bulk Modulus (GPa) = 69.81987 75.78411 72.80199
# Shear Modulus (GPa) = 42.43612 44.98060 43.70836
#
# Velocity S-wave (km/s) = 4.47720 4.60947 4.54382
# Velocity P-wave (km/s) = 7.72706 8.00796 7.86876
#
# Compressibility (1/GPa) = 0.01432257
#
# Stress axis : x y z
#
# Youngs Moduli (GPa) = 89.91051 140.96022 137.35587
#
# Poissons Ratio (x) = 0.13956 0.34159
# Poissons Ratio (y) = 0.08902 0.28984
# Poissons Ratio (z) = 0.22360 0.29744
#
# Static dielectric constant tensor:
#      x y z
#    x 1.788230 0.000000 0.000000 
#    y 0.000000 1.567130 0.000000 
#    z 0.000000 0.000000 1.809340 
# 
# From -- ./inp_files/7748.got.cif
#   From: 2010.05.17/outbox.cif.g08.bks.cpg/sg68_4_cif.got.tgz:7748.got - 2010.06.03 18:57:09.
