data_PCOD9510424
_publ_section_title
;
Structure prediction by ZEFSAII (Michael W. Deem and Ramdas Pophale) SiO2 
 PCOD9510424
Probable space group: C C C A
;
_chemical_formula_sum "Si O2"
_cell_formula_units_Z 64
_cell_length_a 16.903464
_cell_length_b 4.933554
_cell_length_c 34.519467
_cell_angle_alpha 90.000000
_cell_angle_beta 90.000000
_cell_angle_gamma 90.000000
_cell_volume 2878.721693
_symmetry_space_group_name_H-M "C C C A"
_symmetry_group_IT_number 68
_space_group.IT_coordinate_system_code '2'
_symmetry_cell_setting 'orthorhombic'
loop_
_space_group_symop_operation_xyz
x,y,z
-x,1/2-y,z
x,1/2-y,1/2-z
-x,y,1/2-z
-x,-y,-z
x,1/2+y,-z
-x,1/2+y,1/2+z
x,-y,1/2+z
1/2+x,1/2+y,z
1/2-x,-y,z
1/2+x,-y,1/2-z
1/2-x,1/2+y,1/2-z
1/2-x,1/2-y,-z
1/2+x,y,-z
1/2-x,y,1/2+z
1/2+x,1/2-y,1/2+z
loop_
_atom_site_type_symbol
_atom_site_label
_atom_site_fract_x
_atom_site_fract_y
_atom_site_fract_z
Si Si1 0.500000 0.750000 0.129514
Si Si2 0.000000 0.250000 0.926093
Si Si3 0.750000 0.000000 0.223062
Si Si4 0.750000 0.500000 0.412403
Si Si5 0.156332 0.346408 0.972957
Si Si6 0.828132 0.797443 0.843393
O O1 0.478056 0.500169 0.101501
O O2 0.578044 0.640412 0.152832
O O3 0.929591 0.165478 0.954224
O O4 0.774922 0.750000 0.250000
O O5 0.682667 0.893515 0.193968
O O6 0.790383 0.726640 0.438690
O O7 0.810392 0.356814 0.383330
O O8 0.166641 0.641587 0.991016
O O9 0.750000 0.000000 0.840241
#
# Coordination Sequence:
#
# PCOD9510424 Si02
#       6
#     8   8   8   8  16  16
#     4  12  26  45  75 108 142 181 248 303 348 430
#     4  12  24  45  64  94 143 181 240 317 365 424
#     4  11  24  48  80 111 150 184 220 277 350 424
#     4  11  24  42  64  99 136 184 248 299 360 424
#     4  12  25  41  62  91 133 187 244 305 371 427
#     4  11  25  46  80 108 143 193 236 289 357 433
#
# _framework density 22.232088000000001
#
# number of rings (size 3 to 8) (size 9 to 14) (size 15 to 20)
#    0.000    0.500    3.750    4.500    7.000    0.000 
#    0.000    0.625    5.500    0.000    0.000    0.000 
#    0.000    0.000    0.000    0.000    0.000    0.000 
#
# Total GULP energy -178779.623428 kJ/mol
# GULP energy per Si atom -5586.863232 kJ/mol
# Density = 2.218149 g / cm^3
# Si number density = 22.232088 Si / 1000 Ang^3
#
#
#
# Elastic Constant Matrix: (Units=GPa)
#
#
# Indices 1 2 3 4 5 6 
#
# 1 152.1067 34.1958 58.0388 0.0000 0.0000 0.0000
# 2 34.1958 95.9039 23.0348 0.0000 0.0000 0.0000
# 3 58.0388 23.0348 122.7138 0.0000 0.0000 0.0000
# 4 0.0000 0.0000 0.0000 53.8637 0.0000 0.0000
# 5 0.0000 0.0000 0.0000 0.0000 82.5693 0.0000
# 6 0.0000 0.0000 0.0000 0.0000 0.0000 27.6386
#
#
#
# Elastic Compliance Matrix: (Units=1/GPa)
#
#
# Indices 1 2 3 4 5 6 
#
# 1 0.008423 -0.002143 -0.003581 0.000000 0.000000 0.000000
# 2 -0.002143 0.011465 -0.001138 0.000000 0.000000 0.000000
# 3 -0.003581 -0.001138 0.010057 0.000000 0.000000 0.000000
# 4 0.000000 0.000000 0.000000 0.018565 0.000000 0.000000
# 5 0.000000 0.000000 0.000000 0.000000 0.012111 0.000000
# 6 0.000000 0.000000 0.000000 0.000000 0.000000 0.036181
#
#
# Mechanical properties :
#
#
# Convention : Reuss Voigt Hill
#
# Bulk Modulus (GPa) = 61.65895 66.80704 64.23299
# Shear Modulus (GPa) = 43.12825 49.84464 46.48644
#
# Velocity S-wave (km/s) = 4.40922 4.74013 4.57766
# Velocity P-wave (km/s) = 7.32912 7.75071 7.54286
#
# Compressibility (1/GPa) = 0.01621825
#
# Stress axis : x y z
#
# Youngs Moduli (GPa) = 118.72794 87.22441 99.43749
#
# Poissons Ratio (x) = 0.18692 0.35612
# Poissons Ratio (y) = 0.25444 0.11321
# Poissons Ratio (z) = 0.42520 0.09930
#
# Static dielectric constant tensor:
#      x y z
#    x 1.923010 0.000000 0.000000 
#    y 0.000000 1.866530 0.000000 
#    z 0.000000 0.000000 1.772140 
# 
# From -- ./inp_files/52968.got.cif
#   From: 2010.05.17/outbox.cif.g08.bks.cpg/sg68_27_cif.got.tgz:52968.got - 2010.06.03 18:57:09.
