data_PCOD9510886
_publ_section_title
;
Structure prediction by ZEFSAII (Michael W. Deem and Ramdas Pophale) SiO2 
 PCOD9510886
Probable space group: C C C A
;
_chemical_formula_sum "Si O2"
_cell_formula_units_Z 60
_cell_length_a 11.146291
_cell_length_b 11.453279
_cell_length_c 18.903844
_cell_angle_alpha 90.000000
_cell_angle_beta 90.000000
_cell_angle_gamma 90.000000
_cell_volume 2413.294605
_symmetry_space_group_name_H-M "C C C A"
_symmetry_group_IT_number 68
_space_group.IT_coordinate_system_code '2'
_symmetry_cell_setting 'orthorhombic'
loop_
_space_group_symop_operation_xyz
x,y,z
-x,1/2-y,z
x,1/2-y,1/2-z
-x,y,1/2-z
-x,-y,-z
x,1/2+y,-z
-x,1/2+y,1/2+z
x,-y,1/2+z
1/2+x,1/2+y,z
1/2-x,-y,z
1/2+x,-y,1/2-z
1/2-x,1/2+y,1/2-z
1/2-x,1/2-y,-z
1/2+x,y,-z
1/2-x,y,1/2+z
1/2+x,1/2-y,1/2+z
loop_
_atom_site_type_symbol
_atom_site_label
_atom_site_fract_x
_atom_site_fract_y
_atom_site_fract_z
Si Si1 0.500000 0.750000 0.250000
Si Si2 0.250000 0.500000 0.762554
Si Si3 0.565753 0.404900 0.640376
Si Si4 0.066751 0.130557 0.842243
Si Si5 0.817946 0.873368 0.003992
O O1 0.537140 0.657987 0.312393
O O2 0.314560 0.400989 0.811813
O O3 0.156514 0.426541 0.714661
O O4 0.538762 0.539794 0.643284
O O5 0.586322 0.368687 0.560387
O O6 0.000000 0.250000 0.825220
O O7 0.132184 0.131371 0.917292
O O8 0.750000 0.000000 0.995077
O O9 0.750000 0.750000 0.000000
#
# Coordination Sequence:
#
# PCOD9510886 Si02
#       5
#     4   8  16  16  16
#     4  12  28  44  74 108 162 200 258 326 400 476
#     4  12  26  52  78 118 160 200 274 322 408 488
#     4  12  28  50  77 117 156 211 257 332 409 477
#     4  12  28  53  82 117 161 212 269 336 409 486
#     4  12  28  51  82 116 158 216 272 333 403 488
#
# _framework density 24.862276999999999
#
# number of rings (size 3 to 8) (size 9 to 14) (size 15 to 20)
#    0.000    0.000    5.333    2.400    9.333    2.133 
#    0.000    0.000    0.000    0.000    0.000    0.000 
#    0.000    0.000    0.000    0.000    0.000    0.000 
#
# Total GULP energy -167345.810900 kJ/mol
# GULP energy per Si atom -5578.193697 kJ/mol
# Density = 2.480569 g / cm^3
# Si number density = 24.862277 Si / 1000 Ang^3
#
#
#
# Elastic Constant Matrix: (Units=GPa)
#
#
# Indices 1 2 3 4 5 6 
#
# 1 49.6177 22.8130 5.3059 0.0000 0.0000 0.0000
# 2 22.8130 180.7299 14.1260 0.0000 0.0000 0.0000
# 3 5.3059 14.1260 129.9474 0.0000 0.0000 0.0000
# 4 0.0000 0.0000 0.0000 9.1392 0.0000 0.0000
# 5 0.0000 0.0000 0.0000 0.0000 54.3179 0.0000
# 6 0.0000 0.0000 0.0000 0.0000 0.0000 34.0252
#
#
#
# Elastic Compliance Matrix: (Units=1/GPa)
#
#
# Indices 1 2 3 4 5 6 
#
# 1 0.021440 -0.002660 -0.000586 0.000000 0.000000 0.000000
# 2 -0.002660 0.005911 -0.000534 0.000000 0.000000 0.000000
# 3 -0.000586 -0.000534 0.007777 0.000000 0.000000 0.000000
# 4 0.000000 0.000000 0.000000 0.109419 0.000000 0.000000
# 5 0.000000 0.000000 0.000000 0.000000 0.018410 0.000000
# 6 0.000000 0.000000 0.000000 0.000000 0.000000 0.029390
#
#
# Mechanical properties :
#
#
# Convention : Reuss Voigt Hill
#
# Bulk Modulus (GPa) = 36.27537 49.42053 42.84795
# Shear Modulus (GPa) = 23.91233 40.69981 32.30607
#
# Velocity S-wave (km/s) = 3.10464 4.05039 3.60863
# Velocity P-wave (km/s) = 5.24156 6.46491 5.88511
#
# Compressibility (1/GPa) = 0.02756691
#
# Stress axis : x y z
#
# Youngs Moduli (GPa) = 46.64172 169.18547 128.57782
#
# Poissons Ratio (x) = 0.45012 0.07537
# Poissons Ratio (y) = 0.12409 0.06865
# Poissons Ratio (z) = 0.02734 0.09033
#
# Static dielectric constant tensor:
#      x y z
#    x 1.893900 0.000000 0.000000 
#    y 0.000000 2.054200 0.000000 
#    z 0.000000 0.000000 2.198720 
# 
# From -- ./inp_files/37060.got.cif
#   From: 2010.05.17/outbox.cif.g08.bks.cpg/sg68_19_cif.got.tgz:37060.got - 2010.06.03 18:57:09.
