data_PCOD9510332
_publ_section_title
;
Structure prediction by ZEFSAII (Michael W. Deem and Ramdas Pophale) SiO2 
 PCOD9510332
Probable space group: C C C A
;
_chemical_formula_sum "Si O2"
_cell_formula_units_Z 72
_cell_length_a 9.196406
_cell_length_b 22.586473
_cell_length_c 14.095936
_cell_angle_alpha 90.000000
_cell_angle_beta 90.000000
_cell_angle_gamma 90.000000
_cell_volume 2927.928548
_symmetry_space_group_name_H-M "C C C A"
_symmetry_group_IT_number 68
_space_group.IT_coordinate_system_code '2'
_symmetry_cell_setting 'orthorhombic'
loop_
_space_group_symop_operation_xyz
x,y,z
-x,1/2-y,z
x,1/2-y,1/2-z
-x,y,1/2-z
-x,-y,-z
x,1/2+y,-z
-x,1/2+y,1/2+z
x,-y,1/2+z
1/2+x,1/2+y,z
1/2-x,-y,z
1/2+x,-y,1/2-z
1/2-x,1/2+y,1/2-z
1/2-x,1/2-y,-z
1/2+x,y,-z
1/2-x,y,1/2+z
1/2+x,1/2-y,1/2+z
loop_
_atom_site_type_symbol
_atom_site_label
_atom_site_fract_x
_atom_site_fract_y
_atom_site_fract_z
Si Si1 0.000000 0.917904 0.250000
Si Si2 0.055817 0.184282 0.496863
Si Si3 0.191108 0.371327 0.180730
Si Si4 0.300595 0.629914 0.388434
Si Si5 0.976826 0.977747 0.893800
O O1 0.859892 0.884167 0.206972
O O2 0.964075 0.964293 0.332112
O O3 0.155866 0.175370 0.402289
O O4 0.146315 0.155738 0.582135
O O5 0.000000 0.250000 0.514223
O O6 0.911715 0.149110 0.470088
O O7 0.144926 0.349123 0.285571
O O8 0.105423 0.432099 0.145911
O O9 0.330557 0.560528 0.386289
O O10 0.000000 0.000000 0.000000
#
# Coordination Sequence:
#
# PCOD9510332 Si02
#       5
#     8  16  16  16  16
#     4  12  24  44  68 111 167 208 266 328 398 488
#     4  11  25  49  77 105 145 203 265 341 418 475
#     4  11  26  45  71 111 155 207 271 333 402 494
#     4  11  25  46  71 109 151 194 271 332 398 491
#     4  11  23  43  69 105 157 220 261 312 399 483
#
# _framework density 24.590764
#
# number of rings (size 3 to 8) (size 9 to 14) (size 15 to 20)
#    0.000    0.889    2.222    4.667    9.333    3.556 
#    0.000    0.000    0.000    0.000    0.000    0.000 
#    0.000    0.000    0.000    0.000    0.000    0.000 
#
# Total GULP energy -201187.474702 kJ/mol
# GULP energy per Si atom -5588.540964 kJ/mol
# Density = 2.453479 g / cm^3
# Si number density = 24.590764 Si / 1000 Ang^3
#
#
#
# Elastic Constant Matrix: (Units=GPa)
#
#
# Indices 1 2 3 4 5 6 
#
# 1 180.7372 48.2298 52.6568 0.0000 0.0000 0.0000
# 2 48.2298 68.2772 26.0632 0.0000 0.0000 0.0000
# 3 52.6568 26.0632 167.9213 0.0000 0.0000 0.0000
# 4 0.0000 0.0000 0.0000 33.3654 0.0000 0.0000
# 5 0.0000 0.0000 0.0000 0.0000 43.5374 0.0000
# 6 0.0000 0.0000 0.0000 0.0000 0.0000 34.6291
#
#
#
# Elastic Compliance Matrix: (Units=1/GPa)
#
#
# Indices 1 2 3 4 5 6 
#
# 1 0.007182 -0.004479 -0.001557 0.000000 0.000000 0.000000
# 2 -0.004479 0.018362 -0.001445 0.000000 0.000000 0.000000
# 3 -0.001557 -0.001445 0.006668 0.000000 0.000000 0.000000
# 4 0.000000 0.000000 0.000000 0.029971 0.000000 0.000000
# 5 0.000000 0.000000 0.000000 0.000000 0.022969 0.000000
# 6 0.000000 0.000000 0.000000 0.000000 0.000000 0.028877
#
#
# Mechanical properties :
#
#
# Convention : Reuss Voigt Hill
#
# Bulk Modulus (GPa) = 57.97476 74.53726 66.25601
# Shear Modulus (GPa) = 37.10850 41.63878 39.37364
#
# Velocity S-wave (km/s) = 3.88885 4.11940 4.00579
# Velocity P-wave (km/s) = 6.61750 7.28030 6.95680
#
# Compressibility (1/GPa) = 0.01724889
#
# Stress axis : x y z
#
# Youngs Moduli (GPa) = 139.24440 54.46144 149.97603
#
# Poissons Ratio (x) = 0.24391 0.23349
# Poissons Ratio (y) = 0.62363 0.21679
# Poissons Ratio (z) = 0.21679 0.07872
#
# Static dielectric constant tensor:
#      x y z
#    x 2.083830 0.000000 0.000000 
#    y 0.000000 1.983280 0.000000 
#    z 0.000000 0.000000 2.019630 
# 
# From -- ./inp_files/19456.got.cif
#   From: 2010.05.17/outbox.cif.g08.bks.cpg/sg68_10_cif.got.tgz:19456.got - 2010.06.03 18:57:09.
