data_PCOD9510355
_publ_section_title
;
Structure prediction by ZEFSAII (Michael W. Deem and Ramdas Pophale) SiO2 
 PCOD9510355
Probable space group: C C C A
;
_chemical_formula_sum "Si O2"
_cell_formula_units_Z 64
_cell_length_a 12.902419
_cell_length_b 23.575231
_cell_length_c 8.457746
_cell_angle_alpha 90.000000
_cell_angle_beta 90.000000
_cell_angle_gamma 90.000000
_cell_volume 2572.656105
_symmetry_space_group_name_H-M "C C C A"
_symmetry_group_IT_number 68
_space_group.IT_coordinate_system_code '2'
_symmetry_cell_setting 'orthorhombic'
loop_
_space_group_symop_operation_xyz
x,y,z
-x,1/2-y,z
x,1/2-y,1/2-z
-x,y,1/2-z
-x,-y,-z
x,1/2+y,-z
-x,1/2+y,1/2+z
x,-y,1/2+z
1/2+x,1/2+y,z
1/2-x,-y,z
1/2+x,-y,1/2-z
1/2-x,1/2+y,1/2-z
1/2-x,1/2-y,-z
1/2+x,y,-z
1/2-x,y,1/2+z
1/2+x,1/2-y,1/2+z
loop_
_atom_site_type_symbol
_atom_site_label
_atom_site_fract_x
_atom_site_fract_y
_atom_site_fract_z
Si Si1 0.010523 0.869866 0.063030
Si Si2 0.669337 0.286274 0.893430
Si Si3 0.337230 0.549298 0.043708
Si Si4 0.683488 0.117937 0.839513
O O1 0.000000 0.863025 0.250000
O O2 0.050370 0.935295 0.030353
O O3 0.907306 0.864398 0.957243
O O4 0.083605 0.819589 0.994198
O O5 0.621150 0.250000 0.750000
O O6 0.722102 0.334319 0.782203
O O7 0.750000 0.250000 0.000000
O O8 0.250000 0.500000 0.039879
O O9 0.276333 0.596171 0.942525
O O10 0.351630 0.566679 0.225762
#
# Coordination Sequence:
#
# PCOD9510355 Si02
#       4
#    16  16  16  16
#     4  11  26  49  74 107 151 194 244 305 367 438
#     4  11  24  45  72 102 142 191 242 299 362 430
#     4  11  23  44  74 104 141 190 241 299 367 433
#     4  11  24  45  70 105 146 187 240 302 364 434
#
# _framework density 24.877013000000002
#
# number of rings (size 3 to 8) (size 9 to 14) (size 15 to 20)
#    0.000    1.000    0.000    8.250    0.000    7.000 
#    0.000   12.500    0.000    0.000    0.000    0.000 
#    0.000    0.000    0.000    0.000    0.000    0.000 
#
# Total GULP energy -178361.139483 kJ/mol
# GULP energy per Si atom -5573.785609 kJ/mol
# Density = 2.482039 g / cm^3
# Si number density = 24.877013 Si / 1000 Ang^3
#
#
#
# Elastic Constant Matrix: (Units=GPa)
#
#
# Indices 1 2 3 4 5 6 
#
# 1 31.5296 7.1502 28.3225 0.0000 0.0000 0.0000
# 2 7.1502 88.5710 44.0817 0.0000 0.0000 0.0000
# 3 28.3225 44.0817 201.4292 0.0000 0.0000 0.0000
# 4 0.0000 0.0000 0.0000 12.2944 0.0000 0.0000
# 5 0.0000 0.0000 0.0000 0.0000 51.7519 0.0000
# 6 0.0000 0.0000 0.0000 0.0000 0.0000 51.9002
#
#
#
# Elastic Compliance Matrix: (Units=1/GPa)
#
#
# Indices 1 2 3 4 5 6 
#
# 1 0.036316 -0.000438 -0.005010 0.000000 0.000000 0.000000
# 2 -0.000438 0.012676 -0.002712 0.000000 0.000000 0.000000
# 3 -0.005010 -0.002712 0.006263 0.000000 0.000000 0.000000
# 4 0.000000 0.000000 0.000000 0.081338 0.000000 0.000000
# 5 0.000000 0.000000 0.000000 0.000000 0.019323 0.000000
# 6 0.000000 0.000000 0.000000 0.000000 0.000000 0.019268
#
#
# Mechanical properties :
#
#
# Convention : Reuss Voigt Hill
#
# Bulk Modulus (GPa) = 25.68529 53.40431 39.54480
# Shear Modulus (GPa) = 24.45195 39.32099 31.88647
#
# Velocity S-wave (km/s) = 3.13855 3.98001 3.58406
# Velocity P-wave (km/s) = 4.84575 6.52951 5.74960
#
# Compressibility (1/GPa) = 0.03893279
#
# Stress axis : x y z
#
# Youngs Moduli (GPa) = 27.53579 78.89108 159.67719
#
# Poissons Ratio (x) = 0.03456 0.80006
# Poissons Ratio (y) = 0.01206 0.43311
# Poissons Ratio (z) = 0.13797 0.21399
#
# Static dielectric constant tensor:
#      x y z
#    x 2.180840 0.000000 0.000000 
#    y 0.000000 2.220050 0.000000 
#    z 0.000000 0.000000 1.927530 
# 
# From -- ./inp_files/4976.got.cif
#   From: 2010.05.17/outbox.cif.g08.bks.cpg/sg68_3_cif.got.tgz:4976.got - 2010.06.03 18:57:09.
