data_PCOD9510551
_publ_section_title
;
Structure prediction by ZEFSAII (Michael W. Deem and Ramdas Pophale) SiO2 
 PCOD9510551
Probable space group: C C C A
;
_chemical_formula_sum "Si O2"
_cell_formula_units_Z 80
_cell_length_a 18.789129
_cell_length_b 11.621322
_cell_length_c 17.519621
_cell_angle_alpha 90.000000
_cell_angle_beta 90.000000
_cell_angle_gamma 90.000000
_cell_volume 3825.488403
_symmetry_space_group_name_H-M "C C C A"
_symmetry_group_IT_number 68
_space_group.IT_coordinate_system_code '2'
_symmetry_cell_setting 'orthorhombic'
loop_
_space_group_symop_operation_xyz
x,y,z
-x,1/2-y,z
x,1/2-y,1/2-z
-x,y,1/2-z
-x,-y,-z
x,1/2+y,-z
-x,1/2+y,1/2+z
x,-y,1/2+z
1/2+x,1/2+y,z
1/2-x,-y,z
1/2+x,-y,1/2-z
1/2-x,1/2+y,1/2-z
1/2-x,1/2-y,-z
1/2+x,y,-z
1/2-x,y,1/2+z
1/2+x,1/2-y,1/2+z
loop_
_atom_site_type_symbol
_atom_site_label
_atom_site_fract_x
_atom_site_fract_y
_atom_site_fract_z
Si Si1 0.000000 0.250000 0.936879
Si Si2 0.358922 0.215562 0.526962
Si Si3 0.689562 0.250000 0.250000
Si Si4 0.427006 0.323584 0.821804
Si Si5 0.938556 0.093874 0.806934
Si Si6 0.752066 0.367437 0.400152
O O1 0.965058 0.148629 0.886301
O O2 0.935220 0.289218 0.988517
O O3 0.371493 0.161958 0.609642
O O4 0.306224 0.160992 0.465367
O O5 0.325207 0.336406 0.555379
O O6 0.636157 0.350450 0.219302
O O7 0.733490 0.295277 0.323574
O O8 0.500000 0.250000 0.841662
O O9 0.398601 0.250000 0.750000
O O10 0.440219 0.456204 0.803018
O O11 0.000000 0.131798 0.750000
O O12 0.750000 0.500000 0.378976
#
# Coordination Sequence:
#
# PCOD9510551 Si02
#       6
#     8  16   8  16  16  16
#     4  12  23  44  73 110 138 188 238 304 371 431
#     4  11  26  47  69 105 147 187 248 296 372 432
#     4  12  25  46  72 107 138 202 248 294 366 443
#     4  11  25  42  67 107 145 186 234 300 369 433
#     4  12  22  41  73 105 145 181 241 305 363 437
#     4  11  28  48  72 104 150 196 249 303 363 447
#
# _framework density 20.912362999999999
#
# number of rings (size 3 to 8) (size 9 to 14) (size 15 to 20)
#    0.000    0.600    7.000    0.000    7.000    2.400 
#    0.000    1.000    0.000    0.000    0.000    0.000 
#    0.000    0.000    0.000    0.000    0.000    0.000 
#
# Total GULP energy -222937.107487 kJ/mol
# GULP energy per Si atom -5573.427687 kJ/mol
# Density = 2.086477 g / cm^3
# Si number density = 20.912363 Si / 1000 Ang^3
#
#
#
# Elastic Constant Matrix: (Units=GPa)
#
#
# Indices 1 2 3 4 5 6 
#
# 1 48.0986 5.3819 20.9004 0.0000 0.0000 0.0000
# 2 5.3819 146.1249 37.0081 0.0000 0.0000 0.0000
# 3 20.9004 37.0081 143.2695 0.0000 0.0000 0.0000
# 4 0.0000 0.0000 0.0000 142.3060 0.0000 0.0000
# 5 0.0000 0.0000 0.0000 0.0000 23.7756 0.0000
# 6 0.0000 0.0000 0.0000 0.0000 0.0000 15.7415
#
#
#
# Elastic Compliance Matrix: (Units=1/GPa)
#
#
# Indices 1 2 3 4 5 6 
#
# 1 0.022198 0.000003 -0.003239 0.000000 0.000000 0.000000
# 2 0.000003 0.007323 -0.001892 0.000000 0.000000 0.000000
# 3 -0.003239 -0.001892 0.007941 0.000000 0.000000 0.000000
# 4 0.000000 0.000000 0.000000 0.007027 0.000000 0.000000
# 5 0.000000 0.000000 0.000000 0.000000 0.042060 0.000000
# 6 0.000000 0.000000 0.000000 0.000000 0.000000 0.063527
#
#
# Mechanical properties :
#
#
# Convention : Reuss Voigt Hill
#
# Bulk Modulus (GPa) = 36.75782 51.56376 44.16079
# Shear Modulus (GPa) = 29.51603 54.64478 42.08040
#
# Velocity S-wave (km/s) = 3.76096 5.11733 4.49065
# Velocity P-wave (km/s) = 6.03945 7.72183 6.93187
#
# Compressibility (1/GPa) = 0.02720510
#
# Stress axis : x y z
#
# Youngs Moduli (GPa) = 45.04965 136.56528 125.92787
#
# Poissons Ratio (x) = -0.00037 0.40787
# Poissons Ratio (y) = -0.00012 0.23824
# Poissons Ratio (z) = 0.14591 0.25837
#
# Static dielectric constant tensor:
#      x y z
#    x 1.838550 0.000000 0.000000 
#    y 0.000000 1.740030 0.000000 
#    z 0.000000 0.000000 1.654750 
# 
# From -- ./inp_files/32716.got.cif
#   From: 2010.05.17/outbox.cif.g08.bks.cpg/sg68_17_cif.got.tgz:32716.got - 2010.06.03 18:57:09.
