data_PCOD9510459
_publ_section_title
;
Structure prediction by ZEFSAII (Michael W. Deem and Ramdas Pophale) SiO2 
 PCOD9510459
Probable space group: C C C A
;
_chemical_formula_sum "Si O2"
_cell_formula_units_Z 88
_cell_length_a 26.112519
_cell_length_b 15.731196
_cell_length_c 10.189008
_cell_angle_alpha 90.000000
_cell_angle_beta 90.000000
_cell_angle_gamma 90.000000
_cell_volume 4185.452469
_symmetry_space_group_name_H-M "C C C A"
_symmetry_group_IT_number 68
_space_group.IT_coordinate_system_code '2'
_symmetry_cell_setting 'orthorhombic'
loop_
_space_group_symop_operation_xyz
x,y,z
-x,1/2-y,z
x,1/2-y,1/2-z
-x,y,1/2-z
-x,-y,-z
x,1/2+y,-z
-x,1/2+y,1/2+z
x,-y,1/2+z
1/2+x,1/2+y,z
1/2-x,-y,z
1/2+x,-y,1/2-z
1/2-x,1/2+y,1/2-z
1/2-x,1/2-y,-z
1/2+x,y,-z
1/2-x,y,1/2+z
1/2+x,1/2-y,1/2+z
loop_
_atom_site_type_symbol
_atom_site_label
_atom_site_fract_x
_atom_site_fract_y
_atom_site_fract_z
Si Si1 0.711725 0.919557 0.330158
Si Si2 0.555653 0.529814 0.550549
Si Si3 0.380804 0.490087 0.201876
Si Si4 0.729642 0.250000 0.250000
Si Si5 0.345596 0.167079 0.428990
Si Si6 0.942765 0.270123 0.593368
O O1 0.667023 0.951211 0.233930
O O2 0.738742 0.836355 0.270331
O O3 0.683530 0.888631 0.462830
O O4 0.750000 0.000000 0.350927
O O5 0.500000 0.500000 0.500000
O O6 0.595383 0.502571 0.440094
O O7 0.574920 0.495128 0.690596
O O8 0.561230 0.630498 0.567266
O O9 0.359893 0.393688 0.194131
O O10 0.693480 0.262872 0.375883
O O11 0.398075 0.213527 0.470975
O O12 0.940564 0.250000 0.750000
O O13 0.000000 0.250000 0.547112
#
# Coordination Sequence:
#
# PCOD9510459 Si02
#       6
#    16  16  16   8  16  16
#     4  12  29  46  74 107 149 201 251 317 377 444
#     4  12  26  46  76 108 146 193 245 310 380 449
#     4  12  25  47  74 106 148 190 249 307 376 447
#     4  12  26  46  71 106 145 194 254 310 382 442
#     4  12  24  47  73 105 148 191 254 306 375 450
#     4  11  24  43  75 106 144 191 246 302 374 457
#
# _framework density 21.025205
#
# number of rings (size 3 to 8) (size 9 to 14) (size 15 to 20)
#    0.000    0.182    6.364    2.182    7.636    0.000 
#    0.000    0.000    0.000    0.000    0.000    0.000 
#    0.000    0.000    0.000    0.000    0.000    0.000 
#
# Total GULP energy -245958.701429 kJ/mol
# GULP energy per Si atom -5589.970487 kJ/mol
# Density = 2.097735 g / cm^3
# Si number density = 21.025205 Si / 1000 Ang^3
#
#
#
# Elastic Constant Matrix: (Units=GPa)
#
#
# Indices 1 2 3 4 5 6 
#
# 1 124.7916 60.8749 4.4867 0.0000 0.0000 0.0000
# 2 60.8749 128.8631 7.3439 0.0000 0.0000 0.0000
# 3 4.4867 7.3439 38.7556 0.0000 0.0000 0.0000
# 4 0.0000 0.0000 0.0000 30.4320 0.0000 0.0000
# 5 0.0000 0.0000 0.0000 0.0000 20.4743 0.0000
# 6 0.0000 0.0000 0.0000 0.0000 0.0000 49.4669
#
#
#
# Elastic Compliance Matrix: (Units=1/GPa)
#
#
# Indices 1 2 3 4 5 6 
#
# 1 0.010416 -0.004905 -0.000276 0.000000 0.000000 0.000000
# 2 -0.004905 0.010154 -0.001356 0.000000 0.000000 0.000000
# 3 -0.000276 -0.001356 0.026092 0.000000 0.000000 0.000000
# 4 0.000000 0.000000 0.000000 0.032860 0.000000 0.000000
# 5 0.000000 0.000000 0.000000 0.000000 0.048842 0.000000
# 6 0.000000 0.000000 0.000000 0.000000 0.000000 0.020216
#
#
# Mechanical properties :
#
#
# Convention : Reuss Voigt Hill
#
# Bulk Modulus (GPa) = 29.77337 48.64680 39.21009
# Shear Modulus (GPa) = 28.92679 34.72163 31.82421
#
# Velocity S-wave (km/s) = 3.71322 4.06819 3.89475
# Velocity P-wave (km/s) = 5.70750 6.72714 6.23819
#
# Compressibility (1/GPa) = 0.03358706
#
# Stress axis : x y z
#
# Youngs Moduli (GPa) = 96.00731 98.47900 38.32629
#
# Poissons Ratio (x) = 0.48301 0.01059
# Poissons Ratio (y) = 0.47089 0.05199
# Poissons Ratio (z) = 0.02654 0.13358
#
# Static dielectric constant tensor:
#      x y z
#    x 1.804260 0.000000 0.000000 
#    y 0.000000 1.493480 0.000000 
#    z 0.000000 0.000000 1.741020 
# 
# From -- ./inp_files/16326.got.cif
#   From: 2010.05.17/outbox.cif.g08.bks.cpg/sg68_9_cif.got.tgz:16326.got - 2010.06.03 18:57:09.
