data_PCOD9510815
_publ_section_title
;
Structure prediction by ZEFSAII (Michael W. Deem and Ramdas Pophale) SiO2 
 PCOD9510815
Probable space group: C C C A
;
_chemical_formula_sum "Si O2"
_cell_formula_units_Z 60
_cell_length_a 5.325474
_cell_length_b 24.754757
_cell_length_c 20.223465
_cell_angle_alpha 90.000000
_cell_angle_beta 90.000000
_cell_angle_gamma 90.000000
_cell_volume 2666.075869
_symmetry_space_group_name_H-M "C C C A"
_symmetry_group_IT_number 68
_space_group.IT_coordinate_system_code '2'
_symmetry_cell_setting 'orthorhombic'
loop_
_space_group_symop_operation_xyz
x,y,z
-x,1/2-y,z
x,1/2-y,1/2-z
-x,y,1/2-z
-x,-y,-z
x,1/2+y,-z
-x,1/2+y,1/2+z
x,-y,1/2+z
1/2+x,1/2+y,z
1/2-x,-y,z
1/2+x,-y,1/2-z
1/2-x,1/2+y,1/2-z
1/2-x,1/2-y,-z
1/2+x,y,-z
1/2-x,y,1/2+z
1/2+x,1/2-y,1/2+z
loop_
_atom_site_type_symbol
_atom_site_label
_atom_site_fract_x
_atom_site_fract_y
_atom_site_fract_z
Si Si1 0.750000 0.500000 0.634105
Si Si2 0.500000 0.548760 0.750000
Si Si3 0.000000 0.750000 0.250000
Si Si4 0.500000 0.380200 0.750000
Si Si5 0.140226 0.303900 0.356714
Si Si6 0.274792 0.605216 0.957031
O O1 0.521699 0.512248 0.684493
O O2 0.769818 0.552989 0.589216
O O3 0.253111 0.585368 0.755347
O O4 0.833407 0.785261 0.299892
O O5 0.461587 0.343582 0.684978
O O6 0.254759 0.340067 0.414201
O O7 0.000000 0.250000 0.380408
O O8 0.548173 0.603655 0.990291
#
# Coordination Sequence:
#
# PCOD9510815 Si02
#       6
#     8   8   4   8  16  16
#     4  12  28  50  82 114 160 192 266 318 400 446
#     4  12  28  44  82 120 148 194 248 338 390 462
#     4  12  24  48  82 122 150 190 242 352 398 446
#     4  12  24  48  74 120 158 188 246 322 412 452
#     4  12  27  46  81 113 155 197 257 319 396 461
#     4  12  32  52  75 107 157 218 258 304 369 473
#
# _framework density 22.504985999999999
#
# number of rings (size 3 to 8) (size 9 to 14) (size 15 to 20)
#    0.000    0.000    5.333    2.400    7.467    3.200 
#    0.000    0.000    0.000    0.000    0.000    0.000 
#    0.000    0.000    0.000    0.000    0.000    0.000 
#
# Total GULP energy -167938.188358 kJ/mol
# GULP energy per Si atom -5597.939612 kJ/mol
# Density = 2.245376 g / cm^3
# Si number density = 22.504986 Si / 1000 Ang^3
#
#
#
# Elastic Constant Matrix: (Units=GPa)
#
#
# Indices 1 2 3 4 5 6 
#
# 1 83.3306 33.3028 1.0961 0.0000 0.0000 0.0000
# 2 33.3028 142.9300 41.5218 0.0000 0.0000 0.0000
# 3 1.0961 41.5218 81.9784 0.0000 0.0000 0.0000
# 4 0.0000 0.0000 0.0000 131.8676 0.0000 0.0000
# 5 0.0000 0.0000 0.0000 0.0000 30.7364 0.0000
# 6 0.0000 0.0000 0.0000 0.0000 0.0000 37.9128
#
#
#
# Elastic Compliance Matrix: (Units=1/GPa)
#
#
# Indices 1 2 3 4 5 6 
#
# 1 0.013419 -0.003605 0.001647 0.000000 0.000000 0.000000
# 2 -0.003605 0.009172 -0.004597 0.000000 0.000000 0.000000
# 3 0.001647 -0.004597 0.014505 0.000000 0.000000 0.000000
# 4 0.000000 0.000000 0.000000 0.007583 0.000000 0.000000
# 5 0.000000 0.000000 0.000000 0.000000 0.032535 0.000000
# 6 0.000000 0.000000 0.000000 0.000000 0.000000 0.026376
#
#
# Mechanical properties :
#
#
# Convention : Reuss Voigt Hill
#
# Bulk Modulus (GPa) = 41.69359 51.12005 46.40682
# Shear Modulus (GPa) = 40.09707 55.59125 47.84416
#
# Velocity S-wave (km/s) = 4.22559 4.97548 4.61579
# Velocity P-wave (km/s) = 6.50954 7.46803 7.00520
#
# Compressibility (1/GPa) = 0.02398450
#
# Stress axis : x y z
#
# Youngs Moduli (GPa) = 74.51846 109.02777 68.94238
#
# Poissons Ratio (x) = 0.39305 -0.11352
# Poissons Ratio (y) = 0.26865 0.31695
# Poissons Ratio (z) = -0.12270 0.50124
#
# Static dielectric constant tensor:
#      x y z
#    x 1.851960 0.000000 0.000000 
#    y 0.000000 1.920990 0.000000 
#    z 0.000000 0.000000 1.816740 
# 
# From -- ./inp_files/27034.got.cif
#   From: 2010.05.17/outbox.cif.g08.bks.cpg/sg68_14_cif.got.tgz:27034.got - 2010.06.03 18:57:09.
