data_PCOD9510359
_publ_section_title
;
Structure prediction by ZEFSAII (Michael W. Deem and Ramdas Pophale) SiO2 
 PCOD9510359
Probable space group: C C C A
;
_chemical_formula_sum "Si O2"
_cell_formula_units_Z 112
_cell_length_a 14.824391
_cell_length_b 23.718990
_cell_length_c 15.025807
_cell_angle_alpha 90.000000
_cell_angle_beta 90.000000
_cell_angle_gamma 90.000000
_cell_volume 5283.367975
_symmetry_space_group_name_H-M "C C C A"
_symmetry_group_IT_number 68
_space_group.IT_coordinate_system_code '2'
_symmetry_cell_setting 'orthorhombic'
loop_
_space_group_symop_operation_xyz
x,y,z
-x,1/2-y,z
x,1/2-y,1/2-z
-x,y,1/2-z
-x,-y,-z
x,1/2+y,-z
-x,1/2+y,1/2+z
x,-y,1/2+z
1/2+x,1/2+y,z
1/2-x,-y,z
1/2+x,-y,1/2-z
1/2-x,1/2+y,1/2-z
1/2-x,1/2-y,-z
1/2+x,y,-z
1/2-x,y,1/2+z
1/2+x,1/2-y,1/2+z
loop_
_atom_site_type_symbol
_atom_site_label
_atom_site_fract_x
_atom_site_fract_y
_atom_site_fract_z
Si Si1 0.655784 0.147845 0.926172
Si Si2 0.096477 0.765375 0.986513
Si Si3 0.942384 0.819968 0.336285
Si Si4 0.795049 0.870593 0.575347
Si Si5 0.980472 0.417851 0.957621
Si Si6 0.850749 0.516697 0.963457
Si Si7 0.752150 0.818459 0.256704
O O1 0.656604 0.212338 0.962218
O O2 0.675808 0.155053 0.821766
O O3 0.735807 0.121875 0.986176
O O4 0.566509 0.113668 0.957101
O O5 0.130084 0.824839 0.951208
O O6 0.000000 0.750000 0.946186
O O7 0.083777 0.771939 0.092109
O O8 0.844682 0.837268 0.302048
O O9 0.000000 0.805964 0.250000
O O10 0.995269 0.868363 0.389674
O O11 0.830984 0.931721 0.603032
O O12 0.745987 0.842680 0.657928
O O13 0.903399 0.462063 0.927353
O O14 0.072628 0.453330 0.974399
O O15 0.750000 0.500000 0.997651
O O16 0.744768 0.750000 0.250000
#
# Coordination Sequence:
#
# PCOD9510359 Si02
#       7
#    16  16  16  16  16  16  16
#     4  12  22  44  69 104 145 185 233 295 362 443
#     4  12  23  40  67  99 141 184 221 287 365 428
#     4  12  26  40  66 106 142 178 236 294 357 426
#     4  12  23  45  70 101 141 187 236 293 365 431
#     4  11  24  45  72 103 135 189 244 298 365 431
#     4  11  23  44  77  97 132 195 245 296 366 433
#     4  12  26  40  72 110 141 187 237 292 367 451
#
# _framework density 21.198599999999999
#
# number of rings (size 3 to 8) (size 9 to 14) (size 15 to 20)
#    0.000    0.286    7.143    2.143    2.000    0.000 
#    0.000    6.429    3.143    0.000    0.000    0.000 
#    0.000    0.000    0.000    0.000    0.000    0.000 
#
# Total GULP energy -312345.229811 kJ/mol
# GULP energy per Si atom -5577.593389 kJ/mol
# Density = 2.115035 g / cm^3
# Si number density = 21.198600 Si / 1000 Ang^3
#
#
#
# Elastic Constant Matrix: (Units=GPa)
#
#
# Indices 1 2 3 4 5 6 
#
# 1 112.3654 22.2384 10.5121 0.0000 0.0000 0.0000
# 2 22.2384 100.2381 -0.7105 0.0000 0.0000 0.0000
# 3 10.5121 -0.7105 54.1374 0.0000 0.0000 0.0000
# 4 0.0000 0.0000 0.0000 11.6563 0.0000 0.0000
# 5 0.0000 0.0000 0.0000 0.0000 35.5106 0.0000
# 6 0.0000 0.0000 0.0000 0.0000 0.0000 28.1840
#
#
#
# Elastic Compliance Matrix: (Units=1/GPa)
#
#
# Indices 1 2 3 4 5 6 
#
# 1 0.009494 -0.002120 -0.001871 0.000000 0.000000 0.000000
# 2 -0.002120 0.010450 0.000549 0.000000 0.000000 0.000000
# 3 -0.001871 0.000549 0.018842 0.000000 0.000000 0.000000
# 4 0.000000 0.000000 0.000000 0.085791 0.000000 0.000000
# 5 0.000000 0.000000 0.000000 0.000000 0.028161 0.000000
# 6 0.000000 0.000000 0.000000 0.000000 0.000000 0.035481
#
#
# Mechanical properties :
#
#
# Convention : Reuss Voigt Hill
#
# Bulk Modulus (GPa) = 31.34581 36.75786 34.05183
# Shear Modulus (GPa) = 24.30284 30.71691 27.50988
#
# Velocity S-wave (km/s) = 3.38958 3.81071 3.60630
# Velocity P-wave (km/s) = 5.48979 6.06131 5.78261
#
# Compressibility (1/GPa) = 0.03190219
#
# Stress axis : x y z
#
# Youngs Moduli (GPa) = 105.32865 95.69033 53.07267
#
# Poissons Ratio (x) = 0.20282 0.09932
# Poissons Ratio (y) = 0.22325 -0.02912
# Poissons Ratio (z) = 0.19710 -0.05251
#
# Static dielectric constant tensor:
#      x y z
#    x 1.895420 0.000000 0.000000 
#    y 0.000000 1.893640 0.000000 
#    z 0.000000 0.000000 1.748410 
# 
# From -- ./inp_files/22599.got.cif
#   From: 2010.05.17/outbox.cif.g08.bks.cpg/sg68_12_cif.got.tgz:22599.got - 2010.06.03 18:57:09.
