data_PCOD9510497
_publ_section_title
;
Structure prediction by ZEFSAII (Michael W. Deem and Ramdas Pophale) SiO2 
 PCOD9510497
Probable space group: C C C A
;
_chemical_formula_sum "Si O2"
_cell_formula_units_Z 112
_cell_length_a 23.997001
_cell_length_b 13.903391
_cell_length_c 14.147469
_cell_angle_alpha 90.000000
_cell_angle_beta 90.000000
_cell_angle_gamma 90.000000
_cell_volume 4720.157139
_symmetry_space_group_name_H-M "C C C A"
_symmetry_group_IT_number 68
_space_group.IT_coordinate_system_code '2'
_symmetry_cell_setting 'orthorhombic'
loop_
_space_group_symop_operation_xyz
x,y,z
-x,1/2-y,z
x,1/2-y,1/2-z
-x,y,1/2-z
-x,-y,-z
x,1/2+y,-z
-x,1/2+y,1/2+z
x,-y,1/2+z
1/2+x,1/2+y,z
1/2-x,-y,z
1/2+x,-y,1/2-z
1/2-x,1/2+y,1/2-z
1/2-x,1/2-y,-z
1/2+x,y,-z
1/2-x,y,1/2+z
1/2+x,1/2-y,1/2+z
loop_
_atom_site_type_symbol
_atom_site_label
_atom_site_fract_x
_atom_site_fract_y
_atom_site_fract_z
Si Si1 0.082930 0.528012 0.827958
Si Si2 0.686142 0.652122 0.228346
Si Si3 0.595508 0.554838 0.856102
Si Si4 0.378669 0.608700 0.991621
Si Si5 0.441762 0.194538 0.522264
Si Si6 0.782819 0.592957 0.340840
Si Si7 0.750695 0.141665 0.964849
O O1 0.140627 0.569043 0.782594
O O2 0.059067 0.481841 0.731633
O O3 0.089547 0.442547 0.904595
O O4 0.061439 0.619982 0.889025
O O5 0.652576 0.750000 0.250000
O O6 0.734691 0.664757 0.307976
O O7 0.720389 0.635873 0.133253
O O8 0.567219 0.629032 0.928866
O O9 0.652890 0.604423 0.816351
O O10 0.612345 0.461563 0.919017
O O11 0.397025 0.717628 0.017501
O O12 0.314248 0.609840 0.962280
O O13 0.500000 0.250000 0.522781
O O14 0.750000 0.500000 0.302261
O O15 0.783083 0.587313 0.453811
O O16 0.750000 0.250000 0.000000
#
# Coordination Sequence:
#
# PCOD9510497 Si02
#       7
#    16  16  16  16  16  16  16
#     4  11  25  44  75 106 141 196 242 306 378 445
#     4  12  25  38  63 102 151 190 240 294 352 449
#     4  11  24  45  73 108 148 194 251 303 376 456
#     4  11  24  45  70  99 147 187 247 310 368 447
#     4  11  28  52  77 105 143 190 256 328 379 435
#     4  12  22  38  62 101 146 193 236 287 358 447
#     4  12  22  36  59  96 138 196 233 277 363 435
#
# _framework density 23.728024000000001
#
# number of rings (size 3 to 8) (size 9 to 14) (size 15 to 20)
#    0.000    0.571    4.286    4.286    2.000    2.857 
#    0.000    4.286    0.000    0.000    0.000    0.000 
#    0.000    0.000    0.000    0.000    0.000    0.000 
#
# Total GULP energy -312561.097237 kJ/mol
# GULP energy per Si atom -5581.448165 kJ/mol
# Density = 2.367402 g / cm^3
# Si number density = 23.728024 Si / 1000 Ang^3
#
#
#
# Elastic Constant Matrix: (Units=GPa)
#
#
# Indices 1 2 3 4 5 6 
#
# 1 87.2804 14.4845 24.0747 0.0000 0.0000 0.0000
# 2 14.4845 119.0787 29.8372 0.0000 0.0000 0.0000
# 3 24.0747 29.8372 115.4217 0.0000 0.0000 0.0000
# 4 0.0000 0.0000 0.0000 34.9551 0.0000 0.0000
# 5 0.0000 0.0000 0.0000 0.0000 -4.5868 0.0000
# 6 0.0000 0.0000 0.0000 0.0000 0.0000 22.4442
#
#
#
# Elastic Compliance Matrix: (Units=1/GPa)
#
#
# Indices 1 2 3 4 5 6 
#
# 1 0.012248 -0.000909 -0.002320 0.000000 0.000000 0.000000
# 2 -0.000909 0.009047 -0.002149 0.000000 0.000000 0.000000
# 3 -0.002320 -0.002149 0.009703 0.000000 0.000000 0.000000
# 4 0.000000 0.000000 0.000000 0.028608 0.000000 0.000000
# 5 0.000000 0.000000 0.000000 0.000000 -0.218018 0.000000
# 6 0.000000 0.000000 0.000000 0.000000 0.000000 0.044555
#
#
# Mechanical properties :
#
#
# Convention : Reuss Voigt Hill
#
# Bulk Modulus (GPa) = 49.39960 50.95263 50.17612
# Shear Modulus (GPa) = -51.89225 27.45478 -12.21873
#
# Velocity S-wave (km/s) = -4.68157 3.40525 -2.27171
# Velocity P-wave (km/s) = 2.89110 6.08122 3.78304
#
# Compressibility (1/GPa) = 0.02024308
#
# Stress axis : x y z
#
# Youngs Moduli (GPa) = 81.64609 110.53599 103.05746
#
# Poissons Ratio (x) = 0.10043 0.23908
# Poissons Ratio (y) = 0.07418 0.22149
# Poissons Ratio (z) = 0.18940 0.23756
#
# Static dielectric constant tensor:
#      x y z
#    x 1.974920 0.000000 0.000000 
#    y 0.000000 3.538120 0.000000 
#    z 0.000000 0.000000 1.919650 
# 
# From -- ./inp_files/26049.got.cif
#   From: 2010.05.17/outbox.cif.g08.bks.cpg/sg68_14_cif.got.tgz:26049.got - 2010.06.03 18:57:09.
