data_PCOD9510396
_publ_section_title
;
Structure prediction by ZEFSAII (Michael W. Deem and Ramdas Pophale) SiO2 
 PCOD9510396
Probable space group: C C C A
;
_chemical_formula_sum "Si O2"
_cell_formula_units_Z 96
_cell_length_a 20.491663
_cell_length_b 15.007960
_cell_length_c 14.221454
_cell_angle_alpha 90.000000
_cell_angle_beta 90.000000
_cell_angle_gamma 90.000000
_cell_volume 4373.638354
_symmetry_space_group_name_H-M "C C C A"
_symmetry_group_IT_number 68
_space_group.IT_coordinate_system_code '2'
_symmetry_cell_setting 'orthorhombic'
loop_
_space_group_symop_operation_xyz
x,y,z
-x,1/2-y,z
x,1/2-y,1/2-z
-x,y,1/2-z
-x,-y,-z
x,1/2+y,-z
-x,1/2+y,1/2+z
x,-y,1/2+z
1/2+x,1/2+y,z
1/2-x,-y,z
1/2+x,-y,1/2-z
1/2-x,1/2+y,1/2-z
1/2-x,1/2-y,-z
1/2+x,y,-z
1/2-x,y,1/2+z
1/2+x,1/2-y,1/2+z
loop_
_atom_site_type_symbol
_atom_site_label
_atom_site_fract_x
_atom_site_fract_y
_atom_site_fract_z
Si Si1 0.327550 0.520536 0.755910
Si Si2 0.989705 0.355386 0.500215
Si Si3 0.096378 0.313985 0.838252
Si Si4 0.822557 0.728057 0.976298
Si Si5 0.376699 0.405127 0.907919
Si Si6 0.139678 0.539897 0.558763
O O1 0.250000 0.500000 0.765686
O O2 0.353440 0.610682 0.803414
O O3 0.370533 0.442527 0.803960
O O4 0.348797 0.521126 0.647899
O O5 0.969054 0.353259 0.611076
O O6 0.931170 0.412791 0.454109
O O7 0.000000 0.250000 0.474503
O O8 0.054736 0.401249 0.462663
O O9 0.083818 0.250000 0.750000
O O10 0.132479 0.270875 0.929311
O O11 0.849210 0.806144 0.911162
O O12 0.819294 0.629966 0.932882
O O13 0.750000 0.750000 0.000000
O O14 0.340116 0.480701 0.969384
#
# Coordination Sequence:
#
# PCOD9510396 Si02
#       6
#    16  16  16  16  16  16
#     4  12  28  45  71 110 145 188 249 295 364 450
#     4  11  23  50  71 102 144 182 246 296 370 439
#     4  11  24  47  71 108 138 189 246 304 362 429
#     4  11  24  44  72 101 143 196 235 299 370 430
#     4  12  24  48  75  99 148 192 237 308 361 439
#     4  11  26  45  70 106 142 195 236 302 367 426
#
# _framework density 21.949687999999998
#
# number of rings (size 3 to 8) (size 9 to 14) (size 15 to 20)
#    0.000    0.667    6.667    2.500    4.667    1.667 
#    0.000    0.833    0.000    0.000    0.000    0.000 
#    0.000    0.000    0.000    0.000    0.000    0.000 
#
# Total GULP energy -267816.061547 kJ/mol
# GULP energy per Si atom -5579.501282 kJ/mol
# Density = 2.189973 g / cm^3
# Si number density = 21.949688 Si / 1000 Ang^3
#
#
#
# Elastic Constant Matrix: (Units=GPa)
#
#
# Indices 1 2 3 4 5 6 
#
# 1 62.6126 -10.3516 -5.9812 0.0000 0.0000 0.0000
# 2 -10.3516 60.9051 -19.5027 0.0000 0.0000 0.0000
# 3 -5.9812 -19.5027 61.4665 0.0000 0.0000 0.0000
# 4 0.0000 0.0000 0.0000 49.5121 0.0000 0.0000
# 5 0.0000 0.0000 0.0000 0.0000 20.7853 0.0000
# 6 0.0000 0.0000 0.0000 0.0000 0.0000 1.2699
#
#
#
# Elastic Compliance Matrix: (Units=1/GPa)
#
#
# Indices 1 2 3 4 5 6 
#
# 1 0.016867 0.003776 0.002839 0.000000 0.000000 0.000000
# 2 0.003776 0.019121 0.006434 0.000000 0.000000 0.000000
# 3 0.002839 0.006434 0.018587 0.000000 0.000000 0.000000
# 4 0.000000 0.000000 0.000000 0.020197 0.000000 0.000000
# 5 0.000000 0.000000 0.000000 0.000000 0.048111 0.000000
# 6 0.000000 0.000000 0.000000 0.000000 0.000000 0.787457
#
#
# Mechanical properties :
#
#
# Convention : Reuss Voigt Hill
#
# Bulk Modulus (GPa) = 12.39559 12.59037 12.49298
# Shear Modulus (GPa) = 5.48768 29.03477 17.26123
#
# Velocity S-wave (km/s) = 1.58289 3.64096 2.80732
# Velocity P-wave (km/s) = 3.00004 4.83983 4.02642
#
# Compressibility (1/GPa) = 0.08067386
#
# Stress axis : x y z
#
# Youngs Moduli (GPa) = 59.28837 52.29822 53.80144
#
# Poissons Ratio (x) = -0.19747 -0.15276
# Poissons Ratio (y) = -0.22387 -0.34618
# Poissons Ratio (z) = -0.16834 -0.33651
#
# Static dielectric constant tensor:
#      x y z
#    x 1.863280 0.000000 0.000000 
#    y 0.000000 1.794920 0.000000 
#    z 0.000000 0.000000 1.739020 
# 
# From -- ./inp_files/24439.got.cif
#   From: 2010.05.17/outbox.cif.g08.bks.cpg/sg68_13_cif.got.tgz:24439.got - 2010.06.03 18:57:09.
