data_PCOD9510337
_publ_section_title
;
Structure prediction by ZEFSAII (Michael W. Deem and Ramdas Pophale) SiO2 
 PCOD9510337
Probable space group: C C C A
;
_chemical_formula_sum "Si O2"
_cell_formula_units_Z 64
_cell_length_a 12.575809
_cell_length_b 12.763180
_cell_length_c 18.886550
_cell_angle_alpha 90.000000
_cell_angle_beta 90.000000
_cell_angle_gamma 90.000000
_cell_volume 3031.429410
_symmetry_space_group_name_H-M "C C C A"
_symmetry_group_IT_number 68
_space_group.IT_coordinate_system_code '2'
_symmetry_cell_setting 'orthorhombic'
loop_
_space_group_symop_operation_xyz
x,y,z
-x,1/2-y,z
x,1/2-y,1/2-z
-x,y,1/2-z
-x,-y,-z
x,1/2+y,-z
-x,1/2+y,1/2+z
x,-y,1/2+z
1/2+x,1/2+y,z
1/2-x,-y,z
1/2+x,-y,1/2-z
1/2-x,1/2+y,1/2-z
1/2-x,1/2-y,-z
1/2+x,y,-z
1/2-x,y,1/2+z
1/2+x,1/2-y,1/2+z
loop_
_atom_site_type_symbol
_atom_site_label
_atom_site_fract_x
_atom_site_fract_y
_atom_site_fract_z
Si Si1 0.660851 0.637518 0.223115
Si Si2 0.868149 0.954117 0.927866
Si Si3 0.885646 0.085927 0.721689
Si Si4 0.953039 0.865961 0.072436
O O1 0.626104 0.750000 0.250000
O O2 0.628139 0.615113 0.142894
O O3 0.789082 0.629429 0.231596
O O4 0.620054 0.539972 0.269951
O O5 0.750000 0.000000 0.933394
O O6 0.896453 0.890678 0.998408
O O7 0.952469 0.048668 0.919810
O O8 0.876984 0.118496 0.640166
O O9 0.000000 0.121503 0.750000
O O10 0.000000 0.750000 0.073016
#
# Coordination Sequence:
#
# PCOD9510337 Si02
#       4
#    16  16  16  16
#     4  11  25  42  69 100 134 182 223 282 346 391
#     4  11  24  49  65 102 143 171 232 288 330 419
#     4  11  23  44  65 102 134 175 232 279 327 416
#     4  11  27  44  71  99 136 186 222 282 350 401
#
# _framework density 21.112151999999998
#
# number of rings (size 3 to 8) (size 9 to 14) (size 15 to 20)
#    0.000    1.000    5.000    0.000   10.500    5.500 
#    0.000    0.000    0.000    0.000    0.000    0.000 
#    0.000    0.000    0.000    0.000    0.000    0.000 
#
# Total GULP energy -179154.456608 kJ/mol
# GULP energy per Si atom -5598.576769 kJ/mol
# Density = 2.106410 g / cm^3
# Si number density = 21.112152 Si / 1000 Ang^3
#
#
#
# Elastic Constant Matrix: (Units=GPa)
#
#
# Indices 1 2 3 4 5 6 
#
# 1 79.6270 8.6001 34.5060 0.0000 0.0000 0.0000
# 2 8.6001 134.2855 87.3378 0.0000 0.0000 0.0000
# 3 34.5060 87.3378 205.8205 0.0000 0.0000 0.0000
# 4 0.0000 0.0000 0.0000 22.2457 0.0000 0.0000
# 5 0.0000 0.0000 0.0000 0.0000 36.2377 0.0000
# 6 0.0000 0.0000 0.0000 0.0000 0.0000 1.4790
#
#
#
# Elastic Compliance Matrix: (Units=1/GPa)
#
#
# Indices 1 2 3 4 5 6 
#
# 1 0.013612 0.000846 -0.002641 0.000000 0.000000 0.000000
# 2 0.000846 0.010338 -0.004529 0.000000 0.000000 0.000000
# 3 -0.002641 -0.004529 0.007223 0.000000 0.000000 0.000000
# 4 0.000000 0.000000 0.000000 0.044953 0.000000 0.000000
# 5 0.000000 0.000000 0.000000 0.000000 0.027596 0.000000
# 6 0.000000 0.000000 0.000000 0.000000 0.000000 0.676116
#
#
# Mechanical properties :
#
#
# Convention : Reuss Voigt Hill
#
# Bulk Modulus (GPa) = 53.98019 75.62454 64.80237
# Shear Modulus (GPa) = 6.26049 31.27841 18.76945
#
# Velocity S-wave (km/s) = 1.72389 3.85325 2.98490
# Velocity P-wave (km/s) = 5.43932 7.46290 6.52997
#
# Compressibility (1/GPa) = 0.01852531
#
# Stress axis : x y z
#
# Youngs Moduli (GPa) = 73.46656 96.73022 138.44575
#
# Poissons Ratio (x) = -0.08182 0.36563
# Poissons Ratio (y) = -0.06215 0.62697
# Poissons Ratio (z) = 0.19402 0.43806
#
# Static dielectric constant tensor:
#      x y z
#    x 1.788610 0.000000 0.000000 
#    y 0.000000 1.744950 0.000000 
#    z 0.000000 0.000000 1.735870 
# 
# From -- ./inp_files/30467.got.cif
#   From: 2010.05.17/outbox.cif.g08.bks.cpg/sg68_16_cif.got.tgz:30467.got - 2010.06.03 18:57:09.
