data_PCOD9510511
_publ_section_title
;
Structure prediction by ZEFSAII (Michael W. Deem and Ramdas Pophale) SiO2 
 PCOD9510511
Probable space group: C C C A
;
_chemical_formula_sum "Si O2"
_cell_formula_units_Z 88
_cell_length_a 12.531079
_cell_length_b 11.909483
_cell_length_c 28.403442
_cell_angle_alpha 90.000000
_cell_angle_beta 90.000000
_cell_angle_gamma 90.000000
_cell_volume 4238.891973
_symmetry_space_group_name_H-M "C C C A"
_symmetry_group_IT_number 68
_space_group.IT_coordinate_system_code '2'
_symmetry_cell_setting 'orthorhombic'
loop_
_space_group_symop_operation_xyz
x,y,z
-x,1/2-y,z
x,1/2-y,1/2-z
-x,y,1/2-z
-x,-y,-z
x,1/2+y,-z
-x,1/2+y,1/2+z
x,-y,1/2+z
1/2+x,1/2+y,z
1/2-x,-y,z
1/2+x,-y,1/2-z
1/2-x,1/2+y,1/2-z
1/2-x,1/2-y,-z
1/2+x,y,-z
1/2-x,y,1/2+z
1/2+x,1/2-y,1/2+z
loop_
_atom_site_type_symbol
_atom_site_label
_atom_site_fract_x
_atom_site_fract_y
_atom_site_fract_z
Si Si1 0.635505 0.445367 0.041679
Si Si2 0.798486 0.383886 0.360766
Si Si3 0.750000 0.500000 0.677003
Si Si4 0.116890 0.197660 0.628015
Si Si5 0.883866 0.117522 0.244149
Si Si6 0.046666 0.870278 0.945736
O O1 0.750000 0.500000 0.050823
O O2 0.616100 0.335065 0.073032
O O3 0.546489 0.536963 0.056081
O O4 0.623950 0.413563 0.987027
O O5 0.750000 0.500000 0.378926
O O6 0.706831 0.290176 0.361487
O O7 0.838574 0.404085 0.307669
O O8 0.894119 0.354372 0.396081
O O9 0.835867 0.419384 0.650342
O O10 0.813785 0.578965 0.712438
O O11 0.000000 0.250000 0.641365
O O12 0.892324 0.250000 0.250000
O O13 0.000000 0.063710 0.250000
O O14 0.000000 0.750000 0.959857
#
# Coordination Sequence:
#
# PCOD9510511 Si02
#       6
#    16  16   8  16  16  16
#     4  11  24  46  70 105 144 187 235 298 355 433
#     4  12  26  46  69 104 140 188 240 299 359 436
#     4  12  26  48  72 108 142 190 240 308 366 430
#     4  12  27  45  76 107 146 187 241 299 367 436
#     4  11  26  45  71  99 141 184 237 295 359 428
#     4  11  26  42  71 102 142 189 236 288 364 430
#
# _framework density 20.760141999999998
#
# number of rings (size 3 to 8) (size 9 to 14) (size 15 to 20)
#    0.000    0.545    3.636    3.273    7.636    5.818 
#    0.000    0.909    0.000    0.000    0.000    0.000 
#    0.000    0.000    0.000    0.000    0.000    0.000 
#
# Total GULP energy -245798.951041 kJ/mol
# GULP energy per Si atom -5586.339796 kJ/mol
# Density = 2.071289 g / cm^3
# Si number density = 20.760142 Si / 1000 Ang^3
#
#
#
# Elastic Constant Matrix: (Units=GPa)
#
#
# Indices 1 2 3 4 5 6 
#
# 1 116.6527 34.5783 56.8371 0.0000 0.0000 0.0000
# 2 34.5783 86.4535 20.4755 0.0000 0.0000 0.0000
# 3 56.8371 20.4755 104.5679 0.0000 0.0000 0.0000
# 4 0.0000 0.0000 0.0000 -3.6596 0.0000 0.0000
# 5 0.0000 0.0000 0.0000 0.0000 -10.0683 0.0000
# 6 0.0000 0.0000 0.0000 0.0000 0.0000 25.0683
#
#
#
# Elastic Compliance Matrix: (Units=1/GPa)
#
#
# Indices 1 2 3 4 5 6 
#
# 1 0.012644 -0.003596 -0.006168 0.000000 0.000000 0.000000
# 2 -0.003596 0.013152 -0.000621 0.000000 0.000000 0.000000
# 3 -0.006168 -0.000621 0.013037 0.000000 0.000000 0.000000
# 4 0.000000 0.000000 0.000000 -0.273252 0.000000 0.000000
# 5 0.000000 0.000000 0.000000 0.000000 -0.099321 0.000000
# 6 0.000000 0.000000 0.000000 0.000000 0.000000 0.039891
#
#
# Mechanical properties :
#
#
# Convention : Reuss Voigt Hill
#
# Bulk Modulus (GPa) = 55.36115 59.05068 57.20592
# Shear Modulus (GPa) = -18.72257 15.32028 -1.70114
#
# Velocity S-wave (km/s) = -3.00634 2.71950 -0.90620
# Velocity P-wave (km/s) = 3.83068 6.19410 5.14981
#
# Compressibility (1/GPa) = 0.01806321
#
# Stress axis : x y z
#
# Youngs Moduli (GPa) = 79.08988 76.03258 76.70225
#
# Poissons Ratio (x) = 0.27343 0.47312
# Poissons Ratio (y) = 0.28442 0.04761
# Poissons Ratio (z) = 0.48785 0.04719
#
# Static dielectric constant tensor:
#      x y z
#    x 1.795700 0.000000 0.000000 
#    y 0.000000 1.758920 0.000000 
#    z 0.000000 0.000000 1.728840 
# 
# From -- ./inp_files/54594.got.cif
#   From: 2010.05.17/outbox.cif.g08.bks.cpg/sg68_28_cif.got.tgz:54594.got - 2010.06.03 18:57:09.
