data_PCOD9510821
_publ_section_title
;
Structure prediction by ZEFSAII (Michael W. Deem and Ramdas Pophale) SiO2 
 PCOD9510821
Probable space group: C C C A
;
_chemical_formula_sum "Si O2"
_cell_formula_units_Z 44
_cell_length_a 18.032155
_cell_length_b 7.725573
_cell_length_c 11.997281
_cell_angle_alpha 90.000000
_cell_angle_beta 90.000000
_cell_angle_gamma 90.000000
_cell_volume 1671.325977
_symmetry_space_group_name_H-M "C C C A"
_symmetry_group_IT_number 68
_space_group.IT_coordinate_system_code '2'
_symmetry_cell_setting 'orthorhombic'
loop_
_space_group_symop_operation_xyz
x,y,z
-x,1/2-y,z
x,1/2-y,1/2-z
-x,y,1/2-z
-x,-y,-z
x,1/2+y,-z
-x,1/2+y,1/2+z
x,-y,1/2+z
1/2+x,1/2+y,z
1/2-x,-y,z
1/2+x,-y,1/2-z
1/2-x,1/2+y,1/2-z
1/2-x,1/2-y,-z
1/2+x,y,-z
1/2-x,y,1/2+z
1/2+x,1/2-y,1/2+z
loop_
_atom_site_type_symbol
_atom_site_label
_atom_site_fract_x
_atom_site_fract_y
_atom_site_fract_z
Si Si1 0.116044 0.121491 0.838613
Si Si2 0.000000 0.250000 0.250000
Si Si3 0.750000 0.500000 0.194565
Si Si4 0.619232 0.776660 0.410764
O O1 0.077376 0.250000 0.750000
O O2 0.194282 0.091932 0.778071
O O3 0.104329 0.921876 0.875986
O O4 0.114200 0.216106 0.957300
O O5 0.053516 0.358789 0.334791
O O6 0.696434 0.629400 0.123990
#
# Coordination Sequence:
#
# PCOD9510821 Si02
#       4
#    16   4   8  16
#     4  12  26  48  81 122 162 216 276 342 411 485
#     4  12  28  60  76 120 176 214 270 346 420 498
#     4  12  24  50  80 126 160 218 272 338 402 498
#     4  12  28  51  82 119 172 214 276 340 414 494
#
# _framework density 26.326404
#
# number of rings (size 3 to 8) (size 9 to 14) (size 15 to 20)
#    0.000    0.000    3.636    5.455    0.000    5.818 
#    0.000    0.000    0.000    0.000    0.000    0.000 
#    0.000    0.000    0.000    0.000    0.000    0.000 
#
# Total GULP energy -122621.585183 kJ/mol
# GULP energy per Si atom -5573.708417 kJ/mol
# Density = 2.626648 g / cm^3
# Si number density = 26.326404 Si / 1000 Ang^3
#
#
#
# Elastic Constant Matrix: (Units=GPa)
#
#
# Indices 1 2 3 4 5 6 
#
# 1 123.9547 64.7078 66.4027 0.0000 0.0000 0.0000
# 2 64.7078 196.8132 94.9190 0.0000 0.0000 0.0000
# 3 66.4027 94.9190 323.6668 0.0000 0.0000 0.0000
# 4 0.0000 0.0000 0.0000 30.3860 0.0000 0.0000
# 5 0.0000 0.0000 0.0000 0.0000 -8.6616 0.0000
# 6 0.0000 0.0000 0.0000 0.0000 0.0000 -3.2616
#
#
#
# Elastic Compliance Matrix: (Units=1/GPa)
#
#
# Indices 1 2 3 4 5 6 
#
# 1 0.010181 -0.002725 -0.001289 0.000000 0.000000 0.000000
# 2 -0.002725 0.006648 -0.001390 0.000000 0.000000 0.000000
# 3 -0.001289 -0.001390 0.003762 0.000000 0.000000 0.000000
# 4 0.000000 0.000000 0.000000 0.032910 0.000000 0.000000
# 5 0.000000 0.000000 0.000000 0.000000 -0.115452 0.000000
# 6 0.000000 0.000000 0.000000 0.000000 0.000000 -0.306595
#
#
# Mechanical properties :
#
#
# Convention : Reuss Voigt Hill
#
# Bulk Modulus (GPa) = 102.24938 121.83264 112.04101
# Shear Modulus (GPa) = -14.10529 31.58625 8.74048
#
# Velocity S-wave (km/s) = -2.31721 3.46756 1.82408
# Velocity P-wave (km/s) = 5.63597 7.90001 6.86201
#
# Compressibility (1/GPa) = 0.00978001
#
# Stress axis : x y z
#
# Youngs Moduli (GPa) = 98.22267 150.43167 265.82548
#
# Poissons Ratio (x) = 0.40999 0.34277
# Poissons Ratio (y) = 0.26770 0.36959
# Poissons Ratio (z) = 0.12665 0.20915
#
# Static dielectric constant tensor:
#      x y z
#    x 2.519820 0.000000 0.000000 
#    y 0.000000 2.919970 0.000000 
#    z 0.000000 0.000000 2.034610 
# 
# From -- ./inp_files/15000.got.cif
#   From: 2010.05.17/outbox.cif.g08.bks.cpg/sg68_8_cif.got.tgz:15000.got - 2010.06.03 18:57:09.
