data_PCOD9510145
_publ_section_title
;
Structure prediction by ZEFSAII (Michael W. Deem and Ramdas Pophale) SiO2 
 PCOD9510145
Probable space group: C C C A
;
_chemical_formula_sum "Si O2"
_cell_formula_units_Z 64
_cell_length_a 8.371438
_cell_length_b 18.994348
_cell_length_c 21.154300
_cell_angle_alpha 90.000000
_cell_angle_beta 90.000000
_cell_angle_gamma 90.000000
_cell_volume 3363.745383
_symmetry_space_group_name_H-M "C C C A"
_symmetry_group_IT_number 68
_space_group.IT_coordinate_system_code '2'
_symmetry_cell_setting 'orthorhombic'
loop_
_space_group_symop_operation_xyz
x,y,z
-x,1/2-y,z
x,1/2-y,1/2-z
-x,y,1/2-z
-x,-y,-z
x,1/2+y,-z
-x,1/2+y,1/2+z
x,-y,1/2+z
1/2+x,1/2+y,z
1/2-x,-y,z
1/2+x,-y,1/2-z
1/2-x,1/2+y,1/2-z
1/2-x,1/2-y,-z
1/2+x,y,-z
1/2-x,y,1/2+z
1/2+x,1/2-y,1/2+z
loop_
_atom_site_type_symbol
_atom_site_label
_atom_site_fract_x
_atom_site_fract_y
_atom_site_fract_z
Si Si1 0.424058 0.327100 0.032669
Si Si2 0.927554 0.970633 0.434600
Si Si3 0.572979 0.324239 0.903857
Si Si4 0.090247 0.955713 0.815965
O O1 0.500000 0.250000 0.040920
O O2 0.528628 0.387842 0.065721
O O3 0.242643 0.323220 0.058112
O O4 0.442980 0.345039 0.957953
O O5 0.750000 0.000000 0.435464
O O6 0.000000 0.000000 0.500000
O O7 0.003827 0.001777 0.371674
O O8 0.500000 0.250000 0.881078
O O9 0.602598 0.378554 0.847513
O O10 0.000000 0.951313 0.750000
O O11 0.250000 0.000000 0.804661
#
# Coordination Sequence:
#
# PCOD9510145 Si02
#       4
#    16  16  16  16
#     4  11  22  38  65 103 137 168 216 274 344 399
#     4  12  23  39  69 100 129 172 223 280 336 400
#     4  11  23  40  68  98 138 173 219 277 341 412
#     4  12  26  47  66  94 132 178 229 283 341 411
#
# _framework density 19.026409999999998
#
# number of rings (size 3 to 8) (size 9 to 14) (size 15 to 20)
#    0.000    0.500    5.000    6.000    3.500    0.500 
#    0.000    0.000    0.000    0.750    0.000    0.000 
#    0.000    0.000    0.000    0.000    0.000    0.000 
#
# Total GULP energy -178569.544010 kJ/mol
# GULP energy per Si atom -5580.298250 kJ/mol
# Density = 1.898311 g / cm^3
# Si number density = 19.026410 Si / 1000 Ang^3
#
#
#
# Elastic Constant Matrix: (Units=GPa)
#
#
# Indices 1 2 3 4 5 6 
#
# 1 154.2154 65.6764 73.3713 0.0000 0.0000 0.0000
# 2 65.6764 159.7041 57.0820 0.0000 0.0000 0.0000
# 3 73.3713 57.0820 153.5520 0.0000 0.0000 0.0000
# 4 0.0000 0.0000 0.0000 14.8412 0.0000 0.0000
# 5 0.0000 0.0000 0.0000 0.0000 32.6891 0.0000
# 6 0.0000 0.0000 0.0000 0.0000 0.0000 27.9022
#
#
#
# Elastic Compliance Matrix: (Units=1/GPa)
#
#
# Indices 1 2 3 4 5 6 
#
# 1 0.009216 -0.002556 -0.003454 0.000000 0.000000 0.000000
# 2 -0.002556 0.007930 -0.001727 0.000000 0.000000 0.000000
# 3 -0.003454 -0.001727 0.008805 0.000000 0.000000 0.000000
# 4 0.000000 0.000000 0.000000 0.067380 0.000000 0.000000
# 5 0.000000 0.000000 0.000000 0.000000 0.030591 0.000000
# 6 0.000000 0.000000 0.000000 0.000000 0.000000 0.035839
#
#
# Mechanical properties :
#
#
# Convention : Reuss Voigt Hill
#
# Bulk Modulus (GPa) = 95.43383 95.52566 95.47975
# Shear Modulus (GPa) = 27.97586 33.17594 30.57590
#
# Velocity S-wave (km/s) = 3.83870 4.18027 4.01312
# Velocity P-wave (km/s) = 8.36152 8.57994 8.47143
#
# Compressibility (1/GPa) = 0.01047846
#
# Stress axis : x y z
#
# Youngs Moduli (GPa) = 108.50818 126.10852 113.57736
#
# Poissons Ratio (x) = 0.32227 0.39225
# Poissons Ratio (y) = 0.27730 0.19612
# Poissons Ratio (z) = 0.37474 0.21775
#
# Static dielectric constant tensor:
#      x y z
#    x 1.588850 0.000000 0.000000 
#    y 0.000000 1.550070 0.000000 
#    z 0.000000 0.000000 1.602950 
# 
# From -- ./inp_files/27840.got.cif
#   From: 2010.05.17/outbox.cif.g08.bks.cpg/sg68_14_cif.got.tgz:27840.got - 2010.06.03 18:57:09.
