data_PCOD9510971
_publ_section_title
;
Structure prediction by ZEFSAII (Michael W. Deem and Ramdas Pophale) SiO2 
 PCOD9510971
Probable space group: C C C A
;
_chemical_formula_sum "Si O2"
_cell_formula_units_Z 48
_cell_length_a 27.000000
_cell_length_b 9.000000
_cell_length_c 21.000000
_cell_angle_alpha 90.000000
_cell_angle_beta 90.000000
_cell_angle_gamma 90.000000
_cell_volume 5103.000000
_symmetry_space_group_name_H-M "C C C A"
_symmetry_group_IT_number 68
_space_group.IT_coordinate_system_code '2'
_symmetry_cell_setting 'orthorhombic'
loop_
_space_group_symop_operation_xyz
x,y,z
-x,1/2-y,z
x,1/2-y,1/2-z
-x,y,1/2-z
-x,-y,-z
x,1/2+y,-z
-x,1/2+y,1/2+z
x,-y,1/2+z
1/2+x,1/2+y,z
1/2-x,-y,z
1/2+x,-y,1/2-z
1/2-x,1/2+y,1/2-z
1/2-x,1/2-y,-z
1/2+x,y,-z
1/2-x,y,1/2+z
1/2+x,1/2-y,1/2+z
loop_
_atom_site_type_symbol
_atom_site_label
_atom_site_fract_x
_atom_site_fract_y
_atom_site_fract_z
Si Si1 0.805478 0.938234 0.890136
Si Si2 0.877699 0.032765 0.009798
Si Si3 0.151347 0.070109 0.742589
Si Si4 0.555830 0.191296 0.938784
Si Si5 0.054005 0.600957 0.785501
Si Si6 0.694267 0.430259 0.874694
O O1 0.805736 0.753682 0.884192
O O2 0.750000 0.000000 0.903081
O O3 0.841822 0.005192 0.946488
O O4 0.822271 0.006147 0.821538
O O5 0.925632 0.939426 0.985782
O O6 0.904404 0.181499 0.039184
O O7 0.840511 0.999146 0.069222
O O8 0.157824 0.250000 0.750000
O O9 0.093451 0.026973 0.731359
O O10 0.172304 0.984579 0.805851
O O11 0.500000 0.250000 0.950154
O O12 0.555205 0.138248 0.862712
O O13 0.072466 0.750000 0.750000
O O14 0.000000 0.573949 0.750000
O O15 0.750000 0.500000 0.879645
#
# Coordination Sequence:
#
# PCOD9510971 Si02
#       6
#    16  16  16  16  16  16
#     4  12  26  47  74 104 148 195 244 300 364 435
#     4  12  26  45  73 102 151 183 241 296 363 431
#     4  12  26  45  71 108 148 187 245 307 361 430
#     4  12  25  47  72 109 139 196 235 301 356 442
#     4  11  22  45  79 100 140 190 249 292 370 429
#     4  12  27  46  74 105 145 198 244 298 366 434
#
# _framework density 9.4062319999999993
#
# number of rings (size 3 to 8) (size 9 to 14) (size 15 to 20)
#    0.000    0.167    5.000    5.000    4.667    1.667 
#    0.000    0.000    0.000    0.000    0.000    0.000 
#    0.000    0.000    0.000    0.000    0.000    0.000 
#
# Total GULP energy -267401.585482 kJ/mol
# GULP energy per Si atom -5570.866364 kJ/mol
# Density = 0.938482 g / cm^3
# Si number density = 9.406232 Si / 1000 Ang^3
#
#
#
# Elastic Constant Matrix: (Units=GPa)
#
#
# Indices 1 2 3 4 5 6 
#
# 1 137.0380 41.2538 53.9321 0.0000 0.0000 0.0000
# 2 41.2538 113.6793 44.1889 0.0000 0.0000 0.0000
# 3 53.9321 44.1889 175.6108 0.0000 0.0000 0.0000
# 4 0.0000 0.0000 0.0000 33.0652 0.0000 0.0000
# 5 0.0000 0.0000 0.0000 0.0000 49.8637 0.0000
# 6 0.0000 0.0000 0.0000 0.0000 0.0000 50.6358
#
#
#
# Elastic Compliance Matrix: (Units=1/GPa)
#
#
# Indices 1 2 3 4 5 6 
#
# 1 0.008849 -0.002389 -0.002117 0.000000 0.000000 0.000000
# 2 -0.002389 0.010395 -0.001882 0.000000 0.000000 0.000000
# 3 -0.002117 -0.001882 0.006818 0.000000 0.000000 0.000000
# 4 0.000000 0.000000 0.000000 0.030243 0.000000 0.000000
# 5 0.000000 0.000000 0.000000 0.000000 0.020055 0.000000
# 6 0.000000 0.000000 0.000000 0.000000 0.000000 0.019749
#
#
# Mechanical properties :
#
#
# Convention : Reuss Voigt Hill
#
# Bulk Modulus (GPa) = 75.25792 78.34198 76.79995
# Shear Modulus (GPa) = 44.12539 45.84317 44.98428
#
# Velocity S-wave (km/s) = 4.84833 4.94180 4.89529
# Velocity P-wave (km/s) = 8.45180 8.61951 8.53607
#
# Compressibility (1/GPa) = 0.01328764
#
# Stress axis : x y z
#
# Youngs Moduli (GPa) = 113.00269 96.19902 146.66897
#
# Poissons Ratio (x) = 0.22978 0.31045
# Poissons Ratio (y) = 0.26992 0.27605
# Poissons Ratio (z) = 0.23919 0.18106
#
# Static dielectric constant tensor:
#      x y z
#    x 1.695200 0.000000 0.000000 
#    y 0.000000 1.689840 0.000000 
#    z 0.000000 0.000000 1.652480 
# 
# From -- ./inp_files/41205.got.cif
#   From: 2010.05.17/outbox.ucp.g08.bks.cvg/sg68_21_cif.got.tgz:41205.got - 2010.06.11 16:49:25.
