data_PCOD9510541
_publ_section_title
;
Structure prediction by ZEFSAII (Michael W. Deem and Ramdas Pophale) SiO2 
 PCOD9510541
Probable space group: C C C A
;
_chemical_formula_sum "Si O2"
_cell_formula_units_Z 84
_cell_length_a 20.253679
_cell_length_b 11.729592
_cell_length_c 15.813037
_cell_angle_alpha 90.000000
_cell_angle_beta 90.000000
_cell_angle_gamma 90.000000
_cell_volume 3756.661947
_symmetry_space_group_name_H-M "C C C A"
_symmetry_group_IT_number 68
_space_group.IT_coordinate_system_code '2'
_symmetry_cell_setting 'orthorhombic'
loop_
_space_group_symop_operation_xyz
x,y,z
-x,1/2-y,z
x,1/2-y,1/2-z
-x,y,1/2-z
-x,-y,-z
x,1/2+y,-z
-x,1/2+y,1/2+z
x,-y,1/2+z
1/2+x,1/2+y,z
1/2-x,-y,z
1/2+x,-y,1/2-z
1/2-x,1/2+y,1/2-z
1/2-x,1/2-y,-z
1/2+x,y,-z
1/2-x,y,1/2+z
1/2+x,1/2-y,1/2+z
loop_
_atom_site_type_symbol
_atom_site_label
_atom_site_fract_x
_atom_site_fract_y
_atom_site_fract_z
Si Si1 0.000000 0.750000 0.750000
Si Si2 0.271528 0.372369 0.602804
Si Si3 0.042763 0.426224 0.564637
Si Si4 0.426316 0.134424 0.191118
Si Si5 0.351742 0.740592 0.951255
Si Si6 0.392220 0.076528 0.808935
O O1 0.949547 0.670199 0.801298
O O2 0.250000 0.500000 0.578435
O O3 0.315709 0.307629 0.533031
O O4 0.202498 0.306877 0.604684
O O5 0.317750 0.377678 0.685934
O O6 0.084744 0.320547 0.528558
O O7 0.096164 0.511795 0.603188
O O8 0.000000 0.500000 0.500000
O O9 0.996857 0.385201 0.643744
O O10 0.422122 0.250000 0.250000
O O11 0.378626 0.145854 0.111277
O O12 0.405302 0.020434 0.239676
#
# Coordination Sequence:
#
# PCOD9510541 Si02
#       6
#     4  16  16  16  16  16
#     4  12  28  48  66 108 140 184 224 302 368 432
#     4  11  24  51  67 102 150 192 243 298 354 447
#     4  12  25  42  73 110 140 190 240 303 366 430
#     4  12  24  46  76 110 139 185 246 302 364 428
#     4  11  26  44  77 102 145 196 245 299 362 441
#     4  12  26  47  73  99 150 183 236 304 368 430
#
# _framework density 22.360275999999999
#
# number of rings (size 3 to 8) (size 9 to 14) (size 15 to 20)
#    0.000    0.381    5.714    1.714    5.333    0.000 
#    8.571    0.000    0.000    0.000    0.000    0.000 
#    0.000    0.000    0.000    0.000    0.000    0.000 
#
# Total GULP energy -234653.867506 kJ/mol
# GULP energy per Si atom -5586.996845 kJ/mol
# Density = 2.230938 g / cm^3
# Si number density = 22.360276 Si / 1000 Ang^3
#
#
#
# Elastic Constant Matrix: (Units=GPa)
#
#
# Indices 1 2 3 4 5 6 
#
# 1 142.3880 50.4921 33.2615 0.0000 0.0000 0.0000
# 2 50.4921 102.7632 30.1709 0.0000 0.0000 0.0000
# 3 33.2615 30.1709 49.2754 0.0000 0.0000 0.0000
# 4 0.0000 0.0000 0.0000 28.1820 0.0000 0.0000
# 5 0.0000 0.0000 0.0000 0.0000 33.9504 0.0000
# 6 0.0000 0.0000 0.0000 0.0000 0.0000 53.2576
#
#
#
# Elastic Compliance Matrix: (Units=1/GPa)
#
#
# Indices 1 2 3 4 5 6 
#
# 1 0.009160 -0.003274 -0.004179 0.000000 0.000000 0.000000
# 2 -0.003274 0.013034 -0.005771 0.000000 0.000000 0.000000
# 3 -0.004179 -0.005771 0.026648 0.000000 0.000000 0.000000
# 4 0.000000 0.000000 0.000000 0.035484 0.000000 0.000000
# 5 0.000000 0.000000 0.000000 0.000000 0.029455 0.000000
# 6 0.000000 0.000000 0.000000 0.000000 0.000000 0.018777
#
#
# Mechanical properties :
#
#
# Convention : Reuss Voigt Hill
#
# Bulk Modulus (GPa) = 44.65125 58.03060 51.34093
# Shear Modulus (GPa) = 30.03566 35.11148 32.57357
#
# Velocity S-wave (km/s) = 3.66903 3.96695 3.82089
# Velocity P-wave (km/s) = 6.16128 6.85501 6.51738
#
# Compressibility (1/GPa) = 0.02239579
#
# Stress axis : x y z
#
# Youngs Moduli (GPa) = 109.16847 76.72250 37.52623
#
# Poissons Ratio (x) = 0.25119 0.15681
# Poissons Ratio (y) = 0.35741 0.21655
# Poissons Ratio (z) = 0.45617 0.44274
#
# Static dielectric constant tensor:
#      x y z
#    x 1.868780 0.000000 0.000000 
#    y 0.000000 1.890030 0.000000 
#    z 0.000000 0.000000 1.832960 
# 
# From -- ./inp_files/32722.got.cif
#   From: 2010.05.17/outbox.cif.g08.bks.cpg/sg68_17_cif.got.tgz:32722.got - 2010.06.03 18:57:09.
