data_PCOD9510672
_publ_section_title
;
Structure prediction by ZEFSAII (Michael W. Deem and Ramdas Pophale) SiO2 
 PCOD9510672
Probable space group: C C C A
;
_chemical_formula_sum "Si O2"
_cell_formula_units_Z 48
_cell_length_a 10.233590
_cell_length_b 23.925028
_cell_length_c 8.173825
_cell_angle_alpha 90.000000
_cell_angle_beta 90.000000
_cell_angle_gamma 90.000000
_cell_volume 2001.270545
_symmetry_space_group_name_H-M "C C C A"
_symmetry_group_IT_number 68
_space_group.IT_coordinate_system_code '2'
_symmetry_cell_setting 'orthorhombic'
loop_
_space_group_symop_operation_xyz
x,y,z
-x,1/2-y,z
x,1/2-y,1/2-z
-x,y,1/2-z
-x,-y,-z
x,1/2+y,-z
-x,1/2+y,1/2+z
x,-y,1/2+z
1/2+x,1/2+y,z
1/2-x,-y,z
1/2+x,-y,1/2-z
1/2-x,1/2+y,1/2-z
1/2-x,1/2-y,-z
1/2+x,y,-z
1/2-x,y,1/2+z
1/2+x,1/2-y,1/2+z
loop_
_atom_site_type_symbol
_atom_site_label
_atom_site_fract_x
_atom_site_fract_y
_atom_site_fract_z
Si Si1 0.623093 0.777036 0.566311
Si Si2 0.126844 0.108652 0.131419
Si Si3 0.149637 0.948777 0.312303
O O1 0.500000 0.750000 0.479332
O O2 0.621214 0.750000 0.750000
O O3 0.750000 0.750000 0.500000
O O4 0.620783 0.840054 0.497932
O O5 0.263734 0.102045 0.230641
O O6 0.000000 0.109242 0.250000
O O7 0.128767 0.057475 0.006035
O O8 0.000000 0.952264 0.250000
O O9 0.250000 0.000000 0.289991
#
# Coordination Sequence:
#
# PCOD9510672 Si02
#       3
#    16  16  16
#     4  11  28  48  75 112 155 205 259 325 386 466
#     4  12  28  49  81 116 157 215 260 327 394 470
#     4  12  28  51  81 117 163 207 265 324 396 472
#
# _framework density 23.984762
#
# number of rings (size 3 to 8) (size 9 to 14) (size 15 to 20)
#    0.000    0.333    0.000    6.000   18.667    4.000 
#    0.000    1.667    0.000    0.000    0.000    0.000 
#    0.000    0.000    0.000    0.000    0.000    0.000 
#
# Total GULP energy -133651.555957 kJ/mol
# GULP energy per Si atom -5568.814832 kJ/mol
# Density = 2.393017 g / cm^3
# Si number density = 23.984762 Si / 1000 Ang^3
#
#
#
# Elastic Constant Matrix: (Units=GPa)
#
#
# Indices 1 2 3 4 5 6 
#
# 1 271.8207 66.1431 103.6644 0.0000 0.0000 0.0000
# 2 66.1431 102.3886 61.7610 0.0000 0.0000 0.0000
# 3 103.6644 61.7610 185.5071 0.0000 0.0000 0.0000
# 4 0.0000 0.0000 0.0000 967.6257 0.0000 0.0000
# 5 0.0000 0.0000 0.0000 0.0000 53.3633 0.0000
# 6 0.0000 0.0000 0.0000 0.0000 0.0000 31.5902
#
#
#
# Elastic Compliance Matrix: (Units=1/GPa)
#
#
# Indices 1 2 3 4 5 6 
#
# 1 0.004959 -0.001917 -0.002133 0.000000 0.000000 0.000000
# 2 -0.001917 0.012962 -0.003244 0.000000 0.000000 0.000000
# 3 -0.002133 -0.003244 0.007663 0.000000 0.000000 0.000000
# 4 0.000000 0.000000 0.000000 0.001033 0.000000 0.000000
# 5 0.000000 0.000000 0.000000 0.000000 0.018739 0.000000
# 6 0.000000 0.000000 0.000000 0.000000 0.000000 0.031655
#
#
# Mechanical properties :
#
#
# Convention : Reuss Voigt Hill
#
# Bulk Modulus (GPa) = 90.94710 113.65037 102.29873
# Shear Modulus (GPa) = 52.48542 232.39238 142.43890
#
# Velocity S-wave (km/s) = 4.68298 9.85404 7.71467
# Velocity P-wave (km/s) = 8.20009 13.30250 11.04984
#
# Compressibility (1/GPa) = 0.01099540
#
# Stress axis : x y z
#
# Youngs Moduli (GPa) = 201.66470 77.14903 130.50364
#
# Poissons Ratio (x) = 0.14788 0.27835
# Poissons Ratio (y) = 0.38655 0.42339
# Poissons Ratio (z) = 0.43012 0.25029
#
# Static dielectric constant tensor:
#      x y z
#    x 2.057640 0.000000 0.000000 
#    y 0.000000 2.422690 0.000000 
#    z 0.000000 0.000000 1.873380 
# 
# From -- ./inp_files/3731.got.cif
#   From: 2010.05.17/outbox.cif.g08.bks.cpg/sg68_2_cif.got.tgz:3731.got - 2010.06.03 18:57:09.
