data_PCOD9510409
_publ_section_title
;
Structure prediction by ZEFSAII (Michael W. Deem and Ramdas Pophale) SiO2 
 PCOD9510409
Probable space group: C C C A
;
_chemical_formula_sum "Si O2"
_cell_formula_units_Z 64
_cell_length_a 4.884206
_cell_length_b 23.629381
_cell_length_c 22.021971
_cell_angle_alpha 90.000000
_cell_angle_beta 90.000000
_cell_angle_gamma 90.000000
_cell_volume 2541.572508
_symmetry_space_group_name_H-M "C C C A"
_symmetry_group_IT_number 68
_space_group.IT_coordinate_system_code '2'
_symmetry_cell_setting 'orthorhombic'
loop_
_space_group_symop_operation_xyz
x,y,z
-x,1/2-y,z
x,1/2-y,1/2-z
-x,y,1/2-z
-x,-y,-z
x,1/2+y,-z
-x,1/2+y,1/2+z
x,-y,1/2+z
1/2+x,1/2+y,z
1/2-x,-y,z
1/2+x,-y,1/2-z
1/2-x,1/2+y,1/2-z
1/2-x,1/2-y,-z
1/2+x,y,-z
1/2-x,y,1/2+z
1/2+x,1/2-y,1/2+z
loop_
_atom_site_type_symbol
_atom_site_label
_atom_site_fract_x
_atom_site_fract_y
_atom_site_fract_z
Si Si1 0.568808 0.339003 0.537065
Si Si2 0.739111 0.591591 0.792370
Si Si3 0.734197 0.287735 0.846634
Si Si4 0.980776 0.537122 0.914224
O O1 0.878411 0.324792 0.520577
O O2 0.431086 0.309277 0.594116
O O3 0.556177 0.405810 0.550704
O O4 0.500000 0.566703 0.750000
O O5 0.667346 0.655266 0.813279
O O6 0.828424 0.558099 0.852560
O O7 0.000000 0.595744 0.750000
O O8 0.500000 0.250000 0.814700
O O9 0.000000 0.250000 0.857769
O O10 0.750000 0.500000 0.947761
O O11 0.250000 0.500000 0.901541
#
# Coordination Sequence:
#
# PCOD9510409 Si02
#       4
#    16  16  16  16
#     4  11  24  41  63  93 127 165 211 261 315 378
#     4  11  24  42  64  92 126 164 210 263 318 379
#     4  11  24  41  63  93 127 165 211 261 316 381
#     4  11  24  42  64  92 126 164 210 262 317 379
#
# _framework density 25.181259000000001
#
# number of rings (size 3 to 8) (size 9 to 14) (size 15 to 20)
#    0.000    1.000    0.000    6.000    0.000   19.000 
#    0.000    0.000    0.000    0.000    0.000    0.000 
#    0.000    0.000    0.000    0.000    0.000    0.000 
#
# Total GULP energy -179448.265267 kJ/mol
# GULP energy per Si atom -5607.758290 kJ/mol
# Density = 2.512394 g / cm^3
# Si number density = 25.181259 Si / 1000 Ang^3
#
#
#
# Elastic Constant Matrix: (Units=GPa)
#
#
# Indices 1 2 3 4 5 6 
#
# 1 147.9168 50.4598 23.7782 0.0000 0.0000 0.0000
# 2 50.4598 116.0601 18.3953 0.0000 0.0000 0.0000
# 3 23.7782 18.3953 88.4359 0.0000 0.0000 0.0000
# 4 0.0000 0.0000 0.0000 -7.5686 0.0000 0.0000
# 5 0.0000 0.0000 0.0000 0.0000 5.7543 0.0000
# 6 0.0000 0.0000 0.0000 0.0000 0.0000 137.6191
#
#
#
# Elastic Compliance Matrix: (Units=1/GPa)
#
#
# Indices 1 2 3 4 5 6 
#
# 1 0.008126 -0.003295 -0.001499 0.000000 0.000000 0.000000
# 2 -0.003295 0.010246 -0.001245 0.000000 0.000000 0.000000
# 3 -0.001499 -0.001245 0.011970 0.000000 0.000000 0.000000
# 4 0.000000 0.000000 0.000000 -0.132124 0.000000 0.000000
# 5 0.000000 0.000000 0.000000 0.000000 0.173782 0.000000
# 6 0.000000 0.000000 0.000000 0.000000 0.000000 0.007266
#
#
# Mechanical properties :
#
#
# Convention : Reuss Voigt Hill
#
# Bulk Modulus (GPa) = 54.75843 59.74218 57.25031
# Shear Modulus (GPa) = 51.31744 44.47959 47.89852
#
# Velocity S-wave (km/s) = 4.51923 4.20739 4.36610
# Velocity P-wave (km/s) = 7.00173 6.88325 6.94274
#
# Compressibility (1/GPa) = 0.01826203
#
# Stress axis : x y z
#
# Youngs Moduli (GPa) = 123.06639 97.59658 83.54353
#
# Poissons Ratio (x) = 0.32160 0.12526
# Poissons Ratio (y) = 0.40553 0.10404
# Poissons Ratio (z) = 0.18452 0.12154
#
# Static dielectric constant tensor:
#      x y z
#    x 1.901420 0.000000 0.000000 
#    y 0.000000 2.020200 0.000000 
#    z 0.000000 0.000000 2.196700 
# 
# From -- ./inp_files/34949.got.cif
#   From: 2010.05.17/outbox.cif.g08.bks.cpg/sg68_18_cif.got.tgz:34949.got - 2010.06.03 18:57:09.
