data_PCOD9510963
_publ_section_title
;
Structure prediction by ZEFSAII (Michael W. Deem and Ramdas Pophale) SiO2 
 PCOD9510963
Probable space group: C C C A
;
_chemical_formula_sum "Si O2"
_cell_formula_units_Z 44
_cell_length_a 24.000000
_cell_length_b 12.000000
_cell_length_c 15.000000
_cell_angle_alpha 90.000000
_cell_angle_beta 90.000000
_cell_angle_gamma 90.000000
_cell_volume 4320.000000
_symmetry_space_group_name_H-M "C C C A"
_symmetry_group_IT_number 68
_space_group.IT_coordinate_system_code '2'
_symmetry_cell_setting 'orthorhombic'
loop_
_space_group_symop_operation_xyz
x,y,z
-x,1/2-y,z
x,1/2-y,1/2-z
-x,y,1/2-z
-x,-y,-z
x,1/2+y,-z
-x,1/2+y,1/2+z
x,-y,1/2+z
1/2+x,1/2+y,z
1/2-x,-y,z
1/2+x,-y,1/2-z
1/2-x,1/2+y,1/2-z
1/2-x,1/2-y,-z
1/2+x,y,-z
1/2-x,y,1/2+z
1/2+x,1/2-y,1/2+z
loop_
_atom_site_type_symbol
_atom_site_label
_atom_site_fract_x
_atom_site_fract_y
_atom_site_fract_z
Si Si1 0.750000 0.500000 0.188579
Si Si2 0.435368 0.883460 0.756127
Si Si3 0.665304 0.735185 0.354696
Si Si4 0.368032 0.512254 0.590911
Si Si5 0.130988 0.974295 0.609373
Si Si6 0.280140 0.322668 0.172317
O O1 0.805066 0.506599 0.130822
O O2 0.753639 0.400847 0.259430
O O3 0.427900 0.750000 0.750000
O O4 0.500000 0.905972 0.750000
O O5 0.414560 0.930650 0.849739
O O6 0.403496 0.956649 0.681729
O O7 0.658429 0.750000 0.250000
O O8 0.646343 0.611669 0.377732
O O9 0.631039 0.839702 0.391098
O O10 0.731476 0.742366 0.379445
O O11 0.384477 0.495764 0.489787
O O12 0.316839 0.598963 0.609678
O O13 0.310945 0.250000 0.250000
#
# Coordination Sequence:
#
# PCOD9510963 Si02
#       6
#     8  16  16  16  16  16
#     4  12  20  36  58  98 136 178 216 260 330 414
#     4  11  26  51  74  95 133 179 227 285 345 407
#     4  11  20  42  62  94 140 178 222 272 321 406
#     4  12  25  40  68  99 132 176 227 277 338 397
#     4  12  27  40  69 103 135 177 230 278 339 407
#     4  11  19  36  61  88 142 187 216 260 328 396
#
# _framework density 10.185185000000001
#
# number of rings (size 3 to 8) (size 9 to 14) (size 15 to 20)
#    0.000    0.545    9.091    0.545    5.091    1.455 
#    0.000    1.818    0.000    0.000    0.000    0.000 
#    0.000    0.000    0.000    0.000    0.000    0.000 
#
# Total GULP energy -245079.659962 kJ/mol
# GULP energy per Si atom -5569.992272 kJ/mol
# Density = 1.016200 g / cm^3
# Si number density = 10.185185 Si / 1000 Ang^3
#
#
#
# Elastic Constant Matrix: (Units=GPa)
#
#
# Indices 1 2 3 4 5 6 
#
# 1 120.2549 38.5769 35.7150 0.0000 0.0000 0.0000
# 2 38.5769 85.2432 3.0765 0.0000 0.0000 0.0000
# 3 35.7150 3.0765 81.8269 0.0000 0.0000 0.0000
# 4 0.0000 0.0000 0.0000 10.8590 0.0000 0.0000
# 5 0.0000 0.0000 0.0000 0.0000 295.9943 0.0000
# 6 0.0000 0.0000 0.0000 0.0000 0.0000 12.9573
#
#
#
# Elastic Compliance Matrix: (Units=1/GPa)
#
#
# Indices 1 2 3 4 5 6 
#
# 1 0.011315 -0.004949 -0.004752 0.000000 0.000000 0.000000
# 2 -0.004949 0.013912 0.001637 0.000000 0.000000 0.000000
# 3 -0.004752 0.001637 0.014234 0.000000 0.000000 0.000000
# 4 0.000000 0.000000 0.000000 0.092090 0.000000 0.000000
# 5 0.000000 0.000000 0.000000 0.000000 0.003378 0.000000
# 6 0.000000 0.000000 0.000000 0.000000 0.000000 0.077177
#
#
# Mechanical properties :
#
#
# Convention : Reuss Voigt Hill
#
# Bulk Modulus (GPa) = 42.86084 49.11795 45.98940
# Shear Modulus (GPa) = 21.18547 77.95921 49.57234
#
# Velocity S-wave (km/s) = 3.22842 6.19306 4.93846
# Velocity P-wave (km/s) = 5.91468 8.67775 7.42586
#
# Compressibility (1/GPa) = 0.02333132
#
# Stress axis : x y z
#
# Youngs Moduli (GPa) = 88.38053 71.88185 70.25590
#
# Poissons Ratio (x) = 0.35574 0.33389
# Poissons Ratio (y) = 0.43739 -0.11501
# Poissons Ratio (z) = 0.42003 -0.11767
#
# Static dielectric constant tensor:
#      x y z
#    x 17.604250 0.000000 0.000000 
#    y 0.000000 2.208020 0.000000 
#    z 0.000000 0.000000 1.734810 
# 
# From -- ./inp_files/25260.got.cif
#   From: 2010.05.17/outbox.ucp.g08.bks.cvg/sg68_13_cif.got.tgz:25260.got - 2010.06.11 16:49:25.
