data_PCOD9510522
_publ_section_title
;
Structure prediction by ZEFSAII (Michael W. Deem and Ramdas Pophale) SiO2 
 PCOD9510522
Probable space group: C C C A
;
_chemical_formula_sum "Si O2"
_cell_formula_units_Z 48
_cell_length_a 9.098171
_cell_length_b 22.388037
_cell_length_c 9.941915
_cell_angle_alpha 90.000000
_cell_angle_beta 90.000000
_cell_angle_gamma 90.000000
_cell_volume 2025.070545
_symmetry_space_group_name_H-M "C C C A"
_symmetry_group_IT_number 68
_space_group.IT_coordinate_system_code '2'
_symmetry_cell_setting 'orthorhombic'
loop_
_space_group_symop_operation_xyz
x,y,z
-x,1/2-y,z
x,1/2-y,1/2-z
-x,y,1/2-z
-x,-y,-z
x,1/2+y,-z
-x,1/2+y,1/2+z
x,-y,1/2+z
1/2+x,1/2+y,z
1/2-x,-y,z
1/2+x,-y,1/2-z
1/2-x,1/2+y,1/2-z
1/2-x,1/2-y,-z
1/2+x,y,-z
1/2-x,y,1/2+z
1/2+x,1/2-y,1/2+z
loop_
_atom_site_type_symbol
_atom_site_label
_atom_site_fract_x
_atom_site_fract_y
_atom_site_fract_z
Si Si1 0.465570 0.342689 0.893449
Si Si2 0.087278 0.474528 0.122562
Si Si3 0.830825 0.289724 0.611478
O O1 0.500000 0.311229 0.750000
O O2 0.559125 0.403558 0.883525
O O3 0.287750 0.344582 0.882084
O O4 0.523515 0.313481 0.033575
O O5 0.250000 0.500000 0.123700
O O6 0.000000 0.497908 0.250000
O O7 0.000000 0.500000 0.000000
O O8 0.842238 0.250000 0.750000
O O9 0.750000 0.250000 0.500000
#
# Coordination Sequence:
#
# PCOD9510522 Si02
#       3
#    16  16  16
#     4  11  25  47  70 107 147 190 244 310 365 454
#     4  11  24  46  76 108 149 191 248 317 388 459
#     4  12  25  45  73 102 147 195 244 297 371 437
#
# _framework density 23.702877999999998
#
# number of rings (size 3 to 8) (size 9 to 14) (size 15 to 20)
#    0.000    0.667    3.333    4.000    0.000    5.333 
#    6.000    0.000    0.000    0.000    0.000    0.000 
#    0.000    0.000    0.000    0.000    0.000    0.000 
#
# Total GULP energy -133736.314016 kJ/mol
# GULP energy per Si atom -5572.346417 kJ/mol
# Density = 2.364893 g / cm^3
# Si number density = 23.702878 Si / 1000 Ang^3
#
#
#
# Elastic Constant Matrix: (Units=GPa)
#
#
# Indices 1 2 3 4 5 6 
#
# 1 233.9730 61.3926 88.5329 0.0000 0.0000 0.0000
# 2 61.3926 121.9284 48.4060 0.0000 0.0000 0.0000
# 3 88.5329 48.4060 247.4368 0.0000 0.0000 0.0000
# 4 0.0000 0.0000 0.0000 37.3591 0.0000 0.0000
# 5 0.0000 0.0000 0.0000 0.0000 47.7767 0.0000
# 6 0.0000 0.0000 0.0000 0.0000 0.0000 39.3153
#
#
#
# Elastic Compliance Matrix: (Units=1/GPa)
#
#
# Indices 1 2 3 4 5 6 
#
# 1 0.005405 -0.002118 -0.001519 0.000000 0.000000 0.000000
# 2 -0.002118 0.009722 -0.001144 0.000000 0.000000 0.000000
# 3 -0.001519 -0.001144 0.004809 0.000000 0.000000 0.000000
# 4 0.000000 0.000000 0.000000 0.026767 0.000000 0.000000
# 5 0.000000 0.000000 0.000000 0.000000 0.020931 0.000000
# 6 0.000000 0.000000 0.000000 0.000000 0.000000 0.025435
#
#
# Mechanical properties :
#
#
# Convention : Reuss Voigt Hill
#
# Bulk Modulus (GPa) = 96.40825 111.11124 103.75975
# Shear Modulus (GPa) = 47.12978 51.89068 49.51023
#
# Velocity S-wave (km/s) = 4.46394 4.68398 4.57528
# Velocity P-wave (km/s) = 8.20554 8.73106 8.47237
#
# Compressibility (1/GPa) = 0.01037256
#
# Stress axis : x y z
#
# Youngs Moduli (GPa) = 185.02365 102.85687 207.94734
#
# Poissons Ratio (x) = 0.21786 0.31596
# Poissons Ratio (y) = 0.39190 0.23791
# Poissons Ratio (z) = 0.28113 0.11768
#
# Static dielectric constant tensor:
#      x y z
#    x 1.974890 0.000000 0.000000 
#    y 0.000000 1.465820 0.000000 
#    z 0.000000 0.000000 1.909180 
# 
# From -- ./inp_files/3305.got.cif
#   From: 2010.05.17/outbox.cif.g08.bks.cpg/sg68_2_cif.got.tgz:3305.got - 2010.06.03 18:57:09.
