data_PCOD9510920
_publ_section_title
;
Structure prediction by ZEFSAII (Michael W. Deem and Ramdas Pophale) SiO2 
 PCOD9510920
Probable space group: C C C A
;
_chemical_formula_sum "Si O2"
_cell_formula_units_Z 52
_cell_length_a 18.000000
_cell_length_b 21.000000
_cell_length_c 15.000000
_cell_angle_alpha 90.000000
_cell_angle_beta 90.000000
_cell_angle_gamma 90.000000
_cell_volume 5670.000000
_symmetry_space_group_name_H-M "C C C A"
_symmetry_group_IT_number 68
_space_group.IT_coordinate_system_code '2'
_symmetry_cell_setting 'orthorhombic'
loop_
_space_group_symop_operation_xyz
x,y,z
-x,1/2-y,z
x,1/2-y,1/2-z
-x,y,1/2-z
-x,-y,-z
x,1/2+y,-z
-x,1/2+y,1/2+z
x,-y,1/2+z
1/2+x,1/2+y,z
1/2-x,-y,z
1/2+x,-y,1/2-z
1/2-x,1/2+y,1/2-z
1/2-x,1/2-y,-z
1/2+x,y,-z
1/2-x,y,1/2+z
1/2+x,1/2-y,1/2+z
loop_
_atom_site_type_symbol
_atom_site_label
_atom_site_fract_x
_atom_site_fract_y
_atom_site_fract_z
Si Si1 0.334132 0.573989 0.721953
Si Si2 0.665868 0.926011 0.221953
Si Si3 0.412812 0.136605 0.926861
Si Si4 0.930795 0.925325 0.393062
Si Si5 0.069205 0.574675 0.893062
Si Si6 0.500000 0.750000 1.000000
Si Si7 0.912812 0.863395 0.073139
O O1 0.345595 0.500000 0.693019
O O2 0.250000 0.578463 0.755246
O O3 0.391468 0.588374 0.800384
O O4 0.348468 0.622098 0.641569
O O5 0.651532 0.877902 0.141569
O O6 0.608532 0.911626 0.300383
O O7 0.483031 0.094170 0.894014
O O8 0.394172 0.112676 0.025750
O O9 0.447517 0.206106 0.939191
O O10 0.016969 0.905830 0.394014
O O11 0.924272 0.000000 0.410672
O O12 0.105828 0.612676 0.974250
O O13 0.552483 0.706106 0.939190
#
# Coordination Sequence:
#
# PCOD9510920 Si02
#       7
#    16  16  16  16  16   8  16
#     4  10  20  32  50  80 112 136 160 199 257 318
#     4  10  20  32  50  80 112 136 160 199 257 318
#     4  10  18  34  54  72  99 135 174 214 255 290
#     4   9  17  30  51  77 100 127 169 215 256 303
#     4   9  17  30  51  77 100 127 169 215 256 303
#     4   8  20  36  54  76  96 130 184 228 242 276
#     4  10  18  34  54  72  99 135 174 214 255 290
#
# _framework density 9.1710759999999993
#
# number of rings (size 3 to 8) (size 9 to 14) (size 15 to 20)
#    0.000    2.769    0.000    4.615    0.000    3.692 
#    0.000   16.154    0.000    9.231    0.000    0.000 
#    0.000    0.000    0.000    0.000    0.000    0.000 
#
# Total GULP energy -289688.779705 kJ/mol
# GULP energy per Si atom -5570.938071 kJ/mol
# Density = 0.915020 g / cm^3
# Si number density = 9.171076 Si / 1000 Ang^3
#
#
#
# Elastic Constant Matrix: (Units=GPa)
#
#
# Indices 1 2 3 4 5 6 
#
# 1 12.0719 1.5732 17.5898 0.0000 0.0000 0.0000
# 2 1.5732 50.6637 34.8033 0.0000 0.0000 0.0000
# 3 17.5898 34.8033 53.7962 0.0000 0.0000 0.0000
# 4 0.0000 0.0000 0.0000 62.2049 0.0000 0.0000
# 5 0.0000 0.0000 0.0000 0.0000 -26.4745 0.0000
# 6 0.0000 0.0000 0.0000 0.0000 0.0000 20.9265
#
#
#
# Elastic Compliance Matrix: (Units=1/GPa)
#
#
# Indices 1 2 3 4 5 6 
#
# 1 0.344339 0.119965 -0.190200 0.000000 0.000000 0.000000
# 2 0.119965 0.077321 -0.089248 0.000000 0.000000 0.000000
# 3 -0.190200 -0.089248 0.138517 0.000000 0.000000 0.000000
# 4 0.000000 0.000000 0.000000 0.016076 0.000000 0.000000
# 5 0.000000 0.000000 0.000000 0.000000 -0.037772 0.000000
# 6 0.000000 0.000000 0.000000 0.000000 0.000000 0.047786
#
#
# Mechanical properties :
#
#
# Convention : Reuss Voigt Hill
#
# Bulk Modulus (GPa) = 4.14573 24.94049 14.54311
# Shear Modulus (GPa) = 5.07286 15.50241 10.28763
#
# Velocity S-wave (km/s) = 1.66484 2.91035 2.37085
# Velocity P-wave (km/s) = 2.44146 4.99203 3.92945
#
# Compressibility (1/GPa) = 0.24121211
#
# Stress axis : x y z
#
# Youngs Moduli (GPa) = 2.90411 12.93304 7.21933
#
# Poissons Ratio (x) = -1.55151 1.37311
# Poissons Ratio (y) = -0.34839 0.64431
# Poissons Ratio (z) = 0.55236 1.15424
#
# Static dielectric constant tensor:
#      x y z
#    x 1.647870 0.000000 0.000000 
#    y 0.000000 1.633220 0.000000 
#    z 0.000000 0.000000 1.660480 
# 
# From -- ./inp_files/23818.got.cif
#   From: 2010.05.17/outbox.ucp.g08.bks.cvg/sg68_12_cif.got.tgz:23818.got - 2010.06.11 16:49:25.
