data_PCOD9510018
_publ_section_title
;
Structure prediction by ZEFSAII (Michael W. Deem and Ramdas Pophale) SiO2 
 PCOD9510018
Probable space group: C C C A
;
_chemical_formula_sum "Si O2"
_cell_formula_units_Z 68
_cell_length_a 8.531615
_cell_length_b 17.354725
_cell_length_c 23.361224
_cell_angle_alpha 90.000000
_cell_angle_beta 90.000000
_cell_angle_gamma 90.000000
_cell_volume 3458.952349
_symmetry_space_group_name_H-M "C C C A"
_symmetry_group_IT_number 68
_space_group.IT_coordinate_system_code '2'
_symmetry_cell_setting 'orthorhombic'
loop_
_space_group_symop_operation_xyz
x,y,z
-x,1/2-y,z
x,1/2-y,1/2-z
-x,y,1/2-z
-x,-y,-z
x,1/2+y,-z
-x,1/2+y,1/2+z
x,-y,1/2+z
1/2+x,1/2+y,z
1/2-x,-y,z
1/2+x,-y,1/2-z
1/2-x,1/2+y,1/2-z
1/2-x,1/2-y,-z
1/2+x,y,-z
1/2-x,y,1/2+z
1/2+x,1/2-y,1/2+z
loop_
_atom_site_type_symbol
_atom_site_label
_atom_site_fract_x
_atom_site_fract_y
_atom_site_fract_z
Si Si1 0.697600 0.410063 0.131895
Si Si2 0.500000 0.250000 0.250000
Si Si3 0.816197 0.915298 0.745696
Si Si4 0.643801 0.349289 0.350460
Si Si5 0.186175 0.233545 0.063398
O O1 0.750000 0.500000 0.124894
O O2 0.747844 0.378347 0.195320
O O3 0.509168 0.396449 0.129503
O O4 0.775578 0.352758 0.085729
O O5 0.596259 0.302180 0.293487
O O6 0.776911 0.899027 0.679432
O O7 0.000000 0.909132 0.750000
O O8 0.750000 0.000000 0.753825
O O9 0.714313 0.291387 0.396321
O O10 0.000000 0.250000 0.067063
O O11 0.250000 0.250000 0.000000
#
# Coordination Sequence:
#
# PCOD9510018 Si02
#       5
#    16   4  16  16  16
#     4  11  22  41  65  96 131 169 213 273 334 390
#     4  12  20  36  66  96 128 168 216 262 348 376
#     4  11  21  35  59  97 134 169 210 267 334 396
#     4  12  21  40  66  94 130 173 216 271 331 393
#     4  12  26  46  68  94 127 176 229 273 321 391
#
# _framework density 19.659132
#
# number of rings (size 3 to 8) (size 9 to 14) (size 15 to 20)
#    0.000    0.471    4.706    5.647    0.000    0.000 
#    0.000    8.235    0.000    0.000    0.000    0.000 
#    0.000    0.000    0.000    0.000    0.000    0.000 
#
# Total GULP energy -189477.286155 kJ/mol
# GULP energy per Si atom -5572.861358 kJ/mol
# Density = 1.961439 g / cm^3
# Si number density = 19.659132 Si / 1000 Ang^3
#
#
#
# Elastic Constant Matrix: (Units=GPa)
#
#
# Indices 1 2 3 4 5 6 
#
# 1 159.1809 51.8285 49.1371 0.0000 0.0000 0.0000
# 2 51.8285 106.8171 66.1141 0.0000 0.0000 0.0000
# 3 49.1371 66.1141 155.1179 0.0000 0.0000 0.0000
# 4 0.0000 0.0000 0.0000 437.1235 0.0000 0.0000
# 5 0.0000 0.0000 0.0000 0.0000 43.1432 0.0000
# 6 0.0000 0.0000 0.0000 0.0000 0.0000 27.4393
#
#
#
# Elastic Compliance Matrix: (Units=1/GPa)
#
#
# Indices 1 2 3 4 5 6 
#
# 1 0.007605 -0.002987 -0.001136 0.000000 0.000000 0.000000
# 2 -0.002987 0.013890 -0.004974 0.000000 0.000000 0.000000
# 3 -0.001136 -0.004974 0.008927 0.000000 0.000000 0.000000
# 4 0.000000 0.000000 0.000000 0.002288 0.000000 0.000000
# 5 0.000000 0.000000 0.000000 0.000000 0.023179 0.000000
# 6 0.000000 0.000000 0.000000 0.000000 0.000000 0.036444
#
#
# Mechanical properties :
#
#
# Convention : Reuss Voigt Hill
#
# Bulk Modulus (GPa) = 81.78117 83.91948 82.85032
# Shear Modulus (GPa) = 43.62937 118.47695 81.05316
#
# Velocity S-wave (km/s) = 4.71605 7.77151 6.42797
# Velocity P-wave (km/s) = 8.44658 11.10444 9.86543
#
# Compressibility (1/GPa) = 0.01222775
#
# Stress axis : x y z
#
# Youngs Moduli (GPa) = 131.48528 71.99602 112.02591
#
# Poissons Ratio (x) = 0.21506 0.12727
# Poissons Ratio (y) = 0.39275 0.55720
# Poissons Ratio (z) = 0.14937 0.35809
#
# Static dielectric constant tensor:
#      x y z
#    x 1.395600 0.000000 0.000000 
#    y 0.000000 1.415380 0.000000 
#    z 0.000000 0.000000 1.717300 
# 
# From -- ./inp_files/27986.got.cif
#   From: 2010.05.17/outbox.cif.g08.bks.cpg/sg68_14_cif.got.tgz:27986.got - 2010.06.03 18:57:09.
