data_PCOD9510866
_publ_section_title
;
Structure prediction by ZEFSAII (Michael W. Deem and Ramdas Pophale) SiO2 
 PCOD9510866
Probable space group: C C C A
;
_chemical_formula_sum "Si O2"
_cell_formula_units_Z 40
_cell_length_a 14.600642
_cell_length_b 9.719771
_cell_length_c 10.946066
_cell_angle_alpha 90.000000
_cell_angle_beta 90.000000
_cell_angle_gamma 90.000000
_cell_volume 1553.409826
_symmetry_space_group_name_H-M "C C C A"
_symmetry_group_IT_number 68
_space_group.IT_coordinate_system_code '2'
_symmetry_cell_setting 'orthorhombic'
loop_
_space_group_symop_operation_xyz
x,y,z
-x,1/2-y,z
x,1/2-y,1/2-z
-x,y,1/2-z
-x,-y,-z
x,1/2+y,-z
-x,1/2+y,1/2+z
x,-y,1/2+z
1/2+x,1/2+y,z
1/2-x,-y,z
1/2+x,-y,1/2-z
1/2-x,1/2+y,1/2-z
1/2-x,1/2-y,-z
1/2+x,y,-z
1/2-x,y,1/2+z
1/2+x,1/2-y,1/2+z
loop_
_atom_site_type_symbol
_atom_site_label
_atom_site_fract_x
_atom_site_fract_y
_atom_site_fract_z
Si Si1 0.588615 0.092490 0.660735
Si Si2 0.596839 0.706283 0.936918
Si Si3 0.752893 0.250000 0.250000
O O1 0.500000 0.085392 0.750000
O O2 0.592845 0.222099 0.568489
O O3 0.680224 0.118966 0.737892
O O4 0.596383 0.958062 0.576388
O O5 0.500000 0.750000 0.879513
O O6 0.684733 0.759307 0.864450
#
# Coordination Sequence:
#
# PCOD9510866 Si02
#       3
#    16  16   8
#     4  12  28  52  79 115 161 211 267 330 398 478
#     4  12  27  49  80 114 158 213 267 327 399 473
#     4  12  26  46  76 118 160 206 262 324 390 474
#
# _framework density 25.749804999999999
#
# number of rings (size 3 to 8) (size 9 to 14) (size 15 to 20)
#    0.000    0.000    0.000    9.600    0.000    6.400 
#    0.000    6.000    0.000    0.000    0.000    0.000 
#    0.000    0.000    0.000    0.000    0.000    0.000 
#
# Total GULP energy -112006.923599 kJ/mol
# GULP energy per Si atom -5600.346180 kJ/mol
# Density = 2.569120 g / cm^3
# Si number density = 25.749805 Si / 1000 Ang^3
#
#
#
# Elastic Constant Matrix: (Units=GPa)
#
#
# Indices 1 2 3 4 5 6 
#
# 1 231.1171 63.0556 65.0703 0.0000 0.0000 0.0000
# 2 63.0556 198.2160 84.3444 0.0000 0.0000 0.0000
# 3 65.0703 84.3444 148.2508 0.0000 0.0000 0.0000
# 4 0.0000 0.0000 0.0000 15.5703 0.0000 0.0000
# 5 0.0000 0.0000 0.0000 0.0000 32.4094 0.0000
# 6 0.0000 0.0000 0.0000 0.0000 0.0000 38.8317
#
#
#
# Elastic Compliance Matrix: (Units=1/GPa)
#
#
# Indices 1 2 3 4 5 6 
#
# 1 0.005049 -0.000875 -0.001718 0.000000 0.000000 0.000000
# 2 -0.000875 0.006808 -0.003489 0.000000 0.000000 0.000000
# 3 -0.001718 -0.003489 0.009485 0.000000 0.000000 0.000000
# 4 0.000000 0.000000 0.000000 0.064225 0.000000 0.000000
# 5 0.000000 0.000000 0.000000 0.000000 0.030855 0.000000
# 6 0.000000 0.000000 0.000000 0.000000 0.000000 0.025752
#
#
# Mechanical properties :
#
#
# Convention : Reuss Voigt Hill
#
# Bulk Modulus (GPa) = 108.97144 111.39160 110.18152
# Shear Modulus (GPa) = 31.76642 41.70317 36.73480
#
# Velocity S-wave (km/s) = 3.51616 4.02873 3.78114
# Velocity P-wave (km/s) = 7.67435 8.06189 7.87050
#
# Compressibility (1/GPa) = 0.00917672
#
# Stress axis : x y z
#
# Youngs Moduli (GPa) = 198.04447 146.88347 105.43267
#
# Poissons Ratio (x) = 0.12853 0.18118
# Poissons Ratio (y) = 0.17330 0.36788
# Poissons Ratio (z) = 0.34032 0.51252
#
# Static dielectric constant tensor:
#      x y z
#    x 2.068660 0.000000 0.000000 
#    y 0.000000 2.049720 0.000000 
#    z 0.000000 0.000000 2.664840 
# 
# From -- ./inp_files/12260.got.cif
#   From: 2010.05.17/outbox.cif.g08.bks.cpg/sg68_7_cif.got.tgz:12260.got - 2010.06.03 18:57:09.
