data_PCOD9510751
_publ_section_title
;
Structure prediction by ZEFSAII (Michael W. Deem and Ramdas Pophale) SiO2 
 PCOD9510751
Probable space group: C C C A
;
_chemical_formula_sum "Si O2"
_cell_formula_units_Z 40
_cell_length_a 14.954598
_cell_length_b 4.860501
_cell_length_c 23.619580
_cell_angle_alpha 90.000000
_cell_angle_beta 90.000000
_cell_angle_gamma 90.000000
_cell_volume 1716.832598
_symmetry_space_group_name_H-M "C C C A"
_symmetry_group_IT_number 68
_space_group.IT_coordinate_system_code '2'
_symmetry_cell_setting 'orthorhombic'
loop_
_space_group_symop_operation_xyz
x,y,z
-x,1/2-y,z
x,1/2-y,1/2-z
-x,y,1/2-z
-x,-y,-z
x,1/2+y,-z
-x,1/2+y,1/2+z
x,-y,1/2+z
1/2+x,1/2+y,z
1/2-x,-y,z
1/2+x,-y,1/2-z
1/2-x,1/2+y,1/2-z
1/2-x,1/2-y,-z
1/2+x,y,-z
1/2-x,y,1/2+z
1/2+x,1/2-y,1/2+z
loop_
_atom_site_type_symbol
_atom_site_label
_atom_site_fract_x
_atom_site_fract_y
_atom_site_fract_z
Si Si1 0.085128 0.584980 0.371945
Si Si2 0.147368 0.926775 0.807502
Si Si3 0.750000 0.000000 0.456833
O O1 0.092881 0.272357 0.349641
O O2 0.166305 0.573132 0.416375
O O3 0.000000 0.750000 0.397495
O O4 0.103744 0.775527 0.316407
O O5 0.149893 0.750000 0.750000
O O6 0.250000 0.000000 0.822657
O O7 0.750000 0.750000 0.500000
#
# Coordination Sequence:
#
# PCOD9510751 Si02
#       3
#    16  16   8
#     4  12  26  45  71 106 144 186 244 307 372 449
#     4  12  23  43  71 105 148 195 238 288 365 455
#     4  12  26  48  74  98 140 188 250 318 384 442
#
# _framework density 23.298718000000001
#
# number of rings (size 3 to 8) (size 9 to 14) (size 15 to 20)
#    0.000    0.000    4.000    7.200    0.000    6.400 
#    0.000    0.000    0.000    0.000    0.000    0.000 
#    0.000    0.000    0.000    0.000    0.000    0.000 
#
# Total GULP energy -111339.066167 kJ/mol
# GULP energy per Si atom -5566.953308 kJ/mol
# Density = 2.324569 g / cm^3
# Si number density = 23.298718 Si / 1000 Ang^3
#
#
#
# Elastic Constant Matrix: (Units=GPa)
#
#
# Indices 1 2 3 4 5 6 
#
# 1 199.1786 32.5934 69.6086 0.0000 0.0000 0.0000
# 2 32.5934 185.0741 50.5795 0.0000 0.0000 0.0000
# 3 69.6086 50.5795 95.7464 0.0000 0.0000 0.0000
# 4 0.0000 0.0000 0.0000 1.5940 0.0000 0.0000
# 5 0.0000 0.0000 0.0000 0.0000 10.5624 0.0000
# 6 0.0000 0.0000 0.0000 0.0000 0.0000 49.0822
#
#
#
# Elastic Compliance Matrix: (Units=1/GPa)
#
#
# Indices 1 2 3 4 5 6 
#
# 1 0.006736 0.000178 -0.004991 0.000000 0.000000 0.000000
# 2 0.000178 0.006320 -0.003468 0.000000 0.000000 0.000000
# 3 -0.004991 -0.003468 0.015904 0.000000 0.000000 0.000000
# 4 0.000000 0.000000 0.000000 0.627338 0.000000 0.000000
# 5 0.000000 0.000000 0.000000 0.000000 0.094675 0.000000
# 6 0.000000 0.000000 0.000000 0.000000 0.000000 0.020374
#
#
# Mechanical properties :
#
#
# Convention : Reuss Voigt Hill
#
# Bulk Modulus (GPa) = 80.65601 87.28468 83.97034
# Shear Modulus (GPa) = 6.31280 34.06222 20.18751
#
# Velocity S-wave (km/s) = 1.64784 3.82773 2.94677
# Velocity P-wave (km/s) = 6.18982 7.55513 6.90630
#
# Compressibility (1/GPa) = 0.01239833
#
# Stress axis : x y z
#
# Youngs Moduli (GPa) = 148.46217 158.23718 62.87537
#
# Poissons Ratio (x) = -0.02812 0.31380
# Poissons Ratio (y) = -0.02639 0.21803
# Poissons Ratio (z) = 0.74095 0.54871
#
# Static dielectric constant tensor:
#      x y z
#    x 2.020240 0.000000 0.000000 
#    y 0.000000 1.735270 0.000000 
#    z 0.000000 0.000000 1.599120 
# 
# From -- ./inp_files/44812.got.cif
#   From: 2010.05.17/outbox.cif.g08.bks.cpg/sg68_23_cif.got.tgz:44812.got - 2010.06.03 18:57:09.
