data_PCOD9510204
_publ_section_title
;
Structure prediction by ZEFSAII (Michael W. Deem and Ramdas Pophale) SiO2 
 PCOD9510204
Probable space group: C C C A
;
_chemical_formula_sum "Si O2"
_cell_formula_units_Z 88
_cell_length_a 24.540577
_cell_length_b 5.083828
_cell_length_c 32.137194
_cell_angle_alpha 90.000000
_cell_angle_beta 90.000000
_cell_angle_gamma 90.000000
_cell_volume 4009.438653
_symmetry_space_group_name_H-M "C C C A"
_symmetry_group_IT_number 68
_space_group.IT_coordinate_system_code '2'
_symmetry_cell_setting 'orthorhombic'
loop_
_space_group_symop_operation_xyz
x,y,z
-x,1/2-y,z
x,1/2-y,1/2-z
-x,y,1/2-z
-x,-y,-z
x,1/2+y,-z
-x,1/2+y,1/2+z
x,-y,1/2+z
1/2+x,1/2+y,z
1/2-x,-y,z
1/2+x,-y,1/2-z
1/2-x,1/2+y,1/2-z
1/2-x,1/2-y,-z
1/2+x,y,-z
1/2-x,y,1/2+z
1/2+x,1/2-y,1/2+z
loop_
_atom_site_type_symbol
_atom_site_label
_atom_site_fract_x
_atom_site_fract_y
_atom_site_fract_z
Si Si1 0.616517 0.436414 0.133989
Si Si2 0.694137 0.330037 0.202723
Si Si3 0.750000 0.000000 0.137942
Si Si4 0.196832 0.381741 0.429006
Si Si5 0.551696 0.571149 0.387206
Si Si6 0.594379 0.182290 0.526113
O O1 0.642374 0.449172 0.179747
O O2 0.659735 0.400258 0.095577
O O3 0.599298 0.734025 0.126095
O O4 0.568379 0.219752 0.128579
O O5 0.684943 0.250000 0.250000
O O6 0.750000 0.500000 0.201574
O O7 0.704876 0.095269 0.170513
O O8 0.724103 0.782277 0.108448
O O9 0.250000 0.500000 0.451796
O O10 0.156768 0.203112 0.456788
O O11 0.500000 0.750000 0.374094
O O12 0.555798 0.579576 0.437139
O O13 0.585565 0.480062 0.511281
#
# Coordination Sequence:
#
# PCOD9510204 Si02
#       6
#    16  16   8  16  16  16
#     4  11  22  42  66  95 130 163 216 263 311 383
#     4  12  23  35  61 100 138 174 203 252 307 371
#     4  12  20  38  58  88 132 176 224 242 288 360
#     4  11  23  36  63  85 128 180 209 249 304 380
#     4  11  25  45  72  92 114 164 220 275 332 380
#     4  11  25  41  59  92 126 158 209 266 324 381
#
# _framework density 21.948212000000002
#
# number of rings (size 3 to 8) (size 9 to 14) (size 15 to 20)
#    0.000    0.727    4.545    4.909    2.545    1.455 
#    0.000    0.000    0.000    3.273    0.000    0.000 
#    0.000    0.000    0.000    0.000    0.000    0.000 
#
# Total GULP energy -245375.213568 kJ/mol
# GULP energy per Si atom -5576.709399 kJ/mol
# Density = 2.189826 g / cm^3
# Si number density = 21.948212 Si / 1000 Ang^3
#
#
#
# Elastic Constant Matrix: (Units=GPa)
#
#
# Indices 1 2 3 4 5 6 
#
# 1 39.7194 -2.3093 -3.4500 0.0000 0.0000 0.0000
# 2 -2.3093 83.6679 11.6406 0.0000 0.0000 0.0000
# 3 -3.4500 11.6406 57.4782 0.0000 0.0000 0.0000
# 4 0.0000 0.0000 0.0000 17.6972 0.0000 0.0000
# 5 0.0000 0.0000 0.0000 0.0000 13.8854 0.0000
# 6 0.0000 0.0000 0.0000 0.0000 0.0000 31.0935
#
#
#
# Elastic Compliance Matrix: (Units=1/GPa)
#
#
# Indices 1 2 3 4 5 6 
#
# 1 0.025329 0.000502 0.001419 0.000000 0.000000 0.000000
# 2 0.000502 0.012308 -0.002463 0.000000 0.000000 0.000000
# 3 0.001419 -0.002463 0.017982 0.000000 0.000000 0.000000
# 4 0.000000 0.000000 0.000000 0.056506 0.000000 0.000000
# 5 0.000000 0.000000 0.000000 0.000000 0.072018 0.000000
# 6 0.000000 0.000000 0.000000 0.000000 0.000000 0.032161
#
#
# Mechanical properties :
#
#
# Convention : Reuss Voigt Hill
#
# Bulk Modulus (GPa) = 18.33687 21.40311 19.86999
# Shear Modulus (GPa) = 21.22538 24.20085 22.71311
#
# Velocity S-wave (km/s) = 3.11314 3.32420 3.22040
# Velocity P-wave (km/s) = 4.61465 4.95041 4.78547
#
# Compressibility (1/GPa) = 0.05453494
#
# Stress axis : x y z
#
# Youngs Moduli (GPa) = 39.48041 81.24482 55.61177
#
# Poissons Ratio (x) = -0.04076 -0.07890
# Poissons Ratio (y) = -0.01981 0.13695
# Poissons Ratio (z) = -0.05601 0.20008
#
# Static dielectric constant tensor:
#      x y z
#    x 2.037920 0.000000 0.000000 
#    y 0.000000 1.907580 0.000000 
#    z 0.000000 0.000000 1.790720 
# 
# From -- ./inp_files/55982.got.cif
#   From: 2010.05.17/outbox.cif.g08.bks.cpg/sg68_28_cif.got.tgz:55982.got - 2010.06.03 18:57:09.
