data_PCOD9510380
_publ_section_title
;
Structure prediction by ZEFSAII (Michael W. Deem and Ramdas Pophale) SiO2 
 PCOD9510380
Probable space group: C C C A
;
_chemical_formula_sum "Si O2"
_cell_formula_units_Z 112
_cell_length_a 28.270473
_cell_length_b 11.041508
_cell_length_c 14.454450
_cell_angle_alpha 90.000000
_cell_angle_beta 90.000000
_cell_angle_gamma 90.000000
_cell_volume 4511.937109
_symmetry_space_group_name_H-M "C C C A"
_symmetry_group_IT_number 68
_space_group.IT_coordinate_system_code '2'
_symmetry_cell_setting 'orthorhombic'
loop_
_space_group_symop_operation_xyz
x,y,z
-x,1/2-y,z
x,1/2-y,1/2-z
-x,y,1/2-z
-x,-y,-z
x,1/2+y,-z
-x,1/2+y,1/2+z
x,-y,1/2+z
1/2+x,1/2+y,z
1/2-x,-y,z
1/2+x,-y,1/2-z
1/2-x,1/2+y,1/2-z
1/2-x,1/2-y,-z
1/2+x,y,-z
1/2-x,y,1/2+z
1/2+x,1/2-y,1/2+z
loop_
_atom_site_type_symbol
_atom_site_label
_atom_site_fract_x
_atom_site_fract_y
_atom_site_fract_z
Si Si1 0.609460 0.390204 0.264471
Si Si2 0.644027 0.248932 0.855496
Si Si3 0.430591 0.556827 0.923816
Si Si4 0.272347 0.866420 0.046438
Si Si5 0.719605 0.611046 0.719916
Si Si6 0.649882 0.498769 0.938669
Si Si7 0.453016 0.206917 0.536223
O O1 0.597417 0.250000 0.250000
O O2 0.577377 0.455939 0.187048
O O3 0.664578 0.404225 0.239159
O O4 0.612504 0.429161 0.372177
O O5 0.630832 0.250000 0.750000
O O6 0.686526 0.160041 0.879011
O O7 0.662932 0.379780 0.883062
O O8 0.597422 0.223968 0.914574
O O9 0.456700 0.439230 0.966600
O O10 0.379075 0.545516 0.971920
O O11 0.450804 0.689641 0.953896
O O12 0.227738 0.903428 0.109704
O O13 0.250000 0.750000 0.000000
O O14 0.302685 0.931408 0.966287
O O15 0.732228 0.750000 0.750000
O O16 0.750000 0.500000 0.761788
O O17 0.500000 0.250000 0.589781
#
# Coordination Sequence:
#
# PCOD9510380 Si02
#       7
#    16  16  16  16  16  16  16
#     4  11  24  44  69 100 144 193 243 298 368 447
#     4  11  26  46  70 102 145 192 245 307 373 438
#     4  11  23  46  76 106 150 188 239 303 369 450
#     4  12  26  43  68 100 143 189 249 300 368 434
#     4  11  26  42  65  97 145 190 245 300 362 432
#     4  11  25  42  70 100 137 192 244 294 368 434
#     4  11  24  44  77 112 146 190 242 300 375 446
#
# _framework density 24.823041
#
# number of rings (size 3 to 8) (size 9 to 14) (size 15 to 20)
#    0.000    0.857    1.429    5.143   12.000    0.286 
#    0.000    0.000    0.000    9.000    0.000    0.000 
#    0.000    0.000    0.000    0.000    0.000    0.000 
#
# Total GULP energy -312719.374452 kJ/mol
# GULP energy per Si atom -5584.274544 kJ/mol
# Density = 2.476654 g / cm^3
# Si number density = 24.823041 Si / 1000 Ang^3
#
#
#
# Elastic Constant Matrix: (Units=GPa)
#
#
# Indices 1 2 3 4 5 6 
#
# 1 91.9328 30.6947 4.1936 0.0000 0.0000 0.0000
# 2 30.6947 155.5884 18.9729 0.0000 0.0000 0.0000
# 3 4.1936 18.9729 83.9245 0.0000 0.0000 0.0000
# 4 0.0000 0.0000 0.0000 36.3012 0.0000 0.0000
# 5 0.0000 0.0000 0.0000 0.0000 0.0268 0.0000
# 6 0.0000 0.0000 0.0000 0.0000 0.0000 44.3938
#
#
#
# Elastic Compliance Matrix: (Units=1/GPa)
#
#
# Indices 1 2 3 4 5 6 
#
# 1 0.011645 -0.002289 -0.000064 0.000000 0.000000 0.000000
# 2 -0.002289 0.007060 -0.001482 0.000000 0.000000 0.000000
# 3 -0.000064 -0.001482 0.012254 0.000000 0.000000 0.000000
# 4 0.000000 0.000000 0.000000 0.027547 0.000000 0.000000
# 5 0.000000 0.000000 0.000000 0.000000 37.301426 0.000000
# 6 0.000000 0.000000 0.000000 0.000000 0.000000 0.022526
#
#
# Mechanical properties :
#
#
# Convention : Reuss Voigt Hill
#
# Bulk Modulus (GPa) = 42.94174 48.79648 45.86911
# Shear Modulus (GPa) = 0.13370 34.64998 17.39184
#
# Velocity S-wave (km/s) = 0.23233 3.74020 2.64982
# Velocity P-wave (km/s) = 4.17237 6.19294 5.28021
#
# Compressibility (1/GPa) = 0.02328736
#
# Stress axis : x y z
#
# Youngs Moduli (GPa) = 85.87478 141.65210 81.60854
#
# Poissons Ratio (x) = 0.32431 0.00525
# Poissons Ratio (y) = 0.19661 0.12091
# Poissons Ratio (z) = 0.00552 0.20987
#
# Static dielectric constant tensor:
#      x y z
#    x 1.909760 0.000000 0.000000 
#    y 0.000000 3.318480 0.000000 
#    z 0.000000 0.000000 2.072370 
# 
# From -- ./inp_files/26413.got.cif
#   From: 2010.05.17/outbox.cif.g08.bks.cpg/sg68_14_cif.got.tgz:26413.got - 2010.06.03 18:57:09.
