data_PCOD9510879
_publ_section_title
;
Structure prediction by ZEFSAII (Michael W. Deem and Ramdas Pophale) SiO2 
 PCOD9510879
Probable space group: C C C A
;
_chemical_formula_sum "Si O2"
_cell_formula_units_Z 52
_cell_length_a 8.273190
_cell_length_b 16.515567
_cell_length_c 16.574902
_cell_angle_alpha 90.000000
_cell_angle_beta 90.000000
_cell_angle_gamma 90.000000
_cell_volume 2264.735333
_symmetry_space_group_name_H-M "C C C A"
_symmetry_group_IT_number 68
_space_group.IT_coordinate_system_code '2'
_symmetry_cell_setting 'orthorhombic'
loop_
_space_group_symop_operation_xyz
x,y,z
-x,1/2-y,z
x,1/2-y,1/2-z
-x,y,1/2-z
-x,-y,-z
x,1/2+y,-z
-x,1/2+y,1/2+z
x,-y,1/2+z
1/2+x,1/2+y,z
1/2-x,-y,z
1/2+x,-y,1/2-z
1/2-x,1/2+y,1/2-z
1/2-x,1/2-y,-z
1/2+x,y,-z
1/2-x,y,1/2+z
1/2+x,1/2-y,1/2+z
loop_
_atom_site_type_symbol
_atom_site_label
_atom_site_fract_x
_atom_site_fract_y
_atom_site_fract_z
Si Si1 0.428590 0.034071 0.331103
Si Si2 0.543889 0.158447 0.451412
Si Si3 0.603742 0.627987 0.117902
Si Si4 0.500000 0.250000 0.750000
O O1 0.500000 0.073782 0.250000
O O2 0.428451 0.096008 0.404982
O O3 0.250000 0.000000 0.317383
O O4 0.548444 0.959637 0.351355
O O5 0.500000 0.250000 0.428664
O O6 0.521892 0.151199 0.547245
O O7 0.721988 0.133639 0.423164
O O8 0.598947 0.690881 0.191401
#
# Coordination Sequence:
#
# PCOD9510879 Si02
#       4
#    16  16  16   4
#     4  12  27  47  73 109 152 196 248 307 374 442
#     4  12  27  46  78 108 149 191 250 302 373 440
#     4  12  26  50  75 110 148 197 245 309 371 440
#     4  12  28  44  82 104 152 184 250 300 368 428
#
# _framework density 22.960740999999999
#
# number of rings (size 3 to 8) (size 9 to 14) (size 15 to 20)
#    0.000    0.000    3.077    6.462    4.308    0.615 
#    0.000    0.000    0.000    0.000    0.000    0.000 
#    0.000    0.000    0.000    0.000    0.000    0.000 
#
# Total GULP energy -145756.581511 kJ/mol
# GULP energy per Si atom -5606.022366 kJ/mol
# Density = 2.290848 g / cm^3
# Si number density = 22.960741 Si / 1000 Ang^3
#
#
#
# Elastic Constant Matrix: (Units=GPa)
#
#
# Indices 1 2 3 4 5 6 
#
# 1 119.6972 -3.6262 32.7002 0.0000 0.0000 0.0000
# 2 -3.6262 104.6805 32.5649 0.0000 0.0000 0.0000
# 3 32.7002 32.5649 141.1850 0.0000 0.0000 0.0000
# 4 0.0000 0.0000 0.0000 38.8468 0.0000 0.0000
# 5 0.0000 0.0000 0.0000 0.0000 29.2972 0.0000
# 6 0.0000 0.0000 0.0000 0.0000 0.0000 -39.6450
#
#
#
# Elastic Compliance Matrix: (Units=1/GPa)
#
#
# Indices 1 2 3 4 5 6 
#
# 1 0.009022 0.001037 -0.002329 0.000000 0.000000 0.000000
# 2 0.001037 0.010411 -0.002641 0.000000 0.000000 0.000000
# 3 -0.002329 -0.002641 0.008232 0.000000 0.000000 0.000000
# 4 0.000000 0.000000 0.000000 0.025742 0.000000 0.000000
# 5 0.000000 0.000000 0.000000 0.000000 0.034133 0.000000
# 6 0.000000 0.000000 0.000000 0.000000 0.000000 -0.025224
#
#
# Mechanical properties :
#
#
# Convention : Reuss Voigt Hill
#
# Bulk Modulus (GPa) = 50.51104 54.31561 52.41333
# Shear Modulus (GPa) = 65.12032 25.96139 45.54086
#
# Velocity S-wave (km/s) = 5.33134 3.36622 4.45840
# Velocity P-wave (km/s) = 7.74236 6.23023 7.02709
#
# Compressibility (1/GPa) = 0.01979765
#
# Stress axis : x y z
#
# Youngs Moduli (GPa) = 110.83969 96.05680 121.48402
#
# Poissons Ratio (x) = -0.09961 0.28291
# Poissons Ratio (y) = -0.11494 0.32089
# Poissons Ratio (z) = 0.25812 0.25372
#
# Static dielectric constant tensor:
#      x y z
#    x 1.872280 0.000000 0.000000 
#    y 0.000000 1.827360 0.000000 
#    z 0.000000 0.000000 1.851850 
# 
# From -- ./inp_files/18972.got.cif
#   From: 2010.05.17/outbox.cif.g08.bks.cpg/sg68_10_cif.got.tgz:18972.got - 2010.06.03 18:57:09.
