data_PCOD9510272
_publ_section_title
;
Structure prediction by ZEFSAII (Michael W. Deem and Ramdas Pophale) SiO2 
 PCOD9510272
Probable space group: C C C A
;
_chemical_formula_sum "Si O2"
_cell_formula_units_Z 64
_cell_length_a 4.804735
_cell_length_b 24.286864
_cell_length_c 21.053380
_cell_angle_alpha 90.000000
_cell_angle_beta 90.000000
_cell_angle_gamma 90.000000
_cell_volume 2456.759872
_symmetry_space_group_name_H-M "C C C A"
_symmetry_group_IT_number 68
_space_group.IT_coordinate_system_code '2'
_symmetry_cell_setting 'orthorhombic'
loop_
_space_group_symop_operation_xyz
x,y,z
-x,1/2-y,z
x,1/2-y,1/2-z
-x,y,1/2-z
-x,-y,-z
x,1/2+y,-z
-x,1/2+y,1/2+z
x,-y,1/2+z
1/2+x,1/2+y,z
1/2-x,-y,z
1/2+x,-y,1/2-z
1/2-x,1/2+y,1/2-z
1/2-x,1/2-y,-z
1/2+x,y,-z
1/2-x,y,1/2+z
1/2+x,1/2-y,1/2+z
loop_
_atom_site_type_symbol
_atom_site_label
_atom_site_fract_x
_atom_site_fract_y
_atom_site_fract_z
Si Si1 0.120930 0.192162 0.897807
Si Si2 0.881026 0.838254 0.816711
Si Si3 0.116511 0.921434 0.460986
Si Si4 0.525064 0.463744 0.841354
O O1 0.433339 0.188785 0.872156
O O2 0.098220 0.143734 0.948770
O O3 0.000000 0.250000 0.920444
O O4 0.932731 0.175284 0.836337
O O5 0.000000 0.817785 0.750000
O O6 0.922426 0.904242 0.817750
O O7 0.304806 0.936907 0.521318
O O8 0.273789 0.945881 0.400542
O O9 0.750000 0.500000 0.801193
O O10 0.250000 0.500000 0.852896
#
# Coordination Sequence:
#
# PCOD9510272 Si02
#       4
#    16  16  16  16
#     4  11  24  42  64  92 125 161 205 256 309 369
#     4  11  24  42  64  92 125 160 204 256 308 370
#     4  11  23  40  62  91 125 163 209 256 305 365
#     4  11  23  40  62  90 125 163 206 255 306 365
#
# _framework density 26.050574000000001
#
# number of rings (size 3 to 8) (size 9 to 14) (size 15 to 20)
#    0.000    1.000    0.000    9.000    0.000    8.000 
#    0.000    0.000    0.000    0.000    0.000    0.000 
#    0.000    0.000    0.000    0.000    0.000    0.000 
#
# Total GULP energy -179156.154767 kJ/mol
# GULP energy per Si atom -5598.629836 kJ/mol
# Density = 2.599128 g / cm^3
# Si number density = 26.050574 Si / 1000 Ang^3
#
#
#
# Elastic Constant Matrix: (Units=GPa)
#
#
# Indices 1 2 3 4 5 6 
#
# 1 133.6543 33.9503 3.1110 0.0000 0.0000 0.0000
# 2 33.9503 198.6562 8.7957 0.0000 0.0000 0.0000
# 3 3.1110 8.7957 56.5549 0.0000 0.0000 0.0000
# 4 0.0000 0.0000 0.0000 -16.5795 0.0000 0.0000
# 5 0.0000 0.0000 0.0000 0.0000 23.0136 0.0000
# 6 0.0000 0.0000 0.0000 0.0000 0.0000 42.4978
#
#
#
# Elastic Compliance Matrix: (Units=1/GPa)
#
#
# Indices 1 2 3 4 5 6 
#
# 1 0.007824 -0.001327 -0.000224 0.000000 0.000000 0.000000
# 2 -0.001327 0.005294 -0.000750 0.000000 0.000000 0.000000
# 3 -0.000224 -0.000750 0.017811 0.000000 0.000000 0.000000
# 4 0.000000 0.000000 0.000000 -0.060316 0.000000 0.000000
# 5 0.000000 0.000000 0.000000 0.000000 0.043453 0.000000
# 6 0.000000 0.000000 0.000000 0.000000 0.000000 0.023531
#
#
# Mechanical properties :
#
#
# Convention : Reuss Voigt Hill
#
# Bulk Modulus (GPa) = 37.98519 53.39769 45.69144
# Shear Modulus (GPa) = 98.08656 32.65360 65.37008
#
# Velocity S-wave (km/s) = 6.14281 3.54428 5.01478
# Velocity P-wave (km/s) = 8.05761 6.10667 7.14900
#
# Compressibility (1/GPa) = 0.02632605
#
# Stress axis : x y z
#
# Youngs Moduli (GPa) = 127.80613 188.89764 56.14522
#
# Poissons Ratio (x) = 0.25072 0.01258
# Poissons Ratio (y) = 0.16963 0.04213
# Poissons Ratio (z) = 0.02863 0.14173
#
# Static dielectric constant tensor:
#      x y z
#    x 2.112290 0.000000 0.000000 
#    y 0.000000 2.065390 0.000000 
#    z 0.000000 0.000000 2.079810 
# 
# From -- ./inp_files/34947.got.cif
#   From: 2010.05.17/outbox.cif.g08.bks.cpg/sg68_18_cif.got.tgz:34947.got - 2010.06.03 18:57:09.
