data_PCOD9510583
_publ_section_title
;
Structure prediction by ZEFSAII (Michael W. Deem and Ramdas Pophale) SiO2 
 PCOD9510583
Probable space group: C C C A
;
_chemical_formula_sum "Si O2"
_cell_formula_units_Z 64
_cell_length_a 9.108088
_cell_length_b 25.835463
_cell_length_c 10.665964
_cell_angle_alpha 90.000000
_cell_angle_beta 90.000000
_cell_angle_gamma 90.000000
_cell_volume 2509.825807
_symmetry_space_group_name_H-M "C C C A"
_symmetry_group_IT_number 68
_space_group.IT_coordinate_system_code '2'
_symmetry_cell_setting 'orthorhombic'
loop_
_space_group_symop_operation_xyz
x,y,z
-x,1/2-y,z
x,1/2-y,1/2-z
-x,y,1/2-z
-x,-y,-z
x,1/2+y,-z
-x,1/2+y,1/2+z
x,-y,1/2+z
1/2+x,1/2+y,z
1/2-x,-y,z
1/2+x,-y,1/2-z
1/2-x,1/2+y,1/2-z
1/2-x,1/2-y,-z
1/2+x,y,-z
1/2-x,y,1/2+z
1/2+x,1/2-y,1/2+z
loop_
_atom_site_type_symbol
_atom_site_label
_atom_site_fract_x
_atom_site_fract_y
_atom_site_fract_z
Si Si1 0.837531 0.371981 0.477165
Si Si2 0.272035 0.250000 0.750000
Si Si3 0.589237 0.974918 0.881488
Si Si4 0.560253 0.677405 0.885403
Si Si5 0.500000 0.339293 0.750000
O O1 0.873287 0.416825 0.572987
O O2 0.667929 0.363817 0.450149
O O3 0.918700 0.320316 0.527393
O O4 0.918046 0.377116 0.344962
O O5 0.164191 0.225548 0.853415
O O6 0.373880 0.298124 0.793455
O O7 0.500000 0.976817 0.750000
O O8 0.750000 0.000000 0.865142
O O9 0.500000 0.000000 0.000000
O O10 0.500000 0.661617 0.750000
#
# Coordination Sequence:
#
# PCOD9510583 Si02
#       5
#    16   8  16  16   8
#     4  11  26  47  79 109 158 208 266 332 411 483
#     4   9  21  46  68 112 162 210 282 328 398 468
#     4  12  28  53  86 124 162 212 269 345 422 509
#     4  11  25  46  72 111 156 210 270 336 396 483
#     4   9  22  46  76 112 156 222 268 332 392 483
#
# _framework density 25.499780000000001
#
# number of rings (size 3 to 8) (size 9 to 14) (size 15 to 20)
#    0.000    1.250    0.000    3.375    8.750    3.000 
#   18.000    0.000    0.000    0.000    0.000    0.000 
#    0.000    0.000    0.000    0.000    0.000    0.000 
#
# Total GULP energy -179027.349382 kJ/mol
# GULP energy per Si atom -5594.604668 kJ/mol
# Density = 2.544174 g / cm^3
# Si number density = 25.499780 Si / 1000 Ang^3
#
#
#
# Elastic Constant Matrix: (Units=GPa)
#
#
# Indices 1 2 3 4 5 6 
#
# 1 215.2058 65.1808 89.7490 0.0000 0.0000 0.0000
# 2 65.1808 101.5121 52.3438 0.0000 0.0000 0.0000
# 3 89.7490 52.3438 132.1330 0.0000 0.0000 0.0000
# 4 0.0000 0.0000 0.0000 41.8384 0.0000 0.0000
# 5 0.0000 0.0000 0.0000 0.0000 66.8953 0.0000
# 6 0.0000 0.0000 0.0000 0.0000 0.0000 20.9952
#
#
#
# Elastic Compliance Matrix: (Units=1/GPa)
#
#
# Indices 1 2 3 4 5 6 
#
# 1 0.006975 -0.002558 -0.003724 0.000000 0.000000 0.000000
# 2 -0.002558 0.013318 -0.003538 0.000000 0.000000 0.000000
# 3 -0.003724 -0.003538 0.011499 0.000000 0.000000 0.000000
# 4 0.000000 0.000000 0.000000 0.023901 0.000000 0.000000
# 5 0.000000 0.000000 0.000000 0.000000 0.014949 0.000000
# 6 0.000000 0.000000 0.000000 0.000000 0.000000 0.047630
#
#
# Mechanical properties :
#
#
# Convention : Reuss Voigt Hill
#
# Bulk Modulus (GPa) = 82.29714 95.93312 89.11513
# Shear Modulus (GPa) = 35.22038 42.05093 38.63566
#
# Velocity S-wave (km/s) = 3.72049 4.06528 3.89670
# Velocity P-wave (km/s) = 7.12739 7.72905 7.43431
#
# Compressibility (1/GPa) = 0.01215109
#
# Stress axis : x y z
#
# Youngs Moduli (GPa) = 143.37867 75.08558 86.96214
#
# Poissons Ratio (x) = 0.19208 0.32384
# Poissons Ratio (y) = 0.36678 0.30770
# Poissons Ratio (z) = 0.53393 0.26568
#
# Static dielectric constant tensor:
#      x y z
#    x 2.038680 0.000000 0.000000 
#    y 0.000000 2.080070 0.000000 
#    z 0.000000 0.000000 2.101830 
# 
# From -- ./inp_files/10804.got.cif
#   From: 2010.05.17/outbox.cif.g08.bks.cpg/sg68_6_cif.got.tgz:10804.got - 2010.06.03 18:57:09.
