data_PCOD9510732
_publ_section_title
;
Structure prediction by ZEFSAII (Michael W. Deem and Ramdas Pophale) SiO2 
 PCOD9510732
Probable space group: C C C A
;
_chemical_formula_sum "Si O2"
_cell_formula_units_Z 88
_cell_length_a 7.585425
_cell_length_b 21.760835
_cell_length_c 26.276058
_cell_angle_alpha 90.000000
_cell_angle_beta 90.000000
_cell_angle_gamma 90.000000
_cell_volume 4337.262292
_symmetry_space_group_name_H-M "C C C A"
_symmetry_group_IT_number 68
_space_group.IT_coordinate_system_code '2'
_symmetry_cell_setting 'orthorhombic'
loop_
_space_group_symop_operation_xyz
x,y,z
-x,1/2-y,z
x,1/2-y,1/2-z
-x,y,1/2-z
-x,-y,-z
x,1/2+y,-z
-x,1/2+y,1/2+z
x,-y,1/2+z
1/2+x,1/2+y,z
1/2-x,-y,z
1/2+x,-y,1/2-z
1/2-x,1/2+y,1/2-z
1/2-x,1/2-y,-z
1/2+x,y,-z
1/2-x,y,1/2+z
1/2+x,1/2-y,1/2+z
loop_
_atom_site_type_symbol
_atom_site_label
_atom_site_fract_x
_atom_site_fract_y
_atom_site_fract_z
Si Si1 0.647393 0.889340 0.923237
Si Si2 0.254651 0.627590 0.108399
Si Si3 0.124243 0.049011 0.472102
Si Si4 0.750000 0.000000 0.352748
Si Si5 0.903191 0.549311 0.799509
Si Si6 0.292126 0.255728 0.939347
O O1 0.438255 0.893706 0.911511
O O2 0.731353 0.939143 0.886408
O O3 0.713171 0.819765 0.919745
O O4 0.693840 0.911997 0.980210
O O5 0.404605 0.600249 0.070115
O O6 0.314262 0.599466 0.162490
O O7 0.235591 0.699804 0.097294
O O8 0.250000 0.000000 0.444393
O O9 0.000000 0.000000 0.500000
O O10 0.934778 0.010952 0.324182
O O11 0.750000 0.500000 0.786469
O O12 0.000000 0.577693 0.750000
O O13 0.500000 0.250000 0.936926
O O14 0.250000 0.250000 0.000000
#
# Coordination Sequence:
#
# PCOD9510732 Si02
#       6
#    16  16  16   8  16  16
#     4  12  24  40  66 100 142 192 234 283 356 431
#     4  12  25  43  65  97 142 191 238 292 357 431
#     4  12  23  34  56  93 140 184 225 279 341 420
#     4  12  24  42  72 104 142 178 230 298 372 428
#     4  12  25  46  73 108 138 177 238 310 375 427
#     4  12  26  42  62  96 145 200 243 283 345 436
#
# _framework density 20.289297000000001
#
# number of rings (size 3 to 8) (size 9 to 14) (size 15 to 20)
#    0.000    0.000    7.273    4.364    2.545    0.000 
#    0.000    0.000    0.000    4.909    0.000    6.364 
#    0.000    0.000    0.000    0.000    0.000    0.000 
#
# Total GULP energy -245291.298300 kJ/mol
# GULP energy per Si atom -5574.802234 kJ/mol
# Density = 2.024312 g / cm^3
# Si number density = 20.289297 Si / 1000 Ang^3
#
#
#
# Elastic Constant Matrix: (Units=GPa)
#
#
# Indices 1 2 3 4 5 6 
#
# 1 112.9573 44.5967 26.1424 0.0000 0.0000 0.0000
# 2 44.5967 179.3886 51.8851 0.0000 0.0000 0.0000
# 3 26.1424 51.8851 97.8123 0.0000 0.0000 0.0000
# 4 0.0000 0.0000 0.0000 10.6046 0.0000 0.0000
# 5 0.0000 0.0000 0.0000 0.0000 29.3501 0.0000
# 6 0.0000 0.0000 0.0000 0.0000 0.0000 36.4580
#
#
#
# Elastic Compliance Matrix: (Units=1/GPa)
#
#
# Indices 1 2 3 4 5 6 
#
# 1 0.010025 -0.002028 -0.001603 0.000000 0.000000 0.000000
# 2 -0.002028 0.006995 -0.003168 0.000000 0.000000 0.000000
# 3 -0.001603 -0.003168 0.012333 0.000000 0.000000 0.000000
# 4 0.000000 0.000000 0.000000 0.094299 0.000000 0.000000
# 5 0.000000 0.000000 0.000000 0.000000 0.034071 0.000000
# 6 0.000000 0.000000 0.000000 0.000000 0.000000 0.027429
#
#
# Mechanical properties :
#
#
# Convention : Reuss Voigt Hill
#
# Bulk Modulus (GPa) = 63.48249 70.60072 67.04160
# Shear Modulus (GPa) = 24.50936 33.11813 28.81374
#
# Velocity S-wave (km/s) = 3.47939 4.04455 3.77257
# Velocity P-wave (km/s) = 6.89189 7.52886 7.21741
#
# Compressibility (1/GPa) = 0.01575238
#
# Stress axis : x y z
#
# Youngs Moduli (GPa) = 99.75223 142.95491 81.08370
#
# Poissons Ratio (x) = 0.28998 0.13000
# Poissons Ratio (y) = 0.20235 0.25691
# Poissons Ratio (z) = 0.15994 0.45295
#
# Static dielectric constant tensor:
#      x y z
#    x 2.045180 0.000000 0.000000 
#    y 0.000000 1.718650 0.000000 
#    z 0.000000 0.000000 1.766630 
# 
# From -- ./inp_files/43163.got.cif
#   From: 2010.05.17/outbox.cif.g08.bks.cpg/sg68_22_cif.got.tgz:43163.got - 2010.06.03 18:57:09.
