data_PCOD9510706
_publ_section_title
;
Structure prediction by ZEFSAII (Michael W. Deem and Ramdas Pophale) SiO2 
 PCOD9510706
Probable space group: C C C A
;
_chemical_formula_sum "Si O2"
_cell_formula_units_Z 60
_cell_length_a 25.892637
_cell_length_b 5.487290
_cell_length_c 16.900993
_cell_angle_alpha 90.000000
_cell_angle_beta 90.000000
_cell_angle_gamma 90.000000
_cell_volume 2401.299982
_symmetry_space_group_name_H-M "C C C A"
_symmetry_group_IT_number 68
_space_group.IT_coordinate_system_code '2'
_symmetry_cell_setting 'orthorhombic'
loop_
_space_group_symop_operation_xyz
x,y,z
-x,1/2-y,z
x,1/2-y,1/2-z
-x,y,1/2-z
-x,-y,-z
x,1/2+y,-z
-x,1/2+y,1/2+z
x,-y,1/2+z
1/2+x,1/2+y,z
1/2-x,-y,z
1/2+x,-y,1/2-z
1/2-x,1/2+y,1/2-z
1/2-x,1/2-y,-z
1/2+x,y,-z
1/2-x,y,1/2+z
1/2+x,1/2-y,1/2+z
loop_
_atom_site_type_symbol
_atom_site_label
_atom_site_fract_x
_atom_site_fract_y
_atom_site_fract_z
Si Si1 0.500000 0.250000 0.750000
Si Si2 0.371794 0.250000 0.250000
Si Si3 0.705082 0.858736 0.325079
Si Si4 0.450195 0.090692 0.378831
Si Si5 0.353889 0.074565 0.956871
O O1 0.468198 0.411554 0.690076
O O2 0.336757 0.472928 0.280789
O O3 0.408220 0.237810 0.327864
O O4 0.734806 0.750000 0.250000
O O5 0.676473 0.660138 0.378923
O O6 0.750000 0.000000 0.372366
O O7 0.500000 0.250000 0.404691
O O8 0.416032 0.942235 0.442080
O O9 0.341506 0.300393 0.015239
#
# Coordination Sequence:
#
# PCOD9510706 Si02
#       5
#     4   8  16  16  16
#     4  12  22  40  74 114 144 198 264 348 382 448
#     4  12  21  46  75 116 154 187 261 344 398 458
#     4  12  26  47  84 117 150 204 276 346 406 474
#     4  12  25  43  76 112 155 208 267 329 400 474
#     4  12  30  52  75 114 169 218 259 323 407 496
#
# _framework density 24.986467000000001
#
# number of rings (size 3 to 8) (size 9 to 14) (size 15 to 20)
#    0.000    0.000    6.667    3.200    3.733    2.133 
#    0.000    0.000    0.000    0.000    0.000    0.000 
#    0.000    0.000    0.000    0.000    0.000    0.000 
#
# Total GULP energy -167496.754966 kJ/mol
# GULP energy per Si atom -5583.225166 kJ/mol
# Density = 2.492960 g / cm^3
# Si number density = 24.986467 Si / 1000 Ang^3
#
#
#
# Elastic Constant Matrix: (Units=GPa)
#
#
# Indices 1 2 3 4 5 6 
#
# 1 124.7153 55.1047 35.8215 0.0000 0.0000 0.0000
# 2 55.1047 116.6873 41.0709 0.0000 0.0000 0.0000
# 3 35.8215 41.0709 81.8460 0.0000 0.0000 0.0000
# 4 0.0000 0.0000 0.0000 73.1217 0.0000 0.0000
# 5 0.0000 0.0000 0.0000 0.0000 28.2583 0.0000
# 6 0.0000 0.0000 0.0000 0.0000 0.0000 89.4256
#
#
#
# Elastic Compliance Matrix: (Units=1/GPa)
#
#
# Indices 1 2 3 4 5 6 
#
# 1 0.010561 -0.004081 -0.002574 0.000000 0.000000 0.000000
# 2 -0.004081 0.011985 -0.004228 0.000000 0.000000 0.000000
# 3 -0.002574 -0.004228 0.015466 0.000000 0.000000 0.000000
# 4 0.000000 0.000000 0.000000 0.013676 0.000000 0.000000
# 5 0.000000 0.000000 0.000000 0.000000 0.035388 0.000000
# 6 0.000000 0.000000 0.000000 0.000000 0.000000 0.011182
#
#
# Mechanical properties :
#
#
# Convention : Reuss Voigt Hill
#
# Bulk Modulus (GPa) = 61.55508 65.24920 63.40214
# Shear Modulus (GPa) = 39.85925 50.91121 45.38523
#
# Velocity S-wave (km/s) = 3.99837 4.51882 4.26654
# Velocity P-wave (km/s) = 6.78268 7.30731 7.04988
#
# Compressibility (1/GPa) = 0.01624561
#
# Stress axis : x y z
#
# Youngs Moduli (GPa) = 94.68876 83.43448 64.65613
#
# Poissons Ratio (x) = 0.34052 0.16644
# Poissons Ratio (y) = 0.38645 0.27338
# Poissons Ratio (z) = 0.24375 0.35277
#
# Static dielectric constant tensor:
#      x y z
#    x 1.954980 0.000000 0.000000 
#    y 0.000000 1.780040 0.000000 
#    z 0.000000 0.000000 1.994770 
# 
# From -- ./inp_files/33866.got.cif
#   From: 2010.05.17/outbox.cif.g08.bks.cpg/sg68_17_cif.got.tgz:33866.got - 2010.06.03 18:57:09.
