data_PCOD9510215
_publ_section_title
;
Structure prediction by ZEFSAII (Michael W. Deem and Ramdas Pophale) SiO2 
 PCOD9510215
Probable space group: C C C A
;
_chemical_formula_sum "Si O2"
_cell_formula_units_Z 88
_cell_length_a 16.111529
_cell_length_b 21.440564
_cell_length_c 10.532014
_cell_angle_alpha 90.000000
_cell_angle_beta 90.000000
_cell_angle_gamma 90.000000
_cell_volume 3638.181746
_symmetry_space_group_name_H-M "C C C A"
_symmetry_group_IT_number 68
_space_group.IT_coordinate_system_code '2'
_symmetry_cell_setting 'orthorhombic'
loop_
_space_group_symop_operation_xyz
x,y,z
-x,1/2-y,z
x,1/2-y,1/2-z
-x,y,1/2-z
-x,-y,-z
x,1/2+y,-z
-x,1/2+y,1/2+z
x,-y,1/2+z
1/2+x,1/2+y,z
1/2-x,-y,z
1/2+x,-y,1/2-z
1/2-x,1/2+y,1/2-z
1/2-x,1/2-y,-z
1/2+x,y,-z
1/2-x,y,1/2+z
1/2+x,1/2-y,1/2+z
loop_
_atom_site_type_symbol
_atom_site_label
_atom_site_fract_x
_atom_site_fract_y
_atom_site_fract_z
Si Si1 0.849831 0.002268 0.251327
Si Si2 0.825282 0.548807 0.505938
Si Si3 0.917331 0.122765 0.835478
Si Si4 0.287904 0.324818 0.138998
Si Si5 0.413303 0.266691 0.487459
Si Si6 0.860353 0.250000 0.250000
O O1 0.879455 0.983088 0.108609
O O2 0.889056 0.947967 0.337681
O O3 0.750000 0.000000 0.230672
O O4 0.862605 0.058582 0.351853
O O5 0.750000 0.500000 0.524669
O O6 0.791483 0.614847 0.452531
O O7 0.845854 0.156233 0.755143
O O8 0.000000 0.127554 0.750000
O O9 0.915511 0.158833 0.968792
O O10 0.200300 0.303641 0.194719
O O11 0.333606 0.266176 0.074336
O O12 0.500000 0.250000 0.419680
O O13 0.413825 0.236610 0.626438
#
# Coordination Sequence:
#
# PCOD9510215 Si02
#       6
#    16  16  16  16  16   8
#     4   9  20  38  63  97 133 177 236 297 355 422
#     4   9  20  37  63  95 134 174 225 297 359 418
#     4  11  22  42  73 100 135 193 246 294 367 458
#     4  11  23  41  68 103 132 186 249 294 361 445
#     4  12  25  44  67 102 148 190 238 307 383 450
#     4  12  27  38  65 106 148 182 246 316 373 444
#
# _framework density 24.187905000000001
#
# number of rings (size 3 to 8) (size 9 to 14) (size 15 to 20)
#    0.000    1.455    3.636    0.818    5.091    4.364 
#    0.000    3.636    0.000    0.000    0.000    0.000 
#    0.000    0.000    0.000    0.000    0.000    0.000 
#
# Total GULP energy -244994.429145 kJ/mol
# GULP energy per Si atom -5568.055208 kJ/mol
# Density = 2.413285 g / cm^3
# Si number density = 24.187905 Si / 1000 Ang^3
#
#
#
# Elastic Constant Matrix: (Units=GPa)
#
#
# Indices 1 2 3 4 5 6 
#
# 1 75.3351 21.9078 4.9271 0.0000 0.0000 0.0000
# 2 21.9078 65.1257 3.2727 0.0000 0.0000 0.0000
# 3 4.9271 3.2727 99.0738 0.0000 0.0000 0.0000
# 4 0.0000 0.0000 0.0000 18.0724 0.0000 0.0000
# 5 0.0000 0.0000 0.0000 0.0000 21.0505 0.0000
# 6 0.0000 0.0000 0.0000 0.0000 0.0000 -15.5980
#
#
#
# Elastic Compliance Matrix: (Units=1/GPa)
#
#
# Indices 1 2 3 4 5 6 
#
# 1 0.014745 -0.004932 -0.000570 0.000000 0.000000 0.000000
# 2 -0.004932 0.017030 -0.000317 0.000000 0.000000 0.000000
# 3 -0.000570 -0.000317 0.010132 0.000000 0.000000 0.000000
# 4 0.000000 0.000000 0.000000 0.055333 0.000000 0.000000
# 5 0.000000 0.000000 0.000000 0.000000 0.047505 0.000000
# 6 0.000000 0.000000 0.000000 0.000000 0.000000 -0.064111
#
#
# Mechanical properties :
#
#
# Convention : Reuss Voigt Hill
#
# Bulk Modulus (GPa) = 33.03706 33.30551 33.17128
# Shear Modulus (GPa) = 48.84587 18.66679 33.75633
#
# Velocity S-wave (km/s) = 4.49869 2.78104 3.73981
# Velocity P-wave (km/s) = 6.37749 4.91036 5.69140
#
# Compressibility (1/GPa) = 0.03026904
#
# Stress axis : x y z
#
# Youngs Moduli (GPa) = 67.81747 58.72048 98.69392
#
# Poissons Ratio (x) = 0.28959 0.05630
# Poissons Ratio (y) = 0.33445 0.03131
# Poissons Ratio (z) = 0.03868 0.01863
#
# Static dielectric constant tensor:
#      x y z
#    x -0.564010 0.000000 0.000000 
#    y 0.000000 1.978390 0.000000 
#    z 0.000000 0.000000 2.107350 
# 
# From -- ./inp_files/13321.got.cif
#   From: 2010.05.17/outbox.cif.g08.bks.cpg/sg68_7_cif.got.tgz:13321.got - 2010.06.03 18:57:09.
