data_PCOD9510277
_publ_section_title
;
Structure prediction by ZEFSAII (Michael W. Deem and Ramdas Pophale) SiO2 
 PCOD9510277
Probable space group: C C C A
;
_chemical_formula_sum "Si O2"
_cell_formula_units_Z 80
_cell_length_a 25.983976
_cell_length_b 15.300924
_cell_length_c 9.415551
_cell_angle_alpha 90.000000
_cell_angle_beta 90.000000
_cell_angle_gamma 90.000000
_cell_volume 3743.423863
_symmetry_space_group_name_H-M "C C C A"
_symmetry_group_IT_number 68
_space_group.IT_coordinate_system_code '2'
_symmetry_cell_setting 'orthorhombic'
loop_
_space_group_symop_operation_xyz
x,y,z
-x,1/2-y,z
x,1/2-y,1/2-z
-x,y,1/2-z
-x,-y,-z
x,1/2+y,-z
-x,1/2+y,1/2+z
x,-y,1/2+z
1/2+x,1/2+y,z
1/2-x,-y,z
1/2+x,-y,1/2-z
1/2-x,1/2+y,1/2-z
1/2-x,1/2-y,-z
1/2+x,y,-z
1/2-x,y,1/2+z
1/2+x,1/2-y,1/2+z
loop_
_atom_site_type_symbol
_atom_site_label
_atom_site_fract_x
_atom_site_fract_y
_atom_site_fract_z
Si Si1 0.638945 0.399207 0.021168
Si Si2 0.400718 0.153683 0.718196
Si Si3 0.963247 0.018657 0.868065
Si Si4 0.813761 0.908130 0.972773
Si Si5 0.724648 0.345927 0.222100
O O1 0.583366 0.418128 0.089878
O O2 0.665788 0.493751 0.021179
O O3 0.675382 0.339735 0.117849
O O4 0.631118 0.369106 0.860551
O O5 0.423071 0.250000 0.750000
O O6 0.439777 0.073419 0.689759
O O7 0.361041 0.150697 0.585794
O O8 0.000000 0.058816 0.750000
O O9 0.000000 0.000000 0.000000
O O10 0.768110 0.899306 0.859618
O O11 0.793137 0.883817 0.127728
O O12 0.746406 0.250000 0.250000
#
# Coordination Sequence:
#
# PCOD9510277 Si02
#       5
#    16  16  16  16  16
#     4  11  24  42  65  94 128 172 221 267 327 398
#     4  11  23  42  68  96 132 170 222 276 337 389
#     4  11  23  44  68  93 127 170 223 276 330 397
#     4  11  23  40  64  94 132 176 215 262 321 400
#     4  12  24  40  64  96 136 167 214 267 329 387
#
# _framework density 21.370811
#
# number of rings (size 3 to 8) (size 9 to 14) (size 15 to 20)
#    0.000    0.800    2.000    6.600    2.800    2.000 
#    0.000    0.000    0.000    0.000    0.000    0.000 
#    0.000    0.000    0.000    0.000    0.000    0.000 
#
# Total GULP energy -223840.253911 kJ/mol
# GULP energy per Si atom -5596.006348 kJ/mol
# Density = 2.132217 g / cm^3
# Si number density = 21.370811 Si / 1000 Ang^3
#
#
#
# Elastic Constant Matrix: (Units=GPa)
#
#
# Indices 1 2 3 4 5 6 
#
# 1 74.7489 -5.4932 22.7920 0.0000 0.0000 0.0000
# 2 -5.4932 41.4351 -0.0921 0.0000 0.0000 0.0000
# 3 22.7920 -0.0921 126.1358 0.0000 0.0000 0.0000
# 4 0.0000 0.0000 0.0000 19.7893 0.0000 0.0000
# 5 0.0000 0.0000 0.0000 0.0000 28.6695 0.0000
# 6 0.0000 0.0000 0.0000 0.0000 0.0000 -3.4851
#
#
#
# Elastic Compliance Matrix: (Units=1/GPa)
#
#
# Indices 1 2 3 4 5 6 
#
# 1 0.014305 0.001891 -0.002583 0.000000 0.000000 0.000000
# 2 0.001891 0.024384 -0.000324 0.000000 0.000000 0.000000
# 3 -0.002583 -0.000324 0.008395 0.000000 0.000000 0.000000
# 4 0.000000 0.000000 0.000000 0.050532 0.000000 0.000000
# 5 0.000000 0.000000 0.000000 0.000000 0.034880 0.000000
# 6 0.000000 0.000000 0.000000 0.000000 0.000000 -0.286934
#
#
# Mechanical properties :
#
#
# Convention : Reuss Voigt Hill
#
# Bulk Modulus (GPa) = 22.19740 30.74813 26.47276
# Shear Modulus (GPa) = -36.39316 24.00229 -6.19544
#
# Velocity S-wave (km/s) = -4.13114 3.35496 -1.70450
# Velocity P-wave (km/s) = 3.51366 5.42465 2.92241
#
# Compressibility (1/GPa) = 0.04505032
#
# Stress axis : x y z
#
# Youngs Moduli (GPa) = 69.90667 41.01036 119.12519
#
# Poissons Ratio (x) = -0.07754 0.30775
# Poissons Ratio (y) = -0.13217 0.03858
# Poissons Ratio (z) = 0.18060 0.01328
#
# Static dielectric constant tensor:
#      x y z
#    x 1.770680 0.000000 0.000000 
#    y 0.000000 1.772340 0.000000 
#    z 0.000000 0.000000 1.299520 
# 
# From -- ./inp_files/8758.got.cif
#   From: 2010.05.17/outbox.cif.g08.bks.cpg/sg68_5_cif.got.tgz:8758.got - 2010.06.03 18:57:09.
