data_PCOD9510660
_publ_section_title
;
Structure prediction by ZEFSAII (Michael W. Deem and Ramdas Pophale) SiO2 
 PCOD9510660
Probable space group: C C C A
;
_chemical_formula_sum "Si O2"
_cell_formula_units_Z 116
_cell_length_a 15.271894
_cell_length_b 15.983918
_cell_length_c 17.366105
_cell_angle_alpha 90.000000
_cell_angle_beta 90.000000
_cell_angle_gamma 90.000000
_cell_volume 4239.147876
_symmetry_space_group_name_H-M "C C C A"
_symmetry_group_IT_number 68
_space_group.IT_coordinate_system_code '2'
_symmetry_cell_setting 'orthorhombic'
loop_
_space_group_symop_operation_xyz
x,y,z
-x,1/2-y,z
x,1/2-y,1/2-z
-x,y,1/2-z
-x,-y,-z
x,1/2+y,-z
-x,1/2+y,1/2+z
x,-y,1/2+z
1/2+x,1/2+y,z
1/2-x,-y,z
1/2+x,-y,1/2-z
1/2-x,1/2+y,1/2-z
1/2-x,1/2-y,-z
1/2+x,y,-z
1/2-x,y,1/2+z
1/2+x,1/2-y,1/2+z
loop_
_atom_site_type_symbol
_atom_site_label
_atom_site_fract_x
_atom_site_fract_y
_atom_site_fract_z
Si Si1 0.330352 0.705397 0.565210
Si Si2 0.032802 0.428536 0.092399
Si Si3 0.831578 0.678193 0.834918
Si Si4 0.208890 0.893076 0.204743
Si Si5 0.069249 0.592023 0.184507
Si Si6 0.155034 0.423942 0.427189
Si Si7 0.109169 0.614953 0.445145
Si Si8 0.500000 0.750000 0.250000
O O1 0.238346 0.723163 0.609247
O O2 0.395323 0.666426 0.630306
O O3 0.321212 0.634765 0.499135
O O4 0.135298 0.708879 0.471470
O O5 0.130218 0.399391 0.116139
O O6 0.029992 0.520280 0.130645
O O7 0.936191 0.395636 0.113189
O O8 0.028224 0.404281 0.001973
O O9 0.770969 0.660853 0.760947
O O10 0.927589 0.707584 0.806068
O O11 0.153044 0.944062 0.267977
O O12 0.278863 0.920907 0.142799
O O13 0.130944 0.866688 0.145301
O O14 0.000000 0.616547 0.250000
O O15 0.148874 0.520573 0.454278
#
# Coordination Sequence:
#
# PCOD9510660 Si02
#       8
#    16  16  16  16  16  16  16   4
#     4  11  28  55  83 126 182 226 303 370 444 545
#     4  12  28  49  80 121 168 225 298 351 437 539
#     4  11  27  48  82 122 171 229 290 367 450 531
#     4  11  27  49  83 119 168 226 285 356 451 526
#     4  11  27  53  86 124 173 231 291 370 448 538
#     4  12  27  52  82 122 170 234 288 365 448 533
#     4  12  27  50  85 124 165 233 291 360 439 532
#     4  12  24  48  80 124 170 220 290 362 444 520
#
# _framework density 27.363990000000001
#
# number of rings (size 3 to 8) (size 9 to 14) (size 15 to 20)
#    0.000    0.552    1.379    4.138    8.690    8.276 
#    0.000    2.069    0.000    0.000    0.000    0.000 
#    0.000    0.000    0.000    0.000    0.000    0.000 
#
# Total GULP energy -322982.041756 kJ/mol
# GULP energy per Si atom -5568.655892 kJ/mol
# Density = 2.730171 g / cm^3
# Si number density = 27.363990 Si / 1000 Ang^3
#
#
#
# Elastic Constant Matrix: (Units=GPa)
#
#
# Indices 1 2 3 4 5 6 
#
# 1 155.9856 31.3930 77.3408 0.0000 0.0000 0.0000
# 2 31.3930 103.2654 72.3461 0.0000 0.0000 0.0000
# 3 77.3408 72.3461 158.2774 0.0000 0.0000 0.0000
# 4 0.0000 0.0000 0.0000 31.3644 0.0000 0.0000
# 5 0.0000 0.0000 0.0000 0.0000 95.5927 0.0000
# 6 0.0000 0.0000 0.0000 0.0000 0.0000 30.2417
#
#
#
# Elastic Compliance Matrix: (Units=1/GPa)
#
#
# Indices 1 2 3 4 5 6 
#
# 1 0.008477 0.000478 -0.004361 0.000000 0.000000 0.000000
# 2 0.000478 0.014273 -0.006757 0.000000 0.000000 0.000000
# 3 -0.004361 -0.006757 0.011537 0.000000 0.000000 0.000000
# 4 0.000000 0.000000 0.000000 0.031883 0.000000 0.000000
# 5 0.000000 0.000000 0.000000 0.000000 0.010461 0.000000
# 6 0.000000 0.000000 0.000000 0.000000 0.000000 0.033067
#
#
# Mechanical properties :
#
#
# Convention : Reuss Voigt Hill
#
# Bulk Modulus (GPa) = 76.88218 86.63202 81.75710
# Shear Modulus (GPa) = 36.95129 47.20300 42.07715
#
# Velocity S-wave (km/s) = 3.67871 4.15782 3.92558
# Velocity P-wave (km/s) = 6.79713 7.40121 7.10559
#
# Compressibility (1/GPa) = 0.01300692
#
# Stress axis : x y z
#
# Youngs Moduli (GPa) = 117.97055 70.06460 86.67454
#
# Poissons Ratio (x) = -0.03349 0.37795
# Poissons Ratio (y) = -0.05639 0.58569
# Poissons Ratio (z) = 0.51441 0.47345
#
# Static dielectric constant tensor:
#      x y z
#    x 2.376530 0.000000 0.000000 
#    y 0.000000 2.317320 0.000000 
#    z 0.000000 0.000000 2.214870 
# 
# From -- ./inp_files/31250.got.cif
#   From: 2010.05.17/outbox.cif.g08.bks.cpg/sg68_16_cif.got.tgz:31250.got - 2010.06.03 18:57:09.
